
     RDKit          3D

 20 20  0  0  0  0  0  0  0  0999 V2000
   -0.3404   -0.0342   -0.9865 C   0  0  1  0  0  0  0  0  0  0  0  0
    1.2718   -0.0342   -0.9865 O   0  0  0  0  0  0  0  0  0  0  0  0
    1.6246   -0.0342    0.2684 C   0  0  1  0  0  0  0  0  0  0  0  0
    1.7947    1.3032    0.7301 O   0  0  0  0  0  0  0  0  0  0  0  0
    0.4643   -0.7121    1.0227 C   0  0  2  0  0  0  0  0  0  0  0  0
    0.8291   -1.9605    1.4205 O   0  0  0  0  0  0  0  0  0  0  0  0
   -0.6950   -0.7941    0.0114 C   0  0  2  0  0  0  0  0  0  0  0  0
   -0.8705   -2.2058   -0.4553 O   0  0  0  0  0  0  0  0  0  0  0  0
   -0.8625    1.3761   -0.7798 C   0  0  0  0  0  0  0  0  0  0  0  0
   -2.0035    1.5718   -1.5680 O   0  0  0  0  0  0  0  0  0  0  0  0
   -0.7127   -0.4444   -1.9175 H   0  0  0  0  0  0  0  0  0  0  0  0
    2.5379   -0.6019    0.3997 H   0  0  0  0  0  0  0  0  0  0  0  0
    2.7140    1.4850    0.8351 H   0  0  0  0  0  0  0  0  0  0  0  0
    0.1729   -0.1113    1.8757 H   0  0  0  0  0  0  0  0  0  0  0  0
    0.8606   -1.9937    2.3622 H   0  0  0  0  0  0  0  0  0  0  0  0
   -1.6092   -0.4229    0.4586 H   0  0  0  0  0  0  0  0  0  0  0  0
   -1.7544   -2.4859   -0.2843 H   0  0  0  0  0  0  0  0  0  0  0  0
   -0.0991    2.0894   -1.0664 H   0  0  0  0  0  0  0  0  0  0  0  0
   -1.1158    1.5182    0.2638 H   0  0  0  0  0  0  0  0  0  0  0  0
   -2.2069    2.4918   -1.6039 H   0  0  0  0  0  0  0  0  0  0  0  0
  1  2  1  0
  1  7  1  0
  1  9  1  0
  1 11  1  6
  2  3  1  0
  3  4  1  0
  3  5  1  0
  3 12  1  6
  4 13  1  0
  5  6  1  0
  5  7  1  0
  5 14  1  1
  6 15  1  0
  7  8  1  0
  7 16  1  1
  8 17  1  0
  9 10  1  0
  9 18  1  0
  9 19  1  0
 10 20  1  0
M  END
