
     RDKit          3D

 26 26  0  0  0  0  0  0  0  0999 V2000
    2.7965    1.2310    0.4567 C   0  0  0  0  0  0  0  0  0  0  0  0
   -1.2731    0.2430   -0.4568 C   0  0  0  0  0  0  0  0  0  0  0  0
    0.4117    1.8069    0.2671 C   0  0  0  0  0  0  0  0  0  0  0  0
    1.0257   -0.4682   -0.2091 C   0  0  0  0  0  0  0  0  0  0  0  0
    1.3872    0.8246    0.1778 C   0  0  0  0  0  0  0  0  0  0  0  0
   -0.2993   -0.7452   -0.5249 C   0  0  0  0  0  0  0  0  0  0  0  0
   -0.9062    1.5199   -0.0528 C   0  0  0  0  0  0  0  0  0  0  0  0
   -3.4642   -0.3292    0.4941 C   0  0  0  0  0  0  0  0  0  0  0  0
   -2.7203   -0.0788   -0.8076 C   0  0  1  0  0  0  0  0  0  0  0  0
   -3.4261    0.9094   -1.5830 N   0  0  0  0  0  0  0  0  0  0  0  0
    3.1426    1.7649    1.4788 O   0  0  0  0  0  0  0  0  0  0  0  0
    1.7476   -2.5723   -0.9488 O   0  0  0  0  0  0  0  0  0  0  0  0
    3.5838    1.0207   -0.5845 O   0  0  0  0  0  0  0  0  0  0  0  0
    2.9864   -1.5299    0.5897 O   0  0  0  0  0  0  0  0  0  0  0  0
   -3.0660   -1.4512    1.0725 O   0  0  0  0  0  0  0  0  0  0  0  0
    0.6815    2.8114    0.5647 H   0  0  0  0  0  0  0  0  0  0  0  0
   -0.5870   -1.7474   -0.8154 H   0  0  0  0  0  0  0  0  0  0  0  0
   -1.6421    2.3117    0.0114 H   0  0  0  0  0  0  0  0  0  0  0  0
   -2.7208   -1.0169   -1.3707 H   0  0  0  0  0  0  0  0  0  0  0  0
   -3.5254    1.7794   -1.0767 H   0  0  0  0  0  0  0  0  0  0  0  0
   -2.9078    1.1145   -2.4270 H   0  0  0  0  0  0  0  0  0  0  0  0
    2.3897   -3.2882   -0.8244 H   0  0  0  0  0  0  0  0  0  0  0  0
    4.4930    1.2873   -0.3782 H   0  0  0  0  0  0  0  0  0  0  0  0
   -3.5165   -1.5701    1.9226 H   0  0  0  0  0  0  0  0  0  0  0  0
    2.0310   -1.5612   -0.1462 C   0  0  0  0  0  0  0  0  0  0  0  0
   -4.2867    0.4163    0.9581 O   0  0  0  0  0  0  0  0  0  0  0  0
 10  9  1  0
 26  8  2  0
  9  8  1  0
  9  2  1  0
  8 15  1  0
  6  2  2  0
  6  4  1  0
  2  7  1  0
 14 25  2  0
 25  4  1  0
 25 12  1  0
  4  5  2  0
  7  3  2  0
  5  3  1  0
  5  1  1  0
  1 11  2  0
  1 13  1  0
  3 16  1  0
  6 17  1  0
  7 18  1  0
  9 19  1  6
 10 20  1  0
 10 21  1  0
 12 22  1  0
 13 23  1  0
 15 24  1  0
M  END
