
     RDKit          3D

 24 24  0  0  0  0  0  0  0  0999 V2000
    1.5935   -0.1507   -0.6714 C   0  0  2  0  0  0  0  0  0  0  0  0
    2.0036    1.1392   -1.0893 O   0  0  0  0  0  0  0  0  0  0  0  0
    0.3871   -0.5691   -1.5107 C   0  0  2  0  0  0  0  0  0  0  0  0
    0.5880   -0.3521   -2.8825 O   0  0  0  0  0  0  0  0  0  0  0  0
   -0.8403    0.2065   -1.0662 C   0  0  1  0  0  0  0  0  0  0  0  0
   -1.9106   -0.0940   -1.9266 O   0  0  0  0  0  0  0  0  0  0  0  0
   -1.1785   -0.1795    0.3699 C   0  0  2  0  0  0  0  0  0  0  0  0
   -2.1998    0.6954    0.8173 O   0  0  0  0  0  0  0  0  0  0  0  0
    0.0279   -0.1455    1.2767 C   0  0  0  0  0  0  0  0  0  0  0  0
    1.2676   -0.1727    0.7946 C   0  0  0  0  0  0  0  0  0  0  0  0
   -0.2835   -0.1477    2.7436 C   0  0  0  0  0  0  0  0  0  0  0  0
    0.8795   -0.3488    3.5028 O   0  0  0  0  0  0  0  0  0  0  0  0
    2.4009   -0.8750   -0.8585 H   0  0  0  0  0  0  0  0  0  0  0  0
    2.7309    1.4186   -0.5239 H   0  0  0  0  0  0  0  0  0  0  0  0
    0.2123   -1.6372   -1.3035 H   0  0  0  0  0  0  0  0  0  0  0  0
    1.3520   -0.8675   -3.1603 H   0  0  0  0  0  0  0  0  0  0  0  0
   -0.6114    1.2829   -1.0886 H   0  0  0  0  0  0  0  0  0  0  0  0
   -2.6789    0.3958   -1.6143 H   0  0  0  0  0  0  0  0  0  0  0  0
   -1.5549   -1.2131    0.3548 H   0  0  0  0  0  0  0  0  0  0  0  0
   -2.8498    0.1938    1.3160 H   0  0  0  0  0  0  0  0  0  0  0  0
    2.1130   -0.1826    1.4730 H   0  0  0  0  0  0  0  0  0  0  0  0
   -1.0329   -0.9308    2.9371 H   0  0  0  0  0  0  0  0  0  0  0  0
   -0.7683    0.8035    2.9982 H   0  0  0  0  0  0  0  0  0  0  0  0
    0.6505   -0.2400    4.4299 H   0  0  0  0  0  0  0  0  0  0  0  0
  1  2  1  0
  1  3  1  0
  1 10  1  0
  1 13  1  1
  2 14  1  0
  3  4  1  0
  3  5  1  0
  3 15  1  6
  4 16  1  0
  5  6  1  0
  5  7  1  0
  5 17  1  1
  6 18  1  0
  7  8  1  0
  7  9  1  0
  7 19  1  6
  8 20  1  0
  9 10  2  0
  9 11  1  0
 10 21  1  0
 11 12  1  0
 11 22  1  0
 11 23  1  0
 12 24  1  0
M  END
