
     RDKit          3D

 76 80  0  0  0  0  0  0  0  0999 V2000
   -4.3480   -2.1943   -1.5866 C   0  0  0  0  0  0  0  0  0  0  0  0
    3.7123   -3.1738   -0.5467 C   0  0  0  0  0  0  0  0  0  0  0  0
    2.9940   -1.9544   -1.0954 C   0  0  0  0  0  0  0  0  0  0  0  0
   -3.8373   -1.4116   -0.5815 C   0  0  0  0  0  0  0  0  0  0  0  0
    3.8182   -0.6057    0.7079 C   0  0  0  0  0  0  0  0  0  0  0  0
    4.5444   -1.8191    1.2728 C   0  0  0  0  0  0  0  0  0  0  0  0
    1.6192   -0.1435   -0.2124 C   0  0  0  0  0  0  0  0  0  0  0  0
    0.9542    2.0191   -0.3131 C   0  0  0  0  0  0  0  0  0  0  0  0
   -4.7216   -0.8258    0.3753 C   0  0  0  0  0  0  0  0  0  0  0  0
   -2.4585   -1.1650   -0.4546 N   0  0  0  0  0  0  0  0  0  0  0  0
    0.2925   -0.5704   -0.4463 C   0  0  0  0  0  0  0  0  0  0  0  0
   -0.1817   -1.9940   -0.3454 C   0  0  0  0  0  0  0  0  0  0  0  0
   -1.5522   -2.1704   -0.9768 C   0  0  0  0  0  0  0  0  0  0  0  0
   -0.6227    0.4474   -0.6289 C   0  0  0  0  0  0  0  0  0  0  0  0
   -5.7384   -2.4153   -1.7078 C   0  0  0  0  0  0  0  0  0  0  0  0
   -6.6128   -1.8232   -0.8350 C   0  0  0  0  0  0  0  0  0  0  0  0
   -6.1185   -1.0232    0.2183 C   0  0  0  0  0  0  0  0  0  0  0  0
   -2.0721    0.1655   -0.8943 C   0  0  0  0  0  0  0  0  0  0  0  0
   -0.3006    1.7433   -0.5874 N   0  0  0  0  0  0  0  0  0  0  0  0
    1.9290    1.1417   -0.1266 N   0  0  0  0  0  0  0  0  0  0  0  0
    2.6338   -1.0560   -0.0031 N   0  0  0  0  0  0  0  0  0  0  0  0
    4.8729   -2.7617    0.2203 N   0  0  0  0  0  0  0  0  0  0  0  0
    6.1227   -3.1328   -0.1454 C   0  0  0  0  0  0  0  0  0  0  0  0
    7.2794   -2.5846    0.6701 C   0  0  0  0  0  0  0  0  0  0  0  0
    6.3212   -3.8844   -1.0908 O   0  0  0  0  0  0  0  0  0  0  0  0
    8.6298   -3.1035    0.2071 C   0  0  0  0  0  0  0  0  0  0  0  0
   -6.9986   -0.4249    1.1534 C   0  0  0  0  0  0  0  0  0  0  0  0
   -6.5182    0.3077    2.2040 C   0  0  0  0  0  0  0  0  0  0  0  0
   -5.1292    0.4656    2.3828 C   0  0  0  0  0  0  0  0  0  0  0  0
   -4.2540   -0.0916    1.4893 C   0  0  0  0  0  0  0  0  0  0  0  0
   -6.2304   -3.1916   -2.6939 O   0  0  0  0  0  0  0  0  0  0  0  0
    1.3491    3.2808   -0.2025 O   0  0  0  0  0  0  0  0  0  0  0  0
    0.3906    4.3401   -0.3168 C   0  0  1  0  0  0  0  0  0  0  0  0
    0.9790    5.5357    0.4153 C   0  0  0  0  0  0  0  0  0  0  0  0
    1.3459    5.2765    1.7911 N   0  0  0  0  0  0  0  0  0  0  0  0
    2.0318    6.4191    2.3543 C   0  0  0  0  0  0  0  0  0  0  0  0
    0.2203    4.8948    2.6160 C   0  0  0  0  0  0  0  0  0  0  0  0
    0.1206    4.6731   -1.7730 C   0  0  0  0  0  0  0  0  0  0  0  0
   -3.6840   -2.6428   -2.3169 H   0  0  0  0  0  0  0  0  0  0  0  0
    4.0207   -3.8211   -1.3626 H   0  0  0  0  0  0  0  0  0  0  0  0
    3.6510   -1.4323   -1.8050 H   0  0  0  0  0  0  0  0  0  0  0  0
    2.1151   -2.2656   -1.6536 H   0  0  0  0  0  0  0  0  0  0  0  0
    3.5279    0.0459    1.5305 H   0  0  0  0  0  0  0  0  0  0  0  0
    4.4970   -0.0396    0.0567 H   0  0  0  0  0  0  0  0  0  0  0  0
    5.4369   -1.4888    1.7960 H   0  0  0  0  0  0  0  0  0  0  0  0
    3.9020   -2.3150    2.0071 H   0  0  0  0  0  0  0  0  0  0  0  0
    0.4947   -2.6996   -0.8234 H   0  0  0  0  0  0  0  0  0  0  0  0
   -0.2244   -2.2816    0.7093 H   0  0  0  0  0  0  0  0  0  0  0  0
   -1.9378   -3.1598   -0.7301 H   0  0  0  0  0  0  0  0  0  0  0  0
   -1.4593   -2.1179   -2.0722 H   0  0  0  0  0  0  0  0  0  0  0  0
   -7.6802   -1.9781   -0.9371 H   0  0  0  0  0  0  0  0  0  0  0  0
   -2.2506    0.2975   -1.9748 H   0  0  0  0  0  0  0  0  0  0  0  0
   -2.6692    0.9229   -0.3870 H   0  0  0  0  0  0  0  0  0  0  0  0
    7.2667   -1.4922    0.6159 H   0  0  0  0  0  0  0  0  0  0  0  0
    7.1308   -2.8276    1.7256 H   0  0  0  0  0  0  0  0  0  0  0  0
    9.4190   -2.6686    0.8197 H   0  0  0  0  0  0  0  0  0  0  0  0
    8.7004   -4.1868    0.2971 H   0  0  0  0  0  0  0  0  0  0  0  0
    8.8302   -2.8387   -0.8299 H   0  0  0  0  0  0  0  0  0  0  0  0
   -8.0656   -0.5653    1.0277 H   0  0  0  0  0  0  0  0  0  0  0  0
   -7.2047    0.7553    2.9112 H   0  0  0  0  0  0  0  0  0  0  0  0
   -4.7550    1.0178    3.2349 H   0  0  0  0  0  0  0  0  0  0  0  0
   -3.1884    0.0086    1.6473 H   0  0  0  0  0  0  0  0  0  0  0  0
   -5.5171   -3.5341   -3.2436 H   0  0  0  0  0  0  0  0  0  0  0  0
   -0.5445    4.0311    0.1560 H   0  0  0  0  0  0  0  0  0  0  0  0
    1.8738    5.8696   -0.1197 H   0  0  0  0  0  0  0  0  0  0  0  0
    0.2428    6.3553    0.3317 H   0  0  0  0  0  0  0  0  0  0  0  0
    1.4042    7.3232    2.4073 H   0  0  0  0  0  0  0  0  0  0  0  0
    2.3702    6.1908    3.3660 H   0  0  0  0  0  0  0  0  0  0  0  0
    2.9121    6.6631    1.7573 H   0  0  0  0  0  0  0  0  0  0  0  0
   -0.2096    3.9482    2.2870 H   0  0  0  0  0  0  0  0  0  0  0  0
    0.5547    4.7522    3.6441 H   0  0  0  0  0  0  0  0  0  0  0  0
   -0.5869    5.6448    2.6278 H   0  0  0  0  0  0  0  0  0  0  0  0
   -0.5961    5.4919   -1.8405 H   0  0  0  0  0  0  0  0  0  0  0  0
    1.0341    4.9822   -2.2837 H   0  0  0  0  0  0  0  0  0  0  0  0
   -0.3025    3.8206   -2.3020 H   0  0  0  0  0  0  0  0  0  0  0  0
    3.0325   -3.7383    0.0992 H   0  0  0  0  0  0  0  0  0  0  0  0
 31 15  1  0
 15  1  2  0
 15 16  1  0
  1  4  1  0
 16 17  2  0
 13 10  1  0
 13 12  1  0
  4 10  1  0
  4  9  2  0
 17  9  1  0
 17 27  1  0
 10 18  1  0
 12 11  1  0
  9 30  1  0
 18 14  1  0
 27 28  2  0
 11 14  2  0
 11  7  1  0
 14 19  1  0
 21  7  1  0
 21  3  1  0
 21  5  1  0
  7 20  2  0
  2  3  1  0
  2 22  1  0
 19  8  2  0
 36 35  1  0
 30 29  2  0
  5  6  1  0
 28 29  1  0
 37 35  1  0
 20  8  1  0
 35 34  1  0
  8 32  1  0
 24 23  1  0
 24 26  1  0
 22  6  1  0
 22 23  1  0
 32 33  1  0
 23 25  2  0
 33 34  1  0
 33 38  1  0
  1 39  1  0
  2 76  1  0
  2 40  1  0
  3 41  1  0
  3 42  1  0
  5 43  1  0
  5 44  1  0
  6 45  1  0
  6 46  1  0
 12 47  1  0
 12 48  1  0
 13 49  1  0
 13 50  1  0
 16 51  1  0
 18 52  1  0
 18 53  1  0
 24 54  1  0
 24 55  1  0
 26 56  1  0
 26 57  1  0
 26 58  1  0
 27 59  1  0
 28 60  1  0
 29 61  1  0
 30 62  1  0
 31 63  1  0
 33 64  1  1
 34 65  1  0
 34 66  1  0
 36 67  1  0
 36 68  1  0
 36 69  1  0
 37 70  1  0
 37 71  1  0
 37 72  1  0
 38 73  1  0
 38 74  1  0
 38 75  1  0
M  END
