
     RDKit          3D

 45 47  0  0  0  0  0  0  0  0999 V2000
   -2.4074    0.2260    0.5662 C   0  0  1  0  0  0  0  0  0  0  0  0
   -0.9616    0.1414    0.4816 N   0  0  0  0  0  0  0  0  0  0  0  0
   -2.9865    1.4576   -0.1343 C   0  0  2  0  0  0  0  0  0  0  0  0
    1.0445   -0.0372   -0.7619 N   0  0  0  0  0  0  0  0  0  0  0  0
   -2.3980    2.5812    0.4626 O   0  0  0  0  0  0  0  0  0  0  0  0
   -4.4912    1.4080    0.0707 C   0  0  1  0  0  0  0  0  0  0  0  0
   -5.0785    2.4512   -0.6462 F   0  0  0  0  0  0  0  0  0  0  0  0
   -5.0810    0.0867   -0.3973 C   0  0  2  0  0  0  0  0  0  0  0  0
   -6.4457   -0.0097   -0.0807 O   0  0  0  0  0  0  0  0  0  0  0  0
   -4.3490   -1.0568    0.3128 C   0  0  2  0  0  0  0  0  0  0  0  0
   -2.9577   -0.9531    0.0742 O   0  0  0  0  0  0  0  0  0  0  0  0
   -4.8008   -2.4129   -0.1831 C   0  0  0  0  0  0  0  0  0  0  0  0
   -4.1451   -3.4060    0.5664 O   0  0  0  0  0  0  0  0  0  0  0  0
   -0.2457    0.1899    1.6286 C   0  0  0  0  0  0  0  0  0  0  0  0
    1.1015    0.1258    1.6249 C   0  0  0  0  0  0  0  0  0  0  0  0
    1.7177    0.0054    0.3495 C   0  0  0  0  0  0  0  0  0  0  0  0
   -0.3133    0.0256   -0.7599 C   0  0  0  0  0  0  0  0  0  0  0  0
   -0.9619   -0.0170   -1.7886 O   0  0  0  0  0  0  0  0  0  0  0  0
    3.9467   -0.2502   -0.7196 C   0  0  0  0  0  0  0  0  0  0  0  0
    3.5798   -0.5110   -1.8412 O   0  0  0  0  0  0  0  0  0  0  0  0
    5.3934   -0.1415   -0.3701 C   0  0  0  0  0  0  0  0  0  0  0  0
    6.3056   -0.8298   -1.1691 C   0  0  0  0  0  0  0  0  0  0  0  0
    7.6627   -0.7569   -0.9018 C   0  0  0  0  0  0  0  0  0  0  0  0
    8.1240    0.0197    0.1540 C   0  0  0  0  0  0  0  0  0  0  0  0
    7.2230    0.7233    0.9411 C   0  0  0  0  0  0  0  0  0  0  0  0
    5.8624    0.6420    0.6836 C   0  0  0  0  0  0  0  0  0  0  0  0
   -2.6316    0.3293    1.6382 H   0  0  0  0  0  0  0  0  0  0  0  0
   -2.7777    1.4080   -1.2067 H   0  0  0  0  0  0  0  0  0  0  0  0
   -2.5091    3.3372   -0.1213 H   0  0  0  0  0  0  0  0  0  0  0  0
   -4.7340    1.5677    1.1277 H   0  0  0  0  0  0  0  0  0  0  0  0
    3.5139    0.0047    1.2568 H   0  0  0  0  0  0  0  0  0  0  0  0
   -4.9124   -0.0138   -1.4799 H   0  0  0  0  0  0  0  0  0  0  0  0
   -6.9419    0.5741   -0.6626 H   0  0  0  0  0  0  0  0  0  0  0  0
   -4.5481   -0.9848    1.3947 H   0  0  0  0  0  0  0  0  0  0  0  0
   -5.8882   -2.4719   -0.0744 H   0  0  0  0  0  0  0  0  0  0  0  0
   -4.5770   -2.4919   -1.2560 H   0  0  0  0  0  0  0  0  0  0  0  0
   -4.4971   -4.2599    0.3001 H   0  0  0  0  0  0  0  0  0  0  0  0
   -0.8072    0.2787    2.5478 H   0  0  0  0  0  0  0  0  0  0  0  0
    1.6643    0.1643    2.5450 H   0  0  0  0  0  0  0  0  0  0  0  0
    5.9520   -1.4311   -1.9960 H   0  0  0  0  0  0  0  0  0  0  0  0
    8.3612   -1.3065   -1.5184 H   0  0  0  0  0  0  0  0  0  0  0  0
    9.1845    0.0793    0.3608 H   0  0  0  0  0  0  0  0  0  0  0  0
    7.5780    1.3401    1.7558 H   0  0  0  0  0  0  0  0  0  0  0  0
    5.1846    1.2228    1.2968 H   0  0  0  0  0  0  0  0  0  0  0  0
    3.0898   -0.0540    0.3436 N   0  0  0  0  0  0  0  0  0  0  0  0
  3  1  1  0
  1 11  1  0
  1  2  1  0
  1 27  1  1
 14  2  1  0
  2 17  1  0
  6  3  1  0
  5  3  1  0
  3 28  1  6
 17  4  1  0
 16  4  2  0
  5 29  1  0
  7  6  1  0
  6  8  1  0
  6 30  1  1
 16 45  1  0
 19 45  1  0
 45 31  1  0
  9  8  1  0
  8 10  1  0
  8 32  1  6
  9 33  1  0
 10 12  1  0
 10 11  1  0
 10 34  1  1
 13 12  1  0
 12 35  1  0
 12 36  1  0
 13 37  1  0
 14 15  2  0
 14 38  1  0
 15 16  1  0
 15 39  1  0
 17 18  2  0
 20 19  2  0
 19 21  1  0
 21 22  2  0
 21 26  1  0
 22 23  1  0
 22 40  1  0
 23 24  2  0
 23 41  1  0
 25 24  1  0
 24 42  1  0
 26 25  2  0
 25 43  1  0
 26 44  1  0
M  END
