
     RDKit          3D

 13 12  0  0  0  0  0  0  0  0999 V2000
   -0.7097    0.5127    0.2518 C   0  0  0  0  0  0  0  0  0  0  0  0
   -1.9501    0.0317   -0.4385 C   0  0  0  0  0  0  0  0  0  0  0  0
   -3.1769    0.2298    0.0261 C   0  0  0  0  0  0  0  0  0  0  0  0
    1.0949   -1.0892   -0.2145 C   0  0  0  0  0  0  0  0  0  0  0  0
    0.1808   -0.5834    0.5852 N   0  0  0  0  0  0  0  0  0  0  0  0
    1.4504   -0.5985   -1.7553 S   0  0  0  0  0  0  0  0  0  0  0  0
   -0.1617    1.2059   -0.3888 H   0  0  0  0  0  0  0  0  0  0  0  0
   -0.9584    1.0319    1.1768 H   0  0  0  0  0  0  0  0  0  0  0  0
   -1.7995   -0.5000   -1.3727 H   0  0  0  0  0  0  0  0  0  0  0  0
   -3.3572    0.7566    0.9559 H   0  0  0  0  0  0  0  0  0  0  0  0
   -4.0479   -0.1210   -0.5114 H   0  0  0  0  0  0  0  0  0  0  0  0
    1.6410   -1.9100    0.2447 H   0  0  0  0  0  0  0  0  0  0  0  0
    0.0567   -1.0187    1.4870 H   0  0  0  0  0  0  0  0  0  0  0  0
  4  5  1  0
  4  6  2  0
  5  1  1  0
  2  1  1  0
  2  3  2  0
  1  7  1  0
  1  8  1  0
  2  9  1  0
  3 10  1  0
  3 11  1  0
  4 12  1  0
  5 13  1  0
M  END
