
     RDKit          3D

 69 72  0  0  0  0  0  0  0  0999 V2000
   10.0349    3.3959   -0.1073 C   0  0  0  0  0  0  0  0  0  0  0  0
    9.4319    2.0723   -0.4795 C   0  0  0  0  0  0  0  0  0  0  0  0
    8.0500    1.9338   -0.6108 C   0  0  0  0  0  0  0  0  0  0  0  0
   10.2282    0.9473   -0.6688 C   0  0  0  0  0  0  0  0  0  0  0  0
    9.6531   -0.2808   -0.9754 C   0  0  0  0  0  0  0  0  0  0  0  0
    8.2781   -0.4005   -1.1005 C   0  0  0  0  0  0  0  0  0  0  0  0
    7.4613    0.7144   -0.9215 C   0  0  0  0  0  0  0  0  0  0  0  0
    5.9678    0.6042   -1.0910 C   0  0  0  0  0  0  0  0  0  0  0  0
    5.4112   -0.5384   -0.3992 N   0  0  0  0  0  0  0  0  0  0  0  0
    4.0480   -0.8079   -0.8228 C   0  0  0  0  0  0  0  0  0  0  0  0
    3.5160   -2.0776   -0.1767 C   0  0  0  0  0  0  0  0  0  0  0  0
    5.4989   -0.3897    1.0421 C   0  0  0  0  0  0  0  0  0  0  0  0
    5.0208   -1.6469    1.7550 C   0  0  0  0  0  0  0  0  0  0  0  0
    3.6004   -2.0384    1.3476 C   0  0  1  0  0  0  0  0  0  0  0  0
    2.5811   -1.0962    1.9957 C   0  0  0  0  0  0  0  0  0  0  0  0
    1.2112   -1.4403    1.6917 N   0  0  0  0  0  0  0  0  0  0  0  0
    0.3987   -0.7236    0.8985 C   0  0  0  0  0  0  0  0  0  0  0  0
    0.7197    0.3411    0.3862 O   0  0  0  0  0  0  0  0  0  0  0  0
   -0.9652   -1.3418    0.6619 C   0  0  0  0  0  0  0  0  0  0  0  0
   -2.0708   -0.2957    0.6100 C   0  0  0  0  0  0  0  0  0  0  0  0
   -3.4048   -0.9463    0.3157 C   0  0  0  0  0  0  0  0  0  0  0  0
   -4.3863    0.0840    0.2526 O   0  0  0  0  0  0  0  0  0  0  0  0
   -5.6399   -0.2300   -0.0475 C   0  0  0  0  0  0  0  0  0  0  0  0
   -6.5394    0.8947   -0.1449 C   0  0  0  0  0  0  0  0  0  0  0  0
   -6.1087    2.2106    0.0601 C   0  0  0  0  0  0  0  0  0  0  0  0
   -6.9874    3.2663   -0.0460 C   0  0  0  0  0  0  0  0  0  0  0  0
   -8.3204    3.0120   -0.3616 C   0  0  0  0  0  0  0  0  0  0  0  0
   -8.7682    1.7231   -0.5673 C   0  0  0  0  0  0  0  0  0  0  0  0
   -7.8852    0.6381   -0.4639 C   0  0  0  0  0  0  0  0  0  0  0  0
   -8.3229   -0.6548   -0.6730 N   0  0  0  0  0  0  0  0  0  0  0  0
   -9.7226   -0.8792   -0.9936 C   0  0  0  0  0  0  0  0  0  0  0  0
   -7.4811   -1.7504   -0.5848 C   0  0  0  0  0  0  0  0  0  0  0  0
   -7.8979   -2.8887   -0.7758 O   0  0  0  0  0  0  0  0  0  0  0  0
   -6.1019   -1.4854   -0.2608 C   0  0  0  0  0  0  0  0  0  0  0  0
   10.0402    3.5317    0.9763 H   0  0  0  0  0  0  0  0  0  0  0  0
   11.0672    3.4771   -0.4467 H   0  0  0  0  0  0  0  0  0  0  0  0
    9.4733    4.2275   -0.5325 H   0  0  0  0  0  0  0  0  0  0  0  0
    7.4150    2.8016   -0.4626 H   0  0  0  0  0  0  0  0  0  0  0  0
   11.3051    1.0294   -0.5774 H   0  0  0  0  0  0  0  0  0  0  0  0
   10.2859   -1.1476   -1.1202 H   0  0  0  0  0  0  0  0  0  0  0  0
    7.8321   -1.3592   -1.3339 H   0  0  0  0  0  0  0  0  0  0  0  0
    5.4955    1.5514   -0.7767 H   0  0  0  0  0  0  0  0  0  0  0  0
    5.7417    0.4921   -2.1567 H   0  0  0  0  0  0  0  0  0  0  0  0
    3.3721    0.0368   -0.6047 H   0  0  0  0  0  0  0  0  0  0  0  0
    4.0428   -0.9299   -1.9093 H   0  0  0  0  0  0  0  0  0  0  0  0
    2.4894   -2.2545   -0.5060 H   0  0  0  0  0  0  0  0  0  0  0  0
    4.1048   -2.9265   -0.5363 H   0  0  0  0  0  0  0  0  0  0  0  0
    6.5389   -0.2001    1.3167 H   0  0  0  0  0  0  0  0  0  0  0  0
    4.9260    0.4906    1.3851 H   0  0  0  0  0  0  0  0  0  0  0  0
    5.7036   -2.4660    1.5135 H   0  0  0  0  0  0  0  0  0  0  0  0
    5.0850   -1.4951    2.8362 H   0  0  0  0  0  0  0  0  0  0  0  0
    3.3961   -3.0446    1.7300 H   0  0  0  0  0  0  0  0  0  0  0  0
    2.7146   -1.1312    3.0805 H   0  0  0  0  0  0  0  0  0  0  0  0
    2.7400   -0.0623    1.6952 H   0  0  0  0  0  0  0  0  0  0  0  0
    0.8614   -2.3071    2.0671 H   0  0  0  0  0  0  0  0  0  0  0  0
   -0.9182   -1.8801   -0.2910 H   0  0  0  0  0  0  0  0  0  0  0  0
   -1.1834   -2.0919    1.4257 H   0  0  0  0  0  0  0  0  0  0  0  0
   -2.1242    0.2352    1.5638 H   0  0  0  0  0  0  0  0  0  0  0  0
   -1.8485    0.4411   -0.1630 H   0  0  0  0  0  0  0  0  0  0  0  0
   -3.3719   -1.4836   -0.6384 H   0  0  0  0  0  0  0  0  0  0  0  0
   -3.6692   -1.6662    1.0976 H   0  0  0  0  0  0  0  0  0  0  0  0
   -5.0727    2.4002    0.3035 H   0  0  0  0  0  0  0  0  0  0  0  0
   -6.6446    4.2793    0.1131 H   0  0  0  0  0  0  0  0  0  0  0  0
   -9.0223    3.8306   -0.4496 H   0  0  0  0  0  0  0  0  0  0  0  0
   -9.8089    1.5700   -0.8098 H   0  0  0  0  0  0  0  0  0  0  0  0
   -9.9955   -0.3642   -1.9141 H   0  0  0  0  0  0  0  0  0  0  0  0
   -9.8879   -1.9405   -1.1287 H   0  0  0  0  0  0  0  0  0  0  0  0
  -10.3645   -0.5257   -0.1873 H   0  0  0  0  0  0  0  0  0  0  0  0
   -5.4629   -2.3546   -0.1992 H   0  0  0  0  0  0  0  0  0  0  0  0
 31 30  1  0
 28 27  2  0
 28 29  1  0
 27 26  1  0
 30 29  1  0
 30 32  1  0
 29 24  2  0
 33 32  2  0
 32 34  1  0
 26 25  2  0
  5  4  1  0
  5  6  2  0
 24 25  1  0
 24 23  1  0
  4  2  2  0
 34 23  2  0
  6  7  1  0
 23 22  1  0
  2  1  1  0
  2  3  1  0
 22 21  1  0
  7  3  2  0
  7  8  1  0
 12 13  1  0
 12  9  1  0
  8  9  1  0
 21 20  1  0
 13 14  1  0
  9 10  1  0
 19 20  1  0
 19 17  1  0
 17 18  2  0
 17 16  1  0
 14 15  1  0
 14 11  1  0
 15 16  1  0
 10 11  1  0
  1 35  1  0
  1 36  1  0
  1 37  1  0
  3 38  1  0
  4 39  1  0
  5 40  1  0
  6 41  1  0
  8 42  1  0
  8 43  1  0
 10 44  1  0
 10 45  1  0
 11 46  1  0
 11 47  1  0
 12 48  1  0
 12 49  1  0
 13 50  1  0
 13 51  1  0
 14 52  1  1
 15 53  1  0
 15 54  1  0
 16 55  1  0
 19 56  1  0
 19 57  1  0
 20 58  1  0
 20 59  1  0
 21 60  1  0
 21 61  1  0
 25 62  1  0
 26 63  1  0
 27 64  1  0
 28 65  1  0
 31 66  1  0
 31 67  1  0
 31 68  1  0
 34 69  1  0
M  END
