
     RDKit          3D

 19 19  0  0  0  0  0  0  0  0999 V2000
   -1.6754   -1.1909    0.3161 C   0  0  0  0  0  0  0  0  0  0  0  0
   -3.0350   -1.1587    0.0620 C   0  0  0  0  0  0  0  0  0  0  0  0
   -3.6595    0.0284   -0.3096 C   0  0  0  0  0  0  0  0  0  0  0  0
   -2.8999    1.1814   -0.4215 C   0  0  0  0  0  0  0  0  0  0  0  0
   -1.5314    1.1668   -0.1691 C   0  0  0  0  0  0  0  0  0  0  0  0
   -0.9146   -0.0254    0.2023 C   0  0  0  0  0  0  0  0  0  0  0  0
    0.4018   -0.1477    0.4727 O   0  0  0  0  0  0  0  0  0  0  0  0
    1.2329    0.9823    0.3286 C   0  0  0  0  0  0  0  0  0  0  0  0
    2.6427    0.5783    0.6573 C   0  0  0  0  0  0  0  0  0  0  0  0
    3.2517   -0.6544   -0.4993 Cl  0  0  0  0  0  0  0  0  0  0  0  0
   -1.1913   -2.1155    0.6050 H   0  0  0  0  0  0  0  0  0  0  0  0
   -3.6128   -2.0695    0.1537 H   0  0  0  0  0  0  0  0  0  0  0  0
   -4.7230    0.0496   -0.5055 H   0  0  0  0  0  0  0  0  0  0  0  0
   -3.3680    2.1140   -0.7092 H   0  0  0  0  0  0  0  0  0  0  0  0
   -0.9709    2.0872   -0.2654 H   0  0  0  0  0  0  0  0  0  0  0  0
    1.1804    1.3885   -0.6867 H   0  0  0  0  0  0  0  0  0  0  0  0
    0.9437    1.7794    1.0244 H   0  0  0  0  0  0  0  0  0  0  0  0
    3.2973    1.4437    0.5884 H   0  0  0  0  0  0  0  0  0  0  0  0
    2.7188    0.1541    1.6562 H   0  0  0  0  0  0  0  0  0  0  0  0
  1  2  2  0
  1  6  1  0
  2  3  1  0
  3  4  2  0
  4  5  1  0
  5  6  2  0
  6  7  1  0
  7  8  1  0
  8  9  1  0
  9 10  1  0
  1 11  1  0
  2 12  1  0
  3 13  1  0
  4 14  1  0
  5 15  1  0
  8 16  1  0
  8 17  1  0
  9 18  1  0
  9 19  1  0
M  END
