
     RDKit          3D

 52 51  0  0  0  0  0  0  0  0999 V2000
   -3.5283    0.4041    0.0604 C   0  0  1  0  0  0  0  0  0  0  0  0
   11.0215    0.9526    0.2017 C   0  0  0  0  0  0  0  0  0  0  0  0
   10.1511   -0.0419    0.3287 C   0  0  0  0  0  0  0  0  0  0  0  0
    8.7343    0.1021   -0.1020 C   0  0  0  0  0  0  0  0  0  0  0  0
    7.9900   -1.0047    0.0724 N   0  0  0  0  0  0  0  0  0  0  0  0
    6.5843   -1.0743   -0.2432 C   0  0  0  0  0  0  0  0  0  0  0  0
    5.7097   -0.5478    0.8974 C   0  0  0  0  0  0  0  0  0  0  0  0
    4.3032   -0.7039    0.6129 N   0  0  0  0  0  0  0  0  0  0  0  0
    3.5806    0.1939   -0.0780 C   0  0  0  0  0  0  0  0  0  0  0  0
    2.1622   -0.2340   -0.3904 C   0  0  0  0  0  0  0  0  0  0  0  0
    1.1934    0.9366   -0.3678 C   0  0  0  0  0  0  0  0  0  0  0  0
   -0.1264    0.4775   -0.7446 N   0  0  0  0  0  0  0  0  0  0  0  0
   -1.2092    1.2567   -0.6527 C   0  0  0  0  0  0  0  0  0  0  0  0
   -2.5298    0.6236   -1.1109 C   0  0  1  0  0  0  0  0  0  0  0  0
   -4.7545   -0.2870   -0.5556 C   0  0  0  0  0  0  0  0  0  0  0  0
   -5.7463   -0.5030    0.4548 O   0  0  0  0  0  0  0  0  0  0  0  0
   -7.2731   -0.1416    0.1812 P   0  0  1  0  0  0  0  0  0  0  0  0
   -7.5741    1.2359   -0.2506 O   0  0  0  0  0  0  0  0  0  0  0  0
   -2.9134   -0.4760    1.1523 C   0  0  0  0  0  0  0  0  0  0  0  0
   -3.9699    1.7427    0.6553 C   0  0  0  0  0  0  0  0  0  0  0  0
   -7.8043   -1.1705   -0.9224 O   0  0  0  0  0  0  0  0  0  0  0  0
   -2.3119   -0.5472   -1.8649 O   0  0  0  0  0  0  0  0  0  0  0  0
   -1.1640    2.4050   -0.2306 O   0  0  0  0  0  0  0  0  0  0  0  0
    4.0291    1.2694   -0.4483 O   0  0  0  0  0  0  0  0  0  0  0  0
    8.2890    1.1365   -0.5816 O   0  0  0  0  0  0  0  0  0  0  0  0
   -7.8299   -0.6082    1.6003 O   0  0  0  0  0  0  0  0  0  0  0  0
   10.7362    1.9072   -0.2212 H   0  0  0  0  0  0  0  0  0  0  0  0
   12.0497    0.8414    0.5167 H   0  0  0  0  0  0  0  0  0  0  0  0
   10.4615   -0.9900    0.7537 H   0  0  0  0  0  0  0  0  0  0  0  0
    8.4120   -1.8106    0.5041 H   0  0  0  0  0  0  0  0  0  0  0  0
    6.3846   -0.5075   -1.1527 H   0  0  0  0  0  0  0  0  0  0  0  0
    6.3373   -2.1167   -0.4448 H   0  0  0  0  0  0  0  0  0  0  0  0
    5.9332   -1.0933    1.8145 H   0  0  0  0  0  0  0  0  0  0  0  0
    5.9293    0.5037    1.0781 H   0  0  0  0  0  0  0  0  0  0  0  0
    3.8728   -1.5795    0.8619 H   0  0  0  0  0  0  0  0  0  0  0  0
    2.1751   -0.6835   -1.3896 H   0  0  0  0  0  0  0  0  0  0  0  0
    1.8284   -1.0141    0.2974 H   0  0  0  0  0  0  0  0  0  0  0  0
    1.1517    1.3692    0.6336 H   0  0  0  0  0  0  0  0  0  0  0  0
    1.5355    1.7229   -1.0439 H   0  0  0  0  0  0  0  0  0  0  0  0
   -0.2042   -0.4009   -1.2313 H   0  0  0  0  0  0  0  0  0  0  0  0
   -2.9823    1.3443   -1.8009 H   0  0  0  0  0  0  0  0  0  0  0  0
   -5.1474    0.3334   -1.3681 H   0  0  0  0  0  0  0  0  0  0  0  0
   -4.5041   -1.2630   -0.9709 H   0  0  0  0  0  0  0  0  0  0  0  0
   -2.6314   -1.4691    0.7923 H   0  0  0  0  0  0  0  0  0  0  0  0
   -2.0242   -0.0132    1.5821 H   0  0  0  0  0  0  0  0  0  0  0  0
   -3.6205   -0.6262    1.9674 H   0  0  0  0  0  0  0  0  0  0  0  0
   -4.7299    1.5819    1.4183 H   0  0  0  0  0  0  0  0  0  0  0  0
   -3.1445    2.2706    1.1237 H   0  0  0  0  0  0  0  0  0  0  0  0
   -4.3970    2.3937   -0.1103 H   0  0  0  0  0  0  0  0  0  0  0  0
   -7.6676   -2.1065   -0.7231 H   0  0  0  0  0  0  0  0  0  0  0  0
   -2.2191   -1.3077   -1.2804 H   0  0  0  0  0  0  0  0  0  0  0  0
   -8.7411   -0.3364    1.7727 H   0  0  0  0  0  0  0  0  0  0  0  0
  2  3  2  0
  3  4  1  0
  4 25  2  0
  4  5  1  0
  1 19  1  1
  5  6  1  0
 20  1  1  0
  1 15  1  0
  1 14  1  0
  6  7  1  0
 22 14  1  0
 15 16  1  0
 12 11  1  0
 12 13  1  0
 14 13  1  0
 24  9  2  0
  7  8  1  0
 11 10  1  0
 13 23  2  0
 17 16  1  1
  9  8  1  0
  9 10  1  0
 17 18  2  0
 17 21  1  0
 17 26  1  0
  2 27  1  0
  2 28  1  0
  3 29  1  0
  5 30  1  0
  6 31  1  0
  6 32  1  0
  7 33  1  0
  7 34  1  0
  8 35  1  0
 10 36  1  0
 10 37  1  0
 11 38  1  0
 11 39  1  0
 12 40  1  0
 14 41  1  6
 15 42  1  0
 15 43  1  0
 19 44  1  0
 19 45  1  0
 19 46  1  0
 20 47  1  0
 20 48  1  0
 20 49  1  0
 21 50  1  0
 22 51  1  0
 26 52  1  0
M  END
