
     RDKit          3D

 29 31  0  0  0  0  0  0  0  0999 V2000
   -1.0048   -0.0112    3.6571 C   0  0  0  0  0  0  0  0  0  0  0  0
   -1.6280    0.0018    2.4394 C   0  0  0  0  0  0  0  0  0  0  0  0
   -0.8802    0.0075    1.2371 C   0  0  0  0  0  0  0  0  0  0  0  0
    0.5327    0.0107    1.3156 C   0  0  0  0  0  0  0  0  0  0  0  0
    1.1501   -0.0080    2.5866 C   0  0  0  0  0  0  0  0  0  0  0  0
    0.4015   -0.0191    3.7335 C   0  0  0  0  0  0  0  0  0  0  0  0
   -1.5528    0.0165    0.0681 N   0  0  0  0  0  0  0  0  0  0  0  0
   -0.8610    0.0004   -1.0518 C   0  0  0  0  0  0  0  0  0  0  0  0
    0.5466   -0.0132   -1.1107 C   0  0  0  0  0  0  0  0  0  0  0  0
    1.2600    0.0271    0.0847 C   0  0  0  0  0  0  0  0  0  0  0  0
   -1.6766   -0.0112   -2.3192 C   0  0  0  0  0  0  0  0  0  0  0  0
   -0.8926    0.4128   -3.5515 C   0  0  0  0  0  0  0  0  0  0  0  0
    0.4108   -0.3653   -3.6190 C   0  0  0  0  0  0  0  0  0  0  0  0
    1.2911   -0.0318   -2.4220 C   0  0  0  0  0  0  0  0  0  0  0  0
    2.6179    0.0358    0.0853 N   0  0  0  0  0  0  0  0  0  0  0  0
   -1.5927   -0.0185    4.5661 H   0  0  0  0  0  0  0  0  0  0  0  0
   -2.7083    0.0042    2.3664 H   0  0  0  0  0  0  0  0  0  0  0  0
    2.2286   -0.0245    2.6784 H   0  0  0  0  0  0  0  0  0  0  0  0
    0.8906   -0.0373    4.6983 H   0  0  0  0  0  0  0  0  0  0  0  0
   -2.5537    0.6220   -2.1723 H   0  0  0  0  0  0  0  0  0  0  0  0
   -2.0593   -1.0272   -2.4690 H   0  0  0  0  0  0  0  0  0  0  0  0
   -0.6797    1.4861   -3.5108 H   0  0  0  0  0  0  0  0  0  0  0  0
   -1.4953    0.2461   -4.4462 H   0  0  0  0  0  0  0  0  0  0  0  0
    0.9534   -0.1446   -4.5399 H   0  0  0  0  0  0  0  0  0  0  0  0
    0.1909   -1.4372   -3.6325 H   0  0  0  0  0  0  0  0  0  0  0  0
    1.7573    0.9481   -2.5864 H   0  0  0  0  0  0  0  0  0  0  0  0
    2.1163   -0.7495   -2.3697 H   0  0  0  0  0  0  0  0  0  0  0  0
    3.1073    0.3163    0.9171 H   0  0  0  0  0  0  0  0  0  0  0  0
    3.0943    0.3019   -0.7596 H   0  0  0  0  0  0  0  0  0  0  0  0
  1  2  2  0
  1  6  1  0
  1 16  1  0
  2  3  1  0
  2 17  1  0
  3  4  2  0
  3  7  1  0
  4  5  1  0
  4 10  1  0
  5  6  2  0
  5 18  1  0
  6 19  1  0
  7  8  2  0
  8  9  1  0
  8 11  1  0
  9 10  2  0
  9 14  1  0
 10 15  1  0
 11 12  1  0
 11 20  1  0
 11 21  1  0
 12 13  1  0
 12 22  1  0
 12 23  1  0
 13 14  1  0
 13 24  1  0
 13 25  1  0
 14 26  1  0
 14 27  1  0
 15 28  1  0
 15 29  1  0
M  END
