
     RDKit          3D

 52 55  0  0  0  0  0  0  0  0999 V2000
   -5.2922   -4.0189   -0.3957 N   0  0  0  0  0  0  0  0  0  0  0  0
   -3.9221   -4.0187   -0.8799 C   0  0  0  0  0  0  0  0  0  0  0  0
   -3.1654   -2.8025   -0.4117 C   0  0  0  0  0  0  0  0  0  0  0  0
   -2.3255   -2.1105   -1.2752 C   0  0  0  0  0  0  0  0  0  0  0  0
   -1.5978   -1.0073   -0.8444 C   0  0  0  0  0  0  0  0  0  0  0  0
   -3.2701   -2.3525    0.9040 C   0  0  0  0  0  0  0  0  0  0  0  0
   -2.5429   -1.2573    1.3379 C   0  0  0  0  0  0  0  0  0  0  0  0
   -1.6983   -0.5701    0.4685 C   0  0  0  0  0  0  0  0  0  0  0  0
   -0.9594    0.6427    0.9774 C   0  0  0  0  0  0  0  0  0  0  0  0
    0.1776    1.0157    0.1663 N   0  0  0  0  0  0  0  0  0  0  0  0
    0.2238    2.0719   -0.7091 C   0  0  0  0  0  0  0  0  0  0  0  0
   -0.8860    3.0511   -0.8682 C   0  0  0  0  0  0  0  0  0  0  0  0
   -0.8939    4.1243    0.2248 C   0  0  0  0  0  0  0  0  0  0  0  0
   -2.0507    5.1017    0.0634 C   0  0  0  0  0  0  0  0  0  0  0  0
   -2.0581    6.1786    1.1382 C   0  0  0  0  0  0  0  0  0  0  0  0
    1.3665    2.1355   -1.3373 N   0  0  0  0  0  0  0  0  0  0  0  0
    2.0922    1.0824   -0.8631 C   0  0  0  0  0  0  0  0  0  0  0  0
    3.4187    0.6893   -1.2018 C   0  0  0  0  0  0  0  0  0  0  0  0
    4.0947    1.3778   -2.1471 N   0  0  0  0  0  0  0  0  0  0  0  0
    3.9697   -0.3489   -0.6261 N   0  0  0  0  0  0  0  0  0  0  0  0
    3.2686   -1.0743    0.2906 C   0  0  0  0  0  0  0  0  0  0  0  0
    1.3780    0.3614    0.0702 C   0  0  0  0  0  0  0  0  0  0  0  0
    1.9350   -0.7877    0.7017 C   0  0  0  0  0  0  0  0  0  0  0  0
    1.3085   -1.6196    1.6462 C   0  0  0  0  0  0  0  0  0  0  0  0
    1.9701   -2.6970    2.1864 C   0  0  0  0  0  0  0  0  0  0  0  0
    3.2858   -2.9786    1.7950 C   0  0  0  0  0  0  0  0  0  0  0  0
    3.9166   -2.1854    0.8678 C   0  0  0  0  0  0  0  0  0  0  0  0
   -5.8182   -3.2944   -0.8682 H   0  0  0  0  0  0  0  0  0  0  0  0
   -5.7349   -4.8939   -0.6451 H   0  0  0  0  0  0  0  0  0  0  0  0
   -3.4300   -4.9115   -0.4828 H   0  0  0  0  0  0  0  0  0  0  0  0
   -3.8332   -4.0880   -1.9723 H   0  0  0  0  0  0  0  0  0  0  0  0
   -2.2348   -2.4319   -2.3063 H   0  0  0  0  0  0  0  0  0  0  0  0
   -0.9553   -0.4968   -1.5511 H   0  0  0  0  0  0  0  0  0  0  0  0
   -3.9282   -2.8659    1.5932 H   0  0  0  0  0  0  0  0  0  0  0  0
   -2.6314   -0.9321    2.3686 H   0  0  0  0  0  0  0  0  0  0  0  0
   -1.6397    1.4928    1.0128 H   0  0  0  0  0  0  0  0  0  0  0  0
   -0.6299    0.4929    2.0066 H   0  0  0  0  0  0  0  0  0  0  0  0
   -0.7620    3.5265   -1.8422 H   0  0  0  0  0  0  0  0  0  0  0  0
   -1.8519    2.5389   -0.8987 H   0  0  0  0  0  0  0  0  0  0  0  0
   -0.9526    3.6569    1.2133 H   0  0  0  0  0  0  0  0  0  0  0  0
    0.0562    4.6656    0.2003 H   0  0  0  0  0  0  0  0  0  0  0  0
   -1.9977    5.5674   -0.9253 H   0  0  0  0  0  0  0  0  0  0  0  0
   -2.9946    4.5488    0.0876 H   0  0  0  0  0  0  0  0  0  0  0  0
   -2.9029    6.8570    1.0165 H   0  0  0  0  0  0  0  0  0  0  0  0
   -2.1275    5.7402    2.1354 H   0  0  0  0  0  0  0  0  0  0  0  0
   -1.1462    6.7771    1.1044 H   0  0  0  0  0  0  0  0  0  0  0  0
    3.7665    2.2929   -2.4046 H   0  0  0  0  0  0  0  0  0  0  0  0
    5.0851    1.2218   -2.2298 H   0  0  0  0  0  0  0  0  0  0  0  0
    0.2914   -1.4293    1.9540 H   0  0  0  0  0  0  0  0  0  0  0  0
    1.4706   -3.3265    2.9108 H   0  0  0  0  0  0  0  0  0  0  0  0
    3.8064   -3.8260    2.2222 H   0  0  0  0  0  0  0  0  0  0  0  0
    4.9315   -2.3986    0.5567 H   0  0  0  0  0  0  0  0  0  0  0  0
  1  2  1  0
  2  3  1  0
  3  6  2  0
  3  4  1  0
  6  7  1  0
 19 18  1  0
  4  5  2  0
  7  8  2  0
 20 18  1  0
 20 21  2  0
 18 17  2  0
 27 21  1  0
 27 26  2  0
 21 23  1  0
 17 16  1  0
 17 22  1  0
 26 25  1  0
  5  8  1  0
  8  9  1  0
 16 11  2  0
 23 22  2  0
 23 24  1  0
 22 10  1  0
 25 24  2  0
 11 10  1  0
 11 12  1  0
 10  9  1  0
 12 13  1  0
 13 14  1  0
 14 15  1  0
  1 28  1  0
  1 29  1  0
  2 30  1  0
  2 31  1  0
  4 32  1  0
  5 33  1  0
  6 34  1  0
  7 35  1  0
  9 36  1  0
  9 37  1  0
 12 38  1  0
 12 39  1  0
 13 40  1  0
 13 41  1  0
 14 42  1  0
 14 43  1  0
 15 44  1  0
 15 45  1  0
 15 46  1  0
 19 47  1  0
 19 48  1  0
 24 49  1  0
 25 50  1  0
 26 51  1  0
 27 52  1  0
M  END
