
     RDKit          3D

 13 13  0  0  0  0  0  0  0  0999 V2000
   -2.3130   -1.2652    0.1880 Cl  0  0  0  0  0  0  0  0  0  0  0  0
   -0.9370   -0.2172    0.0933 C   0  0  0  0  0  0  0  0  0  0  0  0
    0.3315   -0.7653   -0.0035 C   0  0  0  0  0  0  0  0  0  0  0  0
    1.4223    0.0825   -0.0756 C   0  0  0  0  0  0  0  0  0  0  0  0
    3.0141   -0.5893   -0.1947 Cl  0  0  0  0  0  0  0  0  0  0  0  0
    1.2527    1.4589   -0.0515 C   0  0  0  0  0  0  0  0  0  0  0  0
   -0.0209    1.9891    0.0451 C   0  0  0  0  0  0  0  0  0  0  0  0
   -1.1403    1.1630    0.1191 C   0  0  0  0  0  0  0  0  0  0  0  0
   -2.3462    1.7354    0.2114 O   0  0  0  0  0  0  0  0  0  0  0  0
    0.4574   -1.8389   -0.0207 H   0  0  0  0  0  0  0  0  0  0  0  0
    2.1059    2.1204   -0.1069 H   0  0  0  0  0  0  0  0  0  0  0  0
   -0.1584    3.0626    0.0637 H   0  0  0  0  0  0  0  0  0  0  0  0
   -3.0499    1.0748    0.2478 H   0  0  0  0  0  0  0  0  0  0  0  0
  1  2  1  0
  9  8  1  0
  2  8  2  0
  2  3  1  0
  8  7  1  0
  3  4  2  0
  7  6  2  0
  4  6  1  0
  4  5  1  0
  3 10  1  0
  6 11  1  0
  7 12  1  0
  9 13  1  0
M  END
