
     RDKit          3D

 40 42  0  0  0  0  0  0  0  0999 V2000
    6.8907   -2.1422    0.1165 F   0  0  0  0  0  0  0  0  0  0  0  0
    6.3172   -0.9261    0.1238 C   0  0  0  0  0  0  0  0  0  0  0  0
    7.0623    0.1651   -0.2791 C   0  0  0  0  0  0  0  0  0  0  0  0
    6.4498    1.4109   -0.2610 C   0  0  0  0  0  0  0  0  0  0  0  0
    5.1306    1.5456    0.1491 C   0  0  0  0  0  0  0  0  0  0  0  0
    5.0039   -0.8183    0.5365 C   0  0  0  0  0  0  0  0  0  0  0  0
    4.3940    0.4340    0.5525 C   0  0  0  0  0  0  0  0  0  0  0  0
    2.9506    0.5670    0.9448 C   0  0  0  0  0  0  0  0  0  0  0  0
    2.0291    0.3215   -0.2483 C   0  0  0  0  0  0  0  0  0  0  0  0
    0.6391    0.4557    0.1381 N   0  0  0  0  0  0  0  0  0  0  0  0
   -0.2722    0.2403   -0.9696 C   0  0  0  0  0  0  0  0  0  0  0  0
   -1.7002    0.4319   -0.5389 C   0  0  0  0  0  0  0  0  0  0  0  0
   -2.0854    1.6489    0.0674 C   0  0  0  0  0  0  0  0  0  0  0  0
   -3.3828    1.8494    0.4545 C   0  0  0  0  0  0  0  0  0  0  0  0
   -2.6337   -0.5576   -0.7252 C   0  0  0  0  0  0  0  0  0  0  0  0
   -3.9800   -0.3824   -0.3327 C   0  0  0  0  0  0  0  0  0  0  0  0
   -4.8565   -1.3939   -0.5356 N   0  0  0  0  0  0  0  0  0  0  0  0
   -4.3524    0.8441    0.2642 C   0  0  0  0  0  0  0  0  0  0  0  0
   -5.7096    0.9874    0.6461 C   0  0  0  0  0  0  0  0  0  0  0  0
   -6.5850   -0.0277    0.4330 C   0  0  0  0  0  0  0  0  0  0  0  0
   -6.1073   -1.2309   -0.1732 C   0  0  0  0  0  0  0  0  0  0  0  0
   -6.9854   -2.2370   -0.4252 N   0  0  0  0  0  0  0  0  0  0  0  0
    8.0911    0.0465   -0.5926 H   0  0  0  0  0  0  0  0  0  0  0  0
    4.4603   -1.7030    0.8460 H   0  0  0  0  0  0  0  0  0  0  0  0
    7.0112    2.2840   -0.5669 H   0  0  0  0  0  0  0  0  0  0  0  0
    4.6692    2.5256    0.1621 H   0  0  0  0  0  0  0  0  0  0  0  0
    2.7123   -0.1475    1.7378 H   0  0  0  0  0  0  0  0  0  0  0  0
    2.7589    1.5656    1.3426 H   0  0  0  0  0  0  0  0  0  0  0  0
    2.2437    1.0610   -1.0261 H   0  0  0  0  0  0  0  0  0  0  0  0
    2.2586   -0.6633   -0.6850 H   0  0  0  0  0  0  0  0  0  0  0  0
    0.4319   -0.2187    0.8663 H   0  0  0  0  0  0  0  0  0  0  0  0
   -0.0314    0.9732   -1.7469 H   0  0  0  0  0  0  0  0  0  0  0  0
   -0.1597   -0.7497   -1.4360 H   0  0  0  0  0  0  0  0  0  0  0  0
   -1.3433    2.4212    0.2223 H   0  0  0  0  0  0  0  0  0  0  0  0
   -2.3496   -1.5004   -1.1792 H   0  0  0  0  0  0  0  0  0  0  0  0
   -3.6804    2.7853    0.9130 H   0  0  0  0  0  0  0  0  0  0  0  0
   -6.0426    1.9099    1.1061 H   0  0  0  0  0  0  0  0  0  0  0  0
   -7.6266    0.0611    0.7133 H   0  0  0  0  0  0  0  0  0  0  0  0
   -6.5956   -3.1404   -0.6367 H   0  0  0  0  0  0  0  0  0  0  0  0
   -7.8486   -2.2596    0.0898 H   0  0  0  0  0  0  0  0  0  0  0  0
  1  2  1  0
  2  3  2  0
  2  6  1  0
  3  4  1  0
  4  5  2  0
  5  7  1  0
  6  7  2  0
  7  8  1  0
  8  9  1  0
  9 10  1  0
 10 11  1  0
 11 12  1  0
 12 13  2  0
 12 15  1  0
 13 14  1  0
 14 18  2  0
 15 16  2  0
 16 17  1  0
 16 18  1  0
 17 21  2  0
 18 19  1  0
 19 20  2  0
 20 21  1  0
 21 22  1  0
  3 23  1  0
  6 24  1  0
  4 25  1  0
  5 26  1  0
  8 27  1  0
  8 28  1  0
  9 29  1  0
  9 30  1  0
 10 31  1  0
 11 32  1  0
 11 33  1  0
 13 34  1  0
 15 35  1  0
 14 36  1  0
 19 37  1  0
 20 38  1  0
 22 39  1  0
 22 40  1  0
M  END
