
     RDKit          3D

 47 51  0  0  0  0  0  0  0  0999 V2000
   -4.8987   -1.5695    1.0661 C   0  0  0  0  0  0  0  0  0  0  0  0
   -5.6384   -2.9229    1.1344 C   0  0  0  0  0  0  0  0  0  0  0  0
   -5.2893   -3.6590   -0.1725 C   0  0  0  0  0  0  0  0  0  0  0  0
   -3.9845   -3.0205   -0.6308 C   0  0  0  0  0  0  0  0  0  0  0  0
   -4.2033   -1.5449   -0.3108 C   0  0  2  0  0  0  0  0  0  0  0  0
   -2.9804   -0.7856   -0.3821 N   0  0  0  0  0  0  0  0  0  0  0  0
   -2.9244    0.5735   -0.3464 C   0  0  0  0  0  0  0  0  0  0  0  0
   -1.7094    1.0950   -0.1636 N   0  0  0  0  0  0  0  0  0  0  0  0
   -4.0588    1.3842   -0.5189 C   0  0  0  0  0  0  0  0  0  0  0  0
   -3.8757    2.7533   -0.5128 C   0  0  0  0  0  0  0  0  0  0  0  0
   -2.6133    3.2962   -0.3343 C   0  0  0  0  0  0  0  0  0  0  0  0
   -1.5444    2.4163   -0.1545 C   0  0  0  0  0  0  0  0  0  0  0  0
   -0.1839    2.9036    0.0503 C   0  0  0  0  0  0  0  0  0  0  0  0
    1.0369    2.1404    0.0963 C   0  0  0  0  0  0  0  0  0  0  0  0
    1.3516    0.7874   -0.0287 C   0  0  0  0  0  0  0  0  0  0  0  0
    0.1851    4.2139    0.2367 C   0  0  0  0  0  0  0  0  0  0  0  0
    1.5297    4.3065    0.3882 N   0  0  0  0  0  0  0  0  0  0  0  0
    2.0852    3.0648    0.3067 C   0  0  0  0  0  0  0  0  0  0  0  0
    3.4177    2.6745    0.3966 C   0  0  0  0  0  0  0  0  0  0  0  0
    3.7001    1.3322    0.2687 C   0  0  0  0  0  0  0  0  0  0  0  0
    2.6789    0.3842    0.0558 C   0  0  0  0  0  0  0  0  0  0  0  0
    2.9973   -1.0352   -0.0784 C   0  0  0  0  0  0  0  0  0  0  0  0
    4.6312   -1.6517    0.0067 S   0  0  0  0  0  0  0  0  0  0  0  0
    2.1314   -1.9701   -0.2718 N   0  0  0  0  0  0  0  0  0  0  0  0
    2.6503   -3.2098   -0.3753 N   0  0  0  0  0  0  0  0  0  0  0  0
    3.9443   -3.2256   -0.2498 C   0  0  0  0  0  0  0  0  0  0  0  0
    4.6987   -4.3427   -0.2517 N   0  0  0  0  0  0  0  0  0  0  0  0
   -5.5676   -0.7184    1.2012 H   0  0  0  0  0  0  0  0  0  0  0  0
   -4.1375   -1.5042    1.8467 H   0  0  0  0  0  0  0  0  0  0  0  0
   -5.2931   -3.4966    1.9954 H   0  0  0  0  0  0  0  0  0  0  0  0
   -6.7154   -2.8010    1.2517 H   0  0  0  0  0  0  0  0  0  0  0  0
   -5.2110   -4.7382   -0.0388 H   0  0  0  0  0  0  0  0  0  0  0  0
   -6.0626   -3.4854   -0.9248 H   0  0  0  0  0  0  0  0  0  0  0  0
   -3.1447   -3.4030   -0.0402 H   0  0  0  0  0  0  0  0  0  0  0  0
   -3.7583   -3.1942   -1.6837 H   0  0  0  0  0  0  0  0  0  0  0  0
   -4.8967   -1.1424   -1.0562 H   0  0  0  0  0  0  0  0  0  0  0  0
   -2.1486   -1.2440   -0.0405 H   0  0  0  0  0  0  0  0  0  0  0  0
   -5.0449    0.9629   -0.6537 H   0  0  0  0  0  0  0  0  0  0  0  0
   -4.7285    3.4064   -0.6494 H   0  0  0  0  0  0  0  0  0  0  0  0
   -2.4694    4.3673   -0.3396 H   0  0  0  0  0  0  0  0  0  0  0  0
    0.5684    0.0608   -0.1824 H   0  0  0  0  0  0  0  0  0  0  0  0
   -0.4248    5.1026    0.2771 H   0  0  0  0  0  0  0  0  0  0  0  0
    2.0302    5.1644    0.5534 H   0  0  0  0  0  0  0  0  0  0  0  0
    4.2079    3.3957    0.5589 H   0  0  0  0  0  0  0  0  0  0  0  0
    4.7346    1.0175    0.3366 H   0  0  0  0  0  0  0  0  0  0  0  0
    4.2535   -5.1761   -0.6027 H   0  0  0  0  0  0  0  0  0  0  0  0
    5.6776   -4.2695   -0.4713 H   0  0  0  0  0  0  0  0  0  0  0  0
 19 20  2  0
 19 18  1  0
 20 21  1  0
 17 18  1  0
 17 16  1  0
 18 14  2  0
 24 25  1  0
 24 22  2  0
 21 22  1  0
 21 15  2  0
 25 26  2  0
 16 13  2  0
 22 23  1  0
 14 15  1  0
 14 13  1  0
 13 12  1  0
 26 23  1  0
 26 27  1  0
 12 11  1  0
 12  8  2  0
 11 10  2  0
  8  7  1  0
  4  5  1  0
  4  3  1  0
 10  9  1  0
  7  9  2  0
  7  6  1  0
  5  6  1  0
  5  1  1  0
  3  2  1  0
  2  1  1  0
  1 28  1  0
  1 29  1  0
  2 30  1  0
  2 31  1  0
  3 32  1  0
  3 33  1  0
  4 34  1  0
  4 35  1  0
  5 36  1  6
  6 37  1  0
  9 38  1  0
 10 39  1  0
 11 40  1  0
 15 41  1  0
 16 42  1  0
 17 43  1  0
 19 44  1  0
 20 45  1  0
 27 46  1  0
 27 47  1  0
M  END
