
     RDKit          3D

 55 59  0  0  0  0  0  0  0  0999 V2000
   -1.0134    1.3312   -1.0670 N   0  0  0  0  0  0  0  0  0  0  0  0
   -3.2705    0.6323   -0.4487 C   0  0  0  0  0  0  0  0  0  0  0  0
   -5.7576   -3.1867   -0.2660 N   0  0  0  0  0  0  0  0  0  0  0  0
   -5.2308   -1.1107    0.3668 C   0  0  0  0  0  0  0  0  0  0  0  0
   -4.3300   -1.4913   -0.6404 C   0  0  0  0  0  0  0  0  0  0  0  0
   -2.3128    1.6775   -0.9242 C   0  0  0  0  0  0  0  0  0  0  0  0
    0.6153    0.7486    0.6710 C   0  0  0  0  0  0  0  0  0  0  0  0
    4.7532   -1.7408   -0.9719 C   0  0  0  0  0  0  0  0  0  0  0  0
    3.7993   -0.8098   -1.3490 C   0  0  0  0  0  0  0  0  0  0  0  0
   -4.7314   -2.8101   -0.9858 C   0  0  0  0  0  0  0  0  0  0  0  0
    4.8384   -0.7440    1.2063 C   0  0  0  0  0  0  0  0  0  0  0  0
    3.4651    1.2703    1.7563 C   0  0  0  0  0  0  0  0  0  0  0  0
    5.2840   -1.7169    0.3358 C   0  0  0  0  0  0  0  0  0  0  0  0
   -5.1947    0.1474    0.9922 C   0  0  0  0  0  0  0  0  0  0  0  0
   -4.2093    0.9980    0.5458 C   0  0  0  0  0  0  0  0  0  0  0  0
   -3.3277   -0.6058   -1.0517 C   0  0  0  0  0  0  0  0  0  0  0  0
   -6.0553   -2.1675    0.5440 N   0  0  0  0  0  0  0  0  0  0  0  0
   -2.7386    2.7893   -1.2134 O   0  0  0  0  0  0  0  0  0  0  0  0
   -0.0767    2.2518   -1.6915 C   0  0  0  0  0  0  0  0  0  0  0  0
    0.9075    2.8185   -0.6769 C   0  0  0  0  0  0  0  0  0  0  0  0
    1.6395    1.7209    0.0829 C   0  0  1  0  0  0  0  0  0  0  0  0
   -0.3667    0.2283   -0.3732 C   0  0  0  0  0  0  0  0  0  0  0  0
    2.5514    2.3058    1.1538 C   0  0  0  0  0  0  0  0  0  0  0  0
    3.8833    0.2090    0.8344 C   0  0  0  0  0  0  0  0  0  0  0  0
    3.3561    0.1635   -0.4574 C   0  0  0  0  0  0  0  0  0  0  0  0
    2.4344    1.0347   -0.8981 O   0  0  0  0  0  0  0  0  0  0  0  0
    5.2046   -2.7818   -1.9494 C   0  0  0  0  0  0  0  0  0  0  0  0
    6.3046   -2.7283    0.7676 C   0  0  0  0  0  0  0  0  0  0  0  0
    1.1018   -0.1041    1.1519 H   0  0  0  0  0  0  0  0  0  0  0  0
    0.0589    1.2698    1.4552 H   0  0  0  0  0  0  0  0  0  0  0  0
    3.3828   -0.8352   -2.3489 H   0  0  0  0  0  0  0  0  0  0  0  0
   -4.3014   -3.4722   -1.7220 H   0  0  0  0  0  0  0  0  0  0  0  0
    5.2405   -0.7037    2.2118 H   0  0  0  0  0  0  0  0  0  0  0  0
   -6.1461   -0.1772    2.8938 H   0  0  0  0  0  0  0  0  0  0  0  0
   -5.9881    1.5181    2.4376 H   0  0  0  0  0  0  0  0  0  0  0  0
   -7.2031    0.5011    1.6661 H   0  0  0  0  0  0  0  0  0  0  0  0
   -4.1425    1.9875    0.9823 H   0  0  0  0  0  0  0  0  0  0  0  0
   -2.6270   -0.8866   -1.8284 H   0  0  0  0  0  0  0  0  0  0  0  0
   -6.8287   -2.2527    1.1833 H   0  0  0  0  0  0  0  0  0  0  0  0
    0.4582    1.7131   -2.4780 H   0  0  0  0  0  0  0  0  0  0  0  0
   -0.6260    3.0580   -2.1684 H   0  0  0  0  0  0  0  0  0  0  0  0
    1.6281    3.4637   -1.1849 H   0  0  0  0  0  0  0  0  0  0  0  0
    0.3724    3.4410    0.0447 H   0  0  0  0  0  0  0  0  0  0  0  0
   -1.1066   -0.3877    0.1281 H   0  0  0  0  0  0  0  0  0  0  0  0
    0.1424   -0.4101   -1.0999 H   0  0  0  0  0  0  0  0  0  0  0  0
    1.9634    2.7906    1.9339 H   0  0  0  0  0  0  0  0  0  0  0  0
    3.1887    3.0785    0.7054 H   0  0  0  0  0  0  0  0  0  0  0  0
    4.9443   -3.7846   -1.6044 H   0  0  0  0  0  0  0  0  0  0  0  0
    4.7501   -2.6363   -2.9277 H   0  0  0  0  0  0  0  0  0  0  0  0
    6.2887   -2.7645   -2.0754 H   0  0  0  0  0  0  0  0  0  0  0  0
    7.1843   -2.7203    0.1207 H   0  0  0  0  0  0  0  0  0  0  0  0
    6.6405   -2.5360    1.7854 H   0  0  0  0  0  0  0  0  0  0  0  0
    5.9018   -3.7429    0.7384 H   0  0  0  0  0  0  0  0  0  0  0  0
    3.8610    1.3432    2.9028 O   0  0  0  0  0  0  0  0  0  0  0  0
   -6.1822    0.5185    2.0531 C   0  0  0  0  0  0  0  0  0  0  0  0
  3 17  1  0
  3 10  2  0
 17  4  1  0
 55 14  1  0
 10  5  1  0
  4 14  2  0
  4  5  1  0
 14 15  1  0
  5 16  2  0
 15  2  2  0
 16  2  1  0
  2  6  1  0
 18  6  2  0
  6  1  1  0
  1 22  1  0
  1 19  1  0
 22  7  1  0
 19 20  1  0
  7 21  1  0
 20 21  1  0
 21 26  1  6
 21 23  1  0
 26 25  1  0
 23 12  1  0
 25  9  1  0
 25 24  2  0
  9  8  2  0
 12 24  1  0
 12 54  2  0
 24 11  1  0
  8 27  1  0
  8 13  1  0
 11 13  2  0
 13 28  1  0
  7 29  1  0
  7 30  1  0
  9 31  1  0
 10 32  1  0
 11 33  1  0
 55 34  1  0
 55 35  1  0
 55 36  1  0
 15 37  1  0
 16 38  1  0
 17 39  1  0
 19 40  1  0
 19 41  1  0
 20 42  1  0
 20 43  1  0
 22 44  1  0
 22 45  1  0
 23 46  1  0
 23 47  1  0
 27 48  1  0
 27 49  1  0
 27 50  1  0
 28 51  1  0
 28 52  1  0
 28 53  1  0
M  END
