
     RDKit          3D

 18 18  0  0  0  0  0  0  0  0999 V2000
   -0.0565   -1.5816   -0.0230 C   0  0  0  0  0  0  0  0  0  0  0  0
   -1.1959   -0.7606   -0.1206 C   0  0  0  0  0  0  0  0  0  0  0  0
    1.1793   -0.9086    0.0638 C   0  0  0  0  0  0  0  0  0  0  0  0
    0.1196    1.2531   -0.0184 C   0  0  0  0  0  0  0  0  0  0  0  0
   -1.1139    0.6260   -0.1201 C   0  0  0  0  0  0  0  0  0  0  0  0
    1.2677    0.4766    0.0726 C   0  0  0  0  0  0  0  0  0  0  0  0
   -0.1388   -2.9332   -0.0659 N   0  0  0  0  0  0  0  0  0  0  0  0
   -2.7588    1.6718    1.0202 O   0  0  0  0  0  0  0  0  0  0  0  0
    3.0192    1.3418   -1.0612 O   0  0  0  0  0  0  0  0  0  0  0  0
   -2.2389    1.3754   -0.2684 O   0  0  0  0  0  0  0  0  0  0  0  0
    2.4823    1.0687    0.2256 O   0  0  0  0  0  0  0  0  0  0  0  0
   -2.8956   -1.5413   -0.2891 Br  0  0  0  0  0  0  0  0  0  0  0  0
    2.7713   -1.8956    0.1716 Br  0  0  0  0  0  0  0  0  0  0  0  0
    0.2338    3.1183    0.0042 Br  0  0  0  0  0  0  0  0  0  0  0  0
   -1.0186   -3.3723    0.1494 H   0  0  0  0  0  0  0  0  0  0  0  0
    0.6526   -3.4750    0.2391 H   0  0  0  0  0  0  0  0  0  0  0  0
   -3.5391    1.0968    1.0616 H   0  0  0  0  0  0  0  0  0  0  0  0
    2.9212    2.3052   -1.1211 H   0  0  0  0  0  0  0  0  0  0  0  0
  1  2  2  0
  1  3  1  0
  1  7  1  0
  2  5  1  0
  2 12  1  0
  3  6  2  0
  3 13  1  0
  4  5  2  0
  4  6  1  0
  4 14  1  0
  5 10  1  0
  6 11  1  0
  8 10  1  0
  9 11  1  0
  7 15  1  0
  7 16  1  0
  8 17  1  0
  9 18  1  0
M  END
