
     RDKit          3D

 48 50  0  0  0  0  0  0  0  0999 V2000
    3.0532   -2.1906   -1.7571 O   0  0  0  0  0  0  0  0  0  0  0  0
    2.4186   -1.6830   -0.8465 C   0  0  0  0  0  0  0  0  0  0  0  0
    3.0018   -1.1530    0.2486 N   0  0  0  0  0  0  0  0  0  0  0  0
    4.4269   -1.1204    0.4055 C   0  0  1  0  0  0  0  0  0  0  0  0
    4.8162   -0.0196    1.4094 C   0  0  0  0  0  0  0  0  0  0  0  0
    4.3346    1.3292    0.9527 C   0  0  0  0  0  0  0  0  0  0  0  0
    3.1682    1.8931    1.4618 C   0  0  0  0  0  0  0  0  0  0  0  0
    2.6950    3.1148    1.0102 C   0  0  0  0  0  0  0  0  0  0  0  0
    3.3928    3.8062    0.0235 C   0  0  0  0  0  0  0  0  0  0  0  0
    2.8991    4.9920   -0.3875 O   0  0  0  0  0  0  0  0  0  0  0  0
    4.5646    3.2592   -0.4939 C   0  0  0  0  0  0  0  0  0  0  0  0
    5.0217    2.0352   -0.0299 C   0  0  0  0  0  0  0  0  0  0  0  0
    4.9573   -2.4771    0.8454 C   0  0  0  0  0  0  0  0  0  0  0  0
    4.2702   -3.3878    1.2247 O   0  0  0  0  0  0  0  0  0  0  0  0
    6.2794   -2.5190    0.7741 O   0  0  0  0  0  0  0  0  0  0  0  0
    0.9492   -1.5714   -0.8985 C   0  0  0  0  0  0  0  0  0  0  0  0
    0.0757   -2.3554   -1.6099 C   0  0  0  0  0  0  0  0  0  0  0  0
    0.4185   -3.5300   -2.4622 C   0  0  0  0  0  0  0  0  0  0  0  0
   -1.2267   -1.9868   -1.4896 N   0  0  0  0  0  0  0  0  0  0  0  0
   -1.3841   -0.9495   -0.7224 C   0  0  0  0  0  0  0  0  0  0  0  0
   -2.6819   -0.3379   -0.4422 C   0  0  0  0  0  0  0  0  0  0  0  0
   -3.8037   -0.7580   -1.1590 C   0  0  0  0  0  0  0  0  0  0  0  0
   -5.0412   -0.1943   -0.9151 C   0  0  0  0  0  0  0  0  0  0  0  0
   -5.1783    0.7969    0.0521 C   0  0  0  0  0  0  0  0  0  0  0  0
   -6.5203    1.4225    0.2713 C   0  0  1  0  0  0  0  0  0  0  0  0
   -6.5997    2.0701    1.4368 F   0  0  0  0  0  0  0  0  0  0  0  0
   -6.8091    2.3129   -0.6897 F   0  0  0  0  0  0  0  0  0  0  0  0
   -7.5023    0.5128    0.2572 F   0  0  0  0  0  0  0  0  0  0  0  0
   -4.0684    1.2215    0.7701 C   0  0  0  0  0  0  0  0  0  0  0  0
   -2.8297    0.6536    0.5250 C   0  0  0  0  0  0  0  0  0  0  0  0
    0.0862   -0.3275   -0.0784 S   0  0  0  0  0  0  0  0  0  0  0  0
    2.4436   -0.9822    1.0709 H   0  0  0  0  0  0  0  0  0  0  0  0
    4.8808   -0.8797   -0.5596 H   0  0  0  0  0  0  0  0  0  0  0  0
    4.3973   -0.2593    2.3906 H   0  0  0  0  0  0  0  0  0  0  0  0
    5.9006   -0.0191    1.5235 H   0  0  0  0  0  0  0  0  0  0  0  0
    2.6130    1.3735    2.2346 H   0  0  0  0  0  0  0  0  0  0  0  0
    1.7857    3.5348    1.4222 H   0  0  0  0  0  0  0  0  0  0  0  0
    3.4682    5.3783   -1.0622 H   0  0  0  0  0  0  0  0  0  0  0  0
    5.1248    3.7892   -1.2561 H   0  0  0  0  0  0  0  0  0  0  0  0
    5.9361    1.6278   -0.4461 H   0  0  0  0  0  0  0  0  0  0  0  0
    6.6075   -3.3763    1.0852 H   0  0  0  0  0  0  0  0  0  0  0  0
    1.2450   -4.1052   -2.0527 H   0  0  0  0  0  0  0  0  0  0  0  0
   -0.4493   -4.1796   -2.5571 H   0  0  0  0  0  0  0  0  0  0  0  0
    0.7101   -3.2094   -3.4632 H   0  0  0  0  0  0  0  0  0  0  0  0
   -3.7048   -1.5264   -1.9126 H   0  0  0  0  0  0  0  0  0  0  0  0
   -5.8935   -0.5360   -1.4875 H   0  0  0  0  0  0  0  0  0  0  0  0
   -4.1490    1.9877    1.5281 H   0  0  0  0  0  0  0  0  0  0  0  0
   -1.9841    0.9919    1.1112 H   0  0  0  0  0  0  0  0  0  0  0  0
 25 26  1  1
 28 25  1  0
 25 27  1  0
 25 24  1  0
 24 29  2  0
 24 23  1  0
 29 30  1  0
 23 22  2  0
 30 21  2  0
 22 21  1  0
 21 20  1  0
 20 19  2  0
 20 31  1  0
 19 17  1  0
 17 18  1  0
 17 16  2  0
 31 16  1  0
 16  2  1  0
  2  3  1  0
  2  1  2  0
  3  4  1  0
 14 13  2  0
 11 12  2  0
 11  9  1  0
 12  6  1  0
 13  4  1  0
 13 15  1  0
  4  5  1  0
 10  9  1  0
  9  8  2  0
  6  5  1  0
  6  7  2  0
  8  7  1  0
  3 32  1  0
  4 33  1  6
  5 34  1  0
  5 35  1  0
  7 36  1  0
  8 37  1  0
 10 38  1  0
 11 39  1  0
 12 40  1  0
 15 41  1  0
 18 42  1  0
 18 43  1  0
 18 44  1  0
 22 45  1  0
 23 46  1  0
 29 47  1  0
 30 48  1  0
M  END
