
     RDKit          3D

 69 73  0  0  0  0  0  0  0  0999 V2000
    5.4113    3.0138    0.1706 C   0  0  2  0  0  0  0  0  0  0  0  0
   -2.2633    1.3114    0.8989 C   0  0  0  0  0  0  0  0  0  0  0  0
   -1.0921    1.6469   -0.0108 C   0  0  0  0  0  0  0  0  0  0  0  0
    0.2353    1.6582    0.7379 C   0  0  0  0  0  0  0  0  0  0  0  0
    1.3896    2.0614   -0.1677 C   0  0  0  0  0  0  0  0  0  0  0  0
    4.0756    2.6895   -0.4781 C   0  0  0  0  0  0  0  0  0  0  0  0
  -10.6782   -0.1442    0.2616 C   0  0  0  0  0  0  0  0  0  0  0  0
   -7.0135    0.2391    0.5802 C   0  0  0  0  0  0  0  0  0  0  0  0
   -8.2410    0.2879   -0.0820 C   0  0  0  0  0  0  0  0  0  0  0  0
   -9.3565   -0.5868    0.3322 C   0  0  0  0  0  0  0  0  0  0  0  0
   -9.1226   -1.8788    0.8052 C   0  0  0  0  0  0  0  0  0  0  0  0
  -10.1651   -2.7034    1.1970 C   0  0  0  0  0  0  0  0  0  0  0  0
  -11.4664   -2.2337    1.1146 C   0  0  0  0  0  0  0  0  0  0  0  0
  -11.7326   -0.9563    0.6476 C   0  0  0  0  0  0  0  0  0  0  0  0
   -4.6594    1.0048    0.9876 C   0  0  0  0  0  0  0  0  0  0  0  0
   -5.9497    1.0535    0.2100 C   0  0  0  0  0  0  0  0  0  0  0  0
   -6.1186    1.9331   -0.8566 C   0  0  0  0  0  0  0  0  0  0  0  0
   -7.3311    1.9896   -1.5287 C   0  0  0  0  0  0  0  0  0  0  0  0
   -8.3877    1.1769   -1.1471 C   0  0  0  0  0  0  0  0  0  0  0  0
    7.6614   -1.1317    0.1609 C   0  0  0  0  0  0  0  0  0  0  0  0
    6.4891    3.3521   -0.8493 C   0  0  2  0  0  0  0  0  0  0  0  0
    7.0296    1.9563   -1.1723 C   0  0  2  0  0  0  0  0  0  0  0  0
    6.9676    1.2785    0.2014 C   0  0  1  0  0  0  0  0  0  0  0  0
    5.5114   -0.7714   -0.0320 C   0  0  0  0  0  0  0  0  0  0  0  0
    6.9525   -2.3138    0.0106 C   0  0  0  0  0  0  0  0  0  0  0  0
  -12.7774   -3.2577    1.6003 Cl  0  0  0  0  0  0  0  0  0  0  0  0
   -3.5074    1.2715    0.1546 N   0  0  0  0  0  0  0  0  0  0  0  0
    2.9496    1.9885    0.7585 S   0  0  0  0  0  0  0  0  0  0  0  0
    7.4691    4.1353   -0.2225 O   0  0  0  0  0  0  0  0  0  0  0  0
    8.3390    1.9333   -1.6556 O   0  0  0  0  0  0  0  0  0  0  0  0
    5.9224    1.8905    0.8961 O   0  0  0  0  0  0  0  0  0  0  0  0
    6.7185   -0.1456    0.1306 N   0  0  0  0  0  0  0  0  0  0  0  0
    8.9790   -1.0146    0.3128 N   0  0  0  0  0  0  0  0  0  0  0  0
    9.5784   -2.1921    0.3054 C   0  0  0  0  0  0  0  0  0  0  0  0
    9.0333   -3.3986    0.1669 N   0  0  0  0  0  0  0  0  0  0  0  0
    5.6100   -2.0665   -0.1050 N   0  0  0  0  0  0  0  0  0  0  0  0
    7.7084   -3.5001    0.0166 C   0  0  0  0  0  0  0  0  0  0  0  0
    7.1563   -4.7062   -0.1335 N   0  0  0  0  0  0  0  0  0  0  0  0
    5.2692    3.8295    0.8840 H   0  0  0  0  0  0  0  0  0  0  0  0
   -2.0572    0.3680    1.4300 H   0  0  0  0  0  0  0  0  0  0  0  0
   -2.3532    2.0818    1.6715 H   0  0  0  0  0  0  0  0  0  0  0  0
   -1.0409    0.9169   -0.8257 H   0  0  0  0  0  0  0  0  0  0  0  0
   -1.2681    2.6219   -0.4744 H   0  0  0  0  0  0  0  0  0  0  0  0
    0.1788    2.3526    1.5811 H   0  0  0  0  0  0  0  0  0  0  0  0
    0.4259    0.6669    1.1597 H   0  0  0  0  0  0  0  0  0  0  0  0
    1.4515    1.3944   -1.0302 H   0  0  0  0  0  0  0  0  0  0  0  0
    1.2449    3.0786   -0.5377 H   0  0  0  0  0  0  0  0  0  0  0  0
    3.6454    3.6139   -0.8683 H   0  0  0  0  0  0  0  0  0  0  0  0
    4.1814    1.9947   -1.3154 H   0  0  0  0  0  0  0  0  0  0  0  0
   -6.8865   -0.4383    1.4174 H   0  0  0  0  0  0  0  0  0  0  0  0
   -8.1124   -2.2642    0.8553 H   0  0  0  0  0  0  0  0  0  0  0  0
   -9.9609   -3.7032    1.5551 H   0  0  0  0  0  0  0  0  0  0  0  0
  -12.7489   -0.5913    0.5893 H   0  0  0  0  0  0  0  0  0  0  0  0
   -4.6923    1.7724    1.7689 H   0  0  0  0  0  0  0  0  0  0  0  0
   -4.5979    0.0427    1.5198 H   0  0  0  0  0  0  0  0  0  0  0  0
   -5.2971    2.5673   -1.1629 H   0  0  0  0  0  0  0  0  0  0  0  0
   -7.4515    2.6683   -2.3634 H   0  0  0  0  0  0  0  0  0  0  0  0
   -9.3196    1.2192   -1.6971 H   0  0  0  0  0  0  0  0  0  0  0  0
    6.0732    3.8467   -1.7368 H   0  0  0  0  0  0  0  0  0  0  0  0
    6.3395    1.4509   -1.8590 H   0  0  0  0  0  0  0  0  0  0  0  0
    7.9203    1.3987    0.7280 H   0  0  0  0  0  0  0  0  0  0  0  0
    4.5821   -0.2191   -0.0576 H   0  0  0  0  0  0  0  0  0  0  0  0
   -3.4425    0.5543   -0.5588 H   0  0  0  0  0  0  0  0  0  0  0  0
    8.2937    4.0269   -0.7112 H   0  0  0  0  0  0  0  0  0  0  0  0
    8.3204    2.0719   -2.6080 H   0  0  0  0  0  0  0  0  0  0  0  0
   10.6563   -2.1801    0.4280 H   0  0  0  0  0  0  0  0  0  0  0  0
    6.1575   -4.8142   -0.1614 H   0  0  0  0  0  0  0  0  0  0  0  0
    7.7189   -5.5341   -0.0380 H   0  0  0  0  0  0  0  0  0  0  0  0
  -10.8981    0.8577   -0.0836 H   0  0  0  0  0  0  0  0  0  0  0  0
 19 18  2  0
 19  9  1  0
 18 17  1  0
 14  7  2  0
 14 13  1  0
  7 10  1  0
 26 13  1  0
 13 12  2  0
  9 10  1  0
  9  8  2  0
 10 11  2  0
 17 16  2  0
 12 11  1  0
  8 16  1  0
 16 15  1  0
 15 27  1  0
 27  2  1  0
  2  3  1  0
  3  4  1  0
  5  4  1  0
  5 28  1  0
 28  6  1  0
  6  1  1  0
 36 24  2  0
 36 25  1  0
 24 32  1  0
  1 31  1  0
  1 21  1  0
 31 23  1  0
 38 37  1  0
 25 37  2  0
 25 20  1  0
 21 22  1  0
 21 29  1  0
 32 23  1  0
 32 20  1  0
 22 23  1  0
 22 30  1  0
 37 35  1  0
 20 33  2  0
 35 34  2  0
 33 34  1  0
  1 39  1  1
  2 40  1  0
  2 41  1  0
  3 42  1  0
  3 43  1  0
  4 44  1  0
  4 45  1  0
  5 46  1  0
  5 47  1  0
  6 48  1  0
  6 49  1  0
  7 69  1  0
  8 50  1  0
 11 51  1  0
 12 52  1  0
 14 53  1  0
 15 54  1  0
 15 55  1  0
 17 56  1  0
 18 57  1  0
 19 58  1  0
 21 59  1  6
 22 60  1  6
 23 61  1  1
 24 62  1  0
 27 63  1  0
 29 64  1  0
 30 65  1  0
 34 66  1  0
 38 67  1  0
 38 68  1  0
M  END
