
     RDKit          3D

 23 23  0  0  0  0  0  0  0  0999 V2000
    2.5361   -1.0584    1.0211 O   0  0  0  0  0  0  0  0  0  0  0  0
    2.1637    0.0508    0.1541 S   0  0  1  0  0  0  0  0  0  0  0  0
    2.5891    1.3918    0.5344 O   0  0  0  0  0  0  0  0  0  0  0  0
    2.6646   -0.3804   -1.3607 N   0  0  0  0  0  0  0  0  0  0  0  0
    0.4102    0.0753   -0.0576 C   0  0  0  0  0  0  0  0  0  0  0  0
   -0.2705   -1.1323   -0.1649 C   0  0  0  0  0  0  0  0  0  0  0  0
   -1.6444   -1.1172   -0.3178 C   0  0  0  0  0  0  0  0  0  0  0  0
   -0.2658    1.2845   -0.0988 C   0  0  0  0  0  0  0  0  0  0  0  0
   -1.6443    1.2792   -0.2536 C   0  0  0  0  0  0  0  0  0  0  0  0
   -2.3514    0.0858   -0.3636 C   0  0  0  0  0  0  0  0  0  0  0  0
   -3.8484    0.0837   -0.4784 C   0  0  0  0  0  0  0  0  0  0  0  0
   -4.5170   -0.1289    0.8792 C   0  0  0  0  0  0  0  0  0  0  0  0
    3.6217   -0.7208   -1.3520 H   0  0  0  0  0  0  0  0  0  0  0  0
    2.5659    0.3703   -2.0363 H   0  0  0  0  0  0  0  0  0  0  0  0
    0.2596   -2.0751   -0.1337 H   0  0  0  0  0  0  0  0  0  0  0  0
   -2.1786   -2.0558   -0.4039 H   0  0  0  0  0  0  0  0  0  0  0  0
    0.2650    2.2225   -0.0121 H   0  0  0  0  0  0  0  0  0  0  0  0
   -2.1763    2.2220   -0.2901 H   0  0  0  0  0  0  0  0  0  0  0  0
   -4.1858    1.0287   -0.9083 H   0  0  0  0  0  0  0  0  0  0  0  0
   -4.1626   -0.7055   -1.1649 H   0  0  0  0  0  0  0  0  0  0  0  0
   -4.2192   -1.0808    1.3206 H   0  0  0  0  0  0  0  0  0  0  0  0
   -4.2481    0.6630    1.5790 H   0  0  0  0  0  0  0  0  0  0  0  0
   -5.6024   -0.1323    0.7777 H   0  0  0  0  0  0  0  0  0  0  0  0
 12 11  1  0
 11 10  1  0
 10  7  2  0
 10  9  1  0
  7  6  1  0
  9  8  2  0
  6  5  2  0
  8  5  1  0
  5  2  1  0
  3  2  2  0
  2  1  2  0
  2  4  1  6
  4 13  1  0
  4 14  1  0
  6 15  1  0
  7 16  1  0
  8 17  1  0
  9 18  1  0
 11 19  1  0
 11 20  1  0
 12 21  1  0
 12 22  1  0
 12 23  1  0
M  END
