
     RDKit          3D

 78 82  0  0  0  0  0  0  0  0999 V2000
    7.6420    0.5826    0.6426 O   0  0  0  0  0  0  0  0  0  0  0  0
    7.0009   -0.2399   -0.1985 C   0  0  0  0  0  0  0  0  0  0  0  0
    5.7904    0.1320   -0.4429 N   0  0  0  0  0  0  0  0  0  0  0  0
    5.6096    1.2886    0.2869 C   0  0  0  0  0  0  0  0  0  0  0  0
    6.7529    1.5626    0.9587 C   0  0  0  0  0  0  0  0  0  0  0  0
    7.1796    2.6299    1.8869 C   0  0  0  0  0  0  0  0  0  0  0  0
    7.7042   -1.3992   -0.7279 C   0  0  0  0  0  0  0  0  0  0  0  0
    7.0429   -2.2414   -1.6240 C   0  0  0  0  0  0  0  0  0  0  0  0
    7.6892   -3.3479   -2.1481 C   0  0  0  0  0  0  0  0  0  0  0  0
    9.0015   -3.6288   -1.7856 C   0  0  0  0  0  0  0  0  0  0  0  0
    9.6619   -2.7953   -0.8930 C   0  0  0  0  0  0  0  0  0  0  0  0
    9.0207   -1.6851   -0.3641 C   0  0  0  0  0  0  0  0  0  0  0  0
   -3.6424   -0.3605    0.4794 N   0  0  0  0  0  0  0  0  0  0  0  0
   -3.4364   -1.0452    1.7365 C   0  0  2  0  0  0  0  0  0  0  0  0
   -4.7524   -1.6772    2.2039 C   0  0  0  0  0  0  0  0  0  0  0  0
   -5.3114   -2.5709    1.2206 N   0  0  0  0  0  0  0  0  0  0  0  0
   -1.5524    0.4677    2.3968 C   0  0  0  0  0  0  0  0  0  0  0  0
   -1.4868    1.6394    1.6442 C   0  0  0  0  0  0  0  0  0  0  0  0
   -0.3624   -0.1984    2.6578 C   0  0  0  0  0  0  0  0  0  0  0  0
   -0.2855    2.1159    1.1551 C   0  0  0  0  0  0  0  0  0  0  0  0
    0.8578    0.2628    2.1752 C   0  0  0  0  0  0  0  0  0  0  0  0
    0.8993    1.4235    1.4088 C   0  0  0  0  0  0  0  0  0  0  0  0
    2.0251    1.9516    0.8828 O   0  0  0  0  0  0  0  0  0  0  0  0
   -2.9978   -0.6518   -0.6878 C   0  0  0  0  0  0  0  0  0  0  0  0
   -3.5751   -0.3631   -1.9490 C   0  0  0  0  0  0  0  0  0  0  0  0
   -2.9218   -0.7546   -3.1191 C   0  0  0  0  0  0  0  0  0  0  0  0
   -1.6881   -1.3752   -3.0936 C   0  0  0  0  0  0  0  0  0  0  0  0
   -1.0967   -1.6151   -1.8570 C   0  0  0  0  0  0  0  0  0  0  0  0
   -1.7301   -1.2618   -0.6824 C   0  0  0  0  0  0  0  0  0  0  0  0
   -5.1177    1.5938   -1.3659 C   0  0  0  0  0  0  0  0  0  0  0  0
   -6.4236    1.9848   -1.0711 C   0  0  0  0  0  0  0  0  0  0  0  0
   -6.6603    3.1848   -0.4208 C   0  0  0  0  0  0  0  0  0  0  0  0
   -5.5976    4.0134   -0.0783 C   0  0  0  0  0  0  0  0  0  0  0  0
   -4.2961    3.6361   -0.3806 C   0  0  0  0  0  0  0  0  0  0  0  0
   -4.0556    2.4249   -1.0121 C   0  0  0  0  0  0  0  0  0  0  0  0
   -4.8768    0.3319   -2.1191 C   0  0  0  0  0  0  0  0  0  0  0  0
   -5.7006   -0.0686   -2.9185 O   0  0  0  0  0  0  0  0  0  0  0  0
    3.2424    1.2441    1.0250 C   0  0  0  0  0  0  0  0  0  0  0  0
    4.3154    2.0222    0.2803 C   0  0  0  0  0  0  0  0  0  0  0  0
   -6.1967   -2.1852    0.2837 C   0  0  0  0  0  0  0  0  0  0  0  0
   -6.5503   -3.2274   -0.7454 C   0  0  0  0  0  0  0  0  0  0  0  0
   -6.6842   -1.0608    0.2509 O   0  0  0  0  0  0  0  0  0  0  0  0
    7.4008    2.2366    2.8806 H   0  0  0  0  0  0  0  0  0  0  0  0
    8.0713    3.1447    1.5260 H   0  0  0  0  0  0  0  0  0  0  0  0
    6.3863    3.3680    1.9905 H   0  0  0  0  0  0  0  0  0  0  0  0
    6.0221   -2.0246   -1.9097 H   0  0  0  0  0  0  0  0  0  0  0  0
    7.1673   -3.9925   -2.8430 H   0  0  0  0  0  0  0  0  0  0  0  0
    9.5063   -4.4926   -2.1976 H   0  0  0  0  0  0  0  0  0  0  0  0
   10.6830   -3.0077   -0.6054 H   0  0  0  0  0  0  0  0  0  0  0  0
    9.5532   -1.0478    0.3293 H   0  0  0  0  0  0  0  0  0  0  0  0
   -4.5457    0.0788    0.3992 H   0  0  0  0  0  0  0  0  0  0  0  0
   -2.7208   -1.8554    1.5808 H   0  0  0  0  0  0  0  0  0  0  0  0
   -4.5764   -2.2318    3.1261 H   0  0  0  0  0  0  0  0  0  0  0  0
   -5.4830   -0.8992    2.4303 H   0  0  0  0  0  0  0  0  0  0  0  0
   -4.9136   -3.4933    1.1542 H   0  0  0  0  0  0  0  0  0  0  0  0
   -3.5972    0.6933    2.9979 H   0  0  0  0  0  0  0  0  0  0  0  0
   -2.7727   -0.6655    3.7476 H   0  0  0  0  0  0  0  0  0  0  0  0
   -2.3979    2.1848    1.4315 H   0  0  0  0  0  0  0  0  0  0  0  0
   -0.3745   -1.1087    3.2470 H   0  0  0  0  0  0  0  0  0  0  0  0
   -0.2546    3.0267    0.5691 H   0  0  0  0  0  0  0  0  0  0  0  0
    1.7552   -0.2953    2.4064 H   0  0  0  0  0  0  0  0  0  0  0  0
   -3.3909   -0.5381   -4.0707 H   0  0  0  0  0  0  0  0  0  0  0  0
   -1.1900   -1.6497   -4.0132 H   0  0  0  0  0  0  0  0  0  0  0  0
   -0.1189   -2.0777   -1.8040 H   0  0  0  0  0  0  0  0  0  0  0  0
   -1.2211   -1.4352    0.2553 H   0  0  0  0  0  0  0  0  0  0  0  0
   -7.2499    1.3373   -1.3310 H   0  0  0  0  0  0  0  0  0  0  0  0
   -7.6738    3.4780   -0.1812 H   0  0  0  0  0  0  0  0  0  0  0  0
   -5.7861    4.9531    0.4243 H   0  0  0  0  0  0  0  0  0  0  0  0
   -3.4687    4.2847   -0.1232 H   0  0  0  0  0  0  0  0  0  0  0  0
   -3.0389    2.1345   -1.2452 H   0  0  0  0  0  0  0  0  0  0  0  0
    3.5160    1.1457    2.0817 H   0  0  0  0  0  0  0  0  0  0  0  0
    3.1510    0.2346    0.6086 H   0  0  0  0  0  0  0  0  0  0  0  0
    4.4421    3.0061    0.7365 H   0  0  0  0  0  0  0  0  0  0  0  0
    3.9947    2.1832   -0.7523 H   0  0  0  0  0  0  0  0  0  0  0  0
   -7.6328   -3.2982   -0.8409 H   0  0  0  0  0  0  0  0  0  0  0  0
   -6.1594   -2.9083   -1.7126 H   0  0  0  0  0  0  0  0  0  0  0  0
   -6.1525   -4.2156   -0.5233 H   0  0  0  0  0  0  0  0  0  0  0  0
   -2.8735   -0.1060    2.8139 C   0  0  0  0  0  0  0  0  0  0  0  0
  1  2  1  0
  1  5  1  0
  2  7  1  0
  2  3  2  0
  3  4  1  0
  4  5  2  0
  4 39  1  0
  5  6  1  0
  6 43  1  0
  6 44  1  0
  6 45  1  0
  7 12  1  0
  7  8  2  0
  8  9  1  0
  8 46  1  0
  9 10  2  0
  9 47  1  0
 10 11  1  0
 10 48  1  0
 11 12  2  0
 11 49  1  0
 12 50  1  0
 13 24  1  0
 13 14  1  0
 13 51  1  0
 14 78  1  0
 14 15  1  0
 14 52  1  6
 15 16  1  0
 15 53  1  0
 15 54  1  0
 16 40  1  0
 16 55  1  0
 78 17  1  0
 78 56  1  0
 78 57  1  0
 17 18  2  0
 17 19  1  0
 18 20  1  0
 18 58  1  0
 19 21  2  0
 19 59  1  0
 20 22  2  0
 20 60  1  0
 21 22  1  0
 21 61  1  0
 22 23  1  0
 23 38  1  0
 24 25  1  0
 24 29  2  0
 25 36  1  0
 25 26  2  0
 26 27  1  0
 26 62  1  0
 27 28  2  0
 27 63  1  0
 28 29  1  0
 28 64  1  0
 29 65  1  0
 30 31  2  0
 30 36  1  0
 30 35  1  0
 31 32  1  0
 31 66  1  0
 32 33  2  0
 32 67  1  0
 33 34  1  0
 33 68  1  0
 34 35  2  0
 34 69  1  0
 35 70  1  0
 36 37  2  0
 38 39  1  0
 38 71  1  0
 38 72  1  0
 39 73  1  0
 39 74  1  0
 40 42  2  0
 40 41  1  0
 41 75  1  0
 41 76  1  0
 41 77  1  0
M  END
