
     RDKit          3D

 39 40  0  0  0  0  0  0  0  0999 V2000
   -2.3384   -0.5403   -0.3099 N   0  0  0  0  0  0  0  0  0  0  0  0
    0.1203   -0.4746   -0.5178 C   0  0  2  0  0  0  0  0  0  0  0  0
    0.5745    0.7516    0.2847 C   0  0  0  0  0  0  0  0  0  0  0  0
    1.8873    1.2971   -0.2632 C   0  0  0  0  0  0  0  0  0  0  0  0
   -1.1528   -1.0644    0.0706 C   0  0  0  0  0  0  0  0  0  0  0  0
   -3.5864   -1.0708    0.2216 C   0  0  0  0  0  0  0  0  0  0  0  0
   -4.5677    1.2373    0.1840 C   0  0  0  0  0  0  0  0  0  0  0  0
    2.9107    0.2679   -0.2859 N   0  0  0  0  0  0  0  0  0  0  0  0
    4.4161    1.4014    1.3268 C   0  0  0  0  0  0  0  0  0  0  0  0
    4.8204   -0.7197    0.3891 O   0  0  0  0  0  0  0  0  0  0  0  0
    4.0512    0.2359    0.4369 C   0  0  0  0  0  0  0  0  0  0  0  0
   -3.2537    1.7345   -0.4064 C   0  0  0  0  0  0  0  0  0  0  0  0
   -2.5376    0.6210   -1.1633 C   0  0  0  0  0  0  0  0  0  0  0  0
    2.5229   -0.8777   -1.0959 C   0  0  0  0  0  0  0  0  0  0  0  0
    1.2446   -1.5072   -0.5586 C   0  0  0  0  0  0  0  0  0  0  0  0
   -4.3353   -0.0141    1.0226 C   0  0  0  0  0  0  0  0  0  0  0  0
   -1.0834   -1.9895    0.8733 O   0  0  0  0  0  0  0  0  0  0  0  0
   -0.0565   -0.1555   -1.5490 H   0  0  0  0  0  0  0  0  0  0  0  0
   -0.1741    1.5459    0.2497 H   0  0  0  0  0  0  0  0  0  0  0  0
    0.7038    0.4784    1.3357 H   0  0  0  0  0  0  0  0  0  0  0  0
    1.7355    1.6533   -1.2877 H   0  0  0  0  0  0  0  0  0  0  0  0
    2.2026    2.1561    0.3190 H   0  0  0  0  0  0  0  0  0  0  0  0
   -4.2025   -1.3974   -0.6239 H   0  0  0  0  0  0  0  0  0  0  0  0
   -3.3757   -1.9464    0.8281 H   0  0  0  0  0  0  0  0  0  0  0  0
   -5.0369    2.0196    0.7840 H   0  0  0  0  0  0  0  0  0  0  0  0
   -5.2664    1.0071   -0.6275 H   0  0  0  0  0  0  0  0  0  0  0  0
    3.7354    2.2445    1.3470 H   0  0  0  0  0  0  0  0  0  0  0  0
    4.5164    1.0297    2.3467 H   0  0  0  0  0  0  0  0  0  0  0  0
    5.3967    1.7683    1.0236 H   0  0  0  0  0  0  0  0  0  0  0  0
   -3.4243    2.5704   -1.0879 H   0  0  0  0  0  0  0  0  0  0  0  0
   -2.6029    2.1017    0.3940 H   0  0  0  0  0  0  0  0  0  0  0  0
   -1.5951    0.9847   -1.5608 H   0  0  0  0  0  0  0  0  0  0  0  0
   -3.1424    0.3156   -2.0244 H   0  0  0  0  0  0  0  0  0  0  0  0
    2.3723   -0.5374   -2.1260 H   0  0  0  0  0  0  0  0  0  0  0  0
    3.3306   -1.6027   -1.1087 H   0  0  0  0  0  0  0  0  0  0  0  0
    1.4342   -1.9078    0.4389 H   0  0  0  0  0  0  0  0  0  0  0  0
    0.9658   -2.3475   -1.1984 H   0  0  0  0  0  0  0  0  0  0  0  0
   -5.2841   -0.4322    1.3653 H   0  0  0  0  0  0  0  0  0  0  0  0
   -3.7561    0.2382    1.9159 H   0  0  0  0  0  0  0  0  0  0  0  0
 11  9  1  0
 11 10  2  0
  8 11  1  0
 14  8  1  0
 15 14  1  0
  2 15  1  0
  2  3  1  0
  3  4  1  0
  4  8  1  0
  5  2  1  0
 17  5  2  0
  5  1  1  0
  1  6  1  0
 16  6  1  0
  7 16  1  0
 12  7  1  0
 13 12  1  0
  1 13  1  0
  2 18  1  6
  3 19  1  0
  3 20  1  0
  4 21  1  0
  4 22  1  0
  6 23  1  0
  6 24  1  0
  7 25  1  0
  7 26  1  0
  9 27  1  0
  9 28  1  0
  9 29  1  0
 12 30  1  0
 12 31  1  0
 13 32  1  0
 13 33  1  0
 14 34  1  0
 14 35  1  0
 15 36  1  0
 15 37  1  0
 16 38  1  0
 16 39  1  0
M  END
