
     RDKit          3D

 66 70  0  0  0  0  0  0  0  0999 V2000
    4.6490    1.8562   -7.6746 C   0  0  0  0  0  0  0  0  0  0  0  0
    4.1233    0.2749   -7.0561 S   0  0  1  0  0  0  0  0  0  0  0  0
    4.2111   -0.7073   -8.1387 O   0  0  0  0  0  0  0  0  0  0  0  0
    4.8556   -0.0079   -5.8202 O   0  0  0  0  0  0  0  0  0  0  0  0
    2.3948    0.5172   -6.6592 C   0  0  0  0  0  0  0  0  0  0  0  0
    1.7668   -0.7895   -6.1893 C   0  0  0  0  0  0  0  0  0  0  0  0
    0.3643   -0.5585   -5.9053 N   0  0  0  0  0  0  0  0  0  0  0  0
   -0.3463   -1.8016   -5.6339 C   0  0  0  0  0  0  0  0  0  0  0  0
   -1.7965   -1.5663   -5.4239 C   0  0  0  0  0  0  0  0  0  0  0  0
   -2.8779   -1.6976   -6.2321 C   0  0  0  0  0  0  0  0  0  0  0  0
   -4.0047   -1.2750   -5.4739 C   0  0  0  0  0  0  0  0  0  0  0  0
   -3.5286   -0.9127   -4.2500 C   0  0  0  0  0  0  0  0  0  0  0  0
   -2.1894   -1.0904   -4.2207 O   0  0  0  0  0  0  0  0  0  0  0  0
   -4.1767   -0.4250   -3.0476 C   0  0  0  0  0  0  0  0  0  0  0  0
   -5.5538   -0.1044   -3.0857 C   0  0  0  0  0  0  0  0  0  0  0  0
   -6.2068    0.3395   -1.9721 C   0  0  0  0  0  0  0  0  0  0  0  0
   -5.5214    0.4944   -0.7491 C   0  0  0  0  0  0  0  0  0  0  0  0
   -6.2067    0.9264    0.3407 N   0  0  0  0  0  0  0  0  0  0  0  0
   -5.5166    1.0348    1.4389 C   0  0  0  0  0  0  0  0  0  0  0  0
   -4.2144    0.7775    1.6179 N   0  0  0  0  0  0  0  0  0  0  0  0
   -3.5181    0.3664    0.5809 C   0  0  0  0  0  0  0  0  0  0  0  0
   -2.2007    0.1104    0.7253 N   0  0  0  0  0  0  0  0  0  0  0  0
   -1.4191    0.1964    1.8859 C   0  0  0  0  0  0  0  0  0  0  0  0
   -1.8892   -0.0785    3.1647 C   0  0  0  0  0  0  0  0  0  0  0  0
   -1.0337   -0.0156    4.2555 C   0  0  0  0  0  0  0  0  0  0  0  0
    0.3101    0.3082    4.1054 C   0  0  0  0  0  0  0  0  0  0  0  0
    1.2045    0.3880    5.1021 O   0  0  0  0  0  0  0  0  0  0  0  0
    0.7755    0.0604    6.4178 C   0  0  0  0  0  0  0  0  0  0  0  0
    1.9643    0.1942    7.3203 C   0  0  0  0  0  0  0  0  0  0  0  0
    2.0770    1.2711    8.1914 C   0  0  0  0  0  0  0  0  0  0  0  0
    3.1884    1.3924    9.0160 C   0  0  0  0  0  0  0  0  0  0  0  0
    4.2007    0.4454    8.9775 C   0  0  0  0  0  0  0  0  0  0  0  0
    4.0692   -0.6163    8.1011 C   0  0  0  0  0  0  0  0  0  0  0  0
    5.0398   -1.5431    8.0576 F   0  0  0  0  0  0  0  0  0  0  0  0
    2.9758   -0.7618    7.2729 C   0  0  0  0  0  0  0  0  0  0  0  0
    0.7716    0.5699    2.8129 C   0  0  0  0  0  0  0  0  0  0  0  0
    2.4369    0.9698    2.5849 Cl  0  0  0  0  0  0  0  0  0  0  0  0
   -0.0732    0.5244    1.7229 C   0  0  0  0  0  0  0  0  0  0  0  0
   -4.1468    0.1874   -0.7038 C   0  0  0  0  0  0  0  0  0  0  0  0
   -3.4923   -0.2734   -1.8583 C   0  0  0  0  0  0  0  0  0  0  0  0
    5.6997    1.7612   -7.9457 H   0  0  0  0  0  0  0  0  0  0  0  0
    4.0608    2.1203   -8.5502 H   0  0  0  0  0  0  0  0  0  0  0  0
    4.5316    2.6056   -6.8956 H   0  0  0  0  0  0  0  0  0  0  0  0
    2.3483    1.2895   -5.8890 H   0  0  0  0  0  0  0  0  0  0  0  0
    1.8992    0.8831   -7.5597 H   0  0  0  0  0  0  0  0  0  0  0  0
    1.8371   -1.5278   -6.9906 H   0  0  0  0  0  0  0  0  0  0  0  0
    2.3227   -1.1894   -5.3307 H   0  0  0  0  0  0  0  0  0  0  0  0
    0.2894    0.0491   -5.0973 H   0  0  0  0  0  0  0  0  0  0  0  0
   -0.2424   -2.4510   -6.5053 H   0  0  0  0  0  0  0  0  0  0  0  0
    0.0704   -2.3554   -4.7796 H   0  0  0  0  0  0  0  0  0  0  0  0
   -2.8712   -2.0561   -7.2488 H   0  0  0  0  0  0  0  0  0  0  0  0
   -5.0322   -1.2583   -5.8001 H   0  0  0  0  0  0  0  0  0  0  0  0
   -6.1044   -0.2090   -4.0114 H   0  0  0  0  0  0  0  0  0  0  0  0
   -7.2612    0.5794   -2.0090 H   0  0  0  0  0  0  0  0  0  0  0  0
   -6.0465    1.3750    2.3227 H   0  0  0  0  0  0  0  0  0  0  0  0
   -1.6760   -0.0644   -0.1160 H   0  0  0  0  0  0  0  0  0  0  0  0
   -2.9205   -0.3436    3.3305 H   0  0  0  0  0  0  0  0  0  0  0  0
   -1.4428   -0.2354    5.2320 H   0  0  0  0  0  0  0  0  0  0  0  0
   -0.0251    0.7333    6.7405 H   0  0  0  0  0  0  0  0  0  0  0  0
    0.3858   -0.9626    6.4427 H   0  0  0  0  0  0  0  0  0  0  0  0
    1.2945    2.0181    8.2302 H   0  0  0  0  0  0  0  0  0  0  0  0
    3.2696    2.2315    9.6936 H   0  0  0  0  0  0  0  0  0  0  0  0
    5.0712    0.5269    9.6148 H   0  0  0  0  0  0  0  0  0  0  0  0
    2.9099   -1.6131    6.6064 H   0  0  0  0  0  0  0  0  0  0  0  0
    0.3177    0.7445    0.7373 H   0  0  0  0  0  0  0  0  0  0  0  0
   -2.4415   -0.5293   -1.8274 H   0  0  0  0  0  0  0  0  0  0  0  0
  2  1  1  6
  1 41  1  0
  1 42  1  0
  1 43  1  0
  2  3  2  0
  2  4  2  0
  2  5  1  0
  5  6  1  0
  5 44  1  0
  5 45  1  0
  6  7  1  0
  6 46  1  0
  6 47  1  0
  7  8  1  0
  7 48  1  0
  8  9  1  0
  8 49  1  0
  8 50  1  0
  9 10  2  0
  9 13  1  0
 10 11  1  0
 10 51  1  0
 11 12  2  0
 11 52  1  0
 12 13  1  0
 12 14  1  0
 14 15  2  0
 14 40  1  0
 15 16  1  0
 15 53  1  0
 16 17  2  0
 16 54  1  0
 17 18  1  0
 17 39  1  0
 18 19  2  0
 19 20  1  0
 19 55  1  0
 20 21  2  0
 21 22  1  0
 21 39  1  0
 22 23  1  0
 22 56  1  0
 23 24  2  0
 23 38  1  0
 24 25  1  0
 24 57  1  0
 25 26  2  0
 25 58  1  0
 26 27  1  0
 26 36  1  0
 27 28  1  0
 28 29  1  0
 28 59  1  0
 28 60  1  0
 29 30  2  0
 29 35  1  0
 30 31  1  0
 30 61  1  0
 31 32  2  0
 31 62  1  0
 32 33  1  0
 32 63  1  0
 33 34  1  0
 33 35  2  0
 35 64  1  0
 36 37  1  0
 36 38  2  0
 38 65  1  0
 39 40  2  0
 40 66  1  0
M  END
