
     RDKit          3D

 67 71  0  0  0  0  0  0  0  0999 V2000
   -0.0375    0.7502   -6.5628 C   0  0  0  0  0  0  0  0  0  0  0  0
    1.1043    0.5333   -7.3119 C   0  0  0  0  0  0  0  0  0  0  0  0
    2.2995    0.2005   -6.6990 C   0  0  0  0  0  0  0  0  0  0  0  0
    2.3830    0.0950   -5.3084 C   0  0  0  0  0  0  0  0  0  0  0  0
    1.2782    0.3042   -3.0428 C   0  0  0  0  0  0  0  0  0  0  0  0
   -0.0561   -0.2013   -0.9836 C   0  0  0  0  0  0  0  0  0  0  0  0
   -1.3309   -0.7299    1.1457 C   0  0  1  0  0  0  0  0  0  0  0  0
   -2.6469   -0.4218    1.8439 C   0  0  0  0  0  0  0  0  0  0  0  0
   -3.8481   -0.8068    0.9877 C   0  0  1  0  0  0  0  0  0  0  0  0
   -3.8184    0.0260   -0.2850 C   0  0  0  0  0  0  0  0  0  0  0  0
   -2.4269    0.4732   -2.2980 C   0  0  0  0  0  0  0  0  0  0  0  0
   -1.2149    0.8186   -4.4070 C   0  0  0  0  0  0  0  0  0  0  0  0
   -3.7969   -2.3122    0.6799 C   0  0  0  0  0  0  0  0  0  0  0  0
   -4.2139   -3.2455    1.7815 C   0  0  0  0  0  0  0  0  0  0  0  0
    0.0289    0.6333   -5.1804 C   0  0  0  0  0  0  0  0  0  0  0  0
    1.2295    0.3256   -4.5279 C   0  0  0  0  0  0  0  0  0  0  0  0
   -0.0111    0.1675   -2.3231 C   0  0  0  0  0  0  0  0  0  0  0  0
   -1.2151    0.4879   -2.9876 C   0  0  0  0  0  0  0  0  0  0  0  0
   -2.4718    0.0711   -0.9470 C   0  0  0  0  0  0  0  0  0  0  0  0
   -1.2976   -0.2479   -0.2941 C   0  0  0  0  0  0  0  0  0  0  0  0
    4.6653   -0.5425   -5.4507 C   0  0  0  0  0  0  0  0  0  0  0  0
    3.5116   -0.2418   -4.6845 O   0  0  0  0  0  0  0  0  0  0  0  0
    2.3288    0.4290   -2.4493 O   0  0  0  0  0  0  0  0  0  0  0  0
    1.0716   -0.5641   -0.3645 O   0  0  0  0  0  0  0  0  0  0  0  0
   -0.2313   -0.1211    1.8322 O   0  0  0  0  0  0  0  0  0  0  0  0
   -4.9896   -0.5253    1.7608 O   0  0  0  0  0  0  0  0  0  0  0  0
   -3.5809    0.8178   -2.8631 O   0  0  0  0  0  0  0  0  0  0  0  0
   -2.2393    1.1984   -4.9740 O   0  0  0  0  0  0  0  0  0  0  0  0
   -3.4409   -2.7111   -0.4041 O   0  0  0  0  0  0  0  0  0  0  0  0
    0.0716   -0.6193    3.1213 C   0  0  1  0  0  0  0  0  0  0  0  0
    1.5662   -0.3655    3.3329 C   0  0  1  0  0  0  0  0  0  0  0  0
    1.8544    1.1220    3.4782 C   0  0  1  0  0  0  0  0  0  0  0  0
    0.9400    1.7423    4.5306 C   0  0  2  0  0  0  0  0  0  0  0  0
   -0.5259    1.3896    4.2530 C   0  0  2  0  0  0  0  0  0  0  0  0
   -1.4500    1.8227    5.3706 C   0  0  0  0  0  0  0  0  0  0  0  0
   -0.6861   -0.0223    4.1088 O   0  0  0  0  0  0  0  0  0  0  0  0
    1.1194    3.1404    4.4771 O   0  0  0  0  0  0  0  0  0  0  0  0
    3.2425    1.3664    3.7996 N   0  0  0  0  0  0  0  0  0  0  0  0
    2.1306   -1.3779    4.9204 Br  0  0  0  0  0  0  0  0  0  0  0  0
   -0.9702    1.0001   -7.0472 H   0  0  0  0  0  0  0  0  0  0  0  0
    1.0693    0.6152   -8.3897 H   0  0  0  0  0  0  0  0  0  0  0  0
    3.1671    0.0253   -7.3189 H   0  0  0  0  0  0  0  0  0  0  0  0
   -1.1621   -1.8173    1.1401 H   0  0  0  0  0  0  0  0  0  0  0  0
   -2.7118    0.6525    2.0397 H   0  0  0  0  0  0  0  0  0  0  0  0
   -2.6909   -0.9346    2.8050 H   0  0  0  0  0  0  0  0  0  0  0  0
   -4.1151    1.0464   -0.0214 H   0  0  0  0  0  0  0  0  0  0  0  0
   -4.5669   -0.3377   -0.9917 H   0  0  0  0  0  0  0  0  0  0  0  0
   -3.8281   -4.2456    1.5958 H   0  0  0  0  0  0  0  0  0  0  0  0
   -3.8889   -2.9047    2.7633 H   0  0  0  0  0  0  0  0  0  0  0  0
   -5.3040   -3.3022    1.8137 H   0  0  0  0  0  0  0  0  0  0  0  0
    5.4358   -0.8208   -4.7367 H   0  0  0  0  0  0  0  0  0  0  0  0
    4.4947   -1.3786   -6.1327 H   0  0  0  0  0  0  0  0  0  0  0  0
    5.0101    0.3214   -6.0234 H   0  0  0  0  0  0  0  0  0  0  0  0
    0.9159   -0.5110    0.5940 H   0  0  0  0  0  0  0  0  0  0  0  0
   -5.7779   -0.6455    1.2188 H   0  0  0  0  0  0  0  0  0  0  0  0
   -3.3871    1.0793   -3.7940 H   0  0  0  0  0  0  0  0  0  0  0  0
   -0.1503   -1.6918    3.1604 H   0  0  0  0  0  0  0  0  0  0  0  0
    2.1458   -0.7965    2.5137 H   0  0  0  0  0  0  0  0  0  0  0  0
    1.5672    1.5552    2.5048 H   0  0  0  0  0  0  0  0  0  0  0  0
    1.2238    1.3527    5.5167 H   0  0  0  0  0  0  0  0  0  0  0  0
   -0.8286    1.8935    3.3259 H   0  0  0  0  0  0  0  0  0  0  0  0
   -2.4803    1.5404    5.1536 H   0  0  0  0  0  0  0  0  0  0  0  0
   -1.1606    1.3727    6.3220 H   0  0  0  0  0  0  0  0  0  0  0  0
   -1.4279    2.9057    5.4851 H   0  0  0  0  0  0  0  0  0  0  0  0
    0.9583    3.5096    5.3493 H   0  0  0  0  0  0  0  0  0  0  0  0
    3.8324    1.0244    3.0504 H   0  0  0  0  0  0  0  0  0  0  0  0
    3.3958    2.3662    3.8357 H   0  0  0  0  0  0  0  0  0  0  0  0
  1  2  2  0
  1 15  1  0
  1 40  1  0
  2  3  1  0
  2 41  1  0
  3  4  2  0
  3 42  1  0
  4 16  1  0
  4 22  1  0
  5 16  1  0
  5 17  1  0
  5 23  2  0
  6 17  2  0
  6 20  1  0
  6 24  1  0
  7  8  1  0
  7 20  1  0
  7 25  1  0
  7 43  1  6
  8  9  1  0
  8 44  1  0
  8 45  1  0
  9 10  1  0
  9 13  1  0
  9 26  1  1
 10 19  1  0
 10 46  1  0
 10 47  1  0
 11 18  2  0
 11 19  1  0
 11 27  1  0
 12 15  1  0
 12 18  1  0
 12 28  2  0
 13 14  1  0
 13 29  2  0
 14 48  1  0
 14 49  1  0
 14 50  1  0
 15 16  2  0
 17 18  1  0
 19 20  2  0
 21 22  1  0
 21 51  1  0
 21 52  1  0
 21 53  1  0
 24 54  1  0
 25 30  1  0
 26 55  1  0
 27 56  1  0
 30 31  1  0
 30 36  1  0
 30 57  1  6
 31 32  1  0
 31 39  1  0
 31 58  1  6
 32 33  1  0
 32 38  1  0
 32 59  1  6
 33 34  1  0
 33 37  1  0
 33 60  1  1
 34 35  1  0
 34 36  1  0
 34 61  1  6
 35 62  1  0
 35 63  1  0
 35 64  1  0
 37 65  1  0
 38 66  1  0
 38 67  1  0
M  END
