
     RDKit          3D

 46 46  0  0  0  0  0  0  0  0999 V2000
    1.6957    2.3111    0.7416 C   0  0  1  0  0  0  0  0  0  0  0  0
    2.8594    2.5642   -0.2099 C   0  0  0  0  0  0  0  0  0  0  0  0
    1.6603    0.8979    1.3336 C   0  0  0  0  0  0  0  0  0  0  0  0
    1.3907   -0.3129    0.4142 C   0  0  2  0  0  0  0  0  0  0  0  0
    2.5584   -0.8108   -0.4415 C   0  0  1  0  0  0  0  0  0  0  0  0
    3.7571   -1.1366    0.4450 C   0  0  0  0  0  0  0  0  0  0  0  0
   -3.4050   -0.7169   -0.0327 C   0  0  0  0  0  0  0  0  0  0  0  0
   -3.6767   -0.3584    1.2859 C   0  0  0  0  0  0  0  0  0  0  0  0
   -4.7898   -0.8737    1.9338 C   0  0  0  0  0  0  0  0  0  0  0  0
   -5.3832   -2.0939   -0.0487 C   0  0  0  0  0  0  0  0  0  0  0  0
   -2.4125    1.3394   -0.9448 C   0  0  0  0  0  0  0  0  0  0  0  0
   -3.1273    1.5716   -2.0337 O   0  0  0  0  0  0  0  0  0  0  0  0
   -2.0362    2.1887   -0.1818 O   0  0  0  0  0  0  0  0  0  0  0  0
   -2.1960   -0.1577   -0.7475 C   0  0  1  0  0  0  0  0  0  0  0  0
   -4.2657   -1.5834   -0.6957 C   0  0  0  0  0  0  0  0  0  0  0  0
   -5.6457   -1.7421    1.2680 C   0  0  0  0  0  0  0  0  0  0  0  0
   -0.9936   -0.4014    0.0022 N   0  0  0  0  0  0  0  0  0  0  0  0
    0.2036   -0.0402   -0.4902 C   0  0  0  0  0  0  0  0  0  0  0  0
    0.3082    0.5009   -1.5807 O   0  0  0  0  0  0  0  0  0  0  0  0
    1.7359    3.3172    1.8898 C   0  0  0  0  0  0  0  0  0  0  0  0
    2.1981   -1.9667   -1.1560 O   0  0  0  0  0  0  0  0  0  0  0  0
    3.7080   -2.0266    1.2776 O   0  0  0  0  0  0  0  0  0  0  0  0
    4.8428   -0.3956    0.1979 N   0  0  0  0  0  0  0  0  0  0  0  0
    5.9537   -0.5097    0.9720 O   0  0  0  0  0  0  0  0  0  0  0  0
    0.7642    2.4814    0.1951 H   0  0  0  0  0  0  0  0  0  0  0  0
    2.8663    3.6041   -0.5404 H   0  0  0  0  0  0  0  0  0  0  0  0
    3.8182    2.3744    0.2794 H   0  0  0  0  0  0  0  0  0  0  0  0
    2.8034    1.9478   -1.1073 H   0  0  0  0  0  0  0  0  0  0  0  0
    2.5873    0.7200    1.8893 H   0  0  0  0  0  0  0  0  0  0  0  0
    0.8725    0.8824    2.0923 H   0  0  0  0  0  0  0  0  0  0  0  0
    1.1382   -1.1389    1.0895 H   0  0  0  0  0  0  0  0  0  0  0  0
    2.8183   -0.0659   -1.1938 H   0  0  0  0  0  0  0  0  0  0  0  0
   -3.0225    0.3253    1.8140 H   0  0  0  0  0  0  0  0  0  0  0  0
   -4.9904   -0.5932    2.9593 H   0  0  0  0  0  0  0  0  0  0  0  0
   -6.0448   -2.7701   -0.5740 H   0  0  0  0  0  0  0  0  0  0  0  0
   -3.3185    2.5185   -2.1143 H   0  0  0  0  0  0  0  0  0  0  0  0
   -2.1215   -0.6256   -1.7333 H   0  0  0  0  0  0  0  0  0  0  0  0
   -4.0595   -1.8661   -1.7206 H   0  0  0  0  0  0  0  0  0  0  0  0
   -6.5132   -2.1438    1.7750 H   0  0  0  0  0  0  0  0  0  0  0  0
   -1.0539   -0.8848    0.8841 H   0  0  0  0  0  0  0  0  0  0  0  0
    2.6389    3.1956    2.4933 H   0  0  0  0  0  0  0  0  0  0  0  0
    1.7264    4.3412    1.5131 H   0  0  0  0  0  0  0  0  0  0  0  0
    0.8775    3.1993    2.5533 H   0  0  0  0  0  0  0  0  0  0  0  0
    2.0065   -2.6698   -0.5237 H   0  0  0  0  0  0  0  0  0  0  0  0
    4.8605    0.3532   -0.4792 H   0  0  0  0  0  0  0  0  0  0  0  0
    6.5237   -1.1584    0.5374 H   0  0  0  0  0  0  0  0  0  0  0  0
  9 16  2  0
  9  8  1  0
 16 10  1  0
 22  6  2  0
  8  7  2  0
 10 15  2  0
  2  1  1  0
 24 23  1  0
  7 15  1  0
  7 14  1  0
  6 23  1  0
  6  5  1  0
 21  5  1  0
  1 20  1  0
  1  3  1  0
 17 14  1  0
 17 18  1  0
  4  5  1  0
  4  3  1  0
  4 18  1  0
 14 11  1  0
 18 19  2  0
 13 11  2  0
 11 12  1  0
  1 25  1  6
  2 26  1  0
  2 27  1  0
  2 28  1  0
  3 29  1  0
  3 30  1  0
  4 31  1  1
  5 32  1  6
  8 33  1  0
  9 34  1  0
 10 35  1  0
 12 36  1  0
 14 37  1  6
 15 38  1  0
 16 39  1  0
 17 40  1  0
 20 41  1  0
 20 42  1  0
 20 43  1  0
 21 44  1  0
 23 45  1  0
 24 46  1  0
M  END
