
     RDKit          3D

 24 24  0  0  0  0  0  0  0  0999 V2000
   -1.2892   -0.6739   -0.5264 C   0  0  2  0  0  0  0  0  0  0  0  0
   -1.3130   -0.2328   -1.9043 N   0  0  0  0  0  0  0  0  0  0  0  0
   -2.4182   -0.0609    0.2824 C   0  0  0  0  0  0  0  0  0  0  0  0
    0.0391   -0.4296    0.2643 C   0  0  1  0  0  0  0  0  0  0  0  0
    0.9309   -1.6725    0.1397 C   0  0  0  0  0  0  0  0  0  0  0  0
    2.3108   -1.3948    0.7344 C   0  0  0  0  0  0  0  0  0  0  0  0
    2.8397   -0.1127    0.3242 N   0  0  0  0  0  0  0  0  0  0  0  0
    1.9545    0.9372   -0.0892 C   0  0  0  0  0  0  0  0  0  0  0  0
    0.6415    0.8199   -0.1290 N   0  0  0  0  0  0  0  0  0  0  0  0
    2.5717    2.1689   -0.4762 N   0  0  0  0  0  0  0  0  0  0  0  0
   -2.8333    1.0988    0.3056 O   0  0  0  0  0  0  0  0  0  0  0  0
   -1.4538   -1.7948   -0.5353 H   0  0  0  0  0  0  0  0  0  0  0  0
   -1.4639    0.7581   -1.9623 H   0  0  0  0  0  0  0  0  0  0  0  0
   -0.4461   -0.4561   -2.3544 H   0  0  0  0  0  0  0  0  0  0  0  0
   -3.0456   -0.9587    1.0953 O   0  0  0  0  0  0  0  0  0  0  0  0
   -0.2588   -0.3291    1.3549 H   0  0  0  0  0  0  0  0  0  0  0  0
    0.4639   -2.5277    0.6899 H   0  0  0  0  0  0  0  0  0  0  0  0
    1.0388   -1.9768   -0.9328 H   0  0  0  0  0  0  0  0  0  0  0  0
    2.2431   -1.4722    1.8597 H   0  0  0  0  0  0  0  0  0  0  0  0
    3.0370   -2.1800    0.3792 H   0  0  0  0  0  0  0  0  0  0  0  0
    3.8297    0.0283    0.3364 H   0  0  0  0  0  0  0  0  0  0  0  0
    3.5656    2.2658   -0.4493 H   0  0  0  0  0  0  0  0  0  0  0  0
    2.0122    2.9428   -0.7762 H   0  0  0  0  0  0  0  0  0  0  0  0
   -3.7545   -0.5104    1.5845 H   0  0  0  0  0  0  0  0  0  0  0  0
  1  2  1  0
  1  3  1  0
  1 12  1  6
  2 13  1  0
  2 14  1  0
  3 11  2  0
  3 15  1  0
  4  1  1  0
  4  9  1  0
  4 16  1  1
  5  4  1  0
  5 17  1  0
  5 18  1  0
  6  5  1  0
  6  7  1  0
  6 19  1  0
  6 20  1  0
  7  8  1  0
  7 21  1  0
  8 10  1  0
  8  9  2  0
 10 22  1  0
 10 23  1  0
 15 24  1  0
M  END
