
     RDKit          3D

 37 40  0  0  0  0  0  0  0  0999 V2000
    7.7038   -1.0359   -0.6047 C   0  0  0  0  0  0  0  0  0  0  0  0
   -2.8064    0.6056   -0.0812 C   0  0  0  0  0  0  0  0  0  0  0  0
   -3.9305   -0.2820   -0.0743 C   0  0  0  0  0  0  0  0  0  0  0  0
   -5.2168    0.2518   -0.2887 C   0  0  0  0  0  0  0  0  0  0  0  0
   -4.3959    2.3492   -0.5013 C   0  0  0  0  0  0  0  0  0  0  0  0
   -3.0652    1.9407   -0.3002 C   0  0  0  0  0  0  0  0  0  0  0  0
   -6.2982   -0.6559   -0.2738 C   0  0  0  0  0  0  0  0  0  0  0  0
   -6.0552   -1.9833   -0.0566 C   0  0  0  0  0  0  0  0  0  0  0  0
   -4.7278   -2.4083    0.1459 C   0  0  0  0  0  0  0  0  0  0  0  0
    6.3812   -0.5152   -0.2029 C   0  0  0  0  0  0  0  0  0  0  0  0
    4.7315    0.5778    0.5460 C   0  0  0  0  0  0  0  0  0  0  0  0
    4.2347   -0.5666   -0.0615 C   0  0  0  0  0  0  0  0  0  0  0  0
    2.8953   -0.8760   -0.1500 C   0  0  0  0  0  0  0  0  0  0  0  0
    2.0171    0.0332    0.4383 C   0  0  0  0  0  0  0  0  0  0  0  0
    2.4959    1.1879    1.0799 C   0  0  0  0  0  0  0  0  0  0  0  0
    3.8499    1.4762    1.1310 C   0  0  0  0  0  0  0  0  0  0  0  0
   -0.3552    0.6159    0.1827 C   0  0  0  0  0  0  0  0  0  0  0  0
    6.1118    0.5686    0.4317 N   0  0  0  0  0  0  0  0  0  0  0  0
    0.6499   -0.2798    0.4095 N   0  0  0  0  0  0  0  0  0  0  0  0
   -1.5900    0.0119    0.1342 N   0  0  0  0  0  0  0  0  0  0  0  0
   -5.4445    1.5676   -0.5020 N   0  0  0  0  0  0  0  0  0  0  0  0
   -3.7063   -1.5923    0.1378 N   0  0  0  0  0  0  0  0  0  0  0  0
    5.2953   -1.2608   -0.5375 O   0  0  0  0  0  0  0  0  0  0  0  0
   -0.1841    1.8112    0.0465 O   0  0  0  0  0  0  0  0  0  0  0  0
    7.7606   -1.1612   -1.6866 H   0  0  0  0  0  0  0  0  0  0  0  0
    8.4794   -0.3427   -0.2917 H   0  0  0  0  0  0  0  0  0  0  0  0
    7.8960   -2.0075   -0.1482 H   0  0  0  0  0  0  0  0  0  0  0  0
   -4.5808    3.4048   -0.6713 H   0  0  0  0  0  0  0  0  0  0  0  0
   -2.2860    2.6826   -0.3216 H   0  0  0  0  0  0  0  0  0  0  0  0
   -7.3006   -0.2805   -0.4359 H   0  0  0  0  0  0  0  0  0  0  0  0
   -6.8579   -2.7070   -0.0382 H   0  0  0  0  0  0  0  0  0  0  0  0
   -4.5166   -3.4575    0.3180 H   0  0  0  0  0  0  0  0  0  0  0  0
    2.5401   -1.7695   -0.6468 H   0  0  0  0  0  0  0  0  0  0  0  0
    1.8026    1.8622    1.5589 H   0  0  0  0  0  0  0  0  0  0  0  0
    4.2028    2.3712    1.6253 H   0  0  0  0  0  0  0  0  0  0  0  0
    0.4311   -1.2626    0.3470 H   0  0  0  0  0  0  0  0  0  0  0  0
   -1.6587   -0.9903    0.2728 H   0  0  0  0  0  0  0  0  0  0  0  0
 16 15  1  0
 16 11  2  0
 18 11  1  0
 18 10  2  0
 15 14  2  0
 11 12  1  0
 24 17  2  0
  5  6  2  0
  5 21  1  0
  6  2  1  0
 10  1  1  0
 10 23  1  0
 14 19  1  0
 14 13  1  0
 17 19  1  0
 17 20  1  0
 12 23  1  0
 12 13  2  0
 21  4  2  0
  2 20  1  0
  2  3  2  0
  4  3  1  0
  4  7  1  0
  3 22  1  0
  7  8  2  0
 22  9  2  0
  8  9  1  0
  1 25  1  0
  1 26  1  0
  1 27  1  0
  5 28  1  0
  6 29  1  0
  7 30  1  0
  8 31  1  0
  9 32  1  0
 13 33  1  0
 15 34  1  0
 16 35  1  0
 19 36  1  0
 20 37  1  0
M  END
