
     RDKit          3D

 36 37  0  0  0  0  0  0  0  0999 V2000
   -1.3515    0.4359    0.4006 C   0  0  2  0  0  0  0  0  0  0  0  0
   -1.1481    1.8475    1.0288 C   0  0  0  0  0  0  0  0  0  0  0  0
   -3.5011    1.2743    1.0377 C   0  0  0  0  0  0  0  0  0  0  0  0
   -5.3835   -0.3969   -1.0710 O   0  0  0  0  0  0  0  0  0  0  0  0
    2.8821   -0.1588    1.1562 C   0  0  0  0  0  0  0  0  0  0  0  0
    3.8016   -0.1257    0.1126 C   0  0  0  0  0  0  0  0  0  0  0  0
    3.3474    0.0117   -1.1985 C   0  0  0  0  0  0  0  0  0  0  0  0
    1.9921    0.1094   -1.4554 C   0  0  0  0  0  0  0  0  0  0  0  0
    1.0661    0.0850   -0.4127 C   0  0  0  0  0  0  0  0  0  0  0  0
    1.5273   -0.0483    0.8956 C   0  0  0  0  0  0  0  0  0  0  0  0
   -0.3919    0.1951   -0.7370 C   0  0  0  0  0  0  0  0  0  0  0  0
   -3.3423   -1.0795    0.0160 C   0  0  0  0  0  0  0  0  0  0  0  0
   -4.7615   -1.2287   -0.4580 C   0  0  0  0  0  0  0  0  0  0  0  0
   -2.8346    0.3531    0.0170 C   0  0  2  0  0  0  0  0  0  0  0  0
   -2.5528    2.4655    1.0948 C   0  0  0  0  0  0  0  0  0  0  0  0
   -5.2624   -2.4207   -0.1464 O   0  0  0  0  0  0  0  0  0  0  0  0
   -0.7573    0.1203   -1.8900 O   0  0  0  0  0  0  0  0  0  0  0  0
    6.0290   -0.1572   -0.6198 O   0  0  0  0  0  0  0  0  0  0  0  0
    5.6630   -0.3884    1.5677 O   0  0  0  0  0  0  0  0  0  0  0  0
   -1.1542   -0.3182    1.1706 H   0  0  0  0  0  0  0  0  0  0  0  0
   -0.7117    1.7536    2.0236 H   0  0  0  0  0  0  0  0  0  0  0  0
   -0.4654    2.4688    0.4467 H   0  0  0  0  0  0  0  0  0  0  0  0
   -4.5183    1.5512    0.7610 H   0  0  0  0  0  0  0  0  0  0  0  0
   -3.5465    0.7763    2.0121 H   0  0  0  0  0  0  0  0  0  0  0  0
    3.2214   -0.2696    2.1768 H   0  0  0  0  0  0  0  0  0  0  0  0
    4.0412    0.0413   -2.0266 H   0  0  0  0  0  0  0  0  0  0  0  0
    1.6521    0.2140   -2.4767 H   0  0  0  0  0  0  0  0  0  0  0  0
    0.8378   -0.0770    1.7278 H   0  0  0  0  0  0  0  0  0  0  0  0
   -3.2456   -1.5186    1.0132 H   0  0  0  0  0  0  0  0  0  0  0  0
   -2.7269   -1.7042   -0.6417 H   0  0  0  0  0  0  0  0  0  0  0  0
   -2.9733    0.7825   -0.9790 H   0  0  0  0  0  0  0  0  0  0  0  0
   -2.6884    3.0834    1.9830 H   0  0  0  0  0  0  0  0  0  0  0  0
   -2.7195    3.1083    0.2273 H   0  0  0  0  0  0  0  0  0  0  0  0
   -6.1638   -2.5014   -0.4929 H   0  0  0  0  0  0  0  0  0  0  0  0
    6.9586   -0.2321   -0.3569 H   0  0  0  0  0  0  0  0  0  0  0  0
    5.2469   -0.2393    0.4447 C   0  0  0  0  0  0  0  0  0  0  0  0
  4 13  2  0
 17 11  2  0
 12 13  1  0
 12 14  1  0
 13 16  1  0
 11  1  1  0
 11  9  1  0
  1 14  1  0
  1  2  1  0
 10  9  1  0
 10  5  2  0
 14  3  1  0
  2 15  1  0
  9  8  2  0
 15  3  1  0
  5  6  1  0
  8  7  1  0
  6  7  2  0
  6 36  1  0
 19 36  2  0
 36 18  1  0
  1 20  1  1
  2 21  1  0
  2 22  1  0
  3 23  1  0
  3 24  1  0
  5 25  1  0
  7 26  1  0
  8 27  1  0
 10 28  1  0
 12 29  1  0
 12 30  1  0
 14 31  1  6
 15 32  1  0
 15 33  1  0
 16 34  1  0
 18 35  1  0
M  END
