
     RDKit          3D

 39 40  0  0  0  0  0  0  0  0999 V2000
    4.1395   -0.7072    0.2295 C   0  0  0  0  0  0  0  0  0  0  0  0
    4.8131    0.4432    0.2073 C   0  0  0  0  0  0  0  0  0  0  0  0
    4.1517    1.7899    0.1561 C   0  0  2  0  0  0  0  0  0  0  0  0
    2.6915    1.7037    0.6036 C   0  0  2  0  0  0  0  0  0  0  0  0
    2.0123    0.5667   -0.1407 C   0  0  1  0  0  0  0  0  0  0  0  0
    2.6386   -0.7687    0.2420 C   0  0  0  0  0  0  0  0  0  0  0  0
    4.9254   -1.9707    0.2710 C   0  0  0  0  0  0  0  0  0  0  0  0
    6.1303   -2.0323    0.2116 O   0  0  0  0  0  0  0  0  0  0  0  0
    4.1505   -3.0399    0.3910 O   0  0  0  0  0  0  0  0  0  0  0  0
    4.1901    2.3058   -1.1580 O   0  0  0  0  0  0  0  0  0  0  0  0
    1.9876    2.8880    0.3547 O   0  0  0  0  0  0  0  0  0  0  0  0
    0.6346    0.5745    0.2339 O   0  0  0  0  0  0  0  0  0  0  0  0
   -0.2680    0.0744   -0.6096 C   0  0  0  0  0  0  0  0  0  0  0  0
   -1.6204    0.1803   -0.0504 C   0  0  0  0  0  0  0  0  0  0  0  0
   -2.6714   -0.3034   -0.7278 C   0  0  0  0  0  0  0  0  0  0  0  0
   -4.0650   -0.2844   -0.3202 C   0  0  0  0  0  0  0  0  0  0  0  0
    0.0121   -0.4008   -1.6867 O   0  0  0  0  0  0  0  0  0  0  0  0
   -5.0225   -0.8588   -1.1628 C   0  0  0  0  0  0  0  0  0  0  0  0
   -6.3644   -0.8743   -0.8345 C   0  0  0  0  0  0  0  0  0  0  0  0
   -6.7877   -0.3050    0.3654 C   0  0  0  0  0  0  0  0  0  0  0  0
   -5.8473    0.2743    1.2213 C   0  0  0  0  0  0  0  0  0  0  0  0
   -4.5103    0.2815    0.8794 C   0  0  0  0  0  0  0  0  0  0  0  0
   -8.0979   -0.3382    0.6487 O   0  0  0  0  0  0  0  0  0  0  0  0
    5.8973    0.4318    0.1942 H   0  0  0  0  0  0  0  0  0  0  0  0
    4.6802    2.4607    0.8479 H   0  0  0  0  0  0  0  0  0  0  0  0
    2.7003    1.4617    1.6776 H   0  0  0  0  0  0  0  0  0  0  0  0
    2.1056    0.7278   -1.2181 H   0  0  0  0  0  0  0  0  0  0  0  0
    2.2820   -1.5425   -0.4393 H   0  0  0  0  0  0  0  0  0  0  0  0
    2.2946   -1.0527    1.2423 H   0  0  0  0  0  0  0  0  0  0  0  0
    4.6920   -3.8432    0.4148 H   0  0  0  0  0  0  0  0  0  0  0  0
    5.1102    2.4414   -1.4061 H   0  0  0  0  0  0  0  0  0  0  0  0
    2.3646    3.5874    0.8980 H   0  0  0  0  0  0  0  0  0  0  0  0
   -1.7242    0.6551    0.9175 H   0  0  0  0  0  0  0  0  0  0  0  0
   -2.4790   -0.7681   -1.6904 H   0  0  0  0  0  0  0  0  0  0  0  0
   -4.7071   -1.3037   -2.0989 H   0  0  0  0  0  0  0  0  0  0  0  0
   -7.0875   -1.3237   -1.5032 H   0  0  0  0  0  0  0  0  0  0  0  0
   -6.1647    0.7202    2.1567 H   0  0  0  0  0  0  0  0  0  0  0  0
   -3.8088    0.7389    1.5652 H   0  0  0  0  0  0  0  0  0  0  0  0
   -8.2755    0.0824    1.4981 H   0  0  0  0  0  0  0  0  0  0  0  0
  8  7  2  0
  2  3  1  0
  2  1  2  0
  7  1  1  0
  7  9  1  0
 10  3  1  0
  3  4  1  0
  1  6  1  0
  4 11  1  0
  4  5  1  0
  6  5  1  0
  5 12  1  0
 12 13  1  0
 17 13  2  0
 13 14  1  0
 14 15  2  0
 15 16  1  0
 16 18  2  0
 16 22  1  0
 18 19  1  0
 22 21  2  0
 19 20  2  0
 21 20  1  0
 20 23  1  0
  2 24  1  0
  3 25  1  1
  4 26  1  1
  5 27  1  6
  6 28  1  0
  6 29  1  0
  9 30  1  0
 10 31  1  0
 11 32  1  0
 14 33  1  0
 15 34  1  0
 18 35  1  0
 19 36  1  0
 21 37  1  0
 22 38  1  0
 23 39  1  0
M  END
