
     RDKit          3D

 40 40  0  0  0  0  0  0  0  0999 V2000
   -0.3802    1.3083    3.9067 C   0  0  0  0  0  0  0  0  0  0  0  0
    0.4605    0.4420    3.0077 C   0  0  2  0  0  0  0  0  0  0  0  0
   -0.4176   -0.0898    1.8645 C   0  0  2  0  0  0  0  0  0  0  0  0
    0.3903   -0.9897    0.9517 C   0  0  0  0  0  0  0  0  0  0  0  0
    1.0341   -0.7024    3.8633 C   0  0  0  0  0  0  0  0  0  0  0  0
    1.9672   -0.2268    4.9682 C   0  0  0  0  0  0  0  0  0  0  0  0
   -0.0942    2.4213    4.2681 O   0  0  0  0  0  0  0  0  0  0  0  0
   -0.1816   -2.1665    0.7456 O   0  0  0  0  0  0  0  0  0  0  0  0
    1.4362   -0.6589    0.4551 O   0  0  0  0  0  0  0  0  0  0  0  0
   -0.9810    1.0550    1.0164 C   0  0  0  0  0  0  0  0  0  0  0  0
   -1.8714    0.5280   -0.0042 N   0  0  0  0  0  0  0  0  0  0  0  0
   -3.0138    0.5795   -2.1924 O   0  0  0  0  0  0  0  0  0  0  0  0
   -1.6357    2.5739   -1.5474 O   0  0  0  0  0  0  0  0  0  0  0  0
   -1.8376    1.1312   -1.5361 S   0  0  1  0  0  0  0  0  0  0  0  0
   -0.3855    0.3729   -2.1912 C   0  0  0  0  0  0  0  0  0  0  0  0
   -0.4131   -0.9903   -2.4589 C   0  0  0  0  0  0  0  0  0  0  0  0
    0.7613    1.1199   -2.4071 C   0  0  0  0  0  0  0  0  0  0  0  0
    0.7275   -1.6036   -2.9426 C   0  0  0  0  0  0  0  0  0  0  0  0
    1.8957    0.4870   -2.8904 C   0  0  0  0  0  0  0  0  0  0  0  0
    1.8987   -0.8778   -3.1639 C   0  0  0  0  0  0  0  0  0  0  0  0
    3.1225   -1.5463   -3.7121 C   0  0  0  0  0  0  0  0  0  0  0  0
   -1.3099    0.8188    4.2566 H   0  0  0  0  0  0  0  0  0  0  0  0
    1.2801    1.0410    2.6006 H   0  0  0  0  0  0  0  0  0  0  0  0
   -1.2533   -0.6546    2.2896 H   0  0  0  0  0  0  0  0  0  0  0  0
    1.5833   -1.3843    3.2106 H   0  0  0  0  0  0  0  0  0  0  0  0
    0.2108   -1.2833    4.2895 H   0  0  0  0  0  0  0  0  0  0  0  0
    2.4113   -1.0793    5.4811 H   0  0  0  0  0  0  0  0  0  0  0  0
    2.7798    0.3785    4.5638 H   0  0  0  0  0  0  0  0  0  0  0  0
    1.4513    0.3712    5.7200 H   0  0  0  0  0  0  0  0  0  0  0  0
    0.3572   -2.6903    0.1328 H   0  0  0  0  0  0  0  0  0  0  0  0
   -1.5107    1.7735    1.6467 H   0  0  0  0  0  0  0  0  0  0  0  0
   -0.1571    1.5989    0.5510 H   0  0  0  0  0  0  0  0  0  0  0  0
   -2.8147    0.3232    0.3056 H   0  0  0  0  0  0  0  0  0  0  0  0
   -1.3084   -1.5749   -2.2930 H   0  0  0  0  0  0  0  0  0  0  0  0
    0.7832    2.1808   -2.1986 H   0  0  0  0  0  0  0  0  0  0  0  0
    0.7079   -2.6663   -3.1509 H   0  0  0  0  0  0  0  0  0  0  0  0
    2.7935    1.0703   -3.0541 H   0  0  0  0  0  0  0  0  0  0  0  0
    3.1778   -1.4160   -4.7949 H   0  0  0  0  0  0  0  0  0  0  0  0
    4.0325   -1.1231   -3.2887 H   0  0  0  0  0  0  0  0  0  0  0  0
    3.1176   -2.6169   -3.5126 H   0  0  0  0  0  0  0  0  0  0  0  0
  1  2  1  0
  1  7  2  0
  1 22  1  0
  2  3  1  0
  2  5  1  0
  2 23  1  6
  3  4  1  0
  3 10  1  0
  3 24  1  1
  4  8  1  0
  4  9  2  0
  5  6  1  0
  5 25  1  0
  5 26  1  0
  6 27  1  0
  6 28  1  0
  6 29  1  0
  8 30  1  0
 10 11  1  0
 10 31  1  0
 10 32  1  0
 14 11  1  1
 11 33  1  0
 12 14  2  0
 13 14  2  0
 14 15  1  0
 15 16  2  0
 15 17  1  0
 16 18  1  0
 16 34  1  0
 17 19  2  0
 17 35  1  0
 18 20  2  0
 18 36  1  0
 19 20  1  0
 19 37  1  0
 20 21  1  0
 21 38  1  0
 21 39  1  0
 21 40  1  0
M  END
