
     RDKit          3D

 51 55  0  0  0  0  0  0  0  0999 V2000
    5.7225    3.7435    2.3165 C   0  0  0  0  0  0  0  0  0  0  0  0
    6.3970    4.4885    1.1769 C   0  0  0  0  0  0  0  0  0  0  0  0
    7.8374    4.0404    0.9858 C   0  0  0  0  0  0  0  0  0  0  0  0
    6.5236    4.3423    8.0594 N   0  0  0  0  0  0  0  0  0  0  0  0
    7.5693    4.8365    7.3915 C   0  0  0  0  0  0  0  0  0  0  0  0
    4.5997    3.0278    4.8326 C   0  0  0  0  0  0  0  0  0  0  0  0
    9.0311    7.4307    4.2423 C   0  0  0  0  0  0  0  0  0  0  0  0
    9.5713    7.5915    5.4940 C   0  0  0  0  0  0  0  0  0  0  0  0
    9.8375    8.8758    6.0168 C   0  0  0  0  0  0  0  0  0  0  0  0
    9.0013    9.8225    3.9368 C   0  0  0  0  0  0  0  0  0  0  0  0
   10.3880    9.0579    7.3080 C   0  0  0  0  0  0  0  0  0  0  0  0
   10.3627   11.4498    6.9945 C   0  0  0  0  0  0  0  0  0  0  0  0
   10.6446   10.3147    7.7844 C   0  0  0  0  0  0  0  0  0  0  0  0
    9.8314   11.3030    5.7418 C   0  0  0  0  0  0  0  0  0  0  0  0
    8.7369    8.5719    3.4553 C   0  0  0  0  0  0  0  0  0  0  0  0
    9.5571   10.0168    5.2228 C   0  0  0  0  0  0  0  0  0  0  0  0
    5.7655    3.8240    7.1034 C   0  0  0  0  0  0  0  0  0  0  0  0
    5.8411    3.6172    4.7084 C   0  0  0  0  0  0  0  0  0  0  0  0
    4.0039    2.8612    6.0969 C   0  0  0  0  0  0  0  0  0  0  0  0
    8.9294    5.6609    2.5568 C   0  0  0  0  0  0  0  0  0  0  0  0
    7.8896    3.4196    3.3930 C   0  0  0  0  0  0  0  0  0  0  0  0
    8.6134    4.1899    2.2956 C   0  0  1  0  0  0  0  0  0  0  0  0
    2.6676    2.1976    6.1833 C   0  0  0  0  0  0  0  0  0  0  0  0
    7.5473    4.6741    6.0851 N   0  0  0  0  0  0  0  0  0  0  0  0
    4.5756    3.2449    7.2207 N   0  0  0  0  0  0  0  0  0  0  0  0
    6.3939    4.0100    5.8957 N   0  0  0  0  0  0  0  0  0  0  0  0
    6.4995    3.8695    3.5477 N   0  0  0  0  0  0  0  0  0  0  0  0
    8.7245    6.1311    3.8065 N   0  0  0  0  0  0  0  0  0  0  0  0
    9.3870    6.3504    1.6591 O   0  0  0  0  0  0  0  0  0  0  0  0
    4.7313    4.1632    2.4833 H   0  0  0  0  0  0  0  0  0  0  0  0
    5.5962    2.6859    2.0495 H   0  0  0  0  0  0  0  0  0  0  0  0
    6.3540    5.5639    1.3724 H   0  0  0  0  0  0  0  0  0  0  0  0
    5.8186    4.3116    0.2688 H   0  0  0  0  0  0  0  0  0  0  0  0
    7.8591    2.9881    0.6891 H   0  0  0  0  0  0  0  0  0  0  0  0
    8.3166    4.6024    0.1857 H   0  0  0  0  0  0  0  0  0  0  0  0
    8.3921    5.3445    7.8718 H   0  0  0  0  0  0  0  0  0  0  0  0
    4.0887    2.6534    3.9592 H   0  0  0  0  0  0  0  0  0  0  0  0
    9.8125    6.7208    6.0935 H   0  0  0  0  0  0  0  0  0  0  0  0
    8.7716   10.6891    3.3285 H   0  0  0  0  0  0  0  0  0  0  0  0
   10.6034    8.1871    7.9160 H   0  0  0  0  0  0  0  0  0  0  0  0
   10.5687   12.4374    7.3856 H   0  0  0  0  0  0  0  0  0  0  0  0
   11.0667   10.4439    8.7726 H   0  0  0  0  0  0  0  0  0  0  0  0
    9.6151   12.1733    5.1337 H   0  0  0  0  0  0  0  0  0  0  0  0
    8.2869    8.4593    2.4804 H   0  0  0  0  0  0  0  0  0  0  0  0
    7.8851    2.3603    3.1083 H   0  0  0  0  0  0  0  0  0  0  0  0
    8.4221    3.4727    4.3389 H   0  0  0  0  0  0  0  0  0  0  0  0
    9.5907    3.7081    2.1785 H   0  0  0  0  0  0  0  0  0  0  0  0
    2.3355    2.1245    7.2158 H   0  0  0  0  0  0  0  0  0  0  0  0
    1.9238    2.7547    5.6123 H   0  0  0  0  0  0  0  0  0  0  0  0
    2.7109    1.1945    5.7568 H   0  0  0  0  0  0  0  0  0  0  0  0
    8.3937    5.5066    4.5406 H   0  0  0  0  0  0  0  0  0  0  0  0
  3  2  1  0
  3 22  1  0
  2  1  1  0
 29 20  2  0
 22 20  1  0
 22 21  1  0
  1 27  1  0
 20 28  1  0
 21 27  1  0
 15 10  2  0
 15  7  1  0
 27 18  1  0
 28  7  1  0
 10 16  1  0
  7  8  2  0
 18  6  2  0
 18 26  1  0
  6 19  1  0
 16 14  1  0
 16  9  2  0
 14 12  2  0
  8  9  1  0
 26 24  1  0
 26 17  1  0
  9 11  1  0
 24  5  2  0
 19 23  1  0
 19 25  2  0
 12 13  1  0
 17 25  1  0
 17  4  2  0
 11 13  2  0
  5  4  1  0
  1 30  1  0
  1 31  1  0
  2 32  1  0
  2 33  1  0
  3 34  1  0
  3 35  1  0
  5 36  1  0
  6 37  1  0
  8 38  1  0
 10 39  1  0
 11 40  1  0
 12 41  1  0
 13 42  1  0
 14 43  1  0
 15 44  1  0
 21 45  1  0
 21 46  1  0
 22 47  1  6
 23 48  1  0
 23 49  1  0
 23 50  1  0
 28 51  1  0
M  END
