
     RDKit          3D

 30 29  0  0  0  0  0  0  0  0999 V2000
   -0.2366    0.4951    0.0247 C   0  0  0  0  0  0  0  0  0  0  0  0
   -1.4510   -0.3598   -0.1524 C   0  0  0  0  0  0  0  0  0  0  0  0
   -2.7178    0.4213    0.1227 C   0  0  0  0  0  0  0  0  0  0  0  0
   -3.9396   -0.4454   -0.0919 C   0  0  0  0  0  0  0  0  0  0  0  0
   -5.2120    0.3281    0.1825 C   0  0  0  0  0  0  0  0  0  0  0  0
   -6.4333   -0.5290   -0.0278 C   0  0  0  0  0  0  0  0  0  0  0  0
    3.4143   -1.6601    0.3766 N   0  0  0  0  0  0  0  0  0  0  0  0
    3.2725   -0.4600   -0.4144 C   0  0  1  0  0  0  0  0  0  0  0  0
    2.1521    0.5095    0.0223 C   0  0  0  0  0  0  0  0  0  0  0  0
    0.9265   -0.2189   -0.1242 O   0  0  0  0  0  0  0  0  0  0  0  0
   -0.1459    1.6981    0.2701 O   0  0  0  0  0  0  0  0  0  0  0  0
    4.5484    0.3720   -0.4733 C   0  0  0  0  0  0  0  0  0  0  0  0
   -1.4508   -0.7543   -1.2039 H   0  0  0  0  0  0  0  0  0  0  0  0
   -1.3721   -1.2412    0.5385 H   0  0  0  0  0  0  0  0  0  0  0  0
   -2.7002    0.8057    1.1766 H   0  0  0  0  0  0  0  0  0  0  0  0
   -2.7588    1.3182   -0.5506 H   0  0  0  0  0  0  0  0  0  0  0  0
   -3.9526   -0.8263   -1.1473 H   0  0  0  0  0  0  0  0  0  0  0  0
   -3.8918   -1.3406    0.5828 H   0  0  0  0  0  0  0  0  0  0  0  0
   -5.1964    0.7109    1.2373 H   0  0  0  0  0  0  0  0  0  0  0  0
   -5.2579    1.2233   -0.4927 H   0  0  0  0  0  0  0  0  0  0  0  0
   -6.4784   -0.9005   -1.0801 H   0  0  0  0  0  0  0  0  0  0  0  0
   -6.4179   -1.4128    0.6549 H   0  0  0  0  0  0  0  0  0  0  0  0
   -7.3596    0.0597    0.1783 H   0  0  0  0  0  0  0  0  0  0  0  0
    2.5158   -2.0718    0.5384 H   0  0  0  0  0  0  0  0  0  0  0  0
    3.0307   -0.8031   -1.4667 H   0  0  0  0  0  0  0  0  0  0  0  0
    2.2590    0.8224    1.0927 H   0  0  0  0  0  0  0  0  0  0  0  0
    2.1299    1.4181   -0.6332 H   0  0  0  0  0  0  0  0  0  0  0  0
    4.6843    0.9239   -1.4285 H   0  0  0  0  0  0  0  0  0  0  0  0
    3.8587   -1.4621    1.2525 H   0  0  0  0  0  0  0  0  0  0  0  0
    5.3551    0.4472    0.4498 O   0  0  0  0  0  0  0  0  0  0  0  0
 30 12  2  0
 12  8  1  0
  8  9  1  0
  8  7  1  0
  9 10  1  0
 10  1  1  0
  6  5  1  0
  4  5  1  0
  4  3  1  0
  1  2  1  0
  1 11  2  0
  2  3  1  0
  2 13  1  0
  2 14  1  0
  3 15  1  0
  3 16  1  0
  4 17  1  0
  4 18  1  0
  5 19  1  0
  5 20  1  0
  6 21  1  0
  6 22  1  0
  6 23  1  0
  7 29  1  0
  7 24  1  0
  8 25  1  6
  9 26  1  0
  9 27  1  0
 12 28  1  0
M  END
