
     RDKit          3D

 34 36  0  0  0  0  0  0  0  0999 V2000
   -3.3976   -1.3278    0.1898 C   0  0  0  0  0  0  0  0  0  0  0  0
   -4.7209   -1.6834   -0.0387 C   0  0  0  0  0  0  0  0  0  0  0  0
   -5.7110   -0.7100   -0.0521 C   0  0  0  0  0  0  0  0  0  0  0  0
   -5.3672    0.6190    0.1639 C   0  0  0  0  0  0  0  0  0  0  0  0
   -4.0434    0.9684    0.3927 C   0  0  0  0  0  0  0  0  0  0  0  0
   -3.0406    0.0003    0.4110 C   0  0  0  0  0  0  0  0  0  0  0  0
   -1.6038    0.3866    0.6176 C   0  0  0  0  0  0  0  0  0  0  0  0
   -0.9480    0.8892   -0.6805 C   0  0  0  0  0  0  0  0  0  0  0  0
    0.4998    1.2035   -0.4945 C   0  0  0  0  0  0  0  0  0  0  0  0
    1.5855    0.2853   -0.2809 C   0  0  0  0  0  0  0  0  0  0  0  0
    1.7840   -1.1083   -0.2448 C   0  0  0  0  0  0  0  0  0  0  0  0
    0.7799   -1.9924   -0.4388 N   0  0  0  0  0  0  0  0  0  0  0  0
    2.9877   -1.6042    0.0206 N   0  0  0  0  0  0  0  0  0  0  0  0
    4.0064   -0.7561    0.2326 C   0  0  0  0  0  0  0  0  0  0  0  0
    5.2184   -1.3340    0.4577 N   0  0  0  0  0  0  0  0  0  0  0  0
    3.9628    0.5690    0.1987 N   0  0  0  0  0  0  0  0  0  0  0  0
    2.7432    1.0427   -0.0589 C   0  0  0  0  0  0  0  0  0  0  0  0
    2.4003    2.3462   -0.1441 N   0  0  0  0  0  0  0  0  0  0  0  0
    1.0483    2.4471   -0.4020 C   0  0  0  0  0  0  0  0  0  0  0  0
   -2.6317   -2.0953    0.2018 H   0  0  0  0  0  0  0  0  0  0  0  0
   -4.9782   -2.7221   -0.2027 H   0  0  0  0  0  0  0  0  0  0  0  0
   -6.7432   -0.9847   -0.2267 H   0  0  0  0  0  0  0  0  0  0  0  0
   -6.1324    1.3845    0.1579 H   0  0  0  0  0  0  0  0  0  0  0  0
   -3.7856    2.0073    0.5649 H   0  0  0  0  0  0  0  0  0  0  0  0
   -1.5263    1.1741    1.3709 H   0  0  0  0  0  0  0  0  0  0  0  0
   -1.0425   -0.4678    1.0032 H   0  0  0  0  0  0  0  0  0  0  0  0
   -1.0886    0.1442   -1.4709 H   0  0  0  0  0  0  0  0  0  0  0  0
   -1.4750    1.7838   -1.0211 H   0  0  0  0  0  0  0  0  0  0  0  0
    0.5780    3.4128   -0.4954 H   0  0  0  0  0  0  0  0  0  0  0  0
   -0.0435   -1.6986   -0.9352 H   0  0  0  0  0  0  0  0  0  0  0  0
    1.0375   -2.9564   -0.5741 H   0  0  0  0  0  0  0  0  0  0  0  0
    5.2151   -2.2930    0.7605 H   0  0  0  0  0  0  0  0  0  0  0  0
    5.9252   -0.7561    0.8797 H   0  0  0  0  0  0  0  0  0  0  0  0
    3.0308    3.1212   -0.0216 H   0  0  0  0  0  0  0  0  0  0  0  0
  1  2  2  0
  1  6  1  0
  2  3  1  0
  3  4  2  0
  4  5  1  0
  5  6  2  0
  6  7  1  0
  7  8  1  0
  8  9  1  0
  9 10  1  0
  9 19  2  0
 10 11  2  0
 10 17  1  0
 11 12  1  0
 11 13  1  0
 13 14  2  0
 14 15  1  0
 14 16  1  0
 16 17  2  0
 17 18  1  0
 18 19  1  0
  1 20  1  0
  2 21  1  0
  3 22  1  0
  4 23  1  0
  5 24  1  0
  7 25  1  0
  7 26  1  0
  8 27  1  0
  8 28  1  0
 19 29  1  0
 12 30  1  0
 12 31  1  0
 15 32  1  0
 15 33  1  0
 18 34  1  0
M  END
