
     RDKit          3D

 34 33  0  0  0  0  0  0  0  0999 V2000
   -5.5634    0.5204   -0.0236 C   0  0  0  0  0  0  0  0  0  0  0  0
   -5.8209    0.6111    1.1564 O   0  0  0  0  0  0  0  0  0  0  0  0
   -4.2854    0.0696   -0.5844 C   0  0  0  0  0  0  0  0  0  0  0  0
   -3.2554   -0.2586    0.2100 C   0  0  0  0  0  0  0  0  0  0  0  0
   -1.9691   -0.6970   -0.2762 C   0  0  0  0  0  0  0  0  0  0  0  0
   -0.9485   -0.9841    0.5419 C   0  0  0  0  0  0  0  0  0  0  0  0
    0.4095   -1.3979    0.0923 C   0  0  0  0  0  0  0  0  0  0  0  0
    1.4620   -0.3287    0.4028 C   0  0  0  0  0  0  0  0  0  0  0  0
    2.8645   -0.7466   -0.0195 C   0  0  0  0  0  0  0  0  0  0  0  0
    3.9066    0.3381    0.2233 C   0  0  0  0  0  0  0  0  0  0  0  0
    5.3096   -0.0705   -0.2079 C   0  0  0  0  0  0  0  0  0  0  0  0
    6.3486    1.0235    0.0055 C   0  0  0  0  0  0  0  0  0  0  0  0
    7.7473    0.6046   -0.4257 C   0  0  0  0  0  0  0  0  0  0  0  0
   -6.4365    0.8323   -0.9796 O   0  0  0  0  0  0  0  0  0  0  0  0
   -4.1926    0.0170   -1.6630 H   0  0  0  0  0  0  0  0  0  0  0  0
   -3.3755   -0.1898    1.2876 H   0  0  0  0  0  0  0  0  0  0  0  0
   -1.8391   -0.7846   -1.3512 H   0  0  0  0  0  0  0  0  0  0  0  0
   -1.0942   -0.8818    1.6149 H   0  0  0  0  0  0  0  0  0  0  0  0
    0.6913   -2.3274    0.5985 H   0  0  0  0  0  0  0  0  0  0  0  0
    0.4033   -1.6076   -0.9804 H   0  0  0  0  0  0  0  0  0  0  0  0
    1.1857    0.5995   -0.1067 H   0  0  0  0  0  0  0  0  0  0  0  0
    1.4511   -0.1056    1.4743 H   0  0  0  0  0  0  0  0  0  0  0  0
    3.1527   -1.6570    0.5174 H   0  0  0  0  0  0  0  0  0  0  0  0
    2.8589   -1.0105   -1.0825 H   0  0  0  0  0  0  0  0  0  0  0  0
    3.6119    1.2470   -0.3131 H   0  0  0  0  0  0  0  0  0  0  0  0
    3.9153    0.6035    1.2860 H   0  0  0  0  0  0  0  0  0  0  0  0
    5.6128   -0.9700    0.3399 H   0  0  0  0  0  0  0  0  0  0  0  0
    5.2950   -0.3529   -1.2664 H   0  0  0  0  0  0  0  0  0  0  0  0
    6.0456    1.9199   -0.5449 H   0  0  0  0  0  0  0  0  0  0  0  0
    6.3618    1.3086    1.0619 H   0  0  0  0  0  0  0  0  0  0  0  0
    8.0858   -0.2695    0.1339 H   0  0  0  0  0  0  0  0  0  0  0  0
    7.7735    0.3452   -1.4858 H   0  0  0  0  0  0  0  0  0  0  0  0
    8.4737    1.4014   -0.2623 H   0  0  0  0  0  0  0  0  0  0  0  0
   -7.2667    1.1338   -0.5823 H   0  0  0  0  0  0  0  0  0  0  0  0
  1  2  2  0
  1  3  1  0
  3  4  2  0
  4  5  1  0
  5  6  2  0
  6  7  1  0
  7  8  1  0
  8  9  1  0
  9 10  1  0
 10 11  1  0
 11 12  1  0
 12 13  1  0
  1 14  1  0
  3 15  1  0
  4 16  1  0
  5 17  1  0
  6 18  1  0
  7 19  1  0
  7 20  1  0
  8 21  1  0
  8 22  1  0
  9 23  1  0
  9 24  1  0
 10 25  1  0
 10 26  1  0
 11 27  1  0
 11 28  1  0
 12 29  1  0
 12 30  1  0
 13 31  1  0
 13 32  1  0
 13 33  1  0
 14 34  1  0
M  END
