
     RDKit          3D

 48 49  0  0  0  0  0  0  0  0999 V2000
   -0.9349   -0.0529   -0.1393 N   0  0  0  0  0  0  0  0  0  0  0  0
   -1.9944   -0.1750    0.8421 C   0  0  0  0  0  0  0  0  0  0  0  0
   -3.3620   -0.1066    0.1804 C   0  0  0  0  0  0  0  0  0  0  0  0
   -4.5039   -0.1464    1.1963 C   0  0  0  0  0  0  0  0  0  0  0  0
    0.3943   -0.1290    0.4340 C   0  0  0  0  0  0  0  0  0  0  0  0
    1.4622    0.2671   -0.5803 C   0  0  1  0  0  0  0  0  0  0  0  0
    1.3181    1.6118   -0.9800 O   0  0  0  0  0  0  0  0  0  0  0  0
    2.8731   -0.0555   -0.0588 C   0  0  1  0  0  0  0  0  0  0  0  0
    3.0106   -1.5019    0.0039 N   0  0  0  0  0  0  0  0  0  0  0  0
    3.9618    0.6424   -0.8977 C   0  0  0  0  0  0  0  0  0  0  0  0
    6.0928   -0.7043   -1.0335 C   0  0  0  0  0  0  0  0  0  0  0  0
    7.3542   -1.0451   -0.5607 C   0  0  0  0  0  0  0  0  0  0  0  0
    7.8855   -0.3908    0.5422 C   0  0  0  0  0  0  0  0  0  0  0  0
    7.1470    0.6077    1.1664 C   0  0  0  0  0  0  0  0  0  0  0  0
    5.8888    0.9451    0.6881 C   0  0  0  0  0  0  0  0  0  0  0  0
    5.3423    0.2963   -0.4194 C   0  0  0  0  0  0  0  0  0  0  0  0
   -5.8502   -0.0893    0.5304 C   0  0  0  0  0  0  0  0  0  0  0  0
   -6.5153   -1.2576    0.1637 C   0  0  0  0  0  0  0  0  0  0  0  0
   -7.7371   -1.2084   -0.4946 C   0  0  0  0  0  0  0  0  0  0  0  0
   -8.3156    0.0167   -0.8006 C   0  0  0  0  0  0  0  0  0  0  0  0
   -7.6631    1.1889   -0.4399 C   0  0  0  0  0  0  0  0  0  0  0  0
   -6.4417    1.1334    0.2185 C   0  0  0  0  0  0  0  0  0  0  0  0
   -1.9265   -1.0996    1.4402 H   0  0  0  0  0  0  0  0  0  0  0  0
   -1.8959    0.6524    1.5530 H   0  0  0  0  0  0  0  0  0  0  0  0
   -3.4290    0.8107   -0.4119 H   0  0  0  0  0  0  0  0  0  0  0  0
   -3.4736   -0.9403   -0.5211 H   0  0  0  0  0  0  0  0  0  0  0  0
   -4.4261   -1.0576    1.7960 H   0  0  0  0  0  0  0  0  0  0  0  0
   -4.3959    0.6926    1.8892 H   0  0  0  0  0  0  0  0  0  0  0  0
    0.4431    0.5685    1.2801 H   0  0  0  0  0  0  0  0  0  0  0  0
    0.6361   -1.1193    0.8413 H   0  0  0  0  0  0  0  0  0  0  0  0
    1.3146   -0.3207   -1.4965 H   0  0  0  0  0  0  0  0  0  0  0  0
    1.3376    2.1681   -0.1938 H   0  0  0  0  0  0  0  0  0  0  0  0
    2.9565    0.3164    0.9709 H   0  0  0  0  0  0  0  0  0  0  0  0
    3.0687   -1.8789   -0.9360 H   0  0  0  0  0  0  0  0  0  0  0  0
    3.8458    0.3484   -1.9462 H   0  0  0  0  0  0  0  0  0  0  0  0
    3.8229    1.7238   -0.8553 H   0  0  0  0  0  0  0  0  0  0  0  0
    7.9229   -1.8218   -1.0560 H   0  0  0  0  0  0  0  0  0  0  0  0
    8.8690   -0.6529    0.9105 H   0  0  0  0  0  0  0  0  0  0  0  0
    7.5544    1.1272    2.0245 H   0  0  0  0  0  0  0  0  0  0  0  0
    5.3209    1.7275    1.1792 H   0  0  0  0  0  0  0  0  0  0  0  0
   -6.0736   -2.2190    0.3995 H   0  0  0  0  0  0  0  0  0  0  0  0
   -8.2390   -2.1289   -0.7648 H   0  0  0  0  0  0  0  0  0  0  0  0
   -9.2683    0.0580   -1.3129 H   0  0  0  0  0  0  0  0  0  0  0  0
   -8.1073    2.1494   -0.6685 H   0  0  0  0  0  0  0  0  0  0  0  0
   -5.9425    2.0548    0.4959 H   0  0  0  0  0  0  0  0  0  0  0  0
   -1.0372   -0.7953   -0.8220 H   0  0  0  0  0  0  0  0  0  0  0  0
    3.8848   -1.7477    0.4521 H   0  0  0  0  0  0  0  0  0  0  0  0
    5.6902   -1.2180   -1.8991 H   0  0  0  0  0  0  0  0  0  0  0  0
  1  2  1  0
  1  5  1  0
  2  3  1  0
  3  4  1  0
  4 17  1  0
  5  6  1  0
  6  7  1  0
  6  8  1  0
  8  9  1  0
  8 10  1  0
 10 16  1  0
 11 12  2  0
 11 16  1  0
 12 13  1  0
 13 14  2  0
 14 15  1  0
 15 16  2  0
 17 18  2  0
 17 22  1  0
 18 19  1  0
 19 20  2  0
 20 21  1  0
 21 22  2  0
  2 23  1  0
  2 24  1  0
  3 25  1  0
  3 26  1  0
  4 27  1  0
  4 28  1  0
  5 29  1  0
  5 30  1  0
  6 31  1  6
  7 32  1  0
  8 33  1  1
  9 34  1  0
 10 35  1  0
 10 36  1  0
 11 48  1  0
 12 37  1  0
 13 38  1  0
 14 39  1  0
 15 40  1  0
 18 41  1  0
 19 42  1  0
 20 43  1  0
 21 44  1  0
 22 45  1  0
  1 46  1  0
  9 47  1  0
M  END
