
     RDKit          3D

 19 20  0  0  0  0  0  0  0  0999 V2000
    0.8617    0.0282    0.4517 N   0  0  0  0  0  0  0  0  0  0  0  0
   -0.1286    0.0202    1.2994 C   0  0  0  0  0  0  0  0  0  0  0  0
   -1.4821    0.0081    0.8778 C   0  0  0  0  0  0  0  0  0  0  0  0
   -1.8061    0.0043   -0.3834 N   0  0  0  0  0  0  0  0  0  0  0  0
   -1.0923    0.0085   -2.6643 C   0  0  0  0  0  0  0  0  0  0  0  0
   -0.0707    0.0174   -3.5744 C   0  0  0  0  0  0  0  0  0  0  0  0
    1.2775    0.0300   -3.1511 C   0  0  0  0  0  0  0  0  0  0  0  0
    1.5904    0.0330   -1.8204 C   0  0  0  0  0  0  0  0  0  0  0  0
    0.5544    0.0243   -0.8601 C   0  0  0  0  0  0  0  0  0  0  0  0
   -0.7986    0.0123   -1.2849 C   0  0  0  0  0  0  0  0  0  0  0  0
    0.1697    0.0245    2.7623 C   0  0  0  0  0  0  0  0  0  0  0  0
   -0.6993    0.0187    3.5985 O   0  0  0  0  0  0  0  0  0  0  0  0
    1.4610    0.0348    3.0225 O   0  0  0  0  0  0  0  0  0  0  0  0
   -2.2852    0.0018    1.6040 H   0  0  0  0  0  0  0  0  0  0  0  0
   -2.1283   -0.0010   -2.9771 H   0  0  0  0  0  0  0  0  0  0  0  0
   -0.2910    0.0151   -4.6335 H   0  0  0  0  0  0  0  0  0  0  0  0
    2.0648    0.0375   -3.8924 H   0  0  0  0  0  0  0  0  0  0  0  0
    2.6175    0.0425   -1.4794 H   0  0  0  0  0  0  0  0  0  0  0  0
    1.6034    0.0370    3.9815 H   0  0  0  0  0  0  0  0  0  0  0  0
  1  2  2  0
  1  9  1  0
  2  3  1  0
  2 11  1  0
  3  4  2  0
  3 14  1  0
  4 10  1  0
  5  6  1  0
  5 10  2  0
  5 15  1  0
  6  7  2  0
  6 16  1  0
  7  8  1  0
  7 17  1  0
  8  9  2  0
  8 18  1  0
  9 10  1  0
 11 12  2  0
 11 13  1  0
 13 19  1  0
M  END
