
     RDKit          3D

 34 34  0  0  0  0  0  0  0  0999 V2000
   -2.8743   -1.2017    0.4713 O   0  0  0  0  0  0  0  0  0  0  0  0
   -1.5388   -2.0505    0.1829 P   0  0  1  0  0  0  0  0  0  0  0  0
   -1.4632   -3.1873    1.3206 O   0  0  0  0  0  0  0  0  0  0  0  0
   -1.5766   -2.5496   -1.2137 O   0  0  0  0  0  0  0  0  0  0  0  0
   -0.1048   -1.0492    0.6240 C   0  0  0  0  0  0  0  0  0  0  0  0
    0.1185    0.1397   -0.3210 C   0  0  2  0  0  0  0  0  0  0  0  0
    1.4525    0.8295   -0.0228 C   0  0  0  0  0  0  0  0  0  0  0  0
    2.6579   -0.0054   -0.4072 C   0  0  0  0  0  0  0  0  0  0  0  0
    3.8562    0.4352    0.0403 N   0  0  0  0  0  0  0  0  0  0  0  0
    3.9222    1.6990    0.5701 O   0  0  0  0  0  0  0  0  0  0  0  0
    5.1285   -0.1047   -0.3739 C   0  0  0  0  0  0  0  0  0  0  0  0
    2.5716   -1.0232   -1.0782 O   0  0  0  0  0  0  0  0  0  0  0  0
   -1.0036    1.1496   -0.2314 C   0  0  0  0  0  0  0  0  0  0  0  0
   -1.3244    1.7626    0.9793 C   0  0  0  0  0  0  0  0  0  0  0  0
   -2.3568    2.6866    1.0567 C   0  0  0  0  0  0  0  0  0  0  0  0
   -3.0838    3.0177   -0.0801 C   0  0  0  0  0  0  0  0  0  0  0  0
   -2.7661    2.4209   -1.2919 C   0  0  0  0  0  0  0  0  0  0  0  0
   -1.7336    1.4943   -1.3635 C   0  0  0  0  0  0  0  0  0  0  0  0
   -2.8681   -0.6745    1.2805 H   0  0  0  0  0  0  0  0  0  0  0  0
   -2.0717   -3.9254    1.1774 H   0  0  0  0  0  0  0  0  0  0  0  0
   -0.1893   -0.7161    1.6620 H   0  0  0  0  0  0  0  0  0  0  0  0
    0.7537   -1.7217    0.5797 H   0  0  0  0  0  0  0  0  0  0  0  0
    0.1500   -0.2405   -1.3445 H   0  0  0  0  0  0  0  0  0  0  0  0
    1.5039    1.7657   -0.5870 H   0  0  0  0  0  0  0  0  0  0  0  0
    1.5001    1.1141    1.0307 H   0  0  0  0  0  0  0  0  0  0  0  0
    3.9961    1.5862    1.5277 H   0  0  0  0  0  0  0  0  0  0  0  0
    4.9975   -1.1315   -0.6994 H   0  0  0  0  0  0  0  0  0  0  0  0
    5.5598    0.4743   -1.1928 H   0  0  0  0  0  0  0  0  0  0  0  0
    5.8192   -0.0969    0.4681 H   0  0  0  0  0  0  0  0  0  0  0  0
   -0.7673    1.5211    1.8781 H   0  0  0  0  0  0  0  0  0  0  0  0
   -2.5921    3.1500    2.0064 H   0  0  0  0  0  0  0  0  0  0  0  0
   -3.8899    3.7373   -0.0208 H   0  0  0  0  0  0  0  0  0  0  0  0
   -3.3256    2.6719   -2.1841 H   0  0  0  0  0  0  0  0  0  0  0  0
   -1.4958    1.0296   -2.3131 H   0  0  0  0  0  0  0  0  0  0  0  0
 11  9  1  0
 10  9  1  0
  9  8  1  0
  8 12  2  0
  8  7  1  0
  4  2  2  0
  5  2  1  0
  5  6  1  0
  7  6  1  0
  2  3  1  1
  2  1  1  0
  6 13  1  0
 14 13  2  0
 14 15  1  0
 13 18  1  0
 15 16  2  0
 18 17  2  0
 16 17  1  0
  1 19  1  0
  3 20  1  0
  5 21  1  0
  5 22  1  0
  6 23  1  6
  7 24  1  0
  7 25  1  0
 10 26  1  0
 11 27  1  0
 11 28  1  0
 11 29  1  0
 14 30  1  0
 15 31  1  0
 16 32  1  0
 17 33  1  0
 18 34  1  0
M  END
