
     RDKit          3D

 33 34  0  0  0  0  0  0  0  0999 V2000
    0.8266    0.4145    3.4124 C   0  0  0  0  0  0  0  0  0  0  0  0
    0.1085   -0.7331    3.7449 C   0  0  0  0  0  0  0  0  0  0  0  0
   -0.8073   -1.2323    2.8205 C   0  0  0  0  0  0  0  0  0  0  0  0
   -1.0057   -0.6113    1.5987 C   0  0  0  0  0  0  0  0  0  0  0  0
   -0.2701    0.5264    1.2870 C   0  0  0  0  0  0  0  0  0  0  0  0
    0.6438    1.0490    2.1949 C   0  0  0  0  0  0  0  0  0  0  0  0
    0.2932   -1.3938    5.0770 C   0  0  0  0  0  0  0  0  0  0  0  0
   -0.4700    1.2774   -0.3015 S   0  0  1  0  0  0  0  0  0  0  0  0
   -1.8165    0.9791   -0.7665 O   0  0  0  0  0  0  0  0  0  0  0  0
   -0.0057    2.6511   -0.2143 O   0  0  0  0  0  0  0  0  0  0  0  0
    0.5456    0.4925   -1.3214 N   0  0  0  0  0  0  0  0  0  0  0  0
    2.0031    0.5927   -1.1408 C   0  0  0  0  0  0  0  0  0  0  0  0
    2.4832   -0.8324   -1.3763 C   0  0  0  0  0  0  0  0  0  0  0  0
    1.4690   -1.3860   -2.3683 C   0  0  0  0  0  0  0  0  0  0  0  0
    0.1421   -0.7969   -1.8617 C   0  0  2  0  0  0  0  0  0  0  0  0
   -0.8447   -0.6379   -2.9975 C   0  0  0  0  0  0  0  0  0  0  0  0
   -0.8986    0.3148   -3.7283 O   0  0  0  0  0  0  0  0  0  0  0  0
   -1.5927   -1.7234   -3.1272 O   0  0  0  0  0  0  0  0  0  0  0  0
    1.5384    0.8264    4.1169 H   0  0  0  0  0  0  0  0  0  0  0  0
   -1.3792   -2.1205    3.0581 H   0  0  0  0  0  0  0  0  0  0  0  0
   -1.7379   -1.0128    0.9113 H   0  0  0  0  0  0  0  0  0  0  0  0
    1.2016    1.9485    1.9722 H   0  0  0  0  0  0  0  0  0  0  0  0
   -0.3206   -0.9044    5.8358 H   0  0  0  0  0  0  0  0  0  0  0  0
    0.0010   -2.4423    5.0468 H   0  0  0  0  0  0  0  0  0  0  0  0
    1.3286   -1.3352    5.4110 H   0  0  0  0  0  0  0  0  0  0  0  0
    2.4165    1.2888   -1.8714 H   0  0  0  0  0  0  0  0  0  0  0  0
    2.2708    0.9538   -0.1472 H   0  0  0  0  0  0  0  0  0  0  0  0
    3.5037   -0.8658   -1.7542 H   0  0  0  0  0  0  0  0  0  0  0  0
    2.4506   -1.4027   -0.4455 H   0  0  0  0  0  0  0  0  0  0  0  0
    1.6856   -1.0204   -3.3741 H   0  0  0  0  0  0  0  0  0  0  0  0
    1.4351   -2.4730   -2.3991 H   0  0  0  0  0  0  0  0  0  0  0  0
   -0.2734   -1.4588   -1.0933 H   0  0  0  0  0  0  0  0  0  0  0  0
   -2.1679   -1.6446   -3.9037 H   0  0  0  0  0  0  0  0  0  0  0  0
  1  2  2  0
  1  6  1  0
  1 19  1  0
  2  3  1  0
  2  7  1  0
  3  4  2  0
  3 20  1  0
  4  5  1  0
  4 21  1  0
  5  6  2  0
  8  5  1  1
  6 22  1  0
  7 23  1  0
  7 24  1  0
  7 25  1  0
  8  9  2  0
  8 10  2  0
  8 11  1  0
 11 12  1  0
 11 15  1  0
 12 13  1  0
 12 26  1  0
 12 27  1  0
 13 14  1  0
 13 28  1  0
 13 29  1  0
 14 15  1  0
 14 30  1  0
 14 31  1  0
 15 16  1  0
 15 32  1  1
 16 17  2  0
 16 18  1  0
 18 33  1  0
M  END
