
     RDKit          3D

 34 36  0  0  0  0  0  0  0  0999 V2000
    3.6365   -1.9727    0.4193 N   0  0  0  0  0  0  0  0  0  0  0  0
   -2.0344    0.9966    0.0732 C   0  0  0  0  0  0  0  0  0  0  0  0
    4.9330   -0.2641   -0.6359 N   0  0  0  0  0  0  0  0  0  0  0  0
    0.5055    2.1160    0.4204 C   0  0  0  0  0  0  0  0  0  0  0  0
   -0.6210    2.9255    0.4039 C   0  0  0  0  0  0  0  0  0  0  0  0
   -0.9062    0.1804    0.0986 C   0  0  0  0  0  0  0  0  0  0  0  0
    4.6867    1.0004   -1.1035 C   0  0  0  0  0  0  0  0  0  0  0  0
    0.3613    0.7409    0.2610 C   0  0  0  0  0  0  0  0  0  0  0  0
   -5.7979   -2.2063   -0.7087 C   0  0  0  0  0  0  0  0  0  0  0  0
   -5.3111   -0.8342   -0.2780 C   0  0  0  0  0  0  0  0  0  0  0  0
   -3.8050   -0.7477   -0.1462 C   0  0  0  0  0  0  0  0  0  0  0  0
   -3.0925   -1.7308   -0.0633 O   0  0  0  0  0  0  0  0  0  0  0  0
   -1.8776    2.3779    0.2267 C   0  0  0  0  0  0  0  0  0  0  0  0
    1.5362   -0.1516    0.2783 C   0  0  0  0  0  0  0  0  0  0  0  0
    2.7884    0.2192   -0.2201 C   0  0  0  0  0  0  0  0  0  0  0  0
    3.3872    1.3405   -0.8740 C   0  0  0  0  0  0  0  0  0  0  0  0
    3.7970   -0.7664   -0.1035 C   0  0  0  0  0  0  0  0  0  0  0  0
    2.4035   -2.2049    0.8314 C   0  0  0  0  0  0  0  0  0  0  0  0
    1.3677   -1.3711    0.7848 N   0  0  0  0  0  0  0  0  0  0  0  0
    5.8161   -0.7463   -0.6903 H   0  0  0  0  0  0  0  0  0  0  0  0
    1.4786    2.5552    0.5911 H   0  0  0  0  0  0  0  0  0  0  0  0
   -0.5202    3.9945    0.5354 H   0  0  0  0  0  0  0  0  0  0  0  0
   -0.9953   -0.8868   -0.0155 H   0  0  0  0  0  0  0  0  0  0  0  0
    5.4718    1.5688   -1.5742 H   0  0  0  0  0  0  0  0  0  0  0  0
   -5.5079   -2.9788    0.0019 H   0  0  0  0  0  0  0  0  0  0  0  0
   -6.8850   -2.2094   -0.7765 H   0  0  0  0  0  0  0  0  0  0  0  0
   -5.4035   -2.4820   -1.6863 H   0  0  0  0  0  0  0  0  0  0  0  0
   -5.6617   -0.0687   -0.9749 H   0  0  0  0  0  0  0  0  0  0  0  0
   -5.7420   -0.5677    0.6927 H   0  0  0  0  0  0  0  0  0  0  0  0
   -4.0375    1.2537   -0.1764 H   0  0  0  0  0  0  0  0  0  0  0  0
   -2.7474    3.0238    0.2122 H   0  0  0  0  0  0  0  0  0  0  0  0
    2.9287    2.2739   -1.1540 H   0  0  0  0  0  0  0  0  0  0  0  0
    2.2114   -3.1821    1.2602 H   0  0  0  0  0  0  0  0  0  0  0  0
   -3.3378    0.5300   -0.1080 N   0  0  0  0  0  0  0  0  0  0  0  0
 12 11  2  0
  9 10  1  0
 10 11  1  0
 11 34  1  0
 34  2  1  0
  2 13  2  0
  2  6  1  0
 13  5  1  0
  6  8  2  0
  5  4  2  0
  8  4  1  0
  8 14  1  0
 16  7  2  0
 16 15  1  0
  7  3  1  0
 15 14  2  0
 15 17  1  0
 14 19  1  0
  3 17  1  0
 17  1  2  0
 19 18  2  0
  1 18  1  0
  3 20  1  0
  4 21  1  0
  5 22  1  0
  6 23  1  0
  7 24  1  0
  9 25  1  0
  9 26  1  0
  9 27  1  0
 10 28  1  0
 10 29  1  0
 34 30  1  0
 13 31  1  0
 16 32  1  0
 18 33  1  0
M  END
