
     RDKit          3D

 28 29  0  0  0  0  0  0  0  0999 V2000
    4.0099    0.5384   -0.3124 C   0  0  0  0  0  0  0  0  0  0  0  0
    3.3370   -1.3307   -1.6623 O   0  0  0  0  0  0  0  0  0  0  0  0
    0.7609   -1.7885   -0.6705 S   0  0  0  0  0  0  0  0  0  0  0  0
    3.0919   -0.4316   -0.6933 C   0  0  0  0  0  0  0  0  0  0  0  0
   -0.8020   -1.7900    0.6357 S   0  0  0  0  0  0  0  0  0  0  0  0
    1.8459   -0.5087   -0.0678 C   0  0  0  0  0  0  0  0  0  0  0  0
    4.5413    2.4025    1.0973 O   0  0  0  0  0  0  0  0  0  0  0  0
    1.5379    0.4012    0.9301 C   0  0  0  0  0  0  0  0  0  0  0  0
    2.4450    1.3739    1.3188 C   0  0  0  0  0  0  0  0  0  0  0  0
    3.6869    1.4439    0.6944 C   0  0  0  0  0  0  0  0  0  0  0  0
   -4.0292    0.5717    0.3133 C   0  0  0  0  0  0  0  0  0  0  0  0
   -3.1183   -0.4089    0.6827 C   0  0  0  0  0  0  0  0  0  0  0  0
   -1.8780   -0.4961    0.0472 C   0  0  0  0  0  0  0  0  0  0  0  0
   -1.5688    0.4144   -0.9497 C   0  0  0  0  0  0  0  0  0  0  0  0
   -2.4691    1.3978   -1.3274 C   0  0  0  0  0  0  0  0  0  0  0  0
   -3.7053    1.4775   -0.6930 C   0  0  0  0  0  0  0  0  0  0  0  0
    4.9772    0.5835   -0.8033 H   0  0  0  0  0  0  0  0  0  0  0  0
    4.2192   -1.2102   -2.0322 H   0  0  0  0  0  0  0  0  0  0  0  0
    5.3570    2.3701    0.5851 H   0  0  0  0  0  0  0  0  0  0  0  0
    0.5754    0.3541    1.4228 H   0  0  0  0  0  0  0  0  0  0  0  0
    2.1886    2.0763    2.1008 H   0  0  0  0  0  0  0  0  0  0  0  0
   -5.3641    2.4210   -0.5649 H   0  0  0  0  0  0  0  0  0  0  0  0
   -0.6106    0.3597   -1.4500 H   0  0  0  0  0  0  0  0  0  0  0  0
   -2.2116    2.1008   -2.1085 H   0  0  0  0  0  0  0  0  0  0  0  0
   -4.2450   -1.1862    2.0232 H   0  0  0  0  0  0  0  0  0  0  0  0
   -4.9920    0.6248    0.8120 H   0  0  0  0  0  0  0  0  0  0  0  0
   -3.3643   -1.3092    1.6505 O   0  0  0  0  0  0  0  0  0  0  0  0
   -4.5533    2.4463   -1.0851 O   0  0  0  0  0  0  0  0  0  0  0  0
  1  4  2  0
  1 10  1  0
  1 17  1  0
  2  4  1  0
  2 18  1  0
  3  5  1  0
  3  6  1  0
  4  6  1  0
  5 13  1  0
  6  8  2  0
  7 10  1  0
  7 19  1  0
  8  9  1  0
  8 20  1  0
 27 12  1  0
  9 10  2  0
  9 21  1  0
 28 16  1  0
 28 22  1  0
 11 12  2  0
 11 16  1  0
 12 13  1  0
 13 14  2  0
 14 15  1  0
 14 23  1  0
 15 16  2  0
 15 24  1  0
 27 25  1  0
 11 26  1  0
M  END
