
     RDKit          3D

 18 18  0  0  0  0  0  0  0  0999 V2000
   -3.1812   -1.2087    0.0254 O   0  0  0  0  0  0  0  0  0  0  0  0
   -2.9090   -0.0278    0.0301 N   0  0  0  0  0  0  0  0  0  0  0  0
   -3.7418    0.8550    0.0312 O   0  0  0  0  0  0  0  0  0  0  0  0
   -1.5384    0.3906    0.0347 C   0  0  0  0  0  0  0  0  0  0  0  0
   -0.5452   -0.5011    0.0244 C   0  0  0  0  0  0  0  0  0  0  0  0
    0.8729   -0.1801    0.0240 C   0  0  0  0  0  0  0  0  0  0  0  0
    1.7869   -1.2372    0.0058 C   0  0  0  0  0  0  0  0  0  0  0  0
    3.1513   -0.9926    0.0041 C   0  0  0  0  0  0  0  0  0  0  0  0
    3.6198    0.3134    0.0210 C   0  0  0  0  0  0  0  0  0  0  0  0
    2.7194    1.3749    0.0400 C   0  0  0  0  0  0  0  0  0  0  0  0
    1.3582    1.1328    0.0415 C   0  0  0  0  0  0  0  0  0  0  0  0
   -1.4252    1.4637    0.0402 H   0  0  0  0  0  0  0  0  0  0  0  0
   -0.7919   -1.5570    0.0159 H   0  0  0  0  0  0  0  0  0  0  0  0
    1.4237   -2.2576   -0.0073 H   0  0  0  0  0  0  0  0  0  0  0  0
    3.8483   -1.8195   -0.0104 H   0  0  0  0  0  0  0  0  0  0  0  0
    4.6844    0.5063    0.0197 H   0  0  0  0  0  0  0  0  0  0  0  0
    3.0830    2.3939    0.0533 H   0  0  0  0  0  0  0  0  0  0  0  0
    0.6743    1.9713    0.0566 H   0  0  0  0  0  0  0  0  0  0  0  0
 11 10  1  0
 11  6  2  0
  1  2  1  0
 10  9  2  0
  5  6  1  0
  5  4  2  0
  6  7  1  0
  2  4  1  0
  2  3  2  0
  9  8  1  0
  7  8  2  0
  4 12  1  0
  5 13  1  0
  7 14  1  0
  8 15  1  0
  9 16  1  0
 10 17  1  0
 11 18  1  0
M  CHG  2   1  -1   2   1
M  END
