
     RDKit          3D

 15 15  0  0  0  0  0  0  0  0999 V2000
   -2.6089   -0.7280   -0.0220 O   0  0  0  0  0  0  0  0  0  0  0  0
   -1.7129    0.0841   -0.0433 C   0  0  0  0  0  0  0  0  0  0  0  0
   -1.8927    1.3962   -0.1043 O   0  0  0  0  0  0  0  0  0  0  0  0
   -0.3096   -0.2949   -0.0041 C   0  0  0  0  0  0  0  0  0  0  0  0
    0.2621   -1.5273    0.0610 C   0  0  0  0  0  0  0  0  0  0  0  0
    1.6617   -1.3090    0.0725 C   0  0  0  0  0  0  0  0  0  0  0  0
    0.6510    0.6582   -0.0331 O   0  0  0  0  0  0  0  0  0  0  0  0
    1.8426    0.0408    0.0133 C   0  0  0  0  0  0  0  0  0  0  0  0
    3.0569    0.8856   -0.0085 C   0  0  0  0  0  0  0  0  0  0  0  0
   -2.8404    1.5966   -0.1308 H   0  0  0  0  0  0  0  0  0  0  0  0
   -0.2554   -2.4723    0.0965 H   0  0  0  0  0  0  0  0  0  0  0  0
    2.4404   -2.0523    0.1187 H   0  0  0  0  0  0  0  0  0  0  0  0
    3.1055    1.4900   -0.9158 H   0  0  0  0  0  0  0  0  0  0  0  0
    3.0855    1.5650    0.8449 H   0  0  0  0  0  0  0  0  0  0  0  0
    3.9439    0.2577    0.0286 H   0  0  0  0  0  0  0  0  0  0  0  0
  1  2  2  0
  3  2  1  0
  2  4  1  0
  4  5  2  0
  4  7  1  0
  5  6  1  0
  7  8  1  0
  6  8  2  0
  8  9  1  0
  3 10  1  0
  5 11  1  0
  6 12  1  0
  9 13  1  0
  9 14  1  0
  9 15  1  0
M  END
