
     RDKit          3D

 51 53  0  0  0  0  0  0  0  0999 V2000
    0.8147    2.1876   -1.6812 C   0  0  0  0  0  0  0  0  0  0  0  0
    2.8666    1.8616   -0.5558 C   0  0  0  0  0  0  0  0  0  0  0  0
    6.8225    0.9621    1.8269 C   0  0  0  0  0  0  0  0  0  0  0  0
    3.3522   -0.1965    0.2435 C   0  0  0  0  0  0  0  0  0  0  0  0
    2.9965   -1.6510    0.3838 C   0  0  2  0  0  0  0  0  0  0  0  0
    3.9074   -2.5019   -0.5131 C   0  0  0  0  0  0  0  0  0  0  0  0
    3.6029   -3.9874   -0.3597 C   0  0  0  0  0  0  0  0  0  0  0  0
    2.1333   -4.2862   -0.6298 C   0  0  0  0  0  0  0  0  0  0  0  0
    1.2264   -3.4322    0.2481 C   0  0  0  0  0  0  0  0  0  0  0  0
    0.6154   -1.1326    0.9742 C   0  0  0  0  0  0  0  0  0  0  0  0
   -1.4868    0.1177    1.1049 C   0  0  0  0  0  0  0  0  0  0  0  0
   -3.4686   -1.0189    0.0479 C   0  0  0  0  0  0  0  0  0  0  0  0
   -3.3148    1.3678   -0.0729 C   0  0  0  0  0  0  0  0  0  0  0  0
    2.0535    2.6916   -1.1949 O   0  0  0  0  0  0  0  0  0  0  0  0
    4.0581    2.3693   -0.0611 C   0  0  0  0  0  0  0  0  0  0  0  0
    4.8555    1.4498    0.6102 C   0  0  0  0  0  0  0  0  0  0  0  0
    6.0062    1.8803    1.1073 O   0  0  0  0  0  0  0  0  0  0  0  0
    4.5095    0.1820    0.7702 N   0  0  0  0  0  0  0  0  0  0  0  0
    2.5161    0.5902   -0.4135 N   0  0  0  0  0  0  0  0  0  0  0  0
    1.5287   -1.9376    0.0718 C   0  0  1  0  0  0  0  0  0  0  0  0
    0.8546   -0.9636    2.1622 O   0  0  0  0  0  0  0  0  0  0  0  0
   -0.5094   -0.6771    0.3948 N   0  0  0  0  0  0  0  0  0  0  0  0
   -2.7827    0.1570    0.3444 C   0  0  0  0  0  0  0  0  0  0  0  0
   -4.6632   -0.9831   -0.6471 C   0  0  0  0  0  0  0  0  0  0  0  0
   -5.1925    0.2329   -1.0590 C   0  0  0  0  0  0  0  0  0  0  0  0
   -6.6813    0.2634   -1.9229 Cl  0  0  0  0  0  0  0  0  0  0  0  0
   -4.5156    1.4097   -0.7686 C   0  0  0  0  0  0  0  0  0  0  0  0
   -5.1452    2.9323   -1.2701 Cl  0  0  0  0  0  0  0  0  0  0  0  0
    0.9605    1.4088   -2.4298 H   0  0  0  0  0  0  0  0  0  0  0  0
    0.2016    1.7875   -0.8738 H   0  0  0  0  0  0  0  0  0  0  0  0
    0.3070    3.0352   -2.1327 H   0  0  0  0  0  0  0  0  0  0  0  0
    6.3220    0.5993    2.7246 H   0  0  0  0  0  0  0  0  0  0  0  0
    7.1103    0.1081    1.2140 H   0  0  0  0  0  0  0  0  0  0  0  0
    7.7115    1.5190    2.1100 H   0  0  0  0  0  0  0  0  0  0  0  0
    3.1955   -1.9360    1.4226 H   0  0  0  0  0  0  0  0  0  0  0  0
    3.7694   -2.2016   -1.5581 H   0  0  0  0  0  0  0  0  0  0  0  0
    4.9508   -2.3017   -0.2621 H   0  0  0  0  0  0  0  0  0  0  0  0
    4.2380   -4.5652   -1.0349 H   0  0  0  0  0  0  0  0  0  0  0  0
    3.8571   -4.3058    0.6567 H   0  0  0  0  0  0  0  0  0  0  0  0
    1.9077   -4.0917   -1.6837 H   0  0  0  0  0  0  0  0  0  0  0  0
    1.9236   -5.3442   -0.4575 H   0  0  0  0  0  0  0  0  0  0  0  0
    0.1785   -3.6240    0.0056 H   0  0  0  0  0  0  0  0  0  0  0  0
    1.3641   -3.7088    1.2987 H   0  0  0  0  0  0  0  0  0  0  0  0
   -1.6522   -0.3229    2.0899 H   0  0  0  0  0  0  0  0  0  0  0  0
   -1.1216    1.1356    1.2728 H   0  0  0  0  0  0  0  0  0  0  0  0
   -2.7968    2.2934    0.1427 H   0  0  0  0  0  0  0  0  0  0  0  0
    4.3432    3.4048   -0.1821 H   0  0  0  0  0  0  0  0  0  0  0  0
    1.3335   -1.6685   -0.9718 H   0  0  0  0  0  0  0  0  0  0  0  0
   -0.5832   -0.7287   -0.6083 H   0  0  0  0  0  0  0  0  0  0  0  0
   -5.1919   -1.8997   -0.8701 H   0  0  0  0  0  0  0  0  0  0  0  0
   -3.0718   -1.9758    0.3623 H   0  0  0  0  0  0  0  0  0  0  0  0
  1 14  1  0
 14  2  1  0
 15  2  2  0
 15 16  1  0
  2 19  1  0
 17 16  1  0
 17  3  1  0
 16 18  2  0
 19  4  2  0
 18  4  1  0
  6  5  1  0
  6  7  1  0
  4  5  1  0
  5 20  1  0
  7  8  1  0
  8  9  1  0
 24 12  2  0
 24 25  1  0
 12 23  1  0
 20  9  1  0
 20 10  1  0
 22 10  1  0
 22 11  1  0
 10 21  2  0
 26 25  1  0
 25 27  2  0
 23 11  1  0
 23 13  2  0
 27 13  1  0
 27 28  1  0
  1 29  1  0
  1 30  1  0
  1 31  1  0
  3 32  1  0
  3 33  1  0
  3 34  1  0
  5 35  1  1
  6 36  1  0
  6 37  1  0
  7 38  1  0
  7 39  1  0
  8 40  1  0
  8 41  1  0
  9 42  1  0
  9 43  1  0
 11 44  1  0
 11 45  1  0
 12 51  1  0
 13 46  1  0
 15 47  1  0
 20 48  1  6
 22 49  1  0
 24 50  1  0
M  END
