
     RDKit          3D

 25 26  0  0  0  0  0  0  0  0999 V2000
   -3.5339    1.1178    0.4517 C   0  0  0  0  0  0  0  0  0  0  0  0
   -4.2054    0.0012   -0.0078 C   0  0  0  0  0  0  0  0  0  0  0  0
   -3.5372   -1.1157   -0.4711 C   0  0  0  0  0  0  0  0  0  0  0  0
   -2.1514   -1.1078   -0.4696 C   0  0  0  0  0  0  0  0  0  0  0  0
   -1.4344    0.0003   -0.0158 C   0  0  0  0  0  0  0  0  0  0  0  0
   -2.1482    1.1089    0.4421 C   0  0  0  0  0  0  0  0  0  0  0  0
    0.7567   -1.1626    0.2751 C   0  0  0  0  0  0  0  0  0  0  0  0
    0.0403   -0.0002   -0.0187 C   0  0  0  0  0  0  0  0  0  0  0  0
    0.7557    1.1617   -0.3136 C   0  0  0  0  0  0  0  0  0  0  0  0
    2.1396    1.1673   -0.3110 C   0  0  0  0  0  0  0  0  0  0  0  0
    2.8459    0.0023   -0.0162 C   0  0  0  0  0  0  0  0  0  0  0  0
    2.1390   -1.1627    0.2741 C   0  0  0  0  0  0  0  0  0  0  0  0
   -5.5467    0.0016   -0.0036 F   0  0  0  0  0  0  0  0  0  0  0  0
    4.3271   -0.0466   -0.0000 C   0  0  0  0  0  0  0  0  0  0  0  0
    4.8888    1.1311   -0.2346 O   0  0  0  0  0  0  0  0  0  0  0  0
    4.9639   -1.0524    0.2075 O   0  0  0  0  0  0  0  0  0  0  0  0
   -4.0794    1.9769    0.8190 H   0  0  0  0  0  0  0  0  0  0  0  0
   -4.0854   -1.9745   -0.8352 H   0  0  0  0  0  0  0  0  0  0  0  0
   -1.6263   -1.9744   -0.8497 H   0  0  0  0  0  0  0  0  0  0  0  0
   -1.6203    1.9748    0.8202 H   0  0  0  0  0  0  0  0  0  0  0  0
    0.2285    2.0716   -0.5700 H   0  0  0  0  0  0  0  0  0  0  0  0
    2.6574    2.0852   -0.5524 H   0  0  0  0  0  0  0  0  0  0  0  0
    2.6702   -2.0740    0.5137 H   0  0  0  0  0  0  0  0  0  0  0  0
    5.8534    1.0458   -0.2156 H   0  0  0  0  0  0  0  0  0  0  0  0
    0.2306   -2.0734    0.5305 H   0  0  0  0  0  0  0  0  0  0  0  0
  1  2  2  0
  1  6  1  0
  1 17  1  0
  2  3  1  0
  2 13  1  0
  3  4  2  0
  3 18  1  0
  4  5  1  0
  4 19  1  0
  5  6  2  0
  5  8  1  0
  6 20  1  0
  7  8  2  0
  7 12  1  0
  7 25  1  0
  8  9  1  0
  9 10  2  0
  9 21  1  0
 10 11  1  0
 10 22  1  0
 11 12  2  0
 11 14  1  0
 12 23  1  0
 14 15  1  0
 14 16  2  0
 15 24  1  0
M  END
