
     RDKit          3D

 50 52  0  0  0  0  0  0  0  0999 V2000
   -7.0500   -0.3205   -1.1231 C   0  0  0  0  0  0  0  0  0  0  0  0
   -7.9585   -1.2988   -0.7476 C   0  0  0  0  0  0  0  0  0  0  0  0
   -8.0846   -1.6769    0.5928 C   0  0  0  0  0  0  0  0  0  0  0  0
   -9.0248   -2.6061    0.9843 N   0  0  0  0  0  0  0  0  0  0  0  0
   -7.2644   -1.0402    1.5348 C   0  0  0  0  0  0  0  0  0  0  0  0
   -6.3652   -0.0646    1.1439 C   0  0  0  0  0  0  0  0  0  0  0  0
   -6.2414    0.3189   -0.1908 C   0  0  0  0  0  0  0  0  0  0  0  0
   -5.2586    1.3787   -0.6047 C   0  0  0  0  0  0  0  0  0  0  0  0
   -3.9002    0.9210   -0.3928 N   0  0  0  0  0  0  0  0  0  0  0  0
   -2.8484    1.7823   -0.4080 C   0  0  0  0  0  0  0  0  0  0  0  0
   -2.9872    3.0016   -0.4480 O   0  0  0  0  0  0  0  0  0  0  0  0
   -1.6262    1.1937   -0.3677 N   0  0  0  0  0  0  0  0  0  0  0  0
   -0.4323    1.9767   -0.2403 C   0  0  0  0  0  0  0  0  0  0  0  0
    0.7444    1.0577    0.0374 C   0  0  0  0  0  0  0  0  0  0  0  0
    0.5854   -0.1304    0.2831 O   0  0  0  0  0  0  0  0  0  0  0  0
    1.9595    1.6236   -0.0082 N   0  0  0  0  0  0  0  0  0  0  0  0
    2.2398    3.0509   -0.1415 C   0  0  0  0  0  0  0  0  0  0  0  0
    3.5622    3.2046    0.5953 C   0  0  0  0  0  0  0  0  0  0  0  0
    4.2750    1.8952    0.2865 C   0  0  0  0  0  0  0  0  0  0  0  0
    3.1515    0.8455    0.3167 C   0  0  2  0  0  0  0  0  0  0  0  0
    3.4126   -0.2828   -0.6528 C   0  0  0  0  0  0  0  0  0  0  0  0
    3.0134   -0.1652   -1.9835 C   0  0  0  0  0  0  0  0  0  0  0  0
    3.2821   -1.1510   -2.9173 C   0  0  0  0  0  0  0  0  0  0  0  0
    3.9718   -2.2942   -2.5379 C   0  0  0  0  0  0  0  0  0  0  0  0
    4.3930   -2.4360   -1.2262 C   0  0  0  0  0  0  0  0  0  0  0  0
    4.1149   -1.4334   -0.3042 C   0  0  0  0  0  0  0  0  0  0  0  0
    4.7544   -1.6879    1.4646 Br  0  0  0  0  0  0  0  0  0  0  0  0
   -6.9758   -0.0502   -2.1702 H   0  0  0  0  0  0  0  0  0  0  0  0
   -8.5783   -1.7734   -1.4993 H   0  0  0  0  0  0  0  0  0  0  0  0
   -9.3066   -3.2673    0.2785 H   0  0  0  0  0  0  0  0  0  0  0  0
   -8.8552   -3.0551    1.8698 H   0  0  0  0  0  0  0  0  0  0  0  0
   -7.3379   -1.3154    2.5807 H   0  0  0  0  0  0  0  0  0  0  0  0
   -5.7442    0.4073    1.8968 H   0  0  0  0  0  0  0  0  0  0  0  0
   -5.4335    1.6481   -1.6521 H   0  0  0  0  0  0  0  0  0  0  0  0
   -5.4135    2.2841   -0.0162 H   0  0  0  0  0  0  0  0  0  0  0  0
   -3.7258   -0.0568   -0.5642 H   0  0  0  0  0  0  0  0  0  0  0  0
   -1.5374    0.2060   -0.1829 H   0  0  0  0  0  0  0  0  0  0  0  0
   -0.2369    2.5613   -1.1446 H   0  0  0  0  0  0  0  0  0  0  0  0
   -0.5112    2.6994    0.5804 H   0  0  0  0  0  0  0  0  0  0  0  0
    2.3392    3.3302   -1.1946 H   0  0  0  0  0  0  0  0  0  0  0  0
    1.4486    3.6580    0.2959 H   0  0  0  0  0  0  0  0  0  0  0  0
    4.1181    4.0801    0.2632 H   0  0  0  0  0  0  0  0  0  0  0  0
    3.3847    3.3040    1.6679 H   0  0  0  0  0  0  0  0  0  0  0  0
    4.7177    1.9365   -0.7111 H   0  0  0  0  0  0  0  0  0  0  0  0
    5.0677    1.6542    0.9928 H   0  0  0  0  0  0  0  0  0  0  0  0
    3.0382    0.4485    1.3287 H   0  0  0  0  0  0  0  0  0  0  0  0
    2.4755    0.7221   -2.2939 H   0  0  0  0  0  0  0  0  0  0  0  0
    2.9526   -1.0263   -3.9402 H   0  0  0  0  0  0  0  0  0  0  0  0
    4.1875   -3.0731   -3.2568 H   0  0  0  0  0  0  0  0  0  0  0  0
    4.9362   -3.3226   -0.9271 H   0  0  0  0  0  0  0  0  0  0  0  0
 27 26  1  0
 25 26  2  0
 25 24  1  0
 26 21  1  0
 24 23  2  0
 21 20  1  0
 21 22  2  0
 20 19  1  0
 20 16  1  0
 19 18  1  0
 11 10  2  0
 13 12  1  0
 13 14  1  0
 23 22  1  0
 10 12  1  0
 10  9  1  0
  8  9  1  0
  8  7  1  0
 16 14  1  0
 16 17  1  0
 18 17  1  0
 14 15  2  0
  7  6  1  0
  7  1  2  0
  6  5  2  0
  1  2  1  0
  5  3  1  0
  2  3  2  0
  3  4  1  0
  1 28  1  0
  2 29  1  0
  4 30  1  0
  4 31  1  0
  5 32  1  0
  6 33  1  0
  8 34  1  0
  8 35  1  0
  9 36  1  0
 12 37  1  0
 13 38  1  0
 13 39  1  0
 17 40  1  0
 17 41  1  0
 18 42  1  0
 18 43  1  0
 19 44  1  0
 19 45  1  0
 20 46  1  1
 22 47  1  0
 23 48  1  0
 24 49  1  0
 25 50  1  0
M  END
