
     RDKit          3D

 40 43  0  0  0  0  0  0  0  0999 V2000
    4.6106   -1.5593   -0.8712 C   0  0  0  0  0  0  0  0  0  0  0  0
    2.3099   -2.5667    0.4295 C   0  0  0  0  0  0  0  0  0  0  0  0
   -0.6292   -0.0886    0.4243 C   0  0  0  0  0  0  0  0  0  0  0  0
   -4.4109    1.3595   -1.3180 C   0  0  0  0  0  0  0  0  0  0  0  0
   -5.3836    0.3779   -1.2366 C   0  0  0  0  0  0  0  0  0  0  0  0
   -5.2008   -0.7191   -0.4096 C   0  0  0  0  0  0  0  0  0  0  0  0
    3.9607    3.0978   -0.4966 C   0  0  0  0  0  0  0  0  0  0  0  0
    4.3714    1.7943   -0.7191 C   0  0  0  0  0  0  0  0  0  0  0  0
    3.5746    0.7502   -0.2570 C   0  0  0  0  0  0  0  0  0  0  0  0
    2.3789    1.0349    0.4292 C   0  0  0  0  0  0  0  0  0  0  0  0
    1.9531    2.3409    0.6456 C   0  0  0  0  0  0  0  0  0  0  0  0
    2.7617    3.3625    0.1750 C   0  0  0  0  0  0  0  0  0  0  0  0
    2.5357   -1.1981    0.3271 C   0  0  0  0  0  0  0  0  0  0  0  0
    3.6755   -0.6857   -0.3230 C   0  0  0  0  0  0  0  0  0  0  0  0
    4.3944   -2.9230   -0.7682 C   0  0  0  0  0  0  0  0  0  0  0  0
    3.2535   -3.4160   -0.1253 C   0  0  0  0  0  0  0  0  0  0  0  0
   -3.0339    0.1238    0.2597 C   0  0  0  0  0  0  0  0  0  0  0  0
   -3.2502    1.2360   -0.5614 C   0  0  0  0  0  0  0  0  0  0  0  0
   -4.0289   -0.8455    0.3214 C   0  0  0  0  0  0  0  0  0  0  0  0
   -2.2879    2.2881   -0.5852 C   0  0  0  0  0  0  0  0  0  0  0  0
    1.7818   -0.1481    0.8016 N   0  0  0  0  0  0  0  0  0  0  0  0
   -1.8564    0.0064    1.0035 N   0  0  0  0  0  0  0  0  0  0  0  0
   -1.5396    3.1633   -0.5979 N   0  0  0  0  0  0  0  0  0  0  0  0
   -0.4493   -0.0414   -0.7705 O   0  0  0  0  0  0  0  0  0  0  0  0
   -3.7915   -2.2298    1.3199 Cl  0  0  0  0  0  0  0  0  0  0  0  0
    5.4932   -1.1797   -1.3711 H   0  0  0  0  0  0  0  0  0  0  0  0
    1.4303   -2.9687    0.9154 H   0  0  0  0  0  0  0  0  0  0  0  0
   -4.5522    2.2248   -1.9501 H   0  0  0  0  0  0  0  0  0  0  0  0
   -6.2932    0.4675   -1.8135 H   0  0  0  0  0  0  0  0  0  0  0  0
   -5.9614   -1.4843   -0.3401 H   0  0  0  0  0  0  0  0  0  0  0  0
    4.5673    3.9217   -0.8489 H   0  0  0  0  0  0  0  0  0  0  0  0
    5.2942    1.5912   -1.2483 H   0  0  0  0  0  0  0  0  0  0  0  0
    1.0224    2.5673    1.1494 H   0  0  0  0  0  0  0  0  0  0  0  0
    2.4533    4.3886    0.3269 H   0  0  0  0  0  0  0  0  0  0  0  0
    5.1110   -3.6156   -1.1895 H   0  0  0  0  0  0  0  0  0  0  0  0
    3.0996   -4.4853   -0.0604 H   0  0  0  0  0  0  0  0  0  0  0  0
    0.4119    0.5037    2.2143 H   0  0  0  0  0  0  0  0  0  0  0  0
    0.4138   -1.2139    1.9294 H   0  0  0  0  0  0  0  0  0  0  0  0
   -1.9414   -0.1470    1.9987 H   0  0  0  0  0  0  0  0  0  0  0  0
    0.5055   -0.2484    1.4268 C   0  0  0  0  0  0  0  0  0  0  0  0
 23 20  3  0
  4  5  2  0
  4 18  1  0
 20 18  1  0
  5  6  1  0
 18 17  2  0
  6 19  2  0
 17 19  1  0
 17 22  1  0
 24  3  2  0
 19 25  1  0
 22  3  1  0
  3 40  1  0
 12 11  2  0
 12  7  1  0
 11 10  1  0
 40 21  1  0
  7  8  2  0
 10 21  1  0
 10  9  2  0
 21 13  1  0
  8  9  1  0
  9 14  1  0
 13 14  1  0
 13  2  2  0
 14  1  2  0
  2 16  1  0
  1 15  1  0
 16 15  2  0
  1 26  1  0
  2 27  1  0
  4 28  1  0
  5 29  1  0
  6 30  1  0
  7 31  1  0
  8 32  1  0
 11 33  1  0
 12 34  1  0
 15 35  1  0
 16 36  1  0
 40 37  1  0
 40 38  1  0
 22 39  1  0
M  END
