
     RDKit          3D

 30 31  0  0  0  0  0  0  0  0999 V2000
    2.6082   -1.7413    1.1407 O   0  0  0  0  0  0  0  0  0  0  0  0
    3.1204   -0.7874    0.6156 C   0  0  0  0  0  0  0  0  0  0  0  0
    4.3651   -0.2841    0.8900 N   0  0  0  0  0  0  0  0  0  0  0  0
    4.6466    0.9078    0.2602 C   0  0  0  0  0  0  0  0  0  0  0  0
    5.6907    1.5018    0.3498 O   0  0  0  0  0  0  0  0  0  0  0  0
    3.4134    1.3189   -0.5063 C   0  0  0  0  0  0  0  0  0  0  0  0
    2.5237    0.0787   -0.4910 C   0  0  2  0  0  0  0  0  0  0  0  0
    1.1309    0.3359   -0.3061 N   0  0  0  0  0  0  0  0  0  0  0  0
    0.1798   -0.4478   -0.8624 C   0  0  0  0  0  0  0  0  0  0  0  0
    0.3884   -1.3340   -1.6630 O   0  0  0  0  0  0  0  0  0  0  0  0
   -1.0302   -0.0935   -0.4300 O   0  0  0  0  0  0  0  0  0  0  0  0
   -2.1483   -0.8196   -0.9607 C   0  0  0  0  0  0  0  0  0  0  0  0
   -3.3766   -0.2682   -0.3042 C   0  0  0  0  0  0  0  0  0  0  0  0
   -3.7901   -0.7511    0.9347 C   0  0  0  0  0  0  0  0  0  0  0  0
   -4.9128   -0.2246    1.5575 C   0  0  0  0  0  0  0  0  0  0  0  0
   -5.6336    0.7935    0.9455 C   0  0  0  0  0  0  0  0  0  0  0  0
   -5.2283    1.2804   -0.2902 C   0  0  0  0  0  0  0  0  0  0  0  0
   -4.1037    0.7516   -0.9099 C   0  0  0  0  0  0  0  0  0  0  0  0
    5.0070   -0.7234    1.5385 H   0  0  0  0  0  0  0  0  0  0  0  0
    2.9501    2.1547    0.0254 H   0  0  0  0  0  0  0  0  0  0  0  0
    3.6679    1.6645   -1.5062 H   0  0  0  0  0  0  0  0  0  0  0  0
    2.6545   -0.4778   -1.4224 H   0  0  0  0  0  0  0  0  0  0  0  0
    0.8602    0.9800    0.4219 H   0  0  0  0  0  0  0  0  0  0  0  0
   -2.1957   -0.6921   -2.0439 H   0  0  0  0  0  0  0  0  0  0  0  0
   -2.0369   -1.8844   -0.7471 H   0  0  0  0  0  0  0  0  0  0  0  0
   -3.2325   -1.5475    1.4136 H   0  0  0  0  0  0  0  0  0  0  0  0
   -5.2259   -0.6100    2.5190 H   0  0  0  0  0  0  0  0  0  0  0  0
   -6.5103    1.2038    1.4298 H   0  0  0  0  0  0  0  0  0  0  0  0
   -5.7887    2.0701   -0.7734 H   0  0  0  0  0  0  0  0  0  0  0  0
   -3.7938    1.1327   -1.8758 H   0  0  0  0  0  0  0  0  0  0  0  0
  1  2  2  0
  2  3  1  0
  2  7  1  0
  3  4  1  0
 10  9  2  0
  7  8  1  0
  7  6  1  0
  4  5  2  0
  4  6  1  0
  9 11  1  0
  9  8  1  0
 12 11  1  0
 12 13  1  0
 14 13  2  0
 14 15  1  0
 13 18  1  0
 15 16  2  0
 18 17  2  0
 16 17  1  0
  3 19  1  0
  6 20  1  0
  6 21  1  0
  7 22  1  6
  8 23  1  0
 12 24  1  0
 12 25  1  0
 14 26  1  0
 15 27  1  0
 16 28  1  0
 17 29  1  0
 18 30  1  0
M  END
