
     RDKit          3D

 24 25  0  0  0  0  0  0  0  0999 V2000
    4.2273   -0.6902   -0.3809 C   0  0  0  0  0  0  0  0  0  0  0  0
    2.6354    1.2684   -0.2668 C   0  0  0  0  0  0  0  0  0  0  0  0
    1.3734    1.8250   -0.1805 C   0  0  0  0  0  0  0  0  0  0  0  0
    0.2791    0.9675   -0.1193 C   0  0  0  0  0  0  0  0  0  0  0  0
    2.8345   -0.1212   -0.2978 C   0  0  0  0  0  0  0  0  0  0  0  0
    1.7388   -0.9625   -0.2261 C   0  0  0  0  0  0  0  0  0  0  0  0
    0.4482   -0.4300   -0.1419 C   0  0  0  0  0  0  0  0  0  0  0  0
   -0.8087   -1.1123   -0.0689 C   0  0  0  0  0  0  0  0  0  0  0  0
   -1.8800   -0.2801    0.0040 C   0  0  0  0  0  0  0  0  0  0  0  0
   -3.3929   -0.6459    0.0900 B   0  0  0  0  0  0  0  0  0  0  0  0
   -3.7150   -1.9646    0.1025 O   0  0  0  0  0  0  0  0  0  0  0  0
   -4.2632    0.3959    0.1442 O   0  0  0  0  0  0  0  0  0  0  0  0
   -1.3947    1.3914   -0.0122 S   0  0  0  0  0  0  0  0  0  0  0  0
    4.5513   -1.4381    0.8261 N   0  0  0  0  0  0  0  0  0  0  0  0
    4.2825   -1.3824   -1.2251 H   0  0  0  0  0  0  0  0  0  0  0  0
    4.9307    0.1228   -0.6040 H   0  0  0  0  0  0  0  0  0  0  0  0
    1.2454    2.8994   -0.1599 H   0  0  0  0  0  0  0  0  0  0  0  0
    1.8755   -2.0378   -0.2387 H   0  0  0  0  0  0  0  0  0  0  0  0
   -0.8969   -2.1906   -0.0736 H   0  0  0  0  0  0  0  0  0  0  0  0
   -4.6540   -2.1682    0.1587 H   0  0  0  0  0  0  0  0  0  0  0  0
   -5.1976    0.1700    0.1913 H   0  0  0  0  0  0  0  0  0  0  0  0
    5.4801   -1.8306    0.7347 H   0  0  0  0  0  0  0  0  0  0  0  0
    4.5963   -0.8020    1.6127 H   0  0  0  0  0  0  0  0  0  0  0  0
    3.4959    1.9250   -0.3142 H   0  0  0  0  0  0  0  0  0  0  0  0
 12 10  1  0
  2  3  2  0
  2  5  1  0
  3  4  1  0
  1  5  1  0
  1 14  1  0
  5  6  2  0
  4 13  1  0
  4  7  2  0
 13  9  1  0
  6  7  1  0
  7  8  1  0
  9  8  2  0
  9 10  1  0
 10 11  1  0
  1 15  1  0
  1 16  1  0
  2 24  1  0
  3 17  1  0
  6 18  1  0
  8 19  1  0
 11 20  1  0
 12 21  1  0
 14 22  1  0
 14 23  1  0
M  END
