
     RDKit          3D

 22 22  0  0  0  0  0  0  0  0999 V2000
    1.9593   -0.3322   -0.7654 C   0  0  0  0  0  0  0  0  0  0  0  0
    2.8353   -0.3212   -1.9988 C   0  0  2  0  0  0  0  0  0  0  0  0
    2.1363   -1.1270   -3.1062 C   0  0  2  0  0  0  0  0  0  0  0  0
    0.7084   -0.6109   -3.3561 C   0  0  1  0  0  0  0  0  0  0  0  0
   -0.1459   -0.5247   -2.0813 C   0  0  2  0  0  0  0  0  0  0  0  0
    0.5725    0.2670   -0.9831 C   0  0  2  0  0  0  0  0  0  0  0  0
    2.3287   -0.7607    0.2982 O   0  0  0  0  0  0  0  0  0  0  0  0
    4.0950   -0.8204   -1.6733 O   0  0  0  0  0  0  0  0  0  0  0  0
    2.1484   -2.4718   -2.7157 O   0  0  0  0  0  0  0  0  0  0  0  0
    0.7327    0.7010   -3.8861 O   0  0  0  0  0  0  0  0  0  0  0  0
   -0.4120   -1.7832   -1.5246 O   0  0  0  0  0  0  0  0  0  0  0  0
    0.6836    1.6408   -1.2670 O   0  0  0  0  0  0  0  0  0  0  0  0
    2.8978    0.7194   -2.3466 H   0  0  0  0  0  0  0  0  0  0  0  0
    2.7108   -0.9859   -4.0368 H   0  0  0  0  0  0  0  0  0  0  0  0
    0.2157   -1.2957   -4.0634 H   0  0  0  0  0  0  0  0  0  0  0  0
   -1.0749    0.0063   -2.3386 H   0  0  0  0  0  0  0  0  0  0  0  0
    0.0051    0.1673   -0.0530 H   0  0  0  0  0  0  0  0  0  0  0  0
    4.6904   -0.6349   -2.4064 H   0  0  0  0  0  0  0  0  0  0  0  0
    1.8184   -3.0078   -3.4440 H   0  0  0  0  0  0  0  0  0  0  0  0
    1.2775    0.7209   -4.6807 H   0  0  0  0  0  0  0  0  0  0  0  0
   -0.7675   -2.3623   -2.2058 H   0  0  0  0  0  0  0  0  0  0  0  0
    0.7874    1.7552   -2.2219 H   0  0  0  0  0  0  0  0  0  0  0  0
  1  2  1  0
  1  6  1  0
  1  7  2  0
  2  3  1  0
  2  8  1  0
  2 13  1  6
  3  4  1  0
  3  9  1  0
  3 14  1  6
  4  5  1  0
  4 10  1  0
  4 15  1  6
  5  6  1  0
  5 11  1  0
  5 16  1  6
  6 12  1  0
  6 17  1  1
  8 18  1  0
  9 19  1  0
 10 20  1  0
 11 21  1  0
 12 22  1  0
M  END
