
     RDKit          3D

 60 64  0  0  0  0  0  0  0  0999 V2000
   -3.8469    2.9235    0.8575 C   0  0  0  0  0  0  0  0  0  0  0  0
   -5.0067    2.9782   -0.0069 N   0  0  0  0  0  0  0  0  0  0  0  0
   -5.2713    3.9220   -0.9347 C   0  0  0  0  0  0  0  0  0  0  0  0
   -6.0031    2.0466   -0.0913 C   0  0  0  0  0  0  0  0  0  0  0  0
   -6.8359    2.4902   -1.0783 C   0  0  0  0  0  0  0  0  0  0  0  0
   -6.3693    3.6641   -1.5981 N   0  0  0  0  0  0  0  0  0  0  0  0
   -2.8002    1.9407    0.3511 C   0  0  0  0  0  0  0  0  0  0  0  0
   -1.5817    1.9419    1.2645 C   0  0  0  0  0  0  0  0  0  0  0  0
    0.3289    1.2934   -0.2025 C   0  0  0  0  0  0  0  0  0  0  0  0
    1.0958    0.1974   -0.3889 N   0  0  0  0  0  0  0  0  0  0  0  0
    0.7248   -0.9033    0.4884 C   0  0  1  0  0  0  0  0  0  0  0  0
   -0.3712   -0.2387    1.3305 C   0  0  0  0  0  0  0  0  0  0  0  0
   -0.5708    1.0060    0.8195 N   0  0  0  0  0  0  0  0  0  0  0  0
   -0.9623   -0.7270    2.2617 O   0  0  0  0  0  0  0  0  0  0  0  0
    2.1942    0.1639   -1.3311 C   0  0  0  0  0  0  0  0  0  0  0  0
    3.5359    0.5511   -0.7567 C   0  0  0  0  0  0  0  0  0  0  0  0
    3.7274    1.7812   -0.1406 C   0  0  0  0  0  0  0  0  0  0  0  0
    4.9799    2.1127    0.3708 C   0  0  0  0  0  0  0  0  0  0  0  0
    6.0563    1.2312    0.2673 C   0  0  0  0  0  0  0  0  0  0  0  0
    5.8636    0.0131   -0.3579 C   0  0  0  0  0  0  0  0  0  0  0  0
    4.6139   -0.3215   -0.8630 C   0  0  0  0  0  0  0  0  0  0  0  0
    5.1647    3.3794    1.0036 C   0  0  0  0  0  0  0  0  0  0  0  0
    5.3141    4.4015    1.5138 N   0  0  0  0  0  0  0  0  0  0  0  0
   -0.7249   -2.8418   -2.4734 C   0  0  0  0  0  0  0  0  0  0  0  0
   -0.9205   -4.0979   -1.9857 C   0  0  0  0  0  0  0  0  0  0  0  0
   -0.6807   -4.3720   -0.6205 C   0  0  0  0  0  0  0  0  0  0  0  0
   -0.2108   -3.3442    0.2509 C   0  0  0  0  0  0  0  0  0  0  0  0
    0.0833   -2.0560   -0.3096 C   0  0  0  0  0  0  0  0  0  0  0  0
   -0.2220   -1.8337   -1.6313 C   0  0  0  0  0  0  0  0  0  0  0  0
   -0.9402   -5.6687   -0.1172 C   0  0  0  0  0  0  0  0  0  0  0  0
   -0.7849   -5.9565    1.2086 C   0  0  0  0  0  0  0  0  0  0  0  0
   -0.3826   -4.9359    2.0884 C   0  0  0  0  0  0  0  0  0  0  0  0
   -0.1100   -3.6763    1.6269 C   0  0  0  0  0  0  0  0  0  0  0  0
    1.9381   -1.3010    1.3348 C   0  0  0  0  0  0  0  0  0  0  0  0
   -4.1750    2.6535    1.8623 H   0  0  0  0  0  0  0  0  0  0  0  0
   -3.4291    3.9292    0.9159 H   0  0  0  0  0  0  0  0  0  0  0  0
   -4.6287    4.7789   -1.0764 H   0  0  0  0  0  0  0  0  0  0  0  0
   -6.0337    1.1783    0.5458 H   0  0  0  0  0  0  0  0  0  0  0  0
   -7.7439    2.0280   -1.4336 H   0  0  0  0  0  0  0  0  0  0  0  0
   -2.5046    2.2169   -0.6633 H   0  0  0  0  0  0  0  0  0  0  0  0
   -3.2252    0.9349    0.3067 H   0  0  0  0  0  0  0  0  0  0  0  0
   -1.8597    1.6666    2.2813 H   0  0  0  0  0  0  0  0  0  0  0  0
   -1.1334    2.9348    1.3103 H   0  0  0  0  0  0  0  0  0  0  0  0
    2.2589   -0.8398   -1.7522 H   0  0  0  0  0  0  0  0  0  0  0  0
    1.9424    0.8255   -2.1614 H   0  0  0  0  0  0  0  0  0  0  0  0
    2.9173    2.4937   -0.0602 H   0  0  0  0  0  0  0  0  0  0  0  0
    7.0234    1.5016    0.6686 H   0  0  0  0  0  0  0  0  0  0  0  0
    6.6872   -0.6816   -0.4486 H   0  0  0  0  0  0  0  0  0  0  0  0
    4.4753   -1.2828   -1.3432 H   0  0  0  0  0  0  0  0  0  0  0  0
   -0.9332   -2.6092   -3.5090 H   0  0  0  0  0  0  0  0  0  0  0  0
   -1.2782   -4.8947   -2.6268 H   0  0  0  0  0  0  0  0  0  0  0  0
   -0.0660   -0.8594   -2.0711 H   0  0  0  0  0  0  0  0  0  0  0  0
   -1.2785   -6.4310   -0.8086 H   0  0  0  0  0  0  0  0  0  0  0  0
   -0.9900   -6.9504    1.5838 H   0  0  0  0  0  0  0  0  0  0  0  0
   -0.2994   -5.1407    3.1478 H   0  0  0  0  0  0  0  0  0  0  0  0
    0.1377   -2.9215    2.3523 H   0  0  0  0  0  0  0  0  0  0  0  0
    2.4288   -0.4065    1.7152 H   0  0  0  0  0  0  0  0  0  0  0  0
    1.6800   -1.9175    2.1871 H   0  0  0  0  0  0  0  0  0  0  0  0
    2.6542   -1.8591    0.7333 H   0  0  0  0  0  0  0  0  0  0  0  0
    0.3933    2.3531   -0.7861 O   0  0  0  0  0  0  0  0  0  0  0  0
  1  2  1  0
  1  7  1  0
  1 35  1  0
  1 36  1  0
  2  3  1  0
  2  4  1  0
  3  6  2  0
  3 37  1  0
  4  5  2  0
  4 38  1  0
  5  6  1  0
  5 39  1  0
  7  8  1  0
  7 40  1  0
  7 41  1  0
  8 13  1  0
  8 42  1  0
  8 43  1  0
  9 10  1  0
  9 13  1  0
  9 60  2  0
 10 11  1  0
 10 15  1  0
 11 12  1  0
 11 28  1  0
 11 34  1  1
 12 13  1  0
 12 14  2  0
 15 16  1  0
 15 44  1  0
 15 45  1  0
 16 17  2  0
 16 21  1  0
 17 18  1  0
 17 46  1  0
 18 19  2  0
 18 22  1  0
 19 20  1  0
 19 47  1  0
 20 21  2  0
 20 48  1  0
 21 49  1  0
 22 23  3  0
 24 25  2  0
 24 29  1  0
 24 50  1  0
 25 26  1  0
 25 51  1  0
 26 27  2  0
 26 30  1  0
 27 28  1  0
 27 33  1  0
 28 29  2  0
 29 52  1  0
 30 31  2  0
 30 53  1  0
 31 32  1  0
 31 54  1  0
 32 33  2  0
 32 55  1  0
 33 56  1  0
 34 57  1  0
 34 58  1  0
 34 59  1  0
M  END
