
     RDKit          3D

 47 49  0  0  0  0  0  0  0  0999 V2000
    6.8425    0.1013   -0.3039 C   0  0  0  0  0  0  0  0  0  0  0  0
    5.8445   -1.0354   -0.1145 C   0  0  2  0  0  0  0  0  0  0  0  0
    4.4231   -0.4629   -0.0737 C   0  0  0  0  0  0  0  0  0  0  0  0
    0.9658   -1.5880    0.4235 C   0  0  0  0  0  0  0  0  0  0  0  0
    7.6331    0.4645    0.5301 O   0  0  0  0  0  0  0  0  0  0  0  0
    6.0981   -1.8435    1.0522 N   0  0  0  0  0  0  0  0  0  0  0  0
    0.9881   -2.6690    0.9926 O   0  0  0  0  0  0  0  0  0  0  0  0
    3.3767   -1.5653   -0.0408 C   0  0  0  0  0  0  0  0  0  0  0  0
    2.0484   -0.9912   -0.0924 N   0  0  0  0  0  0  0  0  0  0  0  0
   -0.3230   -0.8341    0.2665 C   0  0  0  0  0  0  0  0  0  0  0  0
   -0.3749    0.5513    0.2331 C   0  0  0  0  0  0  0  0  0  0  0  0
   -1.5073   -1.5523    0.1964 C   0  0  0  0  0  0  0  0  0  0  0  0
   -1.6194    1.1685    0.1248 C   0  0  0  0  0  0  0  0  0  0  0  0
   -2.7035   -0.8524    0.0677 C   0  0  0  0  0  0  0  0  0  0  0  0
   -1.7364    2.6469    0.1069 C   0  0  0  0  0  0  0  0  0  0  0  0
   -3.9992   -1.5660   -0.0403 C   0  0  0  0  0  0  0  0  0  0  0  0
   -2.9797    3.2694    0.0243 C   0  0  0  0  0  0  0  0  0  0  0  0
   -5.1990   -0.8665   -0.1479 C   0  0  0  0  0  0  0  0  0  0  0  0
   -0.6549    4.6585    0.1647 C   0  0  0  0  0  0  0  0  0  0  0  0
   -3.0288    4.6537    0.0145 C   0  0  0  0  0  0  0  0  0  0  0  0
   -5.0839   -3.5749   -0.1274 C   0  0  0  0  0  0  0  0  0  0  0  0
   -6.3793   -1.5843   -0.2494 C   0  0  0  0  0  0  0  0  0  0  0  0
   -1.8440    5.3698    0.0858 C   0  0  0  0  0  0  0  0  0  0  0  0
   -6.3278   -2.9696   -0.2402 C   0  0  0  0  0  0  0  0  0  0  0  0
   -2.7440    0.4735    0.0383 N   0  0  0  0  0  0  0  0  0  0  0  0
   -0.5999    3.3355    0.1755 N   0  0  0  0  0  0  0  0  0  0  0  0
   -3.9514   -2.8958   -0.0304 N   0  0  0  0  0  0  0  0  0  0  0  0
    5.9235   -1.6778   -0.9987 H   0  0  0  0  0  0  0  0  0  0  0  0
    4.3114    0.1796    0.8052 H   0  0  0  0  0  0  0  0  0  0  0  0
    4.2602    0.1689   -0.9499 H   0  0  0  0  0  0  0  0  0  0  0  0
    7.0099   -2.2776    0.9927 H   0  0  0  0  0  0  0  0  0  0  0  0
    6.1103   -1.2660    1.8841 H   0  0  0  0  0  0  0  0  0  0  0  0
    3.5292   -2.2485   -0.8833 H   0  0  0  0  0  0  0  0  0  0  0  0
    3.4701   -2.1534    0.8691 H   0  0  0  0  0  0  0  0  0  0  0  0
    1.9189   -0.1888   -0.6890 H   0  0  0  0  0  0  0  0  0  0  0  0
    0.5126    1.1629    0.3146 H   0  0  0  0  0  0  0  0  0  0  0  0
   -1.5093   -2.6318    0.2302 H   0  0  0  0  0  0  0  0  0  0  0  0
   -3.8820    2.6779   -0.0306 H   0  0  0  0  0  0  0  0  0  0  0  0
   -5.2036    0.2137   -0.1517 H   0  0  0  0  0  0  0  0  0  0  0  0
    0.2929    5.1821    0.2220 H   0  0  0  0  0  0  0  0  0  0  0  0
   -3.9802    5.1653   -0.0483 H   0  0  0  0  0  0  0  0  0  0  0  0
   -5.0010   -4.6559   -0.1166 H   0  0  0  0  0  0  0  0  0  0  0  0
   -7.3257   -1.0669   -0.3355 H   0  0  0  0  0  0  0  0  0  0  0  0
   -1.8354    6.4507    0.0811 H   0  0  0  0  0  0  0  0  0  0  0  0
   -7.2227   -3.5707   -0.3200 H   0  0  0  0  0  0  0  0  0  0  0  0
    6.7393    0.6581   -1.5050 O   0  0  0  0  0  0  0  0  0  0  0  0
    7.3677    1.3905   -1.5919 H   0  0  0  0  0  0  0  0  0  0  0  0
  8  3  1  0
  8  9  1  0
  6  2  1  0
  7  4  2  0
  3  2  1  0
  9  4  1  0
  4 10  1  0
  2  1  1  0
 10 12  2  0
 10 11  1  0
 12 14  1  0
 18 22  2  0
 18 16  1  0
  1  5  2  0
 22 24  1  0
 11 13  2  0
 14 16  1  0
 14 25  2  0
 16 27  2  0
 24 21  2  0
 13 25  1  0
 13 15  1  0
 27 21  1  0
 15 17  2  0
 15 26  1  0
 17 20  1  0
 26 19  2  0
 20 23  2  0
 19 23  1  0
  2 28  1  6
  3 29  1  0
  3 30  1  0
  6 31  1  0
  6 32  1  0
  8 33  1  0
  8 34  1  0
  9 35  1  0
 11 36  1  0
 12 37  1  0
 17 38  1  0
 18 39  1  0
 19 40  1  0
 20 41  1  0
 21 42  1  0
 22 43  1  0
 23 44  1  0
 24 45  1  0
  1 46  1  0
 46 47  1  0
M  END
