
     RDKit          3D

 28 28  0  0  0  0  0  0  0  0999 V2000
   -3.2907   -0.8555    1.3415 C   0  0  0  0  0  0  0  0  0  0  0  0
   -1.6202    0.3997   -0.0029 N   0  0  0  0  0  0  0  0  0  0  0  0
   -1.4138    1.6286   -0.1602 O   0  0  0  0  0  0  0  0  0  0  0  0
   -3.3289   -0.9334   -1.1794 C   0  0  0  0  0  0  0  0  0  0  0  0
    3.5407   -0.0253   -0.0698 N   0  0  0  0  0  0  0  0  0  0  0  0
    4.8050    0.0772   -0.1157 O   0  0  0  0  0  0  0  0  0  0  0  0
   -3.9808    1.1481    0.0338 C   0  0  0  0  0  0  0  0  0  0  0  0
   -3.0678   -0.0678    0.0519 C   0  0  1  0  0  0  0  0  0  0  0  0
   -0.6783   -0.4932    0.0912 C   0  0  0  0  0  0  0  0  0  0  0  0
    0.7403   -0.2497    0.0299 C   0  0  0  0  0  0  0  0  0  0  0  0
    1.3760    0.9811   -0.1757 C   0  0  0  0  0  0  0  0  0  0  0  0
    2.7476    1.0608   -0.2214 C   0  0  0  0  0  0  0  0  0  0  0  0
    2.9499   -1.2294    0.1331 C   0  0  0  0  0  0  0  0  0  0  0  0
    1.5870   -1.3556    0.1834 C   0  0  0  0  0  0  0  0  0  0  0  0
   -3.0371   -0.2577    2.2175 H   0  0  0  0  0  0  0  0  0  0  0  0
   -4.3439   -1.1264    1.4142 H   0  0  0  0  0  0  0  0  0  0  0  0
   -2.7147   -1.7796    1.3771 H   0  0  0  0  0  0  0  0  0  0  0  0
   -4.3753   -1.2383   -1.1904 H   0  0  0  0  0  0  0  0  0  0  0  0
   -3.1308   -0.3797   -2.0978 H   0  0  0  0  0  0  0  0  0  0  0  0
   -2.7203   -1.8377   -1.1857 H   0  0  0  0  0  0  0  0  0  0  0  0
   -3.8258    1.7968    0.8946 H   0  0  0  0  0  0  0  0  0  0  0  0
   -3.8726    1.7402   -0.8727 H   0  0  0  0  0  0  0  0  0  0  0  0
   -5.0082    0.7862    0.0728 H   0  0  0  0  0  0  0  0  0  0  0  0
   -1.0000   -1.5148    0.2244 H   0  0  0  0  0  0  0  0  0  0  0  0
    0.8177    1.8922   -0.3077 H   0  0  0  0  0  0  0  0  0  0  0  0
    3.2677    1.9931   -0.3821 H   0  0  0  0  0  0  0  0  0  0  0  0
    3.6230   -2.0652    0.2496 H   0  0  0  0  0  0  0  0  0  0  0  0
    1.1806   -2.3446    0.3495 H   0  0  0  0  0  0  0  0  0  0  0  0
  1  8  1  0
  2  3  1  0
  8  2  1  6
  2  9  2  0
  4  8  1  0
  5  6  1  0
  5 12  2  0
  5 13  1  0
  7  8  1  0
  9 10  1  0
 10 11  2  0
 10 14  1  0
 11 12  1  0
 13 14  2  0
  1 15  1  0
  1 16  1  0
  1 17  1  0
  4 18  1  0
  4 19  1  0
  4 20  1  0
  7 21  1  0
  7 22  1  0
  7 23  1  0
  9 24  1  0
 11 25  1  0
 12 26  1  0
 13 27  1  0
 14 28  1  0
M  CHG  4   2   1   3  -1   5   1   6  -1
M  END
