
     RDKit          3D

 40 43  0  0  0  0  0  0  0  0999 V2000
    4.5934   -1.1298    0.5749 C   0  0  0  0  0  0  0  0  0  0  0  0
    5.8077   -0.8766   -0.0488 C   0  0  0  0  0  0  0  0  0  0  0  0
    6.1590    0.3845   -0.4548 C   0  0  0  0  0  0  0  0  0  0  0  0
    5.2289    1.4060   -0.2154 C   0  0  0  0  0  0  0  0  0  0  0  0
    4.0136    1.1616    0.4043 C   0  0  0  0  0  0  0  0  0  0  0  0
    3.6779   -0.1401    0.8173 C   0  0  0  0  0  0  0  0  0  0  0  0
    3.0303    2.2832    0.6200 C   0  0  0  0  0  0  0  0  0  0  0  0
    0.6676    1.7130    0.2590 C   0  0  0  0  0  0  0  0  0  0  0  0
   -0.3739    1.6021   -0.7985 C   0  0  0  0  0  0  0  0  0  0  0  0
   -2.2673    1.2169   -1.6133 C   0  0  0  0  0  0  0  0  0  0  0  0
   -3.7071    0.8625   -1.6472 C   0  0  0  0  0  0  0  0  0  0  0  0
   -4.0213   -0.3403   -0.7990 C   0  0  0  0  0  0  0  0  0  0  0  0
   -4.3436   -0.2465    0.5523 C   0  0  0  0  0  0  0  0  0  0  0  0
   -4.6233   -1.3666    1.3207 C   0  0  0  0  0  0  0  0  0  0  0  0
   -4.5676   -2.6032    0.7104 C   0  0  0  0  0  0  0  0  0  0  0  0
   -4.2502   -2.7527   -0.6249 C   0  0  0  0  0  0  0  0  0  0  0  0
   -3.9818   -1.6121   -1.3632 C   0  0  0  0  0  0  0  0  0  0  0  0
    5.6337   -3.0677    0.2684 C   0  0  0  0  0  0  0  0  0  0  0  0
   -4.8303   -3.6903    1.4450 F   0  0  0  0  0  0  0  0  0  0  0  0
    1.8454    2.1384   -0.2023 N   0  0  0  0  0  0  0  0  0  0  0  0
   -0.2698    1.7923   -2.0632 N   0  0  0  0  0  0  0  0  0  0  0  0
   -1.4993    1.5379   -2.5977 N   0  0  0  0  0  0  0  0  0  0  0  0
   -1.6101    1.2374   -0.4479 O   0  0  0  0  0  0  0  0  0  0  0  0
    0.3985    1.4274    1.4117 O   0  0  0  0  0  0  0  0  0  0  0  0
    6.5149   -2.0288   -0.1381 O   0  0  0  0  0  0  0  0  0  0  0  0
    4.5197   -2.4445    0.8934 O   0  0  0  0  0  0  0  0  0  0  0  0
   -4.4057    1.2989    1.3276 Cl  0  0  0  0  0  0  0  0  0  0  0  0
    7.1052    0.5888   -0.9370 H   0  0  0  0  0  0  0  0  0  0  0  0
    5.4729    2.4137   -0.5274 H   0  0  0  0  0  0  0  0  0  0  0  0
    2.7382   -0.3513    1.3120 H   0  0  0  0  0  0  0  0  0  0  0  0
    2.7171    2.3313    1.6620 H   0  0  0  0  0  0  0  0  0  0  0  0
    3.4949    3.2397    0.3794 H   0  0  0  0  0  0  0  0  0  0  0  0
   -4.2939    1.7306   -1.3367 H   0  0  0  0  0  0  0  0  0  0  0  0
   -3.9654    0.6681   -2.6875 H   0  0  0  0  0  0  0  0  0  0  0  0
   -4.8744   -1.2780    2.3689 H   0  0  0  0  0  0  0  0  0  0  0  0
   -4.2140   -3.7331   -1.0802 H   0  0  0  0  0  0  0  0  0  0  0  0
   -3.7362   -1.7120   -2.4130 H   0  0  0  0  0  0  0  0  0  0  0  0
    5.2994   -3.6352   -0.6069 H   0  0  0  0  0  0  0  0  0  0  0  0
    6.1373   -3.7225    0.9791 H   0  0  0  0  0  0  0  0  0  0  0  0
    1.9433    2.3062   -1.1929 H   0  0  0  0  0  0  0  0  0  0  0  0
 18 25  1  0
 18 26  1  0
 25  2  1  0
 26  1  1  0
  2  1  1  0
  2  3  2  0
 19 15  1  0
  1  6  2  0
  3  4  1  0
 15 14  1  0
 15 16  2  0
 14 13  2  0
  6  5  1  0
 16 17  1  0
  4  5  2  0
  5  7  1  0
 13 27  1  0
 13 12  1  0
 17 12  2  0
 12 11  1  0
 24  8  2  0
  7 20  1  0
  8 20  1  0
  8  9  1  0
  9 23  1  0
  9 21  2  0
 23 10  1  0
 21 22  1  0
 10 22  2  0
 10 11  1  0
  3 28  1  0
  4 29  1  0
  6 30  1  0
  7 31  1  0
  7 32  1  0
 11 33  1  0
 11 34  1  0
 14 35  1  0
 16 36  1  0
 17 37  1  0
 18 38  1  0
 18 39  1  0
 20 40  1  0
M  END
