
     RDKit          3D

 28 28  0  0  0  0  0  0  0  0999 V2000
   -1.8050    1.6384    0.1686 N   0  0  0  0  0  0  0  0  0  0  0  0
   -3.6215   -0.5396   -0.2282 N   0  0  0  0  0  0  0  0  0  0  0  0
   -1.3227    0.3246   -0.2447 C   0  0  2  0  0  0  0  0  0  0  0  0
   -2.2575   -0.7995    0.2178 C   0  0  0  0  0  0  0  0  0  0  0  0
    0.1255    0.1274    0.2230 C   0  0  2  0  0  0  0  0  0  0  0  0
    1.0271    1.2629   -0.2716 C   0  0  0  0  0  0  0  0  0  0  0  0
    2.4778    1.0926    0.1673 C   0  0  0  0  0  0  0  0  0  0  0  0
    3.0401   -0.2521   -0.2746 C   0  0  0  0  0  0  0  0  0  0  0  0
    2.1629   -1.3904    0.2289 C   0  0  0  0  0  0  0  0  0  0  0  0
    0.7096   -1.2224   -0.2053 C   0  0  0  0  0  0  0  0  0  0  0  0
   -2.8051    1.6605   -0.0007 H   0  0  0  0  0  0  0  0  0  0  0  0
   -3.6804   -0.7005   -1.2269 H   0  0  0  0  0  0  0  0  0  0  0  0
   -1.3173    0.3132   -1.3450 H   0  0  0  0  0  0  0  0  0  0  0  0
   -2.2523   -0.8276    1.3126 H   0  0  0  0  0  0  0  0  0  0  0  0
   -1.8837   -1.7714   -0.1236 H   0  0  0  0  0  0  0  0  0  0  0  0
    0.1246    0.1533    1.3243 H   0  0  0  0  0  0  0  0  0  0  0  0
    0.9815    1.2949   -1.3677 H   0  0  0  0  0  0  0  0  0  0  0  0
    0.6424    2.2221    0.0763 H   0  0  0  0  0  0  0  0  0  0  0  0
    3.0848    1.9100   -0.2309 H   0  0  0  0  0  0  0  0  0  0  0  0
    2.5376    1.1683    1.2592 H   0  0  0  0  0  0  0  0  0  0  0  0
    3.0824   -0.2854   -1.3691 H   0  0  0  0  0  0  0  0  0  0  0  0
    4.0665   -0.3757    0.0804 H   0  0  0  0  0  0  0  0  0  0  0  0
    2.5443   -2.3511   -0.1263 H   0  0  0  0  0  0  0  0  0  0  0  0
    2.2106   -1.4270    1.3232 H   0  0  0  0  0  0  0  0  0  0  0  0
    0.1252   -2.0476    0.2058 H   0  0  0  0  0  0  0  0  0  0  0  0
    0.6432   -1.3101   -1.2972 H   0  0  0  0  0  0  0  0  0  0  0  0
   -4.2492   -1.2133    0.1908 H   0  0  0  0  0  0  0  0  0  0  0  0
   -1.7091    1.7114    1.1768 H   0  0  0  0  0  0  0  0  0  0  0  0
  4  2  1  0
  4  3  1  0
 10  9  1  0
 10  5  1  0
  9  8  1  0
  3  5  1  0
  3  1  1  0
  5  6  1  0
  8  7  1  0
  6  7  1  0
  1 11  1  0
  2 12  1  0
  3 13  1  6
  4 14  1  0
  4 15  1  0
  5 16  1  1
  6 17  1  0
  6 18  1  0
  7 19  1  0
  7 20  1  0
  8 21  1  0
  8 22  1  0
  9 23  1  0
  9 24  1  0
 10 25  1  0
 10 26  1  0
  2 27  1  0
  1 28  1  0
M  END
