
     RDKit          3D

 63 64  0  0  0  0  0  0  0  0999 V2000
    0.6843   -0.2794   -8.4015 S   0  0  2  0  0  0  0  0  0  0  0  0
    0.8766   -1.7155   -8.5487 O   0  0  0  0  0  0  0  0  0  0  0  0
   -0.0067    0.4360   -9.4636 O   0  0  0  0  0  0  0  0  0  0  0  0
    2.0924    0.5403   -8.1441 N   0  0  0  0  0  0  0  0  0  0  0  0
   -1.4860    0.4370   -4.4831 C   0  0  0  0  0  0  0  0  0  0  0  0
   -1.3793    1.4582   -5.4256 C   0  0  0  0  0  0  0  0  0  0  0  0
   -0.7028    1.2476   -6.6126 C   0  0  0  0  0  0  0  0  0  0  0  0
   -0.1519   -0.0033   -6.8629 C   0  0  0  0  0  0  0  0  0  0  0  0
   -0.2659   -1.0378   -5.9497 C   0  0  0  0  0  0  0  0  0  0  0  0
   -0.9314   -0.8091   -4.7541 C   0  0  0  0  0  0  0  0  0  0  0  0
   -3.1703    1.5154   -3.2112 O   0  0  0  0  0  0  0  0  0  0  0  0
   -1.8546    0.0220   -2.1439 N   0  0  0  0  0  0  0  0  0  0  0  0
   -2.4772    0.1659   -0.8451 C   0  0  0  0  0  0  0  0  0  0  0  0
   -2.1630   -1.0349    0.0182 C   0  0  0  0  0  0  0  0  0  0  0  0
   -0.7679   -1.1145    0.1740 O   0  0  0  0  0  0  0  0  0  0  0  0
   -0.3389   -2.2915    0.8133 C   0  0  0  0  0  0  0  0  0  0  0  0
    1.1606   -2.2633    0.9559 C   0  0  0  0  0  0  0  0  0  0  0  0
    1.5246   -1.2233    1.8281 O   0  0  0  0  0  0  0  0  0  0  0  0
    2.9107   -1.1324    2.0399 C   0  0  0  0  0  0  0  0  0  0  0  0
    3.1790   -0.0058    3.0113 C   0  0  0  0  0  0  0  0  0  0  0  0
    2.5130   -0.2498    4.2735 N   0  0  0  0  0  0  0  0  0  0  0  0
    2.5074    0.6404    5.2741 C   0  0  0  0  0  0  0  0  0  0  0  0
    3.1437    1.6842    5.2381 O   0  0  0  0  0  0  0  0  0  0  0  0
    1.5950    0.2903    6.4436 C   0  0  1  0  0  0  0  0  0  0  0  0
    2.1395    0.8529    7.6578 N   0  0  0  0  0  0  0  0  0  0  0  0
    0.1616    0.7553    6.0827 C   0  0  0  0  0  0  0  0  0  0  0  0
   -0.8172    0.4291    7.1721 C   0  0  0  0  0  0  0  0  0  0  0  0
   -1.1653    1.3731    8.1356 C   0  0  0  0  0  0  0  0  0  0  0  0
   -2.0398    1.0509    9.1662 C   0  0  0  0  0  0  0  0  0  0  0  0
   -2.5768   -0.2261    9.2510 C   0  0  0  0  0  0  0  0  0  0  0  0
   -2.2364   -1.1771    8.2963 C   0  0  0  0  0  0  0  0  0  0  0  0
   -1.3634   -0.8502    7.2686 C   0  0  0  0  0  0  0  0  0  0  0  0
    2.5629    0.7537   -9.0191 H   0  0  0  0  0  0  0  0  0  0  0  0
    2.7230    0.0537   -7.5146 H   0  0  0  0  0  0  0  0  0  0  0  0
   -1.8212    2.4253   -5.2286 H   0  0  0  0  0  0  0  0  0  0  0  0
   -0.6132    2.0509   -7.3313 H   0  0  0  0  0  0  0  0  0  0  0  0
    0.1463   -2.0155   -6.1567 H   0  0  0  0  0  0  0  0  0  0  0  0
   -1.0354   -1.6291   -4.0560 H   0  0  0  0  0  0  0  0  0  0  0  0
   -0.9737   -0.4676   -2.1701 H   0  0  0  0  0  0  0  0  0  0  0  0
   -3.5576    0.2391   -0.9653 H   0  0  0  0  0  0  0  0  0  0  0  0
   -2.1419    1.0835   -0.3513 H   0  0  0  0  0  0  0  0  0  0  0  0
   -2.5590   -1.9454   -0.4523 H   0  0  0  0  0  0  0  0  0  0  0  0
   -2.6680   -0.9211    0.9862 H   0  0  0  0  0  0  0  0  0  0  0  0
   -0.6174   -3.1799    0.2306 H   0  0  0  0  0  0  0  0  0  0  0  0
   -0.8065   -2.3962    1.8021 H   0  0  0  0  0  0  0  0  0  0  0  0
    1.6292   -2.1326   -0.0298 H   0  0  0  0  0  0  0  0  0  0  0  0
    1.4904   -3.2379    1.3405 H   0  0  0  0  0  0  0  0  0  0  0  0
    3.4467   -0.9229    1.1050 H   0  0  0  0  0  0  0  0  0  0  0  0
    3.3097   -2.0783    2.4340 H   0  0  0  0  0  0  0  0  0  0  0  0
    2.8417    0.9417    2.5820 H   0  0  0  0  0  0  0  0  0  0  0  0
    4.2587    0.0742    3.1565 H   0  0  0  0  0  0  0  0  0  0  0  0
    1.9307   -1.0685    4.3505 H   0  0  0  0  0  0  0  0  0  0  0  0
    1.5730   -0.7984    6.5593 H   0  0  0  0  0  0  0  0  0  0  0  0
    2.1777    1.8624    7.5838 H   0  0  0  0  0  0  0  0  0  0  0  0
    1.5223    0.6471    8.4337 H   0  0  0  0  0  0  0  0  0  0  0  0
    0.1760    1.8331    5.8982 H   0  0  0  0  0  0  0  0  0  0  0  0
   -0.1520    0.2765    5.1514 H   0  0  0  0  0  0  0  0  0  0  0  0
   -0.7575    2.3753    8.0736 H   0  0  0  0  0  0  0  0  0  0  0  0
   -2.3022    1.8003    9.9021 H   0  0  0  0  0  0  0  0  0  0  0  0
   -3.2584   -0.4778   10.0533 H   0  0  0  0  0  0  0  0  0  0  0  0
   -2.6538   -2.1746    8.3510 H   0  0  0  0  0  0  0  0  0  0  0  0
   -1.1074   -1.5978    6.5262 H   0  0  0  0  0  0  0  0  0  0  0  0
   -2.2487    0.7121   -3.2226 C   0  0  0  0  0  0  0  0  0  0  0  0
  1  2  2  0
  1  3  2  0
  1  4  1  1
  1  8  1  0
  4 33  1  0
  4 34  1  0
  5  6  2  0
  5 10  1  0
  5 63  1  0
  6  7  1  0
  6 35  1  0
  7  8  2  0
  7 36  1  0
  8  9  1  0
  9 10  2  0
  9 37  1  0
 10 38  1  0
 63 11  2  0
 63 12  1  0
 12 13  1  0
 12 39  1  0
 13 14  1  0
 13 40  1  0
 13 41  1  0
 14 15  1  0
 14 42  1  0
 14 43  1  0
 15 16  1  0
 16 17  1  0
 16 44  1  0
 16 45  1  0
 17 18  1  0
 17 46  1  0
 17 47  1  0
 18 19  1  0
 19 20  1  0
 19 48  1  0
 19 49  1  0
 20 21  1  0
 20 50  1  0
 20 51  1  0
 21 22  1  0
 21 52  1  0
 22 23  2  0
 22 24  1  0
 24 25  1  0
 24 26  1  0
 24 53  1  1
 25 54  1  0
 25 55  1  0
 26 27  1  0
 26 56  1  0
 26 57  1  0
 27 28  2  0
 27 32  1  0
 28 29  1  0
 28 58  1  0
 29 30  2  0
 29 59  1  0
 30 31  1  0
 30 60  1  0
 31 32  2  0
 31 61  1  0
 32 62  1  0
M  END
