
     RDKit          3D

 54 57  0  0  0  0  0  0  0  0999 V2000
    3.8394    3.5249   -0.4376 C   0  0  0  0  0  0  0  0  0  0  0  0
    2.5839    2.9583   -0.5759 C   0  0  0  0  0  0  0  0  0  0  0  0
    2.2252    1.8279    0.1590 C   0  0  0  0  0  0  0  0  0  0  0  0
   -7.9520   -0.7395    0.6631 N   0  0  0  0  0  0  0  0  0  0  0  0
    0.8710    1.2510    0.0055 C   0  0  0  0  0  0  0  0  0  0  0  0
    0.6288   -0.1303   -0.1034 C   0  0  0  0  0  0  0  0  0  0  0  0
   -0.1289    2.1223   -0.0171 N   0  0  0  0  0  0  0  0  0  0  0  0
    1.7055   -1.1408   -0.1694 C   0  0  0  0  0  0  0  0  0  0  0  0
    1.6839   -2.2372    0.6910 C   0  0  0  0  0  0  0  0  0  0  0  0
    2.6676   -3.2078    0.6257 C   0  0  0  0  0  0  0  0  0  0  0  0
    3.6866   -3.0885   -0.3172 C   0  0  0  0  0  0  0  0  0  0  0  0
    4.7059   -4.0842   -0.3915 C   0  0  0  0  0  0  0  0  0  0  0  0
    3.7142   -2.0015   -1.1919 C   0  0  0  0  0  0  0  0  0  0  0  0
    2.7289   -1.0369   -1.1123 C   0  0  0  0  0  0  0  0  0  0  0  0
    5.5296   -4.8877   -0.4534 N   0  0  0  0  0  0  0  0  0  0  0  0
    4.7769    2.9939    0.4485 C   0  0  0  0  0  0  0  0  0  0  0  0
   -0.6863   -0.5584   -0.1873 C   0  0  0  0  0  0  0  0  0  0  0  0
   -1.7265    0.3653   -0.1876 C   0  0  0  0  0  0  0  0  0  0  0  0
   -4.0685    0.7915   -0.2418 C   0  0  0  0  0  0  0  0  0  0  0  0
   -5.3552   -0.0002   -0.3594 C   0  0  1  0  0  0  0  0  0  0  0  0
    4.4081    1.8779    1.1934 C   0  0  0  0  0  0  0  0  0  0  0  0
   -5.5313   -1.0228    0.7629 C   0  0  0  0  0  0  0  0  0  0  0  0
   -6.8799   -1.7181    0.6447 C   0  0  0  0  0  0  0  0  0  0  0  0
   -7.8562    0.1791   -0.4570 C   0  0  0  0  0  0  0  0  0  0  0  0
   -6.5494    0.9550   -0.3811 C   0  0  0  0  0  0  0  0  0  0  0  0
   -1.3853    1.7138   -0.1138 C   0  0  0  0  0  0  0  0  0  0  0  0
    3.1542    1.3007    1.0515 C   0  0  0  0  0  0  0  0  0  0  0  0
    4.0951    4.3969   -1.0284 H   0  0  0  0  0  0  0  0  0  0  0  0
    1.8762    3.3922   -1.2708 H   0  0  0  0  0  0  0  0  0  0  0  0
    0.9026   -2.3257    1.4346 H   0  0  0  0  0  0  0  0  0  0  0  0
    2.6482   -4.0499    1.3038 H   0  0  0  0  0  0  0  0  0  0  0  0
    4.4998   -1.9163   -1.9299 H   0  0  0  0  0  0  0  0  0  0  0  0
    2.7511   -0.1988   -1.7957 H   0  0  0  0  0  0  0  0  0  0  0  0
   -0.9102   -1.6144   -0.2847 H   0  0  0  0  0  0  0  0  0  0  0  0
   -4.0577    1.3578    0.6983 H   0  0  0  0  0  0  0  0  0  0  0  0
   -3.9932    1.5106   -1.0661 H   0  0  0  0  0  0  0  0  0  0  0  0
   -5.3418   -0.5386   -1.3164 H   0  0  0  0  0  0  0  0  0  0  0  0
    5.1086    1.4503    1.9009 H   0  0  0  0  0  0  0  0  0  0  0  0
   -4.7369   -1.7705    0.7370 H   0  0  0  0  0  0  0  0  0  0  0  0
   -5.4693   -0.5167    1.7326 H   0  0  0  0  0  0  0  0  0  0  0  0
   -7.0160   -2.4084    1.4798 H   0  0  0  0  0  0  0  0  0  0  0  0
   -6.8815   -2.3270   -0.2752 H   0  0  0  0  0  0  0  0  0  0  0  0
   -7.9013   -0.3364   -1.4313 H   0  0  0  0  0  0  0  0  0  0  0  0
   -8.7022    0.8682   -0.4234 H   0  0  0  0  0  0  0  0  0  0  0  0
   -6.5476    1.5702    0.5249 H   0  0  0  0  0  0  0  0  0  0  0  0
   -6.4766    1.6358   -1.2330 H   0  0  0  0  0  0  0  0  0  0  0  0
   -2.1372    2.4936   -0.1274 H   0  0  0  0  0  0  0  0  0  0  0  0
    2.9024    0.4397    1.6575 H   0  0  0  0  0  0  0  0  0  0  0  0
    6.1341    3.6170    0.5917 C   0  0  0  0  0  0  0  0  0  0  0  0
   -2.9730   -0.1142   -0.2786 O   0  0  0  0  0  0  0  0  0  0  0  0
   -8.8439   -1.2159    0.6334 H   0  0  0  0  0  0  0  0  0  0  0  0
    6.0600    4.6542    0.9224 H   0  0  0  0  0  0  0  0  0  0  0  0
    6.7473    3.0799    1.3139 H   0  0  0  0  0  0  0  0  0  0  0  0
    6.6688    3.6243   -0.3595 H   0  0  0  0  0  0  0  0  0  0  0  0
 49 16  1  0
 16  1  2  0
 16 21  1  0
  1  2  1  0
 15 12  3  0
 12 11  1  0
 21 27  2  0
  2  3  2  0
 11 13  2  0
 11 10  1  0
 13 14  1  0
 10  9  2  0
 27  3  1  0
  3  5  1  0
 14  8  2  0
  9  8  1  0
  8  6  1  0
  5  6  1  0
  5  7  2  0
  6 17  2  0
  7 26  1  0
 17 18  1  0
 26 18  2  0
 18 50  1  0
 50 19  1  0
 20 19  1  0
 20 25  1  0
 20 22  1  0
 23 22  1  0
 23  4  1  0
 24 25  1  0
 24  4  1  0
  1 28  1  0
  2 29  1  0
  4 51  1  0
  9 30  1  0
 10 31  1  0
 13 32  1  0
 14 33  1  0
 49 52  1  0
 49 53  1  0
 49 54  1  0
 17 34  1  0
 19 35  1  0
 19 36  1  0
 20 37  1  6
 21 38  1  0
 22 39  1  0
 22 40  1  0
 23 41  1  0
 23 42  1  0
 24 43  1  0
 24 44  1  0
 25 45  1  0
 25 46  1  0
 26 47  1  0
 27 48  1  0
M  END
