
     RDKit          3D

 43 44  0  0  0  0  0  0  0  0999 V2000
   -0.7761    0.4917   -0.9795 C   0  0  0  0  0  0  0  0  0  0  0  0
   -1.5185    0.6738    0.1837 C   0  0  0  0  0  0  0  0  0  0  0  0
   -0.9329    0.3723    1.4103 C   0  0  0  0  0  0  0  0  0  0  0  0
    0.3740   -0.0898    1.4700 C   0  0  0  0  0  0  0  0  0  0  0  0
    1.0999   -0.2599    0.3070 C   0  0  0  0  0  0  0  0  0  0  0  0
    0.5337    0.0277   -0.9345 C   0  0  0  0  0  0  0  0  0  0  0  0
    3.4197    0.0964    0.2210 C   0  0  0  0  0  0  0  0  0  0  0  0
    3.3108    1.4802    0.2475 C   0  0  0  0  0  0  0  0  0  0  0  0
    4.4533    2.2562    0.1222 C   0  0  0  0  0  0  0  0  0  0  0  0
    5.7085    1.6782   -0.0296 C   0  0  0  0  0  0  0  0  0  0  0  0
    5.8212    0.3010   -0.0555 C   0  0  0  0  0  0  0  0  0  0  0  0
    4.6803   -0.4929    0.0679 C   0  0  0  0  0  0  0  0  0  0  0  0
   -2.9381    1.1595    0.1083 C   0  0  0  0  0  0  0  0  0  0  0  0
   -3.9590    0.0216    0.0901 C   0  0  0  0  0  0  0  0  0  0  0  0
   -5.3894    0.5391    0.0065 C   0  0  0  0  0  0  0  0  0  0  0  0
   -6.4390   -0.5637    0.0039 C   0  0  0  0  0  0  0  0  0  0  0  0
   -7.8632   -0.0277   -0.0843 C   0  0  0  0  0  0  0  0  0  0  0  0
   -8.9155   -1.1272   -0.0808 C   0  0  0  0  0  0  0  0  0  0  0  0
    4.7850   -1.9119    0.0368 C   0  0  0  0  0  0  0  0  0  0  0  0
    1.2995   -0.1519   -2.0234 O   0  0  0  0  0  0  0  0  0  0  0  0
    4.8897   -3.0596    0.0165 N   0  0  0  0  0  0  0  0  0  0  0  0
    2.3841   -0.7555    0.3580 O   0  0  0  0  0  0  0  0  0  0  0  0
   -1.2214    0.7237   -1.9418 H   0  0  0  0  0  0  0  0  0  0  0  0
   -1.4922    0.5094    2.3272 H   0  0  0  0  0  0  0  0  0  0  0  0
   -3.1443    1.8117    0.9615 H   0  0  0  0  0  0  0  0  0  0  0  0
   -3.0689    1.7728   -0.7872 H   0  0  0  0  0  0  0  0  0  0  0  0
    0.8348   -0.3197    2.4225 H   0  0  0  0  0  0  0  0  0  0  0  0
    0.8029    0.0651   -2.8207 H   0  0  0  0  0  0  0  0  0  0  0  0
    2.3486    1.9578    0.3742 H   0  0  0  0  0  0  0  0  0  0  0  0
    4.3563    3.3334    0.1455 H   0  0  0  0  0  0  0  0  0  0  0  0
    6.5889    2.2974   -0.1263 H   0  0  0  0  0  0  0  0  0  0  0  0
    6.7867   -0.1716   -0.1743 H   0  0  0  0  0  0  0  0  0  0  0  0
   -3.7560   -0.6389   -0.7591 H   0  0  0  0  0  0  0  0  0  0  0  0
   -3.8403   -0.5912    0.9898 H   0  0  0  0  0  0  0  0  0  0  0  0
   -5.5748    1.2157    0.8481 H   0  0  0  0  0  0  0  0  0  0  0  0
   -5.4990    1.1482   -0.8977 H   0  0  0  0  0  0  0  0  0  0  0  0
   -6.2566   -1.2432   -0.8360 H   0  0  0  0  0  0  0  0  0  0  0  0
   -6.3354   -1.1707    0.9103 H   0  0  0  0  0  0  0  0  0  0  0  0
   -8.0422    0.6555    0.7519 H   0  0  0  0  0  0  0  0  0  0  0  0
   -7.9643    0.5757   -0.9920 H   0  0  0  0  0  0  0  0  0  0  0  0
   -9.9244   -0.7166   -0.1356 H   0  0  0  0  0  0  0  0  0  0  0  0
   -8.7870   -1.8003   -0.9304 H   0  0  0  0  0  0  0  0  0  0  0  0
   -8.8537   -1.7296    0.8274 H   0  0  0  0  0  0  0  0  0  0  0  0
  1  2  2  0
  1  6  1  0
  2  3  1  0
  2 13  1  0
  3  4  2  0
  4  5  1  0
  5  6  2  0
  5 22  1  0
  6 20  1  0
  7  8  2  0
  7 12  1  0
  7 22  1  0
  8  9  1  0
  9 10  2  0
 10 11  1  0
 11 12  2  0
 12 19  1  0
 13 14  1  0
 14 15  1  0
 15 16  1  0
 16 17  1  0
 17 18  1  0
 19 21  3  0
  1 23  1  0
  3 24  1  0
 13 25  1  0
 13 26  1  0
  4 27  1  0
 20 28  1  0
  8 29  1  0
  9 30  1  0
 10 31  1  0
 11 32  1  0
 14 33  1  0
 14 34  1  0
 15 35  1  0
 15 36  1  0
 16 37  1  0
 16 38  1  0
 17 39  1  0
 17 40  1  0
 18 41  1  0
 18 42  1  0
 18 43  1  0
M  END
