
     RDKit          3D

 63 67  0  0  0  0  0  0  0  0999 V2000
   -0.9645    2.5366    1.4929 C   0  0  0  0  0  0  0  0  0  0  0  0
    0.1945    0.7568    0.3133 N   0  0  0  0  0  0  0  0  0  0  0  0
   -1.4395    2.9537    2.5388 O   0  0  0  0  0  0  0  0  0  0  0  0
    0.1584    1.5107    1.5566 C   0  0  1  0  0  0  0  0  0  0  0  0
    1.4891    2.2256    1.8193 C   0  0  0  0  0  0  0  0  0  0  0  0
   -7.5376   -2.4313   -2.2409 C   0  0  0  0  0  0  0  0  0  0  0  0
   -3.6309   -2.8572    1.4613 C   0  0  0  0  0  0  0  0  0  0  0  0
    8.0287   -1.7364   -0.6361 O   0  0  0  0  0  0  0  0  0  0  0  0
   -0.2280   -1.4151    1.4429 O   0  0  0  0  0  0  0  0  0  0  0  0
    0.0796   -1.3055   -1.0563 O   0  0  0  0  0  0  0  0  0  0  0  0
   -5.5654    1.0679   -0.9807 C   0  0  0  0  0  0  0  0  0  0  0  0
   -6.2340   -0.0804   -1.4160 C   0  0  0  0  0  0  0  0  0  0  0  0
    2.6928   -1.3456    1.7596 C   0  0  0  0  0  0  0  0  0  0  0  0
    4.0535   -1.5232    1.9412 C   0  0  0  0  0  0  0  0  0  0  0  0
   -4.2346   -0.3035    0.4844 C   0  0  0  0  0  0  0  0  0  0  0  0
    2.9933   -1.1373   -0.6426 C   0  0  0  0  0  0  0  0  0  0  0  0
    1.8483    3.1469    0.6593 C   0  0  0  0  0  0  0  0  0  0  0  0
   -3.6993    3.1428   -0.3420 C   0  0  0  0  0  0  0  0  0  0  0  0
    1.7512    2.4019   -0.6683 C   0  0  0  0  0  0  0  0  0  0  0  0
   -2.4624    3.8781    0.1529 C   0  0  0  0  0  0  0  0  0  0  0  0
   -0.8079    2.4699   -0.9813 C   0  0  0  0  0  0  0  0  0  0  0  0
    6.2409   -1.6638    0.8091 N   0  0  0  0  0  0  0  0  0  0  0  0
   -6.5141   -2.4877   -1.2714 O   0  0  0  0  0  0  0  0  0  0  0  0
   -4.6424   -2.6829    0.4895 O   0  0  0  0  0  0  0  0  0  0  0  0
   -3.8721    2.0003    0.4705 O   0  0  0  0  0  0  0  0  0  0  0  0
    5.6065   -1.3427   -1.6566 S   0  0  0  0  0  0  0  0  0  0  0  0
   -4.5705    0.9539   -0.0296 C   0  0  0  0  0  0  0  0  0  0  0  0
    2.1760   -1.1492    0.4818 C   0  0  0  0  0  0  0  0  0  0  0  0
   -5.9227   -1.3277   -0.9122 C   0  0  0  0  0  0  0  0  0  0  0  0
   -4.9016   -1.4366    0.0574 C   0  0  0  0  0  0  0  0  0  0  0  0
    6.8532   -1.6173   -0.4071 C   0  0  0  0  0  0  0  0  0  0  0  0
    4.8796   -1.5019    0.8279 C   0  0  0  0  0  0  0  0  0  0  0  0
    4.3484   -1.3095   -0.4511 C   0  0  0  0  0  0  0  0  0  0  0  0
    0.4465    1.6223   -0.8352 C   0  0  2  0  0  0  0  0  0  0  0  0
   -1.3200    2.9938    0.2759 N   0  0  0  0  0  0  0  0  0  0  0  0
    0.4408   -0.8590    0.2780 S   0  0  1  0  0  0  0  0  0  0  0  0
   -0.0788    0.8421    2.3827 H   0  0  0  0  0  0  0  0  0  0  0  0
    1.4231    2.7793    2.7571 H   0  0  0  0  0  0  0  0  0  0  0  0
    2.2680    1.4701    1.9543 H   0  0  0  0  0  0  0  0  0  0  0  0
   -8.3830   -1.8209   -1.9107 H   0  0  0  0  0  0  0  0  0  0  0  0
   -7.1780   -2.0397   -3.1969 H   0  0  0  0  0  0  0  0  0  0  0  0
   -7.8821   -3.4520   -2.3892 H   0  0  0  0  0  0  0  0  0  0  0  0
   -2.6535   -2.5275    1.1011 H   0  0  0  0  0  0  0  0  0  0  0  0
   -3.8610   -2.3250    2.3884 H   0  0  0  0  0  0  0  0  0  0  0  0
   -3.5866   -3.9229    1.6721 H   0  0  0  0  0  0  0  0  0  0  0  0
   -5.8492    2.0268   -1.3933 H   0  0  0  0  0  0  0  0  0  0  0  0
   -7.0093    0.0348   -2.1611 H   0  0  0  0  0  0  0  0  0  0  0  0
    2.0403   -1.3692    2.6213 H   0  0  0  0  0  0  0  0  0  0  0  0
    4.4583   -1.6834    2.9310 H   0  0  0  0  0  0  0  0  0  0  0  0
   -3.4328   -0.3627    1.2083 H   0  0  0  0  0  0  0  0  0  0  0  0
    2.5917   -1.0018   -1.6379 H   0  0  0  0  0  0  0  0  0  0  0  0
    1.1911    4.0206    0.6534 H   0  0  0  0  0  0  0  0  0  0  0  0
    2.8608    3.5313    0.7905 H   0  0  0  0  0  0  0  0  0  0  0  0
   -4.5619    3.8149   -0.2867 H   0  0  0  0  0  0  0  0  0  0  0  0
   -3.5841    2.8509   -1.3912 H   0  0  0  0  0  0  0  0  0  0  0  0
    1.8580    3.0916   -1.5081 H   0  0  0  0  0  0  0  0  0  0  0  0
    2.5808    1.6928   -0.7436 H   0  0  0  0  0  0  0  0  0  0  0  0
   -2.2290    4.6746   -0.5574 H   0  0  0  0  0  0  0  0  0  0  0  0
   -2.6529    4.3450    1.1159 H   0  0  0  0  0  0  0  0  0  0  0  0
   -0.6081    3.3085   -1.6529 H   0  0  0  0  0  0  0  0  0  0  0  0
   -1.5757    1.8534   -1.4572 H   0  0  0  0  0  0  0  0  0  0  0  0
    6.7881   -1.8230    1.6446 H   0  0  0  0  0  0  0  0  0  0  0  0
    0.5130    1.0183   -1.7395 H   0  0  0  0  0  0  0  0  0  0  0  0
 35  1  1  0
  1  3  2  0
  1  4  1  0
 36  2  1  0
  2 34  1  0
  2  4  1  0
  4  5  1  0
  4 37  1  1
 17  5  1  0
  5 38  1  0
  5 39  1  0
 23  6  1  0
  6 40  1  0
  6 41  1  0
  6 42  1  0
  7 24  1  0
  7 43  1  0
  7 44  1  0
  7 45  1  0
  8 31  2  0
 36  9  2  0
 36 10  2  0
 27 11  2  0
 11 12  1  0
 11 46  1  0
 29 12  2  0
 12 47  1  0
 14 13  2  0
 13 28  1  0
 13 48  1  0
 32 14  1  0
 14 49  1  0
 15 27  1  0
 15 30  2  0
 15 50  1  0
 33 16  1  0
 16 28  2  0
 16 51  1  0
 19 17  1  0
 17 52  1  0
 17 53  1  0
 18 25  1  0
 18 20  1  0
 18 54  1  0
 18 55  1  0
 34 19  1  0
 19 56  1  0
 19 57  1  0
 20 35  1  0
 20 58  1  0
 20 59  1  0
 21 35  1  0
 21 34  1  0
 21 60  1  0
 21 61  1  0
 31 22  1  0
 22 32  1  0
 22 62  1  0
 29 23  1  0
 24 30  1  0
 25 27  1  0
 31 26  1  0
 26 33  1  0
 36 28  1  1
 30 29  1  0
 32 33  2  0
 34 63  1  6
M  END
