
     RDKit          3D

 17 16  0  0  0  0  0  0  0  0999 V2000
    1.3195   -1.1790    1.0435 O   0  0  0  0  0  0  0  0  0  0  0  0
    1.1107   -0.5471    0.0409 C   0  0  0  0  0  0  0  0  0  0  0  0
   -0.2631   -0.1493   -0.4731 C   0  0  2  0  0  0  0  0  0  0  0  0
   -0.3592    1.3761   -0.5372 C   0  0  0  0  0  0  0  0  0  0  0  0
   -0.0719    1.8730    0.7499 O   0  0  0  0  0  0  0  0  0  0  0  0
   -1.2800   -0.8037    0.3145 N   0  0  0  0  0  0  0  0  0  0  0  0
   -2.5952   -0.7943   -0.2923 C   0  0  0  0  0  0  0  0  0  0  0  0
    2.0763   -0.1090   -0.7595 O   0  0  0  0  0  0  0  0  0  0  0  0
   -0.3446   -0.5176   -1.5025 H   0  0  0  0  0  0  0  0  0  0  0  0
    0.3335    1.7624   -1.2932 H   0  0  0  0  0  0  0  0  0  0  0  0
   -1.3686    1.6498   -0.8660 H   0  0  0  0  0  0  0  0  0  0  0  0
   -0.1764    2.8287    0.7406 H   0  0  0  0  0  0  0  0  0  0  0  0
   -1.3210   -0.3959    1.2394 H   0  0  0  0  0  0  0  0  0  0  0  0
   -3.0078    0.1998   -0.5073 H   0  0  0  0  0  0  0  0  0  0  0  0
   -2.5684   -1.3469   -1.2337 H   0  0  0  0  0  0  0  0  0  0  0  0
   -3.2975   -1.3037    0.3670 H   0  0  0  0  0  0  0  0  0  0  0  0
    2.9413   -0.3600   -0.4025 H   0  0  0  0  0  0  0  0  0  0  0  0
  7  6  1  0
  6  3  1  0
  1  2  2  0
  3  2  1  0
  3  4  1  0
  4  5  1  0
  2  8  1  0
  3  9  1  6
  4 10  1  0
  4 11  1  0
  5 12  1  0
  6 13  1  0
  7 14  1  0
  7 15  1  0
  7 16  1  0
  8 17  1  0
M  END
