
     RDKit          3D

 17 17  0  0  0  0  0  0  0  0999 V2000
   -1.8297    0.1898   -0.1158 C   0  0  0  0  0  0  0  0  0  0  0  0
   -0.9587    1.2696   -0.0637 C   0  0  0  0  0  0  0  0  0  0  0  0
    0.4162    1.0719   -0.0127 C   0  0  0  0  0  0  0  0  0  0  0  0
   -3.1590    0.4409   -0.1655 O   0  0  0  0  0  0  0  0  0  0  0  0
   -1.3027   -1.1002   -0.1142 C   0  0  0  0  0  0  0  0  0  0  0  0
    0.0663   -1.2994   -0.0641 C   0  0  0  0  0  0  0  0  0  0  0  0
    0.9427   -0.2164   -0.0136 C   0  0  0  0  0  0  0  0  0  0  0  0
    2.2633   -0.5073    0.0315 O   0  0  0  0  0  0  0  0  0  0  0  0
    3.1825    0.5632    0.0609 C   0  0  0  0  0  0  0  0  0  0  0  0
   -1.3528    2.2785   -0.0618 H   0  0  0  0  0  0  0  0  0  0  0  0
    1.0569    1.9423    0.0253 H   0  0  0  0  0  0  0  0  0  0  0  0
   -3.6530   -0.3838   -0.2249 H   0  0  0  0  0  0  0  0  0  0  0  0
   -1.9610   -1.9608   -0.1536 H   0  0  0  0  0  0  0  0  0  0  0  0
    0.4614   -2.3080   -0.0650 H   0  0  0  0  0  0  0  0  0  0  0  0
    3.0583    1.1900    0.9485 H   0  0  0  0  0  0  0  0  0  0  0  0
    4.1752    0.1199    0.0852 H   0  0  0  0  0  0  0  0  0  0  0  0
    3.1047    1.1970   -0.8272 H   0  0  0  0  0  0  0  0  0  0  0  0
  9  8  1  0
  8  7  1  0
  7  6  2  0
  7  3  1  0
  6  5  1  0
  3  2  2  0
  5  1  2  0
  2  1  1  0
  1  4  1  0
  2 10  1  0
  3 11  1  0
  4 12  1  0
  5 13  1  0
  6 14  1  0
  9 15  1  0
  9 16  1  0
  9 17  1  0
M  END
