
     RDKit          3D

 18 17  0  0  0  0  0  0  0  0999 V2000
   -0.5895   -0.8249    0.3384 C   0  0  0  0  0  0  0  0  0  0  0  0
   -0.1291   -0.8182    1.5866 C   0  0  0  0  0  0  0  0  0  0  0  0
    0.4776    0.2462    2.1410 O   0  0  0  0  0  0  0  0  0  0  0  0
    0.5970    0.2140    3.5526 C   0  0  0  0  0  0  0  0  0  0  0  0
    0.4525    0.0798   -1.6890 C   0  0  0  0  0  0  0  0  0  0  0  0
    0.1940   -0.1996   -2.8320 O   0  0  0  0  0  0  0  0  0  0  0  0
    1.6896    0.1533   -1.2143 O   0  0  0  0  0  0  0  0  0  0  0  0
   -1.8587    0.6335   -1.2296 N   0  0  0  0  0  0  0  0  0  0  0  0
   -0.5791    0.3472   -0.6093 C   0  0  1  0  0  0  0  0  0  0  0  0
   -1.0200   -1.7501   -0.0271 H   0  0  0  0  0  0  0  0  0  0  0  0
   -0.2140   -1.7052    2.2112 H   0  0  0  0  0  0  0  0  0  0  0  0
    1.2263    1.0519    3.8423 H   0  0  0  0  0  0  0  0  0  0  0  0
   -0.3750    0.3150    4.0418 H   0  0  0  0  0  0  0  0  0  0  0  0
    1.0676   -0.7114    3.8949 H   0  0  0  0  0  0  0  0  0  0  0  0
    2.3245   -0.0659   -1.9125 H   0  0  0  0  0  0  0  0  0  0  0  0
   -2.2201   -0.1980   -1.6818 H   0  0  0  0  0  0  0  0  0  0  0  0
   -2.5216    0.8627   -0.4998 H   0  0  0  0  0  0  0  0  0  0  0  0
   -0.2614    1.2446   -0.0720 H   0  0  0  0  0  0  0  0  0  0  0  0
  1  2  2  0
  1  9  1  0
  1 10  1  0
  2  3  1  0
  2 11  1  0
  3  4  1  0
  4 12  1  0
  4 13  1  0
  4 14  1  0
  5  6  2  0
  5  7  1  0
  5  9  1  0
  7 15  1  0
  8  9  1  0
  8 16  1  0
  8 17  1  0
  9 18  1  1
M  END
