
     RDKit          3D

 47 49  0  0  0  0  0  0  0  0999 V2000
    0.3571    1.1440    0.3706 C   0  0  0  0  0  0  0  0  0  0  0  0
    0.4798    1.6936    1.6469 C   0  0  0  0  0  0  0  0  0  0  0  0
    1.5117    0.7276   -0.2880 C   0  0  0  0  0  0  0  0  0  0  0  0
    2.7621    0.8565    0.3090 C   0  0  0  0  0  0  0  0  0  0  0  0
    2.8702    1.3962    1.5852 C   0  0  0  0  0  0  0  0  0  0  0  0
    1.7244    1.8179    2.2432 C   0  0  0  0  0  0  0  0  0  0  0  0
    3.9781    0.3722   -0.4156 C   0  0  1  0  0  0  0  0  0  0  0  0
   -0.9461    1.0458   -0.3237 C   0  0  0  0  0  0  0  0  0  0  0  0
   -3.3613    0.8724   -1.6793 C   0  0  0  0  0  0  0  0  0  0  0  0
   -2.2762    1.4753   -2.2925 C   0  0  0  0  0  0  0  0  0  0  0  0
   -1.0732    1.5571   -1.6107 C   0  0  0  0  0  0  0  0  0  0  0  0
   -2.0540    0.4280    0.2772 C   0  0  0  0  0  0  0  0  0  0  0  0
   -3.2807    0.3378   -0.3949 C   0  0  0  0  0  0  0  0  0  0  0  0
   -4.5011   -0.3195    0.2107 C   0  0  2  0  0  0  0  0  0  0  0  0
   -4.9118   -1.5832   -0.5558 C   0  0  0  0  0  0  0  0  0  0  0  0
   -6.1324   -2.2437    0.0766 C   0  0  0  0  0  0  0  0  0  0  0  0
   -7.3006   -1.2700    0.1894 C   0  0  0  0  0  0  0  0  0  0  0  0
   -6.8977   -0.0089    0.9473 C   0  0  0  0  0  0  0  0  0  0  0  0
   -5.6801    0.6551    0.3144 C   0  0  0  0  0  0  0  0  0  0  0  0
    4.3573   -1.4340   -0.1983 P   0  0  1  0  0  0  0  0  0  0  0  0
    5.5061   -1.9012   -0.9985 O   0  0  0  0  0  0  0  0  0  0  0  0
    4.4685   -1.4807    1.3899 O   0  0  0  0  0  0  0  0  0  0  0  0
    3.0120   -2.1828   -0.6248 O   0  0  0  0  0  0  0  0  0  0  0  0
    3.8437    0.5633   -1.7578 F   0  0  0  0  0  0  0  0  0  0  0  0
    5.0835    1.0622   -0.0278 F   0  0  0  0  0  0  0  0  0  0  0  0
   -1.8511   -0.0840    1.5093 O   0  0  0  0  0  0  0  0  0  0  0  0
   -0.3977    2.0464    2.1714 H   0  0  0  0  0  0  0  0  0  0  0  0
    1.4179    0.3044   -1.2802 H   0  0  0  0  0  0  0  0  0  0  0  0
    3.8308    1.5004    2.0705 H   0  0  0  0  0  0  0  0  0  0  0  0
    1.8059    2.2549    3.2296 H   0  0  0  0  0  0  0  0  0  0  0  0
   -4.2999    0.8155   -2.2182 H   0  0  0  0  0  0  0  0  0  0  0  0
   -2.3701    1.8847   -3.2893 H   0  0  0  0  0  0  0  0  0  0  0  0
   -0.2207    2.0405   -2.0718 H   0  0  0  0  0  0  0  0  0  0  0  0
   -4.2943   -0.6477    1.2373 H   0  0  0  0  0  0  0  0  0  0  0  0
   -5.1376   -1.3176   -1.5940 H   0  0  0  0  0  0  0  0  0  0  0  0
   -4.0737   -2.2839   -0.5876 H   0  0  0  0  0  0  0  0  0  0  0  0
   -6.4239   -3.1198   -0.5081 H   0  0  0  0  0  0  0  0  0  0  0  0
   -5.8691   -2.6138    1.0737 H   0  0  0  0  0  0  0  0  0  0  0  0
   -7.6393   -0.9940   -0.8154 H   0  0  0  0  0  0  0  0  0  0  0  0
   -8.1486   -1.7521    0.6816 H   0  0  0  0  0  0  0  0  0  0  0  0
   -7.7301    0.6981    0.9773 H   0  0  0  0  0  0  0  0  0  0  0  0
   -6.6725   -0.2653    1.9883 H   0  0  0  0  0  0  0  0  0  0  0  0
   -5.3799    1.5333    0.8919 H   0  0  0  0  0  0  0  0  0  0  0  0
   -5.9462    1.0140   -0.6851 H   0  0  0  0  0  0  0  0  0  0  0  0
    4.8648   -2.2850    1.7560 H   0  0  0  0  0  0  0  0  0  0  0  0
    2.2676   -2.1334   -0.0100 H   0  0  0  0  0  0  0  0  0  0  0  0
   -2.6738   -0.4129    1.8866 H   0  0  0  0  0  0  0  0  0  0  0  0
 21 20  2  0
  7 25  1  1
 20 23  1  6
 20  7  1  0
 20 22  1  0
  7 24  1  0
  7  4  1  0
  5  4  2  0
  5  6  1  0
  4  3  1  0
  6  2  2  0
  3  1  2  0
  2  1  1  0
  1  8  1  0
  8 11  2  0
  8 12  1  0
 26 12  1  0
 11 10  1  0
 12 13  2  0
 10  9  2  0
 13  9  1  0
 13 14  1  0
 15 14  1  0
 15 16  1  0
 14 19  1  0
 19 18  1  0
 16 17  1  0
 17 18  1  0
  2 27  1  0
  3 28  1  0
  5 29  1  0
  6 30  1  0
  9 31  1  0
 10 32  1  0
 11 33  1  0
 14 34  1  1
 15 35  1  0
 15 36  1  0
 16 37  1  0
 16 38  1  0
 17 39  1  0
 17 40  1  0
 18 41  1  0
 18 42  1  0
 19 43  1  0
 19 44  1  0
 22 45  1  0
 23 46  1  0
 26 47  1  0
M  END
