
     RDKit          3D

 43 44  0  0  0  0  0  0  0  0999 V2000
    2.6303    2.5876   -0.0407 O   0  0  0  0  0  0  0  0  0  0  0  0
    3.7725    2.2953    0.1858 C   0  0  0  0  0  0  0  0  0  0  0  0
    4.7350    3.1625    0.4434 O   0  0  0  0  0  0  0  0  0  0  0  0
    4.2941    0.8906    0.1942 C   0  0  0  0  0  0  0  0  0  0  0  0
    5.6314    0.7701   -0.0934 N   0  0  0  0  0  0  0  0  0  0  0  0
    6.2947   -0.4185   -0.1701 C   0  0  0  0  0  0  0  0  0  0  0  0
    7.4736   -0.5081   -0.4415 O   0  0  0  0  0  0  0  0  0  0  0  0
    5.4998   -1.5047    0.0872 N   0  0  0  0  0  0  0  0  0  0  0  0
    4.1580   -1.5019    0.4033 C   0  0  0  0  0  0  0  0  0  0  0  0
    3.5751   -2.5480    0.6118 O   0  0  0  0  0  0  0  0  0  0  0  0
    3.5185   -0.1831    0.4594 C   0  0  0  0  0  0  0  0  0  0  0  0
    2.0588   -0.1669    0.7953 C   0  0  0  0  0  0  0  0  0  0  0  0
    1.1728   -0.4066   -0.4295 C   0  0  0  0  0  0  0  0  0  0  0  0
   -0.3065   -0.3684   -0.0744 C   0  0  0  0  0  0  0  0  0  0  0  0
   -1.2052   -0.6126   -1.2894 C   0  0  0  0  0  0  0  0  0  0  0  0
   -2.6578   -0.5203   -0.9260 C   0  0  0  0  0  0  0  0  0  0  0  0
   -3.3822   -1.6555   -0.5678 C   0  0  0  0  0  0  0  0  0  0  0  0
   -4.7075   -1.5618   -0.1792 C   0  0  0  0  0  0  0  0  0  0  0  0
   -3.3028    0.7149   -0.8848 C   0  0  0  0  0  0  0  0  0  0  0  0
   -4.6270    0.8191   -0.4948 C   0  0  0  0  0  0  0  0  0  0  0  0
   -5.3436   -0.3226   -0.1360 C   0  0  0  0  0  0  0  0  0  0  0  0
   -6.7632   -0.2720    0.2877 C   0  0  0  0  0  0  0  0  0  0  0  0
   -7.4147   -1.2471    0.5801 O   0  0  0  0  0  0  0  0  0  0  0  0
   -7.2461    0.9604    0.3139 O   0  0  0  0  0  0  0  0  0  0  0  0
   -8.6060    1.1301    0.7109 C   0  0  0  0  0  0  0  0  0  0  0  0
    4.4009    4.0719    0.3927 H   0  0  0  0  0  0  0  0  0  0  0  0
    5.9519   -2.4093    0.0315 H   0  0  0  0  0  0  0  0  0  0  0  0
    1.8708   -0.9515    1.5308 H   0  0  0  0  0  0  0  0  0  0  0  0
    1.7797    0.7719    1.2689 H   0  0  0  0  0  0  0  0  0  0  0  0
    1.3856    0.3528   -1.1858 H   0  0  0  0  0  0  0  0  0  0  0  0
    1.4196   -1.3740   -0.8750 H   0  0  0  0  0  0  0  0  0  0  0  0
   -0.5244   -1.1179    0.6931 H   0  0  0  0  0  0  0  0  0  0  0  0
   -0.5512    0.6045    0.3629 H   0  0  0  0  0  0  0  0  0  0  0  0
   -0.9697    0.1216   -2.0645 H   0  0  0  0  0  0  0  0  0  0  0  0
   -0.9884   -1.5987   -1.7076 H   0  0  0  0  0  0  0  0  0  0  0  0
   -2.9032   -2.6269   -0.5984 H   0  0  0  0  0  0  0  0  0  0  0  0
   -5.2492   -2.4585    0.0906 H   0  0  0  0  0  0  0  0  0  0  0  0
   -2.7607    1.6110   -1.1624 H   0  0  0  0  0  0  0  0  0  0  0  0
   -5.0929    1.7946   -0.4741 H   0  0  0  0  0  0  0  0  0  0  0  0
   -8.7696    0.7821    1.7304 H   0  0  0  0  0  0  0  0  0  0  0  0
   -8.7992    2.1974    0.6600 H   0  0  0  0  0  0  0  0  0  0  0  0
   -9.2858    0.6076    0.0384 H   0  0  0  0  0  0  0  0  0  0  0  0
    6.1783    1.5981   -0.2828 H   0  0  0  0  0  0  0  0  0  0  0  0
  7  6  2  0
  6  5  1  0
  6  8  1  0
  5  4  1  0
  8  9  1  0
  4  2  1  0
  4 11  2  0
  1  2  2  0
  3  2  1  0
  9 11  1  0
  9 10  2  0
 11 12  1  0
 12 13  1  0
 13 14  1  0
 14 15  1  0
 25 24  1  0
 18 17  2  0
 18 21  1  0
 17 16  1  0
 24 22  1  0
 22 21  1  0
 22 23  2  0
 21 20  2  0
 16 15  1  0
 16 19  2  0
 20 19  1  0
  3 26  1  0
  8 27  1  0
 12 28  1  0
 12 29  1  0
 13 30  1  0
 13 31  1  0
 14 32  1  0
 14 33  1  0
 15 34  1  0
 15 35  1  0
 17 36  1  0
 18 37  1  0
 19 38  1  0
 20 39  1  0
 25 40  1  0
 25 41  1  0
 25 42  1  0
  5 43  1  0
M  END
