
     RDKit          3D

 62 64  0  0  0  0  0  0  0  0999 V2000
   -5.5768   -0.4618   -1.4482 C   0  0  0  0  0  0  0  0  0  0  0  0
   -5.4270   -0.7143    0.9208 C   0  0  0  0  0  0  0  0  0  0  0  0
   -6.7477    0.2645   -1.2982 C   0  0  0  0  0  0  0  0  0  0  0  0
   -6.6008    0.0124    1.0721 C   0  0  0  0  0  0  0  0  0  0  0  0
    9.4693   -1.6573    0.7577 C   0  0  0  0  0  0  0  0  0  0  0  0
    8.1027   -1.8134    0.7101 C   0  0  0  0  0  0  0  0  0  0  0  0
    7.7839    0.4829    0.0043 C   0  0  0  0  0  0  0  0  0  0  0  0
   -4.8963   -0.9647   -0.3404 C   0  0  0  0  0  0  0  0  0  0  0  0
   -7.2776    0.5144   -0.0341 C   0  0  0  0  0  0  0  0  0  0  0  0
   10.0245   -0.4221    0.4258 C   0  0  0  0  0  0  0  0  0  0  0  0
    7.2490   -0.7579    0.3347 C   0  0  0  0  0  0  0  0  0  0  0  0
    9.1655    0.6212    0.0577 C   0  0  0  0  0  0  0  0  0  0  0  0
   11.5639    1.1100    0.0761 C   0  0  0  0  0  0  0  0  0  0  0  0
    4.8387   -0.2761   -0.0706 C   0  0  0  0  0  0  0  0  0  0  0  0
    0.1017   -0.6127   -0.8453 C   0  0  0  0  0  0  0  0  0  0  0  0
   -9.8198   -0.8222    0.5950 C   0  0  0  0  0  0  0  0  0  0  0  0
  -11.0789    1.2036   -0.0433 C   0  0  0  0  0  0  0  0  0  0  0  0
   12.8955    1.7619   -0.0237 C   0  0  0  0  0  0  0  0  0  0  0  0
   -3.6013   -1.7086   -0.5025 C   0  0  0  0  0  0  0  0  0  0  0  0
   -8.5606    1.2836    0.1250 C   0  0  0  0  0  0  0  0  0  0  0  0
    3.5084   -0.9956   -0.0418 C   0  0  0  0  0  0  0  0  0  0  0  0
   -1.0876   -1.5313   -0.6712 C   0  0  0  0  0  0  0  0  0  0  0  0
   -2.4019   -0.7623   -0.5715 C   0  0  0  0  0  0  0  0  0  0  0  0
    2.3278   -0.0385    0.0614 C   0  0  0  0  0  0  0  0  0  0  0  0
   -9.7855    0.4387   -0.2455 C   0  0  1  0  0  0  0  0  0  0  0  0
   11.3641   -0.1106    0.4236 N   0  0  0  0  0  0  0  0  0  0  0  0
    5.8828   -1.0487    0.3259 N   0  0  0  0  0  0  0  0  0  0  0  0
    1.0812   -0.7671    0.0623 N   0  0  0  0  0  0  0  0  0  0  0  0
    4.9490    0.8785   -0.4418 O   0  0  0  0  0  0  0  0  0  0  0  0
    0.1496    0.2045   -1.7561 O   0  0  0  0  0  0  0  0  0  0  0  0
   -9.9707   -0.8027    1.7903 O   0  0  0  0  0  0  0  0  0  0  0  0
  -11.1509    2.3761    0.2102 O   0  0  0  0  0  0  0  0  0  0  0  0
   -9.6413   -1.9209   -0.1147 O   0  0  0  0  0  0  0  0  0  0  0  0
  -12.1295    0.4131   -0.2076 O   0  0  0  0  0  0  0  0  0  0  0  0
   10.1135    2.0260   -0.2922 S   0  0  0  0  0  0  0  0  0  0  0  0
   -5.1852   -0.6416   -2.4430 H   0  0  0  0  0  0  0  0  0  0  0  0
   -7.2529    0.6456   -2.1787 H   0  0  0  0  0  0  0  0  0  0  0  0
   -4.9193   -1.0926    1.8008 H   0  0  0  0  0  0  0  0  0  0  0  0
   -6.9904    0.1930    2.0669 H   0  0  0  0  0  0  0  0  0  0  0  0
    7.6724   -2.7735    0.9686 H   0  0  0  0  0  0  0  0  0  0  0  0
    7.1589    1.3126   -0.2811 H   0  0  0  0  0  0  0  0  0  0  0  0
   -3.4671   -2.4029    0.3311 H   0  0  0  0  0  0  0  0  0  0  0  0
   -3.6301   -2.3149   -1.4124 H   0  0  0  0  0  0  0  0  0  0  0  0
   -8.6588    1.6420    1.1507 H   0  0  0  0  0  0  0  0  0  0  0  0
   -8.5497    2.1625   -0.5215 H   0  0  0  0  0  0  0  0  0  0  0  0
    5.6493   -1.9848    0.6211 H   0  0  0  0  0  0  0  0  0  0  0  0
   13.0607    2.1657   -1.0228 H   0  0  0  0  0  0  0  0  0  0  0  0
   12.9796    2.5893    0.6817 H   0  0  0  0  0  0  0  0  0  0  0  0
   13.6763    1.0369    0.1946 H   0  0  0  0  0  0  0  0  0  0  0  0
    3.4271   -1.5829   -0.9625 H   0  0  0  0  0  0  0  0  0  0  0  0
    3.4833   -1.7133    0.7820 H   0  0  0  0  0  0  0  0  0  0  0  0
   -1.1174   -2.1927   -1.5427 H   0  0  0  0  0  0  0  0  0  0  0  0
   -0.9695   -2.1756    0.2034 H   0  0  0  0  0  0  0  0  0  0  0  0
    0.9455   -1.4476    0.7923 H   0  0  0  0  0  0  0  0  0  0  0  0
   -9.7344    0.1723   -1.3059 H   0  0  0  0  0  0  0  0  0  0  0  0
   -9.6432   -2.6986    0.4650 H   0  0  0  0  0  0  0  0  0  0  0  0
  -12.9528    0.9110   -0.0859 H   0  0  0  0  0  0  0  0  0  0  0  0
   -2.5114   -0.0977   -1.4315 H   0  0  0  0  0  0  0  0  0  0  0  0
   -2.3900   -0.1263    0.3185 H   0  0  0  0  0  0  0  0  0  0  0  0
    2.4045    0.5579    0.9737 H   0  0  0  0  0  0  0  0  0  0  0  0
    2.3182    0.6522   -0.7775 H   0  0  0  0  0  0  0  0  0  0  0  0
   10.1060   -2.4825    1.0481 H   0  0  0  0  0  0  0  0  0  0  0  0
  1  3  2  0
  1  8  1  0
  2  4  1  0
  2  8  2  0
  3  9  1  0
  4  9  2  0
  5  6  2  0
  5 10  1  0
  6 11  1  0
  7 11  2  0
  7 12  1  0
  8 19  1  0
  9 20  1  0
 10 12  2  0
 10 26  1  0
 11 27  1  0
 12 35  1  0
 13 18  1  0
 13 26  2  0
 13 35  1  0
 14 21  1  0
 14 27  1  0
 14 29  2  0
 15 22  1  0
 15 28  1  0
 15 30  2  0
 16 25  1  0
 16 31  2  0
 16 33  1  0
 17 25  1  0
 17 32  2  0
 17 34  1  0
 19 23  1  0
 20 25  1  0
 21 24  1  0
 22 23  1  0
 24 28  1  0
  1 36  1  0
  3 37  1  0
  2 38  1  0
  4 39  1  0
  5 62  1  0
  6 40  1  0
  7 41  1  0
 19 42  1  0
 19 43  1  0
 20 44  1  0
 20 45  1  0
 27 46  1  0
 18 47  1  0
 18 48  1  0
 18 49  1  0
 21 50  1  0
 21 51  1  0
 22 52  1  0
 22 53  1  0
 28 54  1  0
 25 55  1  6
 33 56  1  0
 34 57  1  0
 23 58  1  0
 23 59  1  0
 24 60  1  0
 24 61  1  0
M  END
