
     RDKit          3D

 44 46  0  0  0  0  0  0  0  0999 V2000
   -7.1227   -0.1900   -1.3134 N   0  0  0  0  0  0  0  0  0  0  0  0
   -6.0065   -0.3670   -0.5662 C   0  0  0  0  0  0  0  0  0  0  0  0
   -4.9016    0.2336   -0.9451 N   0  0  0  0  0  0  0  0  0  0  0  0
   -3.7932    0.1029   -0.1799 C   0  0  0  0  0  0  0  0  0  0  0  0
   -6.0835   -1.1652    0.6189 C   0  0  0  0  0  0  0  0  0  0  0  0
   -4.9741   -1.3036    1.3869 C   0  0  0  0  0  0  0  0  0  0  0  0
   -3.7676   -0.6597    1.0099 C   0  0  0  0  0  0  0  0  0  0  0  0
   -2.5761   -0.7500    1.7558 C   0  0  0  0  0  0  0  0  0  0  0  0
   -1.4406   -0.1057    1.3418 C   0  0  0  0  0  0  0  0  0  0  0  0
   -1.4529    0.6551    0.1522 C   0  0  0  0  0  0  0  0  0  0  0  0
   -2.6048    0.7486   -0.5885 C   0  0  0  0  0  0  0  0  0  0  0  0
   -0.2181    1.3886   -0.2799 C   0  0  0  0  0  0  0  0  0  0  0  0
    0.8541    0.4642   -0.3154 O   0  0  0  0  0  0  0  0  0  0  0  0
    2.0939    0.9232   -0.5921 C   0  0  0  0  0  0  0  0  0  0  0  0
    2.3764    2.2369   -0.9621 C   0  0  0  0  0  0  0  0  0  0  0  0
    3.6920    2.5948   -1.2289 C   0  0  0  0  0  0  0  0  0  0  0  0
    4.7188    1.6697   -1.1312 C   0  0  0  0  0  0  0  0  0  0  0  0
    3.1262   -0.0086   -0.4957 C   0  0  0  0  0  0  0  0  0  0  0  0
    4.4376    0.3551   -0.7664 C   0  0  0  0  0  0  0  0  0  0  0  0
    5.5395   -0.6705   -0.6959 C   0  0  0  0  0  0  0  0  0  0  0  0
    5.4678   -1.5008    0.4890 N   0  0  0  0  0  0  0  0  0  0  0  0
    6.3846   -2.6163    0.3964 C   0  0  0  0  0  0  0  0  0  0  0  0
    5.7019   -0.7371    1.6962 C   0  0  0  0  0  0  0  0  0  0  0  0
   -7.0141    0.1999   -2.2346 H   0  0  0  0  0  0  0  0  0  0  0  0
   -7.8981   -0.8186   -1.1948 H   0  0  0  0  0  0  0  0  0  0  0  0
   -7.0154   -1.6460    0.8871 H   0  0  0  0  0  0  0  0  0  0  0  0
   -2.6251    1.3259   -1.5057 H   0  0  0  0  0  0  0  0  0  0  0  0
   -5.0019   -1.9043    2.2880 H   0  0  0  0  0  0  0  0  0  0  0  0
   -2.5685   -1.3360    2.6674 H   0  0  0  0  0  0  0  0  0  0  0  0
   -0.5340   -0.1784    1.9287 H   0  0  0  0  0  0  0  0  0  0  0  0
   -0.3767    1.8468   -1.2621 H   0  0  0  0  0  0  0  0  0  0  0  0
    0.0029    2.1961    0.4289 H   0  0  0  0  0  0  0  0  0  0  0  0
    1.6005    2.9851   -1.0469 H   0  0  0  0  0  0  0  0  0  0  0  0
    2.8991   -1.0246   -0.1946 H   0  0  0  0  0  0  0  0  0  0  0  0
    3.9121    3.6165   -1.5104 H   0  0  0  0  0  0  0  0  0  0  0  0
    5.7402    1.9670   -1.3348 H   0  0  0  0  0  0  0  0  0  0  0  0
    5.4629   -1.3262   -1.5693 H   0  0  0  0  0  0  0  0  0  0  0  0
    6.5137   -0.1589   -0.7829 H   0  0  0  0  0  0  0  0  0  0  0  0
    7.4400   -2.3074    0.3353 H   0  0  0  0  0  0  0  0  0  0  0  0
    6.2783   -3.2584    1.2716 H   0  0  0  0  0  0  0  0  0  0  0  0
    6.1616   -3.2152   -0.4877 H   0  0  0  0  0  0  0  0  0  0  0  0
    4.9600    0.0550    1.8000 H   0  0  0  0  0  0  0  0  0  0  0  0
    5.6167   -1.3872    2.5681 H   0  0  0  0  0  0  0  0  0  0  0  0
    6.6995   -0.2703    1.7218 H   0  0  0  0  0  0  0  0  0  0  0  0
  1  2  1  0
  2  3  2  0
  2  5  1  0
  3  4  1  0
  4  7  2  0
  4 11  1  0
  5  6  2  0
  6  7  1  0
  7  8  1  0
  8  9  2  0
  9 10  1  0
 10 11  2  0
 10 12  1  0
 12 13  1  0
 13 14  1  0
 14 15  2  0
 14 18  1  0
 15 16  1  0
 16 17  2  0
 17 19  1  0
 18 19  2  0
 19 20  1  0
 20 21  1  0
 21 22  1  0
 21 23  1  0
  1 24  1  0
  1 25  1  0
  5 26  1  0
 11 27  1  0
  6 28  1  0
  8 29  1  0
  9 30  1  0
 12 31  1  0
 12 32  1  0
 15 33  1  0
 18 34  1  0
 16 35  1  0
 17 36  1  0
 20 37  1  0
 20 38  1  0
 22 39  1  0
 22 40  1  0
 22 41  1  0
 23 42  1  0
 23 43  1  0
 23 44  1  0
M  END
