
     RDKit          3D

 16 16  0  0  0  0  0  0  0  0999 V2000
   -0.7146    1.1768   -0.0255 N   0  0  0  0  0  0  0  0  0  0  0  0
   -1.3542    0.0110   -0.0159 C   0  0  0  0  0  0  0  0  0  0  0  0
   -0.6229   -1.1744    0.0127 C   0  0  0  0  0  0  0  0  0  0  0  0
    0.7001   -1.1958    0.0256 N   0  0  0  0  0  0  0  0  0  0  0  0
    1.3399   -0.0301    0.0130 C   0  0  0  0  0  0  0  0  0  0  0  0
    0.6085    1.1553   -0.0104 C   0  0  0  0  0  0  0  0  0  0  0  0
   -2.8488    0.0183   -0.0432 C   0  0  0  0  0  0  0  0  0  0  0  0
    2.8347   -0.0372    0.0172 C   0  0  0  0  0  0  0  0  0  0  0  0
   -1.1322   -2.1324    0.0289 H   0  0  0  0  0  0  0  0  0  0  0  0
    1.1176    2.1135   -0.0133 H   0  0  0  0  0  0  0  0  0  0  0  0
   -3.2162    0.3460   -1.0171 H   0  0  0  0  0  0  0  0  0  0  0  0
   -3.2560   -0.9722    0.1520 H   0  0  0  0  0  0  0  0  0  0  0  0
   -3.2466    0.7065    0.7024 H   0  0  0  0  0  0  0  0  0  0  0  0
    3.2222   -0.3945   -0.9383 H   0  0  0  0  0  0  0  0  0  0  0  0
    3.2375    0.9592    0.1899 H   0  0  0  0  0  0  0  0  0  0  0  0
    3.2172   -0.7016    0.7918 H   0  0  0  0  0  0  0  0  0  0  0  0
  1  2  2  0
  1  6  1  0
  2  3  1  0
  2  7  1  0
  3  4  2  0
  4  5  1  0
  5  6  2  0
  5  8  1  0
  3  9  1  0
  6 10  1  0
  7 11  1  0
  7 12  1  0
  7 13  1  0
  8 14  1  0
  8 15  1  0
  8 16  1  0
M  END
