
     RDKit          3D

 22 22  0  0  0  0  0  0  0  0999 V2000
   -0.9494    0.0128    4.2624 C   0  0  0  0  0  0  0  0  0  0  0  0
    0.1618    0.0032    3.2226 C   0  0  0  0  0  0  0  0  0  0  0  0
   -0.3950   -0.0017    1.8070 C   0  0  0  0  0  0  0  0  0  0  0  0
    0.6561   -0.0151    0.7277 C   0  0  0  0  0  0  0  0  0  0  0  0
    0.2149   -0.0145   -0.6979 C   0  0  0  0  0  0  0  0  0  0  0  0
    1.1667   -0.0278   -1.7162 C   0  0  0  0  0  0  0  0  0  0  0  0
    0.7440   -0.0285   -3.0316 C   0  0  0  0  0  0  0  0  0  0  0  0
   -0.6207   -0.0156   -3.2873 C   0  0  0  0  0  0  0  0  0  0  0  0
   -1.5416   -0.0033   -2.3312 N   0  0  0  0  0  0  0  0  0  0  0  0
   -1.1271   -0.0024   -1.0714 C   0  0  0  0  0  0  0  0  0  0  0  0
    1.8398   -0.0285    0.9886 O   0  0  0  0  0  0  0  0  0  0  0  0
   -0.5409    0.0142    5.2731 H   0  0  0  0  0  0  0  0  0  0  0  0
   -1.5822    0.8960    4.1606 H   0  0  0  0  0  0  0  0  0  0  0  0
   -1.5908   -0.8648    4.1665 H   0  0  0  0  0  0  0  0  0  0  0  0
    0.8047    0.8747    3.3622 H   0  0  0  0  0  0  0  0  0  0  0  0
    0.7965   -0.8726    3.3708 H   0  0  0  0  0  0  0  0  0  0  0  0
   -1.0497   -0.8689    1.6616 H   0  0  0  0  0  0  0  0  0  0  0  0
   -1.0428    0.8685    1.6517 H   0  0  0  0  0  0  0  0  0  0  0  0
    2.2225   -0.0380   -1.4803 H   0  0  0  0  0  0  0  0  0  0  0  0
    1.4521   -0.0391   -3.8481 H   0  0  0  0  0  0  0  0  0  0  0  0
   -0.9838   -0.0158   -4.3089 H   0  0  0  0  0  0  0  0  0  0  0  0
   -1.9103    0.0078   -0.3227 H   0  0  0  0  0  0  0  0  0  0  0  0
  1  2  1  0
  1 12  1  0
  1 13  1  0
  1 14  1  0
  2  3  1  0
  2 15  1  0
  2 16  1  0
  3  4  1  0
  3 17  1  0
  3 18  1  0
  4  5  1  0
  4 11  2  0
  5  6  2  0
  5 10  1  0
  6  7  1  0
  6 19  1  0
  7  8  2  0
  7 20  1  0
  8  9  1  0
  8 21  1  0
  9 10  2  0
 10 22  1  0
M  END
