
     RDKit          3D

 49 51  0  0  0  0  0  0  0  0999 V2000
   -4.3103    1.5217   -1.5519 C   0  0  0  0  0  0  0  0  0  0  0  0
   -3.1999    1.4307    0.5639 C   0  0  0  0  0  0  0  0  0  0  0  0
   -4.2160    2.8981   -1.5476 C   0  0  0  0  0  0  0  0  0  0  0  0
   -3.1028    2.8144    0.5860 C   0  0  0  0  0  0  0  0  0  0  0  0
    3.7124    0.9518    1.1881 C   0  0  0  0  0  0  0  0  0  0  0  0
    3.8226   -1.2692    0.3279 C   0  0  0  0  0  0  0  0  0  0  0  0
   -3.7941    0.7614   -0.4998 C   0  0  0  0  0  0  0  0  0  0  0  0
   -2.9532   -1.6287   -0.0103 C   0  0  0  0  0  0  0  0  0  0  0  0
    3.3019   -0.3713    1.2533 C   0  0  0  0  0  0  0  0  0  0  0  0
    5.1671    0.4838   -0.7201 C   0  0  0  0  0  0  0  0  0  0  0  0
   -3.6072    3.5604   -0.4773 C   0  0  0  0  0  0  0  0  0  0  0  0
    4.6225    1.3598    0.2294 C   0  0  0  0  0  0  0  0  0  0  0  0
    4.7277   -0.8475   -0.6245 C   0  0  0  0  0  0  0  0  0  0  0  0
   -3.9260   -0.7016   -0.5054 C   0  0  0  0  0  0  0  0  0  0  0  0
   -3.3961   -2.9203   -0.1239 C   0  0  0  0  0  0  0  0  0  0  0  0
    0.0040   -1.6216    2.3189 C   0  0  0  0  0  0  0  0  0  0  0  0
   -2.7253   -4.1966    0.2544 C   0  0  0  0  0  0  0  0  0  0  0  0
   -2.9349    5.6168    0.4947 C   0  0  0  0  0  0  0  0  0  0  0  0
    2.2946   -0.8228    2.2723 C   0  0  0  0  0  0  0  0  0  0  0  0
   -5.0245   -1.2452   -0.9650 N   0  0  0  0  0  0  0  0  0  0  0  0
   -1.2251   -1.7269    1.6349 N   0  0  0  0  0  0  0  0  0  0  0  0
    6.0194    0.9007   -1.6986 N   0  0  0  0  0  0  0  0  0  0  0  0
    0.1516   -2.0450    3.5133 N   0  0  0  0  0  0  0  0  0  0  0  0
    1.0250   -1.0739    1.6263 N   0  0  0  0  0  0  0  0  0  0  0  0
   -0.8545   -0.5991   -0.3172 O   0  0  0  0  0  0  0  0  0  0  0  0
   -3.5550    4.8995   -0.5560 O   0  0  0  0  0  0  0  0  0  0  0  0
   -4.9449   -2.8858   -0.8381 S   0  0  0  0  0  0  0  0  0  0  0  0
    5.1075    3.0261    0.1911 Cl  0  0  0  0  0  0  0  0  0  0  0  0
    5.3505   -2.0028   -1.7602 Cl  0  0  0  0  0  0  0  0  0  0  0  0
   -4.7794    1.0270   -2.3923 H   0  0  0  0  0  0  0  0  0  0  0  0
   -2.8231    0.8834    1.4192 H   0  0  0  0  0  0  0  0  0  0  0  0
   -4.6112    3.4729   -2.3757 H   0  0  0  0  0  0  0  0  0  0  0  0
   -2.6392    3.2864    1.4407 H   0  0  0  0  0  0  0  0  0  0  0  0
    3.5220   -2.3092    0.3499 H   0  0  0  0  0  0  0  0  0  0  0  0
   -2.8662   -4.4055    1.3158 H   0  0  0  0  0  0  0  0  0  0  0  0
   -3.1297   -5.0402   -0.3015 H   0  0  0  0  0  0  0  0  0  0  0  0
   -1.6550   -4.1512    0.0608 H   0  0  0  0  0  0  0  0  0  0  0  0
   -2.9848    6.6677    0.2217 H   0  0  0  0  0  0  0  0  0  0  0  0
   -3.4534    5.4758    1.4465 H   0  0  0  0  0  0  0  0  0  0  0  0
   -1.8865    5.3333    0.6170 H   0  0  0  0  0  0  0  0  0  0  0  0
    2.6326   -1.7407    2.7565 H   0  0  0  0  0  0  0  0  0  0  0  0
    2.1976   -0.0694    3.0609 H   0  0  0  0  0  0  0  0  0  0  0  0
   -1.9600   -2.1660    2.1698 H   0  0  0  0  0  0  0  0  0  0  0  0
    6.6036    0.2028   -2.1287 H   0  0  0  0  0  0  0  0  0  0  0  0
    6.4949    1.7756   -1.5508 H   0  0  0  0  0  0  0  0  0  0  0  0
   -0.6927   -2.4666    3.8793 H   0  0  0  0  0  0  0  0  0  0  0  0
    0.8092   -0.5693    0.7807 H   0  0  0  0  0  0  0  0  0  0  0  0
   -1.5767   -1.2591    0.4066 C   0  0  0  0  0  0  0  0  0  0  0  0
    3.3225    1.6759    1.8920 H   0  0  0  0  0  0  0  0  0  0  0  0
 26 18  1  0
 26 11  1  0
  3 11  1  0
  3  1  2  0
 11  4  2  0
  1  7  1  0
  4  2  1  0
  7  2  2  0
  7 14  1  0
 28 12  1  0
 20 14  2  0
 20 27  1  0
 14  8  1  0
 22 10  1  0
 27 15  1  0
 12 10  1  0
 12  5  2  0
  8 15  2  0
  8 48  1  0
 10 13  2  0
  5  9  1  0
 25 48  2  0
 15 17  1  0
 48 21  1  0
 13 29  1  0
 13  6  1  0
  9  6  2  0
  9 19  1  0
 24 19  1  0
 24 16  1  0
 21 16  1  0
 16 23  2  0
  1 30  1  0
  2 31  1  0
  3 32  1  0
  4 33  1  0
  5 49  1  0
  6 34  1  0
 17 35  1  0
 17 36  1  0
 17 37  1  0
 18 38  1  0
 18 39  1  0
 18 40  1  0
 19 41  1  0
 19 42  1  0
 21 43  1  0
 22 44  1  0
 22 45  1  0
 23 46  1  0
 24 47  1  0
M  END
