
     RDKit          3D

 49 52  0  0  0  0  0  0  0  0999 V2000
   -6.5252   -1.2287    1.2036 C   0  0  0  0  0  0  0  0  0  0  0  0
    3.2457   -2.3708   -0.7815 C   0  0  0  0  0  0  0  0  0  0  0  0
   -5.5286   -0.5217    0.5356 C   0  0  0  0  0  0  0  0  0  0  0  0
   -3.5389    0.0177   -0.1855 C   0  0  0  0  0  0  0  0  0  0  0  0
    1.1886   -1.2405    0.0935 C   0  0  2  0  0  0  0  0  0  0  0  0
   -5.8851    0.6216   -0.2028 C   0  0  0  0  0  0  0  0  0  0  0  0
   -7.1914    1.0703   -0.2820 C   0  0  0  0  0  0  0  0  0  0  0  0
   -2.1015   -0.0446   -0.3778 C   0  0  0  0  0  0  0  0  0  0  0  0
   -0.1273   -0.6300   -0.2193 C   0  0  0  0  0  0  0  0  0  0  0  0
    2.0951   -0.2614    0.8482 C   0  0  0  0  0  0  0  0  0  0  0  0
    3.4366   -0.9146    1.1513 C   0  0  0  0  0  0  0  0  0  0  0  0
   -4.1942   -0.8297    0.5229 N   0  0  0  0  0  0  0  0  0  0  0  0
   -1.4764    0.7925   -1.1483 N   0  0  0  0  0  0  0  0  0  0  0  0
   -7.8330   -0.7960    1.1340 C   0  0  0  0  0  0  0  0  0  0  0  0
   -1.2929   -0.9587    0.2258 N   0  0  0  0  0  0  0  0  0  0  0  0
  -10.4708    0.1633    0.9583 C   0  0  0  0  0  0  0  0  0  0  0  0
   -8.1724    0.3528    0.3965 C   0  0  0  0  0  0  0  0  0  0  0  0
   -4.4677    1.2986   -0.9256 S   0  0  0  0  0  0  0  0  0  0  0  0
   -0.1757    0.4098   -1.0471 O   0  0  0  0  0  0  0  0  0  0  0  0
    4.0598   -1.4097   -0.0598 N   0  0  0  0  0  0  0  0  0  0  0  0
    1.8981   -1.7701   -1.1574 C   0  0  0  0  0  0  0  0  0  0  0  0
    5.2591   -1.0142   -0.5427 C   0  0  0  0  0  0  0  0  0  0  0  0
    5.7235   -1.4539   -1.5830 O   0  0  0  0  0  0  0  0  0  0  0  0
    6.0253    0.0159    0.2720 C   0  0  0  0  0  0  0  0  0  0  0  0
    7.3633    0.3462   -0.3732 C   0  0  0  0  0  0  0  0  0  0  0  0
    8.1368    1.3741    0.4061 C   0  0  1  0  0  0  0  0  0  0  0  0
    7.4651    2.5311    0.5395 F   0  0  0  0  0  0  0  0  0  0  0  0
    8.4271    0.9616    1.6527 F   0  0  0  0  0  0  0  0  0  0  0  0
    9.3018    1.6707   -0.1813 F   0  0  0  0  0  0  0  0  0  0  0  0
   -6.2727   -2.1127    1.7731 H   0  0  0  0  0  0  0  0  0  0  0  0
    3.7736   -2.6975   -1.6717 H   0  0  0  0  0  0  0  0  0  0  0  0
    3.0966   -3.2536   -0.1501 H   0  0  0  0  0  0  0  0  0  0  0  0
    0.9690   -2.0859    0.7525 H   0  0  0  0  0  0  0  0  0  0  0  0
   -7.4574    1.9544   -0.8459 H   0  0  0  0  0  0  0  0  0  0  0  0
    2.2576    0.6434    0.2569 H   0  0  0  0  0  0  0  0  0  0  0  0
    1.6294    0.0437    1.7863 H   0  0  0  0  0  0  0  0  0  0  0  0
    4.0781   -0.2036    1.6613 H   0  0  0  0  0  0  0  0  0  0  0  0
    3.2930   -1.7492    1.8462 H   0  0  0  0  0  0  0  0  0  0  0  0
   -8.5895   -1.3589    1.6617 H   0  0  0  0  0  0  0  0  0  0  0  0
  -10.6041   -0.8589    0.5949 H   0  0  0  0  0  0  0  0  0  0  0  0
  -10.3242    0.1377    2.0412 H   0  0  0  0  0  0  0  0  0  0  0  0
  -11.3752    0.7267    0.7455 H   0  0  0  0  0  0  0  0  0  0  0  0
    2.0500   -0.9672   -1.8828 H   0  0  0  0  0  0  0  0  0  0  0  0
    1.2887   -2.5349   -1.6408 H   0  0  0  0  0  0  0  0  0  0  0  0
    5.4216    0.9215    0.3685 H   0  0  0  0  0  0  0  0  0  0  0  0
    6.1776   -0.3636    1.2853 H   0  0  0  0  0  0  0  0  0  0  0  0
    7.9821   -0.5481   -0.4557 H   0  0  0  0  0  0  0  0  0  0  0  0
    7.2189    0.7287   -1.3843 H   0  0  0  0  0  0  0  0  0  0  0  0
   -9.4200    0.8310    0.2944 O   0  0  0  0  0  0  0  0  0  0  0  0
 23 22  2  0
 26 29  1  6
 25 26  1  0
 25 24  1  0
 26 28  1  0
 26 27  1  0
  1 14  2  0
  1  3  1  0
 22 24  1  0
 22 20  1  0
  2 21  1  0
  2 20  1  0
 14 17  1  0
 16 49  1  0
 21  5  1  0
 20 11  1  0
  3 12  1  0
  3  6  2  0
 12  4  2  0
 49 17  1  0
 17  7  2  0
 15  9  2  0
 15  8  1  0
  5 10  1  0
  5  9  1  0
 11 10  1  0
  6  7  1  0
  6 18  1  0
  4  8  1  0
  4 18  1  0
  9 19  1  0
  8 13  2  0
 19 13  1  0
  1 30  1  0
  2 31  1  0
  2 32  1  0
  5 33  1  1
  7 34  1  0
 10 35  1  0
 10 36  1  0
 11 37  1  0
 11 38  1  0
 14 39  1  0
 16 40  1  0
 16 41  1  0
 16 42  1  0
 21 43  1  0
 21 44  1  0
 24 45  1  0
 24 46  1  0
 25 47  1  0
 25 48  1  0
M  END
