
     RDKit          3D

 52 53  0  0  0  0  0  0  0  0999 V2000
   -3.2056    1.0740   -0.3158 C   0  0  2  0  0  0  0  0  0  0  0  0
    3.5365   -2.7375    1.3429 C   0  0  0  0  0  0  0  0  0  0  0  0
   -4.5311    1.1270    0.4358 C   0  0  1  0  0  0  0  0  0  0  0  0
   -5.0676   -0.2834    0.2156 C   0  0  1  0  0  0  0  0  0  0  0  0
    0.7870   -1.4695   -0.9484 C   0  0  0  0  0  0  0  0  0  0  0  0
   -3.8202   -1.1534    0.3689 C   0  0  1  0  0  0  0  0  0  0  0  0
   -3.9662   -2.5090   -0.2962 C   0  0  0  0  0  0  0  0  0  0  0  0
   -0.3789   -1.0102   -0.0710 C   0  0  0  0  0  0  0  0  0  0  0  0
    2.0674   -1.5569   -0.1717 C   0  0  0  0  0  0  0  0  0  0  0  0
    2.3805   -2.6883    0.5808 C   0  0  0  0  0  0  0  0  0  0  0  0
    0.1172    2.6024   -0.2517 N   0  0  0  0  0  0  0  0  0  0  0  0
   -2.7568   -0.2935   -0.1215 N   0  0  0  0  0  0  0  0  0  0  0  0
   -2.2169    2.1354    0.1728 C   0  0  0  0  0  0  0  0  0  0  0  0
    1.2763    2.9805   -1.0235 C   0  0  0  0  0  0  0  0  0  0  0  0
   -1.0974    2.4454   -0.7996 C   0  0  0  0  0  0  0  0  0  0  0  0
   -1.2919    2.5872   -2.0012 O   0  0  0  0  0  0  0  0  0  0  0  0
   -4.3108    1.3673    1.8056 O   0  0  0  0  0  0  0  0  0  0  0  0
   -6.0572   -0.6685    1.1374 O   0  0  0  0  0  0  0  0  0  0  0  0
   -4.2689   -2.3628   -1.6646 O   0  0  0  0  0  0  0  0  0  0  0  0
    4.4068   -1.6553    1.3738 C   0  0  0  0  0  0  0  0  0  0  0  0
    4.1054   -0.5259    0.6264 C   0  0  0  0  0  0  0  0  0  0  0  0
    4.9964    0.6753    0.6294 C   0  0  1  0  0  0  0  0  0  0  0  0
    5.3677    1.0250   -0.6111 F   0  0  0  0  0  0  0  0  0  0  0  0
    4.3763    1.7476    1.1510 F   0  0  0  0  0  0  0  0  0  0  0  0
    6.1149    0.4929    1.3353 F   0  0  0  0  0  0  0  0  0  0  0  0
    2.9452   -0.4812   -0.1400 C   0  0  0  0  0  0  0  0  0  0  0  0
   -3.4204    1.2821   -1.3758 H   0  0  0  0  0  0  0  0  0  0  0  0
   -5.1904    1.8926    0.0041 H   0  0  0  0  0  0  0  0  0  0  0  0
   -5.4321   -0.3563   -0.8157 H   0  0  0  0  0  0  0  0  0  0  0  0
    0.5505   -2.4399   -1.3933 H   0  0  0  0  0  0  0  0  0  0  0  0
    0.9069   -0.7675   -1.7785 H   0  0  0  0  0  0  0  0  0  0  0  0
   -3.6859   -1.3803    1.4394 H   0  0  0  0  0  0  0  0  0  0  0  0
   -3.0507   -3.0971   -0.1475 H   0  0  0  0  0  0  0  0  0  0  0  0
   -4.7625   -3.0415    0.2404 H   0  0  0  0  0  0  0  0  0  0  0  0
   -0.5655   -1.7526    0.7111 H   0  0  0  0  0  0  0  0  0  0  0  0
   -0.1043   -0.0822    0.4365 H   0  0  0  0  0  0  0  0  0  0  0  0
    1.7099   -3.5394    0.5683 H   0  0  0  0  0  0  0  0  0  0  0  0
    0.2191    2.5079    0.7443 H   0  0  0  0  0  0  0  0  0  0  0  0
   -2.7549    3.0803    0.3069 H   0  0  0  0  0  0  0  0  0  0  0  0
   -1.8285    1.8509    1.1515 H   0  0  0  0  0  0  0  0  0  0  0  0
    1.4578    2.2804   -1.8390 H   0  0  0  0  0  0  0  0  0  0  0  0
    1.1765    3.9793   -1.4510 H   0  0  0  0  0  0  0  0  0  0  0  0
    2.1437    2.9768   -0.3691 H   0  0  0  0  0  0  0  0  0  0  0  0
   -5.0547    0.9857    2.2869 H   0  0  0  0  0  0  0  0  0  0  0  0
   -6.9039   -0.3192    0.8425 H   0  0  0  0  0  0  0  0  0  0  0  0
   -4.3539   -3.2404   -2.0474 H   0  0  0  0  0  0  0  0  0  0  0  0
    5.3039   -1.7091    1.9747 H   0  0  0  0  0  0  0  0  0  0  0  0
    2.7127    0.3956   -0.7335 H   0  0  0  0  0  0  0  0  0  0  0  0
   -1.6479   -0.7908   -0.8906 C   0  0  0  0  0  0  0  0  0  0  0  0
    3.7670   -3.6234    1.9196 H   0  0  0  0  0  0  0  0  0  0  0  0
   -1.4328   -0.0861   -1.7000 H   0  0  0  0  0  0  0  0  0  0  0  0
   -1.9026   -1.7244   -1.3986 H   0  0  0  0  0  0  0  0  0  0  0  0
 22 23  1  6
 24 22  1  0
 22 25  1  0
 22 21  1  0
 20 21  1  0
 20  2  2  0
 21 26  2  0
  2 10  1  0
 26  9  1  0
 10  9  2  0
  9  5  1  0
  5  8  1  0
  8 49  1  0
  1  3  1  0
  1 13  1  0
  1 12  1  0
  3  4  1  0
  3 17  1  0
 49 12  1  0
 13 15  1  0
  4 18  1  0
  4  6  1  0
 19  7  1  0
 12  6  1  0
  6  7  1  0
 15 11  1  0
 15 16  2  0
 11 14  1  0
  1 27  1  6
  2 50  1  0
  3 28  1  6
  4 29  1  6
  5 30  1  0
  5 31  1  0
  6 32  1  1
  7 33  1  0
  7 34  1  0
 49 51  1  0
 49 52  1  0
  8 35  1  0
  8 36  1  0
 10 37  1  0
 11 38  1  0
 13 39  1  0
 13 40  1  0
 14 41  1  0
 14 42  1  0
 14 43  1  0
 17 44  1  0
 18 45  1  0
 19 46  1  0
 20 47  1  0
 26 48  1  0
M  END
