
     RDKit          3D

 53 55  0  0  0  0  0  0  0  0999 V2000
   -1.0469    1.1651    0.1765 N   0  0  0  0  0  0  0  0  0  0  0  0
    1.2990    1.5580    0.2838 C   0  0  0  0  0  0  0  0  0  0  0  0
    1.4931    0.1815    0.0098 C   0  0  0  0  0  0  0  0  0  0  0  0
    3.6592    1.9890    0.1907 C   0  0  0  0  0  0  0  0  0  0  0  0
    3.7718    0.6555   -0.5236 C   0  0  2  0  0  0  0  0  0  0  0  0
    1.8835    4.7081    0.2287 C   0  0  0  0  0  0  0  0  0  0  0  0
    1.6089    5.5668   -0.5649 C   0  0  0  0  0  0  0  0  0  0  0  0
    4.3435   -2.1882    0.1449 C   0  0  0  0  0  0  0  0  0  0  0  0
    4.4597   -3.7141    0.1553 C   0  0  1  0  0  0  0  0  0  0  0  0
    3.7562    0.8769   -2.0380 C   0  0  0  0  0  0  0  0  0  0  0  0
   -3.1418   -0.8850   -0.1270 C   0  0  0  0  0  0  0  0  0  0  0  0
   -3.8133    0.3100    0.1373 C   0  0  0  0  0  0  0  0  0  0  0  0
   -5.1929    0.3161    0.1485 C   0  0  0  0  0  0  0  0  0  0  0  0
   -5.9751   -0.8047   -0.0862 C   0  0  0  0  0  0  0  0  0  0  0  0
   -5.2692   -1.9734   -0.3400 C   0  0  0  0  0  0  0  0  0  0  0  0
   -3.8959   -2.0378   -0.3682 C   0  0  0  0  0  0  0  0  0  0  0  0
    0.4630   -0.6297   -0.1292 N   0  0  0  0  0  0  0  0  0  0  0  0
   -0.7622   -0.1070   -0.0250 C   0  0  0  0  0  0  0  0  0  0  0  0
   -0.0022    1.9853    0.3323 C   0  0  0  0  0  0  0  0  0  0  0  0
    2.4087    2.3681    0.5567 N   0  0  0  0  0  0  0  0  0  0  0  0
    2.7567   -0.2882   -0.0825 N   0  0  0  0  0  0  0  0  0  0  0  0
    4.6394    2.6837    0.3760 O   0  0  0  0  0  0  0  0  0  0  0  0
    4.2791   -4.3151   -1.2366 C   0  0  0  0  0  0  0  0  0  0  0  0
    5.8041   -4.1288    0.7435 C   0  0  0  0  0  0  0  0  0  0  0  0
   -1.7635   -1.0258   -0.1640 N   0  0  0  0  0  0  0  0  0  0  0  0
   -5.9823   -3.0884   -0.5723 F   0  0  0  0  0  0  0  0  0  0  0  0
   -5.8292    1.4686    0.4009 F   0  0  0  0  0  0  0  0  0  0  0  0
   -7.3173   -0.7036   -0.0523 O   0  0  0  0  0  0  0  0  0  0  0  0
    4.7454    0.2624   -0.2364 H   0  0  0  0  0  0  0  0  0  0  0  0
    3.1240    3.9266    1.7281 H   0  0  0  0  0  0  0  0  0  0  0  0
    1.4240    3.5711    1.9382 H   0  0  0  0  0  0  0  0  0  0  0  0
    1.3653    6.3285   -1.2698 H   0  0  0  0  0  0  0  0  0  0  0  0
    2.8446   -1.9260   -1.4019 H   0  0  0  0  0  0  0  0  0  0  0  0
    2.2035   -2.2553    0.1923 H   0  0  0  0  0  0  0  0  0  0  0  0
    5.1487   -1.7884   -0.4811 H   0  0  0  0  0  0  0  0  0  0  0  0
    4.5136   -1.8096    1.1578 H   0  0  0  0  0  0  0  0  0  0  0  0
    3.6683   -4.1083    0.8038 H   0  0  0  0  0  0  0  0  0  0  0  0
    2.8022    1.2852   -2.3743 H   0  0  0  0  0  0  0  0  0  0  0  0
    4.5483    1.5641   -2.3326 H   0  0  0  0  0  0  0  0  0  0  0  0
    3.9265   -0.0654   -2.5581 H   0  0  0  0  0  0  0  0  0  0  0  0
   -3.2740    1.2240    0.3287 H   0  0  0  0  0  0  0  0  0  0  0  0
   -3.4163   -2.9854   -0.5802 H   0  0  0  0  0  0  0  0  0  0  0  0
   -0.2465    3.0254    0.5142 H   0  0  0  0  0  0  0  0  0  0  0  0
    5.0098   -3.9013   -1.9363 H   0  0  0  0  0  0  0  0  0  0  0  0
    4.4199   -5.3970   -1.2143 H   0  0  0  0  0  0  0  0  0  0  0  0
    3.2857   -4.1270   -1.6459 H   0  0  0  0  0  0  0  0  0  0  0  0
    5.9298   -3.7553    1.7611 H   0  0  0  0  0  0  0  0  0  0  0  0
    5.9027   -5.2150    0.7747 H   0  0  0  0  0  0  0  0  0  0  0  0
    6.6294   -3.7381    0.1432 H   0  0  0  0  0  0  0  0  0  0  0  0
   -1.4264   -1.9593   -0.3434 H   0  0  0  0  0  0  0  0  0  0  0  0
   -7.7290   -1.5361   -0.3102 H   0  0  0  0  0  0  0  0  0  0  0  0
    2.2147    3.6607    1.1909 C   0  0  0  0  0  0  0  0  0  0  0  0
    2.9814   -1.7072   -0.3375 C   0  0  0  0  0  0  0  0  0  0  0  0
 24  9  1  0
 23  9  1  0
  9  8  1  0
  8 53  1  0
 27 13  1  0
 53 21  1  0
 28 14  1  0
  5 10  1  0
  5 21  1  0
  5  4  1  0
 21  3  1  0
 13 14  1  0
 13 12  2  0
 22  4  2  0
 14 15  2  0
  4 20  1  0
 12 11  1  0
  3 17  2  0
  3  2  1  0
 17 18  1  0
 20  2  1  0
 20 52  1  0
 15 26  1  0
 15 16  1  0
 11 16  2  0
 11 25  1  0
  2 19  2  0
 18 25  1  0
 18  1  2  0
 52  6  1  0
 19  1  1  0
  6  7  3  0
  5 29  1  1
 52 30  1  0
 52 31  1  0
  7 32  1  0
 53 33  1  0
 53 34  1  0
  8 35  1  0
  8 36  1  0
  9 37  1  1
 10 38  1  0
 10 39  1  0
 10 40  1  0
 12 41  1  0
 16 42  1  0
 19 43  1  0
 23 44  1  0
 23 45  1  0
 23 46  1  0
 24 47  1  0
 24 48  1  0
 24 49  1  0
 25 50  1  0
 28 51  1  0
M  END
