
     RDKit          3D

 30 32  0  0  0  0  0  0  0  0999 V2000
    4.4346    1.2207    0.5139 C   0  0  0  0  0  0  0  0  0  0  0  0
    4.8283   -0.0840    0.1665 C   0  0  0  0  0  0  0  0  0  0  0  0
    3.8763   -1.0408   -0.1458 C   0  0  0  0  0  0  0  0  0  0  0  0
    3.1027    1.5446    0.5439 C   0  0  0  0  0  0  0  0  0  0  0  0
    2.1139    0.6000    0.2319 C   0  0  0  0  0  0  0  0  0  0  0  0
    2.5344   -0.6829   -0.1081 C   0  0  0  0  0  0  0  0  0  0  0  0
    1.6426   -1.6458   -0.4227 O   0  0  0  0  0  0  0  0  0  0  0  0
    0.3374   -1.3659   -0.4082 C   0  0  0  0  0  0  0  0  0  0  0  0
   -0.1980   -0.1722   -0.0884 C   0  0  0  0  0  0  0  0  0  0  0  0
    0.6917    0.9334    0.2689 C   0  0  0  0  0  0  0  0  0  0  0  0
   -1.6628   -0.0055   -0.0689 C   0  0  0  0  0  0  0  0  0  0  0  0
   -2.4594   -0.9339    0.6032 C   0  0  0  0  0  0  0  0  0  0  0  0
   -3.8404   -0.8241    0.6113 C   0  0  0  0  0  0  0  0  0  0  0  0
   -4.4494    0.2446   -0.0578 C   0  0  0  0  0  0  0  0  0  0  0  0
   -3.6618    1.1725   -0.7209 C   0  0  0  0  0  0  0  0  0  0  0  0
   -2.2791    1.0541   -0.7274 C   0  0  0  0  0  0  0  0  0  0  0  0
   -5.7989    0.2944   -0.0017 O   0  0  0  0  0  0  0  0  0  0  0  0
   -4.5635   -1.7492    1.2776 O   0  0  0  0  0  0  0  0  0  0  0  0
    6.1400   -0.3410    0.1542 O   0  0  0  0  0  0  0  0  0  0  0  0
    0.2858    2.0431    0.5842 O   0  0  0  0  0  0  0  0  0  0  0  0
    5.1890    1.9586    0.7544 H   0  0  0  0  0  0  0  0  0  0  0  0
    4.1594   -2.0503   -0.4194 H   0  0  0  0  0  0  0  0  0  0  0  0
    2.8008    2.5478    0.8128 H   0  0  0  0  0  0  0  0  0  0  0  0
   -0.2545   -2.2257   -0.6943 H   0  0  0  0  0  0  0  0  0  0  0  0
   -2.0025   -1.7539    1.1448 H   0  0  0  0  0  0  0  0  0  0  0  0
   -4.1330    1.9989   -1.2409 H   0  0  0  0  0  0  0  0  0  0  0  0
   -1.6923    1.7851   -1.2650 H   0  0  0  0  0  0  0  0  0  0  0  0
   -6.1352    1.0730   -0.4588 H   0  0  0  0  0  0  0  0  0  0  0  0
   -5.5045   -1.5460    1.2238 H   0  0  0  0  0  0  0  0  0  0  0  0
    6.3130   -1.2566   -0.0953 H   0  0  0  0  0  0  0  0  0  0  0  0
  4  1  2  0
  1  2  1  0
  1 21  1  0
  3  2  2  0
  2 19  1  0
  6  3  1  0
  3 22  1  0
  5  4  1  0
  4 23  1  0
 10  5  1  0
  5  6  2  0
  7  6  1  0
  8  7  1  0
  9  8  2  0
  8 24  1  0
 11  9  1  0
  9 10  1  0
 20 10  2  0
 16 11  1  0
 12 11  2  0
 13 12  1  0
 12 25  1  0
 14 13  2  0
 18 13  1  0
 17 14  1  0
 14 15  1  0
 15 16  2  0
 15 26  1  0
 16 27  1  0
 17 28  1  0
 18 29  1  0
 19 30  1  0
M  END
