
     RDKit          3D

 34 35  0  0  0  0  0  0  0  0999 V2000
   -1.7420    0.3331    2.1670 C   0  0  0  0  0  0  0  0  0  0  0  0
   -1.1135    0.2260    3.3932 C   0  0  0  0  0  0  0  0  0  0  0  0
    0.2512   -0.0333    3.4315 C   0  0  0  0  0  0  0  0  0  0  0  0
    0.9894   -0.1903    2.2709 C   0  0  0  0  0  0  0  0  0  0  0  0
    0.3436   -0.1018    1.0460 C   0  0  0  0  0  0  0  0  0  0  0  0
   -1.0210    0.1571    0.9873 C   0  0  0  0  0  0  0  0  0  0  0  0
   -1.7441    0.3143   -0.3155 C   0  0  0  0  0  0  0  0  0  0  0  0
   -2.6703    1.1035   -0.4215 O   0  0  0  0  0  0  0  0  0  0  0  0
   -1.3013   -0.4641   -1.3150 N   0  0  0  0  0  0  0  0  0  0  0  0
   -1.8315   -0.4287   -2.6605 C   0  0  0  0  0  0  0  0  0  0  0  0
    1.0590   -0.1286    5.0067 S   0  0  2  0  0  0  0  0  0  0  0  0
    0.5494   -1.6072    5.5310 N   0  0  0  0  0  0  0  0  0  0  0  0
    0.4655    0.8441    5.9118 O   0  0  0  0  0  0  0  0  0  0  0  0
    2.4950   -0.0694    4.7732 O   0  0  0  0  0  0  0  0  0  0  0  0
   -0.7329   -0.3198   -3.6806 C   0  0  0  0  0  0  0  0  0  0  0  0
    0.0511    0.8220   -3.7761 C   0  0  0  0  0  0  0  0  0  0  0  0
    1.0716    0.9652   -4.6937 C   0  0  0  0  0  0  0  0  0  0  0  0
    1.3063   -0.0955   -5.5496 C   0  0  0  0  0  0  0  0  0  0  0  0
    0.5654   -1.2588   -5.5061 C   0  0  0  0  0  0  0  0  0  0  0  0
   -0.4494   -1.3546   -4.5635 C   0  0  0  0  0  0  0  0  0  0  0  0
    2.2903    0.0203   -6.4501 F   0  0  0  0  0  0  0  0  0  0  0  0
   -0.1974    1.8404   -2.9427 F   0  0  0  0  0  0  0  0  0  0  0  0
   -2.8016    0.5458    2.1283 H   0  0  0  0  0  0  0  0  0  0  0  0
   -1.6846    0.3501    4.3034 H   0  0  0  0  0  0  0  0  0  0  0  0
    2.0545   -0.3708    2.3047 H   0  0  0  0  0  0  0  0  0  0  0  0
    0.9303   -0.2084    0.1430 H   0  0  0  0  0  0  0  0  0  0  0  0
   -0.6273   -1.1852   -1.1114 H   0  0  0  0  0  0  0  0  0  0  0  0
   -2.4148   -1.3314   -2.8547 H   0  0  0  0  0  0  0  0  0  0  0  0
   -2.5186    0.4128   -2.7336 H   0  0  0  0  0  0  0  0  0  0  0  0
    0.6457   -1.6993    6.5382 H   0  0  0  0  0  0  0  0  0  0  0  0
    1.0155   -2.3756    5.0597 H   0  0  0  0  0  0  0  0  0  0  0  0
    1.6596    1.8723   -4.7424 H   0  0  0  0  0  0  0  0  0  0  0  0
    0.7728   -2.0724   -6.1873 H   0  0  0  0  0  0  0  0  0  0  0  0
   -1.0397   -2.2609   -4.5166 H   0  0  0  0  0  0  0  0  0  0  0  0
  1  2  2  0
  1  6  1  0
  1 23  1  0
  2  3  1  0
  2 24  1  0
  3  4  2  0
  3 11  1  0
  4  5  1  0
  4 25  1  0
  5  6  2  0
  5 26  1  0
  6  7  1  0
  7  8  2  0
  7  9  1  0
  9 10  1  0
  9 27  1  0
 10 15  1  0
 10 28  1  0
 10 29  1  0
 11 12  1  1
 11 13  2  0
 11 14  2  0
 12 30  1  0
 12 31  1  0
 15 16  2  0
 15 20  1  0
 16 17  1  0
 16 22  1  0
 17 18  2  0
 17 32  1  0
 18 19  1  0
 18 21  1  0
 19 20  2  0
 19 33  1  0
 20 34  1  0
M  END
