
     RDKit          3D

 30 31  0  0  0  0  0  0  0  0999 V2000
    3.1967   -1.7055    0.3458 N   0  0  0  0  0  0  0  0  0  0  0  0
   -0.0675    0.6945   -0.2736 N   0  0  0  0  0  0  0  0  0  0  0  0
    2.2531    0.2207    0.0888 C   0  0  0  0  0  0  0  0  0  0  0  0
    1.1466    1.2140   -0.0900 C   0  0  0  0  0  0  0  0  0  0  0  0
   -1.2374    1.5324   -0.4813 C   0  0  0  0  0  0  0  0  0  0  0  0
   -2.4917    0.7372   -0.2542 C   0  0  0  0  0  0  0  0  0  0  0  0
   -3.2460    0.2759   -1.3269 C   0  0  0  0  0  0  0  0  0  0  0  0
   -4.7861   -0.7411    0.1735 C   0  0  0  0  0  0  0  0  0  0  0  0
    6.2797   -0.4906   -0.8122 C   0  0  0  0  0  0  0  0  0  0  0  0
   -4.0595   -0.3031    1.2656 C   0  0  0  0  0  0  0  0  0  0  0  0
   -2.9095    0.4369    1.0403 C   0  0  0  0  0  0  0  0  0  0  0  0
    5.5333   -0.9673    0.4313 C   0  0  0  0  0  0  0  0  0  0  0  0
    4.0697   -0.7443    0.3168 C   0  0  0  0  0  0  0  0  0  0  0  0
   -4.4023   -0.4656   -1.1233 C   0  0  0  0  0  0  0  0  0  0  0  0
   -5.9037   -1.4541    0.3831 F   0  0  0  0  0  0  0  0  0  0  0  0
    3.5078    0.4919    0.1550 N   0  0  0  0  0  0  0  0  0  0  0  0
    1.9947   -1.0712    0.1970 O   0  0  0  0  0  0  0  0  0  0  0  0
    1.4098    2.4009   -0.0543 O   0  0  0  0  0  0  0  0  0  0  0  0
   -0.1864   -0.3028   -0.3690 H   0  0  0  0  0  0  0  0  0  0  0  0
   -1.1922    2.3729    0.2124 H   0  0  0  0  0  0  0  0  0  0  0  0
   -1.2276    1.9478   -1.4922 H   0  0  0  0  0  0  0  0  0  0  0  0
   -2.9337    0.4970   -2.3400 H   0  0  0  0  0  0  0  0  0  0  0  0
    7.3480   -0.6674   -0.6977 H   0  0  0  0  0  0  0  0  0  0  0  0
    5.9441   -1.0224   -1.7025 H   0  0  0  0  0  0  0  0  0  0  0  0
    6.1323    0.5759   -0.9780 H   0  0  0  0  0  0  0  0  0  0  0  0
   -4.3880   -0.5298    2.2712 H   0  0  0  0  0  0  0  0  0  0  0  0
   -2.3352    0.7895    1.8884 H   0  0  0  0  0  0  0  0  0  0  0  0
    5.7155   -2.0272    0.6073 H   0  0  0  0  0  0  0  0  0  0  0  0
    5.8947   -0.4284    1.3098 H   0  0  0  0  0  0  0  0  0  0  0  0
   -4.9920   -0.8181   -1.9594 H   0  0  0  0  0  0  0  0  0  0  0  0
 12  9  1  0
 12 13  1  0
 13  1  2  0
 13 16  1  0
  1 17  1  0
 16  3  2  0
 17  3  1  0
  3  4  1  0
  4 18  2  0
  4  2  1  0
  2  5  1  0
  5  6  1  0
  6 11  1  0
  6  7  2  0
 11 10  2  0
  7 14  1  0
 10  8  1  0
 14  8  2  0
  8 15  1  0
  2 19  1  0
  5 20  1  0
  5 21  1  0
  7 22  1  0
  9 23  1  0
  9 24  1  0
  9 25  1  0
 10 26  1  0
 11 27  1  0
 12 28  1  0
 12 29  1  0
 14 30  1  0
M  END
