
     RDKit          3D

 52 54  0  0  0  0  0  0  0  0999 V2000
   -7.7889    0.1518   -0.0828 C   0  0  0  0  0  0  0  0  0  0  0  0
   -7.1167   -1.0495    0.1559 C   0  0  0  0  0  0  0  0  0  0  0  0
   -5.7446   -1.0619    0.3070 C   0  0  0  0  0  0  0  0  0  0  0  0
   -2.9157   -0.7651    1.3016 C   0  0  0  0  0  0  0  0  0  0  0  0
   -0.7427    0.0594    0.6861 C   0  0  0  0  0  0  0  0  0  0  0  0
    3.4552   -1.6342   -1.7928 C   0  0  0  0  0  0  0  0  0  0  0  0
    2.9759   -0.8595   -0.7423 C   0  0  0  0  0  0  0  0  0  0  0  0
    3.8997   -0.0329    0.1232 C   0  0  1  0  0  0  0  0  0  0  0  0
   -4.9933    0.1146    0.2281 C   0  0  0  0  0  0  0  0  0  0  0  0
   -2.7145    0.9482   -0.3627 C   0  0  0  0  0  0  0  0  0  0  0  0
    2.6019   -2.3697   -2.6025 C   0  0  0  0  0  0  0  0  0  0  0  0
    4.1180   -0.7434    1.4487 C   0  0  0  0  0  0  0  0  0  0  0  0
   -7.0573    1.3344   -0.1633 C   0  0  0  0  0  0  0  0  0  0  0  0
   -5.6783    1.3032   -0.0079 C   0  0  0  0  0  0  0  0  0  0  0  0
   -1.3389    0.9378   -0.2136 C   0  0  0  0  0  0  0  0  0  0  0  0
    1.5976   -0.8802   -0.4791 C   0  0  0  0  0  0  0  0  0  0  0  0
    0.7432   -1.6444   -1.2674 C   0  0  0  0  0  0  0  0  0  0  0  0
    1.2419   -2.3714   -2.3374 C   0  0  0  0  0  0  0  0  0  0  0  0
    5.2591    0.2731   -0.5282 C   0  0  0  0  0  0  0  0  0  0  0  0
    6.0262    1.3669    0.1979 C   0  0  0  0  0  0  0  0  0  0  0  0
    7.3904    1.6089   -0.3876 C   0  0  0  0  0  0  0  0  0  0  0  0
   -3.5283    0.0990    0.3926 C   0  0  0  0  0  0  0  0  0  0  0  0
   -1.5373   -0.7923    1.4449 C   0  0  0  0  0  0  0  0  0  0  0  0
   -9.1244    0.0731   -0.2153 O   0  0  0  0  0  0  0  0  0  0  0  0
    4.1192    0.0889    2.4808 O   0  0  0  0  0  0  0  0  0  0  0  0
    4.3044   -1.9292    1.5484 O   0  0  0  0  0  0  0  0  0  0  0  0
    8.0156    2.6069    0.2280 O   0  0  0  0  0  0  0  0  0  0  0  0
    7.8781    0.9881   -1.2987 O   0  0  0  0  0  0  0  0  0  0  0  0
   -7.6803   -1.9719    0.2201 H   0  0  0  0  0  0  0  0  0  0  0  0
   -5.2507   -2.0098    0.4808 H   0  0  0  0  0  0  0  0  0  0  0  0
   -3.5195   -1.4208    1.9159 H   0  0  0  0  0  0  0  0  0  0  0  0
    4.5152   -1.6507   -2.0075 H   0  0  0  0  0  0  0  0  0  0  0  0
    3.4142    0.9297    0.3185 H   0  0  0  0  0  0  0  0  0  0  0  0
   -3.1595    1.6219   -1.0842 H   0  0  0  0  0  0  0  0  0  0  0  0
    3.0024   -2.9450   -3.4265 H   0  0  0  0  0  0  0  0  0  0  0  0
   -7.5385    2.2864   -0.3407 H   0  0  0  0  0  0  0  0  0  0  0  0
   -5.1358    2.2394   -0.0551 H   0  0  0  0  0  0  0  0  0  0  0  0
   -0.7256    1.6065   -0.8037 H   0  0  0  0  0  0  0  0  0  0  0  0
   -9.7471    1.9722    0.3772 H   0  0  0  0  0  0  0  0  0  0  0  0
   -9.5484    1.7547   -1.3753 H   0  0  0  0  0  0  0  0  0  0  0  0
  -10.8974    0.9744   -0.5319 H   0  0  0  0  0  0  0  0  0  0  0  0
   -0.3166   -1.6739   -1.0549 H   0  0  0  0  0  0  0  0  0  0  0  0
    0.5643   -2.9563   -2.9454 H   0  0  0  0  0  0  0  0  0  0  0  0
    5.8615   -0.6340   -0.6004 H   0  0  0  0  0  0  0  0  0  0  0  0
    5.0621    0.5971   -1.5521 H   0  0  0  0  0  0  0  0  0  0  0  0
    5.4688    2.3076    0.1622 H   0  0  0  0  0  0  0  0  0  0  0  0
    6.1573    1.1432    1.2598 H   0  0  0  0  0  0  0  0  0  0  0  0
   -1.0807   -1.4722    2.1524 H   0  0  0  0  0  0  0  0  0  0  0  0
    4.2957   -0.3973    3.3013 H   0  0  0  0  0  0  0  0  0  0  0  0
    8.8928    2.7401   -0.1613 H   0  0  0  0  0  0  0  0  0  0  0  0
    1.0108    0.0620    0.9080 S   0  0  0  0  0  0  0  0  0  0  0  0
   -9.8529    1.2632   -0.4477 C   0  0  0  0  0  0  0  0  0  0  0  0
 28 21  2  0
 26 12  2  0
 25 12  1  0
 21 27  1  0
 21 20  1  0
 19 20  1  0
 19  8  1  0
 12  8  1  0
  8  7  1  0
  7  6  2  0
  7 16  1  0
 13 14  1  0
 13  1  2  0
  6 11  1  0
 14  9  2  0
 24  1  1  0
 24 52  1  0
 10 15  2  0
 10 22  1  0
 15  5  1  0
  1  2  1  0
  9 22  1  0
  9  3  1  0
 22  4  2  0
  5 51  1  0
  5 23  2  0
  2  3  2  0
 11 18  2  0
 16 51  1  0
 16 17  2  0
  4 23  1  0
 17 18  1  0
  2 29  1  0
  3 30  1  0
  4 31  1  0
  6 32  1  0
  8 33  1  1
 10 34  1  0
 11 35  1  0
 13 36  1  0
 14 37  1  0
 15 38  1  0
 52 39  1  0
 52 40  1  0
 52 41  1  0
 17 42  1  0
 18 43  1  0
 19 44  1  0
 19 45  1  0
 20 46  1  0
 20 47  1  0
 23 48  1  0
 25 49  1  0
 27 50  1  0
M  END
