
     RDKit          3D

 28 29  0  0  0  0  0  0  0  0999 V2000
    0.3028    1.1003    0.3408 C   0  0  0  0  0  0  0  0  0  0  0  0
    0.9556   -0.1455    0.4293 C   0  0  0  0  0  0  0  0  0  0  0  0
    0.2524   -1.2325   -0.1233 C   0  0  0  0  0  0  0  0  0  0  0  0
   -1.0015   -1.0533   -0.6707 C   0  0  0  0  0  0  0  0  0  0  0  0
   -1.5331    0.2266   -0.6691 C   0  0  0  0  0  0  0  0  0  0  0  0
   -0.9018    1.2641   -0.1857 N   0  0  0  0  0  0  0  0  0  0  0  0
   -3.2567    0.5328   -1.4085 Br  0  0  0  0  0  0  0  0  0  0  0  0
    2.1718   -0.2826    1.0348 N   0  0  0  0  0  0  0  0  0  0  0  0
    2.9314   -1.5143    0.9222 C   0  0  0  0  0  0  0  0  0  0  0  0
    3.7196   -1.6217   -0.3830 C   0  0  0  0  0  0  0  0  0  0  0  0
    4.6074   -0.5170   -0.6814 N   0  0  0  0  0  0  0  0  0  0  0  0
    3.9634    0.7524   -0.9707 C   0  0  0  0  0  0  0  0  0  0  0  0
    3.5837    1.6391    0.2199 C   0  0  0  0  0  0  0  0  0  0  0  0
    2.9541    0.8842    1.3975 C   0  0  0  0  0  0  0  0  0  0  0  0
    0.7666    2.0042    0.7122 H   0  0  0  0  0  0  0  0  0  0  0  0
    0.6700   -2.2288   -0.1290 H   0  0  0  0  0  0  0  0  0  0  0  0
   -1.5370   -1.8947   -1.0879 H   0  0  0  0  0  0  0  0  0  0  0  0
    3.6233   -1.5468    1.7667 H   0  0  0  0  0  0  0  0  0  0  0  0
    2.2803   -2.3821    1.0433 H   0  0  0  0  0  0  0  0  0  0  0  0
    4.3034   -2.5463   -0.3521 H   0  0  0  0  0  0  0  0  0  0  0  0
    3.0255   -1.7271   -1.2231 H   0  0  0  0  0  0  0  0  0  0  0  0
    5.3173   -0.4142    0.0335 H   0  0  0  0  0  0  0  0  0  0  0  0
    2.3571    1.5663    2.0073 H   0  0  0  0  0  0  0  0  0  0  0  0
    3.7449    0.5258    2.0557 H   0  0  0  0  0  0  0  0  0  0  0  0
    4.6151    1.3413   -1.6235 H   0  0  0  0  0  0  0  0  0  0  0  0
    3.0730    0.5352   -1.5672 H   0  0  0  0  0  0  0  0  0  0  0  0
    4.4727    2.1512    0.5978 H   0  0  0  0  0  0  0  0  0  0  0  0
    2.9189    2.4275   -0.1441 H   0  0  0  0  0  0  0  0  0  0  0  0
  1  6  2  0
  1 15  1  0
  2  1  1  0
  3  4  1  0
  3  2  2  0
  3 16  1  0
  4  5  2  0
  4 17  1  0
  5  6  1  0
  5  7  1  0
  8  2  1  0
  8  9  1  0
  9 18  1  0
  9 19  1  0
 10  9  1  0
 10 20  1  0
 10 21  1  0
 11 10  1  0
 11 22  1  0
 12 11  1  0
 13 12  1  0
 13 14  1  0
 14  8  1  0
 14 23  1  0
 14 24  1  0
 12 25  1  0
 12 26  1  0
 13 27  1  0
 13 28  1  0
M  END
