
     RDKit          3D

 68 70  0  0  0  0  0  0  0  0999 V2000
   -5.2987    0.8094   -1.6497 O   0  0  0  0  0  0  0  0  0  0  0  0
   -5.1466    0.8916   -0.1972 S   0  0  1  0  0  0  0  0  0  0  0  0
   -5.7833    2.0034    0.5075 O   0  0  0  0  0  0  0  0  0  0  0  0
   -5.7118   -0.6313    0.5142 C   0  0  0  0  0  0  0  0  0  0  0  0
   -5.6839   -1.7882   -0.2534 C   0  0  0  0  0  0  0  0  0  0  0  0
   -6.0994   -2.9812    0.3188 C   0  0  0  0  0  0  0  0  0  0  0  0
   -6.5365   -3.0071    1.6370 C   0  0  0  0  0  0  0  0  0  0  0  0
   -6.5620   -1.8411    2.3915 C   0  0  0  0  0  0  0  0  0  0  0  0
   -6.1481   -0.6414    1.8325 C   0  0  0  0  0  0  0  0  0  0  0  0
   -3.3987    0.9022    0.1848 C   0  0  0  0  0  0  0  0  0  0  0  0
   -2.7345    2.1837   -0.2952 C   0  0  0  0  0  0  0  0  0  0  0  0
   -1.2207    2.1269   -0.0751 C   0  0  2  0  0  0  0  0  0  0  0  0
   -0.5594    3.4667   -0.3953 C   0  0  0  0  0  0  0  0  0  0  0  0
    0.9326    3.4862   -0.0921 C   0  0  0  0  0  0  0  0  0  0  0  0
    1.5920    4.8251   -0.3983 C   0  0  0  0  0  0  0  0  0  0  0  0
    3.0881    4.8084   -0.1164 C   0  0  0  0  0  0  0  0  0  0  0  0
   -0.6477    1.0545   -0.8634 N   0  0  0  0  0  0  0  0  0  0  0  0
    0.1081    0.0547   -0.3767 C   0  0  0  0  0  0  0  0  0  0  0  0
    0.3948   -0.0623    0.8068 O   0  0  0  0  0  0  0  0  0  0  0  0
    0.5381   -0.9774   -1.4032 C   0  0  2  0  0  0  0  0  0  0  0  0
   -0.4756   -2.1293   -1.4316 C   0  0  0  0  0  0  0  0  0  0  0  0
   -0.0660   -3.1922   -2.4438 C   0  0  0  0  0  0  0  0  0  0  0  0
    1.3416   -3.7072   -2.1694 C   0  0  0  0  0  0  0  0  0  0  0  0
    2.3520   -2.5669   -2.1191 C   0  0  0  0  0  0  0  0  0  0  0  0
    1.9317   -1.5133   -1.0796 C   0  0  1  0  0  0  0  0  0  0  0  0
    2.9564   -0.4019   -1.0514 C   0  0  0  0  0  0  0  0  0  0  0  0
    2.7906    0.6082   -1.7041 O   0  0  0  0  0  0  0  0  0  0  0  0
    4.2022   -0.5703   -0.2501 C   0  0  0  0  0  0  0  0  0  0  0  0
    5.1623    0.4432   -0.2890 C   0  0  0  0  0  0  0  0  0  0  0  0
    4.4489   -1.6937    0.5370 C   0  0  0  0  0  0  0  0  0  0  0  0
    5.6218   -1.8115    1.2656 C   0  0  0  0  0  0  0  0  0  0  0  0
    6.5561   -0.7900    1.2061 C   0  0  0  0  0  0  0  0  0  0  0  0
    8.0224   -0.9274    2.1098 Cl  0  0  0  0  0  0  0  0  0  0  0  0
    6.3362    0.3426    0.4336 C   0  0  0  0  0  0  0  0  0  0  0  0
   -5.3506   -1.7672   -1.2824 H   0  0  0  0  0  0  0  0  0  0  0  0
   -6.0818   -3.8897   -0.2678 H   0  0  0  0  0  0  0  0  0  0  0  0
   -6.8594   -3.9406    2.0781 H   0  0  0  0  0  0  0  0  0  0  0  0
   -6.9068   -1.8631    3.4164 H   0  0  0  0  0  0  0  0  0  0  0  0
   -6.1708    0.2673    2.4190 H   0  0  0  0  0  0  0  0  0  0  0  0
   -3.3047    0.7820    1.2659 H   0  0  0  0  0  0  0  0  0  0  0  0
   -2.9751    0.0187   -0.2963 H   0  0  0  0  0  0  0  0  0  0  0  0
   -2.9423    2.3515   -1.3554 H   0  0  0  0  0  0  0  0  0  0  0  0
   -3.1372    3.0374    0.2521 H   0  0  0  0  0  0  0  0  0  0  0  0
   -1.0303    1.8861    0.9729 H   0  0  0  0  0  0  0  0  0  0  0  0
   -0.7299    3.7150   -1.4491 H   0  0  0  0  0  0  0  0  0  0  0  0
   -1.0632    4.2447    0.1863 H   0  0  0  0  0  0  0  0  0  0  0  0
    1.0887    3.2357    0.9629 H   0  0  0  0  0  0  0  0  0  0  0  0
    1.4368    2.7047   -0.6663 H   0  0  0  0  0  0  0  0  0  0  0  0
    1.4211    5.0815   -1.4487 H   0  0  0  0  0  0  0  0  0  0  0  0
    1.1139    5.6158    0.1881 H   0  0  0  0  0  0  0  0  0  0  0  0
    3.5531    5.7673   -0.3478 H   0  0  0  0  0  0  0  0  0  0  0  0
    3.2884    4.5865    0.9333 H   0  0  0  0  0  0  0  0  0  0  0  0
    3.5887    4.0431   -0.7132 H   0  0  0  0  0  0  0  0  0  0  0  0
   -0.7738    1.1044   -1.8631 H   0  0  0  0  0  0  0  0  0  0  0  0
    0.5546   -0.5206   -2.3981 H   0  0  0  0  0  0  0  0  0  0  0  0
   -0.5484   -2.5757   -0.4348 H   0  0  0  0  0  0  0  0  0  0  0  0
   -1.4673   -1.7409   -1.6783 H   0  0  0  0  0  0  0  0  0  0  0  0
   -0.7817   -4.0167   -2.4239 H   0  0  0  0  0  0  0  0  0  0  0  0
   -0.1070   -2.7660   -3.4515 H   0  0  0  0  0  0  0  0  0  0  0  0
    1.3562   -4.2466   -1.2164 H   0  0  0  0  0  0  0  0  0  0  0  0
    1.6373   -4.4257   -2.9370 H   0  0  0  0  0  0  0  0  0  0  0  0
    3.3454   -2.9575   -1.8873 H   0  0  0  0  0  0  0  0  0  0  0  0
    2.4231   -2.0925   -3.1033 H   0  0  0  0  0  0  0  0  0  0  0  0
    1.8902   -2.0012   -0.1022 H   0  0  0  0  0  0  0  0  0  0  0  0
    4.9897    1.3236   -0.8932 H   0  0  0  0  0  0  0  0  0  0  0  0
    3.7313   -2.4993    0.6037 H   0  0  0  0  0  0  0  0  0  0  0  0
    5.8017   -2.6886    1.8718 H   0  0  0  0  0  0  0  0  0  0  0  0
    7.0716    1.1342    0.3964 H   0  0  0  0  0  0  0  0  0  0  0  0
  2  1  2  0
  3  2  2  0
  2 10  1  6
  4  2  1  0
  5  4  2  0
  4  9  1  0
  6  5  1  0
  5 35  1  0
  6  7  2  0
  6 36  1  0
  7  8  1  0
  7 37  1  0
  8  9  2  0
  8 38  1  0
  9 39  1  0
 11 10  1  0
 10 40  1  0
 10 41  1  0
 12 11  1  0
 11 42  1  0
 11 43  1  0
 13 12  1  0
 17 12  1  0
 12 44  1  1
 14 13  1  0
 13 45  1  0
 13 46  1  0
 15 14  1  0
 14 47  1  0
 14 48  1  0
 15 16  1  0
 15 49  1  0
 15 50  1  0
 16 51  1  0
 16 52  1  0
 16 53  1  0
 18 17  1  0
 17 54  1  0
 19 18  2  0
 20 18  1  0
 25 20  1  0
 20 21  1  0
 20 55  1  6
 22 21  1  0
 21 56  1  0
 21 57  1  0
 23 22  1  0
 22 58  1  0
 22 59  1  0
 24 23  1  0
 23 60  1  0
 23 61  1  0
 24 25  1  0
 24 62  1  0
 24 63  1  0
 26 25  1  0
 25 64  1  1
 28 26  1  0
 26 27  2  0
 30 28  1  0
 29 28  2  0
 34 29  1  0
 29 65  1  0
 31 30  2  0
 30 66  1  0
 32 31  1  0
 31 67  1  0
 33 32  1  0
 32 34  2  0
 34 68  1  0
M  END
