
     RDKit          3D

 53 57  0  0  0  0  0  0  0  0999 V2000
    8.0531   -0.0700   -0.2543 C   0  0  0  0  0  0  0  0  0  0  0  0
    6.7927    0.0710    0.3740 O   0  0  0  0  0  0  0  0  0  0  0  0
    5.7301   -0.5083   -0.2052 C   0  0  0  0  0  0  0  0  0  0  0  0
    5.7511   -1.2538   -1.3776 C   0  0  0  0  0  0  0  0  0  0  0  0
    4.5683   -1.7900   -1.8769 C   0  0  0  0  0  0  0  0  0  0  0  0
    3.3683   -1.5958   -1.2210 C   0  0  0  0  0  0  0  0  0  0  0  0
    3.3191   -0.8556   -0.0349 C   0  0  0  0  0  0  0  0  0  0  0  0
    4.5039   -0.3253    0.4391 C   0  0  0  0  0  0  0  0  0  0  0  0
    4.5011    0.4219    1.5542 F   0  0  0  0  0  0  0  0  0  0  0  0
    2.0346   -0.6321    0.6625 C   0  0  0  0  0  0  0  0  0  0  0  0
    1.8815   -0.8973    2.0220 C   0  0  0  0  0  0  0  0  0  0  0  0
    0.6501   -0.7025    2.6272 C   0  0  0  0  0  0  0  0  0  0  0  0
   -0.4347   -0.2379    1.8962 C   0  0  0  0  0  0  0  0  0  0  0  0
   -0.2980    0.0254    0.5376 C   0  0  0  0  0  0  0  0  0  0  0  0
    0.9382   -0.1760   -0.0657 C   0  0  0  0  0  0  0  0  0  0  0  0
   -1.4428    0.5967   -0.3068 C   0  0  2  0  0  0  0  0  0  0  0  0
   -2.7905   -0.0426    0.0381 C   0  0  0  0  0  0  0  0  0  0  0  0
   -3.4252    0.0030    1.1294 N   0  0  0  0  0  0  0  0  0  0  0  0
   -4.6931   -0.6956    1.1933 C   0  0  0  0  0  0  0  0  0  0  0  0
   -4.7901   -1.8357    0.1999 C   0  0  1  0  0  0  0  0  0  0  0  0
   -4.4153   -1.4174   -1.2090 C   0  0  0  0  0  0  0  0  0  0  0  0
   -3.1756   -0.6885   -1.1088 N   0  0  0  0  0  0  0  0  0  0  0  0
   -2.2330   -0.4405   -2.0895 C   0  0  0  0  0  0  0  0  0  0  0  0
   -1.2463    0.2822   -1.7071 N   0  0  0  0  0  0  0  0  0  0  0  0
   -2.3816   -0.9939   -3.3067 N   0  0  0  0  0  0  0  0  0  0  0  0
   -3.9524   -2.8417    0.5934 F   0  0  0  0  0  0  0  0  0  0  0  0
   -6.0449   -2.3585    0.1934 F   0  0  0  0  0  0  0  0  0  0  0  0
   -1.4715    2.1082   -0.0945 C   0  0  0  0  0  0  0  0  0  0  0  0
   -1.0236    2.9674   -1.0892 C   0  0  0  0  0  0  0  0  0  0  0  0
   -1.0199    4.3340   -0.8494 C   0  0  0  0  0  0  0  0  0  0  0  0
   -1.4274    4.8855    0.2864 N   0  0  0  0  0  0  0  0  0  0  0  0
   -1.8577    4.0598    1.2345 C   0  0  0  0  0  0  0  0  0  0  0  0
   -1.8960    2.6815    1.0998 C   0  0  0  0  0  0  0  0  0  0  0  0
    8.7648    0.4740    0.3612 H   0  0  0  0  0  0  0  0  0  0  0  0
    8.3641   -1.1160   -0.3127 H   0  0  0  0  0  0  0  0  0  0  0  0
    8.0568    0.3583   -1.2597 H   0  0  0  0  0  0  0  0  0  0  0  0
    6.6771   -1.4233   -1.9096 H   0  0  0  0  0  0  0  0  0  0  0  0
    4.5973   -2.3722   -2.7882 H   0  0  0  0  0  0  0  0  0  0  0  0
    2.4564   -2.0282   -1.6113 H   0  0  0  0  0  0  0  0  0  0  0  0
    2.7096   -1.2808    2.6036 H   0  0  0  0  0  0  0  0  0  0  0  0
    1.0477    0.0337   -1.1212 H   0  0  0  0  0  0  0  0  0  0  0  0
    0.5292   -0.9192    3.6806 H   0  0  0  0  0  0  0  0  0  0  0  0
   -1.3878   -0.0965    2.3873 H   0  0  0  0  0  0  0  0  0  0  0  0
   -4.8385   -1.0843    2.2035 H   0  0  0  0  0  0  0  0  0  0  0  0
   -5.5106    0.0067    1.0059 H   0  0  0  0  0  0  0  0  0  0  0  0
   -4.2936   -2.2998   -1.8396 H   0  0  0  0  0  0  0  0  0  0  0  0
   -5.2086   -0.7964   -1.6317 H   0  0  0  0  0  0  0  0  0  0  0  0
   -3.3058   -1.2131   -3.6418 H   0  0  0  0  0  0  0  0  0  0  0  0
   -1.7529   -0.6605   -4.0194 H   0  0  0  0  0  0  0  0  0  0  0  0
   -0.6819    2.5848   -2.0394 H   0  0  0  0  0  0  0  0  0  0  0  0
   -2.2707    2.0810    1.9160 H   0  0  0  0  0  0  0  0  0  0  0  0
   -0.6710    5.0127   -1.6205 H   0  0  0  0  0  0  0  0  0  0  0  0
   -2.1957    4.5157    2.1589 H   0  0  0  0  0  0  0  0  0  0  0  0
  1  2  1  0
  2  3  1  0
  3  4  2  0
  3  8  1  0
  4  5  1  0
  5  6  2  0
  6  7  1  0
  7  8  2  0
  7 10  1  0
  8  9  1  0
 10 11  2  0
 10 15  1  0
 11 12  1  0
 12 13  2  0
 13 14  1  0
 14 15  2  0
 16 14  1  1
 16 17  1  0
 16 24  1  0
 16 28  1  0
 17 18  2  0
 17 22  1  0
 18 19  1  0
 19 20  1  0
 20 21  1  0
 20 26  1  1
 20 27  1  0
 21 22  1  0
 22 23  1  0
 23 24  2  0
 23 25  1  0
 28 29  2  0
 28 33  1  0
 29 30  1  0
 30 31  2  0
 31 32  1  0
 32 33  2  0
  1 34  1  0
  1 35  1  0
  1 36  1  0
  4 37  1  0
  5 38  1  0
  6 39  1  0
 11 40  1  0
 15 41  1  0
 12 42  1  0
 13 43  1  0
 19 44  1  0
 19 45  1  0
 21 46  1  0
 21 47  1  0
 25 48  1  0
 25 49  1  0
 29 50  1  0
 33 51  1  0
 30 52  1  0
 32 53  1  0
M  END
