
     RDKit          3D

 50 52  0  0  0  0  0  0  0  0999 V2000
    6.9206   -0.0844   -1.5952 C   0  0  0  0  0  0  0  0  0  0  0  0
   -6.9137    2.0809   -0.0480 C   0  0  0  0  0  0  0  0  0  0  0  0
    6.0321    0.6277    1.1136 C   0  0  0  0  0  0  0  0  0  0  0  0
    5.0549    2.4796   -0.2104 C   0  0  0  0  0  0  0  0  0  0  0  0
   -4.9796   -1.8469    0.0376 C   0  0  0  0  0  0  0  0  0  0  0  0
   -3.6036   -0.4233   -1.5219 C   0  0  0  0  0  0  0  0  0  0  0  0
   -6.5829    0.2413   -1.5544 O   0  0  0  0  0  0  0  0  0  0  0  0
    4.5764   -1.9096    0.0240 O   0  0  0  0  0  0  0  0  0  0  0  0
    5.7315    0.4704   -1.4058 C   0  0  0  0  0  0  0  0  0  0  0  0
    0.1599    1.1782    0.5457 C   0  0  0  0  0  0  0  0  0  0  0  0
    0.1068   -1.6507    0.5869 C   0  0  0  0  0  0  0  0  0  0  0  0
    2.6313    1.0513    0.2098 C   0  0  0  0  0  0  0  0  0  0  0  0
   -2.4240    0.9881    0.9393 C   0  0  0  0  0  0  0  0  0  0  0  0
   -5.1281    0.5953    0.1201 O   0  0  0  0  0  0  0  0  0  0  0  0
   -2.2563   -1.3994    0.9184 O   0  0  0  0  0  0  0  0  0  0  0  0
    2.4272   -1.6648    0.2769 O   0  0  0  0  0  0  0  0  0  0  0  0
   -6.2113    0.8735   -0.5988 C   0  0  0  0  0  0  0  0  0  0  0  0
   -1.0224    0.5089    0.7217 C   0  0  0  0  0  0  0  0  0  0  0  0
   -1.0327   -0.8872    0.7357 C   0  0  0  0  0  0  0  0  0  0  0  0
    3.7689    0.3324    0.0823 C   0  0  0  0  0  0  0  0  0  0  0  0
    3.6689   -1.1231    0.1205 C   0  0  0  0  0  0  0  0  0  0  0  0
    1.3491    0.4453    0.3900 C   0  0  0  0  0  0  0  0  0  0  0  0
    1.2941   -0.9474    0.4181 C   0  0  0  0  0  0  0  0  0  0  0  0
   -3.2215   -0.3335    0.9869 C   0  0  2  0  0  0  0  0  0  0  0  0
    5.1488    0.9515   -0.0955 C   0  0  1  0  0  0  0  0  0  0  0  0
   -4.2495   -0.5221   -0.1467 C   0  0  1  0  0  0  0  0  0  0  0  0
    7.5990   -0.3087   -0.7818 H   0  0  0  0  0  0  0  0  0  0  0  0
    7.2607   -0.3420   -2.5898 H   0  0  0  0  0  0  0  0  0  0  0  0
   -7.7547    2.3527   -0.6793 H   0  0  0  0  0  0  0  0  0  0  0  0
   -7.2816    1.8734    0.9579 H   0  0  0  0  0  0  0  0  0  0  0  0
   -6.2311    2.9273    0.0255 H   0  0  0  0  0  0  0  0  0  0  0  0
    5.5639    0.9995    2.0261 H   0  0  0  0  0  0  0  0  0  0  0  0
    6.2105   -0.4388    1.2303 H   0  0  0  0  0  0  0  0  0  0  0  0
    7.0006    1.1215    1.0186 H   0  0  0  0  0  0  0  0  0  0  0  0
    6.0550    2.8860   -0.3600 H   0  0  0  0  0  0  0  0  0  0  0  0
    4.4431    2.7959   -1.0573 H   0  0  0  0  0  0  0  0  0  0  0  0
    4.6477    2.9323    0.6959 H   0  0  0  0  0  0  0  0  0  0  0  0
   -4.2708   -2.6719   -0.0204 H   0  0  0  0  0  0  0  0  0  0  0  0
   -5.4695   -1.8921    1.0118 H   0  0  0  0  0  0  0  0  0  0  0  0
   -5.7288   -2.0049   -0.7345 H   0  0  0  0  0  0  0  0  0  0  0  0
   -4.3266   -0.6161   -2.3108 H   0  0  0  0  0  0  0  0  0  0  0  0
   -3.1636    0.5576   -1.7056 H   0  0  0  0  0  0  0  0  0  0  0  0
   -2.8168   -1.1714   -1.6174 H   0  0  0  0  0  0  0  0  0  0  0  0
    5.1010    0.6662   -2.2707 H   0  0  0  0  0  0  0  0  0  0  0  0
    0.1963    2.2607    0.5306 H   0  0  0  0  0  0  0  0  0  0  0  0
    0.0869   -2.7321    0.6012 H   0  0  0  0  0  0  0  0  0  0  0  0
    2.6610    2.1328    0.1817 H   0  0  0  0  0  0  0  0  0  0  0  0
   -2.5199    1.5345    1.8786 H   0  0  0  0  0  0  0  0  0  0  0  0
   -2.7618    1.6597    0.1496 H   0  0  0  0  0  0  0  0  0  0  0  0
   -3.7450   -0.4387    1.9408 H   0  0  0  0  0  0  0  0  0  0  0  0
  1  9  2  0
  2 17  1  0
  3 25  1  0
  4 25  1  0
  5 26  1  0
  6 26  1  0
  7 17  2  0
  8 21  2  0
 25  9  1  6
 10 18  2  0
 10 22  1  0
 11 19  2  0
 11 23  1  0
 12 20  2  0
 12 22  1  0
 13 18  1  0
 13 24  1  0
 14 17  1  0
 26 14  1  6
 15 19  1  0
 15 24  1  0
 16 21  1  0
 16 23  1  0
 18 19  1  0
 20 21  1  0
 20 25  1  0
 22 23  2  0
 24 26  1  0
  1 27  1  0
  1 28  1  0
  2 29  1  0
  2 30  1  0
  2 31  1  0
  3 32  1  0
  3 33  1  0
  3 34  1  0
  4 35  1  0
  4 36  1  0
  4 37  1  0
  5 38  1  0
  5 39  1  0
  5 40  1  0
  6 41  1  0
  6 42  1  0
  6 43  1  0
  9 44  1  0
 10 45  1  0
 11 46  1  0
 12 47  1  0
 13 48  1  0
 13 49  1  0
 24 50  1  1
M  END
