
     RDKit          3D

 74 73  0  0  0  0  0  0  0  0999 V2000
   -9.5716    2.0023   -2.4989 O   0  0  0  0  0  0  0  0  0  0  0  0
   -8.7107    2.5067   -1.6186 C   0  0  0  0  0  0  0  0  0  0  0  0
   -8.9027    3.5458   -1.0372 O   0  0  0  0  0  0  0  0  0  0  0  0
   -7.5034    1.6273   -1.4495 C   0  0  0  0  0  0  0  0  0  0  0  0
   -6.4580    2.1978   -0.5057 C   0  0  0  0  0  0  0  0  0  0  0  0
   -5.2570    1.2669   -0.3916 C   0  0  0  0  0  0  0  0  0  0  0  0
   -4.1943    1.7713    0.5789 C   0  0  2  0  0  0  0  0  0  0  0  0
   -3.7296    3.0547    0.2269 O   0  0  0  0  0  0  0  0  0  0  0  0
   -3.0069    0.7976    0.6954 C   0  0  1  0  0  0  0  0  0  0  0  0
   -1.8834    1.3735    1.4818 C   0  0  0  0  0  0  0  0  0  0  0  0
   -0.6159    1.4112    1.0544 C   0  0  0  0  0  0  0  0  0  0  0  0
    0.4855    1.9313    1.8331 C   0  0  0  0  0  0  0  0  0  0  0  0
    1.7539    1.9781    1.3876 C   0  0  0  0  0  0  0  0  0  0  0  0
    2.8570    2.4891    2.1729 C   0  0  0  0  0  0  0  0  0  0  0  0
    4.1406    2.5600    1.7922 C   0  0  0  0  0  0  0  0  0  0  0  0
    4.7187    2.1576    0.4686 C   0  0  0  0  0  0  0  0  0  0  0  0
    5.2924    3.3520   -0.2406 C   0  0  0  0  0  0  0  0  0  0  0  0
    6.5723    3.5781   -0.5326 C   0  0  0  0  0  0  0  0  0  0  0  0
    7.7449    2.6887   -0.2626 C   0  0  0  0  0  0  0  0  0  0  0  0
    8.3830    2.1722   -1.5535 C   0  0  0  0  0  0  0  0  0  0  0  0
    9.6163    1.3142   -1.3018 C   0  0  0  0  0  0  0  0  0  0  0  0
   10.2625    0.8027   -2.5832 C   0  0  0  0  0  0  0  0  0  0  0  0
   11.4839   -0.0682   -2.3235 C   0  0  0  0  0  0  0  0  0  0  0  0
    0.0392   -4.6031   -2.4928 O   0  0  0  0  0  0  0  0  0  0  0  0
    0.7156   -5.1229   -1.6426 C   0  0  0  0  0  0  0  0  0  0  0  0
    1.8327   -5.7882   -1.8783 O   0  0  0  0  0  0  0  0  0  0  0  0
    0.3988   -5.1072   -0.1695 C   0  0  0  0  0  0  0  0  0  0  0  0
   -1.2184   -4.0663    1.3140 C   0  0  0  0  0  0  0  0  0  0  0  0
   -0.6008   -4.3946    2.3162 O   0  0  0  0  0  0  0  0  0  0  0  0
   -2.5013   -3.2313    1.3922 C   0  0  1  0  0  0  0  0  0  0  0  0
   -3.5904   -0.7368    1.5157 S   0  0  0  0  0  0  0  0  0  0  0  0
   -3.2740   -3.4654    2.5877 N   0  0  0  0  0  0  0  0  0  0  0  0
  -10.3393    2.5872   -2.5815 H   0  0  0  0  0  0  0  0  0  0  0  0
   -7.8465    0.6478   -1.0993 H   0  0  0  0  0  0  0  0  0  0  0  0
   -7.0707    1.4456   -2.4385 H   0  0  0  0  0  0  0  0  0  0  0  0
   -6.1382    3.1790   -0.8601 H   0  0  0  0  0  0  0  0  0  0  0  0
   -6.8957    2.3483    0.4849 H   0  0  0  0  0  0  0  0  0  0  0  0
   -5.5948    0.2775   -0.0720 H   0  0  0  0  0  0  0  0  0  0  0  0
   -4.7987    1.1244   -1.3786 H   0  0  0  0  0  0  0  0  0  0  0  0
   -4.6414    1.8896    1.5729 H   0  0  0  0  0  0  0  0  0  0  0  0
   -3.3590    3.0118   -0.6619 H   0  0  0  0  0  0  0  0  0  0  0  0
   -2.6635    0.5279   -0.3104 H   0  0  0  0  0  0  0  0  0  0  0  0
   -2.1307    1.7479    2.4723 H   0  0  0  0  0  0  0  0  0  0  0  0
   -0.3791    1.0286    0.0645 H   0  0  0  0  0  0  0  0  0  0  0  0
    0.2567    2.2982    2.8308 H   0  0  0  0  0  0  0  0  0  0  0  0
    1.9620    1.6085    0.3880 H   0  0  0  0  0  0  0  0  0  0  0  0
    2.6054    2.8417    3.1690 H   0  0  0  0  0  0  0  0  0  0  0  0
    4.8546    2.9701    2.4997 H   0  0  0  0  0  0  0  0  0  0  0  0
    5.4885    1.3989    0.6286 H   0  0  0  0  0  0  0  0  0  0  0  0
    3.9595    1.6951   -0.1655 H   0  0  0  0  0  0  0  0  0  0  0  0
    4.5643    4.1073   -0.5222 H   0  0  0  0  0  0  0  0  0  0  0  0
    6.8089    4.5032   -1.0521 H   0  0  0  0  0  0  0  0  0  0  0  0
    8.4972    3.2532    0.2989 H   0  0  0  0  0  0  0  0  0  0  0  0
    7.4644    1.8420    0.3685 H   0  0  0  0  0  0  0  0  0  0  0  0
    7.6417    1.5941   -2.1144 H   0  0  0  0  0  0  0  0  0  0  0  0
    8.6536    3.0209   -2.1908 H   0  0  0  0  0  0  0  0  0  0  0  0
   10.3508    1.8923   -0.7301 H   0  0  0  0  0  0  0  0  0  0  0  0
    9.3421    0.4631   -0.6683 H   0  0  0  0  0  0  0  0  0  0  0  0
    9.5244    0.2362   -3.1594 H   0  0  0  0  0  0  0  0  0  0  0  0
   10.5467    1.6542   -3.2097 H   0  0  0  0  0  0  0  0  0  0  0  0
   11.9331   -0.4173   -3.2540 H   0  0  0  0  0  0  0  0  0  0  0  0
   12.2496    0.4803   -1.7716 H   0  0  0  0  0  0  0  0  0  0  0  0
   11.2216   -0.9479   -1.7328 H   0  0  0  0  0  0  0  0  0  0  0  0
    2.0306   -5.7926   -2.8270 H   0  0  0  0  0  0  0  0  0  0  0  0
    0.3205   -6.1423    0.1791 H   0  0  0  0  0  0  0  0  0  0  0  0
    1.2427   -4.6630    0.3653 H   0  0  0  0  0  0  0  0  0  0  0  0
   -1.3752   -4.1100   -0.7189 H   0  0  0  0  0  0  0  0  0  0  0  0
   -3.1334   -3.4617    0.5299 H   0  0  0  0  0  0  0  0  0  0  0  0
   -1.3707   -1.5168    2.0808 H   0  0  0  0  0  0  0  0  0  0  0  0
   -1.6569   -1.5344    0.3400 H   0  0  0  0  0  0  0  0  0  0  0  0
   -3.6313   -4.4122    2.5952 H   0  0  0  0  0  0  0  0  0  0  0  0
   -2.6822   -3.3764    3.4054 H   0  0  0  0  0  0  0  0  0  0  0  0
   -2.1047   -1.7587    1.3095 C   0  0  0  0  0  0  0  0  0  0  0  0
   -0.8102   -4.3716    0.0749 N   0  0  0  0  0  0  0  0  0  0  0  0
 24 25  2  0
 23 22  1  0
 25 26  1  0
 25 27  1  0
 22 21  1  0
 27 74  1  0
 21 20  1  0
 20 19  1  0
 74 28  1  0
 14 15  2  0
 14 13  1  0
  8  7  1  0
  3  2  2  0
 15 16  1  0
 29 28  2  0
 12 13  2  0
 12 11  1  0
 28 30  1  0
 19 18  1  0
 10 11  2  0
 10  9  1  0
  2  4  1  0
  2  1  1  0
  7  6  1  0
  7  9  1  0
 31  9  1  0
 31 73  1  0
  5  6  1  0
  5  4  1  0
 16 17  1  0
 18 17  2  0
 30 32  1  0
 30 73  1  0
  1 33  1  0
  4 34  1  0
  4 35  1  0
  5 36  1  0
  5 37  1  0
  6 38  1  0
  6 39  1  0
  7 40  1  1
  8 41  1  0
  9 42  1  6
 10 43  1  0
 11 44  1  0
 12 45  1  0
 13 46  1  0
 14 47  1  0
 15 48  1  0
 16 49  1  0
 16 50  1  0
 17 51  1  0
 18 52  1  0
 19 53  1  0
 19 54  1  0
 20 55  1  0
 20 56  1  0
 21 57  1  0
 21 58  1  0
 22 59  1  0
 22 60  1  0
 23 61  1  0
 23 62  1  0
 23 63  1  0
 26 64  1  0
 27 65  1  0
 27 66  1  0
 74 67  1  0
 30 68  1  6
 73 69  1  0
 73 70  1  0
 32 71  1  0
 32 72  1  0
M  END
