
     RDKit          3D

 35 37  0  0  0  0  0  0  0  0999 V2000
    4.0560   -0.4719   -0.4328 S   0  0  1  0  0  0  0  0  0  0  0  0
    5.4541   -0.6804   -0.1298 O   0  0  0  0  0  0  0  0  0  0  0  0
    3.3910   -1.0988   -1.5537 O   0  0  0  0  0  0  0  0  0  0  0  0
    3.2672   -1.0473    0.9428 N   0  0  0  0  0  0  0  0  0  0  0  0
    3.7340    1.2269   -0.5577 C   0  0  0  0  0  0  0  0  0  0  0  0
    2.4194    1.7758   -1.5151 S   0  0  0  0  0  0  0  0  0  0  0  0
    2.7025    3.3826   -1.0208 C   0  0  0  0  0  0  0  0  0  0  0  0
    3.7642    3.4878   -0.1687 C   0  0  0  0  0  0  0  0  0  0  0  0
    4.3626    2.2378    0.1086 C   0  0  0  0  0  0  0  0  0  0  0  0
   -0.8788    1.0832    0.4917 C   0  0  0  0  0  0  0  0  0  0  0  0
   -2.3673    0.9033    0.4110 C   0  0  0  0  0  0  0  0  0  0  0  0
   -3.1916    1.3218    1.4517 C   0  0  0  0  0  0  0  0  0  0  0  0
   -4.5589    1.1194    1.3959 C   0  0  0  0  0  0  0  0  0  0  0  0
   -4.3091    0.0683   -0.7483 C   0  0  0  0  0  0  0  0  0  0  0  0
   -5.1233    0.4896    0.2956 C   0  0  0  0  0  0  0  0  0  0  0  0
   -6.8258    0.2433    0.2384 Cl  0  0  0  0  0  0  0  0  0  0  0  0
    1.9076   -0.9644    0.9462 N   0  0  0  0  0  0  0  0  0  0  0  0
    1.1430   -2.0625    0.5996 C   0  0  0  0  0  0  0  0  0  0  0  0
   -0.2422   -0.0001    1.3688 C   0  0  2  0  0  0  0  0  0  0  0  0
    1.2541    0.1595    1.4504 C   0  0  0  0  0  0  0  0  0  0  0  0
   -2.9385    0.2754   -0.6883 C   0  0  0  0  0  0  0  0  0  0  0  0
   -0.5396   -1.6760    0.7244 S   0  0  0  0  0  0  0  0  0  0  0  0
    1.6979   -3.5143    0.1431 S   0  0  0  0  0  0  0  0  0  0  0  0
    1.8335    1.1107    1.8901 O   0  0  0  0  0  0  0  0  0  0  0  0
   -4.9838   -0.7121   -2.1270 Cl  0  0  0  0  0  0  0  0  0  0  0  0
    3.6977   -0.7899    1.8274 H   0  0  0  0  0  0  0  0  0  0  0  0
    2.0797    4.1783   -1.4005 H   0  0  0  0  0  0  0  0  0  0  0  0
    4.1079    4.4257    0.2411 H   0  0  0  0  0  0  0  0  0  0  0  0
    5.2069    2.0980    0.7682 H   0  0  0  0  0  0  0  0  0  0  0  0
   -0.4392    1.0543   -0.5061 H   0  0  0  0  0  0  0  0  0  0  0  0
   -0.6382    2.0539    0.9294 H   0  0  0  0  0  0  0  0  0  0  0  0
   -2.7676    1.8158    2.3170 H   0  0  0  0  0  0  0  0  0  0  0  0
   -5.1924    1.4526    2.2064 H   0  0  0  0  0  0  0  0  0  0  0  0
   -0.6405    0.0538    2.3848 H   0  0  0  0  0  0  0  0  0  0  0  0
   -2.3164   -0.0542   -1.5107 H   0  0  0  0  0  0  0  0  0  0  0  0
  1  2  2  0
  1  3  2  0
  1  4  1  1
  1  5  1  0
  4 17  1  0
  4 26  1  0
  5  6  1  0
  5  9  2  0
  6  7  1  0
  7  8  2  0
  7 27  1  0
  8  9  1  0
  8 28  1  0
  9 29  1  0
 10 11  1  0
 10 19  1  0
 10 30  1  0
 10 31  1  0
 11 12  2  0
 11 21  1  0
 12 13  1  0
 12 32  1  0
 13 15  2  0
 13 33  1  0
 14 15  1  0
 14 21  2  0
 14 25  1  0
 15 16  1  0
 17 18  1  0
 17 20  1  0
 18 22  1  0
 18 23  2  0
 19 20  1  0
 19 22  1  0
 19 34  1  1
 20 24  2  0
 21 35  1  0
M  END
