
     RDKit          3D

 25 26  0  0  0  0  0  0  0  0999 V2000
   -3.8790    0.0370    1.0287 C   0  0  0  0  0  0  0  0  0  0  0  0
   -3.2181   -0.1434   -0.3373 C   0  0  0  0  0  0  0  0  0  0  0  0
   -1.7184   -0.1654   -0.2571 C   0  0  0  0  0  0  0  0  0  0  0  0
   -0.9816   -1.3390   -0.2002 C   0  0  0  0  0  0  0  0  0  0  0  0
   -1.6633   -2.6731   -0.2528 C   0  0  0  0  0  0  0  0  0  0  0  0
    0.3641   -1.3912   -0.1027 N   0  0  0  0  0  0  0  0  0  0  0  0
    0.9811   -0.2435   -0.0562 C   0  0  0  0  0  0  0  0  0  0  0  0
    2.3636    0.0911    0.0481 C   0  0  0  0  0  0  0  0  0  0  0  0
    3.4283   -0.8237    0.1265 C   0  0  0  0  0  0  0  0  0  0  0  0
    4.2902   -1.5860    0.1996 N   0  0  0  0  0  0  0  0  0  0  0  0
    2.4342    1.4684    0.0584 C   0  0  0  0  0  0  0  0  0  0  0  0
    1.2061    1.9601   -0.0315 N   0  0  0  0  0  0  0  0  0  0  0  0
    0.3251    0.9459   -0.1019 N   0  0  0  0  0  0  0  0  0  0  0  0
   -1.0616    1.0991   -0.2000 C   0  0  0  0  0  0  0  0  0  0  0  0
   -1.5341    2.2272   -0.2273 O   0  0  0  0  0  0  0  0  0  0  0  0
   -3.5680    0.9711    1.4970 H   0  0  0  0  0  0  0  0  0  0  0  0
   -4.9653    0.0581    0.9336 H   0  0  0  0  0  0  0  0  0  0  0  0
   -3.6208   -0.7784    1.7056 H   0  0  0  0  0  0  0  0  0  0  0  0
   -3.5826   -1.0614   -0.7996 H   0  0  0  0  0  0  0  0  0  0  0  0
   -3.5330    0.6672   -0.9979 H   0  0  0  0  0  0  0  0  0  0  0  0
   -2.1692   -2.8173   -1.2091 H   0  0  0  0  0  0  0  0  0  0  0  0
   -0.9365   -3.4721   -0.1285 H   0  0  0  0  0  0  0  0  0  0  0  0
   -2.4192   -2.7702    0.5270 H   0  0  0  0  0  0  0  0  0  0  0  0
    3.2904    2.1186    0.1261 H   0  0  0  0  0  0  0  0  0  0  0  0
    0.8931    2.9214   -0.0471 H   0  0  0  0  0  0  0  0  0  0  0  0
  1  2  1  0
  2  3  1  0
  3  4  2  0
  3 14  1  0
  4  5  1  0
  4  6  1  0
  6  7  2  0
  7  8  1  0
  7 13  1  0
  8  9  1  0
  8 11  2  0
  9 10  3  0
 11 12  1  0
 12 13  1  0
 13 14  1  0
 14 15  2  0
  1 16  1  0
  1 17  1  0
  1 18  1  0
  2 19  1  0
  2 20  1  0
  5 21  1  0
  5 22  1  0
  5 23  1  0
 11 24  1  0
 12 25  1  0
M  END
