
     RDKit          3D

 82 85  0  0  0  0  0  0  0  0999 V2000
   -0.8034    1.8367   -0.0092 C   0  0  2  0  0  0  0  0  0  0  0  0
   -2.0350    1.8528    2.0227 N   0  0  0  0  0  0  0  0  0  0  0  0
   -2.4701   -0.1964   -0.8738 O   0  0  0  0  0  0  0  0  0  0  0  0
   -0.6322    3.2487    0.5899 C   0  0  0  0  0  0  0  0  0  0  0  0
   -1.8045    1.1475    0.8397 N   0  0  0  0  0  0  0  0  0  0  0  0
   -1.4651    3.2219    1.8791 C   0  0  0  0  0  0  0  0  0  0  0  0
   -4.5950   -1.2615    0.7309 N   0  0  0  0  0  0  0  0  0  0  0  0
   -3.4348    1.8932    2.4775 C   0  0  0  0  0  0  0  0  0  0  0  0
   -4.1288    0.5485    2.3252 C   0  0  0  0  0  0  0  0  0  0  0  0
   -4.1765    0.1263    0.8413 C   0  0  1  0  0  0  0  0  0  0  0  0
   -2.7816    0.3670    0.1947 C   0  0  0  0  0  0  0  0  0  0  0  0
    0.5379    1.0785   -0.0544 C   0  0  0  0  0  0  0  0  0  0  0  0
   -5.1593    1.0773    0.1001 C   0  0  0  0  0  0  0  0  0  0  0  0
   -5.6574    0.5707   -1.2071 C   0  0  0  0  0  0  0  0  0  0  0  0
   -4.9729    0.8574   -2.3939 C   0  0  0  0  0  0  0  0  0  0  0  0
   -5.4718    0.4159   -3.6184 C   0  0  0  0  0  0  0  0  0  0  0  0
   -6.6575   -0.3165   -3.6681 C   0  0  0  0  0  0  0  0  0  0  0  0
   -7.3401   -0.6129   -2.4883 C   0  0  0  0  0  0  0  0  0  0  0  0
   -6.8434   -0.1726   -1.2628 C   0  0  0  0  0  0  0  0  0  0  0  0
    2.6132   -0.5332   -1.7406 C   0  0  1  0  0  0  0  0  0  0  0  0
    0.5063   -0.2345   -0.4443 N   0  0  0  0  0  0  0  0  0  0  0  0
    1.7249   -1.0062   -0.5467 C   0  0  1  0  0  0  0  0  0  0  0  0
    1.4699   -2.5138   -0.6536 C   0  0  0  0  0  0  0  0  0  0  0  0
    0.7157   -4.5839    0.5082 C   0  0  0  0  0  0  0  0  0  0  0  0
    0.0905   -5.1384    1.7873 C   0  0  0  0  0  0  0  0  0  0  0  0
    0.8227   -3.0757    0.5926 C   0  0  0  0  0  0  0  0  0  0  0  0
    4.0829   -0.5096   -1.2925 C   0  0  0  0  0  0  0  0  0  0  0  0
    4.8534   -1.4161   -1.6784 O   0  0  0  0  0  0  0  0  0  0  0  0
   -0.1246   -6.5651    1.7491 N   0  0  0  0  0  0  0  0  0  0  0  0
    5.8271    0.6779   -0.0009 C   0  0  2  0  0  0  0  0  0  0  0  0
    5.9148    0.5138    1.5279 C   0  0  0  0  0  0  0  0  0  0  0  0
    7.3552    0.6051    1.9844 C   0  0  0  0  0  0  0  0  0  0  0  0
    7.9873    1.9167    1.5681 C   0  0  0  0  0  0  0  0  0  0  0  0
    7.8710    2.1269    0.0729 C   0  0  0  0  0  0  0  0  0  0  0  0
    6.4326    2.0391   -0.3908 C   0  0  0  0  0  0  0  0  0  0  0  0
    4.4746    0.5298   -0.4920 N   0  0  0  0  0  0  0  0  0  0  0  0
   -1.1803    1.8911   -1.0729 H   0  0  0  0  0  0  0  0  0  0  0  0
    0.4426    3.4674    0.8091 H   0  0  0  0  0  0  0  0  0  0  0  0
   -1.0155    4.0183   -0.1215 H   0  0  0  0  0  0  0  0  0  0  0  0
   -2.2515    4.0237    1.8617 H   0  0  0  0  0  0  0  0  0  0  0  0
   -0.8173    3.3749    2.7828 H   0  0  0  0  0  0  0  0  0  0  0  0
   -4.7287   -1.5088   -0.2318 H   0  0  0  0  0  0  0  0  0  0  0  0
   -3.9100   -1.8649    1.1414 H   0  0  0  0  0  0  0  0  0  0  0  0
   -3.3731    2.1627    3.5693 H   0  0  0  0  0  0  0  0  0  0  0  0
   -4.0453    2.6890    1.9596 H   0  0  0  0  0  0  0  0  0  0  0  0
   -3.5883   -0.2269    2.9301 H   0  0  0  0  0  0  0  0  0  0  0  0
   -5.1712    0.6246    2.7285 H   0  0  0  0  0  0  0  0  0  0  0  0
   -6.0373    1.2559    0.7785 H   0  0  0  0  0  0  0  0  0  0  0  0
   -4.6423    2.0617   -0.0523 H   0  0  0  0  0  0  0  0  0  0  0  0
   -4.0241    1.4138   -2.3562 H   0  0  0  0  0  0  0  0  0  0  0  0
   -4.9249    0.6428   -4.5453 H   0  0  0  0  0  0  0  0  0  0  0  0
   -7.0512   -0.6629   -4.6348 H   0  0  0  0  0  0  0  0  0  0  0  0
   -8.2716   -1.1968   -2.5229 H   0  0  0  0  0  0  0  0  0  0  0  0
   -7.3792   -0.4142   -0.3323 H   0  0  0  0  0  0  0  0  0  0  0  0
   -0.3494   -0.6597   -0.7253 H   0  0  0  0  0  0  0  0  0  0  0  0
    3.0483   -2.1059   -2.7963 H   0  0  0  0  0  0  0  0  0  0  0  0
    2.3068   -0.8148    0.4083 H   0  0  0  0  0  0  0  0  0  0  0  0
    0.8380   -2.7349   -1.5538 H   0  0  0  0  0  0  0  0  0  0  0  0
    1.7350   -5.0273    0.3575 H   0  0  0  0  0  0  0  0  0  0  0  0
    0.0917   -4.8696   -0.3788 H   0  0  0  0  0  0  0  0  0  0  0  0
    0.7414   -4.8221    2.6573 H   0  0  0  0  0  0  0  0  0  0  0  0
    1.4265   -2.7888    1.4941 H   0  0  0  0  0  0  0  0  0  0  0  0
    0.6981   -7.0470    1.4469 H   0  0  0  0  0  0  0  0  0  0  0  0
    2.3030    0.4971   -2.0838 H   0  0  0  0  0  0  0  0  0  0  0  0
    2.4667   -3.0066   -0.8142 H   0  0  0  0  0  0  0  0  0  0  0  0
   -0.9167   -4.6543    1.9394 H   0  0  0  0  0  0  0  0  0  0  0  0
   -0.2013   -2.6377    0.7271 H   0  0  0  0  0  0  0  0  0  0  0  0
   -0.3897   -6.9011    2.6531 H   0  0  0  0  0  0  0  0  0  0  0  0
    5.3069    1.3104    2.0305 H   0  0  0  0  0  0  0  0  0  0  0  0
    7.9406   -0.2476    1.5494 H   0  0  0  0  0  0  0  0  0  0  0  0
    9.0679    1.9248    1.8662 H   0  0  0  0  0  0  0  0  0  0  0  0
    8.4848    1.3551   -0.4626 H   0  0  0  0  0  0  0  0  0  0  0  0
    6.3916    2.1681   -1.5033 H   0  0  0  0  0  0  0  0  0  0  0  0
    3.7923    1.1874   -0.1823 H   0  0  0  0  0  0  0  0  0  0  0  0
    6.4550   -0.1363   -0.4774 H   0  0  0  0  0  0  0  0  0  0  0  0
    5.8349    2.8671    0.0717 H   0  0  0  0  0  0  0  0  0  0  0  0
    8.2853    3.1329   -0.1985 H   0  0  0  0  0  0  0  0  0  0  0  0
    7.4828    2.7622    2.1055 H   0  0  0  0  0  0  0  0  0  0  0  0
    7.3961    0.5060    3.1006 H   0  0  0  0  0  0  0  0  0  0  0  0
    5.4917   -0.4795    1.8283 H   0  0  0  0  0  0  0  0  0  0  0  0
    1.6145    1.6565    0.2176 O   0  0  0  0  0  0  0  0  0  0  0  0
    2.4544   -1.3436   -2.8806 O   0  0  0  0  0  0  0  0  0  0  0  0
 20 22  1  0
 20 64  1  6
 21 55  1  0
 82 20  1  0
 82 56  1  0
  1  5  1  0
  1 37  1  6
  2  5  1  0
  2  8  1  0
  4  1  1  0
  4  6  1  0
  4 38  1  0
  4 39  1  0
  5 11  1  0
 81 12  2  0
  6  2  1  0
  6 40  1  0
  6 41  1  0
  7 42  1  0
  7 43  1  0
  8  9  1  0
  8 44  1  0
  8 45  1  0
  9 10  1  0
  9 46  1  0
  9 47  1  0
 10  7  1  1
 10 13  1  0
 11  3  2  0
 11 10  1  0
 12 21  1  0
 12  1  1  0
 13 14  1  0
 13 48  1  0
 13 49  1  0
 22 21  1  0
 22 23  1  0
 22 57  1  1
 23 26  1  0
 23 58  1  0
 24 25  1  0
 24 59  1  0
 24 60  1  0
 25 29  1  0
 25 61  1  0
 26 24  1  0
 26 62  1  0
 27 20  1  0
 27 28  2  0
 36 27  1  0
 36 74  1  0
 29 63  1  0
 14 19  1  0
 14 15  2  0
 15 16  1  0
 15 50  1  0
 16 17  2  0
 16 51  1  0
 17 52  1  0
 18 17  1  0
 18 53  1  0
 19 18  2  0
 19 54  1  0
 30 36  1  0
 30 75  1  6
 35 30  1  0
 35 73  1  0
 35 76  1  0
 34 35  1  0
 34 72  1  0
 34 77  1  0
 33 34  1  0
 33 32  1  0
 33 71  1  0
 33 78  1  0
 32 31  1  0
 32 70  1  0
 32 79  1  0
 31 30  1  0
 31 69  1  0
 31 80  1  0
 23 65  1  0
 25 66  1  0
 26 67  1  0
 29 68  1  0
M  END
