
     RDKit          3D

 20 20  0  0  0  0  0  0  0  0999 V2000
    2.5418   -0.1388    0.0810 C   0  0  0  0  0  0  0  0  0  0  0  0
    3.2026    0.9831   -0.1747 O   0  0  0  0  0  0  0  0  0  0  0  0
    1.0733    0.0144   -0.0272 C   0  0  0  0  0  0  0  0  0  0  0  0
   -3.9335   -0.7020    0.3855 N   0  0  0  0  0  0  0  0  0  0  0  0
    0.2648   -1.0764    0.2818 C   0  0  0  0  0  0  0  0  0  0  0  0
   -1.1146   -0.9786    0.2006 C   0  0  0  0  0  0  0  0  0  0  0  0
   -1.7202    0.2115   -0.1924 C   0  0  0  0  0  0  0  0  0  0  0  0
   -0.9059    1.3015   -0.4985 C   0  0  0  0  0  0  0  0  0  0  0  0
    0.4721    1.2106   -0.4218 C   0  0  0  0  0  0  0  0  0  0  0  0
   -3.2164    0.3456   -0.3131 C   0  0  0  0  0  0  0  0  0  0  0  0
    3.0933   -1.1738    0.3742 O   0  0  0  0  0  0  0  0  0  0  0  0
    4.1555    0.8292   -0.0951 H   0  0  0  0  0  0  0  0  0  0  0  0
   -3.8703   -0.5525    1.3847 H   0  0  0  0  0  0  0  0  0  0  0  0
   -4.9165   -0.6420    0.1558 H   0  0  0  0  0  0  0  0  0  0  0  0
    0.7136   -2.0100    0.5939 H   0  0  0  0  0  0  0  0  0  0  0  0
   -1.7291   -1.8330    0.4489 H   0  0  0  0  0  0  0  0  0  0  0  0
   -1.3577    2.2388   -0.8010 H   0  0  0  0  0  0  0  0  0  0  0  0
    1.0696    2.0774   -0.6687 H   0  0  0  0  0  0  0  0  0  0  0  0
   -3.4740    0.2819   -1.3748 H   0  0  0  0  0  0  0  0  0  0  0  0
   -3.4951    1.3619   -0.0028 H   0  0  0  0  0  0  0  0  0  0  0  0
 11  1  2  0
  1  3  1  0
  1  2  1  0
  2 12  1  0
  9  3  2  0
  3  5  1  0
  4 10  1  0
  4 13  1  0
  4 14  1  0
  5  6  2  0
  5 15  1  0
  7  6  1  0
  6 16  1  0
  8  7  2  0
  7 10  1  0
  9  8  1  0
  8 17  1  0
  9 18  1  0
 10 19  1  0
 10 20  1  0
M  END
