
     RDKit          3D

 35 38  0  0  0  0  0  0  0  0999 V2000
   -5.4045    0.2912    0.4205 N   0  0  0  0  0  0  0  0  0  0  0  0
    1.7451   -0.2985   -1.2207 C   0  0  1  0  0  0  0  0  0  0  0  0
   -0.4233    0.3609   -0.8911 C   0  0  1  0  0  0  0  0  0  0  0  0
   -1.4331   -1.6870    0.2172 C   0  0  0  0  0  0  0  0  0  0  0  0
   -3.4398   -1.0502    0.4828 C   0  0  0  0  0  0  0  0  0  0  0  0
   -4.8482   -0.9112    0.7854 C   0  0  0  0  0  0  0  0  0  0  0  0
    4.0804   -0.4023    0.6259 P   0  0  2  0  0  0  0  0  0  0  0  0
    0.4069   -0.5269   -1.6024 O   0  0  0  0  0  0  0  0  0  0  0  0
    2.8309    0.6119    0.7523 O   0  0  0  0  0  0  0  0  0  0  0  0
    3.9242   -1.0886   -0.8195 O   0  0  0  0  0  0  0  0  0  0  0  0
    0.9400    2.3114   -0.3356 O   0  0  0  0  0  0  0  0  0  0  0  0
    3.6479   -1.5092    1.6959 O   0  0  0  0  0  0  0  0  0  0  0  0
   -5.5167   -1.7826    1.3273 O   0  0  0  0  0  0  0  0  0  0  0  0
   -1.4985   -0.4124   -0.3065 N   0  0  0  0  0  0  0  0  0  0  0  0
   -3.3904    1.1460   -0.4643 N   0  0  0  0  0  0  0  0  0  0  0  0
   -2.5704   -2.0889    0.6895 N   0  0  0  0  0  0  0  0  0  0  0  0
    1.6102    0.1136    0.2351 C   0  0  1  0  0  0  0  0  0  0  0  0
    0.4624    1.1009    0.1600 C   0  0  2  0  0  0  0  0  0  0  0  0
    2.6454   -1.5084   -1.3373 C   0  0  0  0  0  0  0  0  0  0  0  0
   -2.7821   -0.0198   -0.1297 C   0  0  0  0  0  0  0  0  0  0  0  0
   -4.7226    1.2392   -0.1625 C   0  0  0  0  0  0  0  0  0  0  0  0
    2.1827    0.5187   -1.8080 H   0  0  0  0  0  0  0  0  0  0  0  0
   -0.8747    1.0894   -1.5724 H   0  0  0  0  0  0  0  0  0  0  0  0
   -0.5243   -2.2672    0.1985 H   0  0  0  0  0  0  0  0  0  0  0  0
    0.2832    2.9983   -0.1835 H   0  0  0  0  0  0  0  0  0  0  0  0
    4.3000   -2.2092    1.8412 H   0  0  0  0  0  0  0  0  0  0  0  0
   -2.9116    1.9028   -0.9301 H   0  0  0  0  0  0  0  0  0  0  0  0
   -6.2714    2.5271   -0.2079 H   0  0  0  0  0  0  0  0  0  0  0  0
   -4.8074    3.1868   -0.8094 H   0  0  0  0  0  0  0  0  0  0  0  0
    1.2769   -0.7460    0.8300 H   0  0  0  0  0  0  0  0  0  0  0  0
   -0.0704    1.2142    1.1091 H   0  0  0  0  0  0  0  0  0  0  0  0
    2.2607   -2.3619   -0.7726 H   0  0  0  0  0  0  0  0  0  0  0  0
    2.8162   -1.8152   -2.3669 H   0  0  0  0  0  0  0  0  0  0  0  0
    5.7833    0.4319    0.8518 S   0  0  0  0  0  0  0  0  0  0  0  0
   -5.3298    2.3755   -0.5258 N   0  0  0  0  0  0  0  0  0  0  0  0
  1  6  1  0
  1 21  2  0
  2  8  1  0
  2 19  1  0
  3  8  1  0
  3 14  1  0
  3 18  1  0
  4 14  1  0
  4 16  2  0
  5  6  1  0
  5 16  1  0
  5 20  2  0
  6 13  2  0
 34  7  2  0
  7  9  1  0
  7 10  1  0
  7 12  1  1
  9 17  1  0
 10 19  1  0
 11 18  1  0
 14 20  1  0
 15 20  1  0
 15 21  1  0
 35 21  1  0
 17 18  1  0
  2 22  1  6
  3 23  1  6
  4 24  1  0
 11 25  1  0
 12 26  1  0
 15 27  1  0
 35 28  1  0
 35 29  1  0
 17 30  1  1
 18 31  1  1
 19 32  1  0
 19 33  1  0
  2 17  1  0
M  END
