
     RDKit          3D

 52 55  0  0  0  0  0  0  0  0999 V2000
   -2.5886    1.0335    0.0677 C   0  0  0  0  0  0  0  0  0  0  0  0
   -7.0404    0.4325   -1.5593 C   0  0  0  0  0  0  0  0  0  0  0  0
   -2.3795   -0.3621    0.1273 C   0  0  0  0  0  0  0  0  0  0  0  0
   -1.1628   -0.9886    0.5587 C   0  0  0  0  0  0  0  0  0  0  0  0
   -4.6355   -0.7047   -0.6930 C   0  0  0  0  0  0  0  0  0  0  0  0
   -2.1054   -3.0432    0.1934 C   0  0  0  0  0  0  0  0  0  0  0  0
   -3.4046   -1.2383   -0.2535 C   0  0  0  0  0  0  0  0  0  0  0  0
   -4.8331    0.6510   -0.7499 C   0  0  0  0  0  0  0  0  0  0  0  0
   -3.1097    3.7880   -0.0726 C   0  0  0  0  0  0  0  0  0  0  0  0
   -5.9574    1.2495   -1.1547 O   0  0  0  0  0  0  0  0  0  0  0  0
   -3.7866    1.5427   -0.3588 C   0  0  0  0  0  0  0  0  0  0  0  0
   -4.0924    2.8460   -0.4534 O   0  0  0  0  0  0  0  0  0  0  0  0
   -3.2601   -2.5899   -0.2179 N   0  0  0  0  0  0  0  0  0  0  0  0
   -1.9031   -4.5255    0.2455 C   0  0  0  0  0  0  0  0  0  0  0  0
   -1.0543   -2.3042    0.5860 N   0  0  0  0  0  0  0  0  0  0  0  0
   -0.1028   -0.2559    0.9317 N   0  0  0  0  0  0  0  0  0  0  0  0
    1.1293   -0.8242    1.4569 C   0  0  2  0  0  0  0  0  0  0  0  0
    0.9948   -1.2125    2.9273 C   0  0  0  0  0  0  0  0  0  0  0  0
    2.2575    0.1540    1.2217 C   0  0  0  0  0  0  0  0  0  0  0  0
    3.2916   -0.1775    0.3572 C   0  0  0  0  0  0  0  0  0  0  0  0
    2.2796    1.3912    1.8613 C   0  0  0  0  0  0  0  0  0  0  0  0
    3.3241    2.2728    1.6239 C   0  0  0  0  0  0  0  0  0  0  0  0
    4.3525    1.9312    0.7602 C   0  0  0  0  0  0  0  0  0  0  0  0
    4.3554    0.6945    0.1126 C   0  0  0  0  0  0  0  0  0  0  0  0
    5.4334    0.3166   -0.7988 C   0  0  0  0  0  0  0  0  0  0  0  0
    5.5471   -0.8466   -1.5931 C   0  0  0  0  0  0  0  0  0  0  0  0
    6.5905    1.0171   -1.0882 C   0  0  0  0  0  0  0  0  0  0  0  0
    7.2731    0.2808   -1.9734 N   0  0  0  0  0  0  0  0  0  0  0  0
    6.6624   -0.8523   -2.2955 N   0  0  0  0  0  0  0  0  0  0  0  0
   -1.7999    1.7153    0.3570 H   0  0  0  0  0  0  0  0  0  0  0  0
   -6.7749   -0.1982   -2.4114 H   0  0  0  0  0  0  0  0  0  0  0  0
   -7.3928   -0.2039   -0.7436 H   0  0  0  0  0  0  0  0  0  0  0  0
   -7.8407    1.1065   -1.8533 H   0  0  0  0  0  0  0  0  0  0  0  0
   -5.4096   -1.4027   -0.9824 H   0  0  0  0  0  0  0  0  0  0  0  0
   -3.5525    4.7704   -0.2145 H   0  0  0  0  0  0  0  0  0  0  0  0
   -2.8241    3.6764    0.9766 H   0  0  0  0  0  0  0  0  0  0  0  0
   -2.2121    3.7112   -0.6927 H   0  0  0  0  0  0  0  0  0  0  0  0
   -1.0819   -4.8224   -0.4090 H   0  0  0  0  0  0  0  0  0  0  0  0
   -1.6343   -4.8400    1.2549 H   0  0  0  0  0  0  0  0  0  0  0  0
   -2.8018   -5.0568   -0.0594 H   0  0  0  0  0  0  0  0  0  0  0  0
   -0.1993    0.7443    0.9778 H   0  0  0  0  0  0  0  0  0  0  0  0
    1.3389   -1.7285    0.8841 H   0  0  0  0  0  0  0  0  0  0  0  0
    0.7374   -0.3520    3.5455 H   0  0  0  0  0  0  0  0  0  0  0  0
    0.2162   -1.9649    3.0512 H   0  0  0  0  0  0  0  0  0  0  0  0
    1.9316   -1.6300    3.2969 H   0  0  0  0  0  0  0  0  0  0  0  0
    3.2655   -1.1437   -0.1330 H   0  0  0  0  0  0  0  0  0  0  0  0
    1.4889    1.6735    2.5467 H   0  0  0  0  0  0  0  0  0  0  0  0
    3.3395    3.2353    2.1186 H   0  0  0  0  0  0  0  0  0  0  0  0
    5.1544    2.6394    0.5930 H   0  0  0  0  0  0  0  0  0  0  0  0
    4.8556   -1.6715   -1.6782 H   0  0  0  0  0  0  0  0  0  0  0  0
    6.9670    1.9618   -0.7320 H   0  0  0  0  0  0  0  0  0  0  0  0
    8.1650    0.5065   -2.3846 H   0  0  0  0  0  0  0  0  0  0  0  0
 18 17  1  0
 17 19  1  0
 17 16  1  0
 21 19  1  0
 21 22  2  0
 19 20  2  0
 22 23  1  0
 16  4  1  0
 20 24  1  0
 23 24  2  0
 24 25  1  0
 15  4  2  0
 15  6  1  0
  4  3  1  0
 27 25  2  0
 27 28  1  0
 25 26  1  0
 14  6  1  0
  6 13  2  0
  3  1  2  0
  3  7  1  0
  1 11  1  0
 28 29  1  0
 26 29  2  0
  9 12  1  0
 13  7  1  0
  7  5  2  0
 11 12  1  0
 11  8  2  0
  5  8  1  0
  8 10  1  0
 10  2  1  0
  1 30  1  0
  2 31  1  0
  2 32  1  0
  2 33  1  0
  5 34  1  0
  9 35  1  0
  9 36  1  0
  9 37  1  0
 14 38  1  0
 14 39  1  0
 14 40  1  0
 16 41  1  0
 17 42  1  6
 18 43  1  0
 18 44  1  0
 18 45  1  0
 20 46  1  0
 21 47  1  0
 22 48  1  0
 23 49  1  0
 26 50  1  0
 27 51  1  0
 28 52  1  0
M  END
