
     RDKit          3D

 28 28  0  0  0  0  0  0  0  0999 V2000
    2.0960   -1.1768    0.1383 C   0  0  0  0  0  0  0  0  0  0  0  0
   -0.2391   -0.4010   -0.2099 C   0  0  0  0  0  0  0  0  0  0  0  0
   -4.8506   -0.5034    0.4997 C   0  0  0  0  0  0  0  0  0  0  0  0
   -3.3863   -0.1623    0.7366 C   0  0  0  0  0  0  0  0  0  0  0  0
   -2.6658    0.2238   -0.5577 C   0  0  0  0  0  0  0  0  0  0  0  0
   -1.2224    0.5871   -0.3479 C   0  0  0  0  0  0  0  0  0  0  0  0
   -0.8211    1.9065   -0.2461 C   0  0  0  0  0  0  0  0  0  0  0  0
    0.4971    2.2728   -0.0180 C   0  0  0  0  0  0  0  0  0  0  0  0
    1.4700    1.2957    0.1159 C   0  0  0  0  0  0  0  0  0  0  0  0
    2.7451    1.6353    0.3413 O   0  0  0  0  0  0  0  0  0  0  0  0
    1.1304   -0.0755    0.0193 C   0  0  0  0  0  0  0  0  0  0  0  0
    1.7022   -2.3454    0.0575 O   0  0  0  0  0  0  0  0  0  0  0  0
    3.5648   -0.9592    0.3512 C   0  0  0  0  0  0  0  0  0  0  0  0
   -0.6377   -1.6628   -0.3057 O   0  0  0  0  0  0  0  0  0  0  0  0
   -5.3506   -0.7823    1.4278 H   0  0  0  0  0  0  0  0  0  0  0  0
   -5.3914    0.3454    0.0765 H   0  0  0  0  0  0  0  0  0  0  0  0
   -4.9541   -1.3394   -0.1949 H   0  0  0  0  0  0  0  0  0  0  0  0
   -3.3085    0.6653    1.4469 H   0  0  0  0  0  0  0  0  0  0  0  0
   -2.8798   -1.0134    1.1981 H   0  0  0  0  0  0  0  0  0  0  0  0
   -2.7568   -0.5938   -1.2774 H   0  0  0  0  0  0  0  0  0  0  0  0
   -3.1810    1.0786   -1.0051 H   0  0  0  0  0  0  0  0  0  0  0  0
   -1.5655    2.6877   -0.3469 H   0  0  0  0  0  0  0  0  0  0  0  0
    0.7649    3.3199    0.0575 H   0  0  0  0  0  0  0  0  0  0  0  0
    2.8307    2.5956    0.3740 H   0  0  0  0  0  0  0  0  0  0  0  0
    4.0609   -1.9270    0.3798 H   0  0  0  0  0  0  0  0  0  0  0  0
    3.9994   -0.3608   -0.4484 H   0  0  0  0  0  0  0  0  0  0  0  0
    3.7592   -0.4363    1.2869 H   0  0  0  0  0  0  0  0  0  0  0  0
    0.1711   -2.2294   -0.1843 H   0  0  0  0  0  0  0  0  0  0  0  0
  5  4  1  0
  5  6  1  0
  4  3  1  0
  7  6  1  0
  7  8  2  0
  6  2  2  0
  8  9  1  0
  2 14  1  0
  2 11  1  0
  9 10  1  0
  9 11  2  0
 11  1  1  0
  1 12  2  0
  1 13  1  0
  3 15  1  0
  3 16  1  0
  3 17  1  0
  4 18  1  0
  4 19  1  0
  5 20  1  0
  5 21  1  0
  7 22  1  0
  8 23  1  0
 10 24  1  0
 13 25  1  0
 13 26  1  0
 13 27  1  0
 14 28  1  0
M  END
