
     RDKit          3D

 27 29  0  0  0  0  0  0  0  0999 V2000
   -0.4071    1.6242   -0.4237 C   0  0  0  0  0  0  0  0  0  0  0  0
   -0.8357    0.3563    0.0125 C   0  0  0  0  0  0  0  0  0  0  0  0
    0.0862   -0.5992    0.4271 C   0  0  0  0  0  0  0  0  0  0  0  0
    1.4555   -0.3216    0.4225 C   0  0  0  0  0  0  0  0  0  0  0  0
    1.8643    0.9197    0.0064 C   0  0  0  0  0  0  0  0  0  0  0  0
    0.9405    1.8683   -0.4061 C   0  0  0  0  0  0  0  0  0  0  0  0
    1.5967    2.9978   -0.7521 O   0  0  0  0  0  0  0  0  0  0  0  0
    2.9843    2.6884   -0.7175 C   0  0  0  0  0  0  0  0  0  0  0  0
    3.1080    1.4253   -0.0661 O   0  0  0  0  0  0  0  0  0  0  0  0
   -2.2558   -0.0029   -0.0014 C   0  0  0  0  0  0  0  0  0  0  0  0
   -3.2485    0.7798    0.4648 N   0  0  0  0  0  0  0  0  0  0  0  0
   -4.4548    0.2104    0.3075 N   0  0  0  0  0  0  0  0  0  0  0  0
   -4.2254   -0.9622   -0.2553 C   0  0  0  0  0  0  0  0  0  0  0  0
   -2.8489   -1.1573   -0.4744 C   0  0  0  0  0  0  0  0  0  0  0  0
    2.7178   -1.5877    0.9847 Br  0  0  0  0  0  0  0  0  0  0  0  0
   -3.1671    2.0759    1.0914 C   0  0  0  0  0  0  0  0  0  0  0  0
   -5.2491   -1.8557   -0.5086 N   0  0  0  0  0  0  0  0  0  0  0  0
   -1.1052    2.3707   -0.7772 H   0  0  0  0  0  0  0  0  0  0  0  0
   -0.2633   -1.5648    0.7665 H   0  0  0  0  0  0  0  0  0  0  0  0
    3.3764    2.6165   -1.7363 H   0  0  0  0  0  0  0  0  0  0  0  0
    3.5195    3.4477   -0.1489 H   0  0  0  0  0  0  0  0  0  0  0  0
   -2.3584   -2.0009   -0.9318 H   0  0  0  0  0  0  0  0  0  0  0  0
   -3.3127    2.8818    0.3712 H   0  0  0  0  0  0  0  0  0  0  0  0
   -3.9372    2.1444    1.8553 H   0  0  0  0  0  0  0  0  0  0  0  0
   -2.1978    2.2004    1.5668 H   0  0  0  0  0  0  0  0  0  0  0  0
   -6.1554   -1.4165   -0.5694 H   0  0  0  0  0  0  0  0  0  0  0  0
   -5.0882   -2.4327   -1.3195 H   0  0  0  0  0  0  0  0  0  0  0  0
  1  2  2  0
  1  6  1  0
  2  3  1  0
  2 10  1  0
  3  4  2  0
  4  5  1  0
  4 15  1  0
  5  6  2  0
  5  9  1  0
  6  7  1  0
  7  8  1  0
  8  9  1  0
 10 11  1  0
 10 14  2  0
 11 12  1  0
 11 16  1  0
 12 13  2  0
 13 14  1  0
 13 17  1  0
  1 18  1  0
  3 19  1  0
  8 20  1  0
  8 21  1  0
 14 22  1  0
 16 23  1  0
 16 24  1  0
 16 25  1  0
 17 26  1  0
 17 27  1  0
M  END
