
     RDKit          3D

 92 92  0  0  0  0  0  0  0  0999 V2000
  -11.5583   -2.9349    1.6452 C   0  0  0  0  0  0  0  0  0  0  0  0
  -11.0666   -1.6882    1.2251 O   0  0  0  0  0  0  0  0  0  0  0  0
   -9.6628   -1.6319    1.2362 C   0  0  0  0  0  0  0  0  0  0  0  0
   -9.2203   -0.2526    0.7847 C   0  0  0  0  0  0  0  0  0  0  0  0
   -7.7085   -0.1589    0.7558 C   0  0  0  0  0  0  0  0  0  0  0  0
   -7.3604    1.1452    0.3289 O   0  0  0  0  0  0  0  0  0  0  0  0
   -6.0543    1.4447    0.1735 C   0  0  0  0  0  0  0  0  0  0  0  0
   -5.0054    0.5885    0.4695 C   0  0  0  0  0  0  0  0  0  0  0  0
   -3.6754    0.9661    0.2664 C   0  0  0  0  0  0  0  0  0  0  0  0
   -3.4233    2.2372   -0.2193 C   0  0  0  0  0  0  0  0  0  0  0  0
   -4.4642    3.1137   -0.5158 C   0  0  0  0  0  0  0  0  0  0  0  0
   -5.7825    2.7313   -0.3291 C   0  0  0  0  0  0  0  0  0  0  0  0
   -6.8601    3.5018   -0.5869 O   0  0  0  0  0  0  0  0  0  0  0  0
   -6.6360    4.8028   -1.0864 C   0  0  0  0  0  0  0  0  0  0  0  0
   -2.5456    0.0186    0.5647 C   0  0  0  0  0  0  0  0  0  0  0  0
   -1.7204   -0.4458   -0.6492 C   0  0  2  0  0  0  0  0  0  0  0  0
   -2.4999   -1.2648   -1.6996 C   0  0  1  0  0  0  0  0  0  0  0  0
   -3.3151   -2.4018   -1.0904 C   0  0  0  0  0  0  0  0  0  0  0  0
   -3.3640   -0.4135   -2.6287 C   0  0  0  0  0  0  0  0  0  0  0  0
   -0.4802   -1.2201   -0.1570 C   0  0  0  0  0  0  0  0  0  0  0  0
    0.8316   -0.6999   -0.7392 C   0  0  2  0  0  0  0  0  0  0  0  0
    0.8002   -0.7756   -2.1915 N   0  0  0  0  0  0  0  0  0  0  0  0
    2.0464   -1.3900   -0.0850 C   0  0  1  0  0  0  0  0  0  0  0  0
    2.0194   -2.7902   -0.2960 O   0  0  0  0  0  0  0  0  0  0  0  0
    3.3543   -0.7415   -0.5368 C   0  0  0  0  0  0  0  0  0  0  0  0
    4.5771   -1.0260    0.3456 C   0  0  1  0  0  0  0  0  0  0  0  0
    5.0799   -2.4883    0.3321 C   0  0  1  0  0  0  0  0  0  0  0  0
    5.4920   -3.0016   -1.0441 C   0  0  0  0  0  0  0  0  0  0  0  0
    6.2148   -2.7000    1.3316 C   0  0  0  0  0  0  0  0  0  0  0  0
    5.6820   -0.0523   -0.0388 C   0  0  0  0  0  0  0  0  0  0  0  0
    5.9987    0.1415   -1.2051 O   0  0  0  0  0  0  0  0  0  0  0  0
    6.2678    0.5878    0.9918 N   0  0  0  0  0  0  0  0  0  0  0  0
    7.2628    1.6263    0.8544 C   0  0  0  0  0  0  0  0  0  0  0  0
    8.6986    1.1546    1.1509 C   0  0  1  0  0  0  0  0  0  0  0  0
    8.7758    0.5765    2.5684 C   0  0  0  0  0  0  0  0  0  0  0  0
    9.1350    0.0979    0.1301 C   0  0  0  0  0  0  0  0  0  0  0  0
    9.6239    2.3712    1.0278 C   0  0  0  0  0  0  0  0  0  0  0  0
    9.2189    3.4713    0.6776 O   0  0  0  0  0  0  0  0  0  0  0  0
   10.9155    2.1526    1.3202 N   0  0  0  0  0  0  0  0  0  0  0  0
  -11.1993   -3.7539    1.0102 H   0  0  0  0  0  0  0  0  0  0  0  0
  -11.2737   -3.1630    2.6794 H   0  0  0  0  0  0  0  0  0  0  0  0
  -12.6458   -2.9063    1.5870 H   0  0  0  0  0  0  0  0  0  0  0  0
   -9.2738   -1.8405    2.2438 H   0  0  0  0  0  0  0  0  0  0  0  0
   -9.2400   -2.4002    0.5715 H   0  0  0  0  0  0  0  0  0  0  0  0
   -9.6179   -0.0484   -0.2128 H   0  0  0  0  0  0  0  0  0  0  0  0
   -9.6227    0.5023    1.4652 H   0  0  0  0  0  0  0  0  0  0  0  0
   -7.2926   -0.3609    1.7504 H   0  0  0  0  0  0  0  0  0  0  0  0
   -7.2949   -0.9085    0.0700 H   0  0  0  0  0  0  0  0  0  0  0  0
   -5.2098   -0.4017    0.8570 H   0  0  0  0  0  0  0  0  0  0  0  0
   -2.4033    2.5646   -0.3810 H   0  0  0  0  0  0  0  0  0  0  0  0
   -1.8526    0.5152    1.2514 H   0  0  0  0  0  0  0  0  0  0  0  0
   -2.9239   -0.8525    1.1080 H   0  0  0  0  0  0  0  0  0  0  0  0
   -4.2229    4.0983   -0.8933 H   0  0  0  0  0  0  0  0  0  0  0  0
   -6.0602    5.4163   -0.3876 H   0  0  0  0  0  0  0  0  0  0  0  0
   -6.1164    4.7885   -2.0487 H   0  0  0  0  0  0  0  0  0  0  0  0
   -7.6148    5.2559   -1.2249 H   0  0  0  0  0  0  0  0  0  0  0  0
   -1.3638    0.4548   -1.1620 H   0  0  0  0  0  0  0  0  0  0  0  0
   -1.7325   -1.7214   -2.3327 H   0  0  0  0  0  0  0  0  0  0  0  0
   -0.4026   -1.1630    0.9333 H   0  0  0  0  0  0  0  0  0  0  0  0
   -0.5805   -2.2859   -0.3857 H   0  0  0  0  0  0  0  0  0  0  0  0
   -4.1675   -2.0297   -0.5188 H   0  0  0  0  0  0  0  0  0  0  0  0
   -3.7112   -3.0526   -1.8721 H   0  0  0  0  0  0  0  0  0  0  0  0
   -2.7173   -3.0241   -0.4213 H   0  0  0  0  0  0  0  0  0  0  0  0
   -2.7845    0.4052   -3.0594 H   0  0  0  0  0  0  0  0  0  0  0  0
   -3.7454   -1.0180   -3.4547 H   0  0  0  0  0  0  0  0  0  0  0  0
   -4.2211    0.0215   -2.1160 H   0  0  0  0  0  0  0  0  0  0  0  0
    0.9064    0.3633   -0.4765 H   0  0  0  0  0  0  0  0  0  0  0  0
    1.6423   -0.3865   -2.5969 H   0  0  0  0  0  0  0  0  0  0  0  0
    0.7392   -1.7375   -2.5034 H   0  0  0  0  0  0  0  0  0  0  0  0
    1.9501   -1.2574    0.9994 H   0  0  0  0  0  0  0  0  0  0  0  0
    2.2137   -2.9601   -1.2235 H   0  0  0  0  0  0  0  0  0  0  0  0
    3.5649   -1.0054   -1.5771 H   0  0  0  0  0  0  0  0  0  0  0  0
    3.1875    0.3407   -0.5353 H   0  0  0  0  0  0  0  0  0  0  0  0
    4.2819   -0.8160    1.3809 H   0  0  0  0  0  0  0  0  0  0  0  0
    4.2363   -3.0929    0.6710 H   0  0  0  0  0  0  0  0  0  0  0  0
    6.3628   -2.4714   -1.4294 H   0  0  0  0  0  0  0  0  0  0  0  0
    5.7525   -4.0594   -0.9818 H   0  0  0  0  0  0  0  0  0  0  0  0
    4.6954   -2.9092   -1.7822 H   0  0  0  0  0  0  0  0  0  0  0  0
    5.9668   -2.3104    2.3209 H   0  0  0  0  0  0  0  0  0  0  0  0
    6.4305   -3.7635    1.4428 H   0  0  0  0  0  0  0  0  0  0  0  0
    7.1398   -2.2192    1.0083 H   0  0  0  0  0  0  0  0  0  0  0  0
    5.9139    0.4048    1.9161 H   0  0  0  0  0  0  0  0  0  0  0  0
    7.2019    2.0226   -0.1577 H   0  0  0  0  0  0  0  0  0  0  0  0
    6.9937    2.4340    1.5367 H   0  0  0  0  0  0  0  0  0  0  0  0
    8.0713   -0.2488    2.6759 H   0  0  0  0  0  0  0  0  0  0  0  0
    9.7636    0.1766    2.7997 H   0  0  0  0  0  0  0  0  0  0  0  0
    8.5344    1.3267    3.3236 H   0  0  0  0  0  0  0  0  0  0  0  0
    9.1371    0.4975   -0.8847 H   0  0  0  0  0  0  0  0  0  0  0  0
   10.1321   -0.2876    0.3460 H   0  0  0  0  0  0  0  0  0  0  0  0
    8.4554   -0.7535    0.1500 H   0  0  0  0  0  0  0  0  0  0  0  0
   11.2694    1.2500    1.5823 H   0  0  0  0  0  0  0  0  0  0  0  0
   11.5874    2.8961    1.2224 H   0  0  0  0  0  0  0  0  0  0  0  0
  1  2  1  0
  2  3  1  0
  3  4  1  0
  4  5  1  0
  5  6  1  0
  6  7  1  0
  7  8  2  0
  8  9  1  0
  9 10  2  0
 10 11  1  0
  7 12  1  0
 11 12  2  0
 12 13  1  0
 13 14  1  0
  9 15  1  0
 15 16  1  0
 16 17  1  0
 17 18  1  0
 17 19  1  0
 16 20  1  0
 20 21  1  0
 21 22  1  0
 21 23  1  0
 23 24  1  0
 23 25  1  0
 25 26  1  0
 26 27  1  0
 27 28  1  0
 27 29  1  0
 26 30  1  0
 30 31  2  0
 30 32  1  0
 32 33  1  0
 33 34  1  0
 34 35  1  0
 34 36  1  0
 34 37  1  1
 37 38  2  0
 37 39  1  0
  1 40  1  0
  1 41  1  0
  1 42  1  0
  3 43  1  0
  3 44  1  0
  4 45  1  0
  4 46  1  0
  5 47  1  0
  5 48  1  0
  8 49  1  0
 10 50  1  0
 15 51  1  0
 15 52  1  0
 11 53  1  0
 14 54  1  0
 14 55  1  0
 14 56  1  0
 16 57  1  6
 17 58  1  6
 20 59  1  0
 20 60  1  0
 18 61  1  0
 18 62  1  0
 18 63  1  0
 19 64  1  0
 19 65  1  0
 19 66  1  0
 21 67  1  6
 22 68  1  0
 22 69  1  0
 23 70  1  1
 24 71  1  0
 25 72  1  0
 25 73  1  0
 26 74  1  1
 27 75  1  1
 28 76  1  0
 28 77  1  0
 28 78  1  0
 29 79  1  0
 29 80  1  0
 29 81  1  0
 32 82  1  0
 33 83  1  0
 33 84  1  0
 35 85  1  0
 35 86  1  0
 35 87  1  0
 36 88  1  0
 36 89  1  0
 36 90  1  0
 39 91  1  0
 39 92  1  0
M  END
