
     RDKit          3D

 47 49  0  0  0  0  0  0  0  0999 V2000
    1.4274    0.1634   -0.9109 C   0  0  0  0  0  0  0  0  0  0  0  0
   -2.6619   -0.0881    0.8984 C   0  0  1  0  0  0  0  0  0  0  0  0
   -5.2121   -0.1536    0.7884 C   0  0  0  0  0  0  0  0  0  0  0  0
   -6.4043   -0.6172   -0.0441 C   0  0  0  0  0  0  0  0  0  0  0  0
   -6.4297    0.0656   -1.4078 C   0  0  0  0  0  0  0  0  0  0  0  0
   -3.9240    0.3269   -1.3136 C   0  0  0  0  0  0  0  0  0  0  0  0
    1.9150   -2.6770    1.4525 C   0  0  0  0  0  0  0  0  0  0  0  0
    3.1672   -1.0534    0.1072 C   0  0  0  0  0  0  0  0  0  0  0  0
    4.4644   -1.4919    0.3361 C   0  0  0  0  0  0  0  0  0  0  0  0
    5.4956   -0.9528   -0.4307 C   0  0  0  0  0  0  0  0  0  0  0  0
    5.2218   -0.0075   -1.4034 C   0  0  0  0  0  0  0  0  0  0  0  0
    3.9185    0.4256   -1.6480 C   0  0  0  0  0  0  0  0  0  0  0  0
    2.9028   -0.1112   -0.8915 C   0  0  0  0  0  0  0  0  0  0  0  0
    0.8745   -0.9912   -0.0426 C   0  0  2  0  0  0  0  0  0  0  0  0
   -0.2724   -0.5044    0.8261 C   0  0  0  0  0  0  0  0  0  0  0  0
   -2.4818    1.4021    1.1465 C   0  0  0  0  0  0  0  0  0  0  0  0
   -3.9030   -0.3926    0.0366 C   0  0  1  0  0  0  0  0  0  0  0  0
   -5.1136   -0.1347   -2.1512 C   0  0  0  0  0  0  0  0  0  0  0  0
    2.0073   -1.4222    0.7522 N   0  0  0  0  0  0  0  0  0  0  0  0
   -1.4829   -0.6124    0.2595 N   0  0  0  0  0  0  0  0  0  0  0  0
   -0.1029   -0.0040    1.9254 O   0  0  0  0  0  0  0  0  0  0  0  0
   -1.8632    2.1424    0.4272 O   0  0  0  0  0  0  0  0  0  0  0  0
   -3.1192    1.7964    2.2402 O   0  0  0  0  0  0  0  0  0  0  0  0
    6.5233    0.6466   -2.3547 Cl  0  0  0  0  0  0  0  0  0  0  0  0
    1.2090    1.1376   -0.4637 H   0  0  0  0  0  0  0  0  0  0  0  0
    0.9957    0.1601   -1.9102 H   0  0  0  0  0  0  0  0  0  0  0  0
   -2.8051   -0.5814    1.8652 H   0  0  0  0  0  0  0  0  0  0  0  0
   -5.3318    0.9101    1.0148 H   0  0  0  0  0  0  0  0  0  0  0  0
   -5.1933   -0.6820    1.7451 H   0  0  0  0  0  0  0  0  0  0  0  0
   -6.3509   -1.7027   -0.1802 H   0  0  0  0  0  0  0  0  0  0  0  0
   -7.3321   -0.4170    0.4965 H   0  0  0  0  0  0  0  0  0  0  0  0
   -7.2625   -0.3138   -2.0046 H   0  0  0  0  0  0  0  0  0  0  0  0
   -6.6076    1.1378   -1.2711 H   0  0  0  0  0  0  0  0  0  0  0  0
   -3.9977    1.4078   -1.1580 H   0  0  0  0  0  0  0  0  0  0  0  0
   -2.9977    0.1574   -1.8692 H   0  0  0  0  0  0  0  0  0  0  0  0
    1.9693   -3.5425    0.7813 H   0  0  0  0  0  0  0  0  0  0  0  0
    2.7145   -2.7609    2.1874 H   0  0  0  0  0  0  0  0  0  0  0  0
    0.9742   -2.7260    1.9979 H   0  0  0  0  0  0  0  0  0  0  0  0
    4.6899   -2.2380    1.0867 H   0  0  0  0  0  0  0  0  0  0  0  0
    6.5116   -1.2858   -0.2662 H   0  0  0  0  0  0  0  0  0  0  0  0
    3.7145    1.1565   -2.4200 H   0  0  0  0  0  0  0  0  0  0  0  0
    0.5259   -1.8078   -0.6922 H   0  0  0  0  0  0  0  0  0  0  0  0
   -3.8431   -1.4717   -0.1583 H   0  0  0  0  0  0  0  0  0  0  0  0
   -4.9916   -1.1940   -2.4013 H   0  0  0  0  0  0  0  0  0  0  0  0
   -5.1277    0.4084   -3.0989 H   0  0  0  0  0  0  0  0  0  0  0  0
   -1.5736   -1.0655   -0.6362 H   0  0  0  0  0  0  0  0  0  0  0  0
   -3.0330    2.7558    2.3485 H   0  0  0  0  0  0  0  0  0  0  0  0
  5  4  1  0
  5 18  1  0
  4  3  1  0
 18  6  1  0
  6 17  1  0
  3 17  1  0
 17  2  1  0
  2 20  1  0
  2 16  1  0
 22 16  2  0
 20 15  1  0
 16 23  1  0
  1 14  1  0
  1 13  1  0
 15 14  1  0
 15 21  2  0
 12 13  1  0
 12 11  2  0
 14 19  1  0
 13  8  2  0
 24 11  1  0
 11 10  1  0
 19  8  1  0
 19  7  1  0
  8  9  1  0
 10  9  2  0
  1 25  1  0
  1 26  1  0
  2 27  1  1
  3 28  1  0
  3 29  1  0
  4 30  1  0
  4 31  1  0
  5 32  1  0
  5 33  1  0
  6 34  1  0
  6 35  1  0
  7 36  1  0
  7 37  1  0
  7 38  1  0
  9 39  1  0
 10 40  1  0
 12 41  1  0
 14 42  1  6
 17 43  1  6
 18 44  1  0
 18 45  1  0
 20 46  1  0
 23 47  1  0
M  END
