
     RDKit          3D

 28 29  0  0  0  0  0  0  0  0999 V2000
    1.3693   -0.3618   -0.8488 C   0  0  0  0  0  0  0  0  0  0  0  0
   -2.8953   -2.7375    0.3464 C   0  0  0  0  0  0  0  0  0  0  0  0
   -0.6113   -1.8032   -0.3384 C   0  0  0  0  0  0  0  0  0  0  0  0
   -1.9141   -1.6580    0.0398 C   0  0  0  0  0  0  0  0  0  0  0  0
   -2.1559   -0.2463    0.0725 C   0  0  0  0  0  0  0  0  0  0  0  0
   -0.9519    0.3927   -0.2986 C   0  0  0  0  0  0  0  0  0  0  0  0
   -0.8416    1.7816   -0.3604 C   0  0  0  0  0  0  0  0  0  0  0  0
   -1.9639    2.5260   -0.0474 C   0  0  0  0  0  0  0  0  0  0  0  0
   -3.1710    1.9094    0.3201 C   0  0  0  0  0  0  0  0  0  0  0  0
   -3.2757    0.5329    0.3811 C   0  0  0  0  0  0  0  0  0  0  0  0
   -0.0269   -0.5796   -0.5572 N   0  0  0  0  0  0  0  0  0  0  0  0
    2.1722   -0.0994    0.4200 C   0  0  0  0  0  0  0  0  0  0  0  0
    3.6322    0.1206    0.1424 C   0  0  0  0  0  0  0  0  0  0  0  0
    4.3197    0.3383    1.2568 O   0  0  0  0  0  0  0  0  0  0  0  0
    4.1345    0.1035   -0.9539 O   0  0  0  0  0  0  0  0  0  0  0  0
    1.7467   -1.2439   -1.3645 H   0  0  0  0  0  0  0  0  0  0  0  0
    1.4601    0.4725   -1.5450 H   0  0  0  0  0  0  0  0  0  0  0  0
   -3.3089   -2.6328    1.3517 H   0  0  0  0  0  0  0  0  0  0  0  0
   -3.7396   -2.7264   -0.3464 H   0  0  0  0  0  0  0  0  0  0  0  0
   -2.4322   -3.7218    0.2824 H   0  0  0  0  0  0  0  0  0  0  0  0
   -0.0404   -2.7089   -0.4827 H   0  0  0  0  0  0  0  0  0  0  0  0
    0.0831    2.2694   -0.6432 H   0  0  0  0  0  0  0  0  0  0  0  0
   -1.9098    3.6063   -0.0848 H   0  0  0  0  0  0  0  0  0  0  0  0
   -4.0280    2.5252    0.5611 H   0  0  0  0  0  0  0  0  0  0  0  0
   -4.2100    0.0659    0.6689 H   0  0  0  0  0  0  0  0  0  0  0  0
    1.7837    0.7757    0.9491 H   0  0  0  0  0  0  0  0  0  0  0  0
    2.0697   -0.9395    1.1127 H   0  0  0  0  0  0  0  0  0  0  0  0
    5.2561    0.4745    1.0484 H   0  0  0  0  0  0  0  0  0  0  0  0
  2  4  1  0
  3  4  2  0
  3 11  1  0
  4  5  1  0
 11  1  1  0
 11  6  1  0
  5  6  2  0
  5 10  1  0
  1 12  1  0
  6  7  1  0
 15 13  2  0
 14 13  1  0
 13 12  1  0
 10  9  2  0
  7  8  2  0
  9  8  1  0
  1 16  1  0
  1 17  1  0
  2 18  1  0
  2 19  1  0
  2 20  1  0
  3 21  1  0
  7 22  1  0
  8 23  1  0
  9 24  1  0
 10 25  1  0
 12 26  1  0
 12 27  1  0
 14 28  1  0
M  END
