
     RDKit          3D

 53 56  0  0  0  0  0  0  0  0999 V2000
    1.4253    0.1928   -0.4741 C   0  0  0  0  0  0  0  0  0  0  0  0
    6.7229    1.7748   -0.7828 C   0  0  0  0  0  0  0  0  0  0  0  0
    7.6747    1.0424   -0.0942 C   0  0  0  0  0  0  0  0  0  0  0  0
    7.2675   -0.0599    0.6546 C   0  0  0  0  0  0  0  0  0  0  0  0
    5.9118   -0.3580    0.6600 C   0  0  0  0  0  0  0  0  0  0  0  0
    8.2489   -0.8749    1.4374 C   0  0  0  0  0  0  0  0  0  0  0  0
   -0.4301   -1.7367   -1.6509 C   0  0  0  0  0  0  0  0  0  0  0  0
   -1.2243   -2.9538   -1.2470 C   0  0  0  0  0  0  0  0  0  0  0  0
   -2.9937   -1.6373   -0.5752 C   0  0  0  0  0  0  0  0  0  0  0  0
   -2.2848   -0.3174   -0.8931 C   0  0  1  0  0  0  0  0  0  0  0  0
   -2.7296    0.7269    0.1456 C   0  0  0  0  0  0  0  0  0  0  0  0
   -4.2198    0.9572    0.1222 C   0  0  0  0  0  0  0  0  0  0  0  0
   -4.7700    1.7263   -0.8959 C   0  0  0  0  0  0  0  0  0  0  0  0
   -6.1355    1.9664   -0.9831 C   0  0  0  0  0  0  0  0  0  0  0  0
   -6.9737    1.4312   -0.0199 C   0  0  0  0  0  0  0  0  0  0  0  0
   -6.4548    0.6661    1.0172 C   0  0  0  0  0  0  0  0  0  0  0  0
   -5.0839    0.4255    1.0926 C   0  0  0  0  0  0  0  0  0  0  0  0
   -5.3388   -0.8904    3.0571 C   0  0  0  0  0  0  0  0  0  0  0  0
    2.5930    0.8396   -0.8048 C   0  0  0  0  0  0  0  0  0  0  0  0
    3.5882    0.1647   -0.0765 C   0  0  0  0  0  0  0  0  0  0  0  0
    0.0342    0.5004   -0.8713 C   0  0  0  0  0  0  0  0  0  0  0  0
    5.0273    0.4404   -0.0618 C   0  0  0  0  0  0  0  0  0  0  0  0
    3.0588   -0.8093    0.6542 N   0  0  0  0  0  0  0  0  0  0  0  0
    5.4271    1.4905   -0.7743 N   0  0  0  0  0  0  0  0  0  0  0  0
    1.7697   -0.7804    0.3976 N   0  0  0  0  0  0  0  0  0  0  0  0
   -0.8344   -0.5612   -0.8637 N   0  0  0  0  0  0  0  0  0  0  0  0
   -2.6006   -2.7066   -1.3965 O   0  0  0  0  0  0  0  0  0  0  0  0
   -4.5141   -0.3111    2.0675 O   0  0  0  0  0  0  0  0  0  0  0  0
   -0.2678    1.6511   -1.1211 O   0  0  0  0  0  0  0  0  0  0  0  0
    7.0227    2.6348   -1.3718 H   0  0  0  0  0  0  0  0  0  0  0  0
    8.7174    1.3284   -0.1451 H   0  0  0  0  0  0  0  0  0  0  0  0
    5.5413   -1.2096    1.2162 H   0  0  0  0  0  0  0  0  0  0  0  0
    8.5104   -0.3650    2.3664 H   0  0  0  0  0  0  0  0  0  0  0  0
    7.8418   -1.8500    1.6995 H   0  0  0  0  0  0  0  0  0  0  0  0
    9.1739   -1.0254    0.8817 H   0  0  0  0  0  0  0  0  0  0  0  0
    0.6324   -1.9375   -1.5302 H   0  0  0  0  0  0  0  0  0  0  0  0
   -0.5980   -1.5335   -2.7153 H   0  0  0  0  0  0  0  0  0  0  0  0
   -0.9602   -3.7917   -1.8933 H   0  0  0  0  0  0  0  0  0  0  0  0
   -0.9884   -3.2338   -0.2102 H   0  0  0  0  0  0  0  0  0  0  0  0
   -2.8188   -1.8858    0.4816 H   0  0  0  0  0  0  0  0  0  0  0  0
   -4.0661   -1.5059   -0.7178 H   0  0  0  0  0  0  0  0  0  0  0  0
   -2.5806    0.0149   -1.8982 H   0  0  0  0  0  0  0  0  0  0  0  0
   -2.3882    0.4094    1.1317 H   0  0  0  0  0  0  0  0  0  0  0  0
   -2.2493    1.6784   -0.0651 H   0  0  0  0  0  0  0  0  0  0  0  0
   -4.1073    2.1553   -1.6393 H   0  0  0  0  0  0  0  0  0  0  0  0
   -6.5340    2.5669   -1.7899 H   0  0  0  0  0  0  0  0  0  0  0  0
   -8.0409    1.6067   -0.0633 H   0  0  0  0  0  0  0  0  0  0  0  0
   -7.1320    0.2630    1.7579 H   0  0  0  0  0  0  0  0  0  0  0  0
   -5.8781   -0.1358    3.6355 H   0  0  0  0  0  0  0  0  0  0  0  0
   -6.0630   -1.5878    2.6283 H   0  0  0  0  0  0  0  0  0  0  0  0
   -4.6796   -1.4377    3.7262 H   0  0  0  0  0  0  0  0  0  0  0  0
    2.7112    1.6681   -1.4818 H   0  0  0  0  0  0  0  0  0  0  0  0
    1.1492   -1.4111    0.8834 H   0  0  0  0  0  0  0  0  0  0  0  0
  3  2  2  0
  3  4  1  0
  2 24  1  0
  6  4  1  0
  4  5  2  0
 24 22  2  0
  5 22  1  0
 22 20  1  0
 20 19  1  0
 20 23  2  0
 19  1  2  0
 23 25  1  0
 25  1  1  0
  1 21  1  0
 29 21  2  0
 21 26  1  0
 18 28  1  0
 16 15  2  0
 16 17  1  0
 15 14  1  0
 28 17  1  0
 26 10  1  0
 26  7  1  0
 17 12  2  0
 14 13  2  0
 10  9  1  0
 10 11  1  0
  7  8  1  0
 12 13  1  0
 12 11  1  0
  9 27  1  0
  8 27  1  0
  2 30  1  0
  3 31  1  0
  5 32  1  0
  6 33  1  0
  6 34  1  0
  6 35  1  0
  7 36  1  0
  7 37  1  0
  8 38  1  0
  8 39  1  0
  9 40  1  0
  9 41  1  0
 10 42  1  6
 11 43  1  0
 11 44  1  0
 13 45  1  0
 14 46  1  0
 15 47  1  0
 16 48  1  0
 18 49  1  0
 18 50  1  0
 18 51  1  0
 19 52  1  0
 25 53  1  0
M  END
