
     RDKit          3D

 60 63  0  0  0  0  0  0  0  0999 V2000
   -2.3649    0.9530   -2.4321 C   0  0  0  0  0  0  0  0  0  0  0  0
   -2.1357   -0.4410   -2.4970 O   0  0  0  0  0  0  0  0  0  0  0  0
   -2.0741   -1.1256   -1.3452 C   0  0  0  0  0  0  0  0  0  0  0  0
   -2.3077   -0.5882   -0.0955 C   0  0  0  0  0  0  0  0  0  0  0  0
   -1.7475   -2.4965   -1.4649 C   0  0  0  0  0  0  0  0  0  0  0  0
   -1.5526   -2.9315   -2.7134 O   0  0  0  0  0  0  0  0  0  0  0  0
   -1.2104   -4.2920   -2.9074 C   0  0  0  0  0  0  0  0  0  0  0  0
   -1.6447   -3.2809   -0.3255 C   0  0  0  0  0  0  0  0  0  0  0  0
   -1.8427   -2.7297    0.9357 C   0  0  0  0  0  0  0  0  0  0  0  0
   -2.1764   -1.3962    1.0371 C   0  0  0  0  0  0  0  0  0  0  0  0
   -2.3355   -0.6486    2.6236 S   0  0  1  0  0  0  0  0  0  0  0  0
   -3.3441    0.3926    2.5309 O   0  0  0  0  0  0  0  0  0  0  0  0
   -2.4431   -1.6799    3.6417 O   0  0  0  0  0  0  0  0  0  0  0  0
   -0.8806    0.1230    2.9279 N   0  0  0  0  0  0  0  0  0  0  0  0
   -0.4147    1.0200    1.9347 C   0  0  0  0  0  0  0  0  0  0  0  0
   -0.9660    2.2986    1.8586 C   0  0  0  0  0  0  0  0  0  0  0  0
   -0.5472    3.1186    0.8351 C   0  0  0  0  0  0  0  0  0  0  0  0
   -0.8999    4.4037    0.4808 N   0  0  0  0  0  0  0  0  0  0  0  0
   -1.8519    5.2249    1.1821 C   0  0  0  0  0  0  0  0  0  0  0  0
   -0.1869    4.7943   -0.6257 C   0  0  0  0  0  0  0  0  0  0  0  0
   -0.2477    5.8675   -1.1976 O   0  0  0  0  0  0  0  0  0  0  0  0
    0.6151    3.7236   -0.9651 N   0  0  0  0  0  0  0  0  0  0  0  0
    1.5436    3.7065   -2.0658 C   0  0  0  0  0  0  0  0  0  0  0  0
    0.4139    2.6912   -0.0829 C   0  0  0  0  0  0  0  0  0  0  0  0
    0.9868    1.4364   -0.0135 C   0  0  0  0  0  0  0  0  0  0  0  0
    0.5489    0.5980    1.0076 C   0  0  0  0  0  0  0  0  0  0  0  0
    0.9923   -0.6756    1.1642 O   0  0  0  0  0  0  0  0  0  0  0  0
    2.1224   -1.0884    0.4988 C   0  0  0  0  0  0  0  0  0  0  0  0
    3.3789   -0.6509    0.9010 C   0  0  0  0  0  0  0  0  0  0  0  0
    4.5064   -1.1229    0.2579 C   0  0  0  0  0  0  0  0  0  0  0  0
    4.3943   -2.0413   -0.7902 C   0  0  0  0  0  0  0  0  0  0  0  0
    5.5488   -2.4509   -1.3477 O   0  0  0  0  0  0  0  0  0  0  0  0
    5.4936   -3.4048   -2.3895 C   0  0  0  0  0  0  0  0  0  0  0  0
    3.1316   -2.4737   -1.1858 C   0  0  0  0  0  0  0  0  0  0  0  0
    1.9992   -1.9882   -0.5409 C   0  0  0  0  0  0  0  0  0  0  0  0
   -3.3458    1.1876   -2.0115 H   0  0  0  0  0  0  0  0  0  0  0  0
   -1.5969    1.4609   -1.8411 H   0  0  0  0  0  0  0  0  0  0  0  0
   -2.3241    1.3206   -3.4539 H   0  0  0  0  0  0  0  0  0  0  0  0
   -2.5891    0.4503    0.0090 H   0  0  0  0  0  0  0  0  0  0  0  0
   -1.9909   -4.9618   -2.5396 H   0  0  0  0  0  0  0  0  0  0  0  0
   -1.1007   -4.4308   -3.9794 H   0  0  0  0  0  0  0  0  0  0  0  0
   -0.2662   -4.5457   -2.4184 H   0  0  0  0  0  0  0  0  0  0  0  0
   -1.3981   -4.3310   -0.3982 H   0  0  0  0  0  0  0  0  0  0  0  0
   -1.7373   -3.3546    1.8108 H   0  0  0  0  0  0  0  0  0  0  0  0
   -0.1862   -0.5448    3.2489 H   0  0  0  0  0  0  0  0  0  0  0  0
   -1.6966    2.6150    2.5899 H   0  0  0  0  0  0  0  0  0  0  0  0
   -1.4854    5.4856    2.1748 H   0  0  0  0  0  0  0  0  0  0  0  0
   -2.0189    6.1389    0.6201 H   0  0  0  0  0  0  0  0  0  0  0  0
   -2.8023    4.7020    1.2825 H   0  0  0  0  0  0  0  0  0  0  0  0
    1.4860    4.6529   -2.5950 H   0  0  0  0  0  0  0  0  0  0  0  0
    2.5635    3.5688   -1.7072 H   0  0  0  0  0  0  0  0  0  0  0  0
    1.3024    2.9041   -2.7625 H   0  0  0  0  0  0  0  0  0  0  0  0
    1.7236    1.1103   -0.7352 H   0  0  0  0  0  0  0  0  0  0  0  0
    3.4786    0.0515    1.7192 H   0  0  0  0  0  0  0  0  0  0  0  0
    5.4876   -0.7890    0.5704 H   0  0  0  0  0  0  0  0  0  0  0  0
    5.0353   -4.3415   -2.0615 H   0  0  0  0  0  0  0  0  0  0  0  0
    4.9453   -3.0311   -3.2582 H   0  0  0  0  0  0  0  0  0  0  0  0
    6.5213   -3.6017   -2.6836 H   0  0  0  0  0  0  0  0  0  0  0  0
    3.0040   -3.1851   -1.9900 H   0  0  0  0  0  0  0  0  0  0  0  0
    1.0171   -2.3253   -0.8455 H   0  0  0  0  0  0  0  0  0  0  0  0
 12 11  2  0
  9  8  2  0
  9 10  1  0
  8  5  1  0
  7  6  1  0
 11 10  1  0
 11 13  2  0
 11 14  1  1
 10  4  2  0
  5  6  1  0
  5  3  2  0
  4  3  1  0
  3  2  1  0
 14 15  1  0
  2  1  1  0
 34 35  2  0
 34 31  1  0
 35 28  1  0
 15 16  2  0
 15 26  1  0
 32 31  1  0
 32 33  1  0
 31 30  2  0
 27 28  1  0
 27 26  1  0
 28 29  2  0
 30 29  1  0
 16 17  1  0
 26 25  2  0
 17 24  2  0
 17 18  1  0
 25 24  1  0
 19 18  1  0
 24 22  1  0
 18 20  1  0
 22 20  1  0
 22 23  1  0
 20 21  2  0
  1 36  1  0
  1 37  1  0
  1 38  1  0
  4 39  1  0
  7 40  1  0
  7 41  1  0
  7 42  1  0
  8 43  1  0
  9 44  1  0
 14 45  1  0
 16 46  1  0
 19 47  1  0
 19 48  1  0
 19 49  1  0
 23 50  1  0
 23 51  1  0
 23 52  1  0
 25 53  1  0
 29 54  1  0
 30 55  1  0
 33 56  1  0
 33 57  1  0
 33 58  1  0
 34 59  1  0
 35 60  1  0
M  END
