
     RDKit          3D

 44 45  0  0  0  0  0  0  0  0999 V2000
   -3.6648    1.8127   -1.4460 N   0  0  0  0  0  0  0  0  0  0  0  0
   -4.2204    0.6863   -0.7435 C   0  0  2  0  0  0  0  0  0  0  0  0
   -5.6354    0.3026   -1.1259 C   0  0  0  0  0  0  0  0  0  0  0  0
   -6.2982    0.8864   -1.9438 O   0  0  0  0  0  0  0  0  0  0  0  0
   -4.1818    0.8971    0.7679 C   0  0  0  0  0  0  0  0  0  0  0  0
    2.1942   -0.6786   -1.0111 C   0  0  2  0  0  0  0  0  0  0  0  0
    2.2161    1.0349    0.7594 C   0  0  0  0  0  0  0  0  0  0  0  0
    2.5720   -1.9365   -0.2303 C   0  0  1  0  0  0  0  0  0  0  0  0
    0.2757   -1.9607   -0.8005 C   0  0  1  0  0  0  0  0  0  0  0  0
    1.4724   -2.8995   -0.7063 C   0  0  1  0  0  0  0  0  0  0  0  0
    3.5438    3.0969    0.4627 C   0  0  0  0  0  0  0  0  0  0  0  0
    3.9752    2.5564   -0.8019 C   0  0  0  0  0  0  0  0  0  0  0  0
   -0.5060   -1.9383    0.5015 C   0  0  0  0  0  0  0  0  0  0  0  0
    3.5206    1.3601   -1.2019 C   0  0  0  0  0  0  0  0  0  0  0  0
    2.6637    0.5897   -0.4593 N   0  0  0  0  0  0  0  0  0  0  0  0
    2.6683    2.2578    1.1445 N   0  0  0  0  0  0  0  0  0  0  0  0
    1.7571   -3.3974   -1.9856 O   0  0  0  0  0  0  0  0  0  0  0  0
    3.8700   -2.3216   -0.5758 O   0  0  0  0  0  0  0  0  0  0  0  0
    3.8715    4.1643    0.9396 O   0  0  0  0  0  0  0  0  0  0  0  0
    0.8061   -0.6756   -1.1214 O   0  0  0  0  0  0  0  0  0  0  0  0
   -1.3976   -0.8271    0.4617 O   0  0  0  0  0  0  0  0  0  0  0  0
   -0.8741    0.4244    2.6358 O   0  0  0  0  0  0  0  0  0  0  0  0
   -2.8437   -1.2091    2.5903 O   0  0  0  0  0  0  0  0  0  0  0  0
   -2.8449    1.0163    1.2493 O   0  0  0  0  0  0  0  0  0  0  0  0
   -2.0424   -0.2452    1.8083 P   0  0  2  0  0  0  0  0  0  0  0  0
   -3.5611    1.5931   -2.4280 H   0  0  0  0  0  0  0  0  0  0  0  0
   -4.2989    2.6015   -1.3994 H   0  0  0  0  0  0  0  0  0  0  0  0
   -3.6235   -0.2066   -0.9720 H   0  0  0  0  0  0  0  0  0  0  0  0
   -6.0296   -0.5857   -0.5997 H   0  0  0  0  0  0  0  0  0  0  0  0
   -4.6840    1.8314    1.0246 H   0  0  0  0  0  0  0  0  0  0  0  0
   -4.7063    0.0889    1.2839 H   0  0  0  0  0  0  0  0  0  0  0  0
    2.6597   -0.7379   -2.0013 H   0  0  0  0  0  0  0  0  0  0  0  0
    2.4720   -1.7778    0.8466 H   0  0  0  0  0  0  0  0  0  0  0  0
   -0.3946   -2.2596   -1.6117 H   0  0  0  0  0  0  0  0  0  0  0  0
    1.3021   -3.7071    0.0181 H   0  0  0  0  0  0  0  0  0  0  0  0
    4.6536    3.1209   -1.4221 H   0  0  0  0  0  0  0  0  0  0  0  0
   -1.0676   -2.8719    0.5853 H   0  0  0  0  0  0  0  0  0  0  0  0
    0.1630   -1.8756    1.3627 H   0  0  0  0  0  0  0  0  0  0  0  0
    3.8151    0.9383   -2.1517 H   0  0  0  0  0  0  0  0  0  0  0  0
    2.3380    2.5772    2.0481 H   0  0  0  0  0  0  0  0  0  0  0  0
    2.6690   -3.7118   -1.9857 H   0  0  0  0  0  0  0  0  0  0  0  0
    4.2201   -2.8901    0.1170 H   0  0  0  0  0  0  0  0  0  0  0  0
    0.0064    0.5211    2.1959 H   0  0  0  0  0  0  0  0  0  0  0  0
    1.4702    0.3728    1.4662 O   0  0  0  0  0  0  0  0  0  0  0  0
 12 14  2  0
 12 11  1  0
 14 15  1  0
 19 11  2  0
 11 16  1  0
 15  6  1  0
 15  7  1  0
 18  8  1  0
  6  8  1  0
  6 20  1  0
 16  7  1  0
  8 10  1  0
  7 44  2  0
 20  9  1  0
 17 10  1  0
 10  9  1  0
  9 13  1  0
  1  2  1  0
  4  3  2  0
 21 13  1  0
 25 21  1  6
  2  3  1  0
  2  5  1  0
 23 25  2  0
 25 24  1  0
 25 22  1  0
 24  5  1  0
  1 26  1  0
  1 27  1  0
  2 28  1  1
  3 29  1  0
  5 30  1  0
  5 31  1  0
  6 32  1  6
  8 33  1  1
  9 34  1  6
 10 35  1  1
 12 36  1  0
 13 37  1  0
 13 38  1  0
 14 39  1  0
 16 40  1  0
 17 41  1  0
 18 42  1  0
 22 43  1  0
M  END
