
     RDKit          3D

 34 37  0  0  0  0  0  0  0  0999 V2000
    2.9887   -2.7067    0.9093 O   0  0  0  0  0  0  0  0  0  0  0  0
    2.9752   -1.5551    0.5200 C   0  0  0  0  0  0  0  0  0  0  0  0
    0.5590   -1.1151    0.6042 C   0  0  0  0  0  0  0  0  0  0  0  0
   -0.6797   -0.3307    0.6265 C   0  0  0  0  0  0  0  0  0  0  0  0
   -0.7010    0.8142    1.4097 C   0  0  0  0  0  0  0  0  0  0  0  0
   -1.8550    1.5841    1.5878 C   0  0  0  0  0  0  0  0  0  0  0  0
   -2.9896    1.1490    0.9596 C   0  0  0  0  0  0  0  0  0  0  0  0
   -4.2169    1.7040    0.9648 O   0  0  0  0  0  0  0  0  0  0  0  0
   -5.0414    0.8960    0.1371 C   0  0  0  0  0  0  0  0  0  0  0  0
   -4.2368   -0.1915   -0.3096 O   0  0  0  0  0  0  0  0  0  0  0  0
   -3.0034   -0.0072    0.1868 C   0  0  0  0  0  0  0  0  0  0  0  0
   -1.8709   -0.7715   -0.0136 C   0  0  0  0  0  0  0  0  0  0  0  0
   -1.9649   -1.9645   -0.8835 C   0  0  0  0  0  0  0  0  0  0  0  0
   -3.0026   -2.5257   -1.1374 O   0  0  0  0  0  0  0  0  0  0  0  0
   -0.7931   -2.3400   -1.3718 O   0  0  0  0  0  0  0  0  0  0  0  0
    2.3148    0.6115   -0.1578 C   0  0  0  0  0  0  0  0  0  0  0  0
    3.7065    0.4586   -0.2538 C   0  0  0  0  0  0  0  0  0  0  0  0
    4.0625   -0.8155    0.1624 N   0  0  0  0  0  0  0  0  0  0  0  0
    4.5307    1.4634   -0.7219 C   0  0  0  0  0  0  0  0  0  0  0  0
    3.9319    2.6564   -1.1168 C   0  0  0  0  0  0  0  0  0  0  0  0
    2.5537    2.8240   -1.0492 C   0  0  0  0  0  0  0  0  0  0  0  0
    1.7378    1.8040   -0.5690 C   0  0  0  0  0  0  0  0  0  0  0  0
    1.7904   -0.6566    0.3440 C   0  0  0  0  0  0  0  0  0  0  0  0
    5.0090   -1.1626    0.1920 H   0  0  0  0  0  0  0  0  0  0  0  0
    0.4807   -2.1614    0.8826 H   0  0  0  0  0  0  0  0  0  0  0  0
    0.2023    1.1143    1.9236 H   0  0  0  0  0  0  0  0  0  0  0  0
   -1.8455    2.4737    2.2022 H   0  0  0  0  0  0  0  0  0  0  0  0
   -5.8864    0.5137    0.7121 H   0  0  0  0  0  0  0  0  0  0  0  0
   -5.3890    1.4733   -0.7224 H   0  0  0  0  0  0  0  0  0  0  0  0
   -0.8976   -3.1421   -1.9066 H   0  0  0  0  0  0  0  0  0  0  0  0
    0.6681    1.9521   -0.5224 H   0  0  0  0  0  0  0  0  0  0  0  0
    5.6024    1.3282   -0.7852 H   0  0  0  0  0  0  0  0  0  0  0  0
    4.5521    3.4624   -1.4868 H   0  0  0  0  0  0  0  0  0  0  0  0
    2.1094    3.7563   -1.3706 H   0  0  0  0  0  0  0  0  0  0  0  0
  1  2  2  0
  2 18  1  0
  2 23  1  0
  3  4  1  0
  3 23  2  0
  4  5  2  0
  4 12  1  0
  5  6  1  0
  6  7  2  0
  7  8  1  0
  7 11  1  0
  8  9  1  0
  9 10  1  0
 10 11  1  0
 11 12  2  0
 12 13  1  0
 13 14  2  0
 13 15  1  0
 16 17  2  0
 16 22  1  0
 16 23  1  0
 17 18  1  0
 17 19  1  0
 19 20  2  0
 20 21  1  0
 21 22  2  0
 18 24  1  0
  3 25  1  0
  5 26  1  0
  6 27  1  0
  9 28  1  0
  9 29  1  0
 15 30  1  0
 22 31  1  0
 19 32  1  0
 20 33  1  0
 21 34  1  0
M  END
