
     RDKit          3D

 50 54  0  0  0  0  0  0  0  0999 V2000
    5.9268    1.4418   -1.0554 C   0  0  0  0  0  0  0  0  0  0  0  0
    5.4609    0.1599   -0.6831 O   0  0  0  0  0  0  0  0  0  0  0  0
    4.1601    0.0207   -0.3702 C   0  0  0  0  0  0  0  0  0  0  0  0
    3.2362    1.0578   -0.3770 C   0  0  0  0  0  0  0  0  0  0  0  0
    3.7591   -1.2742   -0.0278 C   0  0  0  0  0  0  0  0  0  0  0  0
    4.6537   -2.2947   -0.0488 O   0  0  0  0  0  0  0  0  0  0  0  0
    5.3374   -2.5004    1.1809 C   0  0  0  0  0  0  0  0  0  0  0  0
    2.4278   -1.5131    0.3188 C   0  0  0  0  0  0  0  0  0  0  0  0
    2.1378   -2.7837    0.6517 O   0  0  0  0  0  0  0  0  0  0  0  0
    0.8114   -3.0981    1.0211 C   0  0  0  0  0  0  0  0  0  0  0  0
    1.4984   -0.4766    0.2993 C   0  0  0  0  0  0  0  0  0  0  0  0
    1.9034    0.8127   -0.0458 C   0  0  0  0  0  0  0  0  0  0  0  0
    0.9541    1.9473   -0.0552 C   0  0  0  0  0  0  0  0  0  0  0  0
    1.4793    3.1658   -0.1291 N   0  0  0  0  0  0  0  0  0  0  0  0
    0.7094    4.2544   -0.1432 C   0  0  0  0  0  0  0  0  0  0  0  0
   -0.6712    4.2422   -0.0815 C   0  0  0  0  0  0  0  0  0  0  0  0
   -1.2324    2.9768   -0.0107 C   0  0  0  0  0  0  0  0  0  0  0  0
   -2.5160    2.5324    0.0444 N   0  0  0  0  0  0  0  0  0  0  0  0
   -0.4438    1.8129   -0.0005 C   0  0  0  0  0  0  0  0  0  0  0  0
   -1.2547    0.7100    0.0505 N   0  0  0  0  0  0  0  0  0  0  0  0
   -2.4799    1.1669    0.0752 C   0  0  0  0  0  0  0  0  0  0  0  0
   -3.6817    0.3475    0.1344 C   0  0  0  0  0  0  0  0  0  0  0  0
   -3.6390   -1.0182   -0.2130 C   0  0  0  0  0  0  0  0  0  0  0  0
   -2.6254   -1.9063   -0.6821 C   0  0  0  0  0  0  0  0  0  0  0  0
   -3.2223   -3.1229   -0.8611 C   0  0  0  0  0  0  0  0  0  0  0  0
   -4.5413   -3.0441   -0.5329 N   0  0  0  0  0  0  0  0  0  0  0  0
   -4.8339   -1.7729   -0.1370 C   0  0  0  0  0  0  0  0  0  0  0  0
   -6.0470   -1.2256    0.2687 C   0  0  0  0  0  0  0  0  0  0  0  0
   -6.0592    0.1140    0.6059 C   0  0  0  0  0  0  0  0  0  0  0  0
   -4.8958    0.8876    0.5401 C   0  0  0  0  0  0  0  0  0  0  0  0
    6.9895    1.3366   -1.2590 H   0  0  0  0  0  0  0  0  0  0  0  0
    5.4295    1.8089   -1.9566 H   0  0  0  0  0  0  0  0  0  0  0  0
    5.7919    2.1747   -0.2561 H   0  0  0  0  0  0  0  0  0  0  0  0
    3.5279    2.0652   -0.6342 H   0  0  0  0  0  0  0  0  0  0  0  0
    5.9353   -1.6299    1.4621 H   0  0  0  0  0  0  0  0  0  0  0  0
    4.6451   -2.7290    1.9945 H   0  0  0  0  0  0  0  0  0  0  0  0
    6.0033   -3.3498    1.0399 H   0  0  0  0  0  0  0  0  0  0  0  0
    0.8015   -4.1582    1.2625 H   0  0  0  0  0  0  0  0  0  0  0  0
    0.4849   -2.5347    1.8988 H   0  0  0  0  0  0  0  0  0  0  0  0
    0.1049   -2.9188    0.2066 H   0  0  0  0  0  0  0  0  0  0  0  0
    0.4644   -0.6583    0.5505 H   0  0  0  0  0  0  0  0  0  0  0  0
    1.2323    5.2019   -0.2062 H   0  0  0  0  0  0  0  0  0  0  0  0
   -1.2537    5.1526   -0.0918 H   0  0  0  0  0  0  0  0  0  0  0  0
   -3.3391    3.1114   -0.0089 H   0  0  0  0  0  0  0  0  0  0  0  0
   -1.5917   -1.6728   -0.8649 H   0  0  0  0  0  0  0  0  0  0  0  0
   -2.7965   -4.0526   -1.2027 H   0  0  0  0  0  0  0  0  0  0  0  0
   -5.1978   -3.8051   -0.5835 H   0  0  0  0  0  0  0  0  0  0  0  0
   -6.9467   -1.8257    0.3168 H   0  0  0  0  0  0  0  0  0  0  0  0
   -6.9810    0.5763    0.9318 H   0  0  0  0  0  0  0  0  0  0  0  0
   -4.9619    1.9266    0.8373 H   0  0  0  0  0  0  0  0  0  0  0  0
 25 26  1  0
 25 24  2  0
 26 27  1  0
 24 23  1  0
 27 28  1  0
 27 23  2  0
 28 29  2  0
 23 22  1  0
 29 30  1  0
 22 30  2  0
 22 21  1  0
 18 21  1  0
 18 17  1  0
 21 20  2  0
 17 16  2  0
 17 19  1  0
 16 15  1  0
 20 19  1  0
 19 13  2  0
 15 14  2  0
 13 14  1  0
 13 12  1  0
  4 12  1  0
  4  3  2  0
  1  2  1  0
 12 11  2  0
  2  3  1  0
  3  5  1  0
 11  8  1  0
  5  8  2  0
  5  6  1  0
  8  9  1  0
  6  7  1  0
  9 10  1  0
  1 31  1  0
  1 32  1  0
  1 33  1  0
  4 34  1  0
  7 35  1  0
  7 36  1  0
  7 37  1  0
 10 38  1  0
 10 39  1  0
 10 40  1  0
 11 41  1  0
 15 42  1  0
 16 43  1  0
 18 44  1  0
 24 45  1  0
 25 46  1  0
 26 47  1  0
 28 48  1  0
 29 49  1  0
 30 50  1  0
M  END
