
     RDKit          3D

 31 32  0  0  0  0  0  0  0  0999 V2000
   -1.8982   -0.2735   -3.9012 N   0  0  0  0  0  0  0  0  0  0  0  0
   -2.1743    0.2442   -2.6654 C   0  0  0  0  0  0  0  0  0  0  0  0
   -1.0156    0.5623   -2.0159 C   0  0  0  0  0  0  0  0  0  0  0  0
    1.4426    0.3072   -2.8425 C   0  0  0  0  0  0  0  0  0  0  0  0
    2.1977   -0.1199   -3.9173 C   0  0  0  0  0  0  0  0  0  0  0  0
    1.5852   -0.6391   -5.0707 C   0  0  0  0  0  0  0  0  0  0  0  0
    0.2106   -0.7373   -5.1719 C   0  0  0  0  0  0  0  0  0  0  0  0
   -0.5478   -0.3051   -4.0844 C   0  0  0  0  0  0  0  0  0  0  0  0
    0.0474    0.2159   -2.9134 C   0  0  0  0  0  0  0  0  0  0  0  0
   -0.2266    0.7253    1.7437 C   0  0  0  0  0  0  0  0  0  0  0  0
   -0.3641    0.1013    0.3730 C   0  0  0  0  0  0  0  0  0  0  0  0
   -0.8757    1.1268   -0.6414 C   0  0  0  0  0  0  0  0  0  0  0  0
    0.2325    0.0067    4.2188 P   0  0  1  0  0  0  0  0  0  0  0  0
    0.6915    1.3293    4.6833 O   0  0  0  0  0  0  0  0  0  0  0  0
    1.0711   -1.2732    4.6674 O   0  0  0  0  0  0  0  0  0  0  0  0
   -1.2832   -0.2206    4.6760 O   0  0  0  0  0  0  0  0  0  0  0  0
    0.2903   -0.2643    2.6494 O   0  0  0  0  0  0  0  0  0  0  0  0
   -2.5891   -0.5805   -4.5648 H   0  0  0  0  0  0  0  0  0  0  0  0
   -3.1953    0.3538   -2.3334 H   0  0  0  0  0  0  0  0  0  0  0  0
    1.9245    0.7106   -1.9596 H   0  0  0  0  0  0  0  0  0  0  0  0
    3.2774   -0.0550   -3.8755 H   0  0  0  0  0  0  0  0  0  0  0  0
    2.2020   -0.9671   -5.8975 H   0  0  0  0  0  0  0  0  0  0  0  0
   -0.2580   -1.1349   -6.0632 H   0  0  0  0  0  0  0  0  0  0  0  0
   -1.1995    1.0885    2.0889 H   0  0  0  0  0  0  0  0  0  0  0  0
    0.4572    1.5770    1.7126 H   0  0  0  0  0  0  0  0  0  0  0  0
    0.6040   -0.2908    0.0505 H   0  0  0  0  0  0  0  0  0  0  0  0
   -1.0563   -0.7428    0.4173 H   0  0  0  0  0  0  0  0  0  0  0  0
   -1.8418    1.5151   -0.3074 H   0  0  0  0  0  0  0  0  0  0  0  0
   -0.1926    1.9828   -0.6620 H   0  0  0  0  0  0  0  0  0  0  0  0
    1.2992   -1.2826    5.6067 H   0  0  0  0  0  0  0  0  0  0  0  0
   -1.6639   -1.0786    4.4452 H   0  0  0  0  0  0  0  0  0  0  0  0
  1  2  1  0
  1  8  1  0
  1 18  1  0
  2  3  2  0
  2 19  1  0
  3  9  1  0
  3 12  1  0
  4  5  1  0
  4  9  2  0
  4 20  1  0
  5  6  2  0
  5 21  1  0
  6  7  1  0
  6 22  1  0
  7  8  2  0
  7 23  1  0
  8  9  1  0
 10 11  1  0
 10 17  1  0
 10 24  1  0
 10 25  1  0
 11 12  1  0
 11 26  1  0
 11 27  1  0
 12 28  1  0
 12 29  1  0
 13 14  2  0
 13 15  1  1
 13 16  1  0
 13 17  1  0
 15 30  1  0
 16 31  1  0
M  END
