
     RDKit          3D

 75 78  0  0  0  0  0  0  0  0999 V2000
   -0.3178    0.6241   -1.8370 C   0  0  0  0  0  0  0  0  0  0  0  0
   -0.2344    0.2640   -0.3502 C   0  0  2  0  0  0  0  0  0  0  0  0
    0.4150    1.3943    0.4518 C   0  0  0  0  0  0  0  0  0  0  0  0
    1.8963    1.5596    0.1014 C   0  0  0  0  0  0  0  0  0  0  0  0
    2.7198    0.2763    0.2567 C   0  0  2  0  0  0  0  0  0  0  0  0
    4.2204    0.4645   -0.0874 C   0  0  1  0  0  0  0  0  0  0  0  0
    4.4130    1.1238   -1.4619 C   0  0  0  0  0  0  0  0  0  0  0  0
    4.8633    1.3471    1.0051 C   0  0  0  0  0  0  0  0  0  0  0  0
    6.3855    1.4082    0.9620 C   0  0  0  0  0  0  0  0  0  0  0  0
    6.9769    0.0161    1.0577 C   0  0  2  0  0  0  0  0  0  0  0  0
    8.3858    0.1195    1.0196 O   0  0  0  0  0  0  0  0  0  0  0  0
    6.4358   -0.8493   -0.0769 C   0  0  0  0  0  0  0  0  0  0  0  0
    4.9300   -0.8789   -0.0950 C   0  0  0  0  0  0  0  0  0  0  0  0
    4.2808   -2.0417   -0.1244 C   0  0  0  0  0  0  0  0  0  0  0  0
    2.7985   -2.1948   -0.1882 C   0  0  0  0  0  0  0  0  0  0  0  0
    2.0737   -0.8909   -0.5021 C   0  0  1  0  0  0  0  0  0  0  0  0
    0.6116   -0.9949   -0.1020 C   0  0  2  0  0  0  0  0  0  0  0  0
   -0.2226   -2.1291   -0.6830 C   0  0  0  0  0  0  0  0  0  0  0  0
   -1.6697   -1.7015   -0.3715 C   0  0  0  0  0  0  0  0  0  0  0  0
   -1.6092   -0.2415    0.1561 C   0  0  2  0  0  0  0  0  0  0  0  0
   -2.8815    0.5467   -0.1857 C   0  0  2  0  0  0  0  0  0  0  0  0
   -2.8025    2.0188    0.2083 C   0  0  0  0  0  0  0  0  0  0  0  0
   -4.0912   -0.1230    0.4818 C   0  0  0  0  0  0  0  0  0  0  0  0
   -5.4566    0.3903    0.0362 C   0  0  0  0  0  0  0  0  0  0  0  0
   -6.5840   -0.3885    0.7031 C   0  0  0  0  0  0  0  0  0  0  0  0
   -8.0105    0.0104    0.3001 C   0  0  1  0  0  0  0  0  0  0  0  0
   -9.0039   -0.9068    1.0144 C   0  0  0  0  0  0  0  0  0  0  0  0
   -8.3070    1.4610    0.6600 C   0  0  0  0  0  0  0  0  0  0  0  0
   -8.1813   -0.0912   -1.1087 O   0  0  0  0  0  0  0  0  0  0  0  0
    0.6542    0.8688   -2.2657 H   0  0  0  0  0  0  0  0  0  0  0  0
   -0.7349   -0.1871   -2.4358 H   0  0  0  0  0  0  0  0  0  0  0  0
   -0.9597    1.4933   -1.9899 H   0  0  0  0  0  0  0  0  0  0  0  0
    0.3121    1.1709    1.5206 H   0  0  0  0  0  0  0  0  0  0  0  0
   -0.0856    2.3502    0.2894 H   0  0  0  0  0  0  0  0  0  0  0  0
    2.3156    2.3499    0.7295 H   0  0  0  0  0  0  0  0  0  0  0  0
    1.9747    1.9251   -0.9253 H   0  0  0  0  0  0  0  0  0  0  0  0
    2.6830   -0.0012    1.3211 H   0  0  0  0  0  0  0  0  0  0  0  0
    5.4620    1.1362   -1.7600 H   0  0  0  0  0  0  0  0  0  0  0  0
    3.8667    0.5887   -2.2400 H   0  0  0  0  0  0  0  0  0  0  0  0
    4.0726    2.1600   -1.4621 H   0  0  0  0  0  0  0  0  0  0  0  0
    4.5549    0.9661    1.9854 H   0  0  0  0  0  0  0  0  0  0  0  0
    4.4696    2.3630    0.9330 H   0  0  0  0  0  0  0  0  0  0  0  0
    6.7458    2.0271    1.7882 H   0  0  0  0  0  0  0  0  0  0  0  0
    6.7265    1.8877    0.0382 H   0  0  0  0  0  0  0  0  0  0  0  0
    6.6523   -0.4300    2.0113 H   0  0  0  0  0  0  0  0  0  0  0  0
    8.7523   -0.7655    1.1113 H   0  0  0  0  0  0  0  0  0  0  0  0
    6.8191   -1.8705    0.0095 H   0  0  0  0  0  0  0  0  0  0  0  0
    6.8212   -0.4495   -1.0228 H   0  0  0  0  0  0  0  0  0  0  0  0
    4.8628   -2.9600   -0.1059 H   0  0  0  0  0  0  0  0  0  0  0  0
    2.4389   -2.6004    0.7677 H   0  0  0  0  0  0  0  0  0  0  0  0
    2.5465   -2.9561   -0.9333 H   0  0  0  0  0  0  0  0  0  0  0  0
    2.1478   -0.7062   -1.5815 H   0  0  0  0  0  0  0  0  0  0  0  0
    0.6130   -1.1371    0.9912 H   0  0  0  0  0  0  0  0  0  0  0  0
    0.0296   -3.0963   -0.2453 H   0  0  0  0  0  0  0  0  0  0  0  0
   -0.0543   -2.2219   -1.7595 H   0  0  0  0  0  0  0  0  0  0  0  0
   -2.1290   -2.3662    0.3606 H   0  0  0  0  0  0  0  0  0  0  0  0
   -2.2974   -1.7490   -1.2654 H   0  0  0  0  0  0  0  0  0  0  0  0
   -1.5365   -0.2726    1.2527 H   0  0  0  0  0  0  0  0  0  0  0  0
   -3.0290    0.4894   -1.2727 H   0  0  0  0  0  0  0  0  0  0  0  0
   -2.0453    2.5551   -0.3617 H   0  0  0  0  0  0  0  0  0  0  0  0
   -3.7478    2.5324    0.0316 H   0  0  0  0  0  0  0  0  0  0  0  0
   -2.5571    2.1291    1.2674 H   0  0  0  0  0  0  0  0  0  0  0  0
   -4.0630   -1.1994    0.2901 H   0  0  0  0  0  0  0  0  0  0  0  0
   -3.9989   -0.0140    1.5697 H   0  0  0  0  0  0  0  0  0  0  0  0
   -5.5584    1.4532    0.2690 H   0  0  0  0  0  0  0  0  0  0  0  0
   -5.5397    0.3041   -1.0513 H   0  0  0  0  0  0  0  0  0  0  0  0
   -6.4526   -1.4570    0.4893 H   0  0  0  0  0  0  0  0  0  0  0  0
   -6.4942   -0.2940    1.7906 H   0  0  0  0  0  0  0  0  0  0  0  0
   -8.9167   -0.8119    2.0981 H   0  0  0  0  0  0  0  0  0  0  0  0
  -10.0313   -0.6637    0.7374 H   0  0  0  0  0  0  0  0  0  0  0  0
   -8.8249   -1.9553    0.7629 H   0  0  0  0  0  0  0  0  0  0  0  0
   -7.6680    2.1562    0.1146 H   0  0  0  0  0  0  0  0  0  0  0  0
   -9.3448    1.7148    0.4363 H   0  0  0  0  0  0  0  0  0  0  0  0
   -8.1462    1.6251    1.7258 H   0  0  0  0  0  0  0  0  0  0  0  0
   -7.9762   -0.9953   -1.3700 H   0  0  0  0  0  0  0  0  0  0  0  0
  2  1  1  6
  1 30  1  0
  1 31  1  0
  1 32  1  0
  2  3  1  0
  2 17  1  0
  2 20  1  0
  3  4  1  0
  3 33  1  0
  3 34  1  0
  4  5  1  0
  4 35  1  0
  4 36  1  0
  5  6  1  0
  5 16  1  0
  5 37  1  1
  6  7  1  6
  6  8  1  0
  6 13  1  0
  7 38  1  0
  7 39  1  0
  7 40  1  0
  8  9  1  0
  8 41  1  0
  8 42  1  0
  9 10  1  0
  9 43  1  0
  9 44  1  0
 10 11  1  0
 10 12  1  0
 10 45  1  1
 11 46  1  0
 12 13  1  0
 12 47  1  0
 12 48  1  0
 13 14  2  0
 14 15  1  0
 14 49  1  0
 15 16  1  0
 15 50  1  0
 15 51  1  0
 16 17  1  0
 16 52  1  6
 17 18  1  0
 17 53  1  1
 18 19  1  0
 18 54  1  0
 18 55  1  0
 19 20  1  0
 19 56  1  0
 19 57  1  0
 20 21  1  0
 20 58  1  1
 21 22  1  0
 21 23  1  0
 21 59  1  6
 22 60  1  0
 22 61  1  0
 22 62  1  0
 23 24  1  0
 23 63  1  0
 23 64  1  0
 24 25  1  0
 24 65  1  0
 24 66  1  0
 25 26  1  0
 25 67  1  0
 25 68  1  0
 26 27  1  0
 26 28  1  0
 26 29  1  6
 27 69  1  0
 27 70  1  0
 27 71  1  0
 28 72  1  0
 28 73  1  0
 28 74  1  0
 29 75  1  0
M  END
