
     RDKit          3D

 38 40  0  0  0  0  0  0  0  0999 V2000
    4.4352    0.2860   -0.1589 C   0  0  0  0  0  0  0  0  0  0  0  0
    4.7827    1.6067   -0.2896 C   0  0  0  0  0  0  0  0  0  0  0  0
    3.7204    2.5203   -0.2949 C   0  0  0  0  0  0  0  0  0  0  0  0
    2.4028    2.1237   -0.1775 C   0  0  0  0  0  0  0  0  0  0  0  0
   -4.7428    0.3662    1.5735 C   0  0  0  0  0  0  0  0  0  0  0  0
   -5.9103   -0.3823    1.6564 C   0  0  0  0  0  0  0  0  0  0  0  0
   -6.5169   -0.8870    0.5174 C   0  0  0  0  0  0  0  0  0  0  0  0
   -2.8806    1.3896    0.2187 C   0  0  0  0  0  0  0  0  0  0  0  0
   -5.9434   -0.6371   -0.7277 C   0  0  0  0  0  0  0  0  0  0  0  0
    5.3073   -0.9175   -0.1177 C   0  0  0  0  0  0  0  0  0  0  0  0
    3.1180   -1.6014    0.0811 C   0  0  0  0  0  0  0  0  0  0  0  0
    3.1176   -0.1406   -0.0383 C   0  0  0  0  0  0  0  0  0  0  0  0
    2.0433    0.7585   -0.0435 C   0  0  0  0  0  0  0  0  0  0  0  0
   -0.3710    1.2502    0.0784 C   0  0  0  0  0  0  0  0  0  0  0  0
   -1.6646    0.4635    0.2067 C   0  0  0  0  0  0  0  0  0  0  0  0
   -4.1670    0.6203    0.3323 C   0  0  0  0  0  0  0  0  0  0  0  0
   -4.7748    0.1138   -0.8132 C   0  0  0  0  0  0  0  0  0  0  0  0
    4.4495   -1.9864    0.0265 N   0  0  0  0  0  0  0  0  0  0  0  0
    0.7646    0.3572    0.0684 N   0  0  0  0  0  0  0  0  0  0  0  0
    6.5101   -0.9740   -0.1920 O   0  0  0  0  0  0  0  0  0  0  0  0
    2.1795   -2.3576    0.2042 O   0  0  0  0  0  0  0  0  0  0  0  0
    5.8097    1.9303   -0.3847 H   0  0  0  0  0  0  0  0  0  0  0  0
    3.9300    3.5774   -0.3940 H   0  0  0  0  0  0  0  0  0  0  0  0
    1.6332    2.8828   -0.1887 H   0  0  0  0  0  0  0  0  0  0  0  0
   -4.2821    0.7543    2.4734 H   0  0  0  0  0  0  0  0  0  0  0  0
   -6.3586   -0.5737    2.6230 H   0  0  0  0  0  0  0  0  0  0  0  0
   -7.4274   -1.4691    0.5861 H   0  0  0  0  0  0  0  0  0  0  0  0
   -2.7921    2.0906    1.0523 H   0  0  0  0  0  0  0  0  0  0  0  0
   -2.8861    1.9885   -0.6962 H   0  0  0  0  0  0  0  0  0  0  0  0
   -0.3956    1.8420   -0.8434 H   0  0  0  0  0  0  0  0  0  0  0  0
   -0.2915    1.9617    0.9085 H   0  0  0  0  0  0  0  0  0  0  0  0
   -1.6474   -0.1282    1.1267 H   0  0  0  0  0  0  0  0  0  0  0  0
   -1.7499   -0.2417   -0.6252 H   0  0  0  0  0  0  0  0  0  0  0  0
   -4.3311    0.3108   -1.7843 H   0  0  0  0  0  0  0  0  0  0  0  0
    4.7535   -2.9486    0.0793 H   0  0  0  0  0  0  0  0  0  0  0  0
    0.5908   -0.6285    0.1803 H   0  0  0  0  0  0  0  0  0  0  0  0
   -6.0697   -0.9132   -2.6152 H   0  0  0  0  0  0  0  0  0  0  0  0
   -6.5583   -1.1431   -1.8170 O   0  0  0  0  0  0  0  0  0  0  0  0
  6  7  1  0
  6  5  2  0
  7  9  2  0
  5 16  1  0
  9 38  1  0
  9 17  1  0
 16 17  2  0
 16  8  1  0
  8 15  1  0
 15 14  1  0
 14 19  1  0
 19 13  1  0
 21 11  2  0
 13 12  2  0
 13  4  1  0
 11 12  1  0
 11 18  1  0
 12  1  1  0
  4  3  2  0
 18 10  1  0
  1 10  1  0
  1  2  2  0
  3  2  1  0
 10 20  2  0
  2 22  1  0
  3 23  1  0
  4 24  1  0
  5 25  1  0
  6 26  1  0
  7 27  1  0
  8 28  1  0
  8 29  1  0
 14 30  1  0
 14 31  1  0
 15 32  1  0
 15 33  1  0
 17 34  1  0
 18 35  1  0
 19 36  1  0
 38 37  1  0
M  END
