
     RDKit          3D

158158  0  0  0  0  0  0  0  0999 V2000
    6.4231    1.6869    1.4708 O   0  0  0  0  0  0  0  0  0  0  0  0
    6.0083    2.9214    2.0202 C   0  0  2  0  0  0  0  0  0  0  0  0
    5.6625    2.6790    3.4831 C   0  0  0  0  0  0  0  0  0  0  0  0
    5.2002    3.9255    4.2303 C   0  0  0  0  0  0  0  0  0  0  0  0
    5.0210    3.6694    5.7216 C   0  0  0  0  0  0  0  0  0  0  0  0
    4.6383    4.9179    6.5060 C   0  0  0  0  0  0  0  0  0  0  0  0
    4.4289    4.6476    7.9908 C   0  0  0  0  0  0  0  0  0  0  0  0
    4.1188    5.9030    8.7968 C   0  0  0  0  0  0  0  0  0  0  0  0
    3.8771    5.6233   10.2748 C   0  0  0  0  0  0  0  0  0  0  0  0
    3.5947    6.8793   11.0899 C   0  0  0  0  0  0  0  0  0  0  0  0
    3.3352    6.5945   12.5640 C   0  0  0  0  0  0  0  0  0  0  0  0
    3.0595    7.8501   13.3821 C   0  0  0  0  0  0  0  0  0  0  0  0
    2.7870    7.5631   14.8533 C   0  0  0  0  0  0  0  0  0  0  0  0
    2.5097    8.8186   15.6713 C   0  0  0  0  0  0  0  0  0  0  0  0
    2.2259    8.5309   17.1403 C   0  0  0  0  0  0  0  0  0  0  0  0
    1.9422    9.7862   17.9564 C   0  0  0  0  0  0  0  0  0  0  0  0
    1.6495    9.4984   19.4235 C   0  0  0  0  0  0  0  0  0  0  0  0
    1.3524   10.7521   20.2375 C   0  0  0  0  0  0  0  0  0  0  0  0
    1.0613   10.4535   21.7018 C   0  0  0  0  0  0  0  0  0  0  0  0
    4.8627    3.5365    1.2013 C   0  0  2  0  0  0  0  0  0  0  0  0
    3.5929    2.7043    1.2409 C   0  0  0  0  0  0  0  0  0  0  0  0
    2.6067    3.3674    0.4784 O   0  0  0  0  0  0  0  0  0  0  0  0
    1.3005    3.0256    0.7908 C   0  0  2  0  0  0  0  0  0  0  0  0
    0.3807    3.5597   -0.3134 C   0  0  2  0  0  0  0  0  0  0  0  0
    0.7739    3.1237   -1.5854 O   0  0  0  0  0  0  0  0  0  0  0  0
    0.3756    5.0795   -0.2935 C   0  0  1  0  0  0  0  0  0  0  0  0
   -0.5559    5.5312   -1.2449 O   0  0  0  0  0  0  0  0  0  0  0  0
    0.0145    5.5690    1.1079 C   0  0  2  0  0  0  0  0  0  0  0  0
    0.1149    6.9771    1.1005 O   0  0  0  0  0  0  0  0  0  0  0  0
    0.9501    4.9484    2.1452 C   0  0  1  0  0  0  0  0  0  0  0  0
    0.5563    5.2871    3.5707 C   0  0  0  0  0  0  0  0  0  0  0  0
    1.4796    4.8071    4.5186 O   0  0  0  0  0  0  0  0  0  0  0  0
    0.9054    3.5320    2.0383 O   0  0  0  0  0  0  0  0  0  0  0  0
    5.2741    3.7347   -0.1739 N   0  0  0  0  0  0  0  0  0  0  0  0
    5.5912    4.9329   -0.7016 C   0  0  0  0  0  0  0  0  0  0  0  0
    5.6949    5.9496   -0.0302 O   0  0  0  0  0  0  0  0  0  0  0  0
    5.7966    4.9304   -2.2014 C   0  0  0  0  0  0  0  0  0  0  0  0
    6.8637    5.9120   -2.6659 C   0  0  0  0  0  0  0  0  0  0  0  0
    7.0288    5.9090   -4.1801 C   0  0  0  0  0  0  0  0  0  0  0  0
    8.0992    6.8809   -4.6600 C   0  0  0  0  0  0  0  0  0  0  0  0
    8.2808    6.8791   -6.1727 C   0  0  0  0  0  0  0  0  0  0  0  0
    9.3580    7.8461   -6.6478 C   0  0  0  0  0  0  0  0  0  0  0  0
    9.5533    7.8393   -8.1589 C   0  0  0  0  0  0  0  0  0  0  0  0
   10.6368    8.8022   -8.6281 C   0  0  0  0  0  0  0  0  0  0  0  0
   10.8443    8.7907  -10.1376 C   0  0  0  0  0  0  0  0  0  0  0  0
   11.9335    9.7499  -10.6011 C   0  0  0  0  0  0  0  0  0  0  0  0
   12.1516    9.7345  -12.1091 C   0  0  0  0  0  0  0  0  0  0  0  0
   13.2455   10.6909  -12.5674 C   0  0  0  0  0  0  0  0  0  0  0  0
   13.4724   10.6727  -14.0740 C   0  0  0  0  0  0  0  0  0  0  0  0
   14.5699   11.6271  -14.5278 C   0  0  0  0  0  0  0  0  0  0  0  0
   14.8040   11.6070  -16.0334 C   0  0  0  0  0  0  0  0  0  0  0  0
   15.9043   12.5600  -16.4833 C   0  0  0  0  0  0  0  0  0  0  0  0
   16.1438   12.5392  -17.9880 C   0  0  0  0  0  0  0  0  0  0  0  0
   17.2464   13.4911  -18.4346 C   0  0  0  0  0  0  0  0  0  0  0  0
   17.4891   13.4707  -19.9388 C   0  0  0  0  0  0  0  0  0  0  0  0
   18.5938   14.4214  -20.3830 C   0  0  0  0  0  0  0  0  0  0  0  0
   18.8369   14.4028  -21.8870 C   0  0  0  0  0  0  0  0  0  0  0  0
   19.9444   15.3508  -22.3310 C   0  0  0  0  0  0  0  0  0  0  0  0
   20.1765   15.3272  -23.8355 C   0  0  0  0  0  0  0  0  0  0  0  0
    6.8572    1.8604    0.6296 H   0  0  0  0  0  0  0  0  0  0  0  0
    6.8335    3.6480    1.9872 H   0  0  0  0  0  0  0  0  0  0  0  0
    4.9057    1.8923    3.5696 H   0  0  0  0  0  0  0  0  0  0  0  0
    6.5600    2.2891    3.9732 H   0  0  0  0  0  0  0  0  0  0  0  0
    5.9305    4.7290    4.0829 H   0  0  0  0  0  0  0  0  0  0  0  0
    4.2523    4.2948    3.8254 H   0  0  0  0  0  0  0  0  0  0  0  0
    4.2547    2.8996    5.8656 H   0  0  0  0  0  0  0  0  0  0  0  0
    5.9482    3.2542    6.1318 H   0  0  0  0  0  0  0  0  0  0  0  0
    5.4204    5.6751    6.3806 H   0  0  0  0  0  0  0  0  0  0  0  0
    3.7242    5.3452    6.0816 H   0  0  0  0  0  0  0  0  0  0  0  0
    5.3240    4.1677    8.4023 H   0  0  0  0  0  0  0  0  0  0  0  0
    3.6142    3.9258    8.1151 H   0  0  0  0  0  0  0  0  0  0  0  0
    3.2385    6.3993    8.3734 H   0  0  0  0  0  0  0  0  0  0  0  0
    4.9467    6.6129    8.6913 H   0  0  0  0  0  0  0  0  0  0  0  0
    4.7496    5.1095   10.6937 H   0  0  0  0  0  0  0  0  0  0  0  0
    3.0373    4.9273   10.3788 H   0  0  0  0  0  0  0  0  0  0  0  0
    4.4405    7.5694   10.9962 H   0  0  0  0  0  0  0  0  0  0  0  0
    2.7299    7.4007   10.6644 H   0  0  0  0  0  0  0  0  0  0  0  0
    2.4859    5.9085   12.6564 H   0  0  0  0  0  0  0  0  0  0  0  0
    4.1971    6.0680   12.9887 H   0  0  0  0  0  0  0  0  0  0  0  0
    2.2027    8.3810   12.9524 H   0  0  0  0  0  0  0  0  0  0  0  0
    3.9123    8.5327   13.2965 H   0  0  0  0  0  0  0  0  0  0  0  0
    1.9340    6.8806   14.9378 H   0  0  0  0  0  0  0  0  0  0  0  0
    3.6432    7.0322   15.2840 H   0  0  0  0  0  0  0  0  0  0  0  0
    3.3651    9.4986   15.5925 H   0  0  0  0  0  0  0  0  0  0  0  0
    1.6576    9.3526   15.2363 H   0  0  0  0  0  0  0  0  0  0  0  0
    1.3722    7.8486   17.2180 H   0  0  0  0  0  0  0  0  0  0  0  0
    3.0787    7.9996   17.5772 H   0  0  0  0  0  0  0  0  0  0  0  0
    1.0922   10.3191   17.5159 H   0  0  0  0  0  0  0  0  0  0  0  0
    2.7973   10.4672   17.8827 H   0  0  0  0  0  0  0  0  0  0  0  0
    0.7990    8.8114   19.4966 H   0  0  0  0  0  0  0  0  0  0  0  0
    2.5020    8.9723   19.8677 H   0  0  0  0  0  0  0  0  0  0  0  0
    0.4991   11.2759   19.7950 H   0  0  0  0  0  0  0  0  0  0  0  0
    2.2003   11.4399   20.1637 H   0  0  0  0  0  0  0  0  0  0  0  0
    0.2092    9.7784   21.8041 H   0  0  0  0  0  0  0  0  0  0  0  0
    1.9163    9.9786   22.1866 H   0  0  0  0  0  0  0  0  0  0  0  0
    0.8301   11.3622   22.2590 H   0  0  0  0  0  0  0  0  0  0  0  0
    4.6437    4.5225    1.6184 H   0  0  0  0  0  0  0  0  0  0  0  0
    3.2788    2.5834    2.2814 H   0  0  0  0  0  0  0  0  0  0  0  0
    3.7714    1.6984    0.8386 H   0  0  0  0  0  0  0  0  0  0  0  0
    1.1857    1.9358    0.8785 H   0  0  0  0  0  0  0  0  0  0  0  0
   -0.6339    3.2098   -0.0709 H   0  0  0  0  0  0  0  0  0  0  0  0
    0.5985    2.1801   -1.6536 H   0  0  0  0  0  0  0  0  0  0  0  0
    1.3873    5.4417   -0.5348 H   0  0  0  0  0  0  0  0  0  0  0  0
   -0.5684    6.4934   -1.2038 H   0  0  0  0  0  0  0  0  0  0  0  0
   -1.0157    5.2508    1.3252 H   0  0  0  0  0  0  0  0  0  0  0  0
   -0.5436    7.3435    1.6966 H   0  0  0  0  0  0  0  0  0  0  0  0
    1.9705    5.3176    1.9703 H   0  0  0  0  0  0  0  0  0  0  0  0
   -0.4578    4.9119    3.7651 H   0  0  0  0  0  0  0  0  0  0  0  0
    0.5281    6.3719    3.6821 H   0  0  0  0  0  0  0  0  0  0  0  0
    1.5117    3.8480    4.4504 H   0  0  0  0  0  0  0  0  0  0  0  0
    5.1619    2.9616   -0.8112 H   0  0  0  0  0  0  0  0  0  0  0  0
    4.8351    5.1894   -2.6596 H   0  0  0  0  0  0  0  0  0  0  0  0
    6.0351    3.9228   -2.5524 H   0  0  0  0  0  0  0  0  0  0  0  0
    7.8202    5.6609   -2.1970 H   0  0  0  0  0  0  0  0  0  0  0  0
    6.6083    6.9191   -2.3288 H   0  0  0  0  0  0  0  0  0  0  0  0
    7.2792    4.8979   -4.5193 H   0  0  0  0  0  0  0  0  0  0  0  0
    6.0717    6.1591   -4.6511 H   0  0  0  0  0  0  0  0  0  0  0  0
    7.8463    7.8929   -4.3252 H   0  0  0  0  0  0  0  0  0  0  0  0
    9.0531    6.6329   -4.1814 H   0  0  0  0  0  0  0  0  0  0  0  0
    7.3287    7.1306   -6.6533 H   0  0  0  0  0  0  0  0  0  0  0  0
    8.5307    5.8660   -6.5065 H   0  0  0  0  0  0  0  0  0  0  0  0
   10.3073    7.5975   -6.1601 H   0  0  0  0  0  0  0  0  0  0  0  0
    9.1056    8.8603   -6.3187 H   0  0  0  0  0  0  0  0  0  0  0  0
    8.6060    8.0914   -8.6486 H   0  0  0  0  0  0  0  0  0  0  0  0
    9.8035    6.8244   -8.4875 H   0  0  0  0  0  0  0  0  0  0  0  0
   11.5817    8.5527   -8.1321 H   0  0  0  0  0  0  0  0  0  0  0  0
   10.3843    9.8179   -8.3040 H   0  0  0  0  0  0  0  0  0  0  0  0
    9.9014    9.0434  -10.6354 H   0  0  0  0  0  0  0  0  0  0  0  0
   11.0948    7.7743  -10.4614 H   0  0  0  0  0  0  0  0  0  0  0  0
   12.8742    9.4994  -10.0979 H   0  0  0  0  0  0  0  0  0  0  0  0
   11.6810   10.7670  -10.2812 H   0  0  0  0  0  0  0  0  0  0  0  0
   11.2125    9.9875  -12.6139 H   0  0  0  0  0  0  0  0  0  0  0  0
   12.4026    8.7170  -12.4288 H   0  0  0  0  0  0  0  0  0  0  0  0
   12.9929   11.7090  -12.2508 H   0  0  0  0  0  0  0  0  0  0  0  0
   14.1828   10.4396  -12.0582 H   0  0  0  0  0  0  0  0  0  0  0  0
   12.5365   10.9260  -14.5846 H   0  0  0  0  0  0  0  0  0  0  0  0
   13.7239    9.6543  -14.3906 H   0  0  0  0  0  0  0  0  0  0  0  0
   14.3172   12.6458  -14.2135 H   0  0  0  0  0  0  0  0  0  0  0  0
   15.5044   11.3751  -14.0139 H   0  0  0  0  0  0  0  0  0  0  0  0
   13.8706   11.8606  -16.5485 H   0  0  0  0  0  0  0  0  0  0  0  0
   15.0560   10.5881  -16.3478 H   0  0  0  0  0  0  0  0  0  0  0  0
   16.8366   12.3074  -15.9657 H   0  0  0  0  0  0  0  0  0  0  0  0
   15.6514   13.5792  -16.1704 H   0  0  0  0  0  0  0  0  0  0  0  0
   15.2123   12.7933  -18.5063 H   0  0  0  0  0  0  0  0  0  0  0  0
   16.3960   11.5199  -18.3011 H   0  0  0  0  0  0  0  0  0  0  0  0
   16.9939   14.5104  -18.1218 H   0  0  0  0  0  0  0  0  0  0  0  0
   18.1772   13.2371  -17.9150 H   0  0  0  0  0  0  0  0  0  0  0  0
   17.7405   12.4513  -20.2519 H   0  0  0  0  0  0  0  0  0  0  0  0
   16.5590   13.7263  -20.4588 H   0  0  0  0  0  0  0  0  0  0  0  0
   19.5238   14.1648  -19.8632 H   0  0  0  0  0  0  0  0  0  0  0  0
   18.3429   15.4406  -20.0687 H   0  0  0  0  0  0  0  0  0  0  0  0
   19.0860   13.3834  -22.2023 H   0  0  0  0  0  0  0  0  0  0  0  0
   17.9078   14.6617  -22.4074 H   0  0  0  0  0  0  0  0  0  0  0  0
   20.8727   15.0887  -21.8136 H   0  0  0  0  0  0  0  0  0  0  0  0
   19.6977   16.3687  -22.0137 H   0  0  0  0  0  0  0  0  0  0  0  0
   20.9705   16.0142  -24.1307 H   0  0  0  0  0  0  0  0  0  0  0  0
   20.4599   14.3291  -24.1748 H   0  0  0  0  0  0  0  0  0  0  0  0
   19.2736   15.6133  -24.3784 H   0  0  0  0  0  0  0  0  0  0  0  0
  1  2  1  0
  1 60  1  0
  2  3  1  0
  2 20  1  0
  2 61  1  1
  3  4  1  0
  3 62  1  0
  3 63  1  0
  4  5  1  0
  4 64  1  0
  4 65  1  0
  5  6  1  0
  5 66  1  0
  5 67  1  0
  6  7  1  0
  6 68  1  0
  6 69  1  0
  7  8  1  0
  7 70  1  0
  7 71  1  0
  8  9  1  0
  8 72  1  0
  8 73  1  0
  9 10  1  0
  9 74  1  0
  9 75  1  0
 10 11  1  0
 10 76  1  0
 10 77  1  0
 11 12  1  0
 11 78  1  0
 11 79  1  0
 12 13  1  0
 12 80  1  0
 12 81  1  0
 13 14  1  0
 13 82  1  0
 13 83  1  0
 14 15  1  0
 14 84  1  0
 14 85  1  0
 15 16  1  0
 15 86  1  0
 15 87  1  0
 16 17  1  0
 16 88  1  0
 16 89  1  0
 17 18  1  0
 17 90  1  0
 17 91  1  0
 18 19  1  0
 18 92  1  0
 18 93  1  0
 19 94  1  0
 19 95  1  0
 19 96  1  0
 20 21  1  0
 20 34  1  0
 20 97  1  1
 21 22  1  0
 21 98  1  0
 21 99  1  0
 22 23  1  0
 23 24  1  0
 23 33  1  0
 23100  1  1
 24 25  1  0
 24 26  1  0
 24101  1  1
 25102  1  0
 26 27  1  0
 26 28  1  0
 26103  1  6
 27104  1  0
 28 29  1  0
 28 30  1  0
 28105  1  1
 29106  1  0
 30 31  1  0
 30 33  1  0
 30107  1  6
 31 32  1  0
 31108  1  0
 31109  1  0
 32110  1  0
 34 35  1  0
 34111  1  0
 35 36  2  0
 35 37  1  0
 37 38  1  0
 37112  1  0
 37113  1  0
 38 39  1  0
 38114  1  0
 38115  1  0
 39 40  1  0
 39116  1  0
 39117  1  0
 40 41  1  0
 40118  1  0
 40119  1  0
 41 42  1  0
 41120  1  0
 41121  1  0
 42 43  1  0
 42122  1  0
 42123  1  0
 43 44  1  0
 43124  1  0
 43125  1  0
 44 45  1  0
 44126  1  0
 44127  1  0
 45 46  1  0
 45128  1  0
 45129  1  0
 46 47  1  0
 46130  1  0
 46131  1  0
 47 48  1  0
 47132  1  0
 47133  1  0
 48 49  1  0
 48134  1  0
 48135  1  0
 49 50  1  0
 49136  1  0
 49137  1  0
 50 51  1  0
 50138  1  0
 50139  1  0
 51 52  1  0
 51140  1  0
 51141  1  0
 52 53  1  0
 52142  1  0
 52143  1  0
 53 54  1  0
 53144  1  0
 53145  1  0
 54 55  1  0
 54146  1  0
 54147  1  0
 55 56  1  0
 55148  1  0
 55149  1  0
 56 57  1  0
 56150  1  0
 56151  1  0
 57 58  1  0
 57152  1  0
 57153  1  0
 58 59  1  0
 58154  1  0
 58155  1  0
 59156  1  0
 59157  1  0
 59158  1  0
M  END
