
     RDKit          3D

 23 22  0  0  0  0  0  0  0  0999 V2000
    0.2772   -4.7818   -1.1938 C   0  0  0  0  0  0  0  0  0  0  0  0
   -0.6684   -4.1404   -0.0159 P   0  0  1  0  0  0  0  0  0  0  0  0
   -2.1070   -4.4255   -0.0513 O   0  0  0  0  0  0  0  0  0  0  0  0
   -0.1267   -4.8848    1.3195 O   0  0  0  0  0  0  0  0  0  0  0  0
   -0.3064   -2.5982    0.1213 N   0  0  0  0  0  0  0  0  0  0  0  0
   -1.3373   -1.6165    0.1875 C   0  0  2  0  0  0  0  0  0  0  0  0
   -2.0706   -1.4260   -1.1429 C   0  0  0  0  0  0  0  0  0  0  0  0
   -3.3472   -0.9794   -0.9906 O   0  0  0  0  0  0  0  0  0  0  0  0
   -1.6721   -1.6168   -2.2930 O   0  0  0  0  0  0  0  0  0  0  0  0
   -0.8543   -0.2163    0.6161 C   0  0  0  0  0  0  0  0  0  0  0  0
   -0.3006   -0.2183    2.0037 C   0  0  0  0  0  0  0  0  0  0  0  0
   -0.8574    0.0636    3.0660 O   0  0  0  0  0  0  0  0  0  0  0  0
    1.0102   -0.5895    2.0713 O   0  0  0  0  0  0  0  0  0  0  0  0
    0.4467   -4.1095   -2.0709 H   0  0  0  0  0  0  0  0  0  0  0  0
    1.2902   -5.0819   -0.8280 H   0  0  0  0  0  0  0  0  0  0  0  0
   -0.1850   -5.7123   -1.6121 H   0  0  0  0  0  0  0  0  0  0  0  0
   -0.6661   -4.7627    2.0968 H   0  0  0  0  0  0  0  0  0  0  0  0
    0.6123   -2.2294    0.1171 H   0  0  0  0  0  0  0  0  0  0  0  0
   -2.1237   -1.9845    0.9277 H   0  0  0  0  0  0  0  0  0  0  0  0
   -3.7639   -0.8765   -1.8627 H   0  0  0  0  0  0  0  0  0  0  0  0
   -1.7287    0.4868    0.5701 H   0  0  0  0  0  0  0  0  0  0  0  0
   -0.0623    0.1492   -0.0897 H   0  0  0  0  0  0  0  0  0  0  0  0
    1.3101   -0.5710    2.9957 H   0  0  0  0  0  0  0  0  0  0  0  0
  1  2  1  0
  1 14  1  0
  1 15  1  0
  1 16  1  0
  2  3  2  0
  2  5  1  0
  2  4  1  1
  4 17  1  0
  5  6  1  0
  5 18  1  0
  6  7  1  0
  6 10  1  0
  6 19  1  1
  7  9  2  0
  7  8  1  0
  8 20  1  0
 10 11  1  0
 10 21  1  0
 10 22  1  0
 11 12  2  0
 11 13  1  0
 13 23  1  0
M  END
