
     RDKit          3D

 35 37  0  0  0  0  0  0  0  0999 V2000
    1.4411    0.1948   -0.4744 C   0  0  0  0  0  0  0  0  0  0  0  0
    2.2488   -0.2595    0.5489 C   0  0  0  0  0  0  0  0  0  0  0  0
    3.2807   -1.2036    0.2594 C   0  0  0  0  0  0  0  0  0  0  0  0
    0.8819    1.0802    1.4326 C   0  0  0  0  0  0  0  0  0  0  0  0
    3.2863   -1.5001   -1.1070 N   0  0  0  0  0  0  0  0  0  0  0  0
    1.5168   -0.1223   -1.7818 N   0  0  0  0  0  0  0  0  0  0  0  0
   -2.7758   -2.8798    0.4044 O   0  0  0  0  0  0  0  0  0  0  0  0
   -1.6668   -1.7152    0.4047 P   0  0  1  0  0  0  0  0  0  0  0  0
   -0.4153   -1.9931    1.1419 O   0  0  0  0  0  0  0  0  0  0  0  0
   -1.3372   -1.3881   -1.1350 O   0  0  0  0  0  0  0  0  0  0  0  0
   -2.6928   -0.3443    1.0385 C   0  0  0  0  0  0  0  0  0  0  0  0
   -1.9038    1.6354   -0.0512 C   0  0  1  0  0  0  0  0  0  0  0  0
   -2.3738    3.0681    0.2129 C   0  0  0  0  0  0  0  0  0  0  0  0
   -1.5500    3.8525   -0.6862 N   0  0  0  0  0  0  0  0  0  0  0  0
   -0.2098    3.3394   -0.4936 C   0  0  0  0  0  0  0  0  0  0  0  0
   -0.4435    1.8276   -0.5822 C   0  0  1  0  0  0  0  0  0  0  0  0
    0.5620    1.0552    0.1037 N   0  0  0  0  0  0  0  0  0  0  0  0
    2.4544   -0.9733   -2.0352 C   0  0  0  0  0  0  0  0  0  0  0  0
    4.0779   -1.7215    1.0243 O   0  0  0  0  0  0  0  0  0  0  0  0
    1.8866    0.3110    1.7342 N   0  0  0  0  0  0  0  0  0  0  0  0
    0.3478    1.6990    2.1361 H   0  0  0  0  0  0  0  0  0  0  0  0
    3.9838   -2.1589   -1.4283 H   0  0  0  0  0  0  0  0  0  0  0  0
   -2.4123   -3.7747    0.3529 H   0  0  0  0  0  0  0  0  0  0  0  0
   -2.1033   -1.3128   -1.7187 H   0  0  0  0  0  0  0  0  0  0  0  0
   -3.6078   -0.2547    0.4401 H   0  0  0  0  0  0  0  0  0  0  0  0
   -3.0006   -0.6111    2.0522 H   0  0  0  0  0  0  0  0  0  0  0  0
   -2.5043    1.1901   -0.8495 H   0  0  0  0  0  0  0  0  0  0  0  0
   -3.4361    3.2030    0.0062 H   0  0  0  0  0  0  0  0  0  0  0  0
   -2.2036    3.3030    1.2749 H   0  0  0  0  0  0  0  0  0  0  0  0
   -1.6114    4.8428   -0.4930 H   0  0  0  0  0  0  0  0  0  0  0  0
    0.4777    3.6968   -1.2607 H   0  0  0  0  0  0  0  0  0  0  0  0
    0.2185    3.5965    0.4877 H   0  0  0  0  0  0  0  0  0  0  0  0
   -0.4069    1.5160   -1.6247 H   0  0  0  0  0  0  0  0  0  0  0  0
    2.6186   -1.3116   -3.0496 H   0  0  0  0  0  0  0  0  0  0  0  0
   -1.9880    0.8646    1.1195 O   0  0  0  0  0  0  0  0  0  0  0  0
 19  3  2  0
  5  3  1  0
  5 18  1  0
  3  2  1  0
 18  6  2  0
  2 20  1  0
  2  1  2  0
 20  4  2  0
  6  1  1  0
  1 17  1  0
  4 17  1  0
 17 16  1  0
 16 12  1  0
 16 15  1  0
 11 35  1  0
 11  8  1  0
 12 35  1  0
 12 13  1  0
  9  8  2  0
 15 14  1  0
  8  7  1  6
  8 10  1  0
 13 14  1  0
  4 21  1  0
  5 22  1  0
  7 23  1  0
 10 24  1  0
 11 25  1  0
 11 26  1  0
 12 27  1  6
 13 28  1  0
 13 29  1  0
 14 30  1  0
 15 31  1  0
 15 32  1  0
 16 33  1  6
 18 34  1  0
M  END
