
     RDKit          3D

 52 55  0  0  0  0  0  0  0  0999 V2000
    1.2424   -1.4083   -0.0799 C   0  0  0  0  0  0  0  0  0  0  0  0
    1.5624   -2.7553   -0.0614 C   0  0  0  0  0  0  0  0  0  0  0  0
    2.8532   -3.1654   -0.4116 C   0  0  0  0  0  0  0  0  0  0  0  0
    4.2427    1.2659   -1.2414 C   0  0  0  0  0  0  0  0  0  0  0  0
   -0.3936    1.2711    0.3478 C   0  0  0  0  0  0  0  0  0  0  0  0
   -2.8797    0.5148    1.3406 C   0  0  0  0  0  0  0  0  0  0  0  0
   -1.7655    0.5037    2.1692 C   0  0  0  0  0  0  0  0  0  0  0  0
   -0.5314    0.8815    1.6801 C   0  0  0  0  0  0  0  0  0  0  0  0
   -6.0374    0.7316   -1.5991 C   0  0  1  0  0  0  0  0  0  0  0  0
   -7.4078    0.2173   -1.1684 C   0  0  0  0  0  0  0  0  0  0  0  0
    3.8036   -2.2361   -0.7693 C   0  0  0  0  0  0  0  0  0  0  0  0
   -1.5065    1.2919   -0.4752 C   0  0  0  0  0  0  0  0  0  0  0  0
    3.5051   -0.8707   -0.7858 C   0  0  0  0  0  0  0  0  0  0  0  0
    2.2072   -0.4717   -0.4208 C   0  0  0  0  0  0  0  0  0  0  0  0
   -2.7590    0.9107    0.0106 C   0  0  0  0  0  0  0  0  0  0  0  0
    0.9064    1.6983   -0.1810 C   0  0  0  0  0  0  0  0  0  0  0  0
    2.9433    1.7644   -0.8825 C   0  0  0  0  0  0  0  0  0  0  0  0
    0.4636   -3.7054    0.3093 C   0  0  0  0  0  0  0  0  0  0  0  0
    5.2812    2.2350   -1.6847 C   0  0  0  0  0  0  0  0  0  0  0  0
   -6.1223    2.1812   -2.0650 C   0  0  0  0  0  0  0  0  0  0  0  0
   -0.1337   -5.9407    1.0619 C   0  0  0  0  0  0  0  0  0  0  0  0
   -5.0697    0.5653   -0.4411 C   0  0  0  0  0  0  0  0  0  0  0  0
    1.2233    2.9418   -0.4390 N   0  0  0  0  0  0  0  0  0  0  0  0
    2.4896    2.9903   -0.8736 N   0  0  0  0  0  0  0  0  0  0  0  0
    4.4936    0.0055   -1.1772 N   0  0  0  0  0  0  0  0  0  0  0  0
    1.9739    0.9008   -0.4596 N   0  0  0  0  0  0  0  0  0  0  0  0
    0.8322   -4.9379    0.6769 N   0  0  0  0  0  0  0  0  0  0  0  0
   -0.7072   -3.3499    0.2738 O   0  0  0  0  0  0  0  0  0  0  0  0
   -3.7702    0.9532   -0.8659 O   0  0  0  0  0  0  0  0  0  0  0  0
    0.8579    0.8542    2.7108 Cl  0  0  0  0  0  0  0  0  0  0  0  0
    0.2346   -1.1117    0.1667 H   0  0  0  0  0  0  0  0  0  0  0  0
    3.1238   -4.2123   -0.4387 H   0  0  0  0  0  0  0  0  0  0  0  0
   -3.8295    0.2108    1.7571 H   0  0  0  0  0  0  0  0  0  0  0  0
   -1.8733    0.1990    3.2011 H   0  0  0  0  0  0  0  0  0  0  0  0
   -5.6829    0.1115   -2.4299 H   0  0  0  0  0  0  0  0  0  0  0  0
   -7.7983    0.8000   -0.3311 H   0  0  0  0  0  0  0  0  0  0  0  0
   -8.1232    0.2963   -1.9868 H   0  0  0  0  0  0  0  0  0  0  0  0
   -7.3696   -0.8285   -0.8599 H   0  0  0  0  0  0  0  0  0  0  0  0
    4.7977   -2.5469   -1.0607 H   0  0  0  0  0  0  0  0  0  0  0  0
   -1.4024    1.5929   -1.5098 H   0  0  0  0  0  0  0  0  0  0  0  0
    6.2315    1.7286   -1.8314 H   0  0  0  0  0  0  0  0  0  0  0  0
    4.9841    2.7075   -2.6225 H   0  0  0  0  0  0  0  0  0  0  0  0
    5.4072    3.0322   -0.9518 H   0  0  0  0  0  0  0  0  0  0  0  0
   -6.4687    2.8275   -1.2544 H   0  0  0  0  0  0  0  0  0  0  0  0
   -5.1614    2.5620   -2.4101 H   0  0  0  0  0  0  0  0  0  0  0  0
   -6.8298    2.2797   -2.8896 H   0  0  0  0  0  0  0  0  0  0  0  0
    0.3899   -6.8803    1.2102 H   0  0  0  0  0  0  0  0  0  0  0  0
   -0.6452   -5.6796    1.9896 H   0  0  0  0  0  0  0  0  0  0  0  0
   -0.8842   -6.0828    0.2853 H   0  0  0  0  0  0  0  0  0  0  0  0
   -5.3926    1.1853    0.4052 H   0  0  0  0  0  0  0  0  0  0  0  0
   -5.0556   -0.4775   -0.1035 H   0  0  0  0  0  0  0  0  0  0  0  0
    1.8048   -5.1596    0.8011 H   0  0  0  0  0  0  0  0  0  0  0  0
 29 22  1  0
 29 15  1  0
  9 22  1  0
  9 20  1  0
  9 10  1  0
  6 15  2  0
  6  7  1  0
 15 12  1  0
  7  8  2  0
 12  5  2  0
  8  5  1  0
  8 30  1  0
 28 18  2  0
  5 16  1  0
 21 27  1  0
 18 27  1  0
 18  2  1  0
 16 23  2  0
 16 26  1  0
  1  2  2  0
  1 14  1  0
 23 24  1  0
  2  3  1  0
 26 14  1  0
 26 17  1  0
 14 13  2  0
  3 11  2  0
 24 17  2  0
 17  4  1  0
 13 11  1  0
 13 25  1  0
  4 25  2  0
  4 19  1  0
  1 31  1  0
  3 32  1  0
  6 33  1  0
  7 34  1  0
  9 35  1  6
 10 36  1  0
 10 37  1  0
 10 38  1  0
 11 39  1  0
 12 40  1  0
 19 41  1  0
 19 42  1  0
 19 43  1  0
 20 44  1  0
 20 45  1  0
 20 46  1  0
 21 47  1  0
 21 48  1  0
 21 49  1  0
 22 50  1  0
 22 51  1  0
 27 52  1  0
M  END
