
     RDKit          3D

 24 25  0  0  0  0  0  0  0  0999 V2000
    0.9534    0.4473   -0.0772 C   0  0  0  0  0  0  0  0  0  0  0  0
    3.6720    0.2707   -0.0903 C   0  0  0  0  0  0  0  0  0  0  0  0
    1.7720    1.1213    0.8243 C   0  0  0  0  0  0  0  0  0  0  0  0
   -2.3672    2.1870   -0.2339 C   0  0  0  0  0  0  0  0  0  0  0  0
   -1.0039    1.9349   -0.1968 C   0  0  0  0  0  0  0  0  0  0  0  0
   -0.5117    0.6407   -0.0470 C   0  0  0  0  0  0  0  0  0  0  0  0
   -1.4263   -0.4169    0.0652 C   0  0  0  0  0  0  0  0  0  0  0  0
   -2.7952   -0.1588    0.0044 C   0  0  0  0  0  0  0  0  0  0  0  0
   -3.2666    1.1362   -0.1386 C   0  0  0  0  0  0  0  0  0  0  0  0
   -0.9598   -1.7997    0.3559 C   0  0  0  0  0  0  0  0  0  0  0  0
    0.0379   -2.0610    0.9800 O   0  0  0  0  0  0  0  0  0  0  0  0
   -1.7822   -2.7225   -0.1259 O   0  0  0  0  0  0  0  0  0  0  0  0
    1.5738   -0.3470   -1.0355 C   0  0  0  0  0  0  0  0  0  0  0  0
    2.9544   -0.4388   -1.0430 C   0  0  0  0  0  0  0  0  0  0  0  0
    3.0958    1.0377    0.8267 N   0  0  0  0  0  0  0  0  0  0  0  0
    4.7549    0.2193   -0.0711 H   0  0  0  0  0  0  0  0  0  0  0  0
    1.3254    1.7521    1.5867 H   0  0  0  0  0  0  0  0  0  0  0  0
   -0.3052    2.7547   -0.3047 H   0  0  0  0  0  0  0  0  0  0  0  0
   -3.5055   -0.9688    0.0946 H   0  0  0  0  0  0  0  0  0  0  0  0
   -4.3319    1.3203   -0.1713 H   0  0  0  0  0  0  0  0  0  0  0  0
   -1.4768   -3.6046    0.1347 H   0  0  0  0  0  0  0  0  0  0  0  0
    0.9858   -0.8737   -1.7773 H   0  0  0  0  0  0  0  0  0  0  0  0
    3.4704   -1.0415   -1.7776 H   0  0  0  0  0  0  0  0  0  0  0  0
   -2.7225    3.2026   -0.3489 H   0  0  0  0  0  0  0  0  0  0  0  0
  9  8  1  0
  9  4  2  0
  8  7  2  0
 11 10  2  0
  4  5  1  0
  7 10  1  0
  7  6  1  0
 10 12  1  0
  5  6  2  0
  6  1  1  0
  1  3  2  0
  1 13  1  0
  3 15  1  0
 13 14  2  0
 15  2  2  0
 14  2  1  0
  2 16  1  0
  3 17  1  0
  4 24  1  0
  5 18  1  0
  8 19  1  0
  9 20  1  0
 12 21  1  0
 13 22  1  0
 14 23  1  0
M  END
