
     RDKit          3D

 47 50  0  0  0  0  0  0  0  0999 V2000
    7.3441    0.1899   -0.9427 C   0  0  0  0  0  0  0  0  0  0  0  0
    6.6624   -1.1193   -0.5711 C   0  0  2  0  0  0  0  0  0  0  0  0
    5.3942   -1.2595   -1.1993 O   0  0  0  0  0  0  0  0  0  0  0  0
    4.4122   -0.4743   -0.6922 C   0  0  0  0  0  0  0  0  0  0  0  0
    3.4075    0.0173   -1.5088 C   0  0  0  0  0  0  0  0  0  0  0  0
    2.3827    0.7746   -0.9613 C   0  0  0  0  0  0  0  0  0  0  0  0
    2.3582    1.0632    0.4009 C   0  0  0  0  0  0  0  0  0  0  0  0
    1.2694    1.9309    0.9780 C   0  0  0  0  0  0  0  0  0  0  0  0
   -0.0469    1.5264    0.5360 N   0  0  0  0  0  0  0  0  0  0  0  0
   -1.0634    2.5195    0.8193 C   0  0  0  0  0  0  0  0  0  0  0  0
   -2.3479    2.1782    0.0835 C   0  0  0  0  0  0  0  0  0  0  0  0
   -2.7426    0.7448    0.3156 C   0  0  0  0  0  0  0  0  0  0  0  0
   -1.8383   -0.1225    0.7766 C   0  0  0  0  0  0  0  0  0  0  0  0
   -0.4175    0.2321    1.0664 C   0  0  0  0  0  0  0  0  0  0  0  0
   -4.1292    0.3431    0.0096 C   0  0  0  0  0  0  0  0  0  0  0  0
   -4.8602    1.0110   -0.9754 C   0  0  0  0  0  0  0  0  0  0  0  0
   -6.1573    0.6383   -1.2945 C   0  0  0  0  0  0  0  0  0  0  0  0
   -6.7451   -0.4139   -0.6128 C   0  0  0  0  0  0  0  0  0  0  0  0
   -8.3683   -0.8864   -0.9986 Cl  0  0  0  0  0  0  0  0  0  0  0  0
   -6.0543   -1.0884    0.3829 C   0  0  0  0  0  0  0  0  0  0  0  0
   -4.7595   -0.7040    0.6875 C   0  0  0  0  0  0  0  0  0  0  0  0
    3.3714    0.5677    1.2113 C   0  0  0  0  0  0  0  0  0  0  0  0
    4.3946   -0.1999    0.6714 C   0  0  0  0  0  0  0  0  0  0  0  0
    5.4070   -0.7473    1.4590 N   0  0  0  0  0  0  0  0  0  0  0  0
    6.5518   -1.2448    0.9412 C   0  0  0  0  0  0  0  0  0  0  0  0
    7.4486   -1.7093    1.6185 O   0  0  0  0  0  0  0  0  0  0  0  0
    8.3512    0.2164   -0.5281 H   0  0  0  0  0  0  0  0  0  0  0  0
    7.4254    0.2721   -2.0261 H   0  0  0  0  0  0  0  0  0  0  0  0
    6.8009    1.0590   -0.5689 H   0  0  0  0  0  0  0  0  0  0  0  0
    7.2575   -1.9588   -0.9303 H   0  0  0  0  0  0  0  0  0  0  0  0
    3.4261   -0.2038   -2.5685 H   0  0  0  0  0  0  0  0  0  0  0  0
    1.5924    1.1482   -1.5995 H   0  0  0  0  0  0  0  0  0  0  0  0
    1.3553    1.9406    2.0777 H   0  0  0  0  0  0  0  0  0  0  0  0
    1.4292    2.9622    0.6495 H   0  0  0  0  0  0  0  0  0  0  0  0
   -1.2667    2.6055    1.9000 H   0  0  0  0  0  0  0  0  0  0  0  0
   -0.7029    3.4953    0.4881 H   0  0  0  0  0  0  0  0  0  0  0  0
   -3.1444    2.8469    0.4213 H   0  0  0  0  0  0  0  0  0  0  0  0
   -2.2200    2.3691   -0.9869 H   0  0  0  0  0  0  0  0  0  0  0  0
   -2.1029   -1.1598    0.9505 H   0  0  0  0  0  0  0  0  0  0  0  0
    0.2308   -0.5360    0.6345 H   0  0  0  0  0  0  0  0  0  0  0  0
   -0.2566    0.1733    2.1603 H   0  0  0  0  0  0  0  0  0  0  0  0
   -4.4150    1.8318   -1.5226 H   0  0  0  0  0  0  0  0  0  0  0  0
   -6.6997    1.1656   -2.0677 H   0  0  0  0  0  0  0  0  0  0  0  0
   -6.5231   -1.8979    0.9260 H   0  0  0  0  0  0  0  0  0  0  0  0
   -4.2422   -1.2217    1.4848 H   0  0  0  0  0  0  0  0  0  0  0  0
    3.3662    0.7724    2.2762 H   0  0  0  0  0  0  0  0  0  0  0  0
    5.3052   -0.7320    2.4649 H   0  0  0  0  0  0  0  0  0  0  0  0
 19 18  1  0
 17 18  1  0
 17 16  2  0
 18 20  2  0
 16 15  1  0
 20 21  1  0
 15 21  2  0
 15 12  1  0
 11 12  1  0
 11 10  1  0
 12 13  2  0
 10  9  1  0
  5  6  2  0
  5  4  1  0
  6  7  1  0
 13 14  1  0
  3  4  1  0
  3  2  1  0
  4 23  2  0
  9 14  1  0
  9  8  1  0
  2  1  1  0
  2 25  1  0
  7  8  1  0
  7 22  2  0
 23 22  1  0
 23 24  1  0
 25 24  1  0
 25 26  2  0
  1 27  1  0
  1 28  1  0
  1 29  1  0
  2 30  1  6
  5 31  1  0
  6 32  1  0
  8 33  1  0
  8 34  1  0
 10 35  1  0
 10 36  1  0
 11 37  1  0
 11 38  1  0
 13 39  1  0
 14 40  1  0
 14 41  1  0
 16 42  1  0
 17 43  1  0
 20 44  1  0
 21 45  1  0
 22 46  1  0
 24 47  1  0
M  END
