
     RDKit          3D

 37 36  0  0  0  0  0  0  0  0999 V2000
   -7.9986    0.5714   -0.2063 C   0  0  0  0  0  0  0  0  0  0  0  0
    5.6274   -0.4287   -0.1994 C   0  0  0  0  0  0  0  0  0  0  0  0
   -6.7723   -0.3073   -0.0030 C   0  0  0  0  0  0  0  0  0  0  0  0
   -5.4634    0.4616   -0.1358 C   0  0  0  0  0  0  0  0  0  0  0  0
   -4.2314   -0.4112    0.0646 C   0  0  0  0  0  0  0  0  0  0  0  0
   -2.9205    0.3514   -0.0793 C   0  0  0  0  0  0  0  0  0  0  0  0
   -1.7009   -0.5345    0.1397 C   0  0  0  0  0  0  0  0  0  0  0  0
   -0.3973    0.2313   -0.0187 C   0  0  0  0  0  0  0  0  0  0  0  0
    3.1825   -0.6259    0.1344 C   0  0  0  0  0  0  0  0  0  0  0  0
    0.8256   -0.6117    0.2215 C   0  0  0  0  0  0  0  0  0  0  0  0
    4.2967    0.2965   -0.3299 C   0  0  1  0  0  0  0  0  0  0  0  0
    0.8194   -1.7439    0.6370 O   0  0  0  0  0  0  0  0  0  0  0  0
    4.2835    1.5302    0.3443 O   0  0  0  0  0  0  0  0  0  0  0  0
    1.9417    0.0485   -0.0709 O   0  0  0  0  0  0  0  0  0  0  0  0
   -8.9228   -0.0013   -0.1196 H   0  0  0  0  0  0  0  0  0  0  0  0
   -8.0372    1.3749    0.5318 H   0  0  0  0  0  0  0  0  0  0  0  0
   -7.9908    1.0353   -1.1947 H   0  0  0  0  0  0  0  0  0  0  0  0
    5.8078   -0.6625    0.8605 H   0  0  0  0  0  0  0  0  0  0  0  0
    5.5580   -1.3889   -0.7271 H   0  0  0  0  0  0  0  0  0  0  0  0
   -6.8163   -0.7779    0.9842 H   0  0  0  0  0  0  0  0  0  0  0  0
   -6.7851   -1.1264   -0.7288 H   0  0  0  0  0  0  0  0  0  0  0  0
   -5.4206    0.9332   -1.1241 H   0  0  0  0  0  0  0  0  0  0  0  0
   -5.4506    1.2818    0.5910 H   0  0  0  0  0  0  0  0  0  0  0  0
   -4.2726   -0.8756    1.0561 H   0  0  0  0  0  0  0  0  0  0  0  0
   -4.2499   -1.2360   -0.6565 H   0  0  0  0  0  0  0  0  0  0  0  0
   -2.8726    0.8063   -1.0747 H   0  0  0  0  0  0  0  0  0  0  0  0
   -2.9029    1.1817    0.6353 H   0  0  0  0  0  0  0  0  0  0  0  0
   -1.7500   -0.9770    1.1380 H   0  0  0  0  0  0  0  0  0  0  0  0
   -1.7257   -1.3677   -0.5683 H   0  0  0  0  0  0  0  0  0  0  0  0
   -0.3274    0.6776   -1.0150 H   0  0  0  0  0  0  0  0  0  0  0  0
   -0.3621    1.0731    0.6818 H   0  0  0  0  0  0  0  0  0  0  0  0
    3.2061   -1.5573   -0.4360 H   0  0  0  0  0  0  0  0  0  0  0  0
    3.3041   -0.8751    1.1939 H   0  0  0  0  0  0  0  0  0  0  0  0
    4.1344    0.5313   -1.3872 H   0  0  0  0  0  0  0  0  0  0  0  0
    7.4777   -0.0795   -0.6319 H   0  0  0  0  0  0  0  0  0  0  0  0
    4.4837    1.3769    1.2746 H   0  0  0  0  0  0  0  0  0  0  0  0
    6.6426    0.3863   -0.7302 O   0  0  0  0  0  0  0  0  0  0  0  0
  4  3  1  0
  4  5  1  0
  3  1  1  0
  5  6  1  0
  6  7  1  0
  7  8  1  0
  8 10  1  0
 12 10  2  0
 10 14  1  0
 14  9  1  0
  9 11  1  0
  2 11  1  0
  2 37  1  0
 11 13  1  0
  1 15  1  0
  1 16  1  0
  1 17  1  0
  2 18  1  0
  2 19  1  0
  3 20  1  0
  3 21  1  0
  4 22  1  0
  4 23  1  0
  5 24  1  0
  5 25  1  0
  6 26  1  0
  6 27  1  0
  7 28  1  0
  7 29  1  0
  8 30  1  0
  8 31  1  0
  9 32  1  0
  9 33  1  0
 11 34  1  6
 37 35  1  0
 13 36  1  0
M  END
