
     RDKit          3D

 26 26  0  0  0  0  0  0  0  0999 V2000
    1.8196   -1.5056   -0.0323 O   0  0  0  0  0  0  0  0  0  0  0  0
    1.6876   -0.2954   -0.0282 C   0  0  0  0  0  0  0  0  0  0  0  0
    2.8304    0.6866   -0.0336 C   0  0  0  0  0  0  0  0  0  0  0  0
    4.2030    0.0319   -0.0320 C   0  0  0  0  0  0  0  0  0  0  0  0
    5.3155    1.0704   -0.0374 C   0  0  0  0  0  0  0  0  0  0  0  0
    0.4521    0.2776   -0.0179 N   0  0  0  0  0  0  0  0  0  0  0  0
   -0.7331   -0.4096   -0.0138 C   0  0  0  0  0  0  0  0  0  0  0  0
   -1.9926    0.1586   -0.0004 C   0  0  0  0  0  0  0  0  0  0  0  0
   -2.1939    1.6183    0.0131 C   0  0  0  0  0  0  0  0  0  0  0  0
   -3.4589    2.0580    0.0397 N   0  0  0  0  0  0  0  0  0  0  0  0
   -1.2401    2.4018   -0.0003 O   0  0  0  0  0  0  0  0  0  0  0  0
   -0.8018   -2.1320   -0.0243 S   0  0  0  0  0  0  0  0  0  0  0  0
   -2.5257   -2.1014   -0.0127 C   0  0  0  0  0  0  0  0  0  0  0  0
   -3.0147   -0.8412   -0.0007 C   0  0  0  0  0  0  0  0  0  0  0  0
    2.7198    1.3374   -0.9080 H   0  0  0  0  0  0  0  0  0  0  0  0
    2.7219    1.3454    0.8349 H   0  0  0  0  0  0  0  0  0  0  0  0
    4.3031   -0.6102    0.8455 H   0  0  0  0  0  0  0  0  0  0  0  0
    4.3022   -0.6187   -0.9032 H   0  0  0  0  0  0  0  0  0  0  0  0
    5.2595    1.7064   -0.9224 H   0  0  0  0  0  0  0  0  0  0  0  0
    5.2575    1.7175    0.8393 H   0  0  0  0  0  0  0  0  0  0  0  0
    6.2963    0.5949   -0.0336 H   0  0  0  0  0  0  0  0  0  0  0  0
    0.3426    1.2885   -0.0163 H   0  0  0  0  0  0  0  0  0  0  0  0
   -4.2578    1.4502    0.0694 H   0  0  0  0  0  0  0  0  0  0  0  0
   -3.6385    3.0486    0.0587 H   0  0  0  0  0  0  0  0  0  0  0  0
   -3.0799   -3.0268   -0.0155 H   0  0  0  0  0  0  0  0  0  0  0  0
   -4.0760   -0.6383    0.0065 H   0  0  0  0  0  0  0  0  0  0  0  0
  5  4  1  0
 11  9  2  0
  3  4  1  0
  3  2  1  0
 10  9  1  0
  9  8  1  0
  6  2  1  0
  6  7  1  0
  2  1  2  0
  8  7  2  0
  8 14  1  0
  7 12  1  0
 14 13  2  0
 12 13  1  0
  3 15  1  0
  3 16  1  0
  4 17  1  0
  4 18  1  0
  5 19  1  0
  5 20  1  0
  5 21  1  0
  6 22  1  0
 10 23  1  0
 10 24  1  0
 13 25  1  0
 14 26  1  0
M  END
