
     RDKit          3D

 63 64  0  0  0  0  0  0  0  0999 V2000
    1.6905   -0.4255   -0.0487 C   0  0  1  0  0  0  0  0  0  0  0  0
    3.0030   -1.1888    0.0011 C   0  0  0  0  0  0  0  0  0  0  0  0
    0.7776   -1.0968   -1.0709 C   0  0  0  0  0  0  0  0  0  0  0  0
    0.7432    0.3162   -3.4471 C   0  0  0  0  0  0  0  0  0  0  0  0
    0.3915    1.5060   -2.8775 C   0  0  0  0  0  0  0  0  0  0  0  0
   -0.2190    2.3931   -3.8056 C   0  0  0  0  0  0  0  0  0  0  0  0
   -0.3087    1.8739   -5.0593 C   0  0  0  0  0  0  0  0  0  0  0  0
    1.0201   -0.3931    1.3387 C   0  0  1  0  0  0  0  0  0  0  0  0
    1.8961    0.2457    2.4365 C   0  0  0  0  0  0  0  0  0  0  0  0
    2.7742   -0.7158    3.2450 C   0  0  1  0  0  0  0  0  0  0  0  0
    3.7036    0.0917    4.1457 C   0  0  0  0  0  0  0  0  0  0  0  0
    1.9299   -1.6797    4.0721 C   0  0  0  0  0  0  0  0  0  0  0  0
   -0.2538    0.4271    1.2225 C   0  0  0  0  0  0  0  0  0  0  0  0
   -2.6938    0.3817    1.5217 C   0  0  2  0  0  0  0  0  0  0  0  0
   -3.2857    0.8564    2.8495 C   0  0  0  0  0  0  0  0  0  0  0  0
   -2.9277    1.1997    5.2332 C   0  0  0  0  0  0  0  0  0  0  0  0
   -3.6504   -0.5949    0.8243 C   0  0  0  0  0  0  0  0  0  0  0  0
   -3.1330   -1.0158   -0.5236 C   0  0  0  0  0  0  0  0  0  0  0  0
   -2.7002   -2.3186   -0.7508 C   0  0  0  0  0  0  0  0  0  0  0  0
   -2.2034   -2.6977   -1.9924 C   0  0  0  0  0  0  0  0  0  0  0  0
   -2.1205   -1.7722   -3.0220 C   0  0  0  0  0  0  0  0  0  0  0  0
   -2.5433   -0.4665   -2.8051 C   0  0  0  0  0  0  0  0  0  0  0  0
   -3.0493   -0.0956   -1.5681 C   0  0  0  0  0  0  0  0  0  0  0  0
    4.0859   -0.4051   -0.1068 N   0  0  0  0  0  0  0  0  0  0  0  0
   -1.3771   -0.1947    1.6389 N   0  0  0  0  0  0  0  0  0  0  0  0
    3.0515   -2.4016    0.1088 O   0  0  0  0  0  0  0  0  0  0  0  0
    5.3301   -0.9216    0.0728 O   0  0  0  0  0  0  0  0  0  0  0  0
   -0.2396    1.5782    0.8176 O   0  0  0  0  0  0  0  0  0  0  0  0
   -4.4216    1.3109    2.8847 O   0  0  0  0  0  0  0  0  0  0  0  0
    1.4779   -1.1084   -2.7482 S   0  0  0  0  0  0  0  0  0  0  0  0
    0.3200    0.2783   -5.1196 S   0  0  0  0  0  0  0  0  0  0  0  0
    1.8788    0.6097   -0.3477 H   0  0  0  0  0  0  0  0  0  0  0  0
    0.6120   -2.1410   -0.8045 H   0  0  0  0  0  0  0  0  0  0  0  0
   -0.1990   -0.6184   -1.1340 H   0  0  0  0  0  0  0  0  0  0  0  0
    0.5391    1.7465   -1.8341 H   0  0  0  0  0  0  0  0  0  0  0  0
   -0.5629    3.3842   -3.5462 H   0  0  0  0  0  0  0  0  0  0  0  0
   -0.6976    2.3398   -5.9514 H   0  0  0  0  0  0  0  0  0  0  0  0
    0.7669   -1.4207    1.6187 H   0  0  0  0  0  0  0  0  0  0  0  0
    2.5131    1.0287    1.9863 H   0  0  0  0  0  0  0  0  0  0  0  0
    1.2536    0.7670    3.1556 H   0  0  0  0  0  0  0  0  0  0  0  0
    3.3984   -1.3055    2.5686 H   0  0  0  0  0  0  0  0  0  0  0  0
    4.3406   -0.5630    4.7417 H   0  0  0  0  0  0  0  0  0  0  0  0
    4.3532    0.7473    3.5631 H   0  0  0  0  0  0  0  0  0  0  0  0
    3.1330    0.7177    4.8365 H   0  0  0  0  0  0  0  0  0  0  0  0
    1.2776   -1.1343    4.7597 H   0  0  0  0  0  0  0  0  0  0  0  0
    1.2989   -2.3157    3.4500 H   0  0  0  0  0  0  0  0  0  0  0  0
    2.5624   -2.3393    4.6674 H   0  0  0  0  0  0  0  0  0  0  0  0
   -2.6022    1.2781    0.9038 H   0  0  0  0  0  0  0  0  0  0  0  0
   -2.1006    1.0711    5.9248 H   0  0  0  0  0  0  0  0  0  0  0  0
   -3.2127    2.2515    5.2289 H   0  0  0  0  0  0  0  0  0  0  0  0
   -3.7745    0.6166    5.5962 H   0  0  0  0  0  0  0  0  0  0  0  0
   -3.8029   -1.4723    1.4587 H   0  0  0  0  0  0  0  0  0  0  0  0
   -4.6201   -0.1059    0.7242 H   0  0  0  0  0  0  0  0  0  0  0  0
   -2.7503   -3.0473    0.0499 H   0  0  0  0  0  0  0  0  0  0  0  0
   -1.8716   -3.7160   -2.1499 H   0  0  0  0  0  0  0  0  0  0  0  0
   -1.7207   -2.0615   -3.9847 H   0  0  0  0  0  0  0  0  0  0  0  0
   -2.4742    0.2667   -3.5984 H   0  0  0  0  0  0  0  0  0  0  0  0
   -3.3782    0.9260   -1.4125 H   0  0  0  0  0  0  0  0  0  0  0  0
    4.0358    0.6031   -0.1340 H   0  0  0  0  0  0  0  0  0  0  0  0
   -1.3175   -1.1754    1.8679 H   0  0  0  0  0  0  0  0  0  0  0  0
   -1.5862    0.3591    3.8245 H   0  0  0  0  0  0  0  0  0  0  0  0
    5.6653   -1.1385   -0.8073 H   0  0  0  0  0  0  0  0  0  0  0  0
   -2.5015    0.7636    3.9243 N   0  0  0  0  0  0  0  0  0  0  0  0
  1  2  1  0
  1  3  1  0
  1  8  1  0
  1 32  1  6
  2 24  1  0
  2 26  2  0
  3 30  1  0
  3 33  1  0
  3 34  1  0
  4  5  2  0
  4 30  1  0
  4 31  1  0
  5  6  1  0
  5 35  1  0
  6  7  2  0
  6 36  1  0
  7 31  1  0
  7 37  1  0
  8  9  1  0
  8 13  1  0
  8 38  1  1
  9 10  1  0
  9 39  1  0
  9 40  1  0
 10 11  1  0
 10 12  1  0
 10 41  1  6
 11 42  1  0
 11 43  1  0
 11 44  1  0
 12 45  1  0
 12 46  1  0
 12 47  1  0
 13 25  1  0
 13 28  2  0
 14 15  1  0
 14 17  1  0
 14 25  1  0
 14 48  1  6
 15 63  1  0
 15 29  2  0
 16 63  1  0
 16 49  1  0
 16 50  1  0
 16 51  1  0
 17 18  1  0
 17 52  1  0
 17 53  1  0
 18 19  2  0
 18 23  1  0
 19 20  1  0
 19 54  1  0
 20 21  2  0
 20 55  1  0
 21 22  1  0
 21 56  1  0
 22 23  2  0
 22 57  1  0
 23 58  1  0
 24 27  1  0
 24 59  1  0
 25 60  1  0
 63 61  1  0
 27 62  1  0
M  END
