
     RDKit          3D

 28 29  0  0  0  0  0  0  0  0999 V2000
    3.0998   -0.1099   -0.4281 C   0  0  1  0  0  0  0  0  0  0  0  0
    2.9353   -1.4102   -1.0389 N   0  0  0  0  0  0  0  0  0  0  0  0
    4.9732    1.4060   -0.4081 O   0  0  0  0  0  0  0  0  0  0  0  0
    2.3094    0.1380    0.8761 C   0  0  0  0  0  0  0  0  0  0  0  0
   -3.3413    0.0479   -0.0749 N   0  0  0  0  0  0  0  0  0  0  0  0
    5.3932   -0.6222    0.3843 O   0  0  0  0  0  0  0  0  0  0  0  0
    0.8442    0.1144    0.6295 C   0  0  0  0  0  0  0  0  0  0  0  0
   -4.1324    1.1475   -0.0373 N   0  0  0  0  0  0  0  0  0  0  0  0
    0.1136   -1.0664    0.8007 C   0  0  0  0  0  0  0  0  0  0  0  0
   -5.2684   -0.7595   -0.5174 N   0  0  0  0  0  0  0  0  0  0  0  0
   -1.2592   -1.0998    0.5725 C   0  0  0  0  0  0  0  0  0  0  0  0
   -4.0561   -1.0838   -0.3668 N   0  0  0  0  0  0  0  0  0  0  0  0
   -1.9241    0.0733    0.1631 C   0  0  0  0  0  0  0  0  0  0  0  0
   -5.3613    0.6522   -0.3163 C   0  0  0  0  0  0  0  0  0  0  0  0
   -1.1950    1.2666   -0.0117 C   0  0  0  0  0  0  0  0  0  0  0  0
    0.1762    1.2744    0.2227 C   0  0  0  0  0  0  0  0  0  0  0  0
    4.5626    0.1457   -0.1037 C   0  0  0  0  0  0  0  0  0  0  0  0
    2.7672    0.6587   -1.1912 H   0  0  0  0  0  0  0  0  0  0  0  0
    2.9819   -2.1413   -0.3552 H   0  0  0  0  0  0  0  0  0  0  0  0
    2.0578   -1.4523   -1.5209 H   0  0  0  0  0  0  0  0  0  0  0  0
    5.9124    1.5078   -0.1792 H   0  0  0  0  0  0  0  0  0  0  0  0
    2.5885   -0.6386    1.6378 H   0  0  0  0  0  0  0  0  0  0  0  0
    2.6130    1.1392    1.2841 H   0  0  0  0  0  0  0  0  0  0  0  0
    0.6262   -1.9868    1.1206 H   0  0  0  0  0  0  0  0  0  0  0  0
   -1.8033   -2.0471    0.7172 H   0  0  0  0  0  0  0  0  0  0  0  0
   -6.2948    1.2166   -0.3841 H   0  0  0  0  0  0  0  0  0  0  0  0
   -1.6897    2.1981   -0.3312 H   0  0  0  0  0  0  0  0  0  0  0  0
    0.7410    2.2104    0.0845 H   0  0  0  0  0  0  0  0  0  0  0  0
  2  1  1  0
  1  4  1  0
  1 17  1  0
  1 18  1  6
  2 19  1  0
  2 20  1  0
 17  3  1  0
  3 21  1  0
  7  4  1  0
  4 22  1  0
  4 23  1  0
 12  5  1  0
  8  5  1  0
  5 13  1  0
  6 17  2  0
  9  7  2  0
 16  7  1  0
 14  8  2  0
 11  9  1  0
  9 24  1  0
 10 14  1  0
 10 12  2  0
 13 11  2  0
 11 25  1  0
 13 15  1  0
 14 26  1  0
 15 16  2  0
 15 27  1  0
 16 28  1  0
M  END
