
     RDKit          3D

 35 37  0  0  0  0  0  0  0  0999 V2000
   -2.1347    0.3873   -0.0779 C   0  0  0  0  0  0  0  0  0  0  0  0
   -1.6126    1.6493    0.3027 C   0  0  0  0  0  0  0  0  0  0  0  0
   -0.2622    1.8879    0.3989 C   0  0  0  0  0  0  0  0  0  0  0  0
    0.1123   -0.4453   -0.2594 C   0  0  0  0  0  0  0  0  0  0  0  0
    1.9557    0.7632    0.1329 N   0  0  0  0  0  0  0  0  0  0  0  0
    1.2466   -1.2738   -0.4740 C   0  0  0  0  0  0  0  0  0  0  0  0
    6.7051    1.1068    0.2597 C   0  0  0  0  0  0  0  0  0  0  0  0
   -4.5129    1.1071   -0.7263 C   0  0  0  0  0  0  0  0  0  0  0  0
   -3.5858    0.2466   -0.1927 C   0  0  0  0  0  0  0  0  0  0  0  0
   -5.6124   -0.5687   -0.0367 C   0  0  0  0  0  0  0  0  0  0  0  0
    4.0956   -2.0286   -0.6316 O   0  0  0  0  0  0  0  0  0  0  0  0
    4.5785    0.0761   -0.0247 O   0  0  0  0  0  0  0  0  0  0  0  0
    5.9931   -0.1757   -0.0923 C   0  0  0  0  0  0  0  0  0  0  0  0
    2.3500   -0.5010   -0.2248 C   0  0  0  0  0  0  0  0  0  0  0  0
    0.6006    0.8260    0.1177 C   0  0  0  0  0  0  0  0  0  0  0  0
   -1.2685   -0.6532   -0.3640 C   0  0  0  0  0  0  0  0  0  0  0  0
   -4.3188   -0.8298    0.2470 N   0  0  0  0  0  0  0  0  0  0  0  0
   -5.7678    0.5890   -0.6257 N   0  0  0  0  0  0  0  0  0  0  0  0
   -2.3047    2.4487    0.5343 H   0  0  0  0  0  0  0  0  0  0  0  0
    0.1124    2.8596    0.6924 H   0  0  0  0  0  0  0  0  0  0  0  0
    2.5740    1.5257    0.3585 H   0  0  0  0  0  0  0  0  0  0  0  0
    1.2524   -2.3097   -0.7733 H   0  0  0  0  0  0  0  0  0  0  0  0
    7.7808    0.9401    0.2110 H   0  0  0  0  0  0  0  0  0  0  0  0
    6.4590    1.9064   -0.4388 H   0  0  0  0  0  0  0  0  0  0  0  0
    6.4633    1.4376    1.2696 H   0  0  0  0  0  0  0  0  0  0  0  0
   -4.3213    2.0637   -1.1899 H   0  0  0  0  0  0  0  0  0  0  0  0
   -6.4000   -1.2620    0.2197 H   0  0  0  0  0  0  0  0  0  0  0  0
   -3.3714   -2.7105    0.2628 H   0  0  0  0  0  0  0  0  0  0  0  0
   -3.1349   -1.7294    1.7183 H   0  0  0  0  0  0  0  0  0  0  0  0
   -4.6936   -2.4980    1.4120 H   0  0  0  0  0  0  0  0  0  0  0  0
    6.2546   -0.5063   -1.0991 H   0  0  0  0  0  0  0  0  0  0  0  0
    6.2539   -0.9746    0.6042 H   0  0  0  0  0  0  0  0  0  0  0  0
   -1.6391   -1.6155   -0.6933 H   0  0  0  0  0  0  0  0  0  0  0  0
    3.7523   -0.9135   -0.3190 C   0  0  0  0  0  0  0  0  0  0  0  0
   -3.8457   -2.0060    0.9430 C   0  0  0  0  0  0  0  0  0  0  0  0
 35 17  1  0
 10 17  1  0
 10 18  2  0
 17  9  1  0
 18  8  1  0
  9  8  2  0
  9  1  1  0
  2  1  2  0
  2  3  1  0
  1 16  1  0
  3 15  2  0
 16  4  2  0
 15  4  1  0
 15  5  1  0
  4  6  1  0
  5 14  1  0
  6 14  2  0
 14 34  1  0
 34 12  1  0
 34 11  2  0
 12 13  1  0
 13  7  1  0
  2 19  1  0
  3 20  1  0
  5 21  1  0
  6 22  1  0
  7 23  1  0
  7 24  1  0
  7 25  1  0
  8 26  1  0
 10 27  1  0
 35 28  1  0
 35 29  1  0
 35 30  1  0
 13 31  1  0
 13 32  1  0
 16 33  1  0
M  END
