
     RDKit          3D

 35 37  0  0  0  0  0  0  0  0999 V2000
   -3.6196    1.5775   -1.5972 C   0  0  0  0  0  0  0  0  0  0  0  0
   -2.2040    0.1462   -0.2610 N   0  0  0  0  0  0  0  0  0  0  0  0
   -4.6457    2.4003   -1.5122 O   0  0  0  0  0  0  0  0  0  0  0  0
   -2.8963    1.4221   -0.2631 C   0  0  2  0  0  0  0  0  0  0  0  0
   -3.7511    1.6518    0.9784 C   0  0  0  0  0  0  0  0  0  0  0  0
   -2.9777    1.4864    2.2591 C   0  0  0  0  0  0  0  0  0  0  0  0
    3.1525   -2.1913    0.0918 C   0  0  0  0  0  0  0  0  0  0  0  0
    2.2319   -1.1307   -0.0030 C   0  0  0  0  0  0  0  0  0  0  0  0
    2.7011    0.1777    0.0193 C   0  0  0  0  0  0  0  0  0  0  0  0
    4.0685    0.3859    0.1345 C   0  0  0  0  0  0  0  0  0  0  0  0
    4.7215    2.1573    0.1666 Br  0  0  0  0  0  0  0  0  0  0  0  0
    4.9685   -0.6685    0.2245 C   0  0  0  0  0  0  0  0  0  0  0  0
    4.5101   -1.9799    0.2040 C   0  0  0  0  0  0  0  0  0  0  0  0
    0.9159   -1.7409   -0.0928 C   0  0  0  0  0  0  0  0  0  0  0  0
    1.1498   -3.2229   -0.0460 C   0  0  0  0  0  0  0  0  0  0  0  0
    2.4866   -3.4026    0.0590 N   0  0  0  0  0  0  0  0  0  0  0  0
    0.2869   -4.0754   -0.0946 O   0  0  0  0  0  0  0  0  0  0  0  0
   -0.3580   -1.3099   -0.1858 C   0  0  0  0  0  0  0  0  0  0  0  0
   -0.8151    0.0953   -0.2616 C   0  0  0  0  0  0  0  0  0  0  0  0
   -2.8513   -1.0450   -0.3123 C   0  0  0  0  0  0  0  0  0  0  0  0
   -4.4582   -1.2931   -0.4363 S   0  0  0  0  0  0  0  0  0  0  0  0
   -1.7353   -2.3851   -0.2431 S   0  0  0  0  0  0  0  0  0  0  0  0
   -0.1161    1.0699   -0.3386 O   0  0  0  0  0  0  0  0  0  0  0  0
   -3.7661    1.6395    3.3128 O   0  0  0  0  0  0  0  0  0  0  0  0
   -1.7976    1.2550    2.3355 O   0  0  0  0  0  0  0  0  0  0  0  0
   -3.2309    1.0608   -2.6093 O   0  0  0  0  0  0  0  0  0  0  0  0
   -5.0505    2.5286   -2.3844 H   0  0  0  0  0  0  0  0  0  0  0  0
   -2.1122    2.1854   -0.2785 H   0  0  0  0  0  0  0  0  0  0  0  0
   -4.1352    2.6741    0.9549 H   0  0  0  0  0  0  0  0  0  0  0  0
   -4.6244    0.9986    0.9989 H   0  0  0  0  0  0  0  0  0  0  0  0
    6.0306   -0.4844    0.3110 H   0  0  0  0  0  0  0  0  0  0  0  0
    5.2061   -2.8041    0.2754 H   0  0  0  0  0  0  0  0  0  0  0  0
    2.9291   -4.3078    0.1178 H   0  0  0  0  0  0  0  0  0  0  0  0
   -3.2527    1.5465    4.1297 H   0  0  0  0  0  0  0  0  0  0  0  0
    2.0195    1.0086   -0.0511 H   0  0  0  0  0  0  0  0  0  0  0  0
  4  1  1  0
  1 26  2  0
  1  3  1  0
 20  2  1  0
  2 19  1  0
  2  4  1  0
  3 27  1  0
  4  5  1  0
  4 28  1  6
  5  6  1  0
  5 29  1  0
  5 30  1  0
 25  6  2  0
  6 24  1  0
 16  7  1  0
  7  8  1  0
  7 13  2  0
 14  8  1  0
  8  9  2  0
  9 10  1  0
  9 35  1  0
 12 10  2  0
 10 11  1  0
 13 12  1  0
 12 31  1  0
 13 32  1  0
 15 14  1  0
 18 14  2  0
 17 15  2  0
 15 16  1  0
 16 33  1  0
 22 18  1  0
 18 19  1  0
 19 23  2  0
 22 20  1  0
 21 20  2  0
 24 34  1  0
M  END
