
     RDKit          3D

 20 21  0  0  0  0  0  0  0  0999 V2000
    1.2807   -0.3900    0.0781 C   0  0  0  0  0  0  0  0  0  0  0  0
    4.9467    0.3021   -0.3019 N   0  0  0  0  0  0  0  0  0  0  0  0
   -3.1011   -0.4993   -0.4230 C   0  0  1  0  0  0  0  0  0  0  0  0
   -1.0089    0.0032    0.4894 C   0  0  0  0  0  0  0  0  0  0  0  0
    3.6172    0.2849   -0.1464 C   0  0  0  0  0  0  0  0  0  0  0  0
   -0.7550    1.3528    0.7072 C   0  0  0  0  0  0  0  0  0  0  0  0
    0.5368    1.8389    0.6053 C   0  0  0  0  0  0  0  0  0  0  0  0
    1.5765    0.9696    0.2821 C   0  0  0  0  0  0  0  0  0  0  0  0
   -0.0039   -0.8950    0.1757 C   0  0  0  0  0  0  0  0  0  0  0  0
   -2.3075   -0.4724    0.6539 O   0  0  0  0  0  0  0  0  0  0  0  0
   -4.2823   -0.9588   -0.0410 F   0  0  0  0  0  0  0  0  0  0  0  0
   -3.2765    0.7062   -0.9682 F   0  0  0  0  0  0  0  0  0  0  0  0
   -2.6353   -1.2939   -1.3892 F   0  0  0  0  0  0  0  0  0  0  0  0
    2.7477   -1.2441   -0.2924 S   0  0  0  0  0  0  0  0  0  0  0  0
    2.8948    1.3175    0.1472 N   0  0  0  0  0  0  0  0  0  0  0  0
    5.3951    1.1991   -0.3958 H   0  0  0  0  0  0  0  0  0  0  0  0
    5.4256   -0.4759   -0.7220 H   0  0  0  0  0  0  0  0  0  0  0  0
   -1.5644    2.0198    0.9731 H   0  0  0  0  0  0  0  0  0  0  0  0
    0.7419    2.8873    0.7758 H   0  0  0  0  0  0  0  0  0  0  0  0
   -0.2138   -1.9463    0.0294 H   0  0  0  0  0  0  0  0  0  0  0  0
  2  5  1  0
 14  5  1  0
 14  1  1  0
  5 15  2  0
  1  9  1  0
  1  8  2  0
 15  8  1  0
  9  4  2  0
  8  7  1  0
  4 10  1  0
  4  6  1  0
 10  3  1  0
  7  6  2  0
  3 11  1  1
  3 13  1  0
  3 12  1  0
  2 16  1  0
  2 17  1  0
  6 18  1  0
  7 19  1  0
  9 20  1  0
M  END
