
     RDKit          3D

 44 48  0  0  0  0  0  0  0  0999 V2000
   -6.0157   -1.4951    0.3052 C   0  0  0  0  0  0  0  0  0  0  0  0
   -4.6208   -1.5605    0.1094 C   0  0  0  0  0  0  0  0  0  0  0  0
   -4.1286   -0.2669    0.1445 C   0  0  0  0  0  0  0  0  0  0  0  0
    0.6347   -1.9849   -1.8893 C   0  0  0  0  0  0  0  0  0  0  0  0
    1.5986   -2.9639   -2.2043 C   0  0  0  0  0  0  0  0  0  0  0  0
    2.5389   -3.3231   -1.2808 C   0  0  0  0  0  0  0  0  0  0  0  0
    1.5790   -1.7394    0.3222 C   0  0  0  0  0  0  0  0  0  0  0  0
    2.5479   -2.7265    0.0021 C   0  0  0  0  0  0  0  0  0  0  0  0
    3.5008   -3.1028    0.9785 C   0  0  0  0  0  0  0  0  0  0  0  0
    3.4897   -2.5365    2.2230 C   0  0  0  0  0  0  0  0  0  0  0  0
    2.5186   -1.5674    2.5476 C   0  0  0  0  0  0  0  0  0  0  0  0
    1.5893   -1.1793    1.6215 C   0  0  0  0  0  0  0  0  0  0  0  0
   -0.0699    1.0240   -0.2634 C   0  0  0  0  0  0  0  0  0  0  0  0
   -1.0939    1.9681    0.0002 C   0  0  0  0  0  0  0  0  0  0  0  0
   -0.7116    3.3216    0.1150 C   0  0  0  0  0  0  0  0  0  0  0  0
    0.6018    3.6662   -0.0293 C   0  0  0  0  0  0  0  0  0  0  0  0
    1.5355    2.6446   -0.3013 C   0  0  0  0  0  0  0  0  0  0  0  0
    2.9721    3.0195   -0.4666 C   0  0  0  0  0  0  0  0  0  0  0  0
   -5.1991    0.5565    0.3543 N   0  0  0  0  0  0  0  0  0  0  0  0
   -6.3399   -0.1661    0.4506 C   0  0  0  0  0  0  0  0  0  0  0  0
   -0.4188   -0.3539   -0.3761 C   0  0  0  0  0  0  0  0  0  0  0  0
   -1.7277   -0.7220   -0.2456 C   0  0  0  0  0  0  0  0  0  0  0  0
   -2.7660    0.2161    0.0120 C   0  0  0  0  0  0  0  0  0  0  0  0
   -2.4300    1.5457    0.1339 C   0  0  0  0  0  0  0  0  0  0  0  0
    0.6197   -1.3699   -0.6634 C   0  0  0  0  0  0  0  0  0  0  0  0
    1.2144    1.3822   -0.4173 N   0  0  0  0  0  0  0  0  0  0  0  0
    3.3660    4.1560   -0.3564 O   0  0  0  0  0  0  0  0  0  0  0  0
    3.7510    1.9911   -0.7400 O   0  0  0  0  0  0  0  0  0  0  0  0
   -6.7054   -2.3229    0.3370 H   0  0  0  0  0  0  0  0  0  0  0  0
   -4.0398   -2.4574   -0.0369 H   0  0  0  0  0  0  0  0  0  0  0  0
   -0.0996   -1.7066   -2.6351 H   0  0  0  0  0  0  0  0  0  0  0  0
    1.5894   -3.4229   -3.1841 H   0  0  0  0  0  0  0  0  0  0  0  0
    3.2850   -4.0731   -1.5155 H   0  0  0  0  0  0  0  0  0  0  0  0
    4.2408   -3.8527    0.7256 H   0  0  0  0  0  0  0  0  0  0  0  0
    4.2200   -2.8346    2.9640 H   0  0  0  0  0  0  0  0  0  0  0  0
    2.5085   -1.1307    3.5378 H   0  0  0  0  0  0  0  0  0  0  0  0
    0.8458   -0.4402    1.8902 H   0  0  0  0  0  0  0  0  0  0  0  0
   -1.4623    4.0757    0.3156 H   0  0  0  0  0  0  0  0  0  0  0  0
    0.9203    4.6949    0.0568 H   0  0  0  0  0  0  0  0  0  0  0  0
   -5.1679    1.5610    0.4116 H   0  0  0  0  0  0  0  0  0  0  0  0
   -7.2904    0.3140    0.6142 H   0  0  0  0  0  0  0  0  0  0  0  0
   -1.9788   -1.7714   -0.3345 H   0  0  0  0  0  0  0  0  0  0  0  0
   -3.1769    2.3042    0.3340 H   0  0  0  0  0  0  0  0  0  0  0  0
    4.6664    2.2956   -0.8310 H   0  0  0  0  0  0  0  0  0  0  0  0
 27 18  2  0
 28 18  1  0
 18 17  1  0
 17 16  1  0
 17 26  2  0
 16 15  2  0
 26 13  1  0
 15 14  1  0
 13 14  2  0
 13 21  1  0
  5  6  1  0
  5  4  2  0
 14 24  1  0
  6  8  2  0
  4 25  1  0
 25  7  2  0
 25 21  1  0
  8  7  1  0
  8  9  1  0
  7 12  1  0
 21 22  2  0
  9 10  2  0
 12 11  2  0
 10 11  1  0
 24 23  2  0
 22 23  1  0
 23  3  1  0
  3 19  1  0
  3  2  2  0
 19 20  1  0
  2  1  1  0
 20  1  2  0
  1 29  1  0
  2 30  1  0
  4 31  1  0
  5 32  1  0
  6 33  1  0
  9 34  1  0
 10 35  1  0
 11 36  1  0
 12 37  1  0
 15 38  1  0
 16 39  1  0
 19 40  1  0
 20 41  1  0
 22 42  1  0
 24 43  1  0
 28 44  1  0
M  END
