
     RDKit          3D

 56 60  0  0  0  0  0  0  0  0999 V2000
    5.9590    2.1474    0.2558 C   0  0  0  0  0  0  0  0  0  0  0  0
    6.9165    3.1218    0.2205 C   0  0  0  0  0  0  0  0  0  0  0  0
    8.1944    2.8379   -0.0876 N   0  0  0  0  0  0  0  0  0  0  0  0
    9.1885    3.9122   -0.0848 C   0  0  0  0  0  0  0  0  0  0  0  0
    8.5535    1.5764   -0.3624 C   0  0  0  0  0  0  0  0  0  0  0  0
    7.6352    0.5601   -0.3430 C   0  0  0  0  0  0  0  0  0  0  0  0
    6.2918    0.8142   -0.0362 C   0  0  0  0  0  0  0  0  0  0  0  0
    5.3481   -0.2793   -0.0394 C   0  0  0  0  0  0  0  0  0  0  0  0
    4.0202   -0.1486    0.1413 C   0  0  0  0  0  0  0  0  0  0  0  0
    3.0401   -1.2173    0.1330 C   0  0  0  0  0  0  0  0  0  0  0  0
    1.6879   -0.8746    0.1713 C   0  0  0  0  0  0  0  0  0  0  0  0
    3.4063   -2.5810    0.0781 C   0  0  0  0  0  0  0  0  0  0  0  0
    2.4697   -3.5885    0.0500 C   0  0  0  0  0  0  0  0  0  0  0  0
    1.1241   -3.2232    0.0723 C   0  0  0  0  0  0  0  0  0  0  0  0
    0.0094   -4.0109    0.0396 N   0  0  0  0  0  0  0  0  0  0  0  0
    0.7257   -1.8724    0.1342 C   0  0  0  0  0  0  0  0  0  0  0  0
   -0.7161   -1.8755    0.1326 C   0  0  0  0  0  0  0  0  0  0  0  0
   -1.6825   -0.8818    0.1687 C   0  0  0  0  0  0  0  0  0  0  0  0
   -1.1087   -3.2279    0.0692 C   0  0  0  0  0  0  0  0  0  0  0  0
   -2.4527   -3.5988    0.0425 C   0  0  0  0  0  0  0  0  0  0  0  0
   -3.3937   -2.5953    0.0698 C   0  0  0  0  0  0  0  0  0  0  0  0
   -3.0332   -1.2302    0.1282 C   0  0  0  0  0  0  0  0  0  0  0  0
   -4.0169   -0.1650    0.1383 C   0  0  0  0  0  0  0  0  0  0  0  0
   -5.3459   -0.2991   -0.0309 C   0  0  0  0  0  0  0  0  0  0  0  0
   -6.2908    0.7935   -0.0257 C   0  0  0  0  0  0  0  0  0  0  0  0
   -7.6409    0.5327   -0.2950 C   0  0  0  0  0  0  0  0  0  0  0  0
   -8.5612    1.5475   -0.3098 C   0  0  0  0  0  0  0  0  0  0  0  0
   -8.1975    2.8139   -0.0660 N   0  0  0  0  0  0  0  0  0  0  0  0
   -9.1896    3.8901   -0.0636 C   0  0  0  0  0  0  0  0  0  0  0  0
   -6.9124    3.1047    0.2040 C   0  0  0  0  0  0  0  0  0  0  0  0
   -5.9527    2.1326    0.2322 C   0  0  0  0  0  0  0  0  0  0  0  0
    4.9537    2.4423    0.5165 H   0  0  0  0  0  0  0  0  0  0  0  0
    6.6909    4.1552    0.4380 H   0  0  0  0  0  0  0  0  0  0  0  0
    9.4054    4.2037    0.9396 H   0  0  0  0  0  0  0  0  0  0  0  0
   10.0961    3.5613   -0.5637 H   0  0  0  0  0  0  0  0  0  0  0  0
    8.8009    4.7640   -0.6356 H   0  0  0  0  0  0  0  0  0  0  0  0
    9.5926    1.4052   -0.5993 H   0  0  0  0  0  0  0  0  0  0  0  0
    7.9702   -0.4402   -0.5769 H   0  0  0  0  0  0  0  0  0  0  0  0
    5.7783   -1.2556   -0.2297 H   0  0  0  0  0  0  0  0  0  0  0  0
    3.6048    0.8425    0.2934 H   0  0  0  0  0  0  0  0  0  0  0  0
    1.3956    0.1682    0.2203 H   0  0  0  0  0  0  0  0  0  0  0  0
    4.4527   -2.8555    0.0649 H   0  0  0  0  0  0  0  0  0  0  0  0
    2.7702   -4.6270    0.0104 H   0  0  0  0  0  0  0  0  0  0  0  0
    0.0115   -5.0173   -0.0054 H   0  0  0  0  0  0  0  0  0  0  0  0
   -1.3951    0.1622    0.2193 H   0  0  0  0  0  0  0  0  0  0  0  0
   -2.7485   -4.6386    0.0011 H   0  0  0  0  0  0  0  0  0  0  0  0
   -4.4389   -2.8741    0.0523 H   0  0  0  0  0  0  0  0  0  0  0  0
   -3.6029    0.8274    0.2850 H   0  0  0  0  0  0  0  0  0  0  0  0
   -5.7770   -1.2775   -0.2083 H   0  0  0  0  0  0  0  0  0  0  0  0
   -7.9800   -0.4721   -0.5024 H   0  0  0  0  0  0  0  0  0  0  0  0
   -9.6055    1.3705   -0.5183 H   0  0  0  0  0  0  0  0  0  0  0  0
   -9.3384    4.2437    0.9533 H   0  0  0  0  0  0  0  0  0  0  0  0
   -8.8382    4.7059   -0.6885 H   0  0  0  0  0  0  0  0  0  0  0  0
  -10.1269    3.5145   -0.4588 H   0  0  0  0  0  0  0  0  0  0  0  0
   -6.6834    4.1421    0.3973 H   0  0  0  0  0  0  0  0  0  0  0  0
   -4.9414    2.4343    0.4600 H   0  0  0  0  0  0  0  0  0  0  0  0
 29 28  1  0
 30 28  2  0
 30 31  1  0
 28 27  1  0
 31 25  2  0
 27 26  2  0
 25 26  1  0
 25 24  1  0
  5  6  2  0
  5  3  1  0
 24 23  2  0
  4  3  1  0
  6  7  1  0
 23 22  1  0
  3  2  2  0
  7  8  1  0
  7  1  2  0
  2  1  1  0
  8  9  2  0
 18 22  1  0
 18 17  2  0
 22 21  2  0
  9 10  1  0
 11 10  2  0
 11 16  1  0
 10 12  1  0
 17 16  1  0
 17 19  1  0
 21 20  1  0
 16 14  2  0
 19 20  2  0
 19 15  1  0
 12 13  2  0
 14 13  1  0
 14 15  1  0
  1 32  1  0
  2 33  1  0
  4 34  1  0
  4 35  1  0
  4 36  1  0
  5 37  1  0
  6 38  1  0
  8 39  1  0
  9 40  1  0
 11 41  1  0
 12 42  1  0
 13 43  1  0
 15 44  1  0
 18 45  1  0
 20 46  1  0
 21 47  1  0
 23 48  1  0
 24 49  1  0
 26 50  1  0
 27 51  1  0
 29 52  1  0
 29 53  1  0
 29 54  1  0
 30 55  1  0
 31 56  1  0
M  CHG  2   3   1  28   1
M  END
