
     RDKit          3D

 73 77  0  0  0  0  0  0  0  0999 V2000
   -4.0856   -4.1859   -0.3336 C   0  0  0  0  0  0  0  0  0  0  0  0
   -3.3658   -3.0367   -0.0418 C   0  0  0  0  0  0  0  0  0  0  0  0
   -1.9853   -3.0968    0.0577 C   0  0  0  0  0  0  0  0  0  0  0  0
   -1.2824   -4.2786   -0.1428 C   0  0  0  0  0  0  0  0  0  0  0  0
   -2.0204   -5.4365   -0.4315 C   0  0  0  0  0  0  0  0  0  0  0  0
   -3.4040   -5.3864   -0.5093 C   0  0  0  0  0  0  0  0  0  0  0  0
   -1.3454   -6.7697   -0.5980 C   0  0  1  0  0  0  0  0  0  0  0  0
   -2.2083   -7.7353   -0.9332 F   0  0  0  0  0  0  0  0  0  0  0  0
   -0.3982   -6.7603   -1.5384 F   0  0  0  0  0  0  0  0  0  0  0  0
   -0.7574   -7.1676    0.5431 F   0  0  0  0  0  0  0  0  0  0  0  0
    0.2247   -4.2246   -0.0561 C   0  0  0  0  0  0  0  0  0  0  0  0
    0.8421   -4.0913   -1.3542 N   0  0  0  0  0  0  0  0  0  0  0  0
    2.2894   -4.2111   -1.3016 C   0  0  0  0  0  0  0  0  0  0  0  0
    2.7739   -3.6262   -2.6331 C   0  0  0  0  0  0  0  0  0  0  0  0
    1.5428   -2.9157   -3.2303 C   0  0  1  0  0  0  0  0  0  0  0  0
    0.5813   -2.8476   -2.0444 C   0  0  0  0  0  0  0  0  0  0  0  0
    1.8535   -1.6156   -3.7974 N   0  0  0  0  0  0  0  0  0  0  0  0
    0.6577   -0.9124   -4.2162 C   0  0  0  0  0  0  0  0  0  0  0  0
    2.7674   -1.7380   -4.9152 C   0  0  0  0  0  0  0  0  0  0  0  0
   -6.7029  -10.3010   -0.7853 N   0  0  0  0  0  0  0  0  0  0  0  0
   -5.6982   -9.5464   -1.2041 C   0  0  0  0  0  0  0  0  0  0  0  0
   -5.7914   -8.3231   -1.7040 N   0  0  0  0  0  0  0  0  0  0  0  0
   -7.0071   -7.8054   -1.7839 C   0  0  0  0  0  0  0  0  0  0  0  0
   -8.1424   -8.5000   -1.3729 C   0  0  0  0  0  0  0  0  0  0  0  0
   -7.9169   -9.7761   -0.8708 C   0  0  0  0  0  0  0  0  0  0  0  0
   -9.4804   -7.8899   -1.4442 C   0  0  0  0  0  0  0  0  0  0  0  0
   -9.5086   -6.5611   -1.4664 N   0  0  0  0  0  0  0  0  0  0  0  0
  -10.6906   -5.9661   -1.5180 C   0  0  0  0  0  0  0  0  0  0  0  0
  -11.8728   -6.5950   -1.5532 N   0  0  0  0  0  0  0  0  0  0  0  0
  -11.8309   -7.9131   -1.5406 C   0  0  0  0  0  0  0  0  0  0  0  0
  -10.6476   -8.6379   -1.4877 C   0  0  0  0  0  0  0  0  0  0  0  0
  -10.7767   -4.6071   -1.5416 N   0  0  0  0  0  0  0  0  0  0  0  0
   -8.4646   -3.8997   -1.1899 C   0  0  0  0  0  0  0  0  0  0  0  0
   -7.5215   -2.8769   -1.1569 C   0  0  0  0  0  0  0  0  0  0  0  0
   -7.9111   -1.5671   -1.4165 C   0  0  0  0  0  0  0  0  0  0  0  0
   -9.2388   -1.3021   -1.7091 C   0  0  0  0  0  0  0  0  0  0  0  0
  -10.2035   -2.2987   -1.7593 C   0  0  0  0  0  0  0  0  0  0  0  0
   -9.7954   -3.6188   -1.4948 C   0  0  0  0  0  0  0  0  0  0  0  0
  -11.6281   -1.9672   -2.0962 C   0  0  0  0  0  0  0  0  0  0  0  0
   -6.1599   -3.1135   -0.9134 N   0  0  0  0  0  0  0  0  0  0  0  0
   -5.5772   -4.2271   -0.4089 C   0  0  0  0  0  0  0  0  0  0  0  0
   -6.1837   -5.2218   -0.0517 O   0  0  0  0  0  0  0  0  0  0  0  0
  -11.9781   -2.5125   -2.9759 H   0  0  0  0  0  0  0  0  0  0  0  0
  -12.3150   -2.1975   -1.2770 H   0  0  0  0  0  0  0  0  0  0  0  0
  -11.7343   -0.9054   -2.3103 H   0  0  0  0  0  0  0  0  0  0  0  0
   -9.5360   -0.2806   -1.9116 H   0  0  0  0  0  0  0  0  0  0  0  0
   -7.1887   -0.7606   -1.3938 H   0  0  0  0  0  0  0  0  0  0  0  0
   -8.1740   -4.9134   -0.9968 H   0  0  0  0  0  0  0  0  0  0  0  0
  -11.7285   -4.2834   -1.6189 H   0  0  0  0  0  0  0  0  0  0  0  0
  -12.7846   -8.4278   -1.5771 H   0  0  0  0  0  0  0  0  0  0  0  0
  -10.6576   -9.7172   -1.4951 H   0  0  0  0  0  0  0  0  0  0  0  0
   -8.7355  -10.3897   -0.5096 H   0  0  0  0  0  0  0  0  0  0  0  0
   -7.0941   -6.8099   -2.1998 H   0  0  0  0  0  0  0  0  0  0  0  0
   -5.5459   -2.3638   -1.1926 H   0  0  0  0  0  0  0  0  0  0  0  0
   -3.8619   -2.0915    0.1408 H   0  0  0  0  0  0  0  0  0  0  0  0
   -1.4374   -2.1969    0.3070 H   0  0  0  0  0  0  0  0  0  0  0  0
    0.4961   -3.3867    0.6080 H   0  0  0  0  0  0  0  0  0  0  0  0
    0.6241   -5.1203    0.4212 H   0  0  0  0  0  0  0  0  0  0  0  0
    2.5839   -5.2524   -1.1537 H   0  0  0  0  0  0  0  0  0  0  0  0
    2.7099   -3.6337   -0.4628 H   0  0  0  0  0  0  0  0  0  0  0  0
    3.5761   -2.9074   -2.4622 H   0  0  0  0  0  0  0  0  0  0  0  0
    3.1613   -4.3951   -3.3007 H   0  0  0  0  0  0  0  0  0  0  0  0
    1.0859   -3.5688   -3.9956 H   0  0  0  0  0  0  0  0  0  0  0  0
    0.8147   -1.9612   -1.4252 H   0  0  0  0  0  0  0  0  0  0  0  0
   -0.4648   -2.7762   -2.3466 H   0  0  0  0  0  0  0  0  0  0  0  0
   -0.0005   -0.7164   -3.3694 H   0  0  0  0  0  0  0  0  0  0  0  0
    0.0762   -1.4608   -4.9752 H   0  0  0  0  0  0  0  0  0  0  0  0
    0.9306    0.0532   -4.6441 H   0  0  0  0  0  0  0  0  0  0  0  0
    3.6997   -2.2106   -4.6071 H   0  0  0  0  0  0  0  0  0  0  0  0
    3.0153   -0.7480   -5.3003 H   0  0  0  0  0  0  0  0  0  0  0  0
    2.3520   -2.3273   -5.7486 H   0  0  0  0  0  0  0  0  0  0  0  0
   -3.9778   -6.2789   -0.7230 H   0  0  0  0  0  0  0  0  0  0  0  0
   -4.7034   -9.9711   -1.1312 H   0  0  0  0  0  0  0  0  0  0  0  0
  1 41  1  0
  1  2  2  0
  1  6  1  0
  2  3  1  0
  2 55  1  0
  3  4  2  0
  3 56  1  0
  4 11  1  0
  4  5  1  0
  5  6  2  0
  5  7  1  0
  6 72  1  0
  7  8  1  6
  7  9  1  0
  7 10  1  0
 11 12  1  0
 11 57  1  0
 11 58  1  0
 12 13  1  0
 12 16  1  0
 13 14  1  0
 13 59  1  0
 13 60  1  0
 14 15  1  0
 14 61  1  0
 14 62  1  0
 15 16  1  0
 15 17  1  0
 15 63  1  6
 16 64  1  0
 16 65  1  0
 17 18  1  0
 17 19  1  0
 18 66  1  0
 18 67  1  0
 18 68  1  0
 19 69  1  0
 19 70  1  0
 19 71  1  0
 20 25  2  0
 20 21  1  0
 21 22  2  0
 21 73  1  0
 22 23  1  0
 23 24  2  0
 23 53  1  0
 24 26  1  0
 24 25  1  0
 25 52  1  0
 26 31  1  0
 26 27  2  0
 27 28  1  0
 28 32  1  0
 28 29  2  0
 29 30  1  0
 30 31  2  0
 30 50  1  0
 31 51  1  0
 32 38  1  0
 32 49  1  0
 33 34  2  0
 33 38  1  0
 33 48  1  0
 34 35  1  0
 34 40  1  0
 35 36  2  0
 35 47  1  0
 36 37  1  0
 36 46  1  0
 37 39  1  0
 37 38  2  0
 39 43  1  0
 39 44  1  0
 39 45  1  0
 40 41  1  0
 40 54  1  0
 41 42  2  0
M  END
