
     RDKit          3D

 41 44  0  0  0  0  0  0  0  0999 V2000
   -3.0328    0.1280   -0.1114 C   0  0  0  0  0  0  0  0  0  0  0  0
   -4.3916    0.1837    0.1579 C   0  0  0  0  0  0  0  0  0  0  0  0
   -5.5707    0.7891   -1.1853 Br  0  0  0  0  0  0  0  0  0  0  0  0
   -4.8998   -0.1969    1.3914 C   0  0  0  0  0  0  0  0  0  0  0  0
   -4.0214   -0.6405    2.3702 C   0  0  0  0  0  0  0  0  0  0  0  0
   -2.6585   -0.7027    2.1223 C   0  0  0  0  0  0  0  0  0  0  0  0
   -2.1761   -0.3183    0.8825 C   0  0  0  0  0  0  0  0  0  0  0  0
   -0.7753   -0.3828    0.6131 N   0  0  0  0  0  0  0  0  0  0  0  0
   -0.0232    0.7677    0.8710 C   0  0  0  0  0  0  0  0  0  0  0  0
   -0.5817    1.7562    1.3073 O   0  0  0  0  0  0  0  0  0  0  0  0
   -0.2826   -1.5822    0.1238 C   0  0  0  0  0  0  0  0  0  0  0  0
   -1.0322   -2.5178   -0.0673 O   0  0  0  0  0  0  0  0  0  0  0  0
    1.1624   -1.6407   -0.1370 C   0  0  0  0  0  0  0  0  0  0  0  0
    1.7114   -2.8137   -0.6083 C   0  0  0  0  0  0  0  0  0  0  0  0
    3.0827   -2.8961   -0.8523 C   0  0  0  0  0  0  0  0  0  0  0  0
    3.8876   -1.8035   -0.6310 C   0  0  0  0  0  0  0  0  0  0  0  0
    3.3611   -0.5858   -0.1639 C   0  0  0  0  0  0  0  0  0  0  0  0
    1.9712   -0.5085    0.0974 C   0  0  0  0  0  0  0  0  0  0  0  0
    1.3974    0.6826    0.5913 C   0  0  0  0  0  0  0  0  0  0  0  0
    2.2164    1.7767    0.8109 C   0  0  0  0  0  0  0  0  0  0  0  0
    3.5763    1.7377    0.5556 C   0  0  0  0  0  0  0  0  0  0  0  0
    4.1854    0.5775    0.0677 C   0  0  0  0  0  0  0  0  0  0  0  0
    5.5044    0.5269   -0.1685 N   0  0  0  0  0  0  0  0  0  0  0  0
    6.4053    1.6470   -0.0205 C   0  0  0  0  0  0  0  0  0  0  0  0
    7.8400    1.1743   -0.1033 C   0  0  0  0  0  0  0  0  0  0  0  0
    8.0359    0.5519   -1.3540 O   0  0  0  0  0  0  0  0  0  0  0  0
   -2.6356    0.4247   -1.0733 H   0  0  0  0  0  0  0  0  0  0  0  0
   -5.9610   -0.1533    1.5956 H   0  0  0  0  0  0  0  0  0  0  0  0
   -4.4078   -0.9403    3.3347 H   0  0  0  0  0  0  0  0  0  0  0  0
   -1.9761   -1.0479    2.8877 H   0  0  0  0  0  0  0  0  0  0  0  0
    1.0793   -3.6733   -0.7852 H   0  0  0  0  0  0  0  0  0  0  0  0
    3.5130   -3.8199   -1.2119 H   0  0  0  0  0  0  0  0  0  0  0  0
    4.9467   -1.9159   -0.8213 H   0  0  0  0  0  0  0  0  0  0  0  0
    1.7874    2.6965    1.1860 H   0  0  0  0  0  0  0  0  0  0  0  0
    4.1619    2.6285    0.7305 H   0  0  0  0  0  0  0  0  0  0  0  0
    5.8705   -0.2440   -0.7027 H   0  0  0  0  0  0  0  0  0  0  0  0
    6.2127    2.4127   -0.7812 H   0  0  0  0  0  0  0  0  0  0  0  0
    6.2636    2.1165    0.9549 H   0  0  0  0  0  0  0  0  0  0  0  0
    8.4936    2.0437    0.0312 H   0  0  0  0  0  0  0  0  0  0  0  0
    8.0393    0.4838    0.7243 H   0  0  0  0  0  0  0  0  0  0  0  0
    8.8647    0.0656   -1.3264 H   0  0  0  0  0  0  0  0  0  0  0  0
  1  2  2  0
  1  7  1  0
  2  3  1  0
  2  4  1  0
  4  5  2  0
  5  6  1  0
  6  7  2  0
  7  8  1  0
  8  9  1  0
  8 11  1  0
  9 10  2  0
  9 19  1  0
 11 12  2  0
 11 13  1  0
 13 14  2  0
 13 18  1  0
 14 15  1  0
 15 16  2  0
 16 17  1  0
 17 18  1  0
 17 22  2  0
 18 19  2  0
 19 20  1  0
 20 21  2  0
 21 22  1  0
 22 23  1  0
 23 24  1  0
 24 25  1  0
 25 26  1  0
  1 27  1  0
  4 28  1  0
  5 29  1  0
  6 30  1  0
 14 31  1  0
 15 32  1  0
 16 33  1  0
 20 34  1  0
 21 35  1  0
 23 36  1  0
 24 37  1  0
 24 38  1  0
 25 39  1  0
 25 40  1  0
 26 41  1  0
M  END
