
     RDKit          3D

 48 50  0  0  0  0  0  0  0  0999 V2000
   -4.7093   -2.2135    0.6395 C   0  0  0  0  0  0  0  0  0  0  0  0
   -4.0590   -1.0000    0.3422 C   0  0  0  0  0  0  0  0  0  0  0  0
   -4.6620   -0.0734   -0.5389 C   0  0  0  0  0  0  0  0  0  0  0  0
   -2.9163    1.4104   -0.3313 C   0  0  0  0  0  0  0  0  0  0  0  0
   -2.7993   -0.6417    0.8834 C   0  0  0  0  0  0  0  0  0  0  0  0
    0.2492    0.7108    0.0475 C   0  0  0  0  0  0  0  0  0  0  0  0
    3.9665    1.4540   -0.0659 C   0  0  0  0  0  0  0  0  0  0  0  0
    7.1827   -0.6235   -0.6266 C   0  0  0  0  0  0  0  0  0  0  0  0
    6.7294   -1.9305    0.0150 C   0  0  0  0  0  0  0  0  0  0  0  0
    5.2641   -2.2120   -0.2985 C   0  0  0  0  0  0  0  0  0  0  0  0
    6.2855    0.5385   -0.2122 C   0  0  0  0  0  0  0  0  0  0  0  0
    4.3703   -1.0502    0.1261 C   0  0  0  0  0  0  0  0  0  0  0  0
    4.8128    0.2636   -0.5158 C   0  0  1  0  0  0  0  0  0  0  0  0
    2.5537    1.3033   -0.3322 N   0  0  0  0  0  0  0  0  0  0  0  0
    1.6382    0.9749    0.5950 C   0  0  0  0  0  0  0  0  0  0  0  0
    1.8946    0.8705    1.7870 O   0  0  0  0  0  0  0  0  0  0  0  0
   -2.2028    0.5389    0.5663 C   0  0  0  0  0  0  0  0  0  0  0  0
   -5.9265   -2.5058    0.0778 C   0  0  0  0  0  0  0  0  0  0  0  0
   -6.5293   -1.5861   -0.8009 C   0  0  0  0  0  0  0  0  0  0  0  0
   -5.9147   -0.3973   -1.1045 C   0  0  0  0  0  0  0  0  0  0  0  0
   -4.0829    1.1091   -0.8486 N   0  0  0  0  0  0  0  0  0  0  0  0
   -2.3527    2.5899   -0.7088 N   0  0  0  0  0  0  0  0  0  0  0  0
   -4.2338   -2.9128    1.3173 H   0  0  0  0  0  0  0  0  0  0  0  0
   -2.3018   -1.3292    1.5592 H   0  0  0  0  0  0  0  0  0  0  0  0
    0.0588    1.3360   -0.8271 H   0  0  0  0  0  0  0  0  0  0  0  0
    0.2314   -0.3229   -0.3129 H   0  0  0  0  0  0  0  0  0  0  0  0
    4.0948    1.6163    1.0049 H   0  0  0  0  0  0  0  0  0  0  0  0
    4.3180    2.3589   -0.5685 H   0  0  0  0  0  0  0  0  0  0  0  0
    8.2205   -0.4084   -0.3606 H   0  0  0  0  0  0  0  0  0  0  0  0
    7.1566   -0.7278   -1.7167 H   0  0  0  0  0  0  0  0  0  0  0  0
    7.3574   -2.7582   -0.3242 H   0  0  0  0  0  0  0  0  0  0  0  0
    6.8594   -1.8637    1.1010 H   0  0  0  0  0  0  0  0  0  0  0  0
    5.1509   -2.3803   -1.3752 H   0  0  0  0  0  0  0  0  0  0  0  0
    4.9386   -3.1317    0.1940 H   0  0  0  0  0  0  0  0  0  0  0  0
    6.3982    0.7167    0.8642 H   0  0  0  0  0  0  0  0  0  0  0  0
    6.6057    1.4571   -0.7127 H   0  0  0  0  0  0  0  0  0  0  0  0
    3.3323   -1.2673   -0.1381 H   0  0  0  0  0  0  0  0  0  0  0  0
    4.4021   -0.9458    1.2169 H   0  0  0  0  0  0  0  0  0  0  0  0
    4.7043    0.1595   -1.6045 H   0  0  0  0  0  0  0  0  0  0  0  0
    2.2578    1.3545   -1.2941 H   0  0  0  0  0  0  0  0  0  0  0  0
   -0.6270    0.2578    1.9571 H   0  0  0  0  0  0  0  0  0  0  0  0
   -0.8305    1.9201    1.4796 H   0  0  0  0  0  0  0  0  0  0  0  0
   -6.4237   -3.4391    0.3070 H   0  0  0  0  0  0  0  0  0  0  0  0
   -7.4902   -1.8209   -1.2407 H   0  0  0  0  0  0  0  0  0  0  0  0
   -6.3786    0.3105   -1.7800 H   0  0  0  0  0  0  0  0  0  0  0  0
   -2.9604    3.2439   -1.1747 H   0  0  0  0  0  0  0  0  0  0  0  0
   -1.6643    3.0183   -0.1141 H   0  0  0  0  0  0  0  0  0  0  0  0
   -0.8449    0.8937    1.0990 C   0  0  0  0  0  0  0  0  0  0  0  0
  2  1  2  0
  1 18  1  0
  1 23  1  0
  3  2  1  0
  5  2  1  0
 21  3  1  0
  3 20  2  0
 22  4  1  0
  4 21  2  0
  4 17  1  0
 17  5  2  0
  5 24  1  0
  6 15  1  0
  6 48  1  0
  6 25  1  0
  6 26  1  0
 14  7  1  0
 13  7  1  0
  7 27  1  0
  7 28  1  0
  8 11  1  0
  8  9  1  0
  8 29  1  0
  8 30  1  0
  9 10  1  0
  9 31  1  0
  9 32  1  0
 10 12  1  0
 10 33  1  0
 10 34  1  0
 11 13  1  0
 11 35  1  0
 11 36  1  0
 13 12  1  0
 12 37  1  0
 12 38  1  0
 13 39  1  6
 14 15  1  0
 14 40  1  0
 15 16  2  0
 48 17  1  0
 48 41  1  0
 48 42  1  0
 19 18  2  0
 18 43  1  0
 20 19  1  0
 19 44  1  0
 20 45  1  0
 22 46  1  0
 22 47  1  0
M  END
