
     RDKit          3D

 18 18  0  0  0  0  0  0  0  0999 V2000
   -0.1196   -0.5614   -0.1213 C   0  0  0  0  0  0  0  0  0  0  0  0
    1.8071    0.9937    0.0519 C   0  0  0  0  0  0  0  0  0  0  0  0
    0.3477    0.7524   -0.0404 C   0  0  0  0  0  0  0  0  0  0  0  0
   -0.5696    1.7985    0.0310 C   0  0  0  0  0  0  0  0  0  0  0  0
   -1.9315    1.5520    0.0271 C   0  0  0  0  0  0  0  0  0  0  0  0
   -2.3603    0.2419   -0.0441 C   0  0  0  0  0  0  0  0  0  0  0  0
   -1.4807   -0.8220   -0.1169 C   0  0  0  0  0  0  0  0  0  0  0  0
    0.7950   -1.7299   -0.3302 C   0  0  0  0  0  0  0  0  0  0  0  0
   -3.6701   -0.0127   -0.0444 F   0  0  0  0  0  0  0  0  0  0  0  0
    2.6020    0.1214    0.3070 O   0  0  0  0  0  0  0  0  0  0  0  0
    2.1405    2.2555   -0.1566 O   0  0  0  0  0  0  0  0  0  0  0  0
    0.8606   -2.4982    0.7411 O   0  0  0  0  0  0  0  0  0  0  0  0
    1.3198   -1.9673   -1.3852 O   0  0  0  0  0  0  0  0  0  0  0  0
   -0.2281    2.8211    0.1058 H   0  0  0  0  0  0  0  0  0  0  0  0
   -2.6438    2.3635    0.0853 H   0  0  0  0  0  0  0  0  0  0  0  0
   -1.8602   -1.8338   -0.1811 H   0  0  0  0  0  0  0  0  0  0  0  0
    3.0974    2.3700   -0.0521 H   0  0  0  0  0  0  0  0  0  0  0  0
    1.4094   -3.2783    0.5631 H   0  0  0  0  0  0  0  0  0  0  0  0
 13  8  2  0
 10  2  2  0
  8  1  1  0
  8 12  1  0
  1  7  2  0
  1  3  1  0
  2  3  1  0
  2 11  1  0
  7  6  1  0
  3  4  2  0
  6  9  1  0
  6  5  2  0
  4  5  1  0
  4 14  1  0
  5 15  1  0
  7 16  1  0
 11 17  1  0
 12 18  1  0
M  END
