
     RDKit          3D

 51 55  0  0  0  0  0  0  0  0999 V2000
    8.1954    2.7688    1.4143 C   0  0  0  0  0  0  0  0  0  0  0  0
    7.8099    2.7219    0.0308 N   0  0  0  0  0  0  0  0  0  0  0  0
    6.9176    1.8496   -0.4852 C   0  0  0  0  0  0  0  0  0  0  0  0
    6.2488    0.9107    0.3241 C   0  0  0  0  0  0  0  0  0  0  0  0
    5.3398    0.0439   -0.2571 C   0  0  0  0  0  0  0  0  0  0  0  0
    5.1156    0.1323   -1.6345 C   0  0  0  0  0  0  0  0  0  0  0  0
    5.8258    1.0856   -2.3393 C   0  0  0  0  0  0  0  0  0  0  0  0
    6.6993    1.9261   -1.8015 N   0  0  0  0  0  0  0  0  0  0  0  0
    4.6743   -0.9711    0.5831 C   0  0  0  0  0  0  0  0  0  0  0  0
    5.4052   -1.7649    1.4540 C   0  0  0  0  0  0  0  0  0  0  0  0
    4.7702   -2.7157    2.2442 C   0  0  0  0  0  0  0  0  0  0  0  0
    3.3995   -2.8306    2.1344 C   0  0  0  0  0  0  0  0  0  0  0  0
    2.6726   -2.0704    1.3182 N   0  0  0  0  0  0  0  0  0  0  0  0
    3.2859   -1.1824    0.5752 C   0  0  0  0  0  0  0  0  0  0  0  0
    2.5523   -0.3879   -0.2300 O   0  0  0  0  0  0  0  0  0  0  0  0
    1.1987   -0.6116   -0.3523 C   0  0  0  0  0  0  0  0  0  0  0  0
    0.3158    0.2887    0.2112 C   0  0  0  0  0  0  0  0  0  0  0  0
   -1.0550    0.1349    0.0441 C   0  0  0  0  0  0  0  0  0  0  0  0
   -1.5485   -0.9433   -0.6891 C   0  0  0  0  0  0  0  0  0  0  0  0
   -2.9006   -1.1907   -0.9073 N   0  0  0  0  0  0  0  0  0  0  0  0
   -3.9717   -0.4816   -0.4815 C   0  0  0  0  0  0  0  0  0  0  0  0
   -3.9694    0.6189    0.2228 N   0  0  0  0  0  0  0  0  0  0  0  0
   -5.2953    0.9418    0.3923 C   0  0  0  0  0  0  0  0  0  0  0  0
   -5.8807    2.0109    1.0609 C   0  0  0  0  0  0  0  0  0  0  0  0
   -7.2650    2.0995    1.0792 C   0  0  0  0  0  0  0  0  0  0  0  0
   -8.0422    1.1402    0.4436 C   0  0  0  0  0  0  0  0  0  0  0  0
   -9.3805    1.2412    0.4709 F   0  0  0  0  0  0  0  0  0  0  0  0
   -7.4779    0.0702   -0.2261 C   0  0  0  0  0  0  0  0  0  0  0  0
   -8.2404   -0.8457   -0.8328 F   0  0  0  0  0  0  0  0  0  0  0  0
   -6.1016   -0.0173   -0.2442 C   0  0  0  0  0  0  0  0  0  0  0  0
   -5.2299   -0.9158   -0.7954 N   0  0  0  0  0  0  0  0  0  0  0  0
   -0.6414   -1.8464   -1.2545 C   0  0  0  0  0  0  0  0  0  0  0  0
    0.7202   -1.6838   -1.0905 C   0  0  0  0  0  0  0  0  0  0  0  0
    7.3591    3.0275    2.0695 H   0  0  0  0  0  0  0  0  0  0  0  0
    8.6142    1.8205    1.7613 H   0  0  0  0  0  0  0  0  0  0  0  0
    8.9587    3.5324    1.5346 H   0  0  0  0  0  0  0  0  0  0  0  0
    8.2537    3.3486   -0.6183 H   0  0  0  0  0  0  0  0  0  0  0  0
    6.4315    0.8718    1.3898 H   0  0  0  0  0  0  0  0  0  0  0  0
    4.4308   -0.5263   -2.1483 H   0  0  0  0  0  0  0  0  0  0  0  0
    5.6819    1.1752   -3.4112 H   0  0  0  0  0  0  0  0  0  0  0  0
    6.4808   -1.6491    1.5011 H   0  0  0  0  0  0  0  0  0  0  0  0
    5.3286   -3.3476    2.9196 H   0  0  0  0  0  0  0  0  0  0  0  0
    2.8534   -3.5576    2.7238 H   0  0  0  0  0  0  0  0  0  0  0  0
    0.6897    1.1288    0.7829 H   0  0  0  0  0  0  0  0  0  0  0  0
   -1.7280    0.8508    0.4882 H   0  0  0  0  0  0  0  0  0  0  0  0
   -3.1061   -2.0200   -1.4427 H   0  0  0  0  0  0  0  0  0  0  0  0
   -5.2756    2.7586    1.5548 H   0  0  0  0  0  0  0  0  0  0  0  0
   -7.7585    2.9174    1.5871 H   0  0  0  0  0  0  0  0  0  0  0  0
   -5.4672   -1.7401   -1.3250 H   0  0  0  0  0  0  0  0  0  0  0  0
   -1.0067   -2.6896   -1.8288 H   0  0  0  0  0  0  0  0  0  0  0  0
    1.4014   -2.3932   -1.5426 H   0  0  0  0  0  0  0  0  0  0  0  0
 11 10  2  0
 11 12  1  0
 10  9  1  0
  6  7  2  0
  6  5  1  0
  7  8  1  0
 12 13  2  0
  9  5  1  0
  9 14  2  0
  5  4  2  0
  8  3  2  0
 13 14  1  0
 14 15  1  0
  4  3  1  0
 15 16  1  0
  3  2  1  0
 16 17  2  0
 16 33  1  0
  2  1  1  0
 17 18  1  0
 33 32  2  0
 18 19  2  0
 32 19  1  0
 19 20  1  0
 22 21  2  0
 22 23  1  0
 20 21  1  0
 24 23  2  0
 24 25  1  0
 21 31  1  0
 23 30  1  0
 25 26  2  0
 31 30  1  0
 30 28  2  0
 26 28  1  0
 26 27  1  0
 28 29  1  0
  1 34  1  0
  1 35  1  0
  1 36  1  0
  2 37  1  0
  4 38  1  0
  6 39  1  0
  7 40  1  0
 10 41  1  0
 11 42  1  0
 12 43  1  0
 17 44  1  0
 18 45  1  0
 20 46  1  0
 24 47  1  0
 25 48  1  0
 31 49  1  0
 32 50  1  0
 33 51  1  0
M  END
