
     RDKit          3D

 50 53  0  0  0  0  0  0  0  0999 V2000
    6.1377    0.9068    0.2993 O   0  0  0  0  0  0  0  0  0  0  0  0
   -3.4828   -2.1880   -2.1181 O   0  0  0  0  0  0  0  0  0  0  0  0
   -1.8011    4.8450    1.0139 O   0  0  0  0  0  0  0  0  0  0  0  0
    4.9849    0.6106   -1.5815 O   0  0  0  0  0  0  0  0  0  0  0  0
   -0.9419   -3.4890   -2.8311 O   0  0  0  0  0  0  0  0  0  0  0  0
    5.1549    0.0295    2.5356 O   0  0  0  0  0  0  0  0  0  0  0  0
   -1.1962    4.9086   -1.0306 O   0  0  0  0  0  0  0  0  0  0  0  0
   -5.0084   -0.2409    2.2239 C   0  0  0  0  0  0  0  0  0  0  0  0
   -5.1819    0.2826    0.9484 C   0  0  0  0  0  0  0  0  0  0  0  0
   -4.1562   -1.3188    2.4236 C   0  0  0  0  0  0  0  0  0  0  0  0
   -4.5078   -0.2716   -0.1282 C   0  0  0  0  0  0  0  0  0  0  0  0
   -3.4572   -1.8560    1.3526 C   0  0  0  0  0  0  0  0  0  0  0  0
    3.0692   -1.0147    2.4632 C   0  0  0  0  0  0  0  0  0  0  0  0
   -1.2190    0.8055    1.1949 C   0  0  0  0  0  0  0  0  0  0  0  0
   -0.5527    0.8782   -1.1114 C   0  0  0  0  0  0  0  0  0  0  0  0
    1.9765   -1.4663    1.7590 C   0  0  0  0  0  0  0  0  0  0  0  0
   -1.4272    2.1746    1.1902 C   0  0  0  0  0  0  0  0  0  0  0  0
   -0.7483    2.2456   -1.1350 C   0  0  0  0  0  0  0  0  0  0  0  0
    2.9098   -0.6230   -0.2820 C   0  0  0  0  0  0  0  0  0  0  0  0
    5.1472    0.4934   -0.2809 C   0  0  0  0  0  0  0  0  0  0  0  0
   -0.6378   -2.7383   -1.8006 C   0  0  0  0  0  0  0  0  0  0  0  0
   -2.8978   -1.9032   -1.0911 C   0  0  0  0  0  0  0  0  0  0  0  0
    0.7822   -2.5538   -1.3872 C   0  0  0  0  0  0  0  0  0  0  0  0
   -1.4476   -2.0563   -0.9705 C   0  0  0  0  0  0  0  0  0  0  0  0
    4.1210   -0.3713    1.8043 C   0  0  0  0  0  0  0  0  0  0  0  0
   -3.6279   -1.3317    0.0737 C   0  0  0  0  0  0  0  0  0  0  0  0
   -0.7918    0.1494    0.0495 C   0  0  0  0  0  0  0  0  0  0  0  0
    4.0389   -0.1799    0.4114 C   0  0  0  0  0  0  0  0  0  0  0  0
    1.8868   -1.2694    0.3799 C   0  0  0  0  0  0  0  0  0  0  0  0
   -1.1901    2.8774    0.0204 C   0  0  0  0  0  0  0  0  0  0  0  0
   -0.6003   -1.3495    0.0592 C   0  0  2  0  0  0  0  0  0  0  0  0
    0.7520   -1.7204   -0.3243 N   0  0  0  0  0  0  0  0  0  0  0  0
   -1.4114    4.3157    0.0001 N   0  0  0  0  0  0  0  0  0  0  0  0
    5.7515    1.0502   -1.9804 H   0  0  0  0  0  0  0  0  0  0  0  0
   -0.1351   -3.8722   -3.2097 H   0  0  0  0  0  0  0  0  0  0  0  0
    5.8030    0.4658    1.9432 H   0  0  0  0  0  0  0  0  0  0  0  0
   -5.5416    0.1896    3.0615 H   0  0  0  0  0  0  0  0  0  0  0  0
   -5.8461    1.1227    0.7945 H   0  0  0  0  0  0  0  0  0  0  0  0
   -4.0320   -1.7392    3.4127 H   0  0  0  0  0  0  0  0  0  0  0  0
   -4.6438    0.1374   -1.1212 H   0  0  0  0  0  0  0  0  0  0  0  0
   -2.7986   -2.7011    1.5128 H   0  0  0  0  0  0  0  0  0  0  0  0
    3.1296   -1.1662    3.5328 H   0  0  0  0  0  0  0  0  0  0  0  0
   -1.4052    0.2467    2.1026 H   0  0  0  0  0  0  0  0  0  0  0  0
   -0.2172    0.3828   -2.0138 H   0  0  0  0  0  0  0  0  0  0  0  0
    1.1844   -1.9810    2.2876 H   0  0  0  0  0  0  0  0  0  0  0  0
   -1.7683    2.6693    2.0873 H   0  0  0  0  0  0  0  0  0  0  0  0
   -0.5608    2.8009   -2.0421 H   0  0  0  0  0  0  0  0  0  0  0  0
    2.8309   -0.4488   -1.3459 H   0  0  0  0  0  0  0  0  0  0  0  0
   -0.8090   -1.7301    1.0635 H   0  0  0  0  0  0  0  0  0  0  0  0
    1.7412   -3.0653   -1.9264 O   0  0  0  0  0  0  0  0  0  0  0  0
  1 20  2  0
  2 22  2  0
 50 23  2  0
  3 33  2  0
  4 20  1  0
  5 21  1  0
  6 25  1  0
  7 33  1  0
  8  9  2  0
  8 10  1  0
  9 11  1  0
 10 12  2  0
 11 26  2  0
 12 26  1  0
 13 16  2  0
 13 25  1  0
 14 17  2  0
 14 27  1  0
 15 18  1  0
 15 27  2  0
 16 29  1  0
 17 30  1  0
 18 30  2  0
 19 28  1  0
 19 29  2  0
 20 28  1  0
 21 23  1  0
 21 24  2  0
 22 24  1  0
 22 26  1  0
 23 32  1  0
 24 31  1  0
 25 28  2  0
 27 31  1  0
 29 32  1  0
 30 33  1  0
 31 32  1  0
  4 34  1  0
  5 35  1  0
  6 36  1  0
  8 37  1  0
  9 38  1  0
 10 39  1  0
 11 40  1  0
 12 41  1  0
 13 42  1  0
 14 43  1  0
 15 44  1  0
 16 45  1  0
 17 46  1  0
 18 47  1  0
 19 48  1  0
 31 49  1  1
M  CHG  2   7  -1  33   1
M  END
