
     RDKit          3D

 31 32  0  0  0  0  0  0  0  0999 V2000
    5.7158    0.8105   -0.3413 C   0  0  0  0  0  0  0  0  0  0  0  0
   -4.0321    0.1997    1.7839 C   0  0  0  0  0  0  0  0  0  0  0  0
   -3.8353   -0.7798   -1.5408 O   0  0  0  0  0  0  0  0  0  0  0  0
    2.7211    1.2533   -0.1859 C   0  0  0  0  0  0  0  0  0  0  0  0
   -1.6083   -1.2181    0.5040 C   0  0  0  0  0  0  0  0  0  0  0  0
    1.4077    1.6348   -0.1425 C   0  0  0  0  0  0  0  0  0  0  0  0
   -0.3017   -1.6105    0.4595 C   0  0  0  0  0  0  0  0  0  0  0  0
    2.0908   -1.0421    0.1923 C   0  0  0  0  0  0  0  0  0  0  0  0
   -0.9865    1.0663    0.1217 C   0  0  0  0  0  0  0  0  0  0  0  0
    4.7419   -0.6784   -0.0541 S   0  0  0  0  0  0  0  0  0  0  0  0
   -4.2342    0.0010   -0.7146 C   0  0  0  0  0  0  0  0  0  0  0  0
    3.0768   -0.1047   -0.0166 C   0  0  0  0  0  0  0  0  0  0  0  0
   -1.9729    0.1415    0.3333 C   0  0  0  0  0  0  0  0  0  0  0  0
    0.7330   -0.6671    0.2405 C   0  0  0  0  0  0  0  0  0  0  0  0
    0.3777    0.6939    0.0704 C   0  0  0  0  0  0  0  0  0  0  0  0
   -3.4136    0.5670    0.4268 C   0  0  2  0  0  0  0  0  0  0  0  0
    5.5871    1.5388    0.4566 H   0  0  0  0  0  0  0  0  0  0  0  0
    6.7541    0.4846   -0.3491 H   0  0  0  0  0  0  0  0  0  0  0  0
    5.4891    1.2659   -1.3033 H   0  0  0  0  0  0  0  0  0  0  0  0
   -4.0676   -0.8797    1.9321 H   0  0  0  0  0  0  0  0  0  0  0  0
   -3.4318    0.6299    2.5843 H   0  0  0  0  0  0  0  0  0  0  0  0
   -5.0443    0.5881    1.8815 H   0  0  0  0  0  0  0  0  0  0  0  0
   -5.9809    0.0900   -1.4357 H   0  0  0  0  0  0  0  0  0  0  0  0
    3.4803    2.0050   -0.3471 H   0  0  0  0  0  0  0  0  0  0  0  0
   -2.3751   -1.9631    0.6750 H   0  0  0  0  0  0  0  0  0  0  0  0
    1.1521    2.6795   -0.2733 H   0  0  0  0  0  0  0  0  0  0  0  0
   -0.0440   -2.6543    0.5920 H   0  0  0  0  0  0  0  0  0  0  0  0
    2.3460   -2.0878    0.3266 H   0  0  0  0  0  0  0  0  0  0  0  0
   -1.2414    2.1124   -0.0101 H   0  0  0  0  0  0  0  0  0  0  0  0
   -3.4587    1.6572    0.3305 H   0  0  0  0  0  0  0  0  0  0  0  0
   -5.4741    0.4763   -0.7060 O   0  0  0  0  0  0  0  0  0  0  0  0
 10  1  1  0
  1 17  1  0
  1 18  1  0
  1 19  1  0
  2 16  1  0
  2 20  1  0
  2 21  1  0
  2 22  1  0
 11 31  1  0
 31 23  1  0
  3 11  2  0
  6  4  2  0
  4 12  1  0
  4 24  1  0
 13  5  2  0
  5  7  1  0
  5 25  1  0
 15  6  1  0
  6 26  1  0
  7 14  2  0
  7 27  1  0
 14  8  1  0
  8 12  2  0
  8 28  1  0
 13  9  1  0
  9 15  2  0
  9 29  1  0
 12 10  1  0
 16 11  1  0
 16 13  1  0
 15 14  1  0
 16 30  1  6
M  END
