
     RDKit          3D

 35 34  0  0  0  0  0  0  0  0999 V2000
    5.0792   -1.4159   -0.8917 O   0  0  0  0  0  0  0  0  0  0  0  0
    3.9961   -1.4199   -0.3006 C   0  0  0  0  0  0  0  0  0  0  0  0
    3.3472   -0.2893    0.4984 C   0  0  1  0  0  0  0  0  0  0  0  0
    4.2906    0.6792    0.9968 N   0  0  0  0  0  0  0  0  0  0  0  0
    2.2432    0.3252   -0.3663 C   0  0  0  0  0  0  0  0  0  0  0  0
    1.3349    1.4761    0.6146 S   0  0  0  0  0  0  0  0  0  0  0  0
   -0.2652    1.6149   -0.2455 C   0  0  1  0  0  0  0  0  0  0  0  0
   -0.0744    1.7729   -1.6742 N   0  0  0  0  0  0  0  0  0  0  0  0
   -1.1615    0.5808    0.2575 N   0  0  0  0  0  0  0  0  0  0  0  0
   -2.5244    0.6638   -0.2215 C   0  0  0  0  0  0  0  0  0  0  0  0
   -3.4288   -0.4126    0.3768 C   0  0  0  0  0  0  0  0  0  0  0  0
   -4.8394   -0.2500   -0.1458 C   0  0  0  0  0  0  0  0  0  0  0  0
   -5.7500   -1.3134    0.4663 C   0  0  0  0  0  0  0  0  0  0  0  0
   -7.1248   -1.1972    0.0438 N   0  0  0  0  0  0  0  0  0  0  0  0
    3.2690   -2.5693   -0.3540 O   0  0  0  0  0  0  0  0  0  0  0  0
    2.8652   -0.7847    1.4000 H   0  0  0  0  0  0  0  0  0  0  0  0
    3.7470   -3.2348   -0.8769 H   0  0  0  0  0  0  0  0  0  0  0  0
    5.0529    0.2261    1.4611 H   0  0  0  0  0  0  0  0  0  0  0  0
    4.6430    1.2630    0.2640 H   0  0  0  0  0  0  0  0  0  0  0  0
    2.6772    0.8325   -1.2631 H   0  0  0  0  0  0  0  0  0  0  0  0
   -0.6562    2.6018    0.1561 H   0  0  0  0  0  0  0  0  0  0  0  0
   -0.1721    0.9120   -2.1736 H   0  0  0  0  0  0  0  0  0  0  0  0
   -0.6977    2.4552   -2.0586 H   0  0  0  0  0  0  0  0  0  0  0  0
   -0.7838   -0.3393    0.1361 H   0  0  0  0  0  0  0  0  0  0  0  0
   -2.9261    1.6782    0.0651 H   0  0  0  0  0  0  0  0  0  0  0  0
   -2.5897    0.5876   -1.3491 H   0  0  0  0  0  0  0  0  0  0  0  0
   -3.0413   -1.4318    0.1126 H   0  0  0  0  0  0  0  0  0  0  0  0
   -3.4259   -0.3325    1.4959 H   0  0  0  0  0  0  0  0  0  0  0  0
   -5.2244    0.7724    0.1100 H   0  0  0  0  0  0  0  0  0  0  0  0
   -4.8430   -0.3392   -1.2642 H   0  0  0  0  0  0  0  0  0  0  0  0
   -5.3082   -2.3284    0.2295 H   0  0  0  0  0  0  0  0  0  0  0  0
   -5.7332   -1.2018    1.5886 H   0  0  0  0  0  0  0  0  0  0  0  0
   -7.1968   -1.1846   -0.9535 H   0  0  0  0  0  0  0  0  0  0  0  0
   -7.6651   -1.9576    0.4043 H   0  0  0  0  0  0  0  0  0  0  0  0
    1.5775   -0.4987   -0.7270 H   0  0  0  0  0  0  0  0  0  0  0  0
  1  2  2  0
  2  3  1  0
  2 15  1  0
  3  4  1  0
  3  5  1  0
  3 16  1  1
  4 18  1  0
  4 19  1  0
  5  6  1  0
  5 20  1  0
  5 35  1  0
  6  7  1  0
  7  8  1  0
  7  9  1  0
  7 21  1  1
  8 22  1  0
  8 23  1  0
  9 10  1  0
  9 24  1  0
 10 11  1  0
 10 25  1  0
 10 26  1  0
 11 12  1  0
 11 27  1  0
 11 28  1  0
 12 13  1  0
 12 29  1  0
 12 30  1  0
 13 14  1  0
 13 31  1  0
 13 32  1  0
 14 33  1  0
 14 34  1  0
 15 17  1  0
M  END
