
     RDKit          3D

 27 27  0  0  0  0  0  0  0  0999 V2000
    3.8863    0.1594   -0.1947 C   0  0  0  0  0  0  0  0  0  0  0  0
    4.6459   -0.7724   -0.2570 O   0  0  0  0  0  0  0  0  0  0  0  0
    4.2447    1.3916    0.1337 O   0  0  0  0  0  0  0  0  0  0  0  0
    2.3918    0.0578   -0.4589 C   0  0  1  0  0  0  0  0  0  0  0  0
    2.0834   -1.1238   -1.1298 O   0  0  0  0  0  0  0  0  0  0  0  0
    1.6197    0.2196    0.8635 C   0  0  0  0  0  0  0  0  0  0  0  0
    0.1376    0.1583    0.6382 C   0  0  0  0  0  0  0  0  0  0  0  0
   -0.5577   -1.0458    0.7219 C   0  0  0  0  0  0  0  0  0  0  0  0
   -1.9208   -1.0983    0.4848 C   0  0  0  0  0  0  0  0  0  0  0  0
   -2.6280    0.0514    0.1395 C   0  0  0  0  0  0  0  0  0  0  0  0
   -1.9364    1.2584    0.0572 C   0  0  0  0  0  0  0  0  0  0  0  0
   -0.5729    1.3072    0.3061 C   0  0  0  0  0  0  0  0  0  0  0  0
   -4.0935   -0.0345   -0.1078 C   0  0  0  0  0  0  0  0  0  0  0  0
   -4.6139    0.9635   -0.8825 N   0  0  0  0  0  0  0  0  0  0  0  0
   -4.7544   -0.9795    0.4430 N   0  0  0  0  0  0  0  0  0  0  0  0
    5.1938    1.4271    0.3276 H   0  0  0  0  0  0  0  0  0  0  0  0
    1.9284   -0.5642    1.5617 H   0  0  0  0  0  0  0  0  0  0  0  0
    1.8870    1.1747    1.3184 H   0  0  0  0  0  0  0  0  0  0  0  0
   -0.0310   -1.9540    0.9884 H   0  0  0  0  0  0  0  0  0  0  0  0
   -2.4463   -2.0410    0.5589 H   0  0  0  0  0  0  0  0  0  0  0  0
   -2.4564    2.1782   -0.1777 H   0  0  0  0  0  0  0  0  0  0  0  0
   -0.0570    2.2588    0.2492 H   0  0  0  0  0  0  0  0  0  0  0  0
   -4.0192    1.3923   -1.5726 H   0  0  0  0  0  0  0  0  0  0  0  0
   -5.5686    0.8583   -1.1877 H   0  0  0  0  0  0  0  0  0  0  0  0
   -5.7338   -0.9481    0.1724 H   0  0  0  0  0  0  0  0  0  0  0  0
    2.1108    0.8785   -1.1258 H   0  0  0  0  0  0  0  0  0  0  0  0
    2.3372   -1.8750   -0.5822 H   0  0  0  0  0  0  0  0  0  0  0  0
  1  2  2  0
  1  3  1  0
  1  4  1  0
  3 16  1  0
  4  5  1  0
  4  6  1  0
  6  7  1  0
  6 17  1  0
  6 18  1  0
  7  8  2  0
  7 12  1  0
  8  9  1  0
  8 19  1  0
  9 10  2  0
  9 20  1  0
 10 11  1  0
 10 13  1  0
 11 12  2  0
 11 21  1  0
 12 22  1  0
 13 14  1  0
 13 15  2  0
 14 23  1  0
 14 24  1  0
 15 25  1  0
  4 26  1  6
  5 27  1  0
M  END
