
     RDKit          3D

 20 19  0  0  0  0  0  0  0  0999 V2000
   -2.9585    0.2684    1.3318 O   0  0  0  0  0  0  0  0  0  0  0  0
    1.6742    0.6582   -0.0643 C   0  0  0  0  0  0  0  0  0  0  0  0
    1.9880   -1.7121    0.2067 C   0  0  0  0  0  0  0  0  0  0  0  0
    1.1192   -0.4963    0.3137 C   0  0  0  0  0  0  0  0  0  0  0  0
   -0.2900   -0.6112    0.8151 C   0  0  0  0  0  0  0  0  0  0  0  0
    0.9471    1.9448   -0.0771 C   0  0  0  0  0  0  0  0  0  0  0  0
   -1.2883   -0.3489   -0.2808 C   0  0  0  0  0  0  0  0  0  0  0  0
   -2.6340    0.2243    0.1757 C   0  0  0  0  0  0  0  0  0  0  0  0
    3.1684   -1.6754   -0.0315 O   0  0  0  0  0  0  0  0  0  0  0  0
   -3.3609    0.6206   -0.8441 O   0  0  0  0  0  0  0  0  0  0  0  0
   -1.1053   -0.6198   -1.4355 O   0  0  0  0  0  0  0  0  0  0  0  0
   -0.2512    2.0723    0.0344 O   0  0  0  0  0  0  0  0  0  0  0  0
    1.7777    2.9602   -0.2397 O   0  0  0  0  0  0  0  0  0  0  0  0
    1.3081   -2.8309    0.3852 O   0  0  0  0  0  0  0  0  0  0  0  0
    2.7053    0.6806   -0.3921 H   0  0  0  0  0  0  0  0  0  0  0  0
   -0.4968   -1.6113    1.2023 H   0  0  0  0  0  0  0  0  0  0  0  0
   -0.4500    0.0672    1.6518 H   0  0  0  0  0  0  0  0  0  0  0  0
   -4.2119    0.9695   -0.5368 H   0  0  0  0  0  0  0  0  0  0  0  0
    1.2882    3.7966   -0.2511 H   0  0  0  0  0  0  0  0  0  0  0  0
    1.8963   -3.5960    0.2959 H   0  0  0  0  0  0  0  0  0  0  0  0
  9  3  2  0
  3  4  1  0
  3 14  1  0
 12  6  2  0
  2  4  2  0
  2  6  1  0
  4  5  1  0
  6 13  1  0
 11  7  2  0
  5  7  1  0
  7  8  1  0
  8  1  2  0
  8 10  1  0
  2 15  1  0
  5 16  1  0
  5 17  1  0
 10 18  1  0
 13 19  1  0
 14 20  1  0
M  END
