
     RDKit          3D

 74 78  0  0  0  0  0  0  0  0999 V2000
    5.3912    0.1022   -0.7335 C   0  0  0  0  0  0  0  0  0  0  0  0
   -0.2327   -1.0111   -2.2842 C   0  0  0  0  0  0  0  0  0  0  0  0
    0.6124    0.1539   -1.7447 C   0  0  1  0  0  0  0  0  0  0  0  0
    3.0218    0.3110   -1.3016 C   0  0  0  0  0  0  0  0  0  0  0  0
   -0.7858   -1.9628   -1.2102 C   0  0  0  0  0  0  0  0  0  0  0  0
   -2.1472   -2.5728   -1.5840 C   0  0  0  0  0  0  0  0  0  0  0  0
   -0.1599    0.9471   -0.7192 C   0  0  0  0  0  0  0  0  0  0  0  0
   -0.7731    1.9313    1.0761 C   0  0  0  0  0  0  0  0  0  0  0  0
   -8.4441    0.9671    1.0414 C   0  0  0  0  0  0  0  0  0  0  0  0
   -3.3538    1.6727    0.7534 C   0  0  0  0  0  0  0  0  0  0  0  0
    8.8644   -0.3843    0.6643 C   0  0  0  0  0  0  0  0  0  0  0  0
    8.9119   -1.7565    0.8373 C   0  0  0  0  0  0  0  0  0  0  0  0
    7.7860   -2.5040    0.5267 C   0  0  0  0  0  0  0  0  0  0  0  0
    6.6356   -1.9121    0.0360 C   0  0  0  0  0  0  0  0  0  0  0  0
    6.5794   -0.5311   -0.1564 C   0  0  0  0  0  0  0  0  0  0  0  0
    7.7162    0.2130    0.1710 C   0  0  0  0  0  0  0  0  0  0  0  0
    7.7091    1.6194    0.0165 N   0  0  0  0  0  0  0  0  0  0  0  0
    8.5580    2.4036   -0.6566 C   0  0  0  0  0  0  0  0  0  0  0  0
    8.1909    3.6433   -0.4765 N   0  0  0  0  0  0  0  0  0  0  0  0
    7.1059    3.5972    0.3013 N   0  0  0  0  0  0  0  0  0  0  0  0
    6.8083    2.4006    0.6095 N   0  0  0  0  0  0  0  0  0  0  0  0
    4.1469   -0.3578   -0.5998 C   0  0  0  0  0  0  0  0  0  0  0  0
    3.1736    1.3171   -1.9817 O   0  0  0  0  0  0  0  0  0  0  0  0
    1.8439   -0.3238   -1.1683 N   0  0  0  0  0  0  0  0  0  0  0  0
    0.3158    1.4936    0.3720 N   0  0  0  0  0  0  0  0  0  0  0  0
   -1.9316    1.6379    0.4056 C   0  0  0  0  0  0  0  0  0  0  0  0
   -1.5027    1.0490   -0.7552 N   0  0  0  0  0  0  0  0  0  0  0  0
   -3.9926    2.8399    1.1469 C   0  0  0  0  0  0  0  0  0  0  0  0
   -5.3531    2.8713    1.4060 C   0  0  0  0  0  0  0  0  0  0  0  0
   -6.1037    1.7039    1.2760 C   0  0  0  0  0  0  0  0  0  0  0  0
   -5.4742    0.5046    0.9478 C   0  0  0  0  0  0  0  0  0  0  0  0
   -4.1077    0.4780    0.6770 C   0  0  0  0  0  0  0  0  0  0  0  0
   -7.4745    1.7851    1.5309 N   0  0  0  0  0  0  0  0  0  0  0  0
   -8.2721   -0.0145    0.3549 O   0  0  0  0  0  0  0  0  0  0  0  0
   -9.6386    1.4079    1.4329 O   0  0  0  0  0  0  0  0  0  0  0  0
  -10.7751    0.6681    0.9902 C   0  0  0  0  0  0  0  0  0  0  0  0
   -3.0260   -2.9756   -0.3848 C   0  0  0  0  0  0  0  0  0  0  0  0
   -4.0898   -1.9345    0.0328 C   0  0  1  0  0  0  0  0  0  0  0  0
   -3.4517   -0.6850    0.3187 N   0  0  0  0  0  0  0  0  0  0  0  0
   -5.0825   -1.7630   -1.1097 C   0  0  0  0  0  0  0  0  0  0  0  0
   -5.0224   -0.9120   -1.9589 O   0  0  0  0  0  0  0  0  0  0  0  0
   -6.0034   -2.7127   -1.0760 O   0  0  0  0  0  0  0  0  0  0  0  0
   -6.9874   -2.7140   -2.1108 C   0  0  0  0  0  0  0  0  0  0  0  0
    5.5476    0.9939   -1.3305 H   0  0  0  0  0  0  0  0  0  0  0  0
   -1.0555   -0.5817   -2.8632 H   0  0  0  0  0  0  0  0  0  0  0  0
    0.3670   -1.5591   -3.0132 H   0  0  0  0  0  0  0  0  0  0  0  0
    0.8756    0.7952   -2.5891 H   0  0  0  0  0  0  0  0  0  0  0  0
   -0.0683   -2.7642   -1.0193 H   0  0  0  0  0  0  0  0  0  0  0  0
   -0.8738   -1.4320   -0.2605 H   0  0  0  0  0  0  0  0  0  0  0  0
   -2.6896   -1.8704   -2.2199 H   0  0  0  0  0  0  0  0  0  0  0  0
   -1.9768   -3.4512   -2.2096 H   0  0  0  0  0  0  0  0  0  0  0  0
   -0.6759    2.3983    2.0444 H   0  0  0  0  0  0  0  0  0  0  0  0
    9.7224    0.2202    0.9269 H   0  0  0  0  0  0  0  0  0  0  0  0
    9.8050   -2.2297    1.2153 H   0  0  0  0  0  0  0  0  0  0  0  0
    5.7848   -2.5286   -0.2205 H   0  0  0  0  0  0  0  0  0  0  0  0
    9.3889    2.0439   -1.2400 H   0  0  0  0  0  0  0  0  0  0  0  0
    3.9256   -1.2234    0.0117 H   0  0  0  0  0  0  0  0  0  0  0  0
    1.7843   -1.0980   -0.5245 H   0  0  0  0  0  0  0  0  0  0  0  0
   -2.1200    0.6662   -1.4541 H   0  0  0  0  0  0  0  0  0  0  0  0
   -3.4199    3.7559    1.2119 H   0  0  0  0  0  0  0  0  0  0  0  0
   -5.8311    3.8037    1.6753 H   0  0  0  0  0  0  0  0  0  0  0  0
   -6.0488   -0.4085    0.9328 H   0  0  0  0  0  0  0  0  0  0  0  0
   -7.7885    2.6227    1.9985 H   0  0  0  0  0  0  0  0  0  0  0  0
  -11.6369    1.1624    1.4288 H   0  0  0  0  0  0  0  0  0  0  0  0
  -10.8652    0.6866   -0.0954 H   0  0  0  0  0  0  0  0  0  0  0  0
  -10.7398   -0.3654    1.3325 H   0  0  0  0  0  0  0  0  0  0  0  0
   -3.5466   -3.9106   -0.5918 H   0  0  0  0  0  0  0  0  0  0  0  0
   -2.3887   -3.1797    0.4804 H   0  0  0  0  0  0  0  0  0  0  0  0
   -4.6350   -2.3464    0.8932 H   0  0  0  0  0  0  0  0  0  0  0  0
   -2.5352   -0.7849    0.7252 H   0  0  0  0  0  0  0  0  0  0  0  0
   -7.5947   -1.8107   -2.0728 H   0  0  0  0  0  0  0  0  0  0  0  0
   -6.5311   -2.8045   -3.0959 H   0  0  0  0  0  0  0  0  0  0  0  0
   -7.6150   -3.5801   -1.9242 H   0  0  0  0  0  0  0  0  0  0  0  0
    7.8231   -4.2183    0.7373 Cl  0  0  0  0  0  0  0  0  0  0  0  0
 19 18  2  0
 19 20  1  0
 18 17  1  0
 20 21  2  0
 17 21  1  0
 17 16  1  0
 16 11  2  0
 16 15  1  0
 11 12  1  0
 25  8  1  0
 25  7  2  0
  2  5  1  0
  2  3  1  0
 12 13  2  0
 15  1  1  0
 15 14  2  0
  5  6  1  0
  8 26  2  0
  1 22  2  0
 43 42  1  0
 42 40  1  0
 24  3  1  0
 24  4  1  0
  7  3  1  0
  7 27  1  0
 13 14  1  0
 13 74  1  0
 22  4  1  0
 26 27  1  0
 26 10  1  0
  6 37  1  0
  4 23  2  0
 40 38  1  0
 40 41  2  0
 38 37  1  0
 38 39  1  0
 10 28  1  0
 10 32  2  0
 28 29  2  0
 39 32  1  0
 32 31  1  0
 29 30  1  0
 31 30  2  0
 30 33  1  0
 34  9  2  0
 33  9  1  0
  9 35  1  0
 35 36  1  0
  1 44  1  0
  2 45  1  0
  2 46  1  0
  3 47  1  6
  5 48  1  0
  5 49  1  0
  6 50  1  0
  6 51  1  0
  8 52  1  0
 11 53  1  0
 12 54  1  0
 14 55  1  0
 18 56  1  0
 22 57  1  0
 24 58  1  0
 27 59  1  0
 28 60  1  0
 29 61  1  0
 31 62  1  0
 33 63  1  0
 36 64  1  0
 36 65  1  0
 36 66  1  0
 37 67  1  0
 37 68  1  0
 38 69  1  1
 39 70  1  0
 43 71  1  0
 43 72  1  0
 43 73  1  0
M  END
