
     RDKit          3D

 55 56  0  0  0  0  0  0  0  0999 V2000
   -0.6056    0.4815    2.2266 O   0  0  0  0  0  0  0  0  0  0  0  0
   -0.6160   -0.1350    1.1748 C   0  0  0  0  0  0  0  0  0  0  0  0
    0.6710   -0.4973    0.4442 C   0  0  2  0  0  0  0  0  0  0  0  0
    1.1366   -1.8892    0.9234 C   0  0  0  0  0  0  0  0  0  0  0  0
    2.3932   -2.3114    0.2200 C   0  0  0  0  0  0  0  0  0  0  0  0
    3.6441   -2.0320    0.7633 C   0  0  0  0  0  0  0  0  0  0  0  0
    4.8058   -2.3742    0.0836 C   0  0  0  0  0  0  0  0  0  0  0  0
    4.7307   -3.0053   -1.1504 C   0  0  0  0  0  0  0  0  0  0  0  0
    3.4872   -3.2933   -1.6995 C   0  0  0  0  0  0  0  0  0  0  0  0
    2.3296   -2.9447   -1.0188 C   0  0  0  0  0  0  0  0  0  0  0  0
    1.6660    0.5064    0.6858 N   0  0  0  0  0  0  0  0  0  0  0  0
    2.4461    1.0162   -0.2908 C   0  0  0  0  0  0  0  0  0  0  0  0
    3.3909    1.7963    0.2367 O   0  0  0  0  0  0  0  0  0  0  0  0
    4.2965    2.4827   -0.6469 C   0  0  1  0  0  0  0  0  0  0  0  0
    3.6617    3.7607   -1.1633 C   0  0  0  0  0  0  0  0  0  0  0  0
    5.5527    2.7486    0.1578 C   0  0  0  0  0  0  0  0  0  0  0  0
    2.3036    0.8086   -1.4777 O   0  0  0  0  0  0  0  0  0  0  0  0
   -1.7386   -0.5807    0.5841 N   0  0  0  0  0  0  0  0  0  0  0  0
   -3.0155   -0.5663    1.2397 C   0  0  2  0  0  0  0  0  0  0  0  0
   -3.1727   -1.7338    2.1888 C   0  0  0  0  0  0  0  0  0  0  0  0
   -2.3232   -2.5583    2.3970 O   0  0  0  0  0  0  0  0  0  0  0  0
   -4.1679   -0.5527    0.2344 C   0  0  0  0  0  0  0  0  0  0  0  0
   -4.1239    0.6646   -0.6761 C   0  0  2  0  0  0  0  0  0  0  0  0
   -4.1819    2.0166    0.0335 C   0  0  0  0  0  0  0  0  0  0  0  0
   -4.8731    2.9321   -0.9791 C   0  0  0  0  0  0  0  0  0  0  0  0
   -5.6853    2.0007   -1.7332 N   0  0  0  0  0  0  0  0  0  0  0  0
   -5.3066    0.7178   -1.6324 C   0  0  0  0  0  0  0  0  0  0  0  0
   -5.8091   -0.2336   -2.2088 O   0  0  0  0  0  0  0  0  0  0  0  0
    0.4887   -0.5372   -0.6306 H   0  0  0  0  0  0  0  0  0  0  0  0
    1.2982   -1.8541    2.0039 H   0  0  0  0  0  0  0  0  0  0  0  0
    0.3366   -2.6120    0.7484 H   0  0  0  0  0  0  0  0  0  0  0  0
    3.7117   -1.5454    1.7289 H   0  0  0  0  0  0  0  0  0  0  0  0
    5.7706   -2.1501    0.5205 H   0  0  0  0  0  0  0  0  0  0  0  0
    5.6357   -3.2742   -1.6798 H   0  0  0  0  0  0  0  0  0  0  0  0
    3.4191   -3.7911   -2.6585 H   0  0  0  0  0  0  0  0  0  0  0  0
    1.3625   -3.1669   -1.4555 H   0  0  0  0  0  0  0  0  0  0  0  0
    1.8903    0.7245    1.6444 H   0  0  0  0  0  0  0  0  0  0  0  0
    4.5400    1.8279   -1.4869 H   0  0  0  0  0  0  0  0  0  0  0  0
    3.4013    4.4287   -0.3402 H   0  0  0  0  0  0  0  0  0  0  0  0
    4.3668    4.2850   -1.8089 H   0  0  0  0  0  0  0  0  0  0  0  0
    2.7634    3.5617   -1.7467 H   0  0  0  0  0  0  0  0  0  0  0  0
    5.9970    1.8224    0.5228 H   0  0  0  0  0  0  0  0  0  0  0  0
    6.2895    3.2481   -0.4710 H   0  0  0  0  0  0  0  0  0  0  0  0
    5.3487    3.3964    1.0118 H   0  0  0  0  0  0  0  0  0  0  0  0
   -1.6518   -1.1513   -0.2438 H   0  0  0  0  0  0  0  0  0  0  0  0
   -3.0896    0.3334    1.8611 H   0  0  0  0  0  0  0  0  0  0  0  0
   -4.1523   -1.7698    2.6975 H   0  0  0  0  0  0  0  0  0  0  0  0
   -4.1504   -1.4681   -0.3629 H   0  0  0  0  0  0  0  0  0  0  0  0
   -5.1072   -0.5584    0.7939 H   0  0  0  0  0  0  0  0  0  0  0  0
   -3.2244    0.6180   -1.3029 H   0  0  0  0  0  0  0  0  0  0  0  0
   -4.7946    1.9380    0.9360 H   0  0  0  0  0  0  0  0  0  0  0  0
   -3.2036    2.3951    0.3250 H   0  0  0  0  0  0  0  0  0  0  0  0
   -5.4891    3.6936   -0.5023 H   0  0  0  0  0  0  0  0  0  0  0  0
   -4.1512    3.4391   -1.6251 H   0  0  0  0  0  0  0  0  0  0  0  0
   -6.3873    2.3020   -2.3915 H   0  0  0  0  0  0  0  0  0  0  0  0
 20 21  2  0
 20 19  1  0
 22 19  1  0
 22 23  1  0
 19 18  1  0
 28 27  2  0
 27 23  1  0
 27 26  1  0
 23 24  1  0
 24 25  1  0
 18  2  1  0
 26 25  1  0
  1  2  2  0
  2  3  1  0
  3  4  1  0
  3 11  1  0
  4  5  1  0
  5  6  2  0
  5 10  1  0
 11 12  1  0
 17 12  2  0
  6  7  1  0
 10  9  2  0
 12 13  1  0
  7  8  2  0
  9  8  1  0
 13 14  1  0
 16 14  1  0
 14 15  1  0
  3 29  1  6
  4 30  1  0
  4 31  1  0
  6 32  1  0
  7 33  1  0
  8 34  1  0
  9 35  1  0
 10 36  1  0
 11 37  1  0
 14 38  1  6
 15 39  1  0
 15 40  1  0
 15 41  1  0
 16 42  1  0
 16 43  1  0
 16 44  1  0
 18 45  1  0
 19 46  1  1
 20 47  1  0
 22 48  1  0
 22 49  1  0
 23 50  1  6
 24 51  1  0
 24 52  1  0
 25 53  1  0
 25 54  1  0
 26 55  1  0
M  END
