
     RDKit          3D

 73 75  0  0  0  0  0  0  0  0999 V2000
   -0.2102    0.6445   -3.0236 C   0  0  0  0  0  0  0  0  0  0  0  0
    4.5660   -0.3984    0.1052 C   0  0  0  0  0  0  0  0  0  0  0  0
    3.6070    1.2156   -0.9333 C   0  0  0  0  0  0  0  0  0  0  0  0
    5.4167   -0.9877    1.1625 C   0  0  0  0  0  0  0  0  0  0  0  0
    4.8714   -0.7542    2.5751 C   0  0  0  0  0  0  0  0  0  0  0  0
    3.3956   -0.4738    2.6887 C   0  0  0  0  0  0  0  0  0  0  0  0
    2.8123   -0.5459    4.0904 C   0  0  1  0  0  0  0  0  0  0  0  0
    1.3962   -0.0467    4.0505 C   0  0  0  0  0  0  0  0  0  0  0  0
   -0.4440    1.4238   -4.0785 C   0  0  0  0  0  0  0  0  0  0  0  0
    0.9065    1.0625    4.6171 C   0  0  0  0  0  0  0  0  0  0  0  0
    1.7112    2.0458    5.4194 C   0  0  0  0  0  0  0  0  0  0  0  0
   -0.5079    1.4433    4.4493 C   0  0  0  0  0  0  0  0  0  0  0  0
   -1.5464    0.6134    4.3727 C   0  0  0  0  0  0  0  0  0  0  0  0
   -2.9663    1.0716    4.2173 C   0  0  0  0  0  0  0  0  0  0  0  0
   -3.3946    1.1112    1.7974 C   0  0  0  0  0  0  0  0  0  0  0  0
   -4.0434    0.3696    0.6897 C   0  0  0  0  0  0  0  0  0  0  0  0
   -3.8387    0.6885   -0.5853 C   0  0  0  0  0  0  0  0  0  0  0  0
    0.8022    2.1681   -4.4509 C   0  0  0  0  0  0  0  0  0  0  0  0
   -4.4127   -0.0857   -1.7351 C   0  0  1  0  0  0  0  0  0  0  0  0
   -4.9838    0.8492   -2.7985 C   0  0  0  0  0  0  0  0  0  0  0  0
   -3.3770   -1.0806   -2.2861 C   0  0  1  0  0  0  0  0  0  0  0  0
   -3.9021   -2.0606   -3.3367 C   0  0  1  0  0  0  0  0  0  0  0  0
   -2.7846   -3.0006   -3.7875 C   0  0  0  0  0  0  0  0  0  0  0  0
   -5.0716   -2.8702   -2.7802 C   0  0  0  0  0  0  0  0  0  0  0  0
   -1.1977   -0.0916   -2.2053 C   0  0  0  0  0  0  0  0  0  0  0  0
    1.6983    1.9634   -3.2181 C   0  0  0  0  0  0  0  0  0  0  0  0
    1.7910   -0.2671   -2.0321 C   0  0  0  0  0  0  0  0  0  0  0  0
    3.0197    0.0420   -1.2731 C   0  0  0  0  0  0  0  0  0  0  0  0
   -3.5880    0.5628    3.0131 N   0  0  0  0  0  0  0  0  0  0  0  0
    1.1099    0.7891   -2.5583 N   0  0  0  0  0  0  0  0  0  0  0  0
    3.6627   -0.9755   -0.6001 N   0  0  0  0  0  0  0  0  0  0  0  0
    4.5972    0.9380   -0.0669 O   0  0  0  0  0  0  0  0  0  0  0  0
    2.8630   -1.9021    4.4903 O   0  0  0  0  0  0  0  0  0  0  0  0
   -2.7424    2.1339    1.6295 O   0  0  0  0  0  0  0  0  0  0  0  0
   -2.2906   -0.3622   -2.9017 O   0  0  0  0  0  0  0  0  0  0  0  0
   -1.0302   -0.3500   -1.0426 O   0  0  0  0  0  0  0  0  0  0  0  0
    1.3705   -1.4066   -2.0835 O   0  0  0  0  0  0  0  0  0  0  0  0
    3.4521    2.2508   -1.1860 H   0  0  0  0  0  0  0  0  0  0  0  0
    5.4433   -2.0697    1.0097 H   0  0  0  0  0  0  0  0  0  0  0  0
    6.4438   -0.6243    1.1096 H   0  0  0  0  0  0  0  0  0  0  0  0
    3.2314    0.5351    2.2932 H   0  0  0  0  0  0  0  0  0  0  0  0
    2.8446   -1.1400    2.0169 H   0  0  0  0  0  0  0  0  0  0  0  0
    3.4216    0.0747    4.7561 H   0  0  0  0  0  0  0  0  0  0  0  0
    0.7249   -0.6540    3.4478 H   0  0  0  0  0  0  0  0  0  0  0  0
   -1.3939    1.5377   -4.5780 H   0  0  0  0  0  0  0  0  0  0  0  0
    1.2055    2.2795    6.3578 H   0  0  0  0  0  0  0  0  0  0  0  0
    2.7124    1.6952    5.6574 H   0  0  0  0  0  0  0  0  0  0  0  0
    1.8128    2.9879    4.8753 H   0  0  0  0  0  0  0  0  0  0  0  0
   -0.7020    2.5136    4.4201 H   0  0  0  0  0  0  0  0  0  0  0  0
   -1.3955   -0.4607    4.4395 H   0  0  0  0  0  0  0  0  0  0  0  0
   -3.5649    0.7161    5.0579 H   0  0  0  0  0  0  0  0  0  0  0  0
   -3.0196    2.1611    4.2246 H   0  0  0  0  0  0  0  0  0  0  0  0
   -4.6634   -0.4857    0.9435 H   0  0  0  0  0  0  0  0  0  0  0  0
   -3.2162    1.5482   -0.8160 H   0  0  0  0  0  0  0  0  0  0  0  0
    1.2445    1.7519   -5.3613 H   0  0  0  0  0  0  0  0  0  0  0  0
    0.6161    3.2246   -4.6393 H   0  0  0  0  0  0  0  0  0  0  0  0
   -5.2259   -0.6946   -1.3328 H   0  0  0  0  0  0  0  0  0  0  0  0
   -5.6827    1.5524   -2.3452 H   0  0  0  0  0  0  0  0  0  0  0  0
   -4.2034    1.4296   -3.2916 H   0  0  0  0  0  0  0  0  0  0  0  0
   -5.5297    0.2999   -3.5656 H   0  0  0  0  0  0  0  0  0  0  0  0
   -2.9874   -1.6619   -1.4446 H   0  0  0  0  0  0  0  0  0  0  0  0
   -4.2531   -1.4998   -4.2091 H   0  0  0  0  0  0  0  0  0  0  0  0
   -3.1798   -3.7585   -4.4646 H   0  0  0  0  0  0  0  0  0  0  0  0
   -1.9869   -2.4777   -4.3131 H   0  0  0  0  0  0  0  0  0  0  0  0
   -2.3423   -3.5194   -2.9333 H   0  0  0  0  0  0  0  0  0  0  0  0
   -4.8040   -3.3562   -1.8388 H   0  0  0  0  0  0  0  0  0  0  0  0
   -5.9592   -2.2633   -2.6026 H   0  0  0  0  0  0  0  0  0  0  0  0
   -5.3550   -3.6541   -3.4831 H   0  0  0  0  0  0  0  0  0  0  0  0
    2.7385    1.7850   -3.4811 H   0  0  0  0  0  0  0  0  0  0  0  0
    1.6438    2.8332   -2.5599 H   0  0  0  0  0  0  0  0  0  0  0  0
   -4.1017   -0.3003    3.0808 H   0  0  0  0  0  0  0  0  0  0  0  0
    2.5472   -1.9562    5.3977 H   0  0  0  0  0  0  0  0  0  0  0  0
    5.6152   -0.8023    3.5217 O   0  0  0  0  0  0  0  0  0  0  0  0
  1  9  2  0
  1 25  1  0
  1 30  1  0
  2  4  1  0
  2 31  2  0
  2 32  1  0
  3 28  2  0
  3 32  1  0
  3 38  1  0
  4  5  1  0
  4 39  1  0
  4 40  1  0
  5  6  1  0
  5 73  2  0
  6  7  1  0
  6 41  1  0
  6 42  1  0
  7  8  1  0
  7 33  1  0
  7 43  1  1
  8 10  2  0
  8 44  1  0
  9 18  1  0
  9 45  1  0
 10 11  1  0
 10 12  1  0
 11 46  1  0
 11 47  1  0
 11 48  1  0
 12 13  2  0
 12 49  1  0
 13 14  1  0
 13 50  1  0
 14 29  1  0
 14 51  1  0
 14 52  1  0
 15 16  1  0
 15 29  1  0
 15 34  2  0
 16 17  2  0
 16 53  1  0
 17 19  1  0
 17 54  1  0
 18 26  1  0
 18 55  1  0
 18 56  1  0
 19 20  1  0
 19 21  1  0
 19 57  1  1
 20 58  1  0
 20 59  1  0
 20 60  1  0
 21 22  1  0
 21 35  1  0
 21 61  1  1
 22 23  1  0
 22 24  1  0
 22 62  1  6
 23 63  1  0
 23 64  1  0
 23 65  1  0
 24 66  1  0
 24 67  1  0
 24 68  1  0
 25 35  1  0
 25 36  2  0
 26 30  1  0
 26 69  1  0
 26 70  1  0
 27 28  1  0
 27 30  1  0
 27 37  2  0
 28 31  1  0
 29 71  1  0
 33 72  1  0
M  END
