
     RDKit          3D

 22 23  0  0  0  0  0  0  0  0999 V2000
    1.0956    2.1212    0.3422 C   0  0  0  0  0  0  0  0  0  0  0  0
    0.1579    1.0624    0.1541 C   0  0  0  0  0  0  0  0  0  0  0  0
   -1.1295    1.3851    0.0553 O   0  0  0  0  0  0  0  0  0  0  0  0
   -2.1247    0.3667   -0.0795 C   0  0  1  0  0  0  0  0  0  0  0  0
   -3.4100    1.0861   -0.4305 C   0  0  0  0  0  0  0  0  0  0  0  0
   -0.9450   -1.7676   -0.6297 N   0  0  0  0  0  0  0  0  0  0  0  0
    0.1807   -1.5109   -0.0853 C   0  0  0  0  0  0  0  0  0  0  0  0
    1.0017   -2.5505    0.2922 N   0  0  0  0  0  0  0  0  0  0  0  0
    0.7535   -0.1812    0.1184 C   0  0  0  0  0  0  0  0  0  0  0  0
    2.4757   -0.0256    0.3062 S   0  0  0  0  0  0  0  0  0  0  0  0
    2.3713    1.6723    0.4406 C   0  0  0  0  0  0  0  0  0  0  0  0
   -1.7367   -0.6785   -1.1329 C   0  0  0  0  0  0  0  0  0  0  0  0
    0.8095    3.1618    0.4008 H   0  0  0  0  0  0  0  0  0  0  0  0
   -2.2349   -0.1365    0.8880 H   0  0  0  0  0  0  0  0  0  0  0  0
   -3.3567    1.5304   -1.4260 H   0  0  0  0  0  0  0  0  0  0  0  0
   -4.2405    0.3817   -0.4200 H   0  0  0  0  0  0  0  0  0  0  0  0
   -3.6330    1.8738    0.2889 H   0  0  0  0  0  0  0  0  0  0  0  0
    0.5632   -3.4558    0.2119 H   0  0  0  0  0  0  0  0  0  0  0  0
    1.4869   -2.4464    1.1708 H   0  0  0  0  0  0  0  0  0  0  0  0
    3.2631    2.2633    0.5827 H   0  0  0  0  0  0  0  0  0  0  0  0
   -2.6613   -1.0987   -1.5334 H   0  0  0  0  0  0  0  0  0  0  0  0
   -1.2523   -0.1613   -1.9731 H   0  0  0  0  0  0  0  0  0  0  0  0
  1  2  1  0
  1 11  2  0
  2  3  1  0
  2  9  2  0
  3  4  1  0
  4  5  1  0
  4 12  1  0
  6  7  2  0
  6 12  1  0
  7  8  1  0
  7  9  1  0
  9 10  1  0
 10 11  1  0
  1 13  1  0
  4 14  1  1
  5 15  1  0
  5 16  1  0
  5 17  1  0
  8 18  1  0
  8 19  1  0
 11 20  1  0
 12 21  1  0
 12 22  1  0
M  END
