
     RDKit          3D

 58 58  0  0  0  0  0  0  0  0999 V2000
    5.8190   -1.3646    0.7275 C   0  0  0  0  0  0  0  0  0  0  0  0
    7.1981   -1.4439    0.8451 C   0  0  0  0  0  0  0  0  0  0  0  0
    5.1876   -1.7460   -0.4552 C   0  0  0  0  0  0  0  0  0  0  0  0
    3.6963   -1.6581   -0.5790 C   0  0  0  0  0  0  0  0  0  0  0  0
    2.0448    0.0261   -0.5398 C   0  0  0  0  0  0  0  0  0  0  0  0
   -2.9525    1.2173    0.4659 C   0  0  0  0  0  0  0  0  0  0  0  0
   -3.6015    0.0439    0.5274 N   0  0  0  0  0  0  0  0  0  0  0  0
   -4.4129   -2.0675   -0.3850 C   0  0  0  0  0  0  0  0  0  0  0  0
   -3.5081   -4.3153    0.1916 C   0  0  0  0  0  0  0  0  0  0  0  0
    7.9640   -1.9101   -0.2181 C   0  0  0  0  0  0  0  0  0  0  0  0
    7.3427   -2.2942   -1.3973 C   0  0  0  0  0  0  0  0  0  0  0  0
    5.9603   -2.2081   -1.5140 C   0  0  0  0  0  0  0  0  0  0  0  0
    0.5575    1.9342   -0.3206 C   0  0  0  0  0  0  0  0  0  0  0  0
    0.1923    2.1363    1.4626 P   0  0  1  0  0  0  0  0  0  0  0  0
    0.4743    0.9161    2.2596 O   0  0  0  0  0  0  0  0  0  0  0  0
    1.1294    3.3624    1.9259 O   0  0  0  0  0  0  0  0  0  0  0  0
   -1.3688    2.6794    1.6711 N   0  0  0  0  0  0  0  0  0  0  0  0
   -2.4644    1.7477    1.8161 C   0  0  1  0  0  0  0  0  0  0  0  0
   -3.6176    2.3966    2.5717 C   0  0  0  0  0  0  0  0  0  0  0  0
   -4.0851    3.4807    1.8103 O   0  0  0  0  0  0  0  0  0  0  0  0
    3.3487   -0.2706   -0.5462 O   0  0  0  0  0  0  0  0  0  0  0  0
    1.1574   -0.7979   -0.5804 O   0  0  0  0  0  0  0  0  0  0  0  0
    1.8627    1.3637   -0.5173 N   0  0  0  0  0  0  0  0  0  0  0  0
   -4.1791   -0.5738   -0.6325 C   0  0  1  0  0  0  0  0  0  0  0  0
   -3.1470   -2.8482   -0.0203 C   0  0  1  0  0  0  0  0  0  0  0  0
   -2.0537   -2.7063   -1.0734 C   0  0  0  0  0  0  0  0  0  0  0  0
   -5.4798    0.1185   -1.0101 C   0  0  0  0  0  0  0  0  0  0  0  0
   -5.8756   -0.2346   -2.2255 O   0  0  0  0  0  0  0  0  0  0  0  0
   -6.0834    0.8757   -0.2973 O   0  0  0  0  0  0  0  0  0  0  0  0
    5.2311   -1.0072    1.5647 H   0  0  0  0  0  0  0  0  0  0  0  0
    7.6774   -1.1441    1.7680 H   0  0  0  0  0  0  0  0  0  0  0  0
    3.3609   -2.1129   -1.5138 H   0  0  0  0  0  0  0  0  0  0  0  0
    3.2089   -2.1845    0.2450 H   0  0  0  0  0  0  0  0  0  0  0  0
   -3.7871   -0.3702    1.4278 H   0  0  0  0  0  0  0  0  0  0  0  0
   -5.1559   -2.1889    0.4103 H   0  0  0  0  0  0  0  0  0  0  0  0
   -4.8495   -2.5022   -1.2878 H   0  0  0  0  0  0  0  0  0  0  0  0
   -3.8772   -4.7663   -0.7325 H   0  0  0  0  0  0  0  0  0  0  0  0
   -2.6388   -4.8896    0.5152 H   0  0  0  0  0  0  0  0  0  0  0  0
   -4.2831   -4.4323    0.9514 H   0  0  0  0  0  0  0  0  0  0  0  0
    9.0403   -1.9746   -0.1241 H   0  0  0  0  0  0  0  0  0  0  0  0
    7.9308   -2.6584   -2.2297 H   0  0  0  0  0  0  0  0  0  0  0  0
    5.4799   -2.5080   -2.4377 H   0  0  0  0  0  0  0  0  0  0  0  0
   -0.1983    1.2899   -0.7656 H   0  0  0  0  0  0  0  0  0  0  0  0
    0.4894    2.8929   -0.8384 H   0  0  0  0  0  0  0  0  0  0  0  0
    1.1772    4.1189    1.3284 H   0  0  0  0  0  0  0  0  0  0  0  0
   -1.6250    3.5452    1.2134 H   0  0  0  0  0  0  0  0  0  0  0  0
   -2.1209    0.9077    2.4247 H   0  0  0  0  0  0  0  0  0  0  0  0
   -4.4004    1.6475    2.7428 H   0  0  0  0  0  0  0  0  0  0  0  0
   -3.2444    2.7097    3.5533 H   0  0  0  0  0  0  0  0  0  0  0  0
   -4.7425    3.9555    2.3267 H   0  0  0  0  0  0  0  0  0  0  0  0
    2.6670    1.9614   -0.4125 H   0  0  0  0  0  0  0  0  0  0  0  0
   -3.4885   -0.4606   -1.4722 H   0  0  0  0  0  0  0  0  0  0  0  0
   -2.7570   -2.4646    0.9287 H   0  0  0  0  0  0  0  0  0  0  0  0
   -1.6741   -1.6864   -1.1463 H   0  0  0  0  0  0  0  0  0  0  0  0
   -1.2009   -3.3410   -0.8289 H   0  0  0  0  0  0  0  0  0  0  0  0
   -2.4185   -3.0040   -2.0598 H   0  0  0  0  0  0  0  0  0  0  0  0
   -6.7221    0.1855   -2.4401 H   0  0  0  0  0  0  0  0  0  0  0  0
   -2.7489    1.8094   -0.5809 O   0  0  0  0  0  0  0  0  0  0  0  0
 11 12  2  0
 11 10  1  0
 12  3  1  0
 10  2  2  0
  3  4  1  0
  3  1  2  0
  2  1  1  0
  4 21  1  0
 21  5  1  0
 22  5  2  0
  5 23  1  0
 23 13  1  0
 13 14  1  0
 15 14  2  0
 14 16  1  1
 14 17  1  0
 29 27  2  0
 28 27  1  0
 27 24  1  0
 24  7  1  0
 24  8  1  0
 17 18  1  0
  7  6  1  0
  6 58  2  0
  6 18  1  0
 18 19  1  0
  8 25  1  0
 25 26  1  0
 25  9  1  0
 19 20  1  0
  1 30  1  0
  2 31  1  0
  4 32  1  0
  4 33  1  0
  7 34  1  0
  8 35  1  0
  8 36  1  0
  9 37  1  0
  9 38  1  0
  9 39  1  0
 10 40  1  0
 11 41  1  0
 12 42  1  0
 13 43  1  0
 13 44  1  0
 16 45  1  0
 17 46  1  0
 18 47  1  1
 19 48  1  0
 19 49  1  0
 20 50  1  0
 23 51  1  0
 24 52  1  6
 25 53  1  1
 26 54  1  0
 26 55  1  0
 26 56  1  0
 28 57  1  0
M  END
