
     RDKit          3D

 59 62  0  0  0  0  0  0  0  0999 V2000
    4.7903    1.2244    0.4555 C   0  0  0  0  0  0  0  0  0  0  0  0
    5.6987    0.2701    0.6959 N   0  0  0  0  0  0  0  0  0  0  0  0
    5.0251    2.4253    0.4311 O   0  0  0  0  0  0  0  0  0  0  0  0
   -0.8517    1.7955   -0.0592 C   0  0  0  0  0  0  0  0  0  0  0  0
   -0.4115    2.7760    0.4974 O   0  0  0  0  0  0  0  0  0  0  0  0
   -5.0260    1.1868   -0.7578 C   0  0  0  0  0  0  0  0  0  0  0  0
   -5.8724   -1.1569    1.0080 N   0  0  0  0  0  0  0  0  0  0  0  0
   -4.4513    2.3976   -1.1125 C   0  0  0  0  0  0  0  0  0  0  0  0
    1.8189   -0.6230   -0.0315 N   0  0  0  0  0  0  0  0  0  0  0  0
   -3.0994    2.6070   -0.9001 C   0  0  0  0  0  0  0  0  0  0  0  0
    3.1276   -0.5567    0.1826 N   0  0  0  0  0  0  0  0  0  0  0  0
   -2.3033    1.6040   -0.3551 C   0  0  0  0  0  0  0  0  0  0  0  0
   -2.9101    0.4007   -0.0166 C   0  0  0  0  0  0  0  0  0  0  0  0
   -4.2667    0.1611   -0.1988 C   0  0  0  0  0  0  0  0  0  0  0  0
   -4.8180   -1.1538    0.1989 C   0  0  0  0  0  0  0  0  0  0  0  0
   -6.3559   -2.3263    1.4023 C   0  0  0  0  0  0  0  0  0  0  0  0
   -5.8175   -3.5466    1.0171 C   0  0  0  0  0  0  0  0  0  0  0  0
   -4.7184   -3.5405    0.1739 C   0  0  0  0  0  0  0  0  0  0  0  0
   -4.2085   -2.3226   -0.2479 C   0  0  0  0  0  0  0  0  0  0  0  0
    1.1598   -1.8745   -0.1172 C   0  0  0  0  0  0  0  0  0  0  0  0
    1.2639    0.6118   -0.1634 C   0  0  0  0  0  0  0  0  0  0  0  0
    0.0834   -2.1395    0.7203 C   0  0  0  0  0  0  0  0  0  0  0  0
    1.6010   -2.8186   -1.0339 C   0  0  0  0  0  0  0  0  0  0  0  0
    3.4124    0.7306    0.2167 C   0  0  0  0  0  0  0  0  0  0  0  0
    2.2743    1.5263    0.0028 C   0  0  0  0  0  0  0  0  0  0  0  0
   -0.5709   -3.3590    0.6206 C   0  0  0  0  0  0  0  0  0  0  0  0
    0.9500   -4.0409   -1.1128 C   0  0  0  0  0  0  0  0  0  0  0  0
   -0.1392   -4.3103   -0.2940 C   0  0  0  0  0  0  0  0  0  0  0  0
    7.1031    0.5113    0.9088 C   0  0  0  0  0  0  0  0  0  0  0  0
    7.9850   -0.2372   -0.1018 C   0  0  2  0  0  0  0  0  0  0  0  0
    9.4478    0.0352    0.2346 C   0  0  0  0  0  0  0  0  0  0  0  0
    7.6723    0.2004   -1.5250 C   0  0  0  0  0  0  0  0  0  0  0  0
    5.3879   -0.6901    0.6876 H   0  0  0  0  0  0  0  0  0  0  0  0
   -0.5061    0.0268   -1.0243 H   0  0  0  0  0  0  0  0  0  0  0  0
    8.0029   -1.9632    0.8136 H   0  0  0  0  0  0  0  0  0  0  0  0
   -5.0544    3.1729   -1.5637 H   0  0  0  0  0  0  0  0  0  0  0  0
   -2.3187   -0.3797    0.4470 H   0  0  0  0  0  0  0  0  0  0  0  0
   -7.2146   -2.2939    2.0630 H   0  0  0  0  0  0  0  0  0  0  0  0
   -6.2533   -4.4713    1.3687 H   0  0  0  0  0  0  0  0  0  0  0  0
   -4.2684   -4.4673   -0.1567 H   0  0  0  0  0  0  0  0  0  0  0  0
   -3.3647   -2.2792   -0.9237 H   0  0  0  0  0  0  0  0  0  0  0  0
   -0.2299   -1.4129    1.4590 H   0  0  0  0  0  0  0  0  0  0  0  0
    2.4411   -2.6007   -1.6799 H   0  0  0  0  0  0  0  0  0  0  0  0
    2.2115    2.5983   -0.0409 H   0  0  0  0  0  0  0  0  0  0  0  0
   -1.4094   -3.5664    1.2720 H   0  0  0  0  0  0  0  0  0  0  0  0
    1.2917   -4.7811   -1.8236 H   0  0  0  0  0  0  0  0  0  0  0  0
   -0.6460   -5.2635   -0.3638 H   0  0  0  0  0  0  0  0  0  0  0  0
    7.2866    1.5828    0.8453 H   0  0  0  0  0  0  0  0  0  0  0  0
    7.3770    0.1995    1.9228 H   0  0  0  0  0  0  0  0  0  0  0  0
    9.6836   -0.2753    1.2553 H   0  0  0  0  0  0  0  0  0  0  0  0
   10.1087   -0.5053   -0.4441 H   0  0  0  0  0  0  0  0  0  0  0  0
    9.6788    1.0982    0.1526 H   0  0  0  0  0  0  0  0  0  0  0  0
    7.8415    1.2710   -1.6403 H   0  0  0  0  0  0  0  0  0  0  0  0
    8.3144   -0.3181   -2.2385 H   0  0  0  0  0  0  0  0  0  0  0  0
    6.6355   -0.0071   -1.7923 H   0  0  0  0  0  0  0  0  0  0  0  0
   -0.0831    0.7396   -0.4462 N   0  0  0  0  0  0  0  0  0  0  0  0
    7.7026   -1.6284   -0.0387 O   0  0  0  0  0  0  0  0  0  0  0  0
   -2.4287    4.1157   -1.3908 Cl  0  0  0  0  0  0  0  0  0  0  0  0
   -6.7011    0.9690   -1.0948 Cl  0  0  0  0  0  0  0  0  0  0  0  0
 16 17  1  0
 16  7  2  0
 17 18  2  0
 26 22  2  0
 26 28  1  0
 22 20  1  0
  7 15  1  0
 28 27  2  0
 18 19  1  0
 29  2  1  0
 29 30  1  0
 20  9  1  0
 20 23  2  0
 11  9  1  0
 11 24  2  0
  2  1  1  0
 27 23  1  0
  9 21  1  0
 15 19  2  0
 15 14  1  0
  1 24  1  0
  1  3  2  0
 24 25  1  0
 21 25  2  0
 21 56  1  0
 31 30  1  0
 56  4  1  0
 30 32  1  0
 30 57  1  6
 14 13  1  0
 14  6  2  0
 13 12  2  0
  6 59  1  0
  6  8  1  0
  4 12  1  0
  4  5  2  0
 12 10  1  0
  8 10  2  0
 10 58  1  0
  2 33  1  0
 56 34  1  0
 57 35  1  0
  8 36  1  0
 13 37  1  0
 16 38  1  0
 17 39  1  0
 18 40  1  0
 19 41  1  0
 22 42  1  0
 23 43  1  0
 25 44  1  0
 26 45  1  0
 27 46  1  0
 28 47  1  0
 29 48  1  0
 29 49  1  0
 31 50  1  0
 31 51  1  0
 31 52  1  0
 32 53  1  0
 32 54  1  0
 32 55  1  0
M  END
