
     RDKit          3D

 65 67  0  0  0  0  0  0  0  0999 V2000
   -1.8926    1.3490    0.0566 O   0  0  0  0  0  0  0  0  0  0  0  0
   -2.9157    0.8758    0.9793 S   0  0  1  0  0  0  0  0  0  0  0  0
   -3.2344    1.6608    2.1622 O   0  0  0  0  0  0  0  0  0  0  0  0
   -4.4340    0.6568    0.0402 C   0  0  0  0  0  0  0  0  0  0  0  0
   -4.9099    1.9750   -0.4807 C   0  0  0  0  0  0  0  0  0  0  0  0
   -4.4849    2.4305   -1.7257 C   0  0  0  0  0  0  0  0  0  0  0  0
   -4.9130    3.6591   -2.2076 C   0  0  0  0  0  0  0  0  0  0  0  0
   -5.7645    4.4473   -1.4443 C   0  0  0  0  0  0  0  0  0  0  0  0
   -6.1887    4.0002   -0.1995 C   0  0  0  0  0  0  0  0  0  0  0  0
   -5.7596    2.7716    0.2819 C   0  0  0  0  0  0  0  0  0  0  0  0
   -2.5015   -0.6229    1.4763 N   0  0  0  0  0  0  0  0  0  0  0  0
   -1.5226   -1.4608    0.8278 C   0  0  2  0  0  0  0  0  0  0  0  0
   -2.1093   -2.8359    0.4647 C   0  0  0  0  0  0  0  0  0  0  0  0
   -3.2846   -2.6983   -0.4593 C   0  0  0  0  0  0  0  0  0  0  0  0
   -3.0909   -2.3509   -1.7956 C   0  0  0  0  0  0  0  0  0  0  0  0
   -4.1724   -2.1600   -2.6442 C   0  0  0  0  0  0  0  0  0  0  0  0
   -5.4684   -2.3190   -2.1673 C   0  0  0  0  0  0  0  0  0  0  0  0
   -5.6715   -2.6735   -0.8409 C   0  0  0  0  0  0  0  0  0  0  0  0
   -4.5860   -2.8588    0.0061 C   0  0  0  0  0  0  0  0  0  0  0  0
   -0.3126   -1.6501    1.7411 C   0  0  0  0  0  0  0  0  0  0  0  0
   -0.4345   -1.7206    2.9542 O   0  0  0  0  0  0  0  0  0  0  0  0
    0.8543   -1.7800    1.1047 N   0  0  0  0  0  0  0  0  0  0  0  0
    2.0883   -2.0329    1.7946 C   0  0  0  0  0  0  0  0  0  0  0  0
    3.2254   -2.0977    0.7889 C   0  0  0  0  0  0  0  0  0  0  0  0
    3.0440   -1.9373   -0.4076 O   0  0  0  0  0  0  0  0  0  0  0  0
    4.4273   -2.3452    1.3243 N   0  0  0  0  0  0  0  0  0  0  0  0
    5.6226   -2.4232    0.5216 C   0  0  0  0  0  0  0  0  0  0  0  0
    6.1269   -1.0893    0.0265 C   0  0  0  0  0  0  0  0  0  0  0  0
    6.8864   -1.0302   -1.1393 C   0  0  0  0  0  0  0  0  0  0  0  0
    7.4062    0.1705   -1.5901 C   0  0  0  0  0  0  0  0  0  0  0  0
    5.8967    0.0883    0.7269 C   0  0  0  0  0  0  0  0  0  0  0  0
    6.4194    1.2933    0.2794 C   0  0  0  0  0  0  0  0  0  0  0  0
    7.1855    1.3503   -0.8824 C   0  0  0  0  0  0  0  0  0  0  0  0
    7.7481    2.6301   -1.3935 C   0  0  0  0  0  0  0  0  0  0  0  0
    7.9235    3.6066   -0.4542 N   0  0  0  0  0  0  0  0  0  0  0  0
    7.9766    2.7420   -2.6458 N   0  0  0  0  0  0  0  0  0  0  0  0
   -4.2053   -0.0495   -0.7595 H   0  0  0  0  0  0  0  0  0  0  0  0
   -5.1499    0.1880    0.7162 H   0  0  0  0  0  0  0  0  0  0  0  0
   -2.8364   -0.8926    2.3922 H   0  0  0  0  0  0  0  0  0  0  0  0
   -3.8243    1.8173   -2.3261 H   0  0  0  0  0  0  0  0  0  0  0  0
   -6.0968    2.4261    1.2512 H   0  0  0  0  0  0  0  0  0  0  0  0
   -4.5816    4.0000   -3.1797 H   0  0  0  0  0  0  0  0  0  0  0  0
   -6.1012    5.4048   -1.8196 H   0  0  0  0  0  0  0  0  0  0  0  0
   -6.8558    4.6085    0.3970 H   0  0  0  0  0  0  0  0  0  0  0  0
   -1.2111   -0.9646   -0.0925 H   0  0  0  0  0  0  0  0  0  0  0  0
   -1.3229   -3.4322   -0.0046 H   0  0  0  0  0  0  0  0  0  0  0  0
   -2.4032   -3.3579    1.3784 H   0  0  0  0  0  0  0  0  0  0  0  0
   -2.0838   -2.2255   -2.1778 H   0  0  0  0  0  0  0  0  0  0  0  0
   -4.7548   -3.1259    1.0424 H   0  0  0  0  0  0  0  0  0  0  0  0
   -4.0034   -1.8886   -3.6783 H   0  0  0  0  0  0  0  0  0  0  0  0
   -6.3131   -2.1697   -2.8271 H   0  0  0  0  0  0  0  0  0  0  0  0
   -6.6771   -2.8007   -0.4614 H   0  0  0  0  0  0  0  0  0  0  0  0
    0.9053   -1.6819    0.1010 H   0  0  0  0  0  0  0  0  0  0  0  0
    2.2982   -1.2450    2.5243 H   0  0  0  0  0  0  0  0  0  0  0  0
    2.0463   -2.9740    2.3510 H   0  0  0  0  0  0  0  0  0  0  0  0
    4.5127   -2.4523    2.3220 H   0  0  0  0  0  0  0  0  0  0  0  0
    6.3899   -2.8923    1.1390 H   0  0  0  0  0  0  0  0  0  0  0  0
    5.4575   -3.0923   -0.3249 H   0  0  0  0  0  0  0  0  0  0  0  0
    7.0727   -1.9361   -1.7046 H   0  0  0  0  0  0  0  0  0  0  0  0
    5.2966    0.0789    1.6282 H   0  0  0  0  0  0  0  0  0  0  0  0
    7.9923    0.1977   -2.4989 H   0  0  0  0  0  0  0  0  0  0  0  0
    6.2033    2.1934    0.8408 H   0  0  0  0  0  0  0  0  0  0  0  0
    8.1007    3.3275    0.4967 H   0  0  0  0  0  0  0  0  0  0  0  0
    8.4383    4.4268   -0.7337 H   0  0  0  0  0  0  0  0  0  0  0  0
    8.3847    3.6469   -2.8649 H   0  0  0  0  0  0  0  0  0  0  0  0
  1  2  2  0
  2  3  2  0
  2  4  1  0
  2 11  1  1
  4  5  1  0
  5  6  2  0
  5 10  1  0
  6  7  1  0
  7  8  2  0
  8  9  1  0
  9 10  2  0
 11 12  1  0
 12 13  1  0
 12 20  1  0
 13 14  1  0
 14 15  2  0
 14 19  1  0
 15 16  1  0
 16 17  2  0
 17 18  1  0
 18 19  2  0
 20 21  2  0
 20 22  1  0
 22 23  1  0
 23 24  1  0
 24 25  2  0
 24 26  1  0
 26 27  1  0
 27 28  1  0
 28 29  2  0
 28 31  1  0
 29 30  1  0
 30 33  2  0
 31 32  2  0
 32 33  1  0
 33 34  1  0
 34 35  1  0
 34 36  2  0
  4 37  1  0
  4 38  1  0
 11 39  1  0
  6 40  1  0
 10 41  1  0
  7 42  1  0
  8 43  1  0
  9 44  1  0
 12 45  1  6
 13 46  1  0
 13 47  1  0
 15 48  1  0
 19 49  1  0
 16 50  1  0
 17 51  1  0
 18 52  1  0
 22 53  1  0
 23 54  1  0
 23 55  1  0
 26 56  1  0
 27 57  1  0
 27 58  1  0
 29 59  1  0
 31 60  1  0
 30 61  1  0
 32 62  1  0
 35 63  1  0
 35 64  1  0
 36 65  1  0
M  END
