
     RDKit          3D

 16 15  0  0  0  0  0  0  0  0999 V2000
   -0.8389   -1.6084   -0.0151 O   0  0  0  0  0  0  0  0  0  0  0  0
   -0.8577   -0.4072   -0.0096 C   0  0  0  0  0  0  0  0  0  0  0  0
   -2.2072    0.3314   -0.0035 C   0  0  0  0  0  0  0  0  0  0  0  0
   -2.2872    1.5307    0.0019 O   0  0  0  0  0  0  0  0  0  0  0  0
   -3.2178   -0.5078   -0.0044 O   0  0  0  0  0  0  0  0  0  0  0  0
    0.3541    0.4697   -0.0091 C   0  0  0  0  0  0  0  0  0  0  0  0
    1.6616   -0.3049   -0.0081 C   0  0  0  0  0  0  0  0  0  0  0  0
    2.8307    0.6519   -0.0069 C   0  0  0  0  0  0  0  0  0  0  0  0
    4.0283   -0.0622   -0.0074 F   0  0  0  0  0  0  0  0  0  0  0  0
   -4.0591   -0.0249    0.0009 H   0  0  0  0  0  0  0  0  0  0  0  0
    0.2900    1.1335   -0.8786 H   0  0  0  0  0  0  0  0  0  0  0  0
    0.2884    1.1362    0.8581 H   0  0  0  0  0  0  0  0  0  0  0  0
    1.7173   -0.9487    0.8722 H   0  0  0  0  0  0  0  0  0  0  0  0
    1.7189   -0.9484   -0.8887 H   0  0  0  0  0  0  0  0  0  0  0  0
    2.8192    1.2899   -0.8931 H   0  0  0  0  0  0  0  0  0  0  0  0
    2.8185    1.2890    0.8800 H   0  0  0  0  0  0  0  0  0  0  0  0
  8  9  1  0
  8  7  1  0
  1  2  2  0
  7  6  1  0
  2  6  1  0
  2  3  1  0
  4  3  2  0
  3  5  1  0
  5 10  1  0
  6 11  1  0
  6 12  1  0
  7 13  1  0
  7 14  1  0
  8 15  1  0
  8 16  1  0
M  END
