
     RDKit          3D

 31 30  0  0  0  0  0  0  0  0999 V2000
   -0.6008    0.0395    1.9992 C   0  0  0  0  0  0  0  0  0  0  0  0
    0.1724    0.0256    3.3118 C   0  0  0  0  0  0  0  0  0  0  0  0
   -0.7613    0.0408    4.5109 C   0  0  0  0  0  0  0  0  0  0  0  0
   -0.0535    0.0291    5.8368 C   0  0  0  0  0  0  0  0  0  0  0  0
   -0.9106    0.0236    6.8548 O   0  0  0  0  0  0  0  0  0  0  0  0
    1.1429    0.0276    5.9887 O   0  0  0  0  0  0  0  0  0  0  0  0
   -1.5633   -0.1159   -5.6444 O   0  0  0  0  0  0  0  0  0  0  0  0
   -0.3627   -0.0249   -5.5784 C   0  0  0  0  0  0  0  0  0  0  0  0
    0.4185    0.0498   -6.6513 O   0  0  0  0  0  0  0  0  0  0  0  0
    0.4389    0.0146   -4.3070 C   0  0  0  0  0  0  0  0  0  0  0  0
   -0.4302   -0.0146   -3.0656 C   0  0  0  0  0  0  0  0  0  0  0  0
    0.3528    0.0163   -1.7756 C   0  0  0  0  0  0  0  0  0  0  0  0
   -0.4775    0.0405   -0.5177 C   0  0  0  0  0  0  0  0  0  0  0  0
    0.3129    0.0226    0.7798 C   0  0  0  0  0  0  0  0  0  0  0  0
    1.5630    0.0208   -1.7559 O   0  0  0  0  0  0  0  0  0  0  0  0
   -1.2739   -0.8242    1.9623 H   0  0  0  0  0  0  0  0  0  0  0  0
   -1.2434    0.9261    1.9623 H   0  0  0  0  0  0  0  0  0  0  0  0
    0.8405    0.8902    3.3498 H   0  0  0  0  0  0  0  0  0  0  0  0
    0.8105   -0.8616    3.3486 H   0  0  0  0  0  0  0  0  0  0  0  0
   -1.4401   -0.8176    4.4790 H   0  0  0  0  0  0  0  0  0  0  0  0
   -1.4091    0.9232    4.4807 H   0  0  0  0  0  0  0  0  0  0  0  0
   -0.4266    0.0198    7.6941 H   0  0  0  0  0  0  0  0  0  0  0  0
   -0.1198    0.0166   -7.4562 H   0  0  0  0  0  0  0  0  0  0  0  0
    1.0675    0.9088   -4.3254 H   0  0  0  0  0  0  0  0  0  0  0  0
    1.1316   -0.8313   -4.3191 H   0  0  0  0  0  0  0  0  0  0  0  0
   -1.0595   -0.9099   -3.0490 H   0  0  0  0  0  0  0  0  0  0  0  0
   -1.1307    0.8257   -3.0555 H   0  0  0  0  0  0  0  0  0  0  0  0
   -1.1712   -0.8072   -0.5592 H   0  0  0  0  0  0  0  0  0  0  0  0
   -1.1203    0.9276   -0.5640 H   0  0  0  0  0  0  0  0  0  0  0  0
    0.9852    0.8839    0.8184 H   0  0  0  0  0  0  0  0  0  0  0  0
    0.9489   -0.8663    0.8159 H   0  0  0  0  0  0  0  0  0  0  0  0
  1  2  1  0
  1 14  1  0
  1 16  1  0
  1 17  1  0
  2  3  1  0
  2 18  1  0
  2 19  1  0
  3  4  1  0
  3 20  1  0
  3 21  1  0
  4  5  1  0
  4  6  2  0
  5 22  1  0
  7  8  2  0
  8  9  1  0
  8 10  1  0
  9 23  1  0
 10 11  1  0
 10 24  1  0
 10 25  1  0
 11 12  1  0
 11 26  1  0
 11 27  1  0
 12 13  1  0
 12 15  2  0
 13 14  1  0
 13 28  1  0
 13 29  1  0
 14 30  1  0
 14 31  1  0
M  END
