
     RDKit          3D

 51 53  0  0  0  0  0  0  0  0999 V2000
    2.6868   -1.2406  -10.9666 C   0  0  0  0  0  0  0  0  0  0  0  0
    2.4380   -0.6731   -9.7929 C   0  0  0  0  0  0  0  0  0  0  0  0
    1.1811    0.0642   -9.4516 C   0  0  0  0  0  0  0  0  0  0  0  0
    0.5936   -0.4089   -8.2079 N   0  0  0  0  0  0  0  0  0  0  0  0
   -0.4363    0.5144   -7.7494 C   0  0  0  0  0  0  0  0  0  0  0  0
   -0.9229    0.2140   -6.3649 C   0  0  0  0  0  0  0  0  0  0  0  0
   -0.7527    1.0299   -5.3307 C   0  0  0  0  0  0  0  0  0  0  0  0
   -1.3088    0.7550   -3.9755 C   0  0  0  0  0  0  0  0  0  0  0  0
   -0.2271    0.7789   -3.0495 O   0  0  0  0  0  0  0  0  0  0  0  0
   -0.4981    0.5798   -1.7543 C   0  0  0  0  0  0  0  0  0  0  0  0
   -1.7454    0.3235   -1.2280 C   0  0  0  0  0  0  0  0  0  0  0  0
   -1.8251    0.1315    0.1583 C   0  0  0  0  0  0  0  0  0  0  0  0
   -2.8979   -0.1063    0.9494 N   0  0  0  0  0  0  0  0  0  0  0  0
   -2.5458   -0.2360    2.2269 N   0  0  0  0  0  0  0  0  0  0  0  0
   -1.2426   -0.0695    2.3031 C   0  0  0  0  0  0  0  0  0  0  0  0
   -0.7093    0.1751    1.0048 C   0  0  0  0  0  0  0  0  0  0  0  0
    0.5537    0.4580    0.4570 C   0  0  0  0  0  0  0  0  0  0  0  0
    0.6274    0.6485   -0.8889 C   0  0  0  0  0  0  0  0  0  0  0  0
   -0.5579   -0.1255    3.5943 C   0  0  0  0  0  0  0  0  0  0  0  0
    0.7745   -0.5252    3.6895 C   0  0  0  0  0  0  0  0  0  0  0  0
    1.4215   -0.5809    4.9149 C   0  0  0  0  0  0  0  0  0  0  0  0
    0.7249   -0.2389    6.0634 C   0  0  0  0  0  0  0  0  0  0  0  0
   -0.6056    0.1522    5.9999 C   0  0  0  0  0  0  0  0  0  0  0  0
   -1.2360    0.2081    4.7685 C   0  0  0  0  0  0  0  0  0  0  0  0
    1.8103    0.9192   -1.4628 F   0  0  0  0  0  0  0  0  0  0  0  0
    1.5957   -0.3092    7.7368 Br  0  0  0  0  0  0  0  0  0  0  0  0
   -4.2592   -0.3367    0.5378 C   0  0  0  0  0  0  0  0  0  0  0  0
    0.0884   -1.7596   -8.3503 C   0  0  0  0  0  0  0  0  0  0  0  0
    3.6285   -1.7329  -11.1712 H   0  0  0  0  0  0  0  0  0  0  0  0
    1.9581   -1.2327  -11.7693 H   0  0  0  0  0  0  0  0  0  0  0  0
    3.1884   -0.7079   -9.0080 H   0  0  0  0  0  0  0  0  0  0  0  0
    0.4715    0.0132  -10.2950 H   0  0  0  0  0  0  0  0  0  0  0  0
    1.4323    1.1220   -9.3189 H   0  0  0  0  0  0  0  0  0  0  0  0
   -0.0196    1.5241   -7.7641 H   0  0  0  0  0  0  0  0  0  0  0  0
   -1.3010    0.5203   -8.4370 H   0  0  0  0  0  0  0  0  0  0  0  0
   -1.4691   -0.7134   -6.2140 H   0  0  0  0  0  0  0  0  0  0  0  0
   -0.2200    1.9692   -5.4553 H   0  0  0  0  0  0  0  0  0  0  0  0
   -2.0444    1.5212   -3.7023 H   0  0  0  0  0  0  0  0  0  0  0  0
   -1.8134   -0.2169   -3.9528 H   0  0  0  0  0  0  0  0  0  0  0  0
   -2.6278    0.2704   -1.8501 H   0  0  0  0  0  0  0  0  0  0  0  0
    1.4473    0.5368    1.0617 H   0  0  0  0  0  0  0  0  0  0  0  0
    1.3225   -0.8252    2.8064 H   0  0  0  0  0  0  0  0  0  0  0  0
    2.4549   -0.8971    4.9597 H   0  0  0  0  0  0  0  0  0  0  0  0
   -1.1522    0.4192    6.8942 H   0  0  0  0  0  0  0  0  0  0  0  0
   -2.2690    0.5261    4.7213 H   0  0  0  0  0  0  0  0  0  0  0  0
   -4.4243   -1.3822    0.2764 H   0  0  0  0  0  0  0  0  0  0  0  0
   -4.9242   -0.0620    1.3516 H   0  0  0  0  0  0  0  0  0  0  0  0
   -4.4935    0.2834   -0.3245 H   0  0  0  0  0  0  0  0  0  0  0  0
   -0.2557   -2.1500   -7.3932 H   0  0  0  0  0  0  0  0  0  0  0  0
   -0.7452   -1.8324   -9.0672 H   0  0  0  0  0  0  0  0  0  0  0  0
    0.8811   -2.4207   -8.7001 H   0  0  0  0  0  0  0  0  0  0  0  0
  1  2  2  0
  1 29  1  0
  1 30  1  0
  2  3  1  0
  2 31  1  0
  3  4  1  0
  3 32  1  0
  3 33  1  0
  4  5  1  0
  4 28  1  0
  5  6  1  0
  5 34  1  0
  5 35  1  0
  6  7  2  0
  6 36  1  0
  7  8  1  0
  7 37  1  0
  8  9  1  0
  8 38  1  0
  8 39  1  0
  9 10  1  0
 10 11  2  0
 10 18  1  0
 11 12  1  0
 11 40  1  0
 12 13  1  0
 12 16  2  0
 13 14  1  0
 13 27  1  0
 14 15  2  0
 15 16  1  0
 15 19  1  0
 16 17  1  0
 17 18  2  0
 17 41  1  0
 18 25  1  0
 19 20  2  0
 19 24  1  0
 20 21  1  0
 20 42  1  0
 21 22  2  0
 21 43  1  0
 22 23  1  0
 22 26  1  0
 23 24  2  0
 23 44  1  0
 24 45  1  0
 27 46  1  0
 27 47  1  0
 27 48  1  0
 28 49  1  0
 28 50  1  0
 28 51  1  0
M  END
