
     RDKit          3D

 34 36  0  0  0  0  0  0  0  0999 V2000
    1.0215    1.5215    0.1630 C   0  0  0  0  0  0  0  0  0  0  0  0
   -0.2470    1.7255    0.9723 C   0  0  0  0  0  0  0  0  0  0  0  0
   -1.2361    0.7037    0.6643 N   0  0  0  0  0  0  0  0  0  0  0  0
   -2.3448    1.0430    0.0019 C   0  0  0  0  0  0  0  0  0  0  0  0
   -2.5875    2.1177   -0.5008 O   0  0  0  0  0  0  0  0  0  0  0  0
   -0.7190   -0.6430    0.8745 C   0  0  0  0  0  0  0  0  0  0  0  0
    0.5585   -0.8345    0.0747 C   0  0  0  0  0  0  0  0  0  0  0  0
    1.5412    0.1896    0.3920 N   0  0  0  0  0  0  0  0  0  0  0  0
    2.8669   -0.0690    0.0281 C   0  0  0  0  0  0  0  0  0  0  0  0
    3.4734   -1.2692    0.4260 C   0  0  0  0  0  0  0  0  0  0  0  0
    4.7922   -1.5409    0.1075 C   0  0  0  0  0  0  0  0  0  0  0  0
    5.5558   -0.6230   -0.6059 C   0  0  0  0  0  0  0  0  0  0  0  0
    4.9684    0.5693   -0.9969 C   0  0  0  0  0  0  0  0  0  0  0  0
    3.6397    0.8449   -0.6949 C   0  0  0  0  0  0  0  0  0  0  0  0
    0.8160    1.7130   -0.9010 H   0  0  0  0  0  0  0  0  0  0  0  0
    1.7495    2.2612    0.4976 H   0  0  0  0  0  0  0  0  0  0  0  0
   -0.0144    1.6517    2.0376 H   0  0  0  0  0  0  0  0  0  0  0  0
   -0.6551    2.7142    0.7832 H   0  0  0  0  0  0  0  0  0  0  0  0
   -0.5210   -0.7779    1.9399 H   0  0  0  0  0  0  0  0  0  0  0  0
   -1.4372   -1.3971    0.5729 H   0  0  0  0  0  0  0  0  0  0  0  0
    0.9489   -1.8221    0.3119 H   0  0  0  0  0  0  0  0  0  0  0  0
    0.3159   -0.8275   -0.9984 H   0  0  0  0  0  0  0  0  0  0  0  0
    2.9165   -1.9890    1.0122 H   0  0  0  0  0  0  0  0  0  0  0  0
    5.2310   -2.4749    0.4351 H   0  0  0  0  0  0  0  0  0  0  0  0
    6.5886   -0.8350   -0.8485 H   0  0  0  0  0  0  0  0  0  0  0  0
    5.5403    1.2980   -1.5575 H   0  0  0  0  0  0  0  0  0  0  0  0
    3.2162    1.7780   -1.0408 H   0  0  0  0  0  0  0  0  0  0  0  0
   -3.3517    0.0260   -0.0814 N   0  0  0  0  0  0  0  0  0  0  0  0
   -4.2016   -0.1703   -1.1124 C   0  0  0  0  0  0  0  0  0  0  0  0
   -5.0511   -1.1324   -0.6528 C   0  0  0  0  0  0  0  0  0  0  0  0
   -4.6938   -1.4435    0.6176 N   0  0  0  0  0  0  0  0  0  0  0  0
   -3.6785   -0.7444    0.9577 N   0  0  0  0  0  0  0  0  0  0  0  0
   -4.1294    0.3538   -2.0491 H   0  0  0  0  0  0  0  0  0  0  0  0
   -5.8793   -1.6056   -1.1523 H   0  0  0  0  0  0  0  0  0  0  0  0
  5  4  2  0
  2  1  1  0
  2  3  1  0
  1  8  1  0
  4  3  1  0
  3  6  1  0
 14 13  2  0
 14  9  1  0
  8  9  1  0
  8  7  1  0
 13 12  1  0
  9 10  2  0
  6  7  1  0
 12 11  2  0
 10 11  1  0
  1 15  1  0
  1 16  1  0
  2 17  1  0
  2 18  1  0
  6 19  1  0
  6 20  1  0
  7 21  1  0
  7 22  1  0
 10 23  1  0
 11 24  1  0
 12 25  1  0
 13 26  1  0
 14 27  1  0
  4 28  1  0
 28 29  1  0
 29 30  2  0
 30 31  1  0
 31 32  2  0
 32 28  1  0
 29 33  1  0
 30 34  1  0
M  END
