
     RDKit          3D

 43 46  0  0  0  0  0  0  0  0999 V2000
   -3.4999    0.0335    2.1651 C   0  0  0  0  0  0  0  0  0  0  0  0
   -0.9990    0.0017   -1.4563 C   0  0  0  0  0  0  0  0  0  0  0  0
   -0.5651   -0.0061   -2.8521 C   0  0  0  0  0  0  0  0  0  0  0  0
   -1.2673    0.7234   -3.8150 C   0  0  0  0  0  0  0  0  0  0  0  0
   -0.8625    0.7146   -5.1416 C   0  0  0  0  0  0  0  0  0  0  0  0
    0.2507   -0.0191   -5.5284 C   0  0  0  0  0  0  0  0  0  0  0  0
    0.9528   -0.7506   -4.5781 C   0  0  0  0  0  0  0  0  0  0  0  0
    0.5473   -0.7496   -3.2530 C   0  0  0  0  0  0  0  0  0  0  0  0
    1.8469   -1.0517    0.5296 C   0  0  0  0  0  0  0  0  0  0  0  0
    3.2283   -1.0497    0.6642 C   0  0  0  0  0  0  0  0  0  0  0  0
    3.9832   -0.0364    0.0898 C   0  0  0  0  0  0  0  0  0  0  0  0
    3.3470    0.9787   -0.6144 C   0  0  0  0  0  0  0  0  0  0  0  0
   -3.6584    0.0396    0.8577 N   0  0  0  0  0  0  0  0  0  0  0  0
   -2.4944    0.0263    0.2022 C   0  0  0  0  0  0  0  0  0  0  0  0
   -1.2216   -0.0084    0.7789 C   0  0  0  0  0  0  0  0  0  0  0  0
   -1.2023    0.0302    2.1944 C   0  0  0  0  0  0  0  0  0  0  0  0
   -2.3621    0.0394    2.8565 N   0  0  0  0  0  0  0  0  0  0  0  0
   -2.3379    0.0440   -1.1402 N   0  0  0  0  0  0  0  0  0  0  0  0
    1.9657    0.9843   -0.7370 C   0  0  0  0  0  0  0  0  0  0  0  0
   -0.2682   -0.0267   -0.2893 C   0  0  0  0  0  0  0  0  0  0  0  0
    1.1972   -0.0316   -0.1675 C   0  0  0  0  0  0  0  0  0  0  0  0
    1.3493   -0.3994    4.8087 C   0  0  0  0  0  0  0  0  0  0  0  0
    0.0204    0.1454    4.3329 C   0  0  0  0  0  0  0  0  0  0  0  0
    2.3858    0.3468    4.2066 O   0  0  0  0  0  0  0  0  0  0  0  0
   -4.4077    0.0335    2.7603 H   0  0  0  0  0  0  0  0  0  0  0  0
   -2.1262    1.3187   -3.5295 H   0  0  0  0  0  0  0  0  0  0  0  0
   -1.4154    1.2904   -5.8721 H   0  0  0  0  0  0  0  0  0  0  0  0
    0.5680   -0.0233   -6.5628 H   0  0  0  0  0  0  0  0  0  0  0  0
    1.8166   -1.3330   -4.8714 H   0  0  0  0  0  0  0  0  0  0  0  0
    1.0895   -1.3434   -2.5293 H   0  0  0  0  0  0  0  0  0  0  0  0
    1.2674   -1.8580    0.9633 H   0  0  0  0  0  0  0  0  0  0  0  0
    3.7140   -1.8467    1.2122 H   0  0  0  0  0  0  0  0  0  0  0  0
    5.0607   -0.0357    0.1915 H   0  0  0  0  0  0  0  0  0  0  0  0
    3.9276    1.7742   -1.0634 H   0  0  0  0  0  0  0  0  0  0  0  0
    0.8025    0.1796    2.3896 H   0  0  0  0  0  0  0  0  0  0  0  0
   -3.0938   -0.0095   -1.8050 H   0  0  0  0  0  0  0  0  0  0  0  0
    1.4739    1.7866   -1.2723 H   0  0  0  0  0  0  0  0  0  0  0  0
    1.4163   -1.4612    4.5464 H   0  0  0  0  0  0  0  0  0  0  0  0
    1.3794   -0.3303    5.9026 H   0  0  0  0  0  0  0  0  0  0  0  0
   -0.7795   -0.4390    4.7852 H   0  0  0  0  0  0  0  0  0  0  0  0
   -0.1092    1.1801    4.6709 H   0  0  0  0  0  0  0  0  0  0  0  0
    3.1968   -0.1667    4.2465 H   0  0  0  0  0  0  0  0  0  0  0  0
   -0.0608    0.0525    2.8942 N   0  0  0  0  0  0  0  0  0  0  0  0
  1 13  2  0
  1 17  1  0
  1 25  1  0
  2  3  1  0
  2 18  1  0
  2 20  2  0
  3  4  2  0
  3  8  1  0
  4  5  1  0
  4 26  1  0
  5  6  2  0
  5 27  1  0
  6  7  1  0
  6 28  1  0
  7  8  2  0
  7 29  1  0
  8 30  1  0
  9 10  2  0
  9 21  1  0
  9 31  1  0
 10 11  1  0
 10 32  1  0
 11 12  2  0
 11 33  1  0
 12 19  1  0
 12 34  1  0
 13 14  1  0
 14 15  2  0
 14 18  1  0
 15 16  1  0
 15 20  1  0
 43 16  1  0
 43 23  1  0
 43 35  1  0
 16 17  2  0
 18 36  1  0
 19 21  2  0
 19 37  1  0
 20 21  1  0
 22 23  1  0
 22 24  1  0
 22 38  1  0
 22 39  1  0
 23 40  1  0
 23 41  1  0
 24 42  1  0
M  END
