
     RDKit          3D

 62 66  0  0  0  0  0  0  0  0999 V2000
   -6.3985    0.6313   -0.8379 C   0  0  0  0  0  0  0  0  0  0  0  0
   -3.5487   -1.6782   -0.0363 C   0  0  0  0  0  0  0  0  0  0  0  0
   -1.2502    1.2863   -1.5874 C   0  0  0  0  0  0  0  0  0  0  0  0
    4.2433    1.8040   -0.3015 C   0  0  0  0  0  0  0  0  0  0  0  0
    6.6952    1.7403   -0.5382 C   0  0  0  0  0  0  0  0  0  0  0  0
   -1.5784   -3.0744    0.2222 C   0  0  0  0  0  0  0  0  0  0  0  0
   -2.3317   -4.0041    0.9790 C   0  0  0  0  0  0  0  0  0  0  0  0
   -3.6649   -3.8102    1.1721 C   0  0  0  0  0  0  0  0  0  0  0  0
   -4.3262   -2.6642    0.6439 C   0  0  0  0  0  0  0  0  0  0  0  0
   -6.2779   -1.5441    0.2712 C   0  0  0  0  0  0  0  0  0  0  0  0
   -7.6960   -1.5063    0.3998 C   0  0  0  0  0  0  0  0  0  0  0  0
   -8.3961   -0.4469   -0.0812 C   0  0  0  0  0  0  0  0  0  0  0  0
   -7.7535    0.6472   -0.7051 C   0  0  0  0  0  0  0  0  0  0  0  0
   -5.6143   -0.4608   -0.3797 C   0  0  0  0  0  0  0  0  0  0  0  0
   -4.2037   -0.5129   -0.5022 C   0  0  0  0  0  0  0  0  0  0  0  0
   -2.1720   -1.9503   -0.2680 C   0  0  0  0  0  0  0  0  0  0  0  0
   -2.3302    1.1293   -0.5210 C   0  0  0  0  0  0  0  0  0  0  0  0
    0.9843    1.2579   -0.4478 C   0  0  0  0  0  0  0  0  0  0  0  0
    1.8014    2.2797   -0.0385 C   0  0  0  0  0  0  0  0  0  0  0  0
    3.1199    2.2207    0.6387 C   0  0  0  0  0  0  0  0  0  0  0  0
    7.2487    0.4360   -0.0243 C   0  0  0  0  0  0  0  0  0  0  0  0
    6.6643   -0.7734   -0.4132 C   0  0  0  0  0  0  0  0  0  0  0  0
    7.1411   -1.9775    0.0740 C   0  0  0  0  0  0  0  0  0  0  0  0
    8.2270   -1.9922    0.9683 C   0  0  0  0  0  0  0  0  0  0  0  0
    8.8069   -0.7957    1.3468 C   0  0  0  0  0  0  0  0  0  0  0  0
    8.3196    0.4118    0.8531 C   0  0  0  0  0  0  0  0  0  0  0  0
    5.5591   -3.2775   -1.1331 C   0  0  0  0  0  0  0  0  0  0  0  0
   -5.6480   -2.5912    0.7955 N   0  0  0  0  0  0  0  0  0  0  0  0
   -0.0527    1.8787   -1.0335 N   0  0  0  0  0  0  0  0  0  0  0  0
    0.0943    3.1909   -0.9862 N   0  0  0  0  0  0  0  0  0  0  0  0
    1.2113    3.4413   -0.3937 N   0  0  0  0  0  0  0  0  0  0  0  0
    5.4697    2.1388    0.1269 N   0  0  0  0  0  0  0  0  0  0  0  0
   -3.5191    0.5140   -1.0841 N   0  0  0  0  0  0  0  0  0  0  0  0
    4.0302    1.1986   -1.3408 O   0  0  0  0  0  0  0  0  0  0  0  0
    8.7150   -3.1506    1.4578 O   0  0  0  0  0  0  0  0  0  0  0  0
    6.6507   -3.1969   -0.2381 O   0  0  0  0  0  0  0  0  0  0  0  0
  -10.1194   -0.4043    0.0729 Cl  0  0  0  0  0  0  0  0  0  0  0  0
   -5.9388    1.4915   -1.3053 H   0  0  0  0  0  0  0  0  0  0  0  0
   -0.9829    0.3267   -2.0276 H   0  0  0  0  0  0  0  0  0  0  0  0
   -1.5994    1.9291   -2.3943 H   0  0  0  0  0  0  0  0  0  0  0  0
    7.4252    2.5361   -0.3908 H   0  0  0  0  0  0  0  0  0  0  0  0
    6.5012    1.6813   -1.6088 H   0  0  0  0  0  0  0  0  0  0  0  0
   -0.5339   -3.2664    0.0173 H   0  0  0  0  0  0  0  0  0  0  0  0
   -1.8477   -4.8850    1.3799 H   0  0  0  0  0  0  0  0  0  0  0  0
   -4.2631   -4.5310    1.7145 H   0  0  0  0  0  0  0  0  0  0  0  0
   -8.1859   -2.3391    0.8858 H   0  0  0  0  0  0  0  0  0  0  0  0
   -8.3309    1.4876   -1.0633 H   0  0  0  0  0  0  0  0  0  0  0  0
   -1.5839   -1.2864   -0.8834 H   0  0  0  0  0  0  0  0  0  0  0  0
   -1.9659    0.5436    0.3211 H   0  0  0  0  0  0  0  0  0  0  0  0
   -2.5884    2.1150   -0.1259 H   0  0  0  0  0  0  0  0  0  0  0  0
    1.0647    0.1865   -0.3739 H   0  0  0  0  0  0  0  0  0  0  0  0
    3.0953    1.4916    1.4539 H   0  0  0  0  0  0  0  0  0  0  0  0
    3.3460    3.1860    1.0952 H   0  0  0  0  0  0  0  0  0  0  0  0
    5.8337   -0.7521   -1.1063 H   0  0  0  0  0  0  0  0  0  0  0  0
    9.6456   -0.8088    2.0321 H   0  0  0  0  0  0  0  0  0  0  0  0
    8.7892    1.3378    1.1624 H   0  0  0  0  0  0  0  0  0  0  0  0
    5.3208   -4.3326   -1.2383 H   0  0  0  0  0  0  0  0  0  0  0  0
    4.6804   -2.7539   -0.7484 H   0  0  0  0  0  0  0  0  0  0  0  0
    5.8109   -2.8710   -2.1158 H   0  0  0  0  0  0  0  0  0  0  0  0
    5.5579    2.5967    1.0201 H   0  0  0  0  0  0  0  0  0  0  0  0
   -4.0957    1.1887   -1.5591 H   0  0  0  0  0  0  0  0  0  0  0  0
    8.2019   -3.8955    1.1217 H   0  0  0  0  0  0  0  0  0  0  0  0
 33 17  1  0
 33 15  1  0
 17  3  1  0
 16  6  2  0
 16  2  1  0
  6  7  1  0
  3 29  1  0
 15  2  2  0
 15 14  1  0
  2  9  1  0
 29 30  1  0
 29 18  1  0
  7  8  2  0
  1 14  2  0
  1 13  1  0
 30 31  2  0
 14 10  1  0
  9  8  1  0
  9 28  2  0
 34  4  2  0
 18 19  2  0
 13 12  2  0
 31 19  1  0
 10 28  1  0
 10 11  2  0
  5 21  1  0
  5 32  1  0
 26 25  2  0
 26 21  1  0
 19 20  1  0
 12 11  1  0
 12 37  1  0
  4 32  1  0
  4 20  1  0
 25 24  1  0
 21 22  2  0
 24 35  1  0
 24 23  2  0
 22 23  1  0
 23 36  1  0
 36 27  1  0
  1 38  1  0
  3 39  1  0
  3 40  1  0
  5 41  1  0
  5 42  1  0
  6 43  1  0
  7 44  1  0
  8 45  1  0
 11 46  1  0
 13 47  1  0
 16 48  1  0
 17 49  1  0
 17 50  1  0
 18 51  1  0
 20 52  1  0
 20 53  1  0
 22 54  1  0
 25 55  1  0
 26 56  1  0
 27 57  1  0
 27 58  1  0
 27 59  1  0
 32 60  1  0
 33 61  1  0
 35 62  1  0
M  END
