
     RDKit          3D

 14 14  0  0  0  0  0  0  0  0999 V2000
    1.0872    1.9662   -0.0009 C   0  0  0  0  0  0  0  0  0  0  0  0
    0.8338    0.5396    0.0057 N   0  0  0  0  0  0  0  0  0  0  0  0
    1.7594   -0.4235    0.0473 C   0  0  0  0  0  0  0  0  0  0  0  0
    1.2322   -1.6333    0.0401 N   0  0  0  0  0  0  0  0  0  0  0  0
   -0.0999   -1.4383   -0.0094 C   0  0  0  0  0  0  0  0  0  0  0  0
   -0.3902   -0.0895   -0.0326 C   0  0  0  0  0  0  0  0  0  0  0  0
   -1.6620    0.5915   -0.0827 C   0  0  0  0  0  0  0  0  0  0  0  0
   -2.7277    0.0117   -0.1234 O   0  0  0  0  0  0  0  0  0  0  0  0
    0.7138    2.4191   -0.9170 H   0  0  0  0  0  0  0  0  0  0  0  0
    0.6160    2.4435    0.8557 H   0  0  0  0  0  0  0  0  0  0  0  0
    2.1595    2.1282    0.0564 H   0  0  0  0  0  0  0  0  0  0  0  0
    2.8155   -0.2007    0.0813 H   0  0  0  0  0  0  0  0  0  0  0  0
   -0.8029   -2.2574   -0.0262 H   0  0  0  0  0  0  0  0  0  0  0  0
   -1.6180    1.6932   -0.0820 H   0  0  0  0  0  0  0  0  0  0  0  0
  1  2  1  0
  2  3  1  0
  2  6  1  0
  3  4  2  0
  4  5  1  0
  5  6  2  0
  6  7  1  0
  7  8  2  0
  1  9  1  0
  1 10  1  0
  1 11  1  0
  3 12  1  0
  5 13  1  0
  7 14  1  0
M  END
