
     RDKit          3D

 15 16  0  0  0  0  0  0  0  0999 V2000
   -2.8111    0.5698    0.0083 C   0  0  0  0  0  0  0  0  0  0  0  0
   -1.6402    1.3119    0.0189 C   0  0  0  0  0  0  0  0  0  0  0  0
   -0.4359    0.6246    0.0142 C   0  0  0  0  0  0  0  0  0  0  0  0
   -2.7718   -0.8256   -0.0067 C   0  0  0  0  0  0  0  0  0  0  0  0
   -1.5661   -1.5064   -0.0114 C   0  0  0  0  0  0  0  0  0  0  0  0
   -0.3790   -0.7788   -0.0007 C   0  0  0  0  0  0  0  0  0  0  0  0
    1.7671   -0.3842    0.0091 C   0  0  0  0  0  0  0  0  0  0  0  0
    1.1831    1.2638    0.0245 S   0  0  0  0  0  0  0  0  0  0  0  0
    0.8901   -1.3169   -0.0032 N   0  0  0  0  0  0  0  0  0  0  0  0
   -3.7643    1.0815    0.0111 H   0  0  0  0  0  0  0  0  0  0  0  0
   -1.6694    2.3932    0.0307 H   0  0  0  0  0  0  0  0  0  0  0  0
   -3.6976   -1.3857   -0.0152 H   0  0  0  0  0  0  0  0  0  0  0  0
   -1.5364   -2.5880   -0.0226 H   0  0  0  0  0  0  0  0  0  0  0  0
    3.2866   -1.4881    0.0035 H   0  0  0  0  0  0  0  0  0  0  0  0
    3.0734   -0.5432    0.0108 O   0  0  0  0  0  0  0  0  0  0  0  0
  1  4  2  0
  1  2  1  0
  4  5  1  0
  2  3  2  0
  5  6  2  0
  3  6  1  0
  3  8  1  0
  6  9  1  0
  8  7  1  0
  9  7  2  0
  7 15  1  0
  1 10  1  0
  2 11  1  0
  4 12  1  0
  5 13  1  0
 15 14  1  0
M  END
