
     RDKit          3D

 30 30  0  0  0  0  0  0  0  0999 V2000
    1.0578   -0.1722    0.6806 C   0  0  2  0  0  0  0  0  0  0  0  0
   -0.4663   -0.1921    0.5949 C   0  0  1  0  0  0  0  0  0  0  0  0
   -0.9096   -0.1500   -0.8648 C   0  0  2  0  0  0  0  0  0  0  0  0
   -0.2715    1.0342   -1.5791 C   0  0  1  0  0  0  0  0  0  0  0  0
    1.2434    1.0032   -1.3969 C   0  0  1  0  0  0  0  0  0  0  0  0
    1.9323    2.2156   -1.9784 C   0  0  0  0  0  0  0  0  0  0  0  0
   -1.3227   -1.3938    2.5561 C   0  0  0  0  0  0  0  0  0  0  0  0
   -1.8689   -2.6901    3.0741 C   0  0  0  0  0  0  0  0  0  0  0  0
   -1.0073   -1.3687    1.2566 N   0  0  0  0  0  0  0  0  0  0  0  0
    1.4447   -0.1452    2.0154 O   0  0  0  0  0  0  0  0  0  0  0  0
   -2.3274   -0.0437   -0.9236 O   0  0  0  0  0  0  0  0  0  0  0  0
   -0.5755    0.9839   -2.9683 O   0  0  0  0  0  0  0  0  0  0  0  0
    1.5615    0.9791    0.0024 O   0  0  0  0  0  0  0  0  0  0  0  0
    3.3279    2.1940   -1.7116 O   0  0  0  0  0  0  0  0  0  0  0  0
   -1.1728   -0.4152    3.2812 O   0  0  0  0  0  0  0  0  0  0  0  0
    1.4147   -0.9765    0.2584 H   0  0  0  0  0  0  0  0  0  0  0  0
   -0.8111    0.6045    1.0410 H   0  0  0  0  0  0  0  0  0  0  0  0
   -0.6330   -0.9755   -1.3061 H   0  0  0  0  0  0  0  0  0  0  0  0
   -0.6232    1.8634   -1.2033 H   0  0  0  0  0  0  0  0  0  0  0  0
    1.5997    0.1991   -1.8201 H   0  0  0  0  0  0  0  0  0  0  0  0
    1.5450    3.0215   -1.5873 H   0  0  0  0  0  0  0  0  0  0  0  0
    1.7922    2.2300   -2.9441 H   0  0  0  0  0  0  0  0  0  0  0  0
   -1.2261   -3.4048    2.9049 H   0  0  0  0  0  0  0  0  0  0  0  0
   -2.7088   -2.8936    2.6204 H   0  0  0  0  0  0  0  0  0  0  0  0
   -2.0274   -2.6156    4.0342 H   0  0  0  0  0  0  0  0  0  0  0  0
   -1.1382   -2.1240    0.7625 H   0  0  0  0  0  0  0  0  0  0  0  0
    2.2914   -0.4042    2.0835 H   0  0  0  0  0  0  0  0  0  0  0  0
   -2.6499   -0.6753   -1.4581 H   0  0  0  0  0  0  0  0  0  0  0  0
   -1.2142    1.5725   -3.1532 H   0  0  0  0  0  0  0  0  0  0  0  0
    3.7451    2.7406   -2.2734 H   0  0  0  0  0  0  0  0  0  0  0  0
  1  2  1  0
  1 10  1  0
  1 13  1  0
  1 16  1  6
  2  3  1  0
  2  9  1  0
  2 17  1  1
  3  4  1  0
  3 11  1  0
  3 18  1  6
  4  5  1  0
  4 12  1  0
  4 19  1  1
  5  6  1  0
  5 13  1  0
  5 20  1  6
  6 14  1  0
  6 21  1  0
  6 22  1  0
  7  8  1  0
  7  9  1  0
  7 15  2  0
  8 23  1  0
  8 24  1  0
  8 25  1  0
  9 26  1  0
 10 27  1  0
 11 28  1  0
 12 29  1  0
 14 30  1  0
M  END
