
     RDKit          3D

 25 26  0  0  0  0  0  0  0  0999 V2000
   -0.0697   -2.2732   -0.0277 C   0  0  0  0  0  0  0  0  0  0  0  0
    0.5393   -1.0072    0.0026 C   0  0  0  0  0  0  0  0  0  0  0  0
   -0.2661    0.1351    0.0062 C   0  0  0  0  0  0  0  0  0  0  0  0
   -1.6721    0.0184   -0.0210 C   0  0  0  0  0  0  0  0  0  0  0  0
   -2.2457   -1.2361   -0.0510 C   0  0  0  0  0  0  0  0  0  0  0  0
   -1.4387   -2.3800   -0.0540 C   0  0  0  0  0  0  0  0  0  0  0  0
    1.9726   -0.8204    0.0301 C   0  0  0  0  0  0  0  0  0  0  0  0
    2.4820    0.4321    0.0582 C   0  0  0  0  0  0  0  0  0  0  0  0
    1.6544    1.6217    0.0618 C   0  0  0  0  0  0  0  0  0  0  0  0
    0.3086    1.3790    0.0357 N   0  0  0  0  0  0  0  0  0  0  0  0
   -2.3415    1.1851   -0.0145 O   0  0  0  0  0  0  0  0  0  0  0  0
    2.0916    2.7679    0.0858 O   0  0  0  0  0  0  0  0  0  0  0  0
    2.8730   -2.0135    0.0272 C   0  0  0  0  0  0  0  0  0  0  0  0
   -3.7561    1.1510   -0.0451 C   0  0  0  0  0  0  0  0  0  0  0  0
    0.5426   -3.1644   -0.0304 H   0  0  0  0  0  0  0  0  0  0  0  0
   -3.3206   -1.3513   -0.0715 H   0  0  0  0  0  0  0  0  0  0  0  0
   -1.9082   -3.3541   -0.0763 H   0  0  0  0  0  0  0  0  0  0  0  0
    3.5532    0.5876    0.0786 H   0  0  0  0  0  0  0  0  0  0  0  0
   -0.2992    2.1871    0.0359 H   0  0  0  0  0  0  0  0  0  0  0  0
    2.7114   -2.6282   -0.8599 H   0  0  0  0  0  0  0  0  0  0  0  0
    3.9186   -1.7148    0.0465 H   0  0  0  0  0  0  0  0  0  0  0  0
    2.6857   -2.6509    0.8929 H   0  0  0  0  0  0  0  0  0  0  0  0
   -4.1280    0.6652   -0.9505 H   0  0  0  0  0  0  0  0  0  0  0  0
   -4.1658    0.6371    0.8278 H   0  0  0  0  0  0  0  0  0  0  0  0
   -4.0896    2.1851   -0.0356 H   0  0  0  0  0  0  0  0  0  0  0  0
  2  1  2  0
  6  1  1  0
  1 15  1  0
  3  2  1  0
  2  7  1  0
 10  3  1  0
  4  3  2  0
 11  4  1  0
  4  5  1  0
  5  6  2  0
  5 16  1  0
  6 17  1  0
  8  7  2  0
  7 13  1  0
  9  8  1  0
  8 18  1  0
 12  9  2  0
 10  9  1  0
 10 19  1  0
 14 11  1  0
 13 20  1  0
 13 21  1  0
 13 22  1  0
 14 23  1  0
 14 24  1  0
 14 25  1  0
M  END
