
     RDKit          3D

 43 45  0  0  0  0  0  0  0  0999 V2000
   -7.2425   -0.1872    0.2230 C   0  0  0  0  0  0  0  0  0  0  0  0
   -6.0201    0.6227   -0.2016 C   0  0  0  0  0  0  0  0  0  0  0  0
   -4.7549    0.0215    0.4089 C   0  0  1  0  0  0  0  0  0  0  0  0
   -4.5876   -1.4478    0.0215 C   0  0  0  0  0  0  0  0  0  0  0  0
   -5.8187   -2.2537    0.4245 C   0  0  0  0  0  0  0  0  0  0  0  0
   -7.0954   -1.6569   -0.1597 C   0  0  0  0  0  0  0  0  0  0  0  0
   -3.0852    1.1442   -1.0665 C   0  0  0  0  0  0  0  0  0  0  0  0
   -1.8179    1.9495   -0.8609 C   0  0  0  0  0  0  0  0  0  0  0  0
   -1.3711    1.5742    0.5585 C   0  0  1  0  0  0  0  0  0  0  0  0
   -2.6873    1.1958    1.2363 C   0  0  0  0  0  0  0  0  0  0  0  0
   -3.5488    0.7900    0.1428 N   0  0  0  0  0  0  0  0  0  0  0  0
   -0.4170    0.3942    0.4797 C   0  0  0  0  0  0  0  0  0  0  0  0
    0.8809    0.7695    0.3263 N   0  0  0  0  0  0  0  0  0  0  0  0
   -0.7955   -0.7605    0.5073 O   0  0  0  0  0  0  0  0  0  0  0  0
   -3.5965    0.8973   -2.1482 O   0  0  0  0  0  0  0  0  0  0  0  0
    3.2395    0.6506    0.1020 C   0  0  0  0  0  0  0  0  0  0  0  0
    4.4090   -0.0618   -0.0879 C   0  0  0  0  0  0  0  0  0  0  0  0
    4.4073   -1.4396   -0.2452 C   0  0  0  0  0  0  0  0  0  0  0  0
    3.1847   -2.0921   -0.2074 C   0  0  0  0  0  0  0  0  0  0  0  0
    1.9922   -1.4090   -0.0192 C   0  0  0  0  0  0  0  0  0  0  0  0
    2.0142   -0.0223    0.1383 C   0  0  0  0  0  0  0  0  0  0  0  0
   -8.1405    0.2360   -0.2326 H   0  0  0  0  0  0  0  0  0  0  0  0
   -7.3774   -0.1059    1.3073 H   0  0  0  0  0  0  0  0  0  0  0  0
   -5.9465    0.6215   -1.2903 H   0  0  0  0  0  0  0  0  0  0  0  0
   -6.1229    1.6639    0.1150 H   0  0  0  0  0  0  0  0  0  0  0  0
   -4.8823    0.0629    1.4962 H   0  0  0  0  0  0  0  0  0  0  0  0
   -4.4321   -1.5206   -1.0588 H   0  0  0  0  0  0  0  0  0  0  0  0
   -3.6903   -1.8477    0.5003 H   0  0  0  0  0  0  0  0  0  0  0  0
   -5.8962   -2.2700    1.5172 H   0  0  0  0  0  0  0  0  0  0  0  0
   -5.7029   -3.2928    0.1082 H   0  0  0  0  0  0  0  0  0  0  0  0
   -7.0716   -1.7455   -1.2513 H   0  0  0  0  0  0  0  0  0  0  0  0
   -7.9657   -2.2237    0.1798 H   0  0  0  0  0  0  0  0  0  0  0  0
   -2.0655    3.0126   -0.9213 H   0  0  0  0  0  0  0  0  0  0  0  0
   -1.0806    1.7472   -1.6379 H   0  0  0  0  0  0  0  0  0  0  0  0
   -0.8932    2.4121    1.0672 H   0  0  0  0  0  0  0  0  0  0  0  0
   -2.5698    0.3845    1.9555 H   0  0  0  0  0  0  0  0  0  0  0  0
   -3.1086    2.0537    1.7685 H   0  0  0  0  0  0  0  0  0  0  0  0
    1.0567    1.7629    0.3532 H   0  0  0  0  0  0  0  0  0  0  0  0
    5.3229   -1.9947   -0.3945 H   0  0  0  0  0  0  0  0  0  0  0  0
    3.1572   -3.1669   -0.3287 H   0  0  0  0  0  0  0  0  0  0  0  0
    1.0665   -1.9586    0.0002 H   0  0  0  0  0  0  0  0  0  0  0  0
    3.2635    1.7271    0.2211 H   0  0  0  0  0  0  0  0  0  0  0  0
    6.0499    0.8729   -0.1329 Br  0  0  0  0  0  0  0  0  0  0  0  0
  1  2  1  0
  1  6  1  0
  1 22  1  0
  1 23  1  0
  2  3  1  0
  2 24  1  0
  2 25  1  0
  3  4  1  0
  3 11  1  0
  3 26  1  1
  4  5  1  0
  4 27  1  0
  4 28  1  0
  5  6  1  0
  5 29  1  0
  5 30  1  0
  6 31  1  0
  6 32  1  0
  7  8  1  0
  7 11  1  0
  7 15  2  0
  8  9  1  0
  8 33  1  0
  8 34  1  0
  9 10  1  0
  9 12  1  0
  9 35  1  1
 10 11  1  0
 10 36  1  0
 10 37  1  0
 12 13  1  0
 12 14  2  0
 13 21  1  0
 13 38  1  0
 43 17  1  0
 16 17  2  0
 16 21  1  0
 16 42  1  0
 17 18  1  0
 18 19  2  0
 18 39  1  0
 19 20  1  0
 19 40  1  0
 20 21  2  0
 20 41  1  0
M  END
