
     RDKit          3D

 63 66  0  0  0  0  0  0  0  0999 V2000
    0.8024   -3.2875   -2.8269 O   0  0  0  0  0  0  0  0  0  0  0  0
    0.6947   -1.9004   -2.6174 C   0  0  2  0  0  0  0  0  0  0  0  0
    1.5550   -1.0203   -3.5160 C   0  0  0  0  0  0  0  0  0  0  0  0
    1.4795    0.3250   -2.8029 C   0  0  0  0  0  0  0  0  0  0  0  0
    1.4972   -0.0195   -1.2911 C   0  0  2  0  0  0  0  0  0  0  0  0
    2.8225    0.2416   -0.5820 C   0  0  0  0  0  0  0  0  0  0  0  0
    2.9209   -0.2227    0.8301 C   0  0  0  0  0  0  0  0  0  0  0  0
    3.7344   -1.3135    1.1370 C   0  0  0  0  0  0  0  0  0  0  0  0
    3.8443   -1.7813    2.4399 C   0  0  0  0  0  0  0  0  0  0  0  0
    3.1417   -1.1603    3.4630 C   0  0  0  0  0  0  0  0  0  0  0  0
    2.3383   -0.0652    3.1727 C   0  0  0  0  0  0  0  0  0  0  0  0
    2.2270    0.3981    1.8693 C   0  0  0  0  0  0  0  0  0  0  0  0
    3.9099    0.7521   -1.1575 C   0  0  0  0  0  0  0  0  0  0  0  0
    1.1829   -1.5467   -1.2179 C   0  0  1  0  0  0  0  0  0  0  0  0
    0.1549   -1.7197   -0.1041 C   0  0  0  0  0  0  0  0  0  0  0  0
   -0.4082   -0.3418    0.0931 C   0  0  0  0  0  0  0  0  0  0  0  0
   -1.5666   -0.1397    1.0133 C   0  0  0  0  0  0  0  0  0  0  0  0
   -2.8903   -0.6964    0.4845 C   0  0  0  0  0  0  0  0  0  0  0  0
   -4.0105   -0.6026    1.5124 C   0  0  0  0  0  0  0  0  0  0  0  0
   -5.3428   -1.1354    1.0019 C   0  0  0  0  0  0  0  0  0  0  0  0
   -6.4534   -1.0725    2.0438 C   0  0  0  0  0  0  0  0  0  0  0  0
   -7.7835   -1.6029    1.5271 C   0  0  0  0  0  0  0  0  0  0  0  0
    0.3070    0.5853   -0.5591 C   0  0  0  0  0  0  0  0  0  0  0  0
    0.0070    2.0237   -0.6313 C   0  0  0  0  0  0  0  0  0  0  0  0
   -1.2991    2.4607   -0.8760 C   0  0  0  0  0  0  0  0  0  0  0  0
   -1.6059    3.8116   -0.9460 C   0  0  0  0  0  0  0  0  0  0  0  0
   -0.6076    4.7638   -0.7867 C   0  0  0  0  0  0  0  0  0  0  0  0
    0.6985    4.3478   -0.5662 C   0  0  0  0  0  0  0  0  0  0  0  0
    1.0035    2.9957   -0.4945 C   0  0  0  0  0  0  0  0  0  0  0  0
    0.4336   -3.4929   -3.6912 H   0  0  0  0  0  0  0  0  0  0  0  0
   -0.3527   -1.5726   -2.7204 H   0  0  0  0  0  0  0  0  0  0  0  0
    2.5805   -1.4022   -3.5310 H   0  0  0  0  0  0  0  0  0  0  0  0
    1.1995   -0.9734   -4.5475 H   0  0  0  0  0  0  0  0  0  0  0  0
    2.2527    1.0224   -3.1176 H   0  0  0  0  0  0  0  0  0  0  0  0
    0.5280    0.8030   -3.0475 H   0  0  0  0  0  0  0  0  0  0  0  0
    4.2838   -1.8063    0.3439 H   0  0  0  0  0  0  0  0  0  0  0  0
    4.4773   -2.6336    2.6518 H   0  0  0  0  0  0  0  0  0  0  0  0
    3.2227   -1.5231    4.4795 H   0  0  0  0  0  0  0  0  0  0  0  0
    1.7952    0.4346    3.9645 H   0  0  0  0  0  0  0  0  0  0  0  0
    1.6024    1.2576    1.6697 H   0  0  0  0  0  0  0  0  0  0  0  0
    3.9344    1.0814   -2.1869 H   0  0  0  0  0  0  0  0  0  0  0  0
    4.8307    0.8646   -0.5989 H   0  0  0  0  0  0  0  0  0  0  0  0
    2.0905   -2.1268   -1.0278 H   0  0  0  0  0  0  0  0  0  0  0  0
   -0.6169   -2.4544   -0.3584 H   0  0  0  0  0  0  0  0  0  0  0  0
    0.6146   -2.0718    0.8255 H   0  0  0  0  0  0  0  0  0  0  0  0
   -1.3292   -0.6491    1.9558 H   0  0  0  0  0  0  0  0  0  0  0  0
   -1.6872    0.9180    1.2585 H   0  0  0  0  0  0  0  0  0  0  0  0
   -3.1790   -0.1575   -0.4237 H   0  0  0  0  0  0  0  0  0  0  0  0
   -2.7590   -1.7408    0.1870 H   0  0  0  0  0  0  0  0  0  0  0  0
   -3.7174   -1.1540    2.4127 H   0  0  0  0  0  0  0  0  0  0  0  0
   -4.1321    0.4410    1.8224 H   0  0  0  0  0  0  0  0  0  0  0  0
   -5.6454   -0.5693    0.1137 H   0  0  0  0  0  0  0  0  0  0  0  0
   -5.2176   -2.1723    0.6710 H   0  0  0  0  0  0  0  0  0  0  0  0
   -6.1487   -1.6398    2.9289 H   0  0  0  0  0  0  0  0  0  0  0  0
   -6.5782   -0.0376    2.3771 H   0  0  0  0  0  0  0  0  0  0  0  0
   -8.5603   -1.5512    2.2906 H   0  0  0  0  0  0  0  0  0  0  0  0
   -8.1282   -1.0274    0.6659 H   0  0  0  0  0  0  0  0  0  0  0  0
   -7.6991   -2.6448    1.2121 H   0  0  0  0  0  0  0  0  0  0  0  0
   -2.0826    1.7307   -1.0353 H   0  0  0  0  0  0  0  0  0  0  0  0
   -2.6259    4.1193   -1.1377 H   0  0  0  0  0  0  0  0  0  0  0  0
   -0.8430    5.8187   -0.8437 H   0  0  0  0  0  0  0  0  0  0  0  0
    1.4879    5.0793   -0.4492 H   0  0  0  0  0  0  0  0  0  0  0  0
    2.0296    2.6987   -0.3236 H   0  0  0  0  0  0  0  0  0  0  0  0
 27 28  2  0
 27 26  1  0
 28 29  1  0
 26 25  2  0
 29 24  2  0
 25 24  1  0
 24 23  1  0
 13  6  2  0
 23 16  2  0
 23  5  1  0
 19 20  1  0
 19 18  1  0
 17 16  1  0
 17 18  1  0
  6  7  1  0
  5  6  1  1
 21 20  1  0
 21 22  1  0
  8  7  2  0
  8  9  1  0
  7 12  1  0
 16 15  1  0
  5  4  1  0
  5 14  1  0
  4  3  1  0
  9 10  2  0
 12 11  2  0
 10 11  1  0
  3  2  1  0
 15 14  1  0
 14  2  1  0
  2  1  1  0
  1 30  1  0
  2 31  1  1
  3 32  1  0
  3 33  1  0
  4 34  1  0
  4 35  1  0
  8 36  1  0
  9 37  1  0
 10 38  1  0
 11 39  1  0
 12 40  1  0
 13 41  1  0
 13 42  1  0
 14 43  1  1
 15 44  1  0
 15 45  1  0
 17 46  1  0
 17 47  1  0
 18 48  1  0
 18 49  1  0
 19 50  1  0
 19 51  1  0
 20 52  1  0
 20 53  1  0
 21 54  1  0
 21 55  1  0
 22 56  1  0
 22 57  1  0
 22 58  1  0
 25 59  1  0
 26 60  1  0
 27 61  1  0
 28 62  1  0
 29 63  1  0
M  END
