
     RDKit          3D

 42 43  0  0  0  0  0  0  0  0999 V2000
    0.3474    3.4223    0.3294 C   0  0  0  0  0  0  0  0  0  0  0  0
    2.6969    3.3735   -0.5383 C   0  0  0  0  0  0  0  0  0  0  0  0
    3.8867    2.7232   -0.8254 C   0  0  0  0  0  0  0  0  0  0  0  0
    4.0219    1.3654   -0.5727 C   0  0  0  0  0  0  0  0  0  0  0  0
    2.9622    0.6493   -0.0204 C   0  0  0  0  0  0  0  0  0  0  0  0
    1.7728    1.3203    0.2723 C   0  0  0  0  0  0  0  0  0  0  0  0
    1.6252    2.6748    0.0133 C   0  0  0  0  0  0  0  0  0  0  0  0
    3.0895   -0.7947    0.2461 C   0  0  0  0  0  0  0  0  0  0  0  0
    2.0221   -1.6668    0.0257 C   0  0  0  0  0  0  0  0  0  0  0  0
    3.2077   -3.4872    0.7006 C   0  0  0  0  0  0  0  0  0  0  0  0
    2.0708   -2.9725    0.2463 N   0  0  0  0  0  0  0  0  0  0  0  0
    4.3367   -2.7203    0.9463 C   0  0  0  0  0  0  0  0  0  0  0  0
    4.2744   -1.3563    0.7173 C   0  0  0  0  0  0  0  0  0  0  0  0
   -0.7578    2.6084    0.7518 N   0  0  0  0  0  0  0  0  0  0  0  0
   -1.4629    1.8557   -0.1376 C   0  0  0  0  0  0  0  0  0  0  0  0
   -2.3646    1.0093    0.4173 N   0  0  0  0  0  0  0  0  0  0  0  0
   -3.2296    0.2135   -0.4039 C   0  0  0  0  0  0  0  0  0  0  0  0
   -4.1047   -0.6620    0.4603 C   0  0  0  0  0  0  0  0  0  0  0  0
   -1.3010    1.9402   -1.3499 O   0  0  0  0  0  0  0  0  0  0  0  0
   -4.1051   -0.6513    1.6657 O   0  0  0  0  0  0  0  0  0  0  0  0
   -4.8722   -1.4344   -0.2828 O   0  0  0  0  0  0  0  0  0  0  0  0
   -5.7825   -2.3300    0.3818 C   0  0  0  0  0  0  0  0  0  0  0  0
   -6.5400   -3.0873   -0.6805 C   0  0  0  0  0  0  0  0  0  0  0  0
    0.5421    4.1435    1.1251 H   0  0  0  0  0  0  0  0  0  0  0  0
    0.0550    4.0093   -0.5426 H   0  0  0  0  0  0  0  0  0  0  0  0
    4.7116    3.2729   -1.2598 H   0  0  0  0  0  0  0  0  0  0  0  0
    4.9461    0.8616   -0.8274 H   0  0  0  0  0  0  0  0  0  0  0  0
    0.9596    0.7736    0.7340 H   0  0  0  0  0  0  0  0  0  0  0  0
    1.0857   -1.2850   -0.3691 H   0  0  0  0  0  0  0  0  0  0  0  0
    3.2220   -4.5569    0.8761 H   0  0  0  0  0  0  0  0  0  0  0  0
    5.2411   -3.1824    1.3170 H   0  0  0  0  0  0  0  0  0  0  0  0
    5.1352   -0.7309    0.9190 H   0  0  0  0  0  0  0  0  0  0  0  0
   -0.8313    2.4021    1.7345 H   0  0  0  0  0  0  0  0  0  0  0  0
   -2.5459    1.0298    1.4087 H   0  0  0  0  0  0  0  0  0  0  0  0
   -3.8829    0.8236   -1.0375 H   0  0  0  0  0  0  0  0  0  0  0  0
   -2.6588   -0.4313   -1.0781 H   0  0  0  0  0  0  0  0  0  0  0  0
   -5.2198   -3.0112    1.0223 H   0  0  0  0  0  0  0  0  0  0  0  0
   -6.4626   -1.7553    1.0128 H   0  0  0  0  0  0  0  0  0  0  0  0
   -7.1181   -2.4173   -1.3163 H   0  0  0  0  0  0  0  0  0  0  0  0
   -5.8714   -3.6756   -1.3085 H   0  0  0  0  0  0  0  0  0  0  0  0
   -7.2356   -3.7735   -0.1981 H   0  0  0  0  0  0  0  0  0  0  0  0
    2.5995    4.4331   -0.7458 H   0  0  0  0  0  0  0  0  0  0  0  0
 19 15  2  0
  1 14  1  0
  1  7  1  0
 15 14  1  0
 15 16  1  0
  7  6  1  0
  7  2  2  0
  9 11  2  0
  9  8  1  0
  6  5  2  0
 11 10  1  0
 16 17  1  0
 17 18  1  0
  2  3  1  0
 21 18  1  0
 21 22  1  0
  5  8  1  0
  5  4  1  0
 18 20  2  0
  8 13  2  0
 23 22  1  0
 10 12  2  0
  3  4  2  0
 13 12  1  0
  1 24  1  0
  1 25  1  0
  2 42  1  0
  3 26  1  0
  4 27  1  0
  6 28  1  0
  9 29  1  0
 10 30  1  0
 12 31  1  0
 13 32  1  0
 14 33  1  0
 16 34  1  0
 17 35  1  0
 17 36  1  0
 22 37  1  0
 22 38  1  0
 23 39  1  0
 23 40  1  0
 23 41  1  0
M  END
