
     RDKit          3D

 20 19  0  0  0  0  0  0  0  0999 V2000
    1.5301   -0.4532    2.3598 N   0  0  0  0  0  0  0  0  0  0  0  0
    0.4134    0.1804    1.6968 C   0  0  1  0  0  0  0  0  0  0  0  0
   -0.0970   -0.4945    0.4172 C   0  0  0  0  0  0  0  0  0  0  0  0
    1.1584   -0.3395   -0.8181 S   0  0  0  0  0  0  0  0  0  0  0  0
    0.3341   -0.8627   -2.2815 C   0  0  0  0  0  0  0  0  0  0  0  0
   -0.4689    0.2109   -2.9320 C   0  0  0  0  0  0  0  0  0  0  0  0
   -0.1634    0.9431   -3.8746 O   0  0  0  0  0  0  0  0  0  0  0  0
   -1.7114    0.3870   -2.3925 O   0  0  0  0  0  0  0  0  0  0  0  0
   -0.7771    0.2589    2.6433 C   0  0  0  0  0  0  0  0  0  0  0  0
   -1.2625   -0.6278    3.3476 O   0  0  0  0  0  0  0  0  0  0  0  0
   -1.3529    1.4891    2.6879 O   0  0  0  0  0  0  0  0  0  0  0  0
    2.3012   -0.5484    1.7287 H   0  0  0  0  0  0  0  0  0  0  0  0
    1.2756   -1.3487    2.7302 H   0  0  0  0  0  0  0  0  0  0  0  0
    0.7313    1.2386    1.4414 H   0  0  0  0  0  0  0  0  0  0  0  0
   -0.3307   -1.5703    0.6059 H   0  0  0  0  0  0  0  0  0  0  0  0
   -1.0392    0.0057    0.0763 H   0  0  0  0  0  0  0  0  0  0  0  0
    1.1480   -1.1760   -2.9875 H   0  0  0  0  0  0  0  0  0  0  0  0
   -0.3288   -1.7413   -2.0796 H   0  0  0  0  0  0  0  0  0  0  0  0
   -2.1742    1.0992   -2.8652 H   0  0  0  0  0  0  0  0  0  0  0  0
   -2.1031    1.4767    3.3058 H   0  0  0  0  0  0  0  0  0  0  0  0
  1  2  1  0
  1 12  1  0
  1 13  1  0
  2  3  1  0
  2  9  1  0
  2 14  1  6
  3  4  1  0
  3 15  1  0
  3 16  1  0
  4  5  1  0
  5  6  1  0
  5 17  1  0
  5 18  1  0
  6  7  2  0
  6  8  1  0
  8 19  1  0
  9 10  2  0
  9 11  1  0
 11 20  1  0
M  END
