
     RDKit          3D

 48 48  0  0  0  0  0  0  0  0999 V2000
    1.6898    0.6496    1.9174 C   0  0  1  0  0  0  0  0  0  0  0  0
    1.2623    0.7768    0.6369 O   0  0  0  0  0  0  0  0  0  0  0  0
    3.1910    0.4240    1.9152 C   0  0  2  0  0  0  0  0  0  0  0  0
    3.4699   -0.8407    1.2937 O   0  0  0  0  0  0  0  0  0  0  0  0
    3.7554    0.4241    3.2848 C   0  0  1  0  0  0  0  0  0  0  0  0
    5.2095    0.3533    3.1941 O   0  0  0  0  0  0  0  0  0  0  0  0
    3.3703    1.6613    4.0536 C   0  0  2  0  0  0  0  0  0  0  0  0
    3.8044    1.5202    5.3856 O   0  0  0  0  0  0  0  0  0  0  0  0
    1.8508    1.8938    4.0485 C   0  0  2  0  0  0  0  0  0  0  0  0
    1.2996    1.8944    2.6954 O   0  0  0  0  0  0  0  0  0  0  0  0
    1.5456    3.2263    4.6921 C   0  0  0  0  0  0  0  0  0  0  0  0
    1.4075    3.0575    6.0870 O   0  0  0  0  0  0  0  0  0  0  0  0
   -0.0362    0.1833    0.3890 C   0  0  0  0  0  0  0  0  0  0  0  0
   -0.3259    0.1911   -1.1122 C   0  0  0  0  0  0  0  0  0  0  0  0
   -1.6111   -0.5558   -1.3803 C   0  0  0  0  0  0  0  0  0  0  0  0
   -1.7961   -0.7211   -2.9199 C   0  0  0  0  0  0  0  0  0  0  0  0
   -3.1311   -1.5032   -3.2094 C   0  0  0  0  0  0  0  0  0  0  0  0
   -3.2338   -1.7977   -4.6941 C   0  0  0  0  0  0  0  0  0  0  0  0
   -4.5629   -2.4943   -4.9872 C   0  0  0  0  0  0  0  0  0  0  0  0
   -4.6879   -2.7517   -6.5328 C   0  0  0  0  0  0  0  0  0  0  0  0
    1.2048   -0.2148    2.3729 H   0  0  0  0  0  0  0  0  0  0  0  0
    3.6698    1.2290    1.3338 H   0  0  0  0  0  0  0  0  0  0  0  0
    4.2099   -0.7474    0.7102 H   0  0  0  0  0  0  0  0  0  0  0  0
    3.3830   -0.4614    3.8231 H   0  0  0  0  0  0  0  0  0  0  0  0
    5.5099   -0.3716    3.6735 H   0  0  0  0  0  0  0  0  0  0  0  0
    3.8693    2.5373    3.5952 H   0  0  0  0  0  0  0  0  0  0  0  0
    4.6214    1.9432    5.4896 H   0  0  0  0  0  0  0  0  0  0  0  0
    1.3815    1.1156    4.6125 H   0  0  0  0  0  0  0  0  0  0  0  0
    2.3782    3.9471    4.4780 H   0  0  0  0  0  0  0  0  0  0  0  0
    0.5920    3.6281    4.2732 H   0  0  0  0  0  0  0  0  0  0  0  0
    1.1677    3.8783    6.4784 H   0  0  0  0  0  0  0  0  0  0  0  0
   -0.0429   -0.8453    0.7544 H   0  0  0  0  0  0  0  0  0  0  0  0
   -0.8008    0.7572    0.9048 H   0  0  0  0  0  0  0  0  0  0  0  0
   -0.4306    1.2532   -1.4685 H   0  0  0  0  0  0  0  0  0  0  0  0
    0.5111   -0.3041   -1.6597 H   0  0  0  0  0  0  0  0  0  0  0  0
   -2.4384   -0.0030   -0.9743 H   0  0  0  0  0  0  0  0  0  0  0  0
   -1.5653   -1.5518   -0.9060 H   0  0  0  0  0  0  0  0  0  0  0  0
   -1.8413    0.2523   -3.3846 H   0  0  0  0  0  0  0  0  0  0  0  0
   -0.9715   -1.2660   -3.3196 H   0  0  0  0  0  0  0  0  0  0  0  0
   -4.0046   -0.8788   -2.8927 H   0  0  0  0  0  0  0  0  0  0  0  0
   -3.1328   -2.4536   -2.6435 H   0  0  0  0  0  0  0  0  0  0  0  0
   -2.4248   -2.4341   -4.9895 H   0  0  0  0  0  0  0  0  0  0  0  0
   -3.1841   -0.8745   -5.2454 H   0  0  0  0  0  0  0  0  0  0  0  0
   -4.6002   -3.4432   -4.4584 H   0  0  0  0  0  0  0  0  0  0  0  0
   -5.3956   -1.8536   -4.6508 H   0  0  0  0  0  0  0  0  0  0  0  0
   -5.6059   -3.2657   -6.7372 H   0  0  0  0  0  0  0  0  0  0  0  0
   -3.8500   -3.3590   -6.8662 H   0  0  0  0  0  0  0  0  0  0  0  0
   -4.6805   -1.8046   -7.0605 H   0  0  0  0  0  0  0  0  0  0  0  0
  1  2  1  0
  1  3  1  0
  1 10  1  0
  1 21  1  1
  2 13  1  0
  3  4  1  0
  3  5  1  0
  3 22  1  6
  4 23  1  0
  5  6  1  0
  5  7  1  0
  5 24  1  1
  6 25  1  0
  7  8  1  0
  7  9  1  0
  7 26  1  6
  8 27  1  0
  9 10  1  0
  9 11  1  0
  9 28  1  1
 11 12  1  0
 11 29  1  0
 11 30  1  0
 12 31  1  0
 13 14  1  0
 13 32  1  0
 13 33  1  0
 14 15  1  0
 14 34  1  0
 14 35  1  0
 15 16  1  0
 15 36  1  0
 15 37  1  0
 16 17  1  0
 16 38  1  0
 16 39  1  0
 17 18  1  0
 17 40  1  0
 17 41  1  0
 18 19  1  0
 18 42  1  0
 18 43  1  0
 19 20  1  0
 19 44  1  0
 19 45  1  0
 20 46  1  0
 20 47  1  0
 20 48  1  0
M  END
