
     RDKit          3D

 48 48  0  0  0  0  0  0  0  0999 V2000
   -3.3319    1.1376   -0.7771 C   0  0  0  0  0  0  0  0  0  0  0  0
    0.8299   -1.9572   -0.2438 N   0  0  0  0  0  0  0  0  0  0  0  0
   -3.1127    2.1638   -0.1769 O   0  0  0  0  0  0  0  0  0  0  0  0
    0.7462   -0.5051   -0.0757 C   0  0  1  0  0  0  0  0  0  0  0  0
    1.8918    0.2403   -0.7576 C   0  0  0  0  0  0  0  0  0  0  0  0
    3.2969   -0.1542   -0.3035 C   0  0  2  0  0  0  0  0  0  0  0  0
   -0.6213   -0.0547   -0.6297 C   0  0  1  0  0  0  0  0  0  0  0  0
   -0.8429   -0.6582   -1.8841 O   0  0  0  0  0  0  0  0  0  0  0  0
    5.9676    0.4619    0.8334 C   0  0  0  0  0  0  0  0  0  0  0  0
   -3.1568   -0.2385   -0.1825 C   0  0  2  0  0  0  0  0  0  0  0  0
   -4.2289   -0.4540    0.9093 C   0  0  1  0  0  0  0  0  0  0  0  0
   -1.7333   -0.3909    0.3635 C   0  0  0  0  0  0  0  0  0  0  0  0
    3.5073    0.0325    1.1996 C   0  0  0  0  0  0  0  0  0  0  0  0
    4.3483    0.6344   -1.0860 C   0  0  0  0  0  0  0  0  0  0  0  0
    4.9287   -0.3231    1.6265 C   0  0  0  0  0  0  0  0  0  0  0  0
    5.7690    0.2719   -0.6667 C   0  0  0  0  0  0  0  0  0  0  0  0
   -5.6419   -0.2784    0.3558 C   0  0  0  0  0  0  0  0  0  0  0  0
   -4.0969   -1.8342    1.5464 C   0  0  0  0  0  0  0  0  0  0  0  0
   -3.7723    1.1212   -2.0297 O   0  0  0  0  0  0  0  0  0  0  0  0
    1.5709   -2.2132   -0.8819 H   0  0  0  0  0  0  0  0  0  0  0  0
    1.0269   -2.4250    0.6286 H   0  0  0  0  0  0  0  0  0  0  0  0
    0.7645   -0.2675    0.9928 H   0  0  0  0  0  0  0  0  0  0  0  0
    1.8150    0.0923   -1.8414 H   0  0  0  0  0  0  0  0  0  0  0  0
    1.7551    1.3139   -0.5871 H   0  0  0  0  0  0  0  0  0  0  0  0
    3.4551   -1.2171   -0.5330 H   0  0  0  0  0  0  0  0  0  0  0  0
   -0.5969    1.0277   -0.7971 H   0  0  0  0  0  0  0  0  0  0  0  0
   -0.5972   -1.5867   -1.7435 H   0  0  0  0  0  0  0  0  0  0  0  0
    5.8806    1.5266    1.0777 H   0  0  0  0  0  0  0  0  0  0  0  0
    6.9760    0.1585    1.1255 H   0  0  0  0  0  0  0  0  0  0  0  0
   -3.3192   -0.9838   -0.9652 H   0  0  0  0  0  0  0  0  0  0  0  0
   -4.0676    0.3001    1.6875 H   0  0  0  0  0  0  0  0  0  0  0  0
   -1.6000   -1.4256    0.6897 H   0  0  0  0  0  0  0  0  0  0  0  0
   -1.6117    0.2367    1.2521 H   0  0  0  0  0  0  0  0  0  0  0  0
    3.2943    1.0759    1.4639 H   0  0  0  0  0  0  0  0  0  0  0  0
    2.7975   -0.5788    1.7633 H   0  0  0  0  0  0  0  0  0  0  0  0
    4.2158    0.4610   -2.1582 H   0  0  0  0  0  0  0  0  0  0  0  0
    4.1854    1.7076   -0.9259 H   0  0  0  0  0  0  0  0  0  0  0  0
    5.0906   -1.3962    1.4747 H   0  0  0  0  0  0  0  0  0  0  0  0
    5.0526   -0.1430    2.6975 H   0  0  0  0  0  0  0  0  0  0  0  0
    6.4915    0.8734   -1.2242 H   0  0  0  0  0  0  0  0  0  0  0  0
    5.9682   -0.7727   -0.9297 H   0  0  0  0  0  0  0  0  0  0  0  0
   -5.8359   -0.9811   -0.4579 H   0  0  0  0  0  0  0  0  0  0  0  0
   -6.3805   -0.4670    1.1363 H   0  0  0  0  0  0  0  0  0  0  0  0
   -5.8300    0.7284   -0.0202 H   0  0  0  0  0  0  0  0  0  0  0  0
   -3.1509   -1.9644    2.0705 H   0  0  0  0  0  0  0  0  0  0  0  0
   -4.8938   -1.9925    2.2746 H   0  0  0  0  0  0  0  0  0  0  0  0
   -4.1751   -2.6223    0.7934 H   0  0  0  0  0  0  0  0  0  0  0  0
   -3.8887    2.0298   -2.3472 H   0  0  0  0  0  0  0  0  0  0  0  0
  1  3  2  0
  1 10  1  0
  4  2  1  0
  5  4  1  0
  6  5  1  0
  6 14  1  0
  6 13  1  0
  7  4  1  0
  7  8  1  0
  7 12  1  0
 10 12  1  0
 10 11  1  0
 11 18  1  0
 15  9  1  0
 15 13  1  0
 16  9  1  0
 16 14  1  0
 17 11  1  0
  1 19  1  0
  2 20  1  0
  2 21  1  0
  4 22  1  1
  5 23  1  0
  5 24  1  0
  6 25  1  1
  7 26  1  6
  8 27  1  0
  9 28  1  0
  9 29  1  0
 10 30  1  6
 11 31  1  1
 12 32  1  0
 12 33  1  0
 13 34  1  0
 13 35  1  0
 14 36  1  0
 14 37  1  0
 15 38  1  0
 15 39  1  0
 16 40  1  0
 16 41  1  0
 17 42  1  0
 17 43  1  0
 17 44  1  0
 18 45  1  0
 18 46  1  0
 18 47  1  0
 19 48  1  0
M  END
