
     RDKit          3D

 62 67  0  0  0  0  0  0  0  0999 V2000
    5.5507   -1.3421   -6.7488 N   0  0  0  0  0  0  0  0  0  0  0  0
    6.4573   -1.8972   -5.9433 C   0  0  0  0  0  0  0  0  0  0  0  0
    7.4665   -2.5967   -6.4729 N   0  0  0  0  0  0  0  0  0  0  0  0
    8.3760   -3.1359   -5.6651 C   0  0  0  0  0  0  0  0  0  0  0  0
    8.4414   -3.0794   -4.3465 N   0  0  0  0  0  0  0  0  0  0  0  0
    7.4317   -2.3781   -3.8327 C   0  0  0  0  0  0  0  0  0  0  0  0
    6.4077   -1.7708   -4.5424 C   0  0  0  0  0  0  0  0  0  0  0  0
    5.5235   -1.1609   -3.6938 N   0  0  0  0  0  0  0  0  0  0  0  0
    6.0025   -1.3912   -2.5058 C   0  0  0  0  0  0  0  0  0  0  0  0
    7.1678   -2.1096   -2.5203 N   0  0  0  0  0  0  0  0  0  0  0  0
    7.9298   -2.5940   -1.3674 C   0  0  2  0  0  0  0  0  0  0  0  0
    7.3565   -2.0848   -0.2061 O   0  0  0  0  0  0  0  0  0  0  0  0
    9.3773   -2.0859   -1.3834 C   0  0  2  0  0  0  0  0  0  0  0  0
   10.1683   -2.8556   -0.5247 O   0  0  0  0  0  0  0  0  0  0  0  0
    9.1922   -0.7066   -0.7611 C   0  0  2  0  0  0  0  0  0  0  0  0
   10.3831   -0.1973   -0.2494 O   0  0  0  0  0  0  0  0  0  0  0  0
    8.1088   -0.9787    0.2975 C   0  0  1  0  0  0  0  0  0  0  0  0
    7.2064    0.2146    0.5348 C   0  0  0  0  0  0  0  0  0  0  0  0
    5.7587   -0.2895    1.5233 S   0  0  0  0  0  0  0  0  0  0  0  0
    4.8263    1.5081    1.8313 S   0  0  0  0  0  0  0  0  0  0  0  0
    3.8429    1.6688    0.3029 C   0  0  0  0  0  0  0  0  0  0  0  0
    3.1842    3.0300    0.2527 C   0  0  1  0  0  0  0  0  0  0  0  0
    4.1791    4.0418    0.2670 O   0  0  0  0  0  0  0  0  0  0  0  0
    2.3865    3.2427   -1.0365 C   0  0  1  0  0  0  0  0  0  0  0  0
    1.0599    2.8282   -0.8520 O   0  0  0  0  0  0  0  0  0  0  0  0
    2.5223    4.7563   -1.2559 C   0  0  1  0  0  0  0  0  0  0  0  0
    1.5615    5.4514   -0.5073 O   0  0  0  0  0  0  0  0  0  0  0  0
    3.8900    5.0679   -0.6397 C   0  0  2  0  0  0  0  0  0  0  0  0
    4.9736    5.2018   -1.5919 N   0  0  0  0  0  0  0  0  0  0  0  0
    5.7089    6.3440   -1.7648 C   0  0  0  0  0  0  0  0  0  0  0  0
    6.6527    6.2316   -2.6484 N   0  0  0  0  0  0  0  0  0  0  0  0
    6.5482    4.9366   -3.0855 C   0  0  0  0  0  0  0  0  0  0  0  0
    5.5135    4.2741   -2.4418 C   0  0  0  0  0  0  0  0  0  0  0  0
    5.1550    3.0074   -2.6431 N   0  0  0  0  0  0  0  0  0  0  0  0
    5.9073    2.4131   -3.5533 C   0  0  0  0  0  0  0  0  0  0  0  0
    6.9251    2.9220   -4.2412 N   0  0  0  0  0  0  0  0  0  0  0  0
    7.2789    4.1944   -4.0321 C   0  0  0  0  0  0  0  0  0  0  0  0
    8.3007    4.7088   -4.7172 N   0  0  0  0  0  0  0  0  0  0  0  0
    4.7418   -0.8785   -6.3739 H   0  0  0  0  0  0  0  0  0  0  0  0
    5.5765   -1.5222   -7.7378 H   0  0  0  0  0  0  0  0  0  0  0  0
    9.1639   -3.6945   -6.1586 H   0  0  0  0  0  0  0  0  0  0  0  0
    5.5372   -1.0776   -1.5839 H   0  0  0  0  0  0  0  0  0  0  0  0
    7.8723   -3.6856   -1.3606 H   0  0  0  0  0  0  0  0  0  0  0  0
    9.7895   -2.0353   -2.3954 H   0  0  0  0  0  0  0  0  0  0  0  0
   10.3995   -3.6776   -0.9688 H   0  0  0  0  0  0  0  0  0  0  0  0
    8.7765   -0.0466   -1.5355 H   0  0  0  0  0  0  0  0  0  0  0  0
   10.3059    0.7590   -0.1871 H   0  0  0  0  0  0  0  0  0  0  0  0
    8.5748   -1.2784    1.2419 H   0  0  0  0  0  0  0  0  0  0  0  0
    6.8648    0.6454   -0.4089 H   0  0  0  0  0  0  0  0  0  0  0  0
    7.7612    0.9799    1.0785 H   0  0  0  0  0  0  0  0  0  0  0  0
    4.4987    1.5531   -0.5600 H   0  0  0  0  0  0  0  0  0  0  0  0
    3.0785    0.8919    0.2835 H   0  0  0  0  0  0  0  0  0  0  0  0
    2.5173    3.1579    1.1161 H   0  0  0  0  0  0  0  0  0  0  0  0
    2.8680    2.7145   -1.8630 H   0  0  0  0  0  0  0  0  0  0  0  0
    0.6808    2.6103   -1.7093 H   0  0  0  0  0  0  0  0  0  0  0  0
    2.4832    5.0307   -2.3173 H   0  0  0  0  0  0  0  0  0  0  0  0
    0.7673    4.9019   -0.4784 H   0  0  0  0  0  0  0  0  0  0  0  0
    3.8456    6.0316   -0.1244 H   0  0  0  0  0  0  0  0  0  0  0  0
    5.4879    7.2354   -1.1956 H   0  0  0  0  0  0  0  0  0  0  0  0
    5.6651    1.3777   -3.7692 H   0  0  0  0  0  0  0  0  0  0  0  0
    8.5755    5.6683   -4.6026 H   0  0  0  0  0  0  0  0  0  0  0  0
    8.7816    4.1520   -5.4024 H   0  0  0  0  0  0  0  0  0  0  0  0
  1  2  1  0
  1 39  1  0
  1 40  1  0
  2  7  2  0
  2  3  1  0
  3  4  2  0
  4  5  1  0
  4 41  1  0
  5  6  2  0
  6  7  1  0
  6 10  1  0
  7  8  1  0
  8  9  2  0
  9 10  1  0
  9 42  1  0
 10 11  1  0
 11 13  1  0
 11 12  1  0
 11 43  1  1
 12 17  1  0
 13 14  1  0
 13 15  1  0
 13 44  1  6
 14 45  1  0
 15 16  1  0
 15 17  1  0
 15 46  1  6
 16 47  1  0
 17 18  1  0
 17 48  1  1
 18 19  1  0
 18 49  1  0
 18 50  1  0
 19 20  1  0
 20 21  1  0
 21 22  1  0
 21 51  1  0
 21 52  1  0
 22 23  1  0
 22 24  1  0
 22 53  1  1
 23 28  1  0
 24 26  1  0
 24 25  1  0
 24 54  1  6
 25 55  1  0
 26 28  1  0
 26 27  1  0
 26 56  1  6
 27 57  1  0
 28 29  1  0
 28 58  1  1
 29 30  1  0
 29 33  1  0
 30 31  2  0
 30 59  1  0
 31 32  1  0
 32 37  1  0
 32 33  2  0
 33 34  1  0
 34 35  2  0
 35 36  1  0
 35 60  1  0
 36 37  2  0
 37 38  1  0
 38 61  1  0
 38 62  1  0
M  END
