
     RDKit          3D

 31 32  0  0  0  0  0  0  0  0999 V2000
   -0.6106    1.4980    0.1066 C   0  0  0  0  0  0  0  0  0  0  0  0
    1.4213    2.3365    0.3202 C   0  0  0  0  0  0  0  0  0  0  0  0
    2.7326    0.2650    0.7150 C   0  0  0  0  0  0  0  0  0  0  0  0
    3.2653   -0.3070   -0.5907 C   0  0  0  0  0  0  0  0  0  0  0  0
    4.5222   -1.1053   -0.3869 C   0  0  0  0  0  0  0  0  0  0  0  0
   -0.2440   -0.8498    0.4290 C   0  0  0  0  0  0  0  0  0  0  0  0
   -2.2736   -2.6101    0.3066 Cl  0  0  0  0  0  0  0  0  0  0  0  0
   -1.6092   -1.0168    0.2334 C   0  0  0  0  0  0  0  0  0  0  0  0
   -2.4767    0.0559   -0.0236 C   0  0  0  0  0  0  0  0  0  0  0  0
   -3.7688   -0.2454   -0.1943 O   0  0  0  0  0  0  0  0  0  0  0  0
   -4.6891    0.8030   -0.4820 C   0  0  0  0  0  0  0  0  0  0  0  0
   -6.0590    0.1900   -0.6406 C   0  0  0  0  0  0  0  0  0  0  0  0
    0.2389    0.4393    0.3597 C   0  0  0  0  0  0  0  0  0  0  0  0
   -1.9629    1.3558   -0.0880 C   0  0  0  0  0  0  0  0  0  0  0  0
    1.5014    0.9911    0.5038 N   0  0  0  0  0  0  0  0  0  0  0  0
    2.2944    3.1621    0.3447 O   0  0  0  0  0  0  0  0  0  0  0  0
    0.1131    2.6499    0.0882 O   0  0  0  0  0  0  0  0  0  0  0  0
    5.0595   -1.2770    0.6787 O   0  0  0  0  0  0  0  0  0  0  0  0
    4.9798   -1.6032   -1.5275 O   0  0  0  0  0  0  0  0  0  0  0  0
    2.5399   -0.5228    1.4430 H   0  0  0  0  0  0  0  0  0  0  0  0
    3.4505    0.9461    1.1678 H   0  0  0  0  0  0  0  0  0  0  0  0
    2.5193   -0.9478   -1.0703 H   0  0  0  0  0  0  0  0  0  0  0  0
    3.4724    0.4970   -1.3023 H   0  0  0  0  0  0  0  0  0  0  0  0
    0.3948   -1.7006    0.6237 H   0  0  0  0  0  0  0  0  0  0  0  0
   -4.6888    1.5362    0.3309 H   0  0  0  0  0  0  0  0  0  0  0  0
   -4.3917    1.3209   -1.3997 H   0  0  0  0  0  0  0  0  0  0  0  0
   -6.0832   -0.5279   -1.4602 H   0  0  0  0  0  0  0  0  0  0  0  0
   -6.3801   -0.3103    0.2729 H   0  0  0  0  0  0  0  0  0  0  0  0
   -6.7790    0.9769   -0.8630 H   0  0  0  0  0  0  0  0  0  0  0  0
   -2.5867    2.2173   -0.2790 H   0  0  0  0  0  0  0  0  0  0  0  0
    5.7917   -2.1080   -1.3690 H   0  0  0  0  0  0  0  0  0  0  0  0
 18  5  2  0
  5 19  1  0
  5  4  1  0
  7  8  1  0
  4  3  1  0
  3 15  1  0
  6  8  1  0
  6 13  2  0
  8  9  2  0
 13 15  1  0
 13  1  1  0
 15  2  1  0
  9 10  1  0
  9 14  1  0
 10 11  1  0
  1 14  2  0
  1 17  1  0
  2 16  2  0
  2 17  1  0
 12 11  1  0
  3 20  1  0
  3 21  1  0
  4 22  1  0
  4 23  1  0
  6 24  1  0
 11 25  1  0
 11 26  1  0
 12 27  1  0
 12 28  1  0
 12 29  1  0
 14 30  1  0
 19 31  1  0
M  END
