
     RDKit          3D

 46 48  0  0  0  0  0  0  0  0999 V2000
   -2.0243   -0.4913    1.5309 C   0  0  0  0  0  0  0  0  0  0  0  0
   -0.7255   -0.0390    1.6738 C   0  0  0  0  0  0  0  0  0  0  0  0
    0.2573   -0.3877    0.7432 C   0  0  0  0  0  0  0  0  0  0  0  0
   -4.6161   -0.9958   -0.1343 C   0  0  0  0  0  0  0  0  0  0  0  0
   -4.3905    0.2473   -0.7134 C   0  0  0  0  0  0  0  0  0  0  0  0
   -5.4638    0.9950   -1.1790 C   0  0  0  0  0  0  0  0  0  0  0  0
   -6.7510    0.4997   -1.0661 C   0  0  0  0  0  0  0  0  0  0  0  0
   -6.9816   -0.7417   -0.4907 C   0  0  0  0  0  0  0  0  0  0  0  0
   -5.9137   -1.4871   -0.0234 C   0  0  0  0  0  0  0  0  0  0  0  0
    2.8752   -0.5592   -0.2350 C   0  0  0  0  0  0  0  0  0  0  0  0
    6.4341   -0.6574    1.3133 C   0  0  0  0  0  0  0  0  0  0  0  0
    6.6417   -0.7521   -1.0135 C   0  0  0  0  0  0  0  0  0  0  0  0
    5.1406   -0.8837   -1.2096 C   0  0  0  0  0  0  0  0  0  0  0  0
   -1.3933   -1.6555   -0.4767 C   0  0  0  0  0  0  0  0  0  0  0  0
   -0.0882   -1.2012   -0.3317 C   0  0  0  0  0  0  0  0  0  0  0  0
   -2.3536   -1.3040    0.4538 C   0  0  0  0  0  0  0  0  0  0  0  0
    4.4895    1.3350   -0.0993 C   0  0  0  0  0  0  0  0  0  0  0  0
    4.9162   -0.7430    1.2489 C   0  0  0  0  0  0  0  0  0  0  0  0
    4.3600   -0.1975   -0.0730 C   0  0  1  0  0  0  0  0  0  0  0  0
    4.6586    1.9993    0.9050 O   0  0  0  0  0  0  0  0  0  0  0  0
    7.0546   -1.2955    0.2181 O   0  0  0  0  0  0  0  0  0  0  0  0
    4.2335    3.2378   -1.4345 O   0  0  0  0  0  0  0  0  0  0  0  0
   -3.6268   -1.8042    0.3310 O   0  0  0  0  0  0  0  0  0  0  0  0
    1.8674    0.2646    1.0287 S   0  0  0  0  0  0  0  0  0  0  0  0
   -8.0885    1.4369   -1.6503 Cl  0  0  0  0  0  0  0  0  0  0  0  0
   -2.7747   -0.2213    2.2632 H   0  0  0  0  0  0  0  0  0  0  0  0
   -0.4750    0.5860    2.5223 H   0  0  0  0  0  0  0  0  0  0  0  0
   -3.3914    0.6487   -0.8171 H   0  0  0  0  0  0  0  0  0  0  0  0
   -5.2821    1.9609   -1.6303 H   0  0  0  0  0  0  0  0  0  0  0  0
   -7.9872   -1.1289   -0.3995 H   0  0  0  0  0  0  0  0  0  0  0  0
   -6.0893   -2.4549    0.4285 H   0  0  0  0  0  0  0  0  0  0  0  0
    2.5148   -0.2788   -1.2275 H   0  0  0  0  0  0  0  0  0  0  0  0
    2.7690   -1.6407   -0.1318 H   0  0  0  0  0  0  0  0  0  0  0  0
    6.7523    0.3916    1.3752 H   0  0  0  0  0  0  0  0  0  0  0  0
    6.7927   -1.1563    2.2150 H   0  0  0  0  0  0  0  0  0  0  0  0
    7.1675   -1.2977   -1.7983 H   0  0  0  0  0  0  0  0  0  0  0  0
    6.9437    0.3033   -1.0954 H   0  0  0  0  0  0  0  0  0  0  0  0
    4.8683   -0.5065   -2.1975 H   0  0  0  0  0  0  0  0  0  0  0  0
    4.8735   -1.9442   -1.2112 H   0  0  0  0  0  0  0  0  0  0  0  0
    4.0564    1.3744   -2.1288 H   0  0  0  0  0  0  0  0  0  0  0  0
   -1.6527   -2.2889   -1.3153 H   0  0  0  0  0  0  0  0  0  0  0  0
    0.6407   -1.4909   -1.0749 H   0  0  0  0  0  0  0  0  0  0  0  0
    4.6119   -1.7903    1.3352 H   0  0  0  0  0  0  0  0  0  0  0  0
    4.4938   -0.2226    2.1085 H   0  0  0  0  0  0  0  0  0  0  0  0
    5.1009    3.5846   -1.6790 H   0  0  0  0  0  0  0  0  0  0  0  0
    4.3871    1.8876   -1.3252 N   0  0  0  0  0  0  0  0  0  0  0  0
 25  7  1  0
  7  6  1  0
  7  8  2  0
  6  5  2  0
  8  9  1  0
  5  4  1  0
  9  4  2  0
  4 23  1  0
 23 16  1  0
  1 16  2  0
  1  2  1  0
 16 14  1  0
  2  3  2  0
 14 15  2  0
  3 15  1  0
  3 24  1  0
 13 12  1  0
 13 19  1  0
 20 17  2  0
 12 21  1  0
 24 10  1  0
 10 19  1  0
 19 17  1  1
 19 18  1  0
 17 46  1  0
 21 11  1  0
 18 11  1  0
 46 22  1  0
  1 26  1  0
  2 27  1  0
  5 28  1  0
  6 29  1  0
  8 30  1  0
  9 31  1  0
 10 32  1  0
 10 33  1  0
 11 34  1  0
 11 35  1  0
 12 36  1  0
 12 37  1  0
 13 38  1  0
 13 39  1  0
 46 40  1  0
 14 41  1  0
 15 42  1  0
 18 43  1  0
 18 44  1  0
 22 45  1  0
M  END
