
     RDKit          3D

 46 49  0  0  0  0  0  0  0  0999 V2000
    3.6734    0.0075    2.0390 F   0  0  0  0  0  0  0  0  0  0  0  0
    4.4237   -0.0998    0.9428 C   0  0  0  0  0  0  0  0  0  0  0  0
    5.6569    0.5154    0.9017 C   0  0  0  0  0  0  0  0  0  0  0  0
    6.4055    0.3799   -0.2535 C   0  0  0  0  0  0  0  0  0  0  0  0
    7.6056    0.9683   -0.3061 F   0  0  0  0  0  0  0  0  0  0  0  0
    5.9575   -0.3385   -1.3432 C   0  0  0  0  0  0  0  0  0  0  0  0
    4.7099   -0.9427   -1.2716 C   0  0  0  0  0  0  0  0  0  0  0  0
    3.9387   -0.8330   -0.1299 C   0  0  0  0  0  0  0  0  0  0  0  0
    2.7420   -1.4899   -0.0356 O   0  0  0  0  0  0  0  0  0  0  0  0
    1.6045   -0.7732   -0.1548 C   0  0  0  0  0  0  0  0  0  0  0  0
    1.7041    0.5125   -0.3726 N   0  0  0  0  0  0  0  0  0  0  0  0
    0.5244   -1.5328   -0.0312 N   0  0  0  0  0  0  0  0  0  0  0  0
   -0.6708   -0.9543   -0.1426 C   0  0  0  0  0  0  0  0  0  0  0  0
   -1.7632   -1.6980    0.0124 N   0  0  0  0  0  0  0  0  0  0  0  0
   -1.7590   -3.1255    0.2311 C   0  0  0  0  0  0  0  0  0  0  0  0
   -3.1031   -3.5641    0.7870 C   0  0  1  0  0  0  0  0  0  0  0  0
   -4.0936   -3.1099   -0.1208 O   0  0  0  0  0  0  0  0  0  0  0  0
   -3.1515   -5.0693    0.9793 C   0  0  0  0  0  0  0  0  0  0  0  0
   -0.7295    0.4380   -0.4053 C   0  0  0  0  0  0  0  0  0  0  0  0
    0.5005    1.0849   -0.4832 C   0  0  0  0  0  0  0  0  0  0  0  0
    0.2239    2.3813   -0.6825 N   0  0  0  0  0  0  0  0  0  0  0  0
   -1.0924    2.6261   -0.7331 N   0  0  0  0  0  0  0  0  0  0  0  0
   -1.6891    1.4723   -0.5728 C   0  0  0  0  0  0  0  0  0  0  0  0
   -3.1514    1.3283   -0.5989 C   0  0  0  0  0  0  0  0  0  0  0  0
   -3.9899    1.9317    0.3371 C   0  0  0  0  0  0  0  0  0  0  0  0
   -3.3350    2.9074    1.5989 Cl  0  0  0  0  0  0  0  0  0  0  0  0
   -3.7342    0.5227   -1.5767 C   0  0  0  0  0  0  0  0  0  0  0  0
   -5.1030    0.3183   -1.6230 C   0  0  0  0  0  0  0  0  0  0  0  0
   -5.9180    0.9328   -0.6849 C   0  0  0  0  0  0  0  0  0  0  0  0
   -5.3632    1.7400    0.2949 C   0  0  0  0  0  0  0  0  0  0  0  0
    6.0226    1.0812    1.7475 H   0  0  0  0  0  0  0  0  0  0  0  0
    6.5639   -0.4237   -2.2336 H   0  0  0  0  0  0  0  0  0  0  0  0
    4.3353   -1.5114   -2.1117 H   0  0  0  0  0  0  0  0  0  0  0  0
   -2.6617   -1.2783   -0.1707 H   0  0  0  0  0  0  0  0  0  0  0  0
   -1.5388   -3.6606   -0.6996 H   0  0  0  0  0  0  0  0  0  0  0  0
   -0.9750   -3.3854    0.9412 H   0  0  0  0  0  0  0  0  0  0  0  0
   -3.2394   -3.0785    1.7620 H   0  0  0  0  0  0  0  0  0  0  0  0
   -4.9285   -3.0516    0.3485 H   0  0  0  0  0  0  0  0  0  0  0  0
   -2.9734   -5.5990    0.0427 H   0  0  0  0  0  0  0  0  0  0  0  0
   -2.3991   -5.3915    1.6991 H   0  0  0  0  0  0  0  0  0  0  0  0
   -4.1217   -5.3807    1.3664 H   0  0  0  0  0  0  0  0  0  0  0  0
   -3.0954    0.0614   -2.3200 H   0  0  0  0  0  0  0  0  0  0  0  0
   -5.5299   -0.3103   -2.3923 H   0  0  0  0  0  0  0  0  0  0  0  0
   -6.9896    0.7868   -0.7104 H   0  0  0  0  0  0  0  0  0  0  0  0
   -5.9928    2.2185    1.0322 H   0  0  0  0  0  0  0  0  0  0  0  0
    0.8787    3.1416   -0.7434 H   0  0  0  0  0  0  0  0  0  0  0  0
  1  2  1  0
  2  3  2  0
  2  8  1  0
  3  4  1  0
  3 31  1  0
  4  5  1  0
  4  6  2  0
  6  7  1  0
  6 32  1  0
  7  8  2  0
  7 33  1  0
  8  9  1  0
  9 10  1  0
 10 11  2  0
 10 12  1  0
 11 20  1  0
 12 13  2  0
 13 14  1  0
 13 19  1  0
 14 15  1  0
 14 34  1  0
 15 16  1  0
 15 35  1  0
 15 36  1  0
 16 17  1  0
 16 18  1  0
 16 37  1  1
 17 38  1  0
 18 39  1  0
 18 40  1  0
 18 41  1  0
 19 20  2  0
 19 23  1  0
 20 21  1  0
 21 22  1  0
 22 23  2  0
 23 24  1  0
 24 25  2  0
 24 27  1  0
 25 26  1  0
 25 30  1  0
 27 28  2  0
 27 42  1  0
 28 29  1  0
 28 43  1  0
 29 30  2  0
 29 44  1  0
 30 45  1  0
 21 46  1  0
M  END
