
     RDKit          3D

 30 32  0  0  0  0  0  0  0  0999 V2000
   -3.8424   -1.3272   -0.5788 N   0  0  0  0  0  0  0  0  0  0  0  0
    5.8614   -0.4857   -0.7147 O   0  0  0  0  0  0  0  0  0  0  0  0
    3.5746   -0.3924   -0.2062 C   0  0  0  0  0  0  0  0  0  0  0  0
   -1.2603   -0.0856   -0.0209 C   0  0  0  0  0  0  0  0  0  0  0  0
    1.2411   -1.5799    0.7119 C   0  0  0  0  0  0  0  0  0  0  0  0
    2.4236   -2.3022    0.6851 C   0  0  0  0  0  0  0  0  0  0  0  0
    3.5937   -1.7164    0.2278 C   0  0  0  0  0  0  0  0  0  0  0  0
    2.3848    0.3284   -0.1758 C   0  0  0  0  0  0  0  0  0  0  0  0
    1.2060   -0.2530    0.2805 C   0  0  0  0  0  0  0  0  0  0  0  0
   -0.0516    0.5204    0.3060 C   0  0  0  0  0  0  0  0  0  0  0  0
   -0.0530    1.8725    0.6530 C   0  0  0  0  0  0  0  0  0  0  0  0
   -1.2346    2.5959    0.6721 C   0  0  0  0  0  0  0  0  0  0  0  0
   -2.4351    1.9865    0.3458 C   0  0  0  0  0  0  0  0  0  0  0  0
   -2.4496    0.6386   -0.0049 C   0  0  0  0  0  0  0  0  0  0  0  0
   -3.6882   -0.0390   -0.3644 C   0  0  0  0  0  0  0  0  0  0  0  0
   -5.1247   -1.5098   -0.8799 N   0  0  0  0  0  0  0  0  0  0  0  0
   -5.7638   -0.4077   -0.8613 N   0  0  0  0  0  0  0  0  0  0  0  0
   -4.8859    0.5262   -0.5420 N   0  0  0  0  0  0  0  0  0  0  0  0
    4.8026    1.4377   -1.1001 O   0  0  0  0  0  0  0  0  0  0  0  0
    6.6255    0.0013   -1.0579 H   0  0  0  0  0  0  0  0  0  0  0  0
   -1.2804   -1.1274   -0.3140 H   0  0  0  0  0  0  0  0  0  0  0  0
    0.3415   -2.0482    1.0911 H   0  0  0  0  0  0  0  0  0  0  0  0
    2.4351   -3.3270    1.0306 H   0  0  0  0  0  0  0  0  0  0  0  0
    4.5065   -2.2954    0.2175 H   0  0  0  0  0  0  0  0  0  0  0  0
    2.3774    1.3505   -0.5320 H   0  0  0  0  0  0  0  0  0  0  0  0
    0.8725    2.3604    0.9310 H   0  0  0  0  0  0  0  0  0  0  0  0
   -1.2228    3.6403    0.9519 H   0  0  0  0  0  0  0  0  0  0  0  0
   -3.3455    2.5711    0.3774 H   0  0  0  0  0  0  0  0  0  0  0  0
   -5.1729    1.4928   -0.4771 H   0  0  0  0  0  0  0  0  0  0  0  0
    4.7893    0.2921   -0.7179 C   0  0  0  0  0  0  0  0  0  0  0  0
 11 12  2  0
 11 10  1  0
 12 13  1  0
 19 30  2  0
  2 30  1  0
 30  3  1  0
  7  3  2  0
  7  6  1  0
  3  8  1  0
  6  5  2  0
  8  9  2  0
  5  9  1  0
  9 10  1  0
 10  4  2  0
 13 14  2  0
  4 14  1  0
 14 15  1  0
 15  1  2  0
 15 18  1  0
  1 16  1  0
 18 17  1  0
 16 17  2  0
  2 20  1  0
  4 21  1  0
  5 22  1  0
  6 23  1  0
  7 24  1  0
  8 25  1  0
 11 26  1  0
 12 27  1  0
 13 28  1  0
 18 29  1  0
M  END
