
     RDKit          3D

 40 42  0  0  0  0  0  0  0  0999 V2000
   -4.1443   -2.2664   -0.3214 C   0  0  0  0  0  0  0  0  0  0  0  0
   -3.7016   -3.4035    0.3311 C   0  0  0  0  0  0  0  0  0  0  0  0
   -2.4340   -3.4331    0.8978 C   0  0  0  0  0  0  0  0  0  0  0  0
   -1.6274   -2.3129    0.7980 C   0  0  0  0  0  0  0  0  0  0  0  0
   -2.0565   -1.1440    0.1656 C   0  0  0  0  0  0  0  0  0  0  0  0
   -3.3372   -1.1312   -0.4093 C   0  0  0  0  0  0  0  0  0  0  0  0
   -3.7572   -0.0391   -1.0698 O   0  0  0  0  0  0  0  0  0  0  0  0
   -1.1381    0.0183    0.1292 C   0  0  0  0  0  0  0  0  0  0  0  0
    0.1670   -0.2967    0.0382 N   0  0  0  0  0  0  0  0  0  0  0  0
    1.0541    0.6785    0.0404 C   0  0  0  0  0  0  0  0  0  0  0  0
    0.6327    2.0556    0.1137 C   0  0  0  0  0  0  0  0  0  0  0  0
   -0.7590    2.2527    0.2121 C   0  0  0  0  0  0  0  0  0  0  0  0
   -1.6408    1.2194    0.2279 N   0  0  0  0  0  0  0  0  0  0  0  0
   -1.2540    3.5702    0.3024 C   0  0  0  0  0  0  0  0  0  0  0  0
   -0.3941    4.6388    0.2881 C   0  0  0  0  0  0  0  0  0  0  0  0
    0.9922    4.4379    0.1828 C   0  0  0  0  0  0  0  0  0  0  0  0
    1.4966    3.1635    0.0973 C   0  0  0  0  0  0  0  0  0  0  0  0
    2.3458    0.3489   -0.0316 N   0  0  0  0  0  0  0  0  0  0  0  0
    2.8138   -1.0210   -0.0791 C   0  0  0  0  0  0  0  0  0  0  0  0
    4.3280   -1.0580   -0.1939 C   0  0  0  0  0  0  0  0  0  0  0  0
    4.8526   -2.4848   -0.2457 C   0  0  0  0  0  0  0  0  0  0  0  0
    6.3033   -2.4938   -0.3557 N   0  0  0  0  0  0  0  0  0  0  0  0
   -5.1283   -2.2560   -0.7775 H   0  0  0  0  0  0  0  0  0  0  0  0
   -4.3500   -4.2681    0.3889 H   0  0  0  0  0  0  0  0  0  0  0  0
   -2.0777   -4.3174    1.4083 H   0  0  0  0  0  0  0  0  0  0  0  0
   -0.6335   -2.3281    1.2254 H   0  0  0  0  0  0  0  0  0  0  0  0
   -4.6256   -0.2076   -1.4533 H   0  0  0  0  0  0  0  0  0  0  0  0
   -2.3241    3.7133    0.3806 H   0  0  0  0  0  0  0  0  0  0  0  0
   -0.7839    5.6461    0.3577 H   0  0  0  0  0  0  0  0  0  0  0  0
    1.6627    5.2863    0.1689 H   0  0  0  0  0  0  0  0  0  0  0  0
    2.5686    3.0359    0.0161 H   0  0  0  0  0  0  0  0  0  0  0  0
    3.0409    1.0747   -0.0051 H   0  0  0  0  0  0  0  0  0  0  0  0
    2.4885   -1.5552    0.8185 H   0  0  0  0  0  0  0  0  0  0  0  0
    2.3584   -1.5351   -0.9297 H   0  0  0  0  0  0  0  0  0  0  0  0
    4.6477   -0.5259   -1.0942 H   0  0  0  0  0  0  0  0  0  0  0  0
    4.7720   -0.5386    0.6625 H   0  0  0  0  0  0  0  0  0  0  0  0
    4.4736   -3.0371    0.6263 H   0  0  0  0  0  0  0  0  0  0  0  0
    4.4412   -2.9839   -1.1273 H   0  0  0  0  0  0  0  0  0  0  0  0
    6.7068   -2.1508    0.5077 H   0  0  0  0  0  0  0  0  0  0  0  0
    6.6269   -3.4483   -0.4456 H   0  0  0  0  0  0  0  0  0  0  0  0
  1  2  2  0
  1  6  1  0
  2  3  1  0
  3  4  2  0
  4  5  1  0
  5  6  2  0
  5  8  1  0
  6  7  1  0
  8  9  2  0
  8 13  1  0
  9 10  1  0
 10 11  2  0
 10 18  1  0
 11 12  1  0
 11 17  1  0
 12 13  2  0
 12 14  1  0
 14 15  2  0
 15 16  1  0
 16 17  2  0
 18 19  1  0
 19 20  1  0
 20 21  1  0
 21 22  1  0
  1 23  1  0
  2 24  1  0
  3 25  1  0
  4 26  1  0
  7 27  1  0
 14 28  1  0
 15 29  1  0
 16 30  1  0
 17 31  1  0
 18 32  1  0
 19 33  1  0
 19 34  1  0
 20 35  1  0
 20 36  1  0
 21 37  1  0
 21 38  1  0
 22 39  1  0
 22 40  1  0
M  END
