
     RDKit          3D

 16 15  0  0  0  0  0  0  0  0999 V2000
    1.6507    0.4600   -0.0238 C   0  0  0  0  0  0  0  0  0  0  0  0
   -2.3420   -0.7380   -1.4347 O   0  0  0  0  0  0  0  0  0  0  0  0
   -2.1628   -0.1904    0.0532 P   0  0  1  0  0  0  0  0  0  0  0  0
   -2.9668    1.1756    0.1825 O   0  0  0  0  0  0  0  0  0  0  0  0
   -2.4455   -1.2671    1.0185 O   0  0  0  0  0  0  0  0  0  0  0  0
   -0.6992    0.4597    0.1288 O   0  0  0  0  0  0  0  0  0  0  0  0
    0.4263   -0.3894    0.1756 C   0  0  0  0  0  0  0  0  0  0  0  0
    1.6300    1.6408   -0.2165 O   0  0  0  0  0  0  0  0  0  0  0  0
    2.9688   -0.3176    0.0362 C   0  0  0  0  0  0  0  0  0  0  0  0
    2.9941   -1.5011    0.2436 O   0  0  0  0  0  0  0  0  0  0  0  0
    4.0029    0.4620   -0.1636 O   0  0  0  0  0  0  0  0  0  0  0  0
   -2.2306   -0.0877   -2.1416 H   0  0  0  0  0  0  0  0  0  0  0  0
   -3.9272    1.0695    0.2150 H   0  0  0  0  0  0  0  0  0  0  0  0
    0.4044   -1.1562   -0.6077 H   0  0  0  0  0  0  0  0  0  0  0  0
    0.4960   -0.9117    1.1351 H   0  0  0  0  0  0  0  0  0  0  0  0
    4.8280   -0.0474   -0.1257 H   0  0  0  0  0  0  0  0  0  0  0  0
  1  7  1  0
  1  8  2  0
  1  9  1  0
  3  2  1  6
  3  4  1  0
  3  5  2  0
  3  6  1  0
  6  7  1  0
  9 10  2  0
  9 11  1  0
  2 12  1  0
  4 13  1  0
  7 14  1  0
  7 15  1  0
 11 16  1  0
M  END
