
     RDKit          3D

 50 51  0  0  0  0  0  0  0  0999 V2000
    0.2484    6.5796   -0.2376 C   0  0  0  0  0  0  0  0  0  0  0  0
    0.5752    5.3154    0.5444 C   0  0  0  0  0  0  0  0  0  0  0  0
    1.4291    4.3562   -0.2734 C   0  0  0  0  0  0  0  0  0  0  0  0
    1.8130    3.0996    0.4754 C   0  0  0  0  0  0  0  0  0  0  0  0
    1.9723    3.0759    1.6860 O   0  0  0  0  0  0  0  0  0  0  0  0
    1.9992    2.0174   -0.3082 N   0  0  0  0  0  0  0  0  0  0  0  0
    2.3805    0.7321    0.1890 C   0  0  2  0  0  0  0  0  0  0  0  0
    3.5812    0.1655   -0.5627 C   0  0  1  0  0  0  0  0  0  0  0  0
    4.6525    1.0381   -0.3517 O   0  0  0  0  0  0  0  0  0  0  0  0
    3.8787   -1.2375   -0.0487 C   0  0  2  0  0  0  0  0  0  0  0  0
    4.9678   -1.7357   -0.7856 O   0  0  0  0  0  0  0  0  0  0  0  0
    2.6515   -2.1255   -0.2484 C   0  0  1  0  0  0  0  0  0  0  0  0
    2.8200   -3.4911    0.3757 C   0  0  0  0  0  0  0  0  0  0  0  0
    1.6962   -4.2757    0.0677 O   0  0  0  0  0  0  0  0  0  0  0  0
    1.4838   -1.5406    0.3505 O   0  0  0  0  0  0  0  0  0  0  0  0
    1.2299   -0.2504    0.1737 C   0  0  0  0  0  0  0  0  0  0  0  0
    0.0509    0.2158    0.1023 N   0  0  0  0  0  0  0  0  0  0  0  0
   -0.8845   -0.7979    0.1703 O   0  0  0  0  0  0  0  0  0  0  0  0
   -2.1457   -0.3662   -0.0587 C   0  0  0  0  0  0  0  0  0  0  0  0
   -2.4445    0.7586   -0.3618 O   0  0  0  0  0  0  0  0  0  0  0  0
   -2.9765   -1.4227    0.1094 N   0  0  0  0  0  0  0  0  0  0  0  0
   -4.3670   -1.4568   -0.0304 C   0  0  0  0  0  0  0  0  0  0  0  0
   -5.1357   -0.4103   -0.5406 C   0  0  0  0  0  0  0  0  0  0  0  0
   -6.5132   -0.5584   -0.6430 C   0  0  0  0  0  0  0  0  0  0  0  0
   -7.1453   -1.7291   -0.2524 C   0  0  0  0  0  0  0  0  0  0  0  0
   -6.3760   -2.7707    0.2501 C   0  0  0  0  0  0  0  0  0  0  0  0
   -5.0029   -2.6378    0.3613 C   0  0  0  0  0  0  0  0  0  0  0  0
   -0.3060    6.3505   -1.1494 H   0  0  0  0  0  0  0  0  0  0  0  0
   -0.3578    7.2649    0.3550 H   0  0  0  0  0  0  0  0  0  0  0  0
    1.1574    7.1085   -0.5308 H   0  0  0  0  0  0  0  0  0  0  0  0
    1.0970    5.5768    1.4664 H   0  0  0  0  0  0  0  0  0  0  0  0
   -0.3513    4.8186    0.8432 H   0  0  0  0  0  0  0  0  0  0  0  0
    0.9171    4.0986   -1.2044 H   0  0  0  0  0  0  0  0  0  0  0  0
    2.3590    4.8537   -0.5714 H   0  0  0  0  0  0  0  0  0  0  0  0
    1.7879    2.0937   -1.2908 H   0  0  0  0  0  0  0  0  0  0  0  0
    2.6731    0.8525    1.2380 H   0  0  0  0  0  0  0  0  0  0  0  0
    3.3302    0.0920   -1.6341 H   0  0  0  0  0  0  0  0  0  0  0  0
    5.4112    0.7030   -0.8417 H   0  0  0  0  0  0  0  0  0  0  0  0
    4.1144   -1.1767    1.0231 H   0  0  0  0  0  0  0  0  0  0  0  0
    5.5020   -2.3040   -0.2236 H   0  0  0  0  0  0  0  0  0  0  0  0
    2.4656   -2.2348   -1.3243 H   0  0  0  0  0  0  0  0  0  0  0  0
    3.7416   -3.9308   -0.0222 H   0  0  0  0  0  0  0  0  0  0  0  0
    2.9593   -3.3730    1.4592 H   0  0  0  0  0  0  0  0  0  0  0  0
    1.8473   -5.1598    0.4139 H   0  0  0  0  0  0  0  0  0  0  0  0
   -2.5493   -2.2867    0.4103 H   0  0  0  0  0  0  0  0  0  0  0  0
   -4.6807    0.5122   -0.8612 H   0  0  0  0  0  0  0  0  0  0  0  0
   -4.4164   -3.4581    0.7586 H   0  0  0  0  0  0  0  0  0  0  0  0
   -7.0946    0.2639   -1.0399 H   0  0  0  0  0  0  0  0  0  0  0  0
   -8.2188   -1.8303   -0.3385 H   0  0  0  0  0  0  0  0  0  0  0  0
   -6.8438   -3.6951    0.5626 H   0  0  0  0  0  0  0  0  0  0  0  0
  1  2  1  0
  2  3  1  0
  3  4  1  0
  4  5  2  0
  4  6  1  0
  6  7  1  0
  7  8  1  0
  7 16  1  0
  8  9  1  0
  8 10  1  0
 10 11  1  0
 10 12  1  0
 12 13  1  0
 12 15  1  0
 13 14  1  0
 15 16  1  0
 16 17  2  0
 17 18  1  0
 18 19  1  0
 19 20  2  0
 19 21  1  0
 21 22  1  0
 22 23  2  0
 22 27  1  0
 23 24  1  0
 24 25  2  0
 25 26  1  0
 26 27  2  0
  1 28  1  0
  1 29  1  0
  1 30  1  0
  2 31  1  0
  2 32  1  0
  3 33  1  0
  3 34  1  0
  6 35  1  0
  7 36  1  1
  8 37  1  6
  9 38  1  0
 10 39  1  1
 11 40  1  0
 12 41  1  6
 13 42  1  0
 13 43  1  0
 14 44  1  0
 21 45  1  0
 23 46  1  0
 27 47  1  0
 24 48  1  0
 25 49  1  0
 26 50  1  0
M  END
