
     RDKit          3D

114114  0  0  0  0  0  0  0  0999 V2000
    2.5328    3.1868    1.8298 C   0  0  0  0  0  0  0  0  0  0  0  0
    1.5506    2.0230    1.7605 C   0  0  1  0  0  0  0  0  0  0  0  0
    0.1798    2.4313    1.1844 C   0  0  1  0  0  0  0  0  0  0  0  0
   -0.8336    1.2650    1.1385 C   0  0  1  0  0  0  0  0  0  0  0  0
   -2.2687    1.7490    0.9379 C   0  0  0  0  0  0  0  0  0  0  0  0
   -3.2920    0.6197    0.9506 C   0  0  0  0  0  0  0  0  0  0  0  0
   -0.3115    3.5328    1.9126 O   0  0  0  0  0  0  0  0  0  0  0  0
  -17.8628   -3.4573   -1.0213 C   0  0  0  0  0  0  0  0  0  0  0  0
  -16.8365   -2.3359   -1.1052 C   0  0  0  0  0  0  0  0  0  0  0  0
  -15.4535   -2.7571   -0.6238 C   0  0  0  0  0  0  0  0  0  0  0  0
  -14.4192   -1.6420   -0.7118 C   0  0  0  0  0  0  0  0  0  0  0  0
  -13.0325   -2.0636   -0.2424 C   0  0  0  0  0  0  0  0  0  0  0  0
  -11.9999   -0.9473   -0.3372 C   0  0  0  0  0  0  0  0  0  0  0  0
  -10.6085   -1.3699    0.1170 C   0  0  0  0  0  0  0  0  0  0  0  0
   -9.5776   -0.2519    0.0214 C   0  0  0  0  0  0  0  0  0  0  0  0
   -8.1804   -0.6816    0.4500 C   0  0  0  0  0  0  0  0  0  0  0  0
   -7.1498    0.4374    0.3646 C   0  0  0  0  0  0  0  0  0  0  0  0
   -5.7435   -0.0123    0.7395 C   0  0  0  0  0  0  0  0  0  0  0  0
   -4.7106    1.1060    0.6795 C   0  0  0  0  0  0  0  0  0  0  0  0
   -0.4752    0.3286    0.1412 O   0  0  0  0  0  0  0  0  0  0  0  0
    2.7470    3.6715    0.5197 O   0  0  0  0  0  0  0  0  0  0  0  0
    3.9354    4.3649    0.3336 C   0  0  1  0  0  0  0  0  0  0  0  0
    5.0567    3.5254    0.3709 O   0  0  0  0  0  0  0  0  0  0  0  0
    5.0839    2.5327   -0.6421 C   0  0  2  0  0  0  0  0  0  0  0  0
    6.2891    1.6503   -0.4025 C   0  0  0  0  0  0  0  0  0  0  0  0
    6.1071    0.9701    0.8174 O   0  0  0  0  0  0  0  0  0  0  0  0
    5.0773    3.1555   -2.0311 C   0  0  2  0  0  0  0  0  0  0  0  0
    6.2833    3.8511   -2.2338 O   0  0  0  0  0  0  0  0  0  0  0  0
    3.8661    4.0785   -2.1524 C   0  0  2  0  0  0  0  0  0  0  0  0
    3.9320    4.7058   -3.4116 O   0  0  0  0  0  0  0  0  0  0  0  0
    3.8713    5.0901   -1.0140 C   0  0  1  0  0  0  0  0  0  0  0  0
    2.7263    5.8962   -1.1410 O   0  0  0  0  0  0  0  0  0  0  0  0
    2.1382    0.9319    1.0221 N   0  0  0  0  0  0  0  0  0  0  0  0
    2.8278   -0.0792    1.5781 C   0  0  0  0  0  0  0  0  0  0  0  0
    2.9925   -0.1877    2.7860 O   0  0  0  0  0  0  0  0  0  0  0  0
    3.3670   -1.0816    0.5793 C   0  0  0  0  0  0  0  0  0  0  0  0
    4.3779   -2.0548    1.1620 C   0  0  0  0  0  0  0  0  0  0  0  0
    5.0741   -2.8676    0.0790 C   0  0  0  0  0  0  0  0  0  0  0  0
    6.0796   -3.8676    0.6353 C   0  0  0  0  0  0  0  0  0  0  0  0
    6.8238   -4.6366   -0.4480 C   0  0  0  0  0  0  0  0  0  0  0  0
    7.8316   -5.6356    0.1069 C   0  0  0  0  0  0  0  0  0  0  0  0
    8.5894   -6.3930   -0.9753 C   0  0  0  0  0  0  0  0  0  0  0  0
    9.5973   -7.3903   -0.4176 C   0  0  0  0  0  0  0  0  0  0  0  0
   10.3601   -8.1482   -1.4964 C   0  0  0  0  0  0  0  0  0  0  0  0
   11.3635   -9.1407   -0.9251 C   0  0  0  0  0  0  0  0  0  0  0  0
    2.1531    3.9856    2.4758 H   0  0  0  0  0  0  0  0  0  0  0  0
    3.4616    2.8143    2.2735 H   0  0  0  0  0  0  0  0  0  0  0  0
    1.3920    1.6777    2.7875 H   0  0  0  0  0  0  0  0  0  0  0  0
    0.3094    2.7977    0.1591 H   0  0  0  0  0  0  0  0  0  0  0  0
   -0.7808    0.7155    2.0882 H   0  0  0  0  0  0  0  0  0  0  0  0
   -2.5285    2.4690    1.7155 H   0  0  0  0  0  0  0  0  0  0  0  0
   -2.3296    2.2979   -0.0113 H   0  0  0  0  0  0  0  0  0  0  0  0
   -3.0324   -0.1375    0.2060 H   0  0  0  0  0  0  0  0  0  0  0  0
   -3.2600    0.1151    1.9230 H   0  0  0  0  0  0  0  0  0  0  0  0
   -0.4638    3.2610    2.8248 H   0  0  0  0  0  0  0  0  0  0  0  0
  -17.5548   -4.3184   -1.6179 H   0  0  0  0  0  0  0  0  0  0  0  0
  -17.9902   -3.8009    0.0069 H   0  0  0  0  0  0  0  0  0  0  0  0
  -18.8395   -3.1365   -1.3852 H   0  0  0  0  0  0  0  0  0  0  0  0
  -16.7661   -1.9818   -2.1385 H   0  0  0  0  0  0  0  0  0  0  0  0
  -17.1789   -1.4795   -0.5159 H   0  0  0  0  0  0  0  0  0  0  0  0
  -15.5221   -3.1091    0.4116 H   0  0  0  0  0  0  0  0  0  0  0  0
  -15.1122   -3.6167   -1.2119 H   0  0  0  0  0  0  0  0  0  0  0  0
  -14.3575   -1.2870   -1.7465 H   0  0  0  0  0  0  0  0  0  0  0  0
  -14.7579   -0.7845   -0.1193 H   0  0  0  0  0  0  0  0  0  0  0  0
  -13.0913   -2.4168    0.7931 H   0  0  0  0  0  0  0  0  0  0  0  0
  -12.6948   -2.9218   -0.8345 H   0  0  0  0  0  0  0  0  0  0  0  0
  -11.9486   -0.5887   -1.3713 H   0  0  0  0  0  0  0  0  0  0  0  0
  -12.3336   -0.0921    0.2614 H   0  0  0  0  0  0  0  0  0  0  0  0
  -10.6576   -1.7306    1.1503 H   0  0  0  0  0  0  0  0  0  0  0  0
  -10.2749   -2.2234   -0.4841 H   0  0  0  0  0  0  0  0  0  0  0  0
   -9.5405    0.1197   -1.0087 H   0  0  0  0  0  0  0  0  0  0  0  0
   -9.9032    0.5955    0.6352 H   0  0  0  0  0  0  0  0  0  0  0  0
   -8.2162   -1.0638    1.4762 H   0  0  0  0  0  0  0  0  0  0  0  0
   -7.8545   -1.5227   -0.1726 H   0  0  0  0  0  0  0  0  0  0  0  0
   -7.1381    0.8436   -0.6530 H   0  0  0  0  0  0  0  0  0  0  0  0
   -7.4565    1.2641    1.0151 H   0  0  0  0  0  0  0  0  0  0  0  0
   -5.7544   -0.4414    1.7475 H   0  0  0  0  0  0  0  0  0  0  0  0
   -5.4364   -0.8246    0.0710 H   0  0  0  0  0  0  0  0  0  0  0  0
   -4.9775    1.8879    1.3990 H   0  0  0  0  0  0  0  0  0  0  0  0
   -4.7439    1.5807   -0.3077 H   0  0  0  0  0  0  0  0  0  0  0  0
   -0.6830    0.7144   -0.7172 H   0  0  0  0  0  0  0  0  0  0  0  0
    4.0946    5.0920    1.1426 H   0  0  0  0  0  0  0  0  0  0  0  0
    4.1919    1.8979   -0.5760 H   0  0  0  0  0  0  0  0  0  0  0  0
    6.3665    0.9533   -1.2475 H   0  0  0  0  0  0  0  0  0  0  0  0
    7.2049    2.2531   -0.3957 H   0  0  0  0  0  0  0  0  0  0  0  0
    6.8446    0.3649    0.9324 H   0  0  0  0  0  0  0  0  0  0  0  0
    4.9659    2.3398   -2.7620 H   0  0  0  0  0  0  0  0  0  0  0  0
    6.2016    4.3521   -3.0527 H   0  0  0  0  0  0  0  0  0  0  0  0
    2.9612    3.4587   -2.0750 H   0  0  0  0  0  0  0  0  0  0  0  0
    3.2810    5.4158   -3.4322 H   0  0  0  0  0  0  0  0  0  0  0  0
    4.7845    5.6940   -1.0910 H   0  0  0  0  0  0  0  0  0  0  0  0
    2.8753    6.7223   -0.6717 H   0  0  0  0  0  0  0  0  0  0  0  0
    2.0422    0.9415    0.0207 H   0  0  0  0  0  0  0  0  0  0  0  0
    2.5192   -1.6255    0.1493 H   0  0  0  0  0  0  0  0  0  0  0  0
    3.8198   -0.5338   -0.2522 H   0  0  0  0  0  0  0  0  0  0  0  0
    5.1295   -1.5032    1.7308 H   0  0  0  0  0  0  0  0  0  0  0  0
    3.8861   -2.7271    1.8698 H   0  0  0  0  0  0  0  0  0  0  0  0
    4.3303   -3.3982   -0.5257 H   0  0  0  0  0  0  0  0  0  0  0  0
    5.5873   -2.1818   -0.6049 H   0  0  0  0  0  0  0  0  0  0  0  0
    6.8039   -3.3397    1.2656 H   0  0  0  0  0  0  0  0  0  0  0  0
    5.5636   -4.5741    1.2947 H   0  0  0  0  0  0  0  0  0  0  0  0
    6.1018   -5.1631   -1.0821 H   0  0  0  0  0  0  0  0  0  0  0  0
    7.3406   -3.9269   -1.1037 H   0  0  0  0  0  0  0  0  0  0  0  0
    8.5472   -5.1095    0.7487 H   0  0  0  0  0  0  0  0  0  0  0  0
    7.3138   -6.3509    0.7554 H   0  0  0  0  0  0  0  0  0  0  0  0
    7.8750   -6.9196   -1.6179 H   0  0  0  0  0  0  0  0  0  0  0  0
    9.1079   -5.6772   -1.6231 H   0  0  0  0  0  0  0  0  0  0  0  0
   10.3103   -6.8636    0.2266 H   0  0  0  0  0  0  0  0  0  0  0  0
    9.0787   -8.1066    0.2294 H   0  0  0  0  0  0  0  0  0  0  0  0
    9.6485   -8.6750   -2.1397 H   0  0  0  0  0  0  0  0  0  0  0  0
   10.8790   -7.4329   -2.1421 H   0  0  0  0  0  0  0  0  0  0  0  0
   11.8979   -9.6720   -1.7134 H   0  0  0  0  0  0  0  0  0  0  0  0
   12.1066   -8.6366   -0.3041 H   0  0  0  0  0  0  0  0  0  0  0  0
   10.8680   -9.8870   -0.3010 H   0  0  0  0  0  0  0  0  0  0  0  0
 45 44  1  0
 44 43  1  0
 43 42  1  0
 11 12  1  0
 11 10  1  0
  9 10  1  0
  9  8  1  0
 42 41  1  0
 13 12  1  0
 13 14  1  0
 16 15  1  0
 16 17  1  0
 41 40  1  0
 15 14  1  0
 18 17  1  0
 18 19  1  0
 40 39  1  0
 39 38  1  0
  6 19  1  0
  6  5  1  0
  5  4  1  0
 38 37  1  0
 37 36  1  0
 35 34  2  0
  4 20  1  0
  4  3  1  0
 34 36  1  0
 34 33  1  0
  2 33  1  0
  2  3  1  0
  2  1  1  0
  7  3  1  0
  1 21  1  0
 21 22  1  0
 26 25  1  0
 23 22  1  0
 23 24  1  0
 22 31  1  0
 24 25  1  0
 24 27  1  0
 31 32  1  0
 31 29  1  0
 29 27  1  0
 29 30  1  0
 27 28  1  0
  1 46  1  0
  1 47  1  0
  2 48  1  1
  3 49  1  6
  4 50  1  1
  5 51  1  0
  5 52  1  0
  6 53  1  0
  6 54  1  0
  7 55  1  0
  8 56  1  0
  8 57  1  0
  8 58  1  0
  9 59  1  0
  9 60  1  0
 10 61  1  0
 10 62  1  0
 11 63  1  0
 11 64  1  0
 12 65  1  0
 12 66  1  0
 13 67  1  0
 13 68  1  0
 14 69  1  0
 14 70  1  0
 15 71  1  0
 15 72  1  0
 16 73  1  0
 16 74  1  0
 17 75  1  0
 17 76  1  0
 18 77  1  0
 18 78  1  0
 19 79  1  0
 19 80  1  0
 20 81  1  0
 22 82  1  1
 24 83  1  6
 25 84  1  0
 25 85  1  0
 26 86  1  0
 27 87  1  6
 28 88  1  0
 29 89  1  6
 30 90  1  0
 31 91  1  6
 32 92  1  0
 33 93  1  0
 36 94  1  0
 36 95  1  0
 37 96  1  0
 37 97  1  0
 38 98  1  0
 38 99  1  0
 39100  1  0
 39101  1  0
 40102  1  0
 40103  1  0
 41104  1  0
 41105  1  0
 42106  1  0
 42107  1  0
 43108  1  0
 43109  1  0
 44110  1  0
 44111  1  0
 45112  1  0
 45113  1  0
 45114  1  0
M  END
