
     RDKit          3D

 23 24  0  0  0  0  0  0  0  0999 V2000
    0.6495   -1.5234   -0.6722 C   0  0  0  0  0  0  0  0  0  0  0  0
   -0.6294   -1.1584   -0.9446 C   0  0  0  0  0  0  0  0  0  0  0  0
   -0.7671   -1.3329   -2.3402 C   0  0  0  0  0  0  0  0  0  0  0  0
    0.4418   -1.7880   -2.7802 C   0  0  0  0  0  0  0  0  0  0  0  0
    0.9148   -2.1449   -4.0859 C   0  0  0  0  0  0  0  0  0  0  0  0
    2.0703   -2.5770   -4.4464 N   0  0  0  0  0  0  0  0  0  0  0  0
    2.0148   -2.7539   -5.7987 N   0  0  0  0  0  0  0  0  0  0  0  0
    0.8226   -2.4219   -6.1619 C   0  0  0  0  0  0  0  0  0  0  0  0
    0.2021   -2.4902   -7.7719 S   0  0  0  0  0  0  0  0  0  0  0  0
   -1.3937   -1.6603   -7.5354 C   0  0  0  0  0  0  0  0  0  0  0  0
   -2.0416   -1.5976   -8.8942 C   0  0  0  0  0  0  0  0  0  0  0  0
   -3.2109   -0.9935   -8.8370 O   0  0  0  0  0  0  0  0  0  0  0  0
   -1.5394   -2.0484   -9.8907 O   0  0  0  0  0  0  0  0  0  0  0  0
    0.0710   -2.0266   -5.1257 O   0  0  0  0  0  0  0  0  0  0  0  0
    1.3105   -1.9053   -1.7667 O   0  0  0  0  0  0  0  0  0  0  0  0
    1.3581   -1.5574    0.5530 N   0  0  0  0  0  0  0  0  0  0  0  0
    0.7435   -1.2163    1.5380 O   0  0  0  0  0  0  0  0  0  0  0  0
    2.5107   -1.9187    0.5326 O   0  0  0  0  0  0  0  0  0  0  0  0
   -3.6176   -0.9533   -9.7165 H   0  0  0  0  0  0  0  0  0  0  0  0
   -1.2557   -0.6522   -7.1419 H   0  0  0  0  0  0  0  0  0  0  0  0
   -2.0295   -2.2194   -6.8475 H   0  0  0  0  0  0  0  0  0  0  0  0
   -1.6456   -1.1448   -2.9350 H   0  0  0  0  0  0  0  0  0  0  0  0
   -1.3760   -0.8118   -0.2502 H   0  0  0  0  0  0  0  0  0  0  0  0
  1  2  2  0
  1 15  1  0
  1 16  1  0
  2  3  1  0
  2 23  1  0
  3  4  2  0
  3 22  1  0
  4  5  1  0
  4 15  1  0
  5  6  2  0
  5 14  1  0
  6  7  1  0
  7  8  2  0
  8  9  1  0
  8 14  1  0
  9 10  1  0
 10 11  1  0
 10 20  1  0
 10 21  1  0
 11 12  1  0
 11 13  2  0
 12 19  1  0
 16 17  1  0
 16 18  2  0
M  CHG  2  16   1  17  -1
M  END
