
     RDKit          3D

 51 54  0  0  0  0  0  0  0  0999 V2000
    2.6268    2.7729   -1.0441 C   0  0  0  0  0  0  0  0  0  0  0  0
    3.3983    1.8858   -2.0201 C   0  0  0  0  0  0  0  0  0  0  0  0
    4.5407    1.1706   -1.3706 C   0  0  0  0  0  0  0  0  0  0  0  0
    5.8422    1.4553   -1.6654 C   0  0  0  0  0  0  0  0  0  0  0  0
    6.6844    0.7755   -0.8268 N   0  0  0  0  0  0  0  0  0  0  0  0
    5.9501    0.0590    0.0480 C   0  0  0  0  0  0  0  0  0  0  0  0
    6.4575   -0.6407    1.0652 N   0  0  0  0  0  0  0  0  0  0  0  0
    5.5248   -1.1694    1.8260 C   0  0  0  0  0  0  0  0  0  0  0  0
    4.2121   -1.1361    1.6377 N   0  0  0  0  0  0  0  0  0  0  0  0
    3.7073   -0.5000    0.5730 C   0  0  0  0  0  0  0  0  0  0  0  0
    2.3730   -0.6277    0.4022 N   0  0  0  0  0  0  0  0  0  0  0  0
    1.6879   -0.5562   -0.8876 C   0  0  0  0  0  0  0  0  0  0  0  0
    0.5028   -1.4928   -0.7126 C   0  0  0  0  0  0  0  0  0  0  0  0
    0.1772   -1.3887    0.7842 C   0  0  2  0  0  0  0  0  0  0  0  0
   -0.5896   -2.4791    1.3496 N   0  0  0  0  0  0  0  0  0  0  0  0
   -0.5247   -0.0647    1.1201 C   0  0  0  0  0  0  0  0  0  0  0  0
   -1.8342    0.0627    0.5219 N   0  0  0  0  0  0  0  0  0  0  0  0
   -2.9882   -0.0254    1.2119 C   0  0  0  0  0  0  0  0  0  0  0  0
   -3.0549   -0.2451    2.4093 O   0  0  0  0  0  0  0  0  0  0  0  0
   -4.2156    0.1453    0.3752 C   0  0  0  0  0  0  0  0  0  0  0  0
   -4.3503   -0.4929   -0.8562 C   0  0  0  0  0  0  0  0  0  0  0  0
   -5.5075   -0.3865   -1.6098 C   0  0  0  0  0  0  0  0  0  0  0  0
   -6.5394    0.3856   -1.1126 C   0  0  0  0  0  0  0  0  0  0  0  0
   -7.6625    0.5086   -1.8247 F   0  0  0  0  0  0  0  0  0  0  0  0
   -6.4557    1.0449    0.0990 C   0  0  0  0  0  0  0  0  0  0  0  0
   -5.2903    0.9020    0.8246 C   0  0  0  0  0  0  0  0  0  0  0  0
   -5.1965    1.5540    1.9844 F   0  0  0  0  0  0  0  0  0  0  0  0
    1.5839   -1.3599    1.3838 C   0  0  0  0  0  0  0  0  0  0  0  0
    4.5851    0.2342   -0.2690 C   0  0  0  0  0  0  0  0  0  0  0  0
    1.7748    3.2450   -1.5346 H   0  0  0  0  0  0  0  0  0  0  0  0
    2.2502    2.2078   -0.1897 H   0  0  0  0  0  0  0  0  0  0  0  0
    3.2687    3.5622   -0.6514 H   0  0  0  0  0  0  0  0  0  0  0  0
    2.7194    1.1943   -2.5197 H   0  0  0  0  0  0  0  0  0  0  0  0
    3.8072    2.5116   -2.8167 H   0  0  0  0  0  0  0  0  0  0  0  0
    6.2345    2.1255   -2.4137 H   0  0  0  0  0  0  0  0  0  0  0  0
    5.8618   -1.7102    2.7049 H   0  0  0  0  0  0  0  0  0  0  0  0
    1.3407    0.4566   -1.0977 H   0  0  0  0  0  0  0  0  0  0  0  0
    2.3469   -0.8615   -1.7017 H   0  0  0  0  0  0  0  0  0  0  0  0
   -0.3314   -1.2410   -1.3695 H   0  0  0  0  0  0  0  0  0  0  0  0
    0.7949   -2.5223   -0.9354 H   0  0  0  0  0  0  0  0  0  0  0  0
   -1.5119   -2.5027    0.9316 H   0  0  0  0  0  0  0  0  0  0  0  0
   -0.1592   -3.3622    1.0989 H   0  0  0  0  0  0  0  0  0  0  0  0
   -0.6275    0.0155    2.2015 H   0  0  0  0  0  0  0  0  0  0  0  0
    0.0828    0.7808    0.7912 H   0  0  0  0  0  0  0  0  0  0  0  0
   -1.8790    0.4019   -0.4254 H   0  0  0  0  0  0  0  0  0  0  0  0
   -3.5418   -1.1066   -1.2317 H   0  0  0  0  0  0  0  0  0  0  0  0
   -5.6029   -0.8962   -2.5584 H   0  0  0  0  0  0  0  0  0  0  0  0
   -7.2695    1.6558    0.4670 H   0  0  0  0  0  0  0  0  0  0  0  0
    1.9580   -2.3806    1.5177 H   0  0  0  0  0  0  0  0  0  0  0  0
    1.6143   -0.8747    2.3612 H   0  0  0  0  0  0  0  0  0  0  0  0
    7.6891    0.8426   -0.8201 H   0  0  0  0  0  0  0  0  0  0  0  0
  2  1  1  0
  1 30  1  0
  1 31  1  0
  1 32  1  0
  2  3  1  0
  2 33  1  0
  2 34  1  0
  3 29  1  0
  3  4  2  0
  4  5  1  0
  4 35  1  0
  6  5  1  0
 29  6  2  0
  6  7  1  0
  8  7  2  0
  9  8  1  0
  8 36  1  0
 10  9  2  0
 11 10  1  0
 10 29  1  0
 28 11  1  0
 12 11  1  0
 13 12  1  0
 12 37  1  0
 12 38  1  0
 14 13  1  0
 13 39  1  0
 13 40  1  0
 16 14  1  0
 14 15  1  1
 14 28  1  0
 15 41  1  0
 15 42  1  0
 16 17  1  0
 16 43  1  0
 16 44  1  0
 17 18  1  0
 17 45  1  0
 19 18  2  0
 18 20  1  0
 21 20  2  0
 20 26  1  0
 21 22  1  0
 21 46  1  0
 22 23  2  0
 22 47  1  0
 23 25  1  0
 23 24  1  0
 26 25  2  0
 25 48  1  0
 26 27  1  0
 28 49  1  0
 28 50  1  0
  5 51  1  0
M  END
