
     RDKit          3D

 35 36  0  0  0  0  0  0  0  0999 V2000
   -2.3488    0.1577   -0.0806 N   0  0  0  0  0  0  0  0  0  0  0  0
    0.1629   -1.2683    0.2670 N   0  0  0  0  0  0  0  0  0  0  0  0
   -3.6699    0.4202   -0.1191 C   0  0  0  0  0  0  0  0  0  0  0  0
   -2.1807   -1.1993   -0.2116 C   0  0  0  0  0  0  0  0  0  0  0  0
   -3.4525   -1.6964   -0.3146 C   0  0  0  0  0  0  0  0  0  0  0  0
   -0.9088   -1.9311   -0.2141 C   0  0  0  0  0  0  0  0  0  0  0  0
    1.4815   -1.8644    0.3302 C   0  0  0  0  0  0  0  0  0  0  0  0
    2.6526    0.0455   -0.8144 C   0  0  0  0  0  0  0  0  0  0  0  0
    4.4440    0.3140    1.2923 C   0  0  0  0  0  0  0  0  0  0  0  0
   -3.6627    2.6080    1.0988 C   0  0  0  0  0  0  0  0  0  0  0  0
    3.6364    1.0192   -0.8747 C   0  0  0  0  0  0  0  0  0  0  0  0
    4.5175    1.1341    0.1856 C   0  0  0  0  0  0  0  0  0  0  0  0
    3.4483   -0.6546    1.3333 C   0  0  0  0  0  0  0  0  0  0  0  0
   -4.2312    1.8041   -0.0696 C   0  0  1  0  0  0  0  0  0  0  0  0
   -4.0095    2.5275   -1.4006 C   0  0  0  0  0  0  0  0  0  0  0  0
    2.5472   -0.8035    0.2863 C   0  0  0  0  0  0  0  0  0  0  0  0
   -4.3631   -0.6906   -0.2502 N   0  0  0  0  0  0  0  0  0  0  0  0
   -0.8530   -3.0755   -0.6447 O   0  0  0  0  0  0  0  0  0  0  0  0
   -1.6184    0.8521   -0.0483 H   0  0  0  0  0  0  0  0  0  0  0  0
    0.0198   -0.4417    0.8257 H   0  0  0  0  0  0  0  0  0  0  0  0
   -3.7450   -2.7305   -0.4132 H   0  0  0  0  0  0  0  0  0  0  0  0
    1.5938   -2.4718    1.2330 H   0  0  0  0  0  0  0  0  0  0  0  0
    1.5892   -2.5393   -0.5191 H   0  0  0  0  0  0  0  0  0  0  0  0
    1.9595   -0.0538   -1.6409 H   0  0  0  0  0  0  0  0  0  0  0  0
    5.1435    0.4281    2.1096 H   0  0  0  0  0  0  0  0  0  0  0  0
   -3.8259    2.1032    2.0512 H   0  0  0  0  0  0  0  0  0  0  0  0
   -2.5903    2.7823    0.9874 H   0  0  0  0  0  0  0  0  0  0  0  0
   -4.1436    3.5848    1.1506 H   0  0  0  0  0  0  0  0  0  0  0  0
    3.7198    1.6747   -1.7316 H   0  0  0  0  0  0  0  0  0  0  0  0
    3.3794   -1.3009    2.1995 H   0  0  0  0  0  0  0  0  0  0  0  0
   -5.3061    1.6828    0.0802 H   0  0  0  0  0  0  0  0  0  0  0  0
   -2.9468    2.6799   -1.5986 H   0  0  0  0  0  0  0  0  0  0  0  0
   -4.4319    1.9667   -2.2345 H   0  0  0  0  0  0  0  0  0  0  0  0
   -4.4869    3.5076   -1.3792 H   0  0  0  0  0  0  0  0  0  0  0  0
    5.4739    2.0758    0.1342 F   0  0  0  0  0  0  0  0  0  0  0  0
 14 10  1  0
 14 15  1  0
 14  3  1  0
  3 17  2  0
  3  1  1  0
 17  5  1  0
  1  4  1  0
  5  4  2  0
  4  6  1  0
  6  2  1  0
  6 18  2  0
  2  7  1  0
  7 16  1  0
 16 13  1  0
 16  8  2  0
 13  9  2  0
  8 11  1  0
  9 12  1  0
 11 12  2  0
 12 35  1  0
  1 19  1  0
  2 20  1  0
  5 21  1  0
  7 22  1  0
  7 23  1  0
  8 24  1  0
  9 25  1  0
 10 26  1  0
 10 27  1  0
 10 28  1  0
 11 29  1  0
 13 30  1  0
 14 31  1  1
 15 32  1  0
 15 33  1  0
 15 34  1  0
M  END
