
     RDKit          3D

 38 40  0  0  0  0  0  0  0  0999 V2000
    4.3926   -3.3891   -0.9719 C   0  0  0  0  0  0  0  0  0  0  0  0
    3.8908   -1.9857   -1.1468 C   0  0  0  0  0  0  0  0  0  0  0  0
    3.8893   -1.4352   -2.2259 O   0  0  0  0  0  0  0  0  0  0  0  0
    3.3789   -1.2639    0.0587 C   0  0  0  0  0  0  0  0  0  0  0  0
    2.8639    0.0201   -0.1059 C   0  0  0  0  0  0  0  0  0  0  0  0
    3.4046   -1.8310    1.3304 C   0  0  0  0  0  0  0  0  0  0  0  0
    2.9324   -1.1293    2.4305 C   0  0  0  0  0  0  0  0  0  0  0  0
    2.4148    0.1444    2.2714 C   0  0  0  0  0  0  0  0  0  0  0  0
    2.3839    0.6962    0.9975 C   0  0  0  0  0  0  0  0  0  0  0  0
    1.8387    2.0023    0.8378 N   0  0  0  0  0  0  0  0  0  0  0  0
    2.4517    3.0781    1.3070 N   0  0  0  0  0  0  0  0  0  0  0  0
    1.7018    4.0769    1.0535 N   0  0  0  0  0  0  0  0  0  0  0  0
    0.5891    3.6990    0.4295 N   0  0  0  0  0  0  0  0  0  0  0  0
    0.6814    2.4065    0.2981 C   0  0  0  0  0  0  0  0  0  0  0  0
    3.6156   -4.0297   -0.5519 H   0  0  0  0  0  0  0  0  0  0  0  0
    4.7067   -3.7990   -1.9284 H   0  0  0  0  0  0  0  0  0  0  0  0
    5.2385   -3.4164   -0.2829 H   0  0  0  0  0  0  0  0  0  0  0  0
    2.8469    0.4827   -1.0828 H   0  0  0  0  0  0  0  0  0  0  0  0
    3.7965   -2.8272    1.4829 H   0  0  0  0  0  0  0  0  0  0  0  0
    2.9634   -1.5774    3.4135 H   0  0  0  0  0  0  0  0  0  0  0  0
    2.0329    0.6971    3.1197 H   0  0  0  0  0  0  0  0  0  0  0  0
   -0.5560    1.3823   -0.4778 S   0  0  1  0  0  0  0  0  0  0  0  0
   -1.1478    0.3641    0.8820 C   0  0  0  0  0  0  0  0  0  0  0  0
   -2.1150   -0.6291    0.3183 C   0  0  0  0  0  0  0  0  0  0  0  0
   -1.6646   -1.8651   -0.1330 C   0  0  0  0  0  0  0  0  0  0  0  0
   -2.5618   -2.7727   -0.6738 C   0  0  0  0  0  0  0  0  0  0  0  0
   -3.9084   -2.4556   -0.7788 C   0  0  0  0  0  0  0  0  0  0  0  0
   -4.3426   -1.2173   -0.3312 C   0  0  0  0  0  0  0  0  0  0  0  0
   -3.4614   -0.2970    0.2115 C   0  0  0  0  0  0  0  0  0  0  0  0
   -6.0206   -0.8088   -0.4515 Cl  0  0  0  0  0  0  0  0  0  0  0  0
   -1.6054    2.2850   -0.9068 O   0  0  0  0  0  0  0  0  0  0  0  0
    0.1292    0.5422   -1.4429 O   0  0  0  0  0  0  0  0  0  0  0  0
   -0.2806   -0.1208    1.3322 H   0  0  0  0  0  0  0  0  0  0  0  0
   -1.5989    1.0381    1.6113 H   0  0  0  0  0  0  0  0  0  0  0  0
   -0.6174   -2.1264   -0.0517 H   0  0  0  0  0  0  0  0  0  0  0  0
   -2.2144   -3.7368   -1.0190 H   0  0  0  0  0  0  0  0  0  0  0  0
   -4.6085   -3.1651   -1.1983 H   0  0  0  0  0  0  0  0  0  0  0  0
   -3.8196    0.6615    0.5628 H   0  0  0  0  0  0  0  0  0  0  0  0
 12 11  2  0
 12 13  1  0
 11 10  1  0
 13 14  2  0
  3  2  2  0
 10 14  1  0
 10  9  1  0
  5  9  1  0
  5  4  2  0
  2  1  1  0
  2  4  1  0
  9  8  2  0
  4  6  1  0
  8  7  1  0
  6  7  2  0
  1 15  1  0
  1 16  1  0
  1 17  1  0
  5 18  1  0
  6 19  1  0
  7 20  1  0
  8 21  1  0
 14 22  1  0
 22 23  1  1
 23 24  1  0
 24 25  2  0
 25 26  1  0
 26 27  2  0
 27 28  1  0
 28 29  2  0
 29 24  1  0
 28 30  1  0
 22 31  2  0
 22 32  2  0
 23 33  1  0
 23 34  1  0
 25 35  1  0
 26 36  1  0
 27 37  1  0
 29 38  1  0
M  END
