
     RDKit          3D

 88 89  0  0  0  0  0  0  0  0999 V2000
   -4.2810    1.5401   -1.3419 C   0  0  0  0  0  0  0  0  0  0  0  0
   -4.5277    2.7076   -0.6336 C   0  0  0  0  0  0  0  0  0  0  0  0
   -5.3120    2.6716    0.5126 C   0  0  0  0  0  0  0  0  0  0  0  0
   -5.8380    1.4634    0.9465 C   0  0  0  0  0  0  0  0  0  0  0  0
   -5.5832    0.2970    0.2358 C   0  0  0  0  0  0  0  0  0  0  0  0
   -4.8077    0.3214   -0.9192 C   0  0  0  0  0  0  0  0  0  0  0  0
   -4.5242   -0.9436   -1.6811 C   0  0  0  0  0  0  0  0  0  0  0  0
   -3.0605   -1.3910   -1.5250 C   0  0  2  0  0  0  0  0  0  0  0  0
   -2.8505   -2.7124   -2.2651 C   0  0  0  0  0  0  0  0  0  0  0  0
   -2.9777   -3.7856   -1.6990 O   0  0  0  0  0  0  0  0  0  0  0  0
   -2.5740   -2.5812   -3.5676 N   0  0  0  0  0  0  0  0  0  0  0  0
   -2.7178   -1.5201   -0.1360 N   0  0  0  0  0  0  0  0  0  0  0  0
   -1.5779   -1.0454    0.3926 C   0  0  0  0  0  0  0  0  0  0  0  0
   -0.6938   -0.5355   -0.2804 O   0  0  0  0  0  0  0  0  0  0  0  0
   -1.4872   -1.1501    1.9170 C   0  0  2  0  0  0  0  0  0  0  0  0
   -2.5376   -0.2440    2.6006 C   0  0  2  0  0  0  0  0  0  0  0  0
   -2.4127    1.2184    2.1923 C   0  0  0  0  0  0  0  0  0  0  0  0
   -2.4228   -0.4052    3.9953 O   0  0  0  0  0  0  0  0  0  0  0  0
   -0.1859   -0.8046    2.4350 N   0  0  0  0  0  0  0  0  0  0  0  0
    0.8603   -1.7800    2.1699 C   0  0  0  0  0  0  0  0  0  0  0  0
    2.2336   -1.1165    2.2512 C   0  0  2  0  0  0  0  0  0  0  0  0
    2.2789   -0.0197    1.3024 N   0  0  0  0  0  0  0  0  0  0  0  0
    2.8915    1.1585    1.5263 C   0  0  0  0  0  0  0  0  0  0  0  0
    3.5636    1.3859    2.5160 O   0  0  0  0  0  0  0  0  0  0  0  0
    2.6609    2.1963    0.4184 C   0  0  2  0  0  0  0  0  0  0  0  0
    3.4786    3.3627    0.6235 N   0  0  0  0  0  0  0  0  0  0  0  0
    3.3087    4.2759    1.5968 C   0  0  0  0  0  0  0  0  0  0  0  0
    2.3735    4.2632    2.3833 O   0  0  0  0  0  0  0  0  0  0  0  0
    4.3703    5.3493    1.6478 C   0  0  0  0  0  0  0  0  0  0  0  0
    1.1655    2.4892    0.2183 C   0  0  0  0  0  0  0  0  0  0  0  0
    0.8903    3.5260   -0.8608 C   0  0  0  0  0  0  0  0  0  0  0  0
   -0.5977    3.6327   -1.1741 C   0  0  0  0  0  0  0  0  0  0  0  0
   -0.8848    4.6263   -2.2892 C   0  0  0  0  0  0  0  0  0  0  0  0
   -2.3057    4.6722   -2.6059 N   0  0  0  0  0  0  0  0  0  0  0  0
    3.3663   -2.1031    2.0238 C   0  0  0  0  0  0  0  0  0  0  0  0
    3.2594   -2.6175    0.7213 O   0  0  0  0  0  0  0  0  0  0  0  0
    4.3215   -3.4569    0.3560 C   0  0  0  0  0  0  0  0  0  0  0  0
    4.2450   -3.7255   -1.1175 C   0  0  0  0  0  0  0  0  0  0  0  0
    3.9014   -2.7287   -2.0248 C   0  0  0  0  0  0  0  0  0  0  0  0
    3.8843   -3.0278   -3.3769 C   0  0  0  0  0  0  0  0  0  0  0  0
    4.2129   -4.3151   -3.7779 C   0  0  0  0  0  0  0  0  0  0  0  0
    4.5369   -5.2782   -2.9245 N   0  0  0  0  0  0  0  0  0  0  0  0
    4.5451   -4.9818   -1.6302 C   0  0  0  0  0  0  0  0  0  0  0  0
   -3.6707    1.5771   -2.2383 H   0  0  0  0  0  0  0  0  0  0  0  0
   -4.0965    3.6402   -0.9771 H   0  0  0  0  0  0  0  0  0  0  0  0
   -5.5068    3.5809    1.0666 H   0  0  0  0  0  0  0  0  0  0  0  0
   -6.4479    1.4254    1.8400 H   0  0  0  0  0  0  0  0  0  0  0  0
   -5.9973   -0.6429    0.5822 H   0  0  0  0  0  0  0  0  0  0  0  0
   -5.1855   -1.7431   -1.3361 H   0  0  0  0  0  0  0  0  0  0  0  0
   -4.7292   -0.8022   -2.7447 H   0  0  0  0  0  0  0  0  0  0  0  0
   -2.4124   -0.6248   -1.9536 H   0  0  0  0  0  0  0  0  0  0  0  0
   -2.4273   -1.6824   -3.9944 H   0  0  0  0  0  0  0  0  0  0  0  0
   -2.4626   -3.3930   -4.1532 H   0  0  0  0  0  0  0  0  0  0  0  0
   -3.3685   -1.9999    0.4666 H   0  0  0  0  0  0  0  0  0  0  0  0
   -1.7136   -2.1835    2.2056 H   0  0  0  0  0  0  0  0  0  0  0  0
   -3.5364   -0.5944    2.3250 H   0  0  0  0  0  0  0  0  0  0  0  0
   -2.5878    1.3624    1.1254 H   0  0  0  0  0  0  0  0  0  0  0  0
   -3.1584    1.8137    2.7187 H   0  0  0  0  0  0  0  0  0  0  0  0
   -1.4301    1.6285    2.4377 H   0  0  0  0  0  0  0  0  0  0  0  0
   -1.4722   -0.3794    4.1774 H   0  0  0  0  0  0  0  0  0  0  0  0
    0.0919    0.0839    2.0341 H   0  0  0  0  0  0  0  0  0  0  0  0
    0.8155   -2.5777    2.9162 H   0  0  0  0  0  0  0  0  0  0  0  0
    0.7501   -2.2593    1.1898 H   0  0  0  0  0  0  0  0  0  0  0  0
    2.3640   -0.6999    3.2527 H   0  0  0  0  0  0  0  0  0  0  0  0
    1.8128   -0.1634    0.4187 H   0  0  0  0  0  0  0  0  0  0  0  0
    3.0219    1.7515   -0.5143 H   0  0  0  0  0  0  0  0  0  0  0  0
    4.3003    3.4383    0.0490 H   0  0  0  0  0  0  0  0  0  0  0  0
    3.8970    6.3299    1.6763 H   0  0  0  0  0  0  0  0  0  0  0  0
    4.9464    5.2403    2.5674 H   0  0  0  0  0  0  0  0  0  0  0  0
    5.0615    5.3216    0.8076 H   0  0  0  0  0  0  0  0  0  0  0  0
    0.6763    1.5602   -0.0781 H   0  0  0  0  0  0  0  0  0  0  0  0
    0.7038    2.7914    1.1593 H   0  0  0  0  0  0  0  0  0  0  0  0
    1.2709    4.5049   -0.5572 H   0  0  0  0  0  0  0  0  0  0  0  0
    1.4331    3.2535   -1.7727 H   0  0  0  0  0  0  0  0  0  0  0  0
   -0.9814    2.6452   -1.4553 H   0  0  0  0  0  0  0  0  0  0  0  0
   -1.1487    3.9264   -0.2755 H   0  0  0  0  0  0  0  0  0  0  0  0
   -0.5745    5.6246   -1.9680 H   0  0  0  0  0  0  0  0  0  0  0  0
   -0.2571    4.3750   -3.1568 H   0  0  0  0  0  0  0  0  0  0  0  0
   -2.4723    5.3673   -3.3230 H   0  0  0  0  0  0  0  0  0  0  0  0
   -2.5817    3.7892   -3.0175 H   0  0  0  0  0  0  0  0  0  0  0  0
    4.3268   -1.5891    2.1621 H   0  0  0  0  0  0  0  0  0  0  0  0
    3.3141   -2.9018    2.7768 H   0  0  0  0  0  0  0  0  0  0  0  0
    5.2856   -2.9827    0.5900 H   0  0  0  0  0  0  0  0  0  0  0  0
    4.2972   -4.4023    0.9151 H   0  0  0  0  0  0  0  0  0  0  0  0
    3.6476   -1.7338   -1.6818 H   0  0  0  0  0  0  0  0  0  0  0  0
    3.6229   -2.2785   -4.1117 H   0  0  0  0  0  0  0  0  0  0  0  0
    4.2105   -4.5776   -4.8300 H   0  0  0  0  0  0  0  0  0  0  0  0
    4.8034   -5.7911   -0.9533 H   0  0  0  0  0  0  0  0  0  0  0  0
  2  3  1  0
  2  1  2  0
  3  4  2  0
  1  6  1  0
  4  5  1  0
  6  5  2  0
  6  7  1  0
  7  8  1  0
 34 33  1  0
 11  9  1  0
 33 32  1  0
  8 12  1  0
  8  9  1  0
 32 31  1  0
 12 13  1  0
  9 10  2  0
 31 30  1  0
 13 15  1  0
 13 14  2  0
 30 25  1  0
 15 16  1  0
 15 19  1  0
 16 17  1  0
 16 18  1  0
 20 19  1  0
 20 21  1  0
 25 23  1  0
 25 26  1  0
 23 22  1  0
 23 24  2  0
 22 21  1  0
 21 35  1  0
 26 27  1  0
 35 36  1  0
 27 28  2  0
 27 29  1  0
 36 37  1  0
 37 38  1  0
 43 38  1  0
 43 42  2  0
 38 39  2  0
 42 41  1  0
 39 40  1  0
 41 40  2  0
  1 44  1  0
  2 45  1  0
  3 46  1  0
  4 47  1  0
  5 48  1  0
  7 49  1  0
  7 50  1  0
  8 51  1  6
 11 52  1  0
 11 53  1  0
 12 54  1  0
 15 55  1  6
 16 56  1  6
 17 57  1  0
 17 58  1  0
 17 59  1  0
 18 60  1  0
 19 61  1  0
 20 62  1  0
 20 63  1  0
 21 64  1  1
 22 65  1  0
 25 66  1  6
 26 67  1  0
 29 68  1  0
 29 69  1  0
 29 70  1  0
 30 71  1  0
 30 72  1  0
 31 73  1  0
 31 74  1  0
 32 75  1  0
 32 76  1  0
 33 77  1  0
 33 78  1  0
 34 79  1  0
 34 80  1  0
 35 81  1  0
 35 82  1  0
 37 83  1  0
 37 84  1  0
 39 85  1  0
 40 86  1  0
 41 87  1  0
 43 88  1  0
M  END
