
     RDKit          3D

 43 45  0  0  0  0  0  0  0  0999 V2000
    0.6401    0.9951   -3.9601 C   0  0  0  0  0  0  0  0  0  0  0  0
    1.9133    1.4538   -3.7868 C   0  0  0  0  0  0  0  0  0  0  0  0
    2.5270    1.4055   -2.5151 C   0  0  0  0  0  0  0  0  0  0  0  0
    1.8333    0.8935   -1.4681 C   0  0  0  0  0  0  0  0  0  0  0  0
    2.3933    0.8370   -0.2536 F   0  0  0  0  0  0  0  0  0  0  0  0
   -0.0855   -0.0866   -0.5002 N   0  0  0  0  0  0  0  0  0  0  0  0
   -1.9781   -1.0628    0.5889 C   0  0  0  0  0  0  0  0  0  0  0  0
   -3.2759   -1.4963    0.4988 C   0  0  0  0  0  0  0  0  0  0  0  0
   -3.9986   -1.4542   -0.7056 C   0  0  0  0  0  0  0  0  0  0  0  0
   -3.4034   -0.9796   -1.8370 C   0  0  0  0  0  0  0  0  0  0  0  0
   -0.0936    0.4624   -2.8705 C   0  0  0  0  0  0  0  0  0  0  0  0
    0.5052    0.4005   -1.5876 C   0  0  0  0  0  0  0  0  0  0  0  0
   -1.3358   -0.5370   -0.5877 C   0  0  0  0  0  0  0  0  0  0  0  0
   -2.0679   -0.5162   -1.8143 C   0  0  0  0  0  0  0  0  0  0  0  0
   -1.4249   -0.0267   -2.9878 C   0  0  0  0  0  0  0  0  0  0  0  0
   -2.0492   -0.0150   -4.1642 N   0  0  0  0  0  0  0  0  0  0  0  0
   -1.3312   -1.2056    1.9449 C   0  0  0  0  0  0  0  0  0  0  0  0
   -1.9797   -1.6516    2.8883 O   0  0  0  0  0  0  0  0  0  0  0  0
   -0.0449   -0.8599    2.0504 N   0  0  0  0  0  0  0  0  0  0  0  0
    0.7092   -0.9988    3.2721 C   0  0  0  0  0  0  0  0  0  0  0  0
    0.6156    0.2418    4.1584 C   0  0  0  0  0  0  0  0  0  0  0  0
    1.4431    0.1280    5.3438 N   0  0  0  0  0  0  0  0  0  0  0  0
    1.6822    1.4212    5.9481 C   0  0  0  0  0  0  0  0  0  0  0  0
    0.8950   -0.7942    6.3165 C   0  0  0  0  0  0  0  0  0  0  0  0
    0.2084    1.0506   -4.9504 H   0  0  0  0  0  0  0  0  0  0  0  0
    2.4642    1.8591   -4.6238 H   0  0  0  0  0  0  0  0  0  0  0  0
    3.5357    1.7713   -2.3744 H   0  0  0  0  0  0  0  0  0  0  0  0
   -3.7579   -1.8864    1.3845 H   0  0  0  0  0  0  0  0  0  0  0  0
   -5.0216   -1.8027   -0.7317 H   0  0  0  0  0  0  0  0  0  0  0  0
   -3.9868   -0.9634   -2.7480 H   0  0  0  0  0  0  0  0  0  0  0  0
   -1.5904    0.2828   -5.0058 H   0  0  0  0  0  0  0  0  0  0  0  0
   -2.9604   -0.4147   -4.2954 H   0  0  0  0  0  0  0  0  0  0  0  0
    0.3869   -0.4695    1.2141 H   0  0  0  0  0  0  0  0  0  0  0  0
    1.7538   -1.1672    3.0062 H   0  0  0  0  0  0  0  0  0  0  0  0
    0.3636   -1.8861    3.8014 H   0  0  0  0  0  0  0  0  0  0  0  0
   -0.4404    0.4420    4.4069 H   0  0  0  0  0  0  0  0  0  0  0  0
    0.9692    1.0984    3.5787 H   0  0  0  0  0  0  0  0  0  0  0  0
    2.3583    1.3146    6.7977 H   0  0  0  0  0  0  0  0  0  0  0  0
    2.1546    2.0915    5.2286 H   0  0  0  0  0  0  0  0  0  0  0  0
    0.7656    1.9106    6.3132 H   0  0  0  0  0  0  0  0  0  0  0  0
    0.7900   -1.7949    5.8977 H   0  0  0  0  0  0  0  0  0  0  0  0
    1.5678   -0.8715    7.1716 H   0  0  0  0  0  0  0  0  0  0  0  0
   -0.0929   -0.4842    6.6938 H   0  0  0  0  0  0  0  0  0  0  0  0
  1  2  2  0
  1 11  1  0
  1 25  1  0
  2  3  1  0
  2 26  1  0
  3  4  2  0
  3 27  1  0
  4  5  1  0
  4 12  1  0
  6 12  1  0
  6 13  2  0
  7  8  2  0
  7 13  1  0
  7 17  1  0
  8  9  1  0
  8 28  1  0
  9 10  2  0
  9 29  1  0
 10 14  1  0
 10 30  1  0
 11 12  2  0
 11 15  1  0
 13 14  1  0
 14 15  2  0
 15 16  1  0
 16 31  1  0
 16 32  1  0
 17 18  2  0
 17 19  1  0
 19 20  1  0
 19 33  1  0
 20 21  1  0
 20 34  1  0
 20 35  1  0
 21 22  1  0
 21 36  1  0
 21 37  1  0
 22 23  1  0
 22 24  1  0
 23 38  1  0
 23 39  1  0
 23 40  1  0
 24 41  1  0
 24 42  1  0
 24 43  1  0
M  END
