
     RDKit          3D

 31 32  0  0  0  0  0  0  0  0999 V2000
   -1.9376   -1.5446   -0.0167 C   0  0  0  0  0  0  0  0  0  0  0  0
    3.1287   -1.7528    0.4716 O   0  0  0  0  0  0  0  0  0  0  0  0
   -3.2426   -1.1383   -0.0466 C   0  0  0  0  0  0  0  0  0  0  0  0
   -3.5565    0.2429   -0.0108 C   0  0  0  0  0  0  0  0  0  0  0  0
   -4.8135    0.7125   -0.0343 O   0  0  0  0  0  0  0  0  0  0  0  0
   -2.5436    1.1754    0.0516 C   0  0  0  0  0  0  0  0  0  0  0  0
   -1.1980    0.7714    0.0828 C   0  0  0  0  0  0  0  0  0  0  0  0
   -0.8786   -0.6125    0.0504 C   0  0  0  0  0  0  0  0  0  0  0  0
    0.4691   -1.0168    0.0912 C   0  0  0  0  0  0  0  0  0  0  0  0
    1.4918   -0.0970    0.1406 C   0  0  0  0  0  0  0  0  0  0  0  0
    1.1660    1.2843    0.1677 C   0  0  0  0  0  0  0  0  0  0  0  0
   -0.1325    1.7034    0.1481 C   0  0  0  0  0  0  0  0  0  0  0  0
    2.8951   -0.5891    0.1886 C   0  0  0  0  0  0  0  0  0  0  0  0
    3.9796    0.3601   -0.1292 C   0  0  0  0  0  0  0  0  0  0  0  0
    5.2645    0.0577    0.0779 C   0  0  0  0  0  0  0  0  0  0  0  0
    6.4051    0.9592   -0.2260 C   0  0  0  0  0  0  0  0  0  0  0  0
   -5.8957   -0.1993   -0.0853 C   0  0  0  0  0  0  0  0  0  0  0  0
   -1.7097   -2.6031   -0.0435 H   0  0  0  0  0  0  0  0  0  0  0  0
   -4.0220   -1.8854   -0.0970 H   0  0  0  0  0  0  0  0  0  0  0  0
   -2.7861    2.2314    0.0785 H   0  0  0  0  0  0  0  0  0  0  0  0
    0.6919   -2.0770    0.0724 H   0  0  0  0  0  0  0  0  0  0  0  0
    1.9467    2.0297    0.2293 H   0  0  0  0  0  0  0  0  0  0  0  0
   -0.3580    2.7621    0.1841 H   0  0  0  0  0  0  0  0  0  0  0  0
    3.7234    1.3236   -0.5516 H   0  0  0  0  0  0  0  0  0  0  0  0
   -6.8007    0.4027   -0.0909 H   0  0  0  0  0  0  0  0  0  0  0  0
   -5.8764   -0.8081   -0.9922 H   0  0  0  0  0  0  0  0  0  0  0  0
   -5.9193   -0.8565    0.7870 H   0  0  0  0  0  0  0  0  0  0  0  0
    7.1143    0.4642   -0.8927 H   0  0  0  0  0  0  0  0  0  0  0  0
    6.0857    1.8926   -0.6867 H   0  0  0  0  0  0  0  0  0  0  0  0
    6.9572    1.1918    0.6875 H   0  0  0  0  0  0  0  0  0  0  0  0
    5.5148   -0.9078    0.5069 H   0  0  0  0  0  0  0  0  0  0  0  0
  8  1  2  0
 18  1  1  0
  1  3  1  0
  2 13  2  0
  3  4  2  0
  3 19  1  0
  6  4  1  0
  4  5  1  0
  5 17  1  0
  7  6  2  0
  6 20  1  0
 12  7  1  0
  8  7  1  0
  9  8  1  0
 10  9  2  0
 21  9  1  0
 13 10  1  0
 10 11  1  0
 22 11  1  0
 11 12  2  0
 12 23  1  0
 14 13  1  0
 15 14  2  0
 14 24  1  0
 16 15  1  0
 15 31  1  0
 28 16  1  0
 30 16  1  0
 16 29  1  0
 26 17  1  0
 27 17  1  0
 17 25  1  0
M  END
