
     RDKit          3D

 30 32  0  0  0  0  0  0  0  0999 V2000
   -1.1718    1.5812   -0.2608 C   0  0  0  0  0  0  0  0  0  0  0  0
   -2.6140    1.6920   -0.2875 C   0  0  0  0  0  0  0  0  0  0  0  0
   -3.2019    2.7515   -0.4569 O   0  0  0  0  0  0  0  0  0  0  0  0
   -3.3177    0.4165   -0.1024 C   0  0  0  0  0  0  0  0  0  0  0  0
   -4.7142    0.3355   -0.1059 C   0  0  0  0  0  0  0  0  0  0  0  0
   -5.3443   -0.8770    0.0695 C   0  0  0  0  0  0  0  0  0  0  0  0
   -4.5855   -2.0370    0.2516 C   0  0  0  0  0  0  0  0  0  0  0  0
   -3.2070   -1.9851    0.2575 C   0  0  0  0  0  0  0  0  0  0  0  0
   -2.5853   -0.7530    0.0789 C   0  0  0  0  0  0  0  0  0  0  0  0
   -1.2325   -0.7455    0.0971 O   0  0  0  0  0  0  0  0  0  0  0  0
   -0.5553    0.3957   -0.0678 C   0  0  0  0  0  0  0  0  0  0  0  0
    0.8998    0.1988   -0.0329 C   0  0  0  0  0  0  0  0  0  0  0  0
    1.4582   -1.0410   -0.3451 C   0  0  0  0  0  0  0  0  0  0  0  0
    2.8314   -1.2146   -0.3274 C   0  0  0  0  0  0  0  0  0  0  0  0
    3.6700   -0.1561    0.0125 C   0  0  0  0  0  0  0  0  0  0  0  0
    5.1487   -0.2961    0.0545 C   0  0  0  0  0  0  0  0  0  0  0  0
    5.8954    0.6070    0.3440 O   0  0  0  0  0  0  0  0  0  0  0  0
    5.5611   -1.5144   -0.2581 O   0  0  0  0  0  0  0  0  0  0  0  0
    3.1131    1.0800    0.3322 C   0  0  0  0  0  0  0  0  0  0  0  0
    1.7433    1.2563    0.3106 C   0  0  0  0  0  0  0  0  0  0  0  0
   -0.5804    2.4721   -0.4183 H   0  0  0  0  0  0  0  0  0  0  0  0
   -5.2922    1.2389   -0.2484 H   0  0  0  0  0  0  0  0  0  0  0  0
   -6.4240   -0.9340    0.0671 H   0  0  0  0  0  0  0  0  0  0  0  0
   -5.0805   -2.9886    0.3919 H   0  0  0  0  0  0  0  0  0  0  0  0
   -2.6121   -2.8777    0.4000 H   0  0  0  0  0  0  0  0  0  0  0  0
    0.8320   -1.8786   -0.6187 H   0  0  0  0  0  0  0  0  0  0  0  0
    3.2347   -2.1838   -0.5842 H   0  0  0  0  0  0  0  0  0  0  0  0
    6.5278   -1.5615   -0.2117 H   0  0  0  0  0  0  0  0  0  0  0  0
    3.7496    1.9096    0.6077 H   0  0  0  0  0  0  0  0  0  0  0  0
    1.3345    2.2189    0.5862 H   0  0  0  0  0  0  0  0  0  0  0  0
 17 16  2  0
 18 16  1  0
 16 15  1  0
 15 19  2  0
 15 14  1  0
 19 20  1  0
 14 13  2  0
 20 12  2  0
 13 12  1  0
 12 11  1  0
 11 10  1  0
 11  1  2  0
 10  9  1  0
  1  2  1  0
  9  8  1  0
  9  4  2  0
  8  7  2  0
  2  4  1  0
  2  3  2  0
  4  5  1  0
  7  6  1  0
  5  6  2  0
  1 21  1  0
  5 22  1  0
  6 23  1  0
  7 24  1  0
  8 25  1  0
 13 26  1  0
 14 27  1  0
 18 28  1  0
 19 29  1  0
 20 30  1  0
M  END
