
     RDKit          3D

 25 26  0  0  0  0  0  0  0  0999 V2000
    2.4835    0.5553    0.3049 C   0  0  0  0  0  0  0  0  0  0  0  0
    3.0557   -0.6932    0.1306 C   0  0  0  0  0  0  0  0  0  0  0  0
    2.2502   -1.7676   -0.2259 C   0  0  0  0  0  0  0  0  0  0  0  0
    0.8868   -1.5802   -0.3811 C   0  0  0  0  0  0  0  0  0  0  0  0
    0.2947   -0.3331   -0.1720 C   0  0  0  0  0  0  0  0  0  0  0  0
    1.1114    0.7543    0.1513 C   0  0  0  0  0  0  0  0  0  0  0  0
    0.5324    2.1369    0.2860 C   0  0  0  0  0  0  0  0  0  0  0  0
   -0.8110    2.2167   -0.4131 C   0  0  0  0  0  0  0  0  0  0  0  0
   -1.6377    1.1411    0.0918 N   0  0  0  0  0  0  0  0  0  0  0  0
   -1.2028   -0.1711   -0.3473 C   0  0  2  0  0  0  0  0  0  0  0  0
   -1.9627   -1.2231    0.4530 C   0  0  0  0  0  0  0  0  0  0  0  0
   -3.3401   -1.0578    0.1988 O   0  0  0  0  0  0  0  0  0  0  0  0
    3.1116    1.4038    0.5523 H   0  0  0  0  0  0  0  0  0  0  0  0
    4.1232   -0.8249    0.2527 H   0  0  0  0  0  0  0  0  0  0  0  0
    2.6817   -2.7469   -0.3887 H   0  0  0  0  0  0  0  0  0  0  0  0
    0.2768   -2.4247   -0.6779 H   0  0  0  0  0  0  0  0  0  0  0  0
    0.4012    2.3881    1.3427 H   0  0  0  0  0  0  0  0  0  0  0  0
    1.2279    2.8708   -0.1274 H   0  0  0  0  0  0  0  0  0  0  0  0
   -1.2957    3.1682   -0.1913 H   0  0  0  0  0  0  0  0  0  0  0  0
   -0.6651    2.1754   -1.5044 H   0  0  0  0  0  0  0  0  0  0  0  0
   -2.6012    1.2787   -0.1786 H   0  0  0  0  0  0  0  0  0  0  0  0
   -1.4224   -0.3398   -1.4174 H   0  0  0  0  0  0  0  0  0  0  0  0
   -1.6307   -2.2269    0.1686 H   0  0  0  0  0  0  0  0  0  0  0  0
   -1.7231   -1.0867    1.5154 H   0  0  0  0  0  0  0  0  0  0  0  0
   -3.8256   -1.6738    0.7543 H   0  0  0  0  0  0  0  0  0  0  0  0
  2  3  1  0
  2  1  2  0
  3  4  2  0
  1  6  1  0
  4  5  1  0
  6  5  2  0
  6  7  1  0
  5 10  1  0
 12 11  1  0
 11 10  1  0
  7  8  1  0
 10  9  1  0
  8  9  1  0
  1 13  1  0
  2 14  1  0
  3 15  1  0
  4 16  1  0
  7 17  1  0
  7 18  1  0
  8 19  1  0
  8 20  1  0
  9 21  1  0
 10 22  1  6
 11 23  1  0
 11 24  1  0
 12 25  1  0
M  END
