
     RDKit          3D

 25 26  0  0  0  0  0  0  0  0999 V2000
    2.0851   -1.3499    0.0261 N   0  0  0  0  0  0  0  0  0  0  0  0
    0.8361    0.6264   -0.0073 C   0  0  0  0  0  0  0  0  0  0  0  0
   -2.7619    1.2418   -0.0279 O   0  0  0  0  0  0  0  0  0  0  0  0
   -0.3519    1.3575   -0.0220 C   0  0  0  0  0  0  0  0  0  0  0  0
   -2.7835   -1.3115    0.0066 O   0  0  0  0  0  0  0  0  0  0  0  0
   -1.5478    0.6667   -0.0164 C   0  0  0  0  0  0  0  0  0  0  0  0
   -2.8318    2.6532   -0.0534 C   0  0  0  0  0  0  0  0  0  0  0  0
   -1.5587   -0.7572    0.0030 C   0  0  0  0  0  0  0  0  0  0  0  0
   -2.8744   -2.7213    0.0393 C   0  0  0  0  0  0  0  0  0  0  0  0
   -0.3750   -1.4631    0.0167 C   0  0  0  0  0  0  0  0  0  0  0  0
    0.8398   -0.7661    0.0120 C   0  0  0  0  0  0  0  0  0  0  0  0
    3.0208   -0.4676    0.0185 C   0  0  0  0  0  0  0  0  0  0  0  0
    4.4763   -0.7704    0.0293 C   0  0  0  0  0  0  0  0  0  0  0  0
    2.4701    1.1951   -0.0073 S   0  0  0  0  0  0  0  0  0  0  0  0
   -0.3247    2.4379   -0.0361 H   0  0  0  0  0  0  0  0  0  0  0  0
   -3.8881    2.9091   -0.0657 H   0  0  0  0  0  0  0  0  0  0  0  0
   -2.3709    3.1009    0.8314 H   0  0  0  0  0  0  0  0  0  0  0  0
   -2.3575    3.0688   -0.9465 H   0  0  0  0  0  0  0  0  0  0  0  0
   -3.9345   -2.9617    0.0489 H   0  0  0  0  0  0  0  0  0  0  0  0
   -2.4168   -3.1811   -0.8410 H   0  0  0  0  0  0  0  0  0  0  0  0
   -2.4093   -3.1395    0.9362 H   0  0  0  0  0  0  0  0  0  0  0  0
   -0.3554   -2.5441    0.0309 H   0  0  0  0  0  0  0  0  0  0  0  0
    4.9665   -0.3792   -0.8629 H   0  0  0  0  0  0  0  0  0  0  0  0
    4.9653   -0.3219    0.8947 H   0  0  0  0  0  0  0  0  0  0  0  0
    4.6248   -1.8473    0.0644 H   0  0  0  0  0  0  0  0  0  0  0  0
  1 11  1  0
  1 12  2  0
  2  4  1  0
  2 11  2  0
  2 14  1  0
  3  6  1  0
  3  7  1  0
  4  6  2  0
  5  8  1  0
  5  9  1  0
  6  8  1  0
  8 10  2  0
 10 11  1  0
 12 13  1  0
 12 14  1  0
  4 15  1  0
  7 16  1  0
  7 17  1  0
  7 18  1  0
  9 19  1  0
  9 20  1  0
  9 21  1  0
 10 22  1  0
 13 23  1  0
 13 24  1  0
 13 25  1  0
M  END
