
     RDKit          3D

 19 20  0  0  0  0  0  0  0  0999 V2000
    1.7471    1.1209    0.0562 C   0  0  0  0  0  0  0  0  0  0  0  0
   -2.6902   -1.0126   -0.0160 C   0  0  0  0  0  0  0  0  0  0  0  0
   -1.8216    1.2344   -0.0311 C   0  0  0  0  0  0  0  0  0  0  0  0
   -1.4241   -1.5319    0.0242 C   0  0  0  0  0  0  0  0  0  0  0  0
    2.0757   -0.2669    0.0916 C   0  0  0  0  0  0  0  0  0  0  0  0
    1.0266   -1.1569    0.0766 C   0  0  0  0  0  0  0  0  0  0  0  0
   -0.2974   -0.6762    0.0391 C   0  0  0  0  0  0  0  0  0  0  0  0
   -0.5056    0.7248    0.0092 C   0  0  0  0  0  0  0  0  0  0  0  0
    0.5367    1.5921    0.0159 N   0  0  0  0  0  0  0  0  0  0  0  0
   -2.8945    0.3833   -0.0425 C   0  0  0  0  0  0  0  0  0  0  0  0
    2.5576    1.8456    0.0629 H   0  0  0  0  0  0  0  0  0  0  0  0
   -3.5441   -1.6774   -0.0299 H   0  0  0  0  0  0  0  0  0  0  0  0
   -1.9580    2.3085   -0.0521 H   0  0  0  0  0  0  0  0  0  0  0  0
   -1.2723   -2.6045    0.0432 H   0  0  0  0  0  0  0  0  0  0  0  0
    4.0685    0.0136   -0.1671 H   0  0  0  0  0  0  0  0  0  0  0  0
    3.6051   -1.5909   -0.0758 H   0  0  0  0  0  0  0  0  0  0  0  0
    1.2053   -2.2263    0.0947 H   0  0  0  0  0  0  0  0  0  0  0  0
   -3.9019    0.7772   -0.0715 H   0  0  0  0  0  0  0  0  0  0  0  0
    3.3915   -0.6425    0.1879 N   0  0  0  0  0  0  0  0  0  0  0  0
  9  1  2  0
  9  8  1  0
  3  8  2  0
  3 10  1  0
  1  5  1  0
  8  7  1  0
 10  2  2  0
  5 19  1  0
  5  6  2  0
  7  6  1  0
  7  4  2  0
  2  4  1  0
  1 11  1  0
  2 12  1  0
  3 13  1  0
  4 14  1  0
 19 15  1  0
 19 16  1  0
  6 17  1  0
 10 18  1  0
M  END
