
     RDKit          3D

 54 57  0  0  0  0  0  0  0  0999 V2000
   -5.6955    0.9620    0.4439 C   0  0  0  0  0  0  0  0  0  0  0  0
   -4.5533    0.2669    0.0522 C   0  0  0  0  0  0  0  0  0  0  0  0
   -4.6575   -0.4787   -1.1522 C   0  0  0  0  0  0  0  0  0  0  0  0
   -5.7851   -0.5115   -1.8506 N   0  0  0  0  0  0  0  0  0  0  0  0
   -6.8220    0.9243   -0.2569 N   0  0  0  0  0  0  0  0  0  0  0  0
   -5.1731    3.2381    1.3196 C   0  0  0  0  0  0  0  0  0  0  0  0
   -5.6855    1.8381    1.6595 C   0  0  0  0  0  0  0  0  0  0  0  0
   -6.8154    0.1837   -1.3707 C   0  0  0  0  0  0  0  0  0  0  0  0
   -7.9687    0.1157   -2.0608 N   0  0  0  0  0  0  0  0  0  0  0  0
   -3.6188   -1.1945   -1.6083 N   0  0  0  0  0  0  0  0  0  0  0  0
   -3.3399    0.2779    0.7827 C   0  0  0  0  0  0  0  0  0  0  0  0
   -2.2807    0.2461    1.3620 C   0  0  0  0  0  0  0  0  0  0  0  0
   -1.0072    0.1734    2.0751 C   0  0  1  0  0  0  0  0  0  0  0  0
   -1.1776   -0.5001    3.4439 C   0  0  0  0  0  0  0  0  0  0  0  0
    0.0337   -0.5398    1.2350 C   0  0  0  0  0  0  0  0  0  0  0  0
    1.2876    0.0181    1.0685 C   0  0  0  0  0  0  0  0  0  0  0  0
   -0.2667   -1.7888    0.6663 C   0  0  0  0  0  0  0  0  0  0  0  0
    0.7308   -2.4066   -0.0401 C   0  0  0  0  0  0  0  0  0  0  0  0
    0.6778   -3.5801   -0.7124 O   0  0  0  0  0  0  0  0  0  0  0  0
    2.0046   -3.8549   -1.1402 C   0  0  0  0  0  0  0  0  0  0  0  0
    2.7450   -2.6520   -0.9781 O   0  0  0  0  0  0  0  0  0  0  0  0
    1.9896   -1.8443   -0.1968 C   0  0  0  0  0  0  0  0  0  0  0  0
    2.3151   -0.6196    0.3437 C   0  0  0  0  0  0  0  0  0  0  0  0
    3.6309    0.0159    0.1608 C   0  0  0  0  0  0  0  0  0  0  0  0
    4.8143   -0.7227    0.2304 C   0  0  0  0  0  0  0  0  0  0  0  0
    6.0412   -0.1046    0.0739 C   0  0  0  0  0  0  0  0  0  0  0  0
    6.1194    1.2660   -0.1638 C   0  0  0  0  0  0  0  0  0  0  0  0
    7.4583    1.8799   -0.3316 C   0  0  0  0  0  0  0  0  0  0  0  0
    8.4951    1.2659   -0.2426 O   0  0  0  0  0  0  0  0  0  0  0  0
    7.4044    3.1778   -0.5958 O   0  0  0  0  0  0  0  0  0  0  0  0
    4.9430    2.0097   -0.2344 C   0  0  0  0  0  0  0  0  0  0  0  0
    3.7168    1.3894   -0.0727 C   0  0  0  0  0  0  0  0  0  0  0  0
   -5.7819    3.6974    0.5404 H   0  0  0  0  0  0  0  0  0  0  0  0
   -5.2087    3.8828    2.1974 H   0  0  0  0  0  0  0  0  0  0  0  0
   -4.1417    3.2069    0.9684 H   0  0  0  0  0  0  0  0  0  0  0  0
   -6.7020    1.9039    2.0495 H   0  0  0  0  0  0  0  0  0  0  0  0
   -5.0611    1.3980    2.4386 H   0  0  0  0  0  0  0  0  0  0  0  0
   -7.9670   -0.2880   -2.9809 H   0  0  0  0  0  0  0  0  0  0  0  0
   -8.7137    0.7499   -1.8317 H   0  0  0  0  0  0  0  0  0  0  0  0
   -2.7015   -1.0603   -1.2188 H   0  0  0  0  0  0  0  0  0  0  0  0
   -3.6746   -1.6064   -2.5241 H   0  0  0  0  0  0  0  0  0  0  0  0
   -0.6558    1.1958    2.2470 H   0  0  0  0  0  0  0  0  0  0  0  0
   -1.5164   -1.5302    3.3342 H   0  0  0  0  0  0  0  0  0  0  0  0
   -0.2280   -0.5055    3.9790 H   0  0  0  0  0  0  0  0  0  0  0  0
   -1.9076    0.0376    4.0486 H   0  0  0  0  0  0  0  0  0  0  0  0
    1.5009    0.9749    1.5297 H   0  0  0  0  0  0  0  0  0  0  0  0
   -1.2446   -2.2403    0.7782 H   0  0  0  0  0  0  0  0  0  0  0  0
    2.4400   -4.6453   -0.5201 H   0  0  0  0  0  0  0  0  0  0  0  0
    2.0025   -4.1476   -2.1897 H   0  0  0  0  0  0  0  0  0  0  0  0
    4.7846   -1.7848    0.4297 H   0  0  0  0  0  0  0  0  0  0  0  0
    6.9443   -0.6959    0.1414 H   0  0  0  0  0  0  0  0  0  0  0  0
    8.2999    3.5300   -0.7062 H   0  0  0  0  0  0  0  0  0  0  0  0
    4.9687    3.0745   -0.4191 H   0  0  0  0  0  0  0  0  0  0  0  0
    2.8142    1.9817   -0.1476 H   0  0  0  0  0  0  0  0  0  0  0  0
 29 28  2  0
 30 28  1  0
 28 27  1  0
 26 27  1  0
 26 25  2  0
 27 31  2  0
 10  3  1  0
  4  3  2  0
  4  8  1  0
 25 24  1  0
 31 32  1  0
  9  8  1  0
  3  2  1  0
  8  5  2  0
 24 32  2  0
 24 23  1  0
  2 11  1  0
  2  1  2  0
  5  1  1  0
 11 12  3  0
 16 23  2  0
 16 15  1  0
  1  7  1  0
 12 13  1  0
 23 22  1  0
  6  7  1  0
 13 15  1  0
 13 14  1  0
 15 17  2  0
 22 21  1  0
 22 18  2  0
 21 20  1  0
 17 18  1  0
 18 19  1  0
 20 19  1  0
  6 33  1  0
  6 34  1  0
  6 35  1  0
  7 36  1  0
  7 37  1  0
  9 38  1  0
  9 39  1  0
 10 40  1  0
 10 41  1  0
 13 42  1  1
 14 43  1  0
 14 44  1  0
 14 45  1  0
 16 46  1  0
 17 47  1  0
 20 48  1  0
 20 49  1  0
 25 50  1  0
 26 51  1  0
 30 52  1  0
 31 53  1  0
 32 54  1  0
M  END
