
     RDKit          3D

 69 72  0  0  0  0  0  0  0  0999 V2000
    5.4821   -2.8706   -1.8116 O   0  0  0  0  0  0  0  0  0  0  0  0
    5.7081   -1.9646   -1.0532 C   0  0  0  0  0  0  0  0  0  0  0  0
    6.1154   -2.0230    0.3716 C   0  0  0  0  0  0  0  0  0  0  0  0
    6.1220   -3.1515    1.0690 C   0  0  0  0  0  0  0  0  0  0  0  0
    6.4648   -0.6288    0.7806 C   0  0  0  0  0  0  0  0  0  0  0  0
    5.7744    0.2102   -0.3029 C   0  0  1  0  0  0  0  0  0  0  0  0
    5.6236   -0.6892   -1.4269 O   0  0  0  0  0  0  0  0  0  0  0  0
    4.4116    0.7102    0.1394 C   0  0  0  0  0  0  0  0  0  0  0  0
    3.5487    1.3693   -0.9420 C   0  0  2  0  0  0  0  0  0  0  0  0
    4.3440    2.4430   -1.6882 C   0  0  0  0  0  0  0  0  0  0  0  0
    2.2633    1.9828   -0.3670 C   0  0  1  0  0  0  0  0  0  0  0  0
    1.3655    2.5866   -1.4836 C   0  0  0  0  0  0  0  0  0  0  0  0
   -0.0987    2.3815   -1.0554 C   0  0  0  0  0  0  0  0  0  0  0  0
    0.0174    1.9721    0.4026 C   0  0  2  0  0  0  0  0  0  0  0  0
    1.2920    1.0896    0.4450 C   0  0  1  0  0  0  0  0  0  0  0  0
    1.0536   -0.2440   -0.2673 C   0  0  0  0  0  0  0  0  0  0  0  0
   -1.1378    1.3462    1.1166 C   0  0  0  0  0  0  0  0  0  0  0  0
   -0.8102    1.0810    2.5606 C   0  0  0  0  0  0  0  0  0  0  0  0
    0.4839    0.2745    2.7082 C   0  0  0  0  0  0  0  0  0  0  0  0
    1.6507    0.8682    1.9182 C   0  0  0  0  0  0  0  0  0  0  0  0
   -2.3090    1.0719    0.5193 C   0  0  0  0  0  0  0  0  0  0  0  0
   -3.4531    0.4385    1.1442 C   0  0  0  0  0  0  0  0  0  0  0  0
   -4.6491    0.2011    0.5786 C   0  0  0  0  0  0  0  0  0  0  0  0
   -5.7378   -0.5313    1.3155 C   0  0  0  0  0  0  0  0  0  0  0  0
   -6.2514   -1.7276    0.5102 C   0  0  1  0  0  0  0  0  0  0  0  0
   -7.3595   -2.3420    1.1342 O   0  0  0  0  0  0  0  0  0  0  0  0
   -6.6982   -1.2732   -0.8714 C   0  0  0  0  0  0  0  0  0  0  0  0
   -5.5907   -0.5507   -1.6253 C   0  0  2  0  0  0  0  0  0  0  0  0
   -4.5785   -1.4970   -1.9138 O   0  0  0  0  0  0  0  0  0  0  0  0
   -5.0286    0.5822   -0.7953 C   0  0  0  0  0  0  0  0  0  0  0  0
   -4.9343    1.8170   -1.2857 C   0  0  0  0  0  0  0  0  0  0  0  0
   -5.2506    2.0433   -2.2972 H   0  0  0  0  0  0  0  0  0  0  0  0
    5.8395   -4.0919    0.6140 H   0  0  0  0  0  0  0  0  0  0  0  0
    6.4048   -3.1735    2.1127 H   0  0  0  0  0  0  0  0  0  0  0  0
    6.1207   -0.3715    1.7817 H   0  0  0  0  0  0  0  0  0  0  0  0
    7.5473   -0.4827    0.7525 H   0  0  0  0  0  0  0  0  0  0  0  0
    6.4072    1.0283   -0.6443 H   0  0  0  0  0  0  0  0  0  0  0  0
    3.8761   -0.1324    0.5854 H   0  0  0  0  0  0  0  0  0  0  0  0
    4.5847    1.4252    0.9511 H   0  0  0  0  0  0  0  0  0  0  0  0
    3.2589    0.6008   -1.6677 H   0  0  0  0  0  0  0  0  0  0  0  0
    4.7361    3.1933   -0.9964 H   0  0  0  0  0  0  0  0  0  0  0  0
    5.1900    2.0228   -2.2332 H   0  0  0  0  0  0  0  0  0  0  0  0
    3.7297    2.9614   -2.4232 H   0  0  0  0  0  0  0  0  0  0  0  0
    2.5685    2.7996    0.3024 H   0  0  0  0  0  0  0  0  0  0  0  0
    1.5908    3.6436   -1.6290 H   0  0  0  0  0  0  0  0  0  0  0  0
    1.5606    2.0994   -2.4423 H   0  0  0  0  0  0  0  0  0  0  0  0
   -0.7098    3.2756   -1.1869 H   0  0  0  0  0  0  0  0  0  0  0  0
   -0.5641    1.5913   -1.6491 H   0  0  0  0  0  0  0  0  0  0  0  0
    0.2782    2.8784    0.9718 H   0  0  0  0  0  0  0  0  0  0  0  0
    1.9124   -0.9080   -0.1609 H   0  0  0  0  0  0  0  0  0  0  0  0
    0.1843   -0.7681    0.1316 H   0  0  0  0  0  0  0  0  0  0  0  0
    0.8797   -0.1127   -1.3361 H   0  0  0  0  0  0  0  0  0  0  0  0
   -0.6758    2.0482    3.0605 H   0  0  0  0  0  0  0  0  0  0  0  0
   -1.6190    0.5741    3.0871 H   0  0  0  0  0  0  0  0  0  0  0  0
    0.7522    0.2201    3.7659 H   0  0  0  0  0  0  0  0  0  0  0  0
    0.3038   -0.7552    2.3884 H   0  0  0  0  0  0  0  0  0  0  0  0
    2.5136    0.2099    2.0286 H   0  0  0  0  0  0  0  0  0  0  0  0
    1.9361    1.8302    2.3602 H   0  0  0  0  0  0  0  0  0  0  0  0
   -2.4223    1.3379   -0.5256 H   0  0  0  0  0  0  0  0  0  0  0  0
   -3.3259    0.0897    2.1644 H   0  0  0  0  0  0  0  0  0  0  0  0
   -5.3809   -0.8594    2.2956 H   0  0  0  0  0  0  0  0  0  0  0  0
   -6.5825    0.1485    1.4858 H   0  0  0  0  0  0  0  0  0  0  0  0
   -5.4277   -2.4455    0.4020 H   0  0  0  0  0  0  0  0  0  0  0  0
   -7.0694   -2.6994    1.9793 H   0  0  0  0  0  0  0  0  0  0  0  0
   -7.0469   -2.1260   -1.4610 H   0  0  0  0  0  0  0  0  0  0  0  0
   -7.5447   -0.5871   -0.7679 H   0  0  0  0  0  0  0  0  0  0  0  0
   -6.0091   -0.1366   -2.5524 H   0  0  0  0  0  0  0  0  0  0  0  0
   -3.8533   -1.0363   -2.3476 H   0  0  0  0  0  0  0  0  0  0  0  0
   -4.5560    2.6426   -0.6968 H   0  0  0  0  0  0  0  0  0  0  0  0
  1  2  2  0
  2  7  1  0
  3  2  1  0
  3  5  1  0
  4  3  2  0
  5  6  1  0
  7  6  1  0
  8  6  1  0
  8  9  1  0
  9 10  1  0
 11  9  1  0
 12 11  1  0
 13 12  1  0
 13 14  1  0
 15 11  1  0
 15 14  1  0
 15 20  1  0
 15 16  1  6
 17 14  1  0
 17 18  1  0
 18 19  1  0
 19 20  1  0
 21 17  2  0
 22 21  1  0
 23 22  2  0
 24 23  1  0
 25 24  1  0
 25 26  1  0
 27 25  1  0
 27 28  1  0
 28 30  1  0
 29 28  1  0
 30 23  1  0
 31 30  2  0
 31 32  1  0
  4 33  1  0
  4 34  1  0
  5 35  1  0
  5 36  1  0
  6 37  1  6
  8 38  1  0
  8 39  1  0
  9 40  1  6
 10 41  1  0
 10 42  1  0
 10 43  1  0
 11 44  1  1
 12 45  1  0
 12 46  1  0
 13 47  1  0
 13 48  1  0
 14 49  1  1
 16 50  1  0
 16 51  1  0
 16 52  1  0
 18 53  1  0
 18 54  1  0
 19 55  1  0
 19 56  1  0
 20 57  1  0
 20 58  1  0
 21 59  1  0
 22 60  1  0
 24 61  1  0
 24 62  1  0
 25 63  1  6
 26 64  1  0
 27 65  1  0
 27 66  1  0
 28 67  1  6
 29 68  1  0
 31 69  1  0
M  END
