
     RDKit          3D

 20 20  0  0  0  0  0  0  0  0999 V2000
    4.3508    0.6766   -0.1608 C   0  0  0  0  0  0  0  0  0  0  0  0
    3.0281    0.1764   -0.4751 N   0  0  0  0  0  0  0  0  0  0  0  0
    2.0678    0.4515    0.5718 C   0  0  0  0  0  0  0  0  0  0  0  0
    0.7278   -0.1728    0.2818 C   0  0  0  0  0  0  0  0  0  0  0  0
    0.6364   -1.4742   -0.2085 C   0  0  0  0  0  0  0  0  0  0  0  0
   -0.6018   -2.0521   -0.4416 C   0  0  0  0  0  0  0  0  0  0  0  0
   -1.7728   -1.3468   -0.1935 C   0  0  0  0  0  0  0  0  0  0  0  0
   -1.6724   -0.0532    0.2889 C   0  0  0  0  0  0  0  0  0  0  0  0
   -0.4410    0.5402    0.5247 C   0  0  0  0  0  0  0  0  0  0  0  0
   -3.1196    0.8556    0.5972 Cl  0  0  0  0  0  0  0  0  0  0  0  0
    4.3853    1.7497    0.0728 H   0  0  0  0  0  0  0  0  0  0  0  0
    4.7516    0.1420    0.7026 H   0  0  0  0  0  0  0  0  0  0  0  0
    5.0213    0.4957   -1.0005 H   0  0  0  0  0  0  0  0  0  0  0  0
    2.7067    0.5999   -1.3365 H   0  0  0  0  0  0  0  0  0  0  0  0
    2.4578    0.0264    1.5033 H   0  0  0  0  0  0  0  0  0  0  0  0
    1.9325    1.5264    0.7671 H   0  0  0  0  0  0  0  0  0  0  0  0
    1.5420   -2.0309   -0.4097 H   0  0  0  0  0  0  0  0  0  0  0  0
   -0.6642   -3.0638   -0.8207 H   0  0  0  0  0  0  0  0  0  0  0  0
   -2.7390   -1.7968   -0.3766 H   0  0  0  0  0  0  0  0  0  0  0  0
   -0.3895    1.5572    0.8936 H   0  0  0  0  0  0  0  0  0  0  0  0
  1  2  1  0
  2  3  1  0
  3  4  1  0
  4  5  2  0
  4  9  1  0
  5  6  1  0
  9  8  2  0
  6  7  2  0
  8  7  1  0
  8 10  1  0
  1 11  1  0
  1 12  1  0
  1 13  1  0
  2 14  1  0
  3 15  1  0
  3 16  1  0
  5 17  1  0
  6 18  1  0
  7 19  1  0
  9 20  1  0
M  END
