
     RDKit          3D

 31 30  0  0  0  0  0  0  0  0999 V2000
   -2.5921    0.0024    0.0350 N   0  0  1  0  0  0  0  0  0  0  0  0
   -1.2892   -0.2802   -0.6681 C   0  0  0  0  0  0  0  0  0  0  0  0
   -0.0376   -0.0180    0.1480 C   0  0  0  0  0  0  0  0  0  0  0  0
    2.5208   -0.0003   -0.0436 C   0  0  2  0  0  0  0  0  0  0  0  0
    2.6325   -0.7771    1.1208 O   0  0  0  0  0  0  0  0  0  0  0  0
    3.4898   -0.3747   -0.9903 O   0  0  0  0  0  0  0  0  0  0  0  0
    2.7148    1.4484    0.3827 C   0  0  0  0  0  0  0  0  0  0  0  0
   -2.7503    1.4618    0.2800 C   0  0  0  0  0  0  0  0  0  0  0  0
   -3.6966   -0.4544   -0.8551 C   0  0  0  0  0  0  0  0  0  0  0  0
   -2.6796   -0.7300    1.3280 C   0  0  0  0  0  0  0  0  0  0  0  0
    1.1791   -0.2262   -0.7476 C   0  0  0  0  0  0  0  0  0  0  0  0
   -1.3003    0.3348   -1.5685 H   0  0  0  0  0  0  0  0  0  0  0  0
   -1.3283   -1.3261   -0.9739 H   0  0  0  0  0  0  0  0  0  0  0  0
    0.0097   -0.6991    0.9985 H   0  0  0  0  0  0  0  0  0  0  0  0
   -0.0400    0.9988    0.5442 H   0  0  0  0  0  0  0  0  0  0  0  0
    2.4541   -1.6989    0.8988 H   0  0  0  0  0  0  0  0  0  0  0  0
    4.3607   -0.1191   -0.6639 H   0  0  0  0  0  0  0  0  0  0  0  0
    2.6181    2.1104   -0.4773 H   0  0  0  0  0  0  0  0  0  0  0  0
    1.9861    1.7576    1.1308 H   0  0  0  0  0  0  0  0  0  0  0  0
    3.7083    1.5940    0.8129 H   0  0  0  0  0  0  0  0  0  0  0  0
   -2.6600    1.9943   -0.6631 H   0  0  0  0  0  0  0  0  0  0  0  0
   -3.7324    1.6410    0.7091 H   0  0  0  0  0  0  0  0  0  0  0  0
   -1.9884    1.8061    0.9718 H   0  0  0  0  0  0  0  0  0  0  0  0
   -3.6196   -1.5286   -0.9987 H   0  0  0  0  0  0  0  0  0  0  0  0
   -4.6498   -0.2114   -0.3939 H   0  0  0  0  0  0  0  0  0  0  0  0
   -3.6153    0.0515   -1.8134 H   0  0  0  0  0  0  0  0  0  0  0  0
   -1.9690   -0.3144    2.0354 H   0  0  0  0  0  0  0  0  0  0  0  0
   -3.6845   -0.6171    1.7252 H   0  0  0  0  0  0  0  0  0  0  0  0
   -2.4644   -1.7820    1.1598 H   0  0  0  0  0  0  0  0  0  0  0  0
    1.1235    0.4481   -1.6066 H   0  0  0  0  0  0  0  0  0  0  0  0
    1.1633   -1.2458   -1.1493 H   0  0  0  0  0  0  0  0  0  0  0  0
  1  2  1  6
  1  8  1  0
  1  9  1  0
  1 10  1  0
  2  3  1  0
  2 12  1  0
  2 13  1  0
  3 11  1  0
  3 14  1  0
  3 15  1  0
  4  5  1  1
  4  6  1  0
  4  7  1  0
  4 11  1  0
  5 16  1  0
  6 17  1  0
  7 18  1  0
  7 19  1  0
  7 20  1  0
  8 21  1  0
  8 22  1  0
  8 23  1  0
  9 24  1  0
  9 25  1  0
  9 26  1  0
 10 27  1  0
 10 28  1  0
 10 29  1  0
 11 30  1  0
 11 31  1  0
M  CHG  1   1   1
M  END
