
     RDKit          3D

 26 28  0  0  0  0  0  0  0  0999 V2000
   -1.0350   -0.0725   -3.3225 C   0  0  0  0  0  0  0  0  0  0  0  0
    0.2259   -0.0835   -2.7764 C   0  0  0  0  0  0  0  0  0  0  0  0
   -1.9850    0.0270   -1.1195 C   0  0  0  0  0  0  0  0  0  0  0  0
    0.4204   -0.0251   -1.3834 C   0  0  0  0  0  0  0  0  0  0  0  0
   -2.1515   -0.0092   -2.4833 C   0  0  0  0  0  0  0  0  0  0  0  0
   -0.7070    0.0117   -0.5294 C   0  0  0  0  0  0  0  0  0  0  0  0
    1.7536   -0.0151   -0.8187 C   0  0  0  0  0  0  0  0  0  0  0  0
    1.9029   -0.0152    0.5357 C   0  0  0  0  0  0  0  0  0  0  0  0
    2.8411   -0.0690   -1.6675 N   0  0  0  0  0  0  0  0  0  0  0  0
    0.7882   -0.0140    1.4210 C   0  0  0  0  0  0  0  0  0  0  0  0
    0.9855   -0.0202    2.8170 C   0  0  0  0  0  0  0  0  0  0  0  0
   -0.5273    0.0160    0.9087 C   0  0  0  0  0  0  0  0  0  0  0  0
   -0.0804    0.0033    3.6819 C   0  0  0  0  0  0  0  0  0  0  0  0
   -1.3871    0.0343    3.1771 C   0  0  0  0  0  0  0  0  0  0  0  0
   -1.6004    0.0403    1.8181 C   0  0  0  0  0  0  0  0  0  0  0  0
   -1.1602   -0.1182   -4.3961 H   0  0  0  0  0  0  0  0  0  0  0  0
    1.0747   -0.1525   -3.4431 H   0  0  0  0  0  0  0  0  0  0  0  0
   -2.8676    0.0647   -0.4958 H   0  0  0  0  0  0  0  0  0  0  0  0
   -3.1485    0.0032   -2.9042 H   0  0  0  0  0  0  0  0  0  0  0  0
    2.8996   -0.0048    0.9633 H   0  0  0  0  0  0  0  0  0  0  0  0
    3.7267    0.0897   -1.2117 H   0  0  0  0  0  0  0  0  0  0  0  0
    2.7753    0.4877   -2.5056 H   0  0  0  0  0  0  0  0  0  0  0  0
    1.9983   -0.0429    3.2020 H   0  0  0  0  0  0  0  0  0  0  0  0
    0.0863   -0.0021    4.7514 H   0  0  0  0  0  0  0  0  0  0  0  0
   -2.2298    0.0536    3.8554 H   0  0  0  0  0  0  0  0  0  0  0  0
   -2.6204    0.0638    1.4597 H   0  0  0  0  0  0  0  0  0  0  0  0
  1  2  2  0
  1  5  1  0
  1 16  1  0
  2  4  1  0
  2 17  1  0
  3  5  2  0
  3  6  1  0
  3 18  1  0
  4  6  2  0
  4  7  1  0
  5 19  1  0
  6 12  1  0
  7  8  2  0
  7  9  1  0
  8 10  1  0
  8 20  1  0
  9 21  1  0
  9 22  1  0
 10 11  1  0
 10 12  2  0
 11 13  2  0
 11 23  1  0
 12 15  1  0
 13 14  1  0
 13 24  1  0
 14 15  2  0
 14 25  1  0
 15 26  1  0
M  END
