
     RDKit          3D

 48 51  0  0  0  0  0  0  0  0999 V2000
    2.5612    2.3450    0.7193 C   0  0  0  0  0  0  0  0  0  0  0  0
    1.2202    2.9870    0.3850 C   0  0  0  0  0  0  0  0  0  0  0  0
    0.0985    1.9935    0.2989 C   0  0  0  0  0  0  0  0  0  0  0  0
   -1.2260    2.3950    0.2403 C   0  0  0  0  0  0  0  0  0  0  0  0
   -6.4064    0.6368   -0.3091 C   0  0  0  0  0  0  0  0  0  0  0  0
   -6.4017   -1.7490   -0.4277 C   0  0  0  0  0  0  0  0  0  0  0  0
    4.1744    0.4855   -0.0191 C   0  0  2  0  0  0  0  0  0  0  0  0
    5.2474    1.5070   -0.3661 C   0  0  0  0  0  0  0  0  0  0  0  0
    3.1955   -1.8007   -0.6861 C   0  0  2  0  0  0  0  0  0  0  0  0
    3.6033   -2.5891    0.4688 C   0  0  0  0  0  0  0  0  0  0  0  0
   -7.1084   -0.5520   -0.4359 C   0  0  0  0  0  0  0  0  0  0  0  0
   -5.0236    0.6535   -0.1746 C   0  0  0  0  0  0  0  0  0  0  0  0
   -5.0250   -1.7503   -0.2957 C   0  0  0  0  0  0  0  0  0  0  0  0
   -4.3127   -0.5500   -0.1682 C   0  0  0  0  0  0  0  0  0  0  0  0
    0.2973    0.6123    0.2396 C   0  0  0  0  0  0  0  0  0  0  0  0
   -1.9494    0.2730    0.0765 C   0  0  0  0  0  0  0  0  0  0  0  0
    4.2358   -0.7034   -0.9450 C   0  0  0  0  0  0  0  0  0  0  0  0
    1.7804   -1.2108   -0.5632 C   0  0  0  0  0  0  0  0  0  0  0  0
    2.7349    1.0516   -0.0672 C   0  0  1  0  0  0  0  0  0  0  0  0
    1.6825    0.0041    0.3677 C   0  0  1  0  0  0  0  0  0  0  0  0
    1.8148   -0.4052    1.8466 C   0  0  0  0  0  0  0  0  0  0  0  0
    3.9508   -3.2341    1.3561 N   0  0  0  0  0  0  0  0  0  0  0  0
   -2.2518    1.5644    0.1313 N   0  0  0  0  0  0  0  0  0  0  0  0
   -0.7170   -0.2301    0.1350 N   0  0  0  0  0  0  0  0  0  0  0  0
   -2.9335   -0.6637   -0.0458 N   0  0  0  0  0  0  0  0  0  0  0  0
    5.0070   -0.8056   -1.8635 O   0  0  0  0  0  0  0  0  0  0  0  0
    3.3486    3.0580    0.4785 H   0  0  0  0  0  0  0  0  0  0  0  0
    2.6440    2.1506    1.7912 H   0  0  0  0  0  0  0  0  0  0  0  0
    0.9798    3.7583    1.1202 H   0  0  0  0  0  0  0  0  0  0  0  0
    1.3052    3.5039   -0.5762 H   0  0  0  0  0  0  0  0  0  0  0  0
   -1.4718    3.4523    0.2860 H   0  0  0  0  0  0  0  0  0  0  0  0
   -6.9239   -2.6920   -0.5266 H   0  0  0  0  0  0  0  0  0  0  0  0
    4.3692    0.1120    0.9943 H   0  0  0  0  0  0  0  0  0  0  0  0
    5.3161    2.2764    0.4000 H   0  0  0  0  0  0  0  0  0  0  0  0
    6.2273    1.0365   -0.4336 H   0  0  0  0  0  0  0  0  0  0  0  0
    5.0434    1.9966   -1.3191 H   0  0  0  0  0  0  0  0  0  0  0  0
    3.2135   -2.4852   -1.5384 H   0  0  0  0  0  0  0  0  0  0  0  0
   -8.1852   -0.5486   -0.5378 H   0  0  0  0  0  0  0  0  0  0  0  0
   -4.5037    1.5918   -0.0740 H   0  0  0  0  0  0  0  0  0  0  0  0
   -4.4882   -2.6923   -0.2912 H   0  0  0  0  0  0  0  0  0  0  0  0
    1.4890   -0.9112   -1.5725 H   0  0  0  0  0  0  0  0  0  0  0  0
    1.0899   -1.9967   -0.2606 H   0  0  0  0  0  0  0  0  0  0  0  0
    2.5302    1.2889   -1.1222 H   0  0  0  0  0  0  0  0  0  0  0  0
    2.8225   -0.7112    2.1210 H   0  0  0  0  0  0  0  0  0  0  0  0
    1.5400    0.4107    2.5146 H   0  0  0  0  0  0  0  0  0  0  0  0
    1.1447   -1.2375    2.0633 H   0  0  0  0  0  0  0  0  0  0  0  0
   -2.5755   -1.6068   -0.0658 H   0  0  0  0  0  0  0  0  0  0  0  0
   -6.9389    1.5797   -0.3132 H   0  0  0  0  0  0  0  0  0  0  0  0
 22 10  3  0
 10  9  1  0
  5 12  2  0
  5 11  1  0
 12 14  1  0
  9 18  1  0
  9 17  1  0
 11  6  2  0
 18 20  1  0
 14 25  1  0
 14 13  2  0
 25 16  1  0
 26 17  2  0
 17  7  1  0
 24 16  2  0
 24 15  1  0
 16 23  1  0
  6 13  1  0
 20 15  1  0
 20 21  1  1
 20 19  1  0
 15  3  2  0
  7 19  1  0
  7  8  1  0
 23  4  2  0
 19  1  1  0
  3  4  1  0
  3  2  1  0
  1  2  1  0
  1 27  1  0
  1 28  1  0
  2 29  1  0
  2 30  1  0
  4 31  1  0
  5 48  1  0
  6 32  1  0
  7 33  1  1
  8 34  1  0
  8 35  1  0
  8 36  1  0
  9 37  1  6
 11 38  1  0
 12 39  1  0
 13 40  1  0
 18 41  1  0
 18 42  1  0
 19 43  1  6
 21 44  1  0
 21 45  1  0
 21 46  1  0
 25 47  1  0
M  END
