
     RDKit          3D

 47 50  0  0  0  0  0  0  0  0999 V2000
   -1.1718   -0.1660    2.2024 C   0  0  0  0  0  0  0  0  0  0  0  0
   -2.5617    3.1023   -1.6085 C   0  0  0  0  0  0  0  0  0  0  0  0
   -1.7865    2.1199   -2.2129 C   0  0  0  0  0  0  0  0  0  0  0  0
   -2.2198    2.0198    0.5186 C   0  0  0  0  0  0  0  0  0  0  0  0
   -2.7754    3.0445   -0.2394 C   0  0  0  0  0  0  0  0  0  0  0  0
   -1.2465    1.0945   -1.4518 C   0  0  0  0  0  0  0  0  0  0  0  0
   -1.2735   -1.4229    0.0462 C   0  0  0  0  0  0  0  0  0  0  0  0
   -2.6004   -0.5551    2.5662 C   0  0  0  0  0  0  0  0  0  0  0  0
   -0.8184   -0.1422    0.6927 C   0  0  2  0  0  0  0  0  0  0  0  0
    2.9792   -1.0468    0.0132 C   0  0  0  0  0  0  0  0  0  0  0  0
   -0.4058   -2.4320   -0.3798 C   0  0  0  0  0  0  0  0  0  0  0  0
    3.4994    0.3643   -0.2418 C   0  0  1  0  0  0  0  0  0  0  0  0
    3.1081    0.8443   -1.6411 C   0  0  0  0  0  0  0  0  0  0  0  0
    0.7606    2.1144    1.4060 O   0  0  0  0  0  0  0  0  0  0  0  0
    2.8818    1.2539    0.8302 C   0  0  0  0  0  0  0  0  0  0  0  0
    5.0204    0.3763   -0.1205 C   0  0  0  0  0  0  0  0  0  0  0  0
    0.9592   -2.2934   -0.2958 N   0  0  0  0  0  0  0  0  0  0  0  0
   -1.0210   -3.4707   -0.9043 N   0  0  0  0  0  0  0  0  0  0  0  0
   -2.3121   -3.1338   -0.8265 N   0  0  0  0  0  0  0  0  0  0  0  0
   -2.5153   -1.9274   -0.2759 C   0  0  0  0  0  0  0  0  0  0  0  0
    0.7121   -0.0686    0.5469 C   0  0  0  0  0  0  0  0  0  0  0  0
   -1.4518    1.0244   -0.0738 C   0  0  0  0  0  0  0  0  0  0  0  0
   -0.9309    0.8043    2.6355 H   0  0  0  0  0  0  0  0  0  0  0  0
   -0.4936   -0.8808    2.6751 H   0  0  0  0  0  0  0  0  0  0  0  0
   -2.9914    3.9024   -2.1975 H   0  0  0  0  0  0  0  0  0  0  0  0
   -1.6031    2.1507   -3.2797 H   0  0  0  0  0  0  0  0  0  0  0  0
   -2.3888    2.0196    1.5866 H   0  0  0  0  0  0  0  0  0  0  0  0
   -3.3708    3.8054    0.2496 H   0  0  0  0  0  0  0  0  0  0  0  0
   -0.6498    0.3336   -1.9414 H   0  0  0  0  0  0  0  0  0  0  0  0
   -3.3508    0.0132    2.0163 H   0  0  0  0  0  0  0  0  0  0  0  0
   -2.7899   -1.6114    2.3810 H   0  0  0  0  0  0  0  0  0  0  0  0
   -2.7715   -0.3770    3.6286 H   0  0  0  0  0  0  0  0  0  0  0  0
    3.3297   -1.7280   -0.7680 H   0  0  0  0  0  0  0  0  0  0  0  0
    3.3905   -1.4247    0.9571 H   0  0  0  0  0  0  0  0  0  0  0  0
    2.0282    0.8489   -1.7969 H   0  0  0  0  0  0  0  0  0  0  0  0
    3.4687    1.8606   -1.8093 H   0  0  0  0  0  0  0  0  0  0  0  0
    3.5534    0.2071   -2.4080 H   0  0  0  0  0  0  0  0  0  0  0  0
    3.1489    2.3027    0.6765 H   0  0  0  0  0  0  0  0  0  0  0  0
    3.2925    0.9710    1.8085 H   0  0  0  0  0  0  0  0  0  0  0  0
    5.4759   -0.2916   -0.8547 H   0  0  0  0  0  0  0  0  0  0  0  0
    5.4159    1.3790   -0.2951 H   0  0  0  0  0  0  0  0  0  0  0  0
    5.3456    0.0576    0.8719 H   0  0  0  0  0  0  0  0  0  0  0  0
   -3.5067   -1.5202   -0.1621 H   0  0  0  0  0  0  0  0  0  0  0  0
    1.5579   -3.0037   -0.6856 H   0  0  0  0  0  0  0  0  0  0  0  0
   -3.0146   -3.7732   -1.1596 H   0  0  0  0  0  0  0  0  0  0  0  0
    1.3744    1.1591    0.9452 C   0  0  0  0  0  0  0  0  0  0  0  0
    1.4830   -1.1089    0.0956 C   0  0  0  0  0  0  0  0  0  0  0  0
  8  1  1  0
 12 16  1  6
 15 12  1  0
 15 46  1  0
 12 10  1  0
 12 13  1  0
 46 14  2  0
 46 21  1  0
  9  1  1  1
 10 47  1  0
 21 47  2  0
 21  9  1  0
 47 17  1  0
  9  7  1  0
  9 22  1  0
 17 11  1  0
  7 11  1  0
  7 20  2  0
 11 18  2  0
  4 22  2  0
  4  5  1  0
 20 19  1  0
 22  6  1  0
 18 19  1  0
  5  2  2  0
  6  3  2  0
  2  3  1  0
  1 23  1  0
  1 24  1  0
  2 25  1  0
  3 26  1  0
  4 27  1  0
  5 28  1  0
  6 29  1  0
  8 30  1  0
  8 31  1  0
  8 32  1  0
 10 33  1  0
 10 34  1  0
 13 35  1  0
 13 36  1  0
 13 37  1  0
 15 38  1  0
 15 39  1  0
 16 40  1  0
 16 41  1  0
 16 42  1  0
 20 43  1  0
 17 44  1  0
 19 45  1  0
M  END
