
     RDKit          3D

 64 67  0  0  0  0  0  0  0  0999 V2000
    0.2830   -1.6409   -0.4840 C   0  0  0  0  0  0  0  0  0  0  0  0
    3.8665   -1.7658    0.6811 C   0  0  0  0  0  0  0  0  0  0  0  0
    5.8433   -0.2295    0.4217 C   0  0  2  0  0  0  0  0  0  0  0  0
    7.4451    1.2935    1.6131 C   0  0  0  0  0  0  0  0  0  0  0  0
    8.0614    0.4416   -0.5406 C   0  0  0  0  0  0  0  0  0  0  0  0
    6.6214    0.0712   -0.8595 C   0  0  0  0  0  0  0  0  0  0  0  0
    3.5552    0.2517   -0.5528 C   0  0  0  0  0  0  0  0  0  0  0  0
   -0.8004   -0.7925   -0.2148 C   0  0  0  0  0  0  0  0  0  0  0  0
   -4.2736   -0.8991    0.5969 C   0  0  0  0  0  0  0  0  0  0  0  0
   -3.9927    3.0538   -2.4740 C   0  0  0  0  0  0  0  0  0  0  0  0
   -4.6549    1.4459   -0.8655 C   0  0  0  0  0  0  0  0  0  0  0  0
   -3.4885    0.7039   -1.0309 C   0  0  0  0  0  0  0  0  0  0  0  0
   -3.3040   -0.4639   -0.2986 C   0  0  0  0  0  0  0  0  0  0  0  0
   -2.0827   -1.2751   -0.5047 C   0  0  0  0  0  0  0  0  0  0  0  0
   -2.2168   -2.5685   -0.9980 C   0  0  0  0  0  0  0  0  0  0  0  0
    0.0170   -2.9129   -0.9876 C   0  0  0  0  0  0  0  0  0  0  0  0
    1.6905   -1.2592   -0.2438 C   0  0  0  0  0  0  0  0  0  0  0  0
    2.5348   -2.0992    0.4793 C   0  0  0  0  0  0  0  0  0  0  0  0
    4.4023   -0.5869    0.1717 C   0  0  0  0  0  0  0  0  0  0  0  0
    5.9812    0.9567    1.3793 C   0  0  0  0  0  0  0  0  0  0  0  0
    2.2261   -0.0785   -0.7606 C   0  0  0  0  0  0  0  0  0  0  0  0
   -0.6121    0.5556    0.4155 C   0  0  0  0  0  0  0  0  0  0  0  0
   -5.4389   -0.1539    0.7707 C   0  0  0  0  0  0  0  0  0  0  0  0
   -6.2852   -1.6503    2.4008 C   0  0  0  0  0  0  0  0  0  0  0  0
   -5.6371    1.0144    0.0312 C   0  0  0  0  0  0  0  0  0  0  0  0
   -6.7452    2.7338    1.1627 C   0  0  0  0  0  0  0  0  0  0  0  0
   -1.1967   -3.3800   -1.2337 N   0  0  0  0  0  0  0  0  0  0  0  0
    8.1316    1.5714    0.3663 N   0  0  0  0  0  0  0  0  0  0  0  0
   -6.4282   -0.4809    1.6183 O   0  0  0  0  0  0  0  0  0  0  0  0
   -6.7903    1.7192    0.1678 O   0  0  0  0  0  0  0  0  0  0  0  0
    4.4985   -2.4346    1.2538 H   0  0  0  0  0  0  0  0  0  0  0  0
    6.3192   -1.0935    0.9023 H   0  0  0  0  0  0  0  0  0  0  0  0
    7.5215    2.1734    2.2571 H   0  0  0  0  0  0  0  0  0  0  0  0
    7.9246    0.4610    2.1614 H   0  0  0  0  0  0  0  0  0  0  0  0
    8.5804   -0.4426   -0.1252 H   0  0  0  0  0  0  0  0  0  0  0  0
    8.5846    0.7032   -1.4640 H   0  0  0  0  0  0  0  0  0  0  0  0
    6.6066   -0.7955   -1.5241 H   0  0  0  0  0  0  0  0  0  0  0  0
    6.1501    0.8979   -1.3993 H   0  0  0  0  0  0  0  0  0  0  0  0
    3.9328    1.1780   -0.9696 H   0  0  0  0  0  0  0  0  0  0  0  0
   -4.1023   -1.8056    1.1616 H   0  0  0  0  0  0  0  0  0  0  0  0
   -4.4092    3.9672   -2.8909 H   0  0  0  0  0  0  0  0  0  0  0  0
   -3.0296    3.2861   -2.0126 H   0  0  0  0  0  0  0  0  0  0  0  0
   -3.8319    2.3379   -3.2840 H   0  0  0  0  0  0  0  0  0  0  0  0
   -2.7245    1.0139   -1.7306 H   0  0  0  0  0  0  0  0  0  0  0  0
   -3.2071   -2.9550   -1.2171 H   0  0  0  0  0  0  0  0  0  0  0  0
    0.8442   -3.5810   -1.2067 H   0  0  0  0  0  0  0  0  0  0  0  0
    2.1485   -3.0182    0.9034 H   0  0  0  0  0  0  0  0  0  0  0  0
    5.4681    1.8304    0.9650 H   0  0  0  0  0  0  0  0  0  0  0  0
    5.5052    0.7275    2.3354 H   0  0  0  0  0  0  0  0  0  0  0  0
   10.1085    1.1881    1.0750 H   0  0  0  0  0  0  0  0  0  0  0  0
    9.9807    2.2394   -0.3434 H   0  0  0  0  0  0  0  0  0  0  0  0
    9.5283    2.8519    1.2463 H   0  0  0  0  0  0  0  0  0  0  0  0
    1.6026    0.5860   -1.3455 H   0  0  0  0  0  0  0  0  0  0  0  0
   -0.5143    1.3426   -0.3343 H   0  0  0  0  0  0  0  0  0  0  0  0
   -1.4648    0.8157    1.0404 H   0  0  0  0  0  0  0  0  0  0  0  0
    0.2860    0.5808    1.0298 H   0  0  0  0  0  0  0  0  0  0  0  0
   -6.2208   -2.5499    1.7835 H   0  0  0  0  0  0  0  0  0  0  0  0
   -5.4067   -1.6036    3.0488 H   0  0  0  0  0  0  0  0  0  0  0  0
   -7.1757   -1.7149    3.0209 H   0  0  0  0  0  0  0  0  0  0  0  0
   -6.5752    2.3173    2.1584 H   0  0  0  0  0  0  0  0  0  0  0  0
   -5.9689    3.4736    0.9531 H   0  0  0  0  0  0  0  0  0  0  0  0
   -7.7122    3.2336    1.1552 H   0  0  0  0  0  0  0  0  0  0  0  0
   -4.9329    2.5802   -1.5297 O   0  0  0  0  0  0  0  0  0  0  0  0
    9.4994    1.9734    0.5993 C   0  0  0  0  0  0  0  0  0  0  0  0
 27 15  2  0
 27 16  1  0
 24 29  1  0
 15 14  1  0
 16  1  2  0
 29 23  1  0
  9 23  2  0
  9 13  1  0
 14 13  1  0
 14  8  2  0
 26 30  1  0
 23 25  1  0
  1  8  1  0
  1 17  1  0
 13 12  2  0
  8 22  1  0
 17 18  1  0
 17 21  2  0
 25 30  1  0
 25 11  2  0
 18  2  2  0
 12 11  1  0
 20  4  1  0
 20  3  1  0
 21  7  1  0
 11 63  1  0
  2 19  1  0
  4 28  1  0
  7 19  2  0
 19  3  1  0
 63 10  1  0
  3  6  1  0
 28  5  1  0
 28 64  1  0
  5  6  1  0
  2 31  1  0
  3 32  1  1
  4 33  1  0
  4 34  1  0
  5 35  1  0
  5 36  1  0
  6 37  1  0
  6 38  1  0
  7 39  1  0
  9 40  1  0
 10 41  1  0
 10 42  1  0
 10 43  1  0
 12 44  1  0
 15 45  1  0
 16 46  1  0
 18 47  1  0
 20 48  1  0
 20 49  1  0
 64 50  1  0
 64 51  1  0
 64 52  1  0
 21 53  1  0
 22 54  1  0
 22 55  1  0
 22 56  1  0
 24 57  1  0
 24 58  1  0
 24 59  1  0
 26 60  1  0
 26 61  1  0
 26 62  1  0
M  END
