
     RDKit          3D

 48 51  0  0  0  0  0  0  0  0999 V2000
   -2.7703    0.5277    1.1460 N   0  0  0  0  0  0  0  0  0  0  0  0
   -1.6526    0.2677    2.0381 C   0  0  0  0  0  0  0  0  0  0  0  0
   -0.3583    0.1504    1.2349 C   0  0  0  0  0  0  0  0  0  0  0  0
   -0.1051    1.3765    0.3327 C   0  0  2  0  0  0  0  0  0  0  0  0
    0.3125    2.4912    1.1723 N   0  0  0  0  0  0  0  0  0  0  0  0
   -1.3710    1.6774   -0.4922 C   0  0  0  0  0  0  0  0  0  0  0  0
   -2.5852    1.7691    0.4227 C   0  0  0  0  0  0  0  0  0  0  0  0
    1.0466    0.9868   -0.6067 C   0  0  0  0  0  0  0  0  0  0  0  0
    0.8666    0.3041   -1.6056 O   0  0  0  0  0  0  0  0  0  0  0  0
    2.2560    1.4031   -0.2134 N   0  0  0  0  0  0  0  0  0  0  0  0
    3.4637    1.0177   -0.8916 C   0  0  0  0  0  0  0  0  0  0  0  0
    3.8495   -0.4286   -0.6871 C   0  0  0  0  0  0  0  0  0  0  0  0
    3.5273   -1.1154    0.4785 C   0  0  0  0  0  0  0  0  0  0  0  0
    3.9190   -2.4332    0.6656 C   0  0  0  0  0  0  0  0  0  0  0  0
    4.6492   -3.0684   -0.3261 C   0  0  0  0  0  0  0  0  0  0  0  0
    5.1423   -4.7169   -0.1025 Cl  0  0  0  0  0  0  0  0  0  0  0  0
    4.9880   -2.4068   -1.4956 C   0  0  0  0  0  0  0  0  0  0  0  0
    4.5823   -1.0915   -1.6661 C   0  0  0  0  0  0  0  0  0  0  0  0
   -3.5392   -0.4918    0.6903 C   0  0  0  0  0  0  0  0  0  0  0  0
   -3.5362   -1.6129    1.4206 N   0  0  0  0  0  0  0  0  0  0  0  0
   -4.3059   -2.6359    1.0741 C   0  0  0  0  0  0  0  0  0  0  0  0
   -5.1229   -2.7199    0.0465 N   0  0  0  0  0  0  0  0  0  0  0  0
   -5.1104   -1.6142   -0.7011 C   0  0  0  0  0  0  0  0  0  0  0  0
   -5.8175   -1.4428   -1.8397 N   0  0  0  0  0  0  0  0  0  0  0  0
   -5.5358   -0.2129   -2.3692 C   0  0  0  0  0  0  0  0  0  0  0  0
   -4.6425    0.4330   -1.5695 C   0  0  0  0  0  0  0  0  0  0  0  0
   -4.3527   -0.4478   -0.4727 C   0  0  0  0  0  0  0  0  0  0  0  0
   -1.5969    1.0824    2.7655 H   0  0  0  0  0  0  0  0  0  0  0  0
   -1.8254   -0.6443    2.6000 H   0  0  0  0  0  0  0  0  0  0  0  0
   -3.4856    2.0414   -0.1154 H   0  0  0  0  0  0  0  0  0  0  0  0
   -2.4408    2.5605    1.1633 H   0  0  0  0  0  0  0  0  0  0  0  0
    0.4838    0.0243    1.9212 H   0  0  0  0  0  0  0  0  0  0  0  0
   -0.4112   -0.7503    0.6185 H   0  0  0  0  0  0  0  0  0  0  0  0
    0.1963    3.3734    0.6881 H   0  0  0  0  0  0  0  0  0  0  0  0
   -0.2424    2.5502    2.0155 H   0  0  0  0  0  0  0  0  0  0  0  0
   -1.2436    2.6152   -1.0403 H   0  0  0  0  0  0  0  0  0  0  0  0
   -1.5364    0.8919   -1.2320 H   0  0  0  0  0  0  0  0  0  0  0  0
    2.2879    1.9660    0.6244 H   0  0  0  0  0  0  0  0  0  0  0  0
    3.3730    1.2183   -1.9611 H   0  0  0  0  0  0  0  0  0  0  0  0
    4.2631    1.6617   -0.5211 H   0  0  0  0  0  0  0  0  0  0  0  0
    2.9574   -0.6257    1.2585 H   0  0  0  0  0  0  0  0  0  0  0  0
    4.8418   -0.5796   -2.5852 H   0  0  0  0  0  0  0  0  0  0  0  0
    3.6562   -2.9551    1.5759 H   0  0  0  0  0  0  0  0  0  0  0  0
    5.5534   -2.9086   -2.2690 H   0  0  0  0  0  0  0  0  0  0  0  0
   -4.2494   -3.5055    1.7214 H   0  0  0  0  0  0  0  0  0  0  0  0
   -6.4422   -2.1244   -2.2394 H   0  0  0  0  0  0  0  0  0  0  0  0
   -5.9954    0.1106   -3.2882 H   0  0  0  0  0  0  0  0  0  0  0  0
   -4.2529    1.4141   -1.7774 H   0  0  0  0  0  0  0  0  0  0  0  0
  1  2  1  0
  1  7  1  0
  1 19  1  0
  2  3  1  0
  3  4  1  0
  4  5  1  0
  4  6  1  0
  4  8  1  6
  6  7  1  0
  8  9  2  0
  8 10  1  0
 10 11  1  0
 11 12  1  0
 12 13  2  0
 12 18  1  0
 13 14  1  0
 14 15  2  0
 15 16  1  0
 15 17  1  0
 17 18  2  0
 19 20  2  0
 19 27  1  0
 20 21  1  0
 21 22  2  0
 22 23  1  0
 23 24  1  0
 23 27  2  0
 24 25  1  0
 25 26  2  0
 26 27  1  0
  2 28  1  0
  2 29  1  0
  7 30  1  0
  7 31  1  0
  3 32  1  0
  3 33  1  0
  5 34  1  0
  5 35  1  0
  6 36  1  0
  6 37  1  0
 10 38  1  0
 11 39  1  0
 11 40  1  0
 13 41  1  0
 18 42  1  0
 14 43  1  0
 17 44  1  0
 21 45  1  0
 24 46  1  0
 25 47  1  0
 26 48  1  0
M  END
