
     RDKit          3D

 69 70  0  0  0  0  0  0  0  0999 V2000
   -0.1543    0.1696   -3.2291 C   0  0  1  0  0  0  0  0  0  0  0  0
   -0.1134   -1.3560   -3.3504 C   0  0  1  0  0  0  0  0  0  0  0  0
    0.8763   -1.9342   -2.3460 C   0  0  2  0  0  0  0  0  0  0  0  0
    2.2376   -1.2673   -2.5120 C   0  0  1  0  0  0  0  0  0  0  0  0
    2.0798    0.2466   -2.3954 C   0  0  1  0  0  0  0  0  0  0  0  0
    3.3667    0.9946   -2.6672 C   0  0  0  0  0  0  0  0  0  0  0  0
   -0.7228    0.5017   -2.0005 O   0  0  0  0  0  0  0  0  0  0  0  0
   -1.3697   -1.9527   -3.1549 O   0  0  0  0  0  0  0  0  0  0  0  0
    1.0631   -3.3196   -2.5335 O   0  0  0  0  0  0  0  0  0  0  0  0
    3.1439   -1.6865   -1.5227 O   0  0  0  0  0  0  0  0  0  0  0  0
    1.1330    0.7033   -3.3523 O   0  0  0  0  0  0  0  0  0  0  0  0
    3.1285    2.3663   -2.4472 O   0  0  0  0  0  0  0  0  0  0  0  0
   -1.1725    2.8490   -2.6307 C   0  0  0  0  0  0  0  0  0  0  0  0
   -1.6121    1.5990   -1.8707 C   0  0  1  0  0  0  0  0  0  0  0  0
   -3.0412    1.1400   -2.1825 C   0  0  2  0  0  0  0  0  0  0  0  0
   -3.3655    0.3156   -0.9384 C   0  0  1  0  0  0  0  0  0  0  0  0
   -2.6101    1.0683    0.1615 C   0  0  2  0  0  0  0  0  0  0  0  0
    0.0707    3.3483   -2.2262 O   0  0  0  0  0  0  0  0  0  0  0  0
   -3.1085    0.4397   -3.3989 O   0  0  0  0  0  0  0  0  0  0  0  0
   -4.7289    0.2334   -0.6153 O   0  0  0  0  0  0  0  0  0  0  0  0
   -1.6511    1.8875   -0.5156 O   0  0  0  0  0  0  0  0  0  0  0  0
   -1.3229    0.8128    2.3794 C   0  0  1  0  0  0  0  0  0  0  0  0
   -0.7483   -0.2307    3.3350 C   0  0  0  0  0  0  0  0  0  0  0  0
   -0.1418    0.3599    4.6007 C   0  0  0  0  0  0  0  0  0  0  0  0
    0.3349   -0.7046    5.5820 C   0  0  0  0  0  0  0  0  0  0  0  0
    1.0045   -0.1193    6.8189 C   0  0  0  0  0  0  0  0  0  0  0  0
    1.4491   -1.1755    7.8233 C   0  0  0  0  0  0  0  0  0  0  0  0
    2.1569   -0.5902    9.0393 C   0  0  0  0  0  0  0  0  0  0  0  0
    2.5818   -1.6507   10.0459 C   0  0  0  0  0  0  0  0  0  0  0  0
   -0.3570    1.7839    2.0219 O   0  0  0  0  0  0  0  0  0  0  0  0
   -1.9563    0.1381    1.1671 C   0  0  0  0  0  0  0  0  0  0  0  0
   -0.7137    0.5854   -4.0714 H   0  0  0  0  0  0  0  0  0  0  0  0
    0.2614   -1.5723   -4.3626 H   0  0  0  0  0  0  0  0  0  0  0  0
    0.5125   -1.7288   -1.3282 H   0  0  0  0  0  0  0  0  0  0  0  0
    2.6178   -1.5003   -3.5202 H   0  0  0  0  0  0  0  0  0  0  0  0
    1.7397    0.4884   -1.3788 H   0  0  0  0  0  0  0  0  0  0  0  0
    4.1468    0.6096   -2.0022 H   0  0  0  0  0  0  0  0  0  0  0  0
    3.6901    0.7964   -3.6975 H   0  0  0  0  0  0  0  0  0  0  0  0
   -2.0673   -1.3113   -3.3528 H   0  0  0  0  0  0  0  0  0  0  0  0
    0.2910   -3.7818   -2.1938 H   0  0  0  0  0  0  0  0  0  0  0  0
    3.2117   -2.6460   -1.5690 H   0  0  0  0  0  0  0  0  0  0  0  0
    3.8867    2.8631   -2.7670 H   0  0  0  0  0  0  0  0  0  0  0  0
   -1.2186    2.6645   -3.7111 H   0  0  0  0  0  0  0  0  0  0  0  0
   -1.9174    3.6221   -2.4265 H   0  0  0  0  0  0  0  0  0  0  0  0
   -3.6945    2.0234   -2.2032 H   0  0  0  0  0  0  0  0  0  0  0  0
   -2.9340   -0.6861   -1.0698 H   0  0  0  0  0  0  0  0  0  0  0  0
   -3.3092    1.7383    0.6773 H   0  0  0  0  0  0  0  0  0  0  0  0
    0.7728    2.7805   -2.5657 H   0  0  0  0  0  0  0  0  0  0  0  0
   -4.0314    0.3302   -3.6501 H   0  0  0  0  0  0  0  0  0  0  0  0
   -5.1206   -0.4921   -1.1099 H   0  0  0  0  0  0  0  0  0  0  0  0
   -2.1100    1.3618    2.9128 H   0  0  0  0  0  0  0  0  0  0  0  0
    0.0050   -0.8304    2.8095 H   0  0  0  0  0  0  0  0  0  0  0  0
   -1.5526   -0.9226    3.6061 H   0  0  0  0  0  0  0  0  0  0  0  0
   -0.8820    0.9981    5.0971 H   0  0  0  0  0  0  0  0  0  0  0  0
    0.6960    1.0115    4.3377 H   0  0  0  0  0  0  0  0  0  0  0  0
    1.0355   -1.3791    5.0769 H   0  0  0  0  0  0  0  0  0  0  0  0
   -0.5158   -1.3241    5.8867 H   0  0  0  0  0  0  0  0  0  0  0  0
    0.3169    0.5787    7.3096 H   0  0  0  0  0  0  0  0  0  0  0  0
    1.8715    0.4756    6.5105 H   0  0  0  0  0  0  0  0  0  0  0  0
    2.1150   -1.8913    7.3283 H   0  0  0  0  0  0  0  0  0  0  0  0
    0.5771   -1.7509    8.1539 H   0  0  0  0  0  0  0  0  0  0  0  0
    1.4991    0.1351    9.5281 H   0  0  0  0  0  0  0  0  0  0  0  0
    3.0355   -0.0275    8.7083 H   0  0  0  0  0  0  0  0  0  0  0  0
    3.1072   -1.2113   10.8947 H   0  0  0  0  0  0  0  0  0  0  0  0
    1.7183   -2.1924   10.4366 H   0  0  0  0  0  0  0  0  0  0  0  0
    3.2499   -2.3833    9.5887 H   0  0  0  0  0  0  0  0  0  0  0  0
    0.0949    1.4913    1.2249 H   0  0  0  0  0  0  0  0  0  0  0  0
   -1.2167   -0.4867    0.6506 H   0  0  0  0  0  0  0  0  0  0  0  0
   -2.7288   -0.5449    1.5333 H   0  0  0  0  0  0  0  0  0  0  0  0
  1  2  1  0
  1  7  1  0
  1 11  1  0
  1 32  1  6
  2  3  1  0
  2  8  1  0
  2 33  1  6
  3  4  1  0
  3  9  1  0
  3 34  1  1
  4  5  1  0
  4 10  1  0
  4 35  1  6
  5  6  1  0
  5 11  1  0
  5 36  1  1
  6 12  1  0
  6 37  1  0
  6 38  1  0
 14  7  1  1
  8 39  1  0
  9 40  1  0
 10 41  1  0
 12 42  1  0
 13 14  1  0
 13 18  1  0
 13 43  1  0
 13 44  1  0
 14 15  1  0
 14 21  1  0
 15 16  1  0
 15 19  1  0
 15 45  1  6
 16 17  1  0
 16 20  1  0
 16 46  1  6
 17 21  1  0
 17 31  1  0
 17 47  1  1
 18 48  1  0
 19 49  1  0
 20 50  1  0
 22 23  1  0
 22 30  1  0
 22 31  1  0
 22 51  1  1
 23 24  1  0
 23 52  1  0
 23 53  1  0
 24 25  1  0
 24 54  1  0
 24 55  1  0
 25 26  1  0
 25 56  1  0
 25 57  1  0
 26 27  1  0
 26 58  1  0
 26 59  1  0
 27 28  1  0
 27 60  1  0
 27 61  1  0
 28 29  1  0
 28 62  1  0
 28 63  1  0
 29 64  1  0
 29 65  1  0
 29 66  1  0
 30 67  1  0
 31 68  1  0
 31 69  1  0
M  END
