
     RDKit          3D

 38 42  0  0  0  0  0  0  0  0999 V2000
   -5.5957    0.4049    0.7256 C   0  0  0  0  0  0  0  0  0  0  0  0
   -6.3051   -0.6095    0.3006 N   0  0  0  0  0  0  0  0  0  0  0  0
   -5.4912   -1.3885   -0.4183 N   0  0  0  0  0  0  0  0  0  0  0  0
   -4.2380   -0.8927   -0.4742 C   0  0  0  0  0  0  0  0  0  0  0  0
   -3.1884   -1.4103   -1.1033 N   0  0  0  0  0  0  0  0  0  0  0  0
   -2.0793   -0.7116   -0.9843 C   0  0  0  0  0  0  0  0  0  0  0  0
   -1.9474    0.4976   -0.2593 C   0  0  0  0  0  0  0  0  0  0  0  0
   -3.0648    1.0143    0.3759 C   0  0  0  0  0  0  0  0  0  0  0  0
   -4.2548    0.2993    0.2698 C   0  0  0  0  0  0  0  0  0  0  0  0
   -0.6424    1.1795   -0.1955 C   0  0  0  0  0  0  0  0  0  0  0  0
   -0.5767    2.5939   -0.2418 C   0  0  0  0  0  0  0  0  0  0  0  0
    0.6230    3.2434   -0.2069 C   0  0  0  0  0  0  0  0  0  0  0  0
    1.8344    2.5215   -0.1179 C   0  0  0  0  0  0  0  0  0  0  0  0
    2.9954    3.2162   -0.1176 N   0  0  0  0  0  0  0  0  0  0  0  0
    4.1117    2.5433   -0.0517 C   0  0  0  0  0  0  0  0  0  0  0  0
    4.1774    1.1396    0.0385 C   0  0  0  0  0  0  0  0  0  0  0  0
    3.0187    0.4084    0.0611 C   0  0  0  0  0  0  0  0  0  0  0  0
    3.0813   -1.0615    0.1931 C   0  0  0  0  0  0  0  0  0  0  0  0
    3.7915   -1.8276   -0.7248 C   0  0  0  0  0  0  0  0  0  0  0  0
    3.8519   -3.2015   -0.5464 C   0  0  0  0  0  0  0  0  0  0  0  0
    3.2696   -3.8365    0.4632 N   0  0  0  0  0  0  0  0  0  0  0  0
    2.5973   -3.1022    1.3422 C   0  0  0  0  0  0  0  0  0  0  0  0
    2.4715   -1.7249    1.2540 C   0  0  0  0  0  0  0  0  0  0  0  0
    1.7827    1.1060   -0.0415 C   0  0  0  0  0  0  0  0  0  0  0  0
    0.5269    0.4636   -0.0938 C   0  0  0  0  0  0  0  0  0  0  0  0
   -6.0440    1.1752    1.3338 H   0  0  0  0  0  0  0  0  0  0  0  0
   -5.8422   -2.2311   -0.8451 H   0  0  0  0  0  0  0  0  0  0  0  0
   -1.2152   -1.1039   -1.5100 H   0  0  0  0  0  0  0  0  0  0  0  0
   -3.0117    1.9308    0.9506 H   0  0  0  0  0  0  0  0  0  0  0  0
   -1.4893    3.1690   -0.3345 H   0  0  0  0  0  0  0  0  0  0  0  0
    0.6706    4.3230   -0.2632 H   0  0  0  0  0  0  0  0  0  0  0  0
    5.0323    3.1169   -0.0581 H   0  0  0  0  0  0  0  0  0  0  0  0
    5.1424    0.6561    0.1143 H   0  0  0  0  0  0  0  0  0  0  0  0
    4.2813   -1.3681   -1.5729 H   0  0  0  0  0  0  0  0  0  0  0  0
    4.3963   -3.8132   -1.2569 H   0  0  0  0  0  0  0  0  0  0  0  0
    2.1324   -3.6330    2.1652 H   0  0  0  0  0  0  0  0  0  0  0  0
    1.9208   -1.1837    2.0121 H   0  0  0  0  0  0  0  0  0  0  0  0
    0.4853   -0.6163   -0.0445 H   0  0  0  0  0  0  0  0  0  0  0  0
  1  2  2  0
  1  9  1  0
  2  3  1  0
  3  4  1  0
  4  5  1  0
  4  9  2  0
  5  6  2  0
  6  7  1  0
  7  8  2  0
  7 10  1  0
  8  9  1  0
 10 11  2  0
 10 25  1  0
 11 12  1  0
 12 13  2  0
 13 14  1  0
 13 24  1  0
 14 15  2  0
 15 16  1  0
 16 17  2  0
 17 18  1  0
 17 24  1  0
 18 19  2  0
 18 23  1  0
 19 20  1  0
 20 21  2  0
 21 22  1  0
 22 23  2  0
 24 25  2  0
  1 26  1  0
  3 27  1  0
  6 28  1  0
  8 29  1  0
 11 30  1  0
 12 31  1  0
 15 32  1  0
 16 33  1  0
 19 34  1  0
 20 35  1  0
 22 36  1  0
 23 37  1  0
 25 38  1  0
M  END
