
     RDKit          3D

 66 68  0  0  0  0  0  0  0  0999 V2000
    1.2952    1.5038    0.1739 C   0  0  0  0  0  0  0  0  0  0  0  0
    4.5568   -0.1256   -0.6340 C   0  0  0  0  0  0  0  0  0  0  0  0
    3.6038    0.8007   -0.4479 C   0  0  0  0  0  0  0  0  0  0  0  0
    6.8252   -1.6990    0.1178 C   0  0  0  0  0  0  0  0  0  0  0  0
    5.9293    0.2610   -1.1013 C   0  0  0  0  0  0  0  0  0  0  0  0
   -4.8377    0.4958    0.7472 C   0  0  0  0  0  0  0  0  0  0  0  0
   -5.8138   -0.4355    0.2435 C   0  0  0  0  0  0  0  0  0  0  0  0
   -6.6303   -1.2299   -0.1650 C   0  0  0  0  0  0  0  0  0  0  0  0
   -7.5781   -2.1561   -0.6596 C   0  0  0  0  0  0  0  0  0  0  0  0
   -8.6678   -2.5101    0.0353 C   0  0  0  0  0  0  0  0  0  0  0  0
   -9.6915   -3.4711   -0.4458 C   0  0  0  0  0  0  0  0  0  0  0  0
   -3.7404    0.8957   -0.2209 C   0  0  1  0  0  0  0  0  0  0  0  0
   -4.2756    2.1075   -0.9950 C   0  0  0  0  0  0  0  0  0  0  0  0
   -2.4256    1.1247    0.5246 C   0  0  1  0  0  0  0  0  0  0  0  0
   -1.9663   -0.1606    1.2660 C   0  0  0  0  0  0  0  0  0  0  0  0
   -0.4282   -0.2004    1.1879 C   0  0  0  0  0  0  0  0  0  0  0  0
   -0.0684    1.1956    0.7066 C   0  0  2  0  0  0  0  0  0  0  0  0
   -1.1903    1.5461   -0.3036 C   0  0  1  0  0  0  0  0  0  0  0  0
   -1.0575    0.7110   -1.5788 C   0  0  0  0  0  0  0  0  0  0  0  0
   -1.0863    3.0408   -0.6144 C   0  0  0  0  0  0  0  0  0  0  0  0
    0.3065    3.4230   -1.1152 C   0  0  0  0  0  0  0  0  0  0  0  0
    1.4263    2.9618   -0.1741 C   0  0  0  0  0  0  0  0  0  0  0  0
    2.2536    0.5742    0.0336 C   0  0  0  0  0  0  0  0  0  0  0  0
    4.3991   -1.5976   -0.3862 C   0  0  0  0  0  0  0  0  0  0  0  0
    6.9958   -0.2182   -0.1170 C   0  0  1  0  0  0  0  0  0  0  0  0
    6.8319    0.5189    1.0785 O   0  0  0  0  0  0  0  0  0  0  0  0
    7.7996   -2.5631   -0.1440 C   0  0  0  0  0  0  0  0  0  0  0  0
    5.4549   -2.0981    0.6069 C   0  0  1  0  0  0  0  0  0  0  0  0
    5.2871   -3.4852    0.7533 O   0  0  0  0  0  0  0  0  0  0  0  0
    3.8776    1.8259   -0.6759 H   0  0  0  0  0  0  0  0  0  0  0  0
    6.1446   -0.2069   -2.0682 H   0  0  0  0  0  0  0  0  0  0  0  0
   -7.3907   -2.5768   -1.6423 H   0  0  0  0  0  0  0  0  0  0  0  0
   -8.8296   -2.0722    1.0150 H   0  0  0  0  0  0  0  0  0  0  0  0
   -9.4516   -3.8729   -1.4288 H   0  0  0  0  0  0  0  0  0  0  0  0
   -9.7948   -4.3007    0.2565 H   0  0  0  0  0  0  0  0  0  0  0  0
  -10.6698   -2.9881   -0.4959 H   0  0  0  0  0  0  0  0  0  0  0  0
   -3.6117    0.0722   -0.9305 H   0  0  0  0  0  0  0  0  0  0  0  0
   -5.2767    1.9163   -1.3854 H   0  0  0  0  0  0  0  0  0  0  0  0
   -4.3238    2.9932   -0.3608 H   0  0  0  0  0  0  0  0  0  0  0  0
   -3.6426    2.3342   -1.8505 H   0  0  0  0  0  0  0  0  0  0  0  0
   -2.5893    1.9158    1.2647 H   0  0  0  0  0  0  0  0  0  0  0  0
   -2.3096   -0.1498    2.3002 H   0  0  0  0  0  0  0  0  0  0  0  0
   -2.3995   -1.0517    0.8043 H   0  0  0  0  0  0  0  0  0  0  0  0
    0.0355   -0.4431    2.1451 H   0  0  0  0  0  0  0  0  0  0  0  0
   -0.0986   -0.9604    0.4757 H   0  0  0  0  0  0  0  0  0  0  0  0
   -0.2216    1.8782    1.5579 H   0  0  0  0  0  0  0  0  0  0  0  0
   -1.2649   -0.3467   -1.4074 H   0  0  0  0  0  0  0  0  0  0  0  0
   -1.7481    1.0532   -2.3518 H   0  0  0  0  0  0  0  0  0  0  0  0
   -0.0522    0.7743   -1.9957 H   0  0  0  0  0  0  0  0  0  0  0  0
   -1.8292    3.3482   -1.3530 H   0  0  0  0  0  0  0  0  0  0  0  0
   -1.3093    3.6014    0.3008 H   0  0  0  0  0  0  0  0  0  0  0  0
    0.4761    3.0013   -2.1095 H   0  0  0  0  0  0  0  0  0  0  0  0
    0.3659    4.5073   -1.2345 H   0  0  0  0  0  0  0  0  0  0  0  0
    1.3597    3.5444    0.7532 H   0  0  0  0  0  0  0  0  0  0  0  0
    2.3940    3.2009   -0.6145 H   0  0  0  0  0  0  0  0  0  0  0  0
    2.0022   -0.4410    0.3211 H   0  0  0  0  0  0  0  0  0  0  0  0
    3.4067   -1.8531   -0.0148 H   0  0  0  0  0  0  0  0  0  0  0  0
    4.5375   -2.1389   -1.3305 H   0  0  0  0  0  0  0  0  0  0  0  0
    7.9870   -0.0378   -0.5534 H   0  0  0  0  0  0  0  0  0  0  0  0
    7.4997    0.2211    1.7048 H   0  0  0  0  0  0  0  0  0  0  0  0
    8.7611   -2.2225   -0.5090 H   0  0  0  0  0  0  0  0  0  0  0  0
    7.6843   -3.6316   -0.0179 H   0  0  0  0  0  0  0  0  0  0  0  0
    5.2712   -1.5877    1.5632 H   0  0  0  0  0  0  0  0  0  0  0  0
    5.8203   -3.7799    1.4985 H   0  0  0  0  0  0  0  0  0  0  0  0
    6.0113    1.3413   -1.2430 H   0  0  0  0  0  0  0  0  0  0  0  0
   -4.9413    0.9557    1.8658 O   0  0  0  0  0  0  0  0  0  0  0  0
 27  4  2  0
 26 25  1  0
  4 25  1  0
  4 28  1  0
 25  5  1  0
 28 29  1  0
 28 24  1  0
  5  2  1  0
 24  2  1  0
  2  3  2  0
  3 23  1  0
 23  1  2  0
  1 17  1  0
  1 22  1  0
 18 19  1  6
 16 17  1  0
 16 15  1  0
 13 12  1  0
 17 18  1  0
 22 21  1  0
 15 14  1  0
 18 14  1  0
 18 20  1  0
 12 14  1  0
 12  6  1  0
 21 20  1  0
 10 11  1  0
 10  9  2  0
  6  7  1  0
  6 66  2  0
  7  8  3  0
  8  9  1  0
  3 30  1  0
  5 31  1  0
  9 32  1  0
 10 33  1  0
 11 34  1  0
 11 35  1  0
 11 36  1  0
 12 37  1  6
 13 38  1  0
 13 39  1  0
 13 40  1  0
 14 41  1  1
 15 42  1  0
 15 43  1  0
 16 44  1  0
 16 45  1  0
 17 46  1  1
 19 47  1  0
 19 48  1  0
 19 49  1  0
 20 50  1  0
 20 51  1  0
 21 52  1  0
 21 53  1  0
 22 54  1  0
 22 55  1  0
 23 56  1  0
 24 57  1  0
 24 58  1  0
 25 59  1  6
 26 60  1  0
 27 61  1  0
 27 62  1  0
 28 63  1  1
 29 64  1  0
  5 65  1  0
M  END
