
     RDKit          3D

 38 41  0  0  0  0  0  0  0  0999 V2000
    3.7918    1.5174    0.1806 C   0  0  0  0  0  0  0  0  0  0  0  0
   -0.5421    2.1569   -0.1140 C   0  0  0  0  0  0  0  0  0  0  0  0
    2.7248    0.5992    0.1303 C   0  0  0  0  0  0  0  0  0  0  0  0
    1.5988    1.4158    0.0506 C   0  0  0  0  0  0  0  0  0  0  0  0
   -4.0064    0.9114   -0.1624 C   0  0  0  0  0  0  0  0  0  0  0  0
   -4.8156   -0.2051   -0.2333 C   0  0  0  0  0  0  0  0  0  0  0  0
   -6.5318   -0.0024   -0.0916 Cl  0  0  0  0  0  0  0  0  0  0  0  0
   -4.2939   -1.4775   -0.4106 C   0  0  0  0  0  0  0  0  0  0  0  0
   -2.9180   -1.6002   -0.5201 C   0  0  0  0  0  0  0  0  0  0  0  0
   -2.0744   -0.5006   -0.4543 C   0  0  0  0  0  0  0  0  0  0  0  0
   -2.6176    0.7736   -0.2727 C   0  0  0  0  0  0  0  0  0  0  0  0
   -1.8824    1.9516   -0.2103 N   0  0  0  0  0  0  0  0  0  0  0  0
   -0.0973    3.5213   -0.0907 C   0  0  0  0  0  0  0  0  0  0  0  0
    1.2278    3.7638   -0.0040 C   0  0  0  0  0  0  0  0  0  0  0  0
    0.2889    1.1492   -0.0427 N   0  0  0  0  0  0  0  0  0  0  0  0
    2.0732    2.7088    0.0627 N   0  0  0  0  0  0  0  0  0  0  0  0
    3.4079    2.7787    0.1431 N   0  0  0  0  0  0  0  0  0  0  0  0
    2.7940   -0.8587    0.1578 C   0  0  0  0  0  0  0  0  0  0  0  0
    3.9672   -1.5036   -0.2352 C   0  0  0  0  0  0  0  0  0  0  0  0
    1.7088   -1.6296    0.5866 C   0  0  0  0  0  0  0  0  0  0  0  0
    1.8166   -3.0125    0.6057 C   0  0  0  0  0  0  0  0  0  0  0  0
    2.9831   -3.6512    0.2197 C   0  0  0  0  0  0  0  0  0  0  0  0
    4.0839   -2.8960   -0.2028 C   0  0  0  0  0  0  0  0  0  0  0  0
    5.2734   -3.5101   -0.5363 N   0  0  0  0  0  0  0  0  0  0  0  0
    4.8448    1.2894    0.2585 H   0  0  0  0  0  0  0  0  0  0  0  0
   -4.4449    1.8913   -0.0179 H   0  0  0  0  0  0  0  0  0  0  0  0
   -4.9392   -2.3429   -0.4625 H   0  0  0  0  0  0  0  0  0  0  0  0
   -2.4864   -2.5819   -0.6650 H   0  0  0  0  0  0  0  0  0  0  0  0
   -1.0100   -0.6359   -0.5441 H   0  0  0  0  0  0  0  0  0  0  0  0
   -2.4401    2.7914   -0.2037 H   0  0  0  0  0  0  0  0  0  0  0  0
   -0.7952    4.3438   -0.1457 H   0  0  0  0  0  0  0  0  0  0  0  0
    1.6673    4.7505    0.0151 H   0  0  0  0  0  0  0  0  0  0  0  0
    4.8102   -0.9208   -0.5903 H   0  0  0  0  0  0  0  0  0  0  0  0
    0.7950   -1.1545    0.9132 H   0  0  0  0  0  0  0  0  0  0  0  0
    0.9728   -3.6065    0.9351 H   0  0  0  0  0  0  0  0  0  0  0  0
    3.0475   -4.7326    0.2442 H   0  0  0  0  0  0  0  0  0  0  0  0
    5.8882   -2.9781   -1.1310 H   0  0  0  0  0  0  0  0  0  0  0  0
    5.1988   -4.4670   -0.8424 H   0  0  0  0  0  0  0  0  0  0  0  0
  1  3  1  0
  1 17  2  0
  2 12  1  0
  2 13  1  0
  2 15  2  0
  3  4  2  0
  3 18  1  0
  4 15  1  0
  4 16  1  0
  5  6  2  0
  5 11  1  0
  6  7  1  0
  6  8  1  0
  8  9  2  0
  9 10  1  0
 10 11  2  0
 11 12  1  0
 13 14  2  0
 14 16  1  0
 16 17  1  0
 18 19  2  0
 18 20  1  0
 19 23  1  0
 20 21  2  0
 21 22  1  0
 22 23  2  0
 23 24  1  0
  1 25  1  0
  5 26  1  0
  8 27  1  0
  9 28  1  0
 10 29  1  0
 12 30  1  0
 13 31  1  0
 14 32  1  0
 19 33  1  0
 20 34  1  0
 21 35  1  0
 22 36  1  0
 24 37  1  0
 24 38  1  0
M  END
