
     RDKit          3D

 33 36  0  0  0  0  0  0  0  0999 V2000
   -3.1443   -1.6943   -0.9459 C   0  0  0  0  0  0  0  0  0  0  0  0
   -1.9174   -1.2413   -0.4467 C   0  0  0  0  0  0  0  0  0  0  0  0
   -0.6173   -1.8091   -0.6009 C   0  0  0  0  0  0  0  0  0  0  0  0
    0.3481   -1.0846    0.0162 C   0  0  0  0  0  0  0  0  0  0  0  0
   -3.0439    0.6589    0.6109 C   0  0  0  0  0  0  0  0  0  0  0  0
    4.7227   -1.5986    0.8583 C   0  0  0  0  0  0  0  0  0  0  0  0
    6.8716   -0.5080    0.5048 C   0  0  0  0  0  0  0  0  0  0  0  0
    5.5606    2.5725   -0.8075 C   0  0  0  0  0  0  0  0  0  0  0  0
    4.3949    1.8951   -0.5906 C   0  0  0  0  0  0  0  0  0  0  0  0
   -4.2316    0.1776    0.0997 C   0  0  0  0  0  0  0  0  0  0  0  0
   -4.2955   -0.9892   -0.6748 C   0  0  0  0  0  0  0  0  0  0  0  0
   -0.2864    0.3119    0.8434 S   0  0  0  0  0  0  0  0  0  0  0  0
   -1.8908   -0.0661    0.3230 C   0  0  0  0  0  0  0  0  0  0  0  0
    1.7864   -1.4376    0.0035 C   0  0  0  0  0  0  0  0  0  0  0  0
    2.1440   -2.5635   -0.2889 O   0  0  0  0  0  0  0  0  0  0  0  0
    2.6320   -0.4268    0.3253 N   0  0  0  0  0  0  0  0  0  0  0  0
    4.0332   -0.4996    0.3769 C   0  0  0  0  0  0  0  0  0  0  0  0
    6.1251   -1.5948    0.9115 C   0  0  0  0  0  0  0  0  0  0  0  0
    6.1693    0.5994    0.0315 C   0  0  0  0  0  0  0  0  0  0  0  0
    6.6200    1.7984   -0.4361 N   0  0  0  0  0  0  0  0  0  0  0  0
    4.7608    0.6237   -0.0497 C   0  0  0  0  0  0  0  0  0  0  0  0
   -3.1895   -2.5954   -1.5434 H   0  0  0  0  0  0  0  0  0  0  0  0
   -0.4184   -2.7119   -1.1607 H   0  0  0  0  0  0  0  0  0  0  0  0
   -3.0019    1.5608    1.2067 H   0  0  0  0  0  0  0  0  0  0  0  0
    4.1906   -2.4677    1.2142 H   0  0  0  0  0  0  0  0  0  0  0  0
    7.9526   -0.5154    0.5535 H   0  0  0  0  0  0  0  0  0  0  0  0
    5.7177    3.5603   -1.2093 H   0  0  0  0  0  0  0  0  0  0  0  0
    3.4058    2.2697   -0.8013 H   0  0  0  0  0  0  0  0  0  0  0  0
   -5.2430   -1.3386   -1.0612 H   0  0  0  0  0  0  0  0  0  0  0  0
    2.2530    0.5077    0.3658 H   0  0  0  0  0  0  0  0  0  0  0  0
    6.6287   -2.4733    1.2928 H   0  0  0  0  0  0  0  0  0  0  0  0
    7.5857    2.0732   -0.5043 H   0  0  0  0  0  0  0  0  0  0  0  0
   -5.8261    1.1219    0.4485 Br  0  0  0  0  0  0  0  0  0  0  0  0
 33 10  1  0
  5 10  2  0
  5 13  1  0
 10 11  1  0
 13 12  1  0
 13  2  2  0
 11  1  2  0
 12  4  1  0
  2  1  1  0
  2  3  1  0
  4  3  2  0
  4 14  1  0
 15 14  2  0
 14 16  1  0
 16 17  1  0
  6 17  2  0
  6 18  1  0
 17 21  1  0
 18  7  2  0
 21 19  2  0
 21  9  1  0
  7 19  1  0
 19 20  1  0
  9  8  2  0
 20  8  1  0
  1 22  1  0
  3 23  1  0
  5 24  1  0
  6 25  1  0
  7 26  1  0
  8 27  1  0
  9 28  1  0
 11 29  1  0
 16 30  1  0
 18 31  1  0
 20 32  1  0
M  END
