
     RDKit          3D

 49 52  0  0  0  0  0  0  0  0999 V2000
   -2.6282    1.5184    0.3874 N   0  0  0  0  0  0  0  0  0  0  0  0
   -1.3852    3.5105    0.6944 C   0  0  0  0  0  0  0  0  0  0  0  0
   -0.2271    4.2274    0.5998 C   0  0  0  0  0  0  0  0  0  0  0  0
    0.9466    3.6131    0.1125 C   0  0  0  0  0  0  0  0  0  0  0  0
    0.9404    2.2900   -0.2305 C   0  0  0  0  0  0  0  0  0  0  0  0
   -0.2532    0.1175   -0.4385 C   0  0  0  0  0  0  0  0  0  0  0  0
    0.8879   -0.5559   -0.8354 N   0  0  0  0  0  0  0  0  0  0  0  0
   -1.8847   -1.7678   -0.6686 N   0  0  0  0  0  0  0  0  0  0  0  0
   -4.0531   -3.0071   -0.6137 C   0  0  0  0  0  0  0  0  0  0  0  0
   -5.4005   -2.8519   -0.3375 C   0  0  0  0  0  0  0  0  0  0  0  0
    2.0120   -0.7071    0.0858 C   0  0  0  0  0  0  0  0  0  0  0  0
   -5.9329   -1.6252    0.0824 C   0  0  0  0  0  0  0  0  0  0  0  0
   -5.1134   -0.5217    0.2377 C   0  0  0  0  0  0  0  0  0  0  0  0
   -2.6419    0.2613    0.0164 C   0  0  0  0  0  0  0  0  0  0  0  0
   -3.7548   -0.6558   -0.0340 C   0  0  0  0  0  0  0  0  0  0  0  0
    3.3199   -0.7752   -0.6880 C   0  0  0  0  0  0  0  0  0  0  0  0
   -1.4342    2.1413    0.3280 C   0  0  0  0  0  0  0  0  0  0  0  0
    4.4561   -0.9676    0.1936 N   0  0  0  0  0  0  0  0  0  0  0  0
    4.6580   -2.3741    0.5116 C   0  0  0  0  0  0  0  0  0  0  0  0
    5.6586   -0.3248   -0.3164 C   0  0  0  0  0  0  0  0  0  0  0  0
    5.4612   -2.5906    1.7836 C   0  0  0  0  0  0  0  0  0  0  0  0
   -0.2312    1.5025   -0.1044 C   0  0  0  0  0  0  0  0  0  0  0  0
    5.6463    1.1813   -0.1071 C   0  0  0  0  0  0  0  0  0  0  0  0
   -1.4966   -0.4780   -0.3895 C   0  0  0  0  0  0  0  0  0  0  0  0
   -3.2341   -1.8918   -0.4593 C   0  0  0  0  0  0  0  0  0  0  0  0
   -2.3015    3.9727    1.0398 H   0  0  0  0  0  0  0  0  0  0  0  0
   -0.2098    5.2729    0.8789 H   0  0  0  0  0  0  0  0  0  0  0  0
    1.8507    4.1967   -0.0008 H   0  0  0  0  0  0  0  0  0  0  0  0
    1.8402    1.8438   -0.6321 H   0  0  0  0  0  0  0  0  0  0  0  0
    0.6911   -1.4220   -1.3154 H   0  0  0  0  0  0  0  0  0  0  0  0
   -1.2775   -2.5303   -0.9162 H   0  0  0  0  0  0  0  0  0  0  0  0
   -3.6541   -3.9592   -0.9380 H   0  0  0  0  0  0  0  0  0  0  0  0
   -6.0610   -3.7018   -0.4512 H   0  0  0  0  0  0  0  0  0  0  0  0
    2.0436    0.1443    0.7641 H   0  0  0  0  0  0  0  0  0  0  0  0
    3.2610   -1.5596   -1.4611 H   0  0  0  0  0  0  0  0  0  0  0  0
    3.6775   -2.8349    0.6507 H   0  0  0  0  0  0  0  0  0  0  0  0
    5.5165   -3.6546    2.0154 H   0  0  0  0  0  0  0  0  0  0  0  0
    1.8789   -1.5957    0.7129 H   0  0  0  0  0  0  0  0  0  0  0  0
    3.4314    0.1657   -1.2315 H   0  0  0  0  0  0  0  0  0  0  0  0
    5.1282   -2.9132   -0.3273 H   0  0  0  0  0  0  0  0  0  0  0  0
    6.4853   -2.2253    1.7012 H   0  0  0  0  0  0  0  0  0  0  0  0
    4.9901   -2.0839    2.6262 H   0  0  0  0  0  0  0  0  0  0  0  0
   -6.9923   -1.5461    0.2857 H   0  0  0  0  0  0  0  0  0  0  0  0
   -5.5158    0.4291    0.5635 H   0  0  0  0  0  0  0  0  0  0  0  0
    6.5218   -0.7330    0.2110 H   0  0  0  0  0  0  0  0  0  0  0  0
    6.5676    1.6262   -0.4844 H   0  0  0  0  0  0  0  0  0  0  0  0
    5.8188   -0.5569   -1.3819 H   0  0  0  0  0  0  0  0  0  0  0  0
    4.8174    1.6667   -0.6250 H   0  0  0  0  0  0  0  0  0  0  0  0
    5.5632    1.4201    0.9536 H   0  0  0  0  0  0  0  0  0  0  0  0
  1 14  2  0
  1 17  1  0
  2  3  1  0
  2 17  2  0
  2 26  1  0
  3  4  2  0
  3 27  1  0
  4  5  1  0
  4 28  1  0
  5 22  2  0
  5 29  1  0
  6  7  1  0
  6 22  1  0
  6 24  2  0
  7 11  1  0
  7 30  1  0
  8 24  1  0
  8 25  1  0
  8 31  1  0
  9 10  1  0
  9 25  2  0
  9 32  1  0
 10 12  2  0
 10 33  1  0
 11 16  1  0
 11 34  1  0
 11 38  1  0
 12 13  1  0
 12 43  1  0
 13 15  2  0
 13 44  1  0
 14 15  1  0
 14 24  1  0
 15 25  1  0
 16 18  1  0
 16 35  1  0
 16 39  1  0
 17 22  1  0
 18 19  1  0
 18 20  1  0
 19 21  1  0
 19 36  1  0
 19 40  1  0
 20 23  1  0
 20 45  1  0
 20 47  1  0
 21 37  1  0
 21 41  1  0
 21 42  1  0
 23 46  1  0
 23 48  1  0
 23 49  1  0
M  END
