
     RDKit          3D

 27 28  0  0  0  0  0  0  0  0999 V2000
    3.8535   -1.2227   -1.1280 C   0  0  0  0  0  0  0  0  0  0  0  0
    3.5085   -1.5432    1.2343 C   0  0  0  0  0  0  0  0  0  0  0  0
    1.4247    2.3824   -1.0145 O   0  0  0  0  0  0  0  0  0  0  0  0
    1.0912    1.4498    0.0477 S   0  0  1  0  0  0  0  0  0  0  0  0
    0.9215    1.9238    1.4107 O   0  0  0  0  0  0  0  0  0  0  0  0
   -0.3326    0.7441   -0.3968 N   0  0  0  0  0  0  0  0  0  0  0  0
   -0.9212   -0.2712    0.4731 C   0  0  0  0  0  0  0  0  0  0  0  0
   -2.3064   -0.5777    0.0167 C   0  0  0  0  0  0  0  0  0  0  0  0
   -2.8528   -1.7998   -0.2332 C   0  0  0  0  0  0  0  0  0  0  0  0
   -4.2201   -1.7261   -0.6199 C   0  0  0  0  0  0  0  0  0  0  0  0
   -4.6798   -0.4466   -0.6622 C   0  0  0  0  0  0  0  0  0  0  0  0
   -3.4600    0.6785   -0.2299 S   0  0  0  0  0  0  0  0  0  0  0  0
    2.3082    0.1612    0.0621 C   0  0  0  0  0  0  0  0  0  0  0  0
    2.9339   -0.1859   -1.1299 C   0  0  0  0  0  0  0  0  0  0  0  0
    4.1393   -1.9008    0.0509 C   0  0  0  0  0  0  0  0  0  0  0  0
    2.5870   -0.5055    1.2480 C   0  0  0  0  0  0  0  0  0  0  0  0
    4.3513   -1.4970   -2.0482 H   0  0  0  0  0  0  0  0  0  0  0  0
    3.7342   -2.0682    2.1526 H   0  0  0  0  0  0  0  0  0  0  0  0
   -0.3329    0.4867   -1.3792 H   0  0  0  0  0  0  0  0  0  0  0  0
   -0.3430   -1.2007    0.4855 H   0  0  0  0  0  0  0  0  0  0  0  0
   -0.9356    0.1193    1.4912 H   0  0  0  0  0  0  0  0  0  0  0  0
   -2.2973   -2.7231   -0.1419 H   0  0  0  0  0  0  0  0  0  0  0  0
   -4.8268   -2.5869   -0.8617 H   0  0  0  0  0  0  0  0  0  0  0  0
   -5.6655   -0.1020   -0.9338 H   0  0  0  0  0  0  0  0  0  0  0  0
    2.7184    0.3436   -2.0485 H   0  0  0  0  0  0  0  0  0  0  0  0
    4.8590   -2.7083    0.0464 H   0  0  0  0  0  0  0  0  0  0  0  0
    2.1052   -0.2229    2.1741 H   0  0  0  0  0  0  0  0  0  0  0  0
 10  9  1  0
 10 11  2  0
  9  8  2  0
 11 12  1  0
  8 12  1  0
  8  7  1  0
  7  6  1  0
  5  4  2  0
  4  6  1  6
  4  3  2  0
  4 13  1  0
 16 13  2  0
 16  2  1  0
 13 14  1  0
  2 15  2  0
 14  1  2  0
 15  1  1  0
  1 17  1  0
  2 18  1  0
  6 19  1  0
  7 20  1  0
  7 21  1  0
  9 22  1  0
 10 23  1  0
 11 24  1  0
 14 25  1  0
 15 26  1  0
 16 27  1  0
M  END
