
     RDKit          3D

 38 41  0  0  0  0  0  0  0  0999 V2000
   -2.7634   -0.4230   -0.0987 C   0  0  0  0  0  0  0  0  0  0  0  0
   -3.1711   -1.7668   -0.1925 C   0  0  0  0  0  0  0  0  0  0  0  0
   -1.0649   -2.5032   -0.1136 C   0  0  0  0  0  0  0  0  0  0  0  0
    1.1380   -2.7389   -0.0130 C   0  0  0  0  0  0  0  0  0  0  0  0
    0.9177   -1.3806    0.0334 C   0  0  0  0  0  0  0  0  0  0  0  0
    1.9343   -0.3482    0.1250 C   0  0  0  0  0  0  0  0  0  0  0  0
    2.4399    1.8668    0.2374 C   0  0  0  0  0  0  0  0  0  0  0  0
    4.1791    0.4134    0.2753 C   0  0  0  0  0  0  0  0  0  0  0  0
    3.2981   -0.6499    0.1840 C   0  0  0  0  0  0  0  0  0  0  0  0
    6.3236    0.6291   -0.9964 C   0  0  0  0  0  0  0  0  0  0  0  0
   -3.5774    2.0037   -0.4498 C   0  0  0  0  0  0  0  0  0  0  0  0
   -3.7558    0.6491   -0.0939 C   0  0  0  0  0  0  0  0  0  0  0  0
   -5.0899    0.5803    0.2613 C   0  0  0  0  0  0  0  0  0  0  0  0
   -5.5904    1.8139    0.1044 N   0  0  0  0  0  0  0  0  0  0  0  0
   -4.6950    2.6927   -0.3260 N   0  0  0  0  0  0  0  0  0  0  0  0
   -2.3487   -2.8013   -0.1939 N   0  0  0  0  0  0  0  0  0  0  0  0
   -1.4030   -0.1445   -0.0175 C   0  0  0  0  0  0  0  0  0  0  0  0
   -0.5079   -1.2102   -0.0307 C   0  0  0  0  0  0  0  0  0  0  0  0
   -0.0378   -3.4030   -0.1001 N   0  0  0  0  0  0  0  0  0  0  0  0
    1.5106    0.9114    0.1521 N   0  0  0  0  0  0  0  0  0  0  0  0
    3.7573    1.6755    0.3042 N   0  0  0  0  0  0  0  0  0  0  0  0
    2.0007    3.1456    0.2233 N   0  0  0  0  0  0  0  0  0  0  0  0
    5.6630    0.1990    0.3121 C   0  0  0  0  0  0  0  0  0  0  0  0
   -4.2271   -2.0000   -0.2804 H   0  0  0  0  0  0  0  0  0  0  0  0
    2.0659   -3.2877    0.0101 H   0  0  0  0  0  0  0  0  0  0  0  0
    3.6627   -1.6670    0.1650 H   0  0  0  0  0  0  0  0  0  0  0  0
    6.1432    1.6853   -1.1950 H   0  0  0  0  0  0  0  0  0  0  0  0
    7.4013    0.4737   -0.9528 H   0  0  0  0  0  0  0  0  0  0  0  0
    5.9366    0.0564   -1.8401 H   0  0  0  0  0  0  0  0  0  0  0  0
   -2.6781    2.4870   -0.8026 H   0  0  0  0  0  0  0  0  0  0  0  0
   -5.6975   -0.2357    0.6173 H   0  0  0  0  0  0  0  0  0  0  0  0
   -6.5386    2.1062    0.2797 H   0  0  0  0  0  0  0  0  0  0  0  0
   -1.0441    0.8714    0.0674 H   0  0  0  0  0  0  0  0  0  0  0  0
   -0.1376   -4.4048   -0.1436 H   0  0  0  0  0  0  0  0  0  0  0  0
    1.0247    3.3137    0.3954 H   0  0  0  0  0  0  0  0  0  0  0  0
    2.6377    3.8681    0.5113 H   0  0  0  0  0  0  0  0  0  0  0  0
    6.0824    0.7774    1.1386 H   0  0  0  0  0  0  0  0  0  0  0  0
    5.8790   -0.8515    0.5128 H   0  0  0  0  0  0  0  0  0  0  0  0
 15 11  2  0
 15 14  1  0
 11 12  1  0
 14 13  1  0
 12 13  2  0
 12  1  1  0
  1  2  2  0
  1 17  1  0
  2 16  1  0
 17 18  2  0
 16  3  2  0
 23  8  1  0
 23 10  1  0
 18  3  1  0
 18  5  1  0
  3 19  1  0
  9  8  2  0
  9  6  1  0
  8 21  1  0
  5  6  1  0
  5  4  2  0
 19  4  1  0
  6 20  2  0
 21  7  2  0
 20  7  1  0
  7 22  1  0
  2 24  1  0
  4 25  1  0
  9 26  1  0
 10 27  1  0
 10 28  1  0
 10 29  1  0
 11 30  1  0
 13 31  1  0
 14 32  1  0
 17 33  1  0
 19 34  1  0
 22 35  1  0
 22 36  1  0
 23 37  1  0
 23 38  1  0
M  END
