
     RDKit          3D

 73 78  0  0  0  0  0  0  0  0999 V2000
   -5.2347    1.2046    2.2385 C   0  0  0  0  0  0  0  0  0  0  0  0
   -4.6419   -0.1034    2.7269 C   0  0  1  0  0  0  0  0  0  0  0  0
   -4.1520   -0.8916    1.6364 O   0  0  0  0  0  0  0  0  0  0  0  0
   -3.4329    0.1059    3.6370 C   0  0  1  0  0  0  0  0  0  0  0  0
   -3.1559   -1.0151    4.4304 O   0  0  0  0  0  0  0  0  0  0  0  0
   -2.3206    0.2161    2.5949 C   0  0  1  0  0  0  0  0  0  0  0  0
   -0.9861   -0.0364    3.0440 N   0  0  0  0  0  0  0  0  0  0  0  0
   -2.7681   -0.8124    1.5454 C   0  0  2  0  0  0  0  0  0  0  0  0
   -2.3923   -0.4302    0.1975 N   0  0  0  0  0  0  0  0  0  0  0  0
   -3.1314    0.2807   -0.7086 C   0  0  0  0  0  0  0  0  0  0  0  0
   -2.4873    0.5243   -1.8134 N   0  0  0  0  0  0  0  0  0  0  0  0
   -1.2571   -0.0472   -1.6266 C   0  0  0  0  0  0  0  0  0  0  0  0
   -0.1047   -0.1250   -2.4346 C   0  0  0  0  0  0  0  0  0  0  0  0
   -0.0686    0.4200   -3.6545 N   0  0  0  0  0  0  0  0  0  0  0  0
    0.9595   -0.7647   -1.9403 N   0  0  0  0  0  0  0  0  0  0  0  0
    0.8930   -1.2982   -0.7231 C   0  0  0  0  0  0  0  0  0  0  0  0
   -0.1220   -1.2909    0.1222 N   0  0  0  0  0  0  0  0  0  0  0  0
   -1.1763   -0.6472   -0.3809 C   0  0  0  0  0  0  0  0  0  0  0  0
    1.0722    0.4325   -4.5455 C   0  0  1  0  0  0  0  0  0  0  0  0
    0.8207   -0.4237   -5.7769 C   0  0  0  0  0  0  0  0  0  0  0  0
    0.1806   -1.6552   -5.6324 C   0  0  0  0  0  0  0  0  0  0  0  0
   -0.0464   -2.4802   -6.7210 C   0  0  0  0  0  0  0  0  0  0  0  0
    0.3715   -2.0789   -7.9843 C   0  0  0  0  0  0  0  0  0  0  0  0
    1.4516    1.8674   -4.8963 C   0  0  0  0  0  0  0  0  0  0  0  0
    1.2523   -0.0235   -7.0441 C   0  0  0  0  0  0  0  0  0  0  0  0
    1.0157   -0.8629   -8.1340 C   0  0  0  0  0  0  0  0  0  0  0  0
    2.5130    1.8844   -5.9837 C   0  0  0  0  0  0  0  0  0  0  0  0
    1.9518    1.2929   -7.2674 C   0  0  0  0  0  0  0  0  0  0  0  0
   -0.2148    0.9186    3.5946 C   0  0  0  0  0  0  0  0  0  0  0  0
   -0.6310    2.0395    3.8448 O   0  0  0  0  0  0  0  0  0  0  0  0
    1.1982    0.5193    3.8768 C   0  0  0  0  0  0  0  0  0  0  0  0
    1.8522   -0.4091    3.0762 C   0  0  0  0  0  0  0  0  0  0  0  0
    3.1793   -0.7308    3.3512 C   0  0  0  0  0  0  0  0  0  0  0  0
    3.7509   -1.6221    2.5242 O   0  0  0  0  0  0  0  0  0  0  0  0
    5.1072   -1.9714    2.7237 C   0  0  0  0  0  0  0  0  0  0  0  0
    3.8431   -0.1370    4.4239 C   0  0  0  0  0  0  0  0  0  0  0  0
    1.8496    1.1360    4.9352 C   0  0  0  0  0  0  0  0  0  0  0  0
    3.1701    0.7956    5.2137 C   0  0  0  0  0  0  0  0  0  0  0  0
    3.7306    1.4158    6.2659 O   0  0  0  0  0  0  0  0  0  0  0  0
    5.0738    1.1244    6.6003 C   0  0  0  0  0  0  0  0  0  0  0  0
   -6.2210    0.9143    1.2802 O   0  0  0  0  0  0  0  0  0  0  0  0
   -5.6465    1.7305    3.1095 H   0  0  0  0  0  0  0  0  0  0  0  0
   -4.4506    1.8523    1.8230 H   0  0  0  0  0  0  0  0  0  0  0  0
   -5.4217   -0.6869    3.2250 H   0  0  0  0  0  0  0  0  0  0  0  0
   -3.5217    1.0215    4.2335 H   0  0  0  0  0  0  0  0  0  0  0  0
   -3.8602   -1.1191    5.0783 H   0  0  0  0  0  0  0  0  0  0  0  0
   -2.3549    1.2155    2.1542 H   0  0  0  0  0  0  0  0  0  0  0  0
   -0.6335   -0.9787    2.9898 H   0  0  0  0  0  0  0  0  0  0  0  0
   -2.3113   -1.7921    1.7303 H   0  0  0  0  0  0  0  0  0  0  0  0
   -4.1490    0.5774   -0.5031 H   0  0  0  0  0  0  0  0  0  0  0  0
   -0.9129    0.8665   -3.9800 H   0  0  0  0  0  0  0  0  0  0  0  0
    1.7935   -1.7999   -0.3840 H   0  0  0  0  0  0  0  0  0  0  0  0
    1.9002   -0.0152   -3.9916 H   0  0  0  0  0  0  0  0  0  0  0  0
   -0.1447   -1.9783   -4.6510 H   0  0  0  0  0  0  0  0  0  0  0  0
   -0.5460   -3.4307   -6.5841 H   0  0  0  0  0  0  0  0  0  0  0  0
    0.2005   -2.7122   -8.8453 H   0  0  0  0  0  0  0  0  0  0  0  0
    0.5650    2.4099   -5.2430 H   0  0  0  0  0  0  0  0  0  0  0  0
    1.8011    2.3717   -3.9934 H   0  0  0  0  0  0  0  0  0  0  0  0
    1.3468   -0.5494   -9.1177 H   0  0  0  0  0  0  0  0  0  0  0  0
    2.8589    2.9037   -6.1622 H   0  0  0  0  0  0  0  0  0  0  0  0
    3.3856    1.3105   -5.6567 H   0  0  0  0  0  0  0  0  0  0  0  0
    1.2419    1.9997   -7.7105 H   0  0  0  0  0  0  0  0  0  0  0  0
    2.7429    1.1624   -8.0091 H   0  0  0  0  0  0  0  0  0  0  0  0
    1.3671   -0.8592    2.2182 H   0  0  0  0  0  0  0  0  0  0  0  0
    5.3603   -2.6814    1.9404 H   0  0  0  0  0  0  0  0  0  0  0  0
    5.7674   -1.1045    2.6403 H   0  0  0  0  0  0  0  0  0  0  0  0
    5.2681   -2.4480    3.6939 H   0  0  0  0  0  0  0  0  0  0  0  0
    4.8702   -0.3945    4.6390 H   0  0  0  0  0  0  0  0  0  0  0  0
    1.3401    1.8650    5.5516 H   0  0  0  0  0  0  0  0  0  0  0  0
    5.3128    1.7323    7.4692 H   0  0  0  0  0  0  0  0  0  0  0  0
    5.2112    0.0714    6.8588 H   0  0  0  0  0  0  0  0  0  0  0  0
    5.7608    1.3844    5.7912 H   0  0  0  0  0  0  0  0  0  0  0  0
   -6.5957    1.7459    0.9758 H   0  0  0  0  0  0  0  0  0  0  0  0
  1  2  1  0
  1 41  1  0
  1 42  1  0
  1 43  1  0
  2  3  1  0
  2  4  1  0
  2 44  1  1
  3  8  1  0
  4  5  1  0
  4  6  1  0
  4 45  1  1
  5 46  1  0
  6  7  1  0
  6  8  1  0
  6 47  1  6
  7 29  1  0
  7 48  1  0
  8  9  1  0
  8 49  1  1
  9 10  1  0
  9 18  1  0
 10 11  2  0
 10 50  1  0
 11 12  1  0
 12 13  1  0
 12 18  2  0
 13 14  1  0
 13 15  2  0
 14 19  1  0
 14 51  1  0
 15 16  1  0
 16 17  2  0
 16 52  1  0
 17 18  1  0
 19 20  1  0
 19 24  1  0
 19 53  1  1
 20 21  2  0
 20 25  1  0
 21 22  1  0
 21 54  1  0
 22 23  2  0
 22 55  1  0
 23 26  1  0
 23 56  1  0
 24 27  1  0
 24 57  1  0
 24 58  1  0
 25 26  2  0
 25 28  1  0
 26 59  1  0
 27 28  1  0
 27 60  1  0
 27 61  1  0
 28 62  1  0
 28 63  1  0
 29 30  2  0
 29 31  1  0
 31 32  2  0
 31 37  1  0
 32 33  1  0
 32 64  1  0
 33 34  1  0
 33 36  2  0
 34 35  1  0
 35 65  1  0
 35 66  1  0
 35 67  1  0
 36 38  1  0
 36 68  1  0
 37 38  2  0
 37 69  1  0
 38 39  1  0
 39 40  1  0
 40 70  1  0
 40 71  1  0
 40 72  1  0
 41 73  1  0
M  END
