
     RDKit          3D

 41 44  0  0  0  0  0  0  0  0999 V2000
    1.6589    0.9060   -0.3066 C   0  0  0  0  0  0  0  0  0  0  0  0
    3.6685   -0.3639    0.1269 C   0  0  0  0  0  0  0  0  0  0  0  0
   -6.1697    3.2656   -0.3444 C   0  0  0  0  0  0  0  0  0  0  0  0
   -5.3926    1.3094   -1.2024 C   0  0  0  0  0  0  0  0  0  0  0  0
   -1.4519   -3.4474    0.3164 C   0  0  0  0  0  0  0  0  0  0  0  0
   -4.9268    0.8723    0.0327 C   0  0  0  0  0  0  0  0  0  0  0  0
   -0.1059   -3.2004    0.2414 C   0  0  0  0  0  0  0  0  0  0  0  0
   -1.9018   -1.2485    0.1427 C   0  0  0  0  0  0  0  0  0  0  0  0
    5.8682    1.0501    0.1913 C   0  0  0  0  0  0  0  0  0  0  0  0
   -5.7438    2.9337    0.9334 C   0  0  0  0  0  0  0  0  0  0  0  0
   -5.1109    1.7158    1.1218 C   0  0  0  0  0  0  0  0  0  0  0  0
    2.4066    2.0800   -0.3852 C   0  0  0  0  0  0  0  0  0  0  0  0
    4.4027    0.7936    0.0454 C   0  0  0  0  0  0  0  0  0  0  0  0
    3.7708    2.0101   -0.2060 C   0  0  0  0  0  0  0  0  0  0  0  0
    2.2756   -0.3178   -0.0475 C   0  0  0  0  0  0  0  0  0  0  0  0
    0.3009   -1.8489    0.1112 C   0  0  0  0  0  0  0  0  0  0  0  0
    5.9826    2.5557   -0.0038 C   0  0  0  0  0  0  0  0  0  0  0  0
   -4.2250   -0.4473    0.1698 C   0  0  0  0  0  0  0  0  0  0  0  0
   -6.0006    2.4726   -1.3959 N   0  0  0  0  0  0  0  0  0  0  0  0
   -2.3716   -2.4891    0.2704 N   0  0  0  0  0  0  0  0  0  0  0  0
   -0.6130   -0.8973    0.0624 N   0  0  0  0  0  0  0  0  0  0  0  0
    4.7242    3.0230   -0.2306 N   0  0  0  0  0  0  0  0  0  0  0  0
    1.6152   -1.5489    0.0411 N   0  0  0  0  0  0  0  0  0  0  0  0
    6.9925    3.2274    0.0339 O   0  0  0  0  0  0  0  0  0  0  0  0
    1.0432   -4.4915    0.3094 Cl  0  0  0  0  0  0  0  0  0  0  0  0
    0.5922    0.9573   -0.4432 H   0  0  0  0  0  0  0  0  0  0  0  0
    4.1609   -1.3082    0.3301 H   0  0  0  0  0  0  0  0  0  0  0  0
   -5.2676    0.6783   -2.0774 H   0  0  0  0  0  0  0  0  0  0  0  0
   -1.8086   -4.4666    0.4204 H   0  0  0  0  0  0  0  0  0  0  0  0
    6.2609    0.7707    1.1719 H   0  0  0  0  0  0  0  0  0  0  0  0
    6.4756    0.5307   -0.5540 H   0  0  0  0  0  0  0  0  0  0  0  0
   -5.9095    3.6128    1.7581 H   0  0  0  0  0  0  0  0  0  0  0  0
   -4.7694    1.4200    2.1064 H   0  0  0  0  0  0  0  0  0  0  0  0
    1.9084    3.0193   -0.5859 H   0  0  0  0  0  0  0  0  0  0  0  0
   -4.4910   -0.9103    1.1239 H   0  0  0  0  0  0  0  0  0  0  0  0
   -4.5577   -1.1310   -0.6152 H   0  0  0  0  0  0  0  0  0  0  0  0
    4.5166    3.9982   -0.3823 H   0  0  0  0  0  0  0  0  0  0  0  0
    2.2360   -2.3398    0.1221 H   0  0  0  0  0  0  0  0  0  0  0  0
   -2.7945   -0.2458    0.0872 N   0  0  0  0  0  0  0  0  0  0  0  0
   -6.6703    4.2103   -0.5247 H   0  0  0  0  0  0  0  0  0  0  0  0
   -2.4345    0.6883   -0.0154 H   0  0  0  0  0  0  0  0  0  0  0  0
 24 17  2  0
 17  9  1  0
 17 22  1  0
  9 13  1  0
 22 14  1  0
 13 14  2  0
 13  2  1  0
 14 12  1  0
  2 15  2  0
 12  1  2  0
 15  1  1  0
 15 23  1  0
 23 16  1  0
 19  3  2  0
 19  4  1  0
  3 10  1  0
 16 21  2  0
 16  7  1  0
  4  6  2  0
 25  7  1  0
 21  8  1  0
  7  5  2  0
 10 11  2  0
  6 11  1  0
  6 18  1  0
 18 39  1  0
  8 39  1  0
  8 20  2  0
  5 20  1  0
  1 26  1  0
  2 27  1  0
  3 40  1  0
  4 28  1  0
  5 29  1  0
  9 30  1  0
  9 31  1  0
 10 32  1  0
 11 33  1  0
 12 34  1  0
 18 35  1  0
 18 36  1  0
 22 37  1  0
 23 38  1  0
 39 41  1  0
M  END
