
     RDKit          3D

 38 37  0  0  0  0  0  0  0  0999 V2000
   -0.3403   -0.0475    6.9827 C   0  0  0  0  0  0  0  0  0  0  0  0
    0.4935   -0.0320    5.7087 C   0  0  0  0  0  0  0  0  0  0  0  0
   -0.3608   -0.0298    4.4465 C   0  0  0  0  0  0  0  0  0  0  0  0
    0.4577   -0.0179    3.1615 C   0  0  0  0  0  0  0  0  0  0  0  0
   -0.4008   -0.0165    1.9024 C   0  0  0  0  0  0  0  0  0  0  0  0
    0.4152   -0.0049    0.6158 C   0  0  0  0  0  0  0  0  0  0  0  0
   -0.4447   -0.0050   -0.6424 C   0  0  0  0  0  0  0  0  0  0  0  0
    0.3721    0.0074   -1.9286 C   0  0  0  0  0  0  0  0  0  0  0  0
   -0.4857    0.0106   -3.1882 C   0  0  0  0  0  0  0  0  0  0  0  0
    0.3339    0.0105   -4.4723 C   0  0  0  0  0  0  0  0  0  0  0  0
   -0.5180    0.0137   -5.7359 C   0  0  0  0  0  0  0  0  0  0  0  0
    0.3178    0.0130   -7.0086 C   0  0  0  0  0  0  0  0  0  0  0  0
   -0.9748   -0.9350    7.0255 H   0  0  0  0  0  0  0  0  0  0  0  0
    0.2854   -0.0459    7.8760 H   0  0  0  0  0  0  0  0  0  0  0  0
   -0.9933    0.8260    7.0353 H   0  0  0  0  0  0  0  0  0  0  0  0
    1.1451    0.8473    5.7056 H   0  0  0  0  0  0  0  0  0  0  0  0
    1.1582   -0.9014    5.6938 H   0  0  0  0  0  0  0  0  0  0  0  0
   -1.0157   -0.9087    4.4518 H   0  0  0  0  0  0  0  0  0  0  0  0
   -1.0256    0.8415    4.4620 H   0  0  0  0  0  0  0  0  0  0  0  0
    1.1120    0.8614    3.1555 H   0  0  0  0  0  0  0  0  0  0  0  0
    1.1222   -0.8893    3.1463 H   0  0  0  0  0  0  0  0  0  0  0  0
   -1.0546   -0.8962    1.9089 H   0  0  0  0  0  0  0  0  0  0  0  0
   -1.0661    0.8542    1.9182 H   0  0  0  0  0  0  0  0  0  0  0  0
    1.0688    0.8748    0.6083 H   0  0  0  0  0  0  0  0  0  0  0  0
    1.0805   -0.8756    0.6000 H   0  0  0  0  0  0  0  0  0  0  0  0
   -1.0972   -0.8855   -0.6355 H   0  0  0  0  0  0  0  0  0  0  0  0
   -1.1108    0.8651   -0.6266 H   0  0  0  0  0  0  0  0  0  0  0  0
    1.0270    0.8861   -1.9339 H   0  0  0  0  0  0  0  0  0  0  0  0
    1.0363   -0.8642   -1.9448 H   0  0  0  0  0  0  0  0  0  0  0  0
   -1.1466   -0.8636   -3.1791 H   0  0  0  0  0  0  0  0  0  0  0  0
   -1.1439    0.8870   -3.1769 H   0  0  0  0  0  0  0  0  0  0  0  0
    0.9970    0.8834   -4.4805 H   0  0  0  0  0  0  0  0  0  0  0  0
    0.9916   -0.8665   -4.4826 H   0  0  0  0  0  0  0  0  0  0  0  0
   -1.1776   -0.8595   -5.7286 H   0  0  0  0  0  0  0  0  0  0  0  0
   -1.1747    0.8893   -5.7275 H   0  0  0  0  0  0  0  0  0  0  0  0
   -0.3065    0.0153   -7.9029 H   0  0  0  0  0  0  0  0  0  0  0  0
    0.9638    0.8922   -7.0545 H   0  0  0  0  0  0  0  0  0  0  0  0
    0.9594   -0.8692   -7.0561 H   0  0  0  0  0  0  0  0  0  0  0  0
  1  2  1  0
  1 13  1  0
  1 14  1  0
  1 15  1  0
  2  3  1  0
  2 16  1  0
  2 17  1  0
  3  4  1  0
  3 18  1  0
  3 19  1  0
  4  5  1  0
  4 20  1  0
  4 21  1  0
  5  6  1  0
  5 22  1  0
  5 23  1  0
  6  7  1  0
  6 24  1  0
  6 25  1  0
  7  8  1  0
  7 26  1  0
  7 27  1  0
  8  9  1  0
  8 28  1  0
  8 29  1  0
  9 10  1  0
  9 30  1  0
  9 31  1  0
 10 11  1  0
 10 32  1  0
 10 33  1  0
 11 12  1  0
 11 34  1  0
 11 35  1  0
 12 36  1  0
 12 37  1  0
 12 38  1  0
M  END
