
     RDKit          3D

 51 54  0  0  0  0  0  0  0  0999 V2000
    1.8174   -0.3462   -0.8764 C   0  0  0  0  0  0  0  0  0  0  0  0
    2.9177    0.2633    0.0032 C   0  0  1  0  0  0  0  0  0  0  0  0
    4.2173   -0.5297   -0.1079 C   0  0  0  0  0  0  0  0  0  0  0  0
    5.3163    0.0607    0.7697 C   0  0  0  0  0  0  0  0  0  0  0  0
    5.5405    1.5372    0.4613 C   0  0  0  0  0  0  0  0  0  0  0  0
    4.2401    2.3272    0.5688 C   0  0  0  0  0  0  0  0  0  0  0  0
    3.1516    1.7390   -0.3253 C   0  0  2  0  0  0  0  0  0  0  0  0
    1.8489    2.5260   -0.2473 C   0  0  0  0  0  0  0  0  0  0  0  0
    0.7687    1.8996   -1.1302 C   0  0  0  0  0  0  0  0  0  0  0  0
    0.5482    0.4543   -0.7797 C   0  0  0  0  0  0  0  0  0  0  0  0
   -0.6342   -0.0524   -0.3852 C   0  0  0  0  0  0  0  0  0  0  0  0
   -1.8289    0.7935   -0.1366 C   0  0  0  0  0  0  0  0  0  0  0  0
   -1.8058    1.8561    0.7639 C   0  0  0  0  0  0  0  0  0  0  0  0
   -2.9315    2.6317    1.0026 C   0  0  0  0  0  0  0  0  0  0  0  0
   -4.1220    2.3523    0.3386 C   0  0  0  0  0  0  0  0  0  0  0  0
   -5.2490    3.0695    0.5255 O   0  0  0  0  0  0  0  0  0  0  0  0
   -4.1702    1.2835   -0.5552 C   0  0  0  0  0  0  0  0  0  0  0  0
   -3.0395    0.5165   -0.7752 C   0  0  0  0  0  0  0  0  0  0  0  0
   -0.8599   -1.5029   -0.1659 C   0  0  0  0  0  0  0  0  0  0  0  0
   -1.3860   -1.9641    1.0428 C   0  0  0  0  0  0  0  0  0  0  0  0
   -1.6227   -3.3090    1.2670 C   0  0  0  0  0  0  0  0  0  0  0  0
   -1.3511   -4.2395    0.2650 C   0  0  0  0  0  0  0  0  0  0  0  0
   -1.6032   -5.5388    0.5254 O   0  0  0  0  0  0  0  0  0  0  0  0
   -0.8455   -3.7986   -0.9540 C   0  0  0  0  0  0  0  0  0  0  0  0
   -0.6086   -2.4469   -1.1590 C   0  0  0  0  0  0  0  0  0  0  0  0
    2.1660   -0.3555   -1.9172 H   0  0  0  0  0  0  0  0  0  0  0  0
    1.6671   -1.3863   -0.5858 H   0  0  0  0  0  0  0  0  0  0  0  0
    2.5759    0.2044    1.0472 H   0  0  0  0  0  0  0  0  0  0  0  0
    4.0390   -1.5745    0.1641 H   0  0  0  0  0  0  0  0  0  0  0  0
    4.5459   -0.5333   -1.1542 H   0  0  0  0  0  0  0  0  0  0  0  0
    5.0336   -0.0506    1.8223 H   0  0  0  0  0  0  0  0  0  0  0  0
    6.2447   -0.5006    0.6376 H   0  0  0  0  0  0  0  0  0  0  0  0
    6.2964    1.9549    1.1310 H   0  0  0  0  0  0  0  0  0  0  0  0
    5.9361    1.6386   -0.5551 H   0  0  0  0  0  0  0  0  0  0  0  0
    3.8923    2.3232    1.6088 H   0  0  0  0  0  0  0  0  0  0  0  0
    4.4105    3.3747    0.3026 H   0  0  0  0  0  0  0  0  0  0  0  0
    3.5067    1.7922   -1.3661 H   0  0  0  0  0  0  0  0  0  0  0  0
    1.5000    2.5604    0.7917 H   0  0  0  0  0  0  0  0  0  0  0  0
    2.0211    3.5620   -0.5533 H   0  0  0  0  0  0  0  0  0  0  0  0
   -0.1496    2.4830   -1.0866 H   0  0  0  0  0  0  0  0  0  0  0  0
    1.1124    1.9428   -2.1719 H   0  0  0  0  0  0  0  0  0  0  0  0
   -0.8913    2.0824    1.2991 H   0  0  0  0  0  0  0  0  0  0  0  0
   -2.8798    3.4489    1.7133 H   0  0  0  0  0  0  0  0  0  0  0  0
   -5.0926    3.7824    1.1545 H   0  0  0  0  0  0  0  0  0  0  0  0
   -5.0941    1.0581   -1.0740 H   0  0  0  0  0  0  0  0  0  0  0  0
   -3.0979   -0.3126   -1.4703 H   0  0  0  0  0  0  0  0  0  0  0  0
   -1.6094   -1.2560    1.8318 H   0  0  0  0  0  0  0  0  0  0  0  0
   -2.0201   -3.6434    2.2173 H   0  0  0  0  0  0  0  0  0  0  0  0
   -1.3634   -6.0851   -0.2313 H   0  0  0  0  0  0  0  0  0  0  0  0
   -0.6446   -4.5053   -1.7512 H   0  0  0  0  0  0  0  0  0  0  0  0
   -0.2293   -2.1216   -2.1200 H   0  0  0  0  0  0  0  0  0  0  0  0
 23 22  1  0
 24 22  2  0
 24 25  1  0
 22 21  1  0
 25 19  2  0
 21 20  2  0
 19 20  1  0
 19 11  1  0
 13 14  2  0
 13 12  1  0
 14 15  1  0
 11 12  1  0
 11 10  2  0
 12 18  2  0
 15 16  1  0
 15 17  2  0
 18 17  1  0
  1 10  1  0
  1  2  1  0
 10  9  1  0
  3  2  1  0
  3  4  1  0
  2  7  1  0
  4  5  1  0
  9  8  1  0
  7  8  1  0
  7  6  1  0
  5  6  1  0
  1 26  1  0
  1 27  1  0
  2 28  1  1
  3 29  1  0
  3 30  1  0
  4 31  1  0
  4 32  1  0
  5 33  1  0
  5 34  1  0
  6 35  1  0
  6 36  1  0
  7 37  1  6
  8 38  1  0
  8 39  1  0
  9 40  1  0
  9 41  1  0
 13 42  1  0
 14 43  1  0
 16 44  1  0
 17 45  1  0
 18 46  1  0
 20 47  1  0
 21 48  1  0
 23 49  1  0
 24 50  1  0
 25 51  1  0
M  END
