
     RDKit          3D

 22 23  0  0  0  0  0  0  0  0999 V2000
   -0.3915   -1.5614   -0.0180 N   0  0  0  0  0  0  0  0  0  0  0  0
   -1.6184   -0.9821   -0.0016 C   0  0  0  0  0  0  0  0  0  0  0  0
   -1.7169    0.3780    0.0235 C   0  0  0  0  0  0  0  0  0  0  0  0
   -0.5615    1.2315    0.0346 C   0  0  0  0  0  0  0  0  0  0  0  0
    1.9269    1.2681    0.0267 C   0  0  0  0  0  0  0  0  0  0  0  0
    3.1347    0.6165    0.0113 C   0  0  0  0  0  0  0  0  0  0  0  0
    3.1697   -0.7877   -0.0146 C   0  0  0  0  0  0  0  0  0  0  0  0
    2.0086   -1.5189   -0.0244 C   0  0  0  0  0  0  0  0  0  0  0  0
    0.7702   -0.8545   -0.0089 C   0  0  0  0  0  0  0  0  0  0  0  0
    0.7197    0.5482    0.0173 C   0  0  0  0  0  0  0  0  0  0  0  0
   -2.8114   -1.8773   -0.0132 C   0  0  0  0  0  0  0  0  0  0  0  0
   -2.9371    0.9601    0.0383 O   0  0  0  0  0  0  0  0  0  0  0  0
   -0.6910    2.4647    0.0583 O   0  0  0  0  0  0  0  0  0  0  0  0
   -3.4403   -1.7017    0.8597 H   0  0  0  0  0  0  0  0  0  0  0  0
   -3.4248   -1.7007   -0.8969 H   0  0  0  0  0  0  0  0  0  0  0  0
   -2.5222   -2.9268   -0.0104 H   0  0  0  0  0  0  0  0  0  0  0  0
   -2.7913    1.9175    0.0552 H   0  0  0  0  0  0  0  0  0  0  0  0
    1.8888    2.3492    0.0464 H   0  0  0  0  0  0  0  0  0  0  0  0
    4.0582    1.1794    0.0196 H   0  0  0  0  0  0  0  0  0  0  0  0
    4.1217   -1.3020   -0.0265 H   0  0  0  0  0  0  0  0  0  0  0  0
    2.0365   -2.6015   -0.0435 H   0  0  0  0  0  0  0  0  0  0  0  0
   -0.3395   -2.5691   -0.0356 H   0  0  0  0  0  0  0  0  0  0  0  0
  1  2  1  0
  1  9  1  0
  1 22  1  0
  2  3  2  0
  2 11  1  0
  3  4  1  0
  3 12  1  0
  4 10  1  0
  4 13  2  0
  5  6  1  0
  5 10  2  0
  6  7  2  0
  7  8  1  0
  8  9  2  0
  9 10  1  0
 11 14  1  0
 11 15  1  0
 11 16  1  0
 12 17  1  0
  5 18  1  0
  6 19  1  0
  7 20  1  0
  8 21  1  0
M  END
