
     RDKit          3D

 35 38  0  0  0  0  0  0  0  0999 V2000
   -5.3984    1.0623   -1.1033 O   0  0  0  0  0  0  0  0  0  0  0  0
   -4.5037    0.5078   -0.4769 C   0  0  0  0  0  0  0  0  0  0  0  0
   -3.1015    0.8363   -0.6176 C   0  0  0  0  0  0  0  0  0  0  0  0
   -2.4688    1.7646   -1.4042 N   0  0  0  0  0  0  0  0  0  0  0  0
   -1.2089    1.6404   -1.1377 C   0  0  0  0  0  0  0  0  0  0  0  0
   -4.7779   -0.4887    0.4279 N   0  0  0  0  0  0  0  0  0  0  0  0
   -3.8484   -1.1008    1.1102 C   0  0  0  0  0  0  0  0  0  0  0  0
   -4.1788   -2.0816    1.9577 N   0  0  0  0  0  0  0  0  0  0  0  0
   -2.5119   -0.8225    1.0007 N   0  0  0  0  0  0  0  0  0  0  0  0
   -2.1762    0.1584    0.1268 C   0  0  0  0  0  0  0  0  0  0  0  0
   -0.9611    0.6610   -0.1981 N   0  0  0  0  0  0  0  0  0  0  0  0
    0.3348    0.2753    0.2944 C   0  0  1  0  0  0  0  0  0  0  0  0
    1.2385   -0.3395   -0.7935 C   0  0  2  0  0  0  0  0  0  0  0  0
    1.7390   -1.6003   -0.3808 O   0  0  0  0  0  0  0  0  0  0  0  0
    0.9758    1.4327    0.7442 O   0  0  0  0  0  0  0  0  0  0  0  0
    2.3693    1.3393    0.4998 C   0  0  2  0  0  0  0  0  0  0  0  0
    2.9772    2.7183    0.4523 C   0  0  0  0  0  0  0  0  0  0  0  0
    2.8911    3.2999    1.7259 O   0  0  0  0  0  0  0  0  0  0  0  0
    2.4514    0.6011   -0.8378 C   0  0  1  0  0  0  0  0  0  0  0  0
    3.6122   -0.1989   -0.9628 O   0  0  0  0  0  0  0  0  0  0  0  0
    3.3347   -1.7420   -0.5879 P   0  0  2  0  0  0  0  0  0  0  0  0
    3.5426   -2.4757   -1.9785 O   0  0  0  0  0  0  0  0  0  0  0  0
    4.0549   -2.3164    0.5570 O   0  0  0  0  0  0  0  0  0  0  0  0
   -0.4108    2.2235   -1.5716 H   0  0  0  0  0  0  0  0  0  0  0  0
   -5.1545   -2.2305    2.1480 H   0  0  0  0  0  0  0  0  0  0  0  0
   -3.5186   -2.4670    2.6106 H   0  0  0  0  0  0  0  0  0  0  0  0
   -1.8305   -1.3197    1.5563 H   0  0  0  0  0  0  0  0  0  0  0  0
    0.1918   -0.4541    1.0996 H   0  0  0  0  0  0  0  0  0  0  0  0
    0.7235   -0.4447   -1.7499 H   0  0  0  0  0  0  0  0  0  0  0  0
    2.8584    0.7448    1.2850 H   0  0  0  0  0  0  0  0  0  0  0  0
    4.0161    2.6056    0.1171 H   0  0  0  0  0  0  0  0  0  0  0  0
    2.4547    3.3093   -0.3125 H   0  0  0  0  0  0  0  0  0  0  0  0
    3.3329    4.1536    1.6965 H   0  0  0  0  0  0  0  0  0  0  0  0
    2.4067    1.2883   -1.6847 H   0  0  0  0  0  0  0  0  0  0  0  0
    3.9948   -3.3284   -1.9153 H   0  0  0  0  0  0  0  0  0  0  0  0
  1  2  2  0
  4  3  1  0
  4  5  2  0
  2  3  1  0
  2  6  1  0
  3 10  2  0
  6  7  2  0
  5 11  1  0
 10 11  1  0
 10  9  1  0
 11 12  1  0
  7  9  1  0
  7  8  1  0
 15 12  1  0
 15 16  1  0
 12 13  1  0
 18 17  1  0
 17 16  1  0
 16 19  1  0
 13 14  1  0
 13 19  1  0
 14 21  1  0
 19 20  1  0
 20 21  1  0
 21 23  2  0
 21 22  1  6
  5 24  1  0
  8 25  1  0
  8 26  1  0
  9 27  1  0
 12 28  1  1
 13 29  1  6
 16 30  1  1
 17 31  1  0
 17 32  1  0
 18 33  1  0
 19 34  1  6
 22 35  1  0
M  END
