
     RDKit          3D

 54 56  0  0  0  0  0  0  0  0999 V2000
    5.7572    3.9442    0.0663 C   0  0  0  0  0  0  0  0  0  0  0  0
    4.3990    2.0775    0.8321 C   0  0  0  0  0  0  0  0  0  0  0  0
    2.9320    0.3145    1.4261 C   0  0  0  0  0  0  0  0  0  0  0  0
    2.9721   -0.3497    2.6446 C   0  0  0  0  0  0  0  0  0  0  0  0
    1.7981   -0.8152    3.2215 C   0  0  0  0  0  0  0  0  0  0  0  0
    0.5811   -0.6197    2.5891 C   0  0  0  0  0  0  0  0  0  0  0  0
    5.4408    2.5365    0.1049 N   0  0  0  0  0  0  0  0  0  0  0  0
    0.5341    0.0426    1.3621 C   0  0  0  0  0  0  0  0  0  0  0  0
    3.7167    2.8315    1.5185 O   0  0  0  0  0  0  0  0  0  0  0  0
    1.7140    0.5099    0.7883 C   0  0  0  0  0  0  0  0  0  0  0  0
   -0.7426    0.2568    0.6763 C   0  0  0  0  0  0  0  0  0  0  0  0
   -1.7103   -0.6456    0.3291 C   0  0  0  0  0  0  0  0  0  0  0  0
   -2.8090   -0.0641   -0.3580 C   0  0  0  0  0  0  0  0  0  0  0  0
   -2.6630    1.2914   -0.5119 C   0  0  0  0  0  0  0  0  0  0  0  0
   -3.5842    2.2127   -1.1758 C   0  0  0  0  0  0  0  0  0  0  0  0
   -4.9526   -0.8883    0.0105 C   0  0  0  0  0  0  0  0  0  0  0  0
   -6.0067   -1.6789   -0.7209 C   0  0  0  0  0  0  0  0  0  0  0  0
    4.8804   -0.3193    0.0856 C   0  0  2  0  0  0  0  0  0  0  0  0
    6.3409   -0.4684    0.5173 C   0  0  0  0  0  0  0  0  0  0  0  0
    6.9587   -1.6955   -0.1502 C   0  0  0  0  0  0  0  0  0  0  0  0
    6.8244   -1.6349   -1.6687 C   0  0  0  0  0  0  0  0  0  0  0  0
    5.3641   -1.4838   -2.0814 C   0  0  0  0  0  0  0  0  0  0  0  0
    4.7289   -0.2552   -1.4363 C   0  0  0  0  0  0  0  0  0  0  0  0
    4.1361    0.7285    0.7986 N   0  0  0  0  0  0  0  0  0  0  0  0
   -1.1823    1.8365    0.1708 S   0  0  0  0  0  0  0  0  0  0  0  0
   -3.0869    3.4422   -1.2103 O   0  0  0  0  0  0  0  0  0  0  0  0
   -4.6558    1.8973   -1.6307 O   0  0  0  0  0  0  0  0  0  0  0  0
   -3.8246   -0.7961   -0.8370 O   0  0  0  0  0  0  0  0  0  0  0  0
   -7.0852   -1.8100    0.0353 O   0  0  0  0  0  0  0  0  0  0  0  0
   -5.8847   -2.1248   -1.8286 O   0  0  0  0  0  0  0  0  0  0  0  0
   -1.6062   -2.4854    0.6046 Br  0  0  0  0  0  0  0  0  0  0  0  0
    4.9406    4.5454   -0.3374 H   0  0  0  0  0  0  0  0  0  0  0  0
    6.0063    4.3282    1.0552 H   0  0  0  0  0  0  0  0  0  0  0  0
    3.9229   -0.4994    3.1406 H   0  0  0  0  0  0  0  0  0  0  0  0
    1.8312   -1.3240    4.1756 H   0  0  0  0  0  0  0  0  0  0  0  0
   -0.3316   -0.9624    3.0578 H   0  0  0  0  0  0  0  0  0  0  0  0
    1.6931    1.0102   -0.1725 H   0  0  0  0  0  0  0  0  0  0  0  0
   -5.3507    0.0993    0.2614 H   0  0  0  0  0  0  0  0  0  0  0  0
   -4.7069   -1.3939    0.9504 H   0  0  0  0  0  0  0  0  0  0  0  0
    4.3900   -1.2467    0.3956 H   0  0  0  0  0  0  0  0  0  0  0  0
    6.9338    0.4111    0.2544 H   0  0  0  0  0  0  0  0  0  0  0  0
    6.3875   -0.5621    1.6051 H   0  0  0  0  0  0  0  0  0  0  0  0
    8.0087   -1.7804    0.1377 H   0  0  0  0  0  0  0  0  0  0  0  0
    6.4600   -2.5979    0.2188 H   0  0  0  0  0  0  0  0  0  0  0  0
    7.4019   -0.7863   -2.0521 H   0  0  0  0  0  0  0  0  0  0  0  0
    7.2520   -2.5327   -2.1208 H   0  0  0  0  0  0  0  0  0  0  0  0
    5.2746   -1.4187   -3.1678 H   0  0  0  0  0  0  0  0  0  0  0  0
    4.8092   -2.3771   -1.7741 H   0  0  0  0  0  0  0  0  0  0  0  0
    3.6682   -0.1936   -1.6928 H   0  0  0  0  0  0  0  0  0  0  0  0
    5.2006    0.6424   -1.8485 H   0  0  0  0  0  0  0  0  0  0  0  0
   -3.7071    4.0473   -1.6446 H   0  0  0  0  0  0  0  0  0  0  0  0
   -7.7648   -2.3208   -0.4299 H   0  0  0  0  0  0  0  0  0  0  0  0
    6.6251    4.0756   -0.5742 H   0  0  0  0  0  0  0  0  0  0  0  0
    5.8952    1.9485   -0.5681 H   0  0  0  0  0  0  0  0  0  0  0  0
  1  7  1  0
  1 32  1  0
  1 33  1  0
  7  2  1  0
  9  2  2  0
  2 24  1  0
  4  3  2  0
  3 24  1  0
  3 10  1  0
  5  4  1  0
  4 34  1  0
  5  6  2  0
  5 35  1  0
  6  8  1  0
  6 36  1  0
  8 10  2  0
  8 11  1  0
 10 37  1  0
 25 11  1  0
 11 12  2  0
 12 13  1  0
 12 31  1  0
 14 13  2  0
 13 28  1  0
 25 14  1  0
 15 14  1  0
 27 15  2  0
 15 26  1  0
 16 28  1  0
 16 17  1  0
 16 38  1  0
 16 39  1  0
 30 17  2  0
 17 29  1  0
 24 18  1  0
 19 18  1  0
 18 23  1  0
 18 40  1  1
 19 20  1  0
 19 41  1  0
 19 42  1  0
 20 21  1  0
 20 43  1  0
 20 44  1  0
 21 22  1  0
 21 45  1  0
 21 46  1  0
 23 22  1  0
 22 47  1  0
 22 48  1  0
 23 49  1  0
 23 50  1  0
 26 51  1  0
 29 52  1  0
  1 53  1  0
  7 54  1  0
M  END
