
     RDKit          3D

 50 53  0  0  0  0  0  0  0  0999 V2000
   -5.8858    2.5373    0.5048 C   0  0  0  0  0  0  0  0  0  0  0  0
   -3.1368   -0.0292    0.1924 C   0  0  0  0  0  0  0  0  0  0  0  0
   -2.8135    2.3085    0.8328 C   0  0  0  0  0  0  0  0  0  0  0  0
   -7.0410   -0.1390   -0.3332 C   0  0  0  0  0  0  0  0  0  0  0  0
   -1.3339   -1.6167   -0.0550 C   0  0  0  0  0  0  0  0  0  0  0  0
    0.7572   -2.8353    0.6556 C   0  0  0  0  0  0  0  0  0  0  0  0
    2.9213   -1.9835    0.0829 C   0  0  0  0  0  0  0  0  0  0  0  0
    5.5633    1.0576    0.0418 C   0  0  0  0  0  0  0  0  0  0  0  0
   -5.0592    1.3079    0.2947 C   0  0  0  0  0  0  0  0  0  0  0  0
   -3.6379    1.2248    0.4567 C   0  0  0  0  0  0  0  0  0  0  0  0
   -5.5907    0.1191   -0.0810 C   0  0  0  0  0  0  0  0  0  0  0  0
   -4.3885   -1.1166   -0.2541 S   0  0  0  0  0  0  0  0  0  0  0  0
   -7.2795    2.3619   -0.0957 C   0  0  0  0  0  0  0  0  0  0  0  0
   -1.8126   -0.3879    0.2775 N   0  0  0  0  0  0  0  0  0  0  0  0
   -2.1259    3.1859    1.1329 N   0  0  0  0  0  0  0  0  0  0  0  0
   -7.8715    1.0010    0.2566 C   0  0  0  0  0  0  0  0  0  0  0  0
    0.1474   -1.7455    0.0390 C   0  0  0  0  0  0  0  0  0  0  0  0
   -2.0601   -2.5170   -0.4182 O   0  0  0  0  0  0  0  0  0  0  0  0
    0.9528   -0.7827   -0.5547 C   0  0  0  0  0  0  0  0  0  0  0  0
    2.3344   -0.8880   -0.5427 C   0  0  0  0  0  0  0  0  0  0  0  0
    2.1366   -2.9523    0.6843 C   0  0  0  0  0  0  0  0  0  0  0  0
    3.2896    0.4084   -1.3226 S   0  0  1  0  0  0  0  0  0  0  0  0
    4.1146    1.1064   -0.1144 N   0  0  0  0  0  0  0  0  0  0  0  0
    4.2376   -0.1839   -2.2459 O   0  0  0  0  0  0  0  0  0  0  0  0
    2.2998    1.3457   -1.8273 O   0  0  0  0  0  0  0  0  0  0  0  0
    4.6240   -2.1765    0.1494 Cl  0  0  0  0  0  0  0  0  0  0  0  0
    3.4031    1.7620    0.9769 C   0  0  0  0  0  0  0  0  0  0  0  0
    4.0152    3.1326    1.2053 C   0  0  0  0  0  0  0  0  0  0  0  0
    6.0611    2.4677    0.3032 C   0  0  0  0  0  0  0  0  0  0  0  0
    5.4064    3.0490    1.4090 O   0  0  0  0  0  0  0  0  0  0  0  0
   -5.3904    3.4053    0.0622 H   0  0  0  0  0  0  0  0  0  0  0  0
   -5.9603    2.7439    1.5771 H   0  0  0  0  0  0  0  0  0  0  0  0
   -7.2236   -0.2229   -1.4090 H   0  0  0  0  0  0  0  0  0  0  0  0
   -7.3460   -1.0919    0.1051 H   0  0  0  0  0  0  0  0  0  0  0  0
    5.8247    0.4046    0.8792 H   0  0  0  0  0  0  0  0  0  0  0  0
    6.0338    0.6629   -0.8552 H   0  0  0  0  0  0  0  0  0  0  0  0
   -7.2219    2.4622   -1.1835 H   0  0  0  0  0  0  0  0  0  0  0  0
   -7.9311    3.1616    0.2593 H   0  0  0  0  0  0  0  0  0  0  0  0
   -1.1802    0.2853    0.6894 H   0  0  0  0  0  0  0  0  0  0  0  0
   -8.8975    0.9256   -0.1067 H   0  0  0  0  0  0  0  0  0  0  0  0
   -7.9135    0.8927    1.3444 H   0  0  0  0  0  0  0  0  0  0  0  0
    0.4938    0.0562   -1.0602 H   0  0  0  0  0  0  0  0  0  0  0  0
    2.6010   -3.7944    1.1775 H   0  0  0  0  0  0  0  0  0  0  0  0
    2.3466    1.8804    0.7389 H   0  0  0  0  0  0  0  0  0  0  0  0
    3.4747    1.1476    1.8799 H   0  0  0  0  0  0  0  0  0  0  0  0
    3.5786    3.5850    2.0963 H   0  0  0  0  0  0  0  0  0  0  0  0
    3.7845    3.7764    0.3456 H   0  0  0  0  0  0  0  0  0  0  0  0
    7.1272    2.4408    0.5319 H   0  0  0  0  0  0  0  0  0  0  0  0
    5.9197    3.0798   -0.5980 H   0  0  0  0  0  0  0  0  0  0  0  0
   -0.1687   -4.0418    1.4511 Cl  0  0  0  0  0  0  0  0  0  0  0  0
  1  9  1  0
  1 13  1  0
  1 31  1  0
  1 32  1  0
  2 10  2  0
  2 12  1  0
  2 14  1  0
  3 10  1  0
  3 15  3  0
  4 11  1  0
  4 16  1  0
  4 33  1  0
  4 34  1  0
  5 14  1  0
  5 17  1  0
  5 18  2  0
  6 17  2  0
  6 21  1  0
  6 50  1  0
  7 20  1  0
  7 21  2  0
  7 26  1  0
  8 23  1  0
  8 29  1  0
  8 35  1  0
  8 36  1  0
  9 10  1  0
  9 11  2  0
 11 12  1  0
 13 16  1  0
 13 37  1  0
 13 38  1  0
 14 39  1  0
 16 40  1  0
 16 41  1  0
 17 19  1  0
 19 20  2  0
 19 42  1  0
 22 20  1  1
 21 43  1  0
 22 23  1  0
 22 24  2  0
 22 25  2  0
 23 27  1  0
 27 28  1  0
 27 44  1  0
 27 45  1  0
 28 30  1  0
 28 46  1  0
 28 47  1  0
 29 30  1  0
 29 48  1  0
 29 49  1  0
M  END
