
     RDKit          3D

 12 11  0  0  0  0  0  0  0  0999 V2000
    2.4477   -0.3741   -0.4099 C   0  0  0  0  0  0  0  0  0  0  0  0
    2.4765    0.3908   -1.3570 O   0  0  0  0  0  0  0  0  0  0  0  0
    1.4262   -0.5313    0.4444 N   0  0  0  0  0  0  0  0  0  0  0  0
    0.1628    0.1527    0.3572 C   0  0  0  0  0  0  0  0  0  0  0  0
   -0.8915   -0.7425   -0.2817 C   0  0  0  0  0  0  0  0  0  0  0  0
   -2.4760    0.1145   -0.2851 Cl  0  0  0  0  0  0  0  0  0  0  0  0
    3.2937   -1.0261   -0.1497 H   0  0  0  0  0  0  0  0  0  0  0  0
    1.5315   -1.2285    1.1635 H   0  0  0  0  0  0  0  0  0  0  0  0
    0.2847    1.0508   -0.2451 H   0  0  0  0  0  0  0  0  0  0  0  0
   -0.1637    0.4550    1.3521 H   0  0  0  0  0  0  0  0  0  0  0  0
   -1.0339   -1.6728    0.2670 H   0  0  0  0  0  0  0  0  0  0  0  0
   -0.6454   -0.9724   -1.3163 H   0  0  0  0  0  0  0  0  0  0  0  0
  1  2  2  0
  1  3  1  0
  1  7  1  0
  3  4  1  0
  3  8  1  0
  4  5  1  0
  4  9  1  0
  4 10  1  0
  5  6  1  0
  5 11  1  0
  5 12  1  0
M  END
