
     RDKit          3D

 74 80  0  0  0  0  0  0  0  0999 V2000
    5.3251   -0.4192   -3.9443 C   0  0  0  0  0  0  0  0  0  0  0  0
    5.5842   -0.6337   -2.4873 C   0  0  0  0  0  0  0  0  0  0  0  0
    3.9957    1.0054   -2.7930 C   0  0  0  0  0  0  0  0  0  0  0  0
    4.7554    0.1768   -1.7921 C   0  0  0  0  0  0  0  0  0  0  0  0
    4.5397    0.3497   -0.3764 C   0  0  0  0  0  0  0  0  0  0  0  0
    3.2989    0.6014    0.3179 C   0  0  0  0  0  0  0  0  0  0  0  0
    5.5073    0.3084    0.5990 C   0  0  0  0  0  0  0  0  0  0  0  0
    4.9777    0.5556    1.8180 N   0  0  0  0  0  0  0  0  0  0  0  0
    6.5950   -1.5939   -2.0848 C   0  0  0  0  0  0  0  0  0  0  0  0
    6.6200   -2.9102   -2.4716 C   0  0  0  0  0  0  0  0  0  0  0  0
    8.4968   -2.6110   -1.3313 C   0  0  0  0  0  0  0  0  0  0  0  0
    1.9520    0.6681   -0.0582 C   0  0  0  0  0  0  0  0  0  0  0  0
    0.9915    0.8819    0.9103 C   0  0  0  0  0  0  0  0  0  0  0  0
    2.6570    0.9442    2.6677 C   0  0  0  0  0  0  0  0  0  0  0  0
    1.3406    1.0289    2.2611 C   0  0  0  0  0  0  0  0  0  0  0  0
    9.6980   -0.3765   -0.2617 C   0  0  0  0  0  0  0  0  0  0  0  0
   10.3250   -1.6288   -0.1791 C   0  0  0  0  0  0  0  0  0  0  0  0
    5.8483   -0.9827   -4.8730 O   0  0  0  0  0  0  0  0  0  0  0  0
    8.0743   -5.9094   -1.2961 C   0  0  0  0  0  0  0  0  0  0  0  0
    5.1895   -4.4396    0.5032 C   0  0  0  0  0  0  0  0  0  0  0  0
    4.9063   -3.7678    1.6769 C   0  0  0  0  0  0  0  0  0  0  0  0
    6.9436   -4.5835    2.5852 C   0  0  0  0  0  0  0  0  0  0  0  0
    5.7724   -3.8346    2.7652 C   0  0  0  0  0  0  0  0  0  0  0  0
    5.7541    0.5804    3.0437 C   0  0  0  0  0  0  0  0  0  0  0  0
    6.1738   -0.8144    3.4824 C   0  0  0  0  0  0  0  0  0  0  0  0
    5.3923   -3.1580    4.0590 C   0  0  0  0  0  0  0  0  0  0  0  0
    5.0001   -1.6914    3.8916 C   0  0  0  0  0  0  0  0  0  0  0  0
    7.6505   -5.4982    4.7420 C   0  0  0  0  0  0  0  0  0  0  0  0
    7.8231   -1.3718   -1.3749 C   0  0  0  0  0  0  0  0  0  0  0  0
    8.4629   -0.2372   -0.8637 C   0  0  0  0  0  0  0  0  0  0  0  0
    9.7417   -2.7570   -0.7230 C   0  0  0  0  0  0  0  0  0  0  0  0
    7.7408   -3.5276   -2.0141 N   0  0  0  0  0  0  0  0  0  0  0  0
    8.1678   -4.8608   -2.3922 C   0  0  0  0  0  0  0  0  0  0  0  0
    6.6643   -6.0855   -0.7335 C   0  0  0  0  0  0  0  0  0  0  0  0
    6.3467   -5.2035    0.4428 C   0  0  0  0  0  0  0  0  0  0  0  0
    7.1941   -5.2461    1.4629 N   0  0  0  0  0  0  0  0  0  0  0  0
    7.9554   -4.7082    3.5712 N   0  0  0  0  0  0  0  0  0  0  0  0
    8.7694   -3.5384    3.8051 C   0  0  0  0  0  0  0  0  0  0  0  0
    3.2389    1.9164   -2.5707 O   0  0  0  0  0  0  0  0  0  0  0  0
    4.3586    0.5546   -4.0368 N   0  0  0  0  0  0  0  0  0  0  0  0
    3.6216    0.7210    1.6869 C   0  0  0  0  0  0  0  0  0  0  0  0
    6.5667    0.1470    0.4968 H   0  0  0  0  0  0  0  0  0  0  0  0
    5.8956   -3.4604   -3.0523 H   0  0  0  0  0  0  0  0  0  0  0  0
    1.6524    0.5449   -1.0892 H   0  0  0  0  0  0  0  0  0  0  0  0
   -0.0511    0.9346    0.6245 H   0  0  0  0  0  0  0  0  0  0  0  0
    2.9184    1.0361    3.7138 H   0  0  0  0  0  0  0  0  0  0  0  0
    0.5662    1.1984    2.9977 H   0  0  0  0  0  0  0  0  0  0  0  0
   10.1950    0.4954    0.1435 H   0  0  0  0  0  0  0  0  0  0  0  0
   11.2904   -1.7106    0.3030 H   0  0  0  0  0  0  0  0  0  0  0  0
    8.7688   -5.6932   -0.4822 H   0  0  0  0  0  0  0  0  0  0  0  0
    8.4102   -6.8482   -1.7412 H   0  0  0  0  0  0  0  0  0  0  0  0
    4.5143   -4.3921   -0.3407 H   0  0  0  0  0  0  0  0  0  0  0  0
    3.9879   -3.1970    1.7496 H   0  0  0  0  0  0  0  0  0  0  0  0
    5.1579    1.0678    3.8151 H   0  0  0  0  0  0  0  0  0  0  0  0
    6.6296    1.2106    2.8823 H   0  0  0  0  0  0  0  0  0  0  0  0
    6.8712   -0.7149    4.3186 H   0  0  0  0  0  0  0  0  0  0  0  0
    6.7371   -1.2893    2.6725 H   0  0  0  0  0  0  0  0  0  0  0  0
    4.5508   -3.7025    4.4977 H   0  0  0  0  0  0  0  0  0  0  0  0
    6.1991   -3.2253    4.7861 H   0  0  0  0  0  0  0  0  0  0  0  0
    4.1937   -1.6096    3.1585 H   0  0  0  0  0  0  0  0  0  0  0  0
    4.5848   -1.3240    4.8340 H   0  0  0  0  0  0  0  0  0  0  0  0
    7.0766   -6.3798    4.4557 H   0  0  0  0  0  0  0  0  0  0  0  0
    7.0852   -4.9703    5.5220 H   0  0  0  0  0  0  0  0  0  0  0  0
    8.5800   -5.8475    5.1980 H   0  0  0  0  0  0  0  0  0  0  0  0
    8.0122    0.7438   -0.9570 H   0  0  0  0  0  0  0  0  0  0  0  0
   10.2471   -3.7132   -0.6770 H   0  0  0  0  0  0  0  0  0  0  0  0
    9.1930   -4.8001   -2.7640 H   0  0  0  0  0  0  0  0  0  0  0  0
    7.5502   -5.1649   -3.2379 H   0  0  0  0  0  0  0  0  0  0  0  0
    6.5494   -7.1208   -0.3999 H   0  0  0  0  0  0  0  0  0  0  0  0
    5.9187   -5.9424   -1.5201 H   0  0  0  0  0  0  0  0  0  0  0  0
    9.0477   -3.0815    2.8547 H   0  0  0  0  0  0  0  0  0  0  0  0
    9.6923   -3.8344    4.3090 H   0  0  0  0  0  0  0  0  0  0  0  0
    8.2964   -2.7636    4.4244 H   0  0  0  0  0  0  0  0  0  0  0  0
    4.0180    0.9425   -4.9046 H   0  0  0  0  0  0  0  0  0  0  0  0
  1  2  1  0
  1 40  1  0
  1 18  2  0
  2  9  1  0
  2  4  2  0
  3  4  1  0
  3 39  2  0
  3 40  1  0
  4  5  1  0
  5  6  1  0
  5  7  2  0
  6 41  2  0
  6 12  1  0
  7  8  1  0
  7 42  1  0
  8 24  1  0
  8 41  1  0
  9 10  2  0
  9 29  1  0
 10 32  1  0
 10 43  1  0
 11 32  1  0
 11 31  1  0
 11 29  2  0
 12 13  2  0
 12 44  1  0
 13 15  1  0
 13 45  1  0
 14 15  2  0
 14 41  1  0
 14 46  1  0
 15 47  1  0
 16 17  1  0
 16 30  2  0
 16 48  1  0
 17 31  2  0
 17 49  1  0
 19 34  1  0
 19 33  1  0
 19 50  1  0
 19 51  1  0
 20 35  2  0
 20 21  1  0
 20 52  1  0
 21 23  2  0
 21 53  1  0
 22 37  1  0
 22 36  2  0
 22 23  1  0
 23 26  1  0
 24 25  1  0
 24 54  1  0
 24 55  1  0
 25 27  1  0
 25 56  1  0
 25 57  1  0
 26 27  1  0
 26 58  1  0
 26 59  1  0
 27 60  1  0
 27 61  1  0
 28 37  1  0
 28 62  1  0
 28 63  1  0
 28 64  1  0
 29 30  1  0
 30 65  1  0
 31 66  1  0
 32 33  1  0
 33 67  1  0
 33 68  1  0
 34 35  1  0
 34 69  1  0
 34 70  1  0
 35 36  1  0
 37 38  1  0
 38 71  1  0
 38 72  1  0
 38 73  1  0
 40 74  1  0
M  END
