
     RDKit          3D

 32 32  0  0  0  0  0  0  0  0999 V2000
   -4.5786    1.8916   -0.0324 C   0  0  0  0  0  0  0  0  0  0  0  0
   -4.0001    0.6171    0.1571 O   0  0  0  0  0  0  0  0  0  0  0  0
   -2.7137    0.4461   -0.2021 C   0  0  0  0  0  0  0  0  0  0  0  0
   -1.9085    1.4134   -0.7757 C   0  0  0  0  0  0  0  0  0  0  0  0
   -0.5823    1.1287   -1.1051 C   0  0  0  0  0  0  0  0  0  0  0  0
   -0.0472   -0.1221   -0.8662 C   0  0  0  0  0  0  0  0  0  0  0  0
   -0.8633   -1.1041   -0.2935 C   0  0  0  0  0  0  0  0  0  0  0  0
   -2.1802   -0.8388    0.0371 C   0  0  0  0  0  0  0  0  0  0  0  0
   -3.0319   -1.7270    0.5832 O   0  0  0  0  0  0  0  0  0  0  0  0
   -2.5580   -3.0325    0.8418 C   0  0  0  0  0  0  0  0  0  0  0  0
    1.3929   -0.4319   -1.1695 C   0  0  0  0  0  0  0  0  0  0  0  0
    2.2654   -0.3514    0.0893 C   0  0  1  0  0  0  0  0  0  0  0  0
    3.7189   -0.6681   -0.2038 C   0  0  0  0  0  0  0  0  0  0  0  0
    4.1351   -1.0900   -1.2492 O   0  0  0  0  0  0  0  0  0  0  0  0
    4.4758   -0.4387    0.8596 O   0  0  0  0  0  0  0  0  0  0  0  0
    2.1789    1.0373    0.6904 C   0  0  0  0  0  0  0  0  0  0  0  0
    2.5941    2.0174    0.1258 O   0  0  0  0  0  0  0  0  0  0  0  0
    1.5877    1.0541    1.8710 O   0  0  0  0  0  0  0  0  0  0  0  0
   -5.5987    1.8264    0.3384 H   0  0  0  0  0  0  0  0  0  0  0  0
   -4.0491    2.6679    0.5268 H   0  0  0  0  0  0  0  0  0  0  0  0
   -4.6054    2.1760   -1.0878 H   0  0  0  0  0  0  0  0  0  0  0  0
   -2.2938    2.4031   -0.9811 H   0  0  0  0  0  0  0  0  0  0  0  0
    0.0227    1.9048   -1.5571 H   0  0  0  0  0  0  0  0  0  0  0  0
   -0.4459   -2.0877   -0.1155 H   0  0  0  0  0  0  0  0  0  0  0  0
    1.4808   -1.4388   -1.5800 H   0  0  0  0  0  0  0  0  0  0  0  0
    1.7769    0.2547   -1.9257 H   0  0  0  0  0  0  0  0  0  0  0  0
   -3.3857   -3.5801    1.2855 H   0  0  0  0  0  0  0  0  0  0  0  0
   -2.2492   -3.5443   -0.0738 H   0  0  0  0  0  0  0  0  0  0  0  0
   -1.7187   -3.0317    1.5422 H   0  0  0  0  0  0  0  0  0  0  0  0
    1.9184   -1.0878    0.8210 H   0  0  0  0  0  0  0  0  0  0  0  0
    5.4036   -0.6472    0.6699 H   0  0  0  0  0  0  0  0  0  0  0  0
    1.5313    1.9641    2.2023 H   0  0  0  0  0  0  0  0  0  0  0  0
  1  2  1  0
  2  3  1  0
  3  4  2  0
  3  8  1  0
  4  5  1  0
  5  6  2  0
  6  7  1  0
  6 11  1  0
  7  8  2  0
  8  9  1  0
  9 10  1  0
 11 12  1  0
 12 13  1  0
 12 16  1  0
 13 14  2  0
 13 15  1  0
 16 17  2  0
 16 18  1  0
  1 19  1  0
  1 20  1  0
  1 21  1  0
  4 22  1  0
  5 23  1  0
  7 24  1  0
 11 25  1  0
 11 26  1  0
 10 27  1  0
 10 28  1  0
 10 29  1  0
 12 30  1  1
 15 31  1  0
 18 32  1  0
M  END
