
     RDKit          3D

 34 35  0  0  0  0  0  0  0  0999 V2000
   -1.8429   -0.7210    0.0657 N   0  0  0  0  0  0  0  0  0  0  0  0
    1.0596    2.3996   -1.1876 C   0  0  0  0  0  0  0  0  0  0  0  0
    0.0206    1.4798   -1.1611 C   0  0  0  0  0  0  0  0  0  0  0  0
    0.2760    0.1888   -0.7183 C   0  0  0  0  0  0  0  0  0  0  0  0
    1.5497   -0.1926   -0.3111 C   0  0  0  0  0  0  0  0  0  0  0  0
   -0.7926   -0.8613   -0.7700 C   0  0  0  0  0  0  0  0  0  0  0  0
   -3.0836    1.2150    0.9479 C   0  0  0  0  0  0  0  0  0  0  0  0
    5.8626   -0.5560    1.0263 C   0  0  0  0  0  0  0  0  0  0  0  0
    3.7603   -1.6726    0.8514 O   0  0  0  0  0  0  0  0  0  0  0  0
    4.4063   -0.6589    0.6519 C   0  0  0  0  0  0  0  0  0  0  0  0
   -4.2579   -0.9009   -0.3312 C   0  0  0  0  0  0  0  0  0  0  0  0
   -2.9693   -1.6368   -0.0042 C   0  0  0  0  0  0  0  0  0  0  0  0
    2.5844    0.7428   -0.3126 C   0  0  0  0  0  0  0  0  0  0  0  0
    2.3252    2.0409   -0.7623 C   0  0  0  0  0  0  0  0  0  0  0  0
   -1.9190    0.2590    1.1351 C   0  0  0  0  0  0  0  0  0  0  0  0
   -0.6809   -1.7868   -1.5616 O   0  0  0  0  0  0  0  0  0  0  0  0
   -4.6736    0.3433    0.9220 S   0  0  0  0  0  0  0  0  0  0  0  0
    0.8812    3.4073   -1.5387 H   0  0  0  0  0  0  0  0  0  0  0  0
   -0.9705    1.7685   -1.4872 H   0  0  0  0  0  0  0  0  0  0  0  0
    1.7239   -1.2055    0.0135 H   0  0  0  0  0  0  0  0  0  0  0  0
   -3.1254    1.9126    1.7843 H   0  0  0  0  0  0  0  0  0  0  0  0
   -2.9637    1.7976    0.0320 H   0  0  0  0  0  0  0  0  0  0  0  0
    4.5313    1.2424   -0.0042 H   0  0  0  0  0  0  0  0  0  0  0  0
    5.9492   -0.5420    2.1137 H   0  0  0  0  0  0  0  0  0  0  0  0
    6.3927   -1.4373    0.6685 H   0  0  0  0  0  0  0  0  0  0  0  0
    6.3565    0.3312    0.6347 H   0  0  0  0  0  0  0  0  0  0  0  0
   -4.1902   -0.4318   -1.3148 H   0  0  0  0  0  0  0  0  0  0  0  0
   -5.0895   -1.6055   -0.3540 H   0  0  0  0  0  0  0  0  0  0  0  0
   -2.7735   -2.3835   -0.7698 H   0  0  0  0  0  0  0  0  0  0  0  0
   -3.0682   -2.1561    0.9531 H   0  0  0  0  0  0  0  0  0  0  0  0
    3.1228    2.7741   -0.7763 H   0  0  0  0  0  0  0  0  0  0  0  0
   -2.0296   -0.2712    2.0856 H   0  0  0  0  0  0  0  0  0  0  0  0
   -0.9908    0.8228    1.1897 H   0  0  0  0  0  0  0  0  0  0  0  0
    3.8901    0.4714    0.1004 N   0  0  0  0  0  0  0  0  0  0  0  0
 10  8  1  0
 10  9  2  0
 34 10  1  0
 13 34  1  0
 14 13  1  0
  2 14  2  0
  3  2  1  0
  4  3  2  0
  4  5  1  0
  5 13  2  0
  6  4  1  0
 16  6  2  0
  6  1  1  0
  1 15  1  0
  7 15  1  0
 17  7  1  0
 11 17  1  0
 12 11  1  0
  1 12  1  0
  2 18  1  0
  3 19  1  0
  5 20  1  0
  7 21  1  0
  7 22  1  0
 34 23  1  0
  8 24  1  0
  8 25  1  0
  8 26  1  0
 11 27  1  0
 11 28  1  0
 12 29  1  0
 12 30  1  0
 14 31  1  0
 15 32  1  0
 15 33  1  0
M  END
