
     RDKit          3D

 28 29  0  0  0  0  0  0  0  0999 V2000
    4.2118   -0.4182   -0.1554 C   0  0  0  0  0  0  0  0  0  0  0  0
    1.7610    0.9199   -0.2959 C   0  0  0  0  0  0  0  0  0  0  0  0
   -2.9564   -0.2999    0.4680 C   0  0  0  0  0  0  0  0  0  0  0  0
   -3.1035   -0.9618   -0.7390 C   0  0  0  0  0  0  0  0  0  0  0  0
   -1.9760   -1.5224   -1.3262 C   0  0  0  0  0  0  0  0  0  0  0  0
   -0.7359   -1.4240   -0.7154 C   0  0  0  0  0  0  0  0  0  0  0  0
   -0.5985   -0.7563    0.4998 C   0  0  0  0  0  0  0  0  0  0  0  0
    0.7398   -0.6786    1.1892 C   0  0  0  0  0  0  0  0  0  0  0  0
    3.1214   -0.6380    0.8758 C   0  0  0  0  0  0  0  0  0  0  0  0
    2.8861    1.1100   -1.2954 C   0  0  0  0  0  0  0  0  0  0  0  0
   -1.7212   -0.1871    1.0890 C   0  0  0  0  0  0  0  0  0  0  0  0
    1.8220   -0.4166    0.2678 N   0  0  0  0  0  0  0  0  0  0  0  0
    4.1480    0.8784   -0.7079 O   0  0  0  0  0  0  0  0  0  0  0  0
    5.1949   -0.5308    0.3041 H   0  0  0  0  0  0  0  0  0  0  0  0
    4.1160   -1.1762   -0.9455 H   0  0  0  0  0  0  0  0  0  0  0  0
    1.8266    1.6926    0.4898 H   0  0  0  0  0  0  0  0  0  0  0  0
    0.8081    1.0618   -0.8104 H   0  0  0  0  0  0  0  0  0  0  0  0
   -4.0713   -1.0393   -1.2151 H   0  0  0  0  0  0  0  0  0  0  0  0
   -2.0743   -2.0412   -2.2708 H   0  0  0  0  0  0  0  0  0  0  0  0
    0.1377   -1.8570   -1.1850 H   0  0  0  0  0  0  0  0  0  0  0  0
    0.6922    0.0669    2.0006 H   0  0  0  0  0  0  0  0  0  0  0  0
    0.9373   -1.6411    1.6723 H   0  0  0  0  0  0  0  0  0  0  0  0
    3.1810   -1.6658    1.2422 H   0  0  0  0  0  0  0  0  0  0  0  0
    3.2902    0.0279    1.7396 H   0  0  0  0  0  0  0  0  0  0  0  0
    2.7302    0.4331   -2.1475 H   0  0  0  0  0  0  0  0  0  0  0  0
    2.8841    2.1335   -1.6731 H   0  0  0  0  0  0  0  0  0  0  0  0
   -1.6314    0.3476    2.0264 H   0  0  0  0  0  0  0  0  0  0  0  0
   -4.3466    0.4189    1.2200 Cl  0  0  0  0  0  0  0  0  0  0  0  0
  3 28  1  0
  4  3  2  0
  5  4  1  0
  6  5  2  0
  7  6  1  0
 12  8  1  0
  9 12  1  0
  1  9  1  0
 13  1  1  0
 10 13  1  0
  2 10  1  0
  8  7  1  0
 11  7  2  0
  3 11  1  0
 12  2  1  0
  1 14  1  0
  1 15  1  0
  2 16  1  0
  2 17  1  0
  4 18  1  0
  5 19  1  0
  6 20  1  0
  8 21  1  0
  8 22  1  0
  9 23  1  0
  9 24  1  0
 10 25  1  0
 10 26  1  0
 11 27  1  0
M  END
