
     RDKit          3D

 53 55  0  0  0  0  0  0  0  0999 V2000
    0.5644   -1.4094   -0.3781 N   0  0  0  0  0  0  0  0  0  0  0  0
   -1.8174   -1.4745   -0.4030 C   0  0  0  0  0  0  0  0  0  0  0  0
   -1.8118   -0.1332    0.0484 C   0  0  0  0  0  0  0  0  0  0  0  0
   -4.2190   -1.4867   -0.5196 C   0  0  0  0  0  0  0  0  0  0  0  0
   -4.1233    0.0377   -0.5627 C   0  0  1  0  0  0  0  0  0  0  0  0
   -2.5931   -4.1758    0.7229 C   0  0  0  0  0  0  0  0  0  0  0  0
   -2.2384   -4.6485    1.7683 C   0  0  0  0  0  0  0  0  0  0  0  0
   -2.6944    2.9000   -0.4141 C   0  0  0  0  0  0  0  0  0  0  0  0
   -2.5450    4.3248    0.1250 C   0  0  1  0  0  0  0  0  0  0  0  0
   -5.4412    0.6513   -0.1244 C   0  0  0  0  0  0  0  0  0  0  0  0
    2.9266    0.2433    0.2694 C   0  0  0  0  0  0  0  0  0  0  0  0
    3.8312    1.2491    0.6235 C   0  0  0  0  0  0  0  0  0  0  0  0
    5.1829    1.0081    0.5501 C   0  0  0  0  0  0  0  0  0  0  0  0
    5.7231   -0.2026    0.1359 C   0  0  0  0  0  0  0  0  0  0  0  0
    4.7946   -1.1738   -0.2075 C   0  0  0  0  0  0  0  0  0  0  0  0
    3.4288   -0.9883   -0.1546 C   0  0  0  0  0  0  0  0  0  0  0  0
   -0.6750    0.4856    0.3013 N   0  0  0  0  0  0  0  0  0  0  0  0
    0.4615   -0.1770    0.0825 C   0  0  0  0  0  0  0  0  0  0  0  0
   -0.5881   -2.0486   -0.6038 C   0  0  0  0  0  0  0  0  0  0  0  0
   -3.0356   -2.1541   -0.5229 N   0  0  0  0  0  0  0  0  0  0  0  0
   -2.9897    0.5022    0.2407 N   0  0  0  0  0  0  0  0  0  0  0  0
   -5.2900   -2.0603   -0.5371 O   0  0  0  0  0  0  0  0  0  0  0  0
   -1.2336    4.5079    0.8867 C   0  0  0  0  0  0  0  0  0  0  0  0
   -2.6418    5.3427   -1.0062 C   0  0  0  0  0  0  0  0  0  0  0  0
    1.5803    0.5523    0.3734 N   0  0  0  0  0  0  0  0  0  0  0  0
    5.2659   -2.3615   -0.6131 F   0  0  0  0  0  0  0  0  0  0  0  0
    6.0419    1.9824    0.8951 F   0  0  0  0  0  0  0  0  0  0  0  0
    7.0388   -0.4751    0.0513 O   0  0  0  0  0  0  0  0  0  0  0  0
   -3.9583    0.3025   -1.6189 H   0  0  0  0  0  0  0  0  0  0  0  0
   -2.3916   -3.9622   -1.3602 H   0  0  0  0  0  0  0  0  0  0  0  0
   -4.0371   -3.9478   -0.7815 H   0  0  0  0  0  0  0  0  0  0  0  0
   -1.9276   -5.0657    2.6989 H   0  0  0  0  0  0  0  0  0  0  0  0
   -2.1913    1.9547    1.4628 H   0  0  0  0  0  0  0  0  0  0  0  0
   -3.9048    2.1069    1.1879 H   0  0  0  0  0  0  0  0  0  0  0  0
   -1.7860    2.6190   -0.9544 H   0  0  0  0  0  0  0  0  0  0  0  0
   -3.5152    2.8697   -1.1386 H   0  0  0  0  0  0  0  0  0  0  0  0
   -3.3732    4.5108    0.8201 H   0  0  0  0  0  0  0  0  0  0  0  0
   -5.6486    0.4518    0.9265 H   0  0  0  0  0  0  0  0  0  0  0  0
   -5.4494    1.7273   -0.2838 H   0  0  0  0  0  0  0  0  0  0  0  0
   -6.2507    0.2358   -0.7184 H   0  0  0  0  0  0  0  0  0  0  0  0
    3.4858    2.2192    0.9588 H   0  0  0  0  0  0  0  0  0  0  0  0
    2.7702   -1.7931   -0.4386 H   0  0  0  0  0  0  0  0  0  0  0  0
   -0.4934   -3.0727   -0.9453 H   0  0  0  0  0  0  0  0  0  0  0  0
   -0.3807    4.3882    0.2144 H   0  0  0  0  0  0  0  0  0  0  0  0
   -1.1720    5.5059    1.3237 H   0  0  0  0  0  0  0  0  0  0  0  0
   -1.1150    3.7893    1.6985 H   0  0  0  0  0  0  0  0  0  0  0  0
   -3.5913    5.2624   -1.5381 H   0  0  0  0  0  0  0  0  0  0  0  0
   -2.5576    6.3629   -0.6274 H   0  0  0  0  0  0  0  0  0  0  0  0
   -1.8391    5.1927   -1.7319 H   0  0  0  0  0  0  0  0  0  0  0  0
    1.3688    1.4808    0.7050 H   0  0  0  0  0  0  0  0  0  0  0  0
    7.5638    0.2743    0.3536 H   0  0  0  0  0  0  0  0  0  0  0  0
   -3.0303   -3.6073   -0.5486 C   0  0  0  0  0  0  0  0  0  0  0  0
   -2.9587    1.8860    0.6949 C   0  0  0  0  0  0  0  0  0  0  0  0
  7  6  3  0
  1 19  2  0
  1 18  1  0
  6 52  1  0
 25 18  1  0
 25 11  1  0
 19  2  1  0
 16 11  1  0
 16 15  2  0
 18 17  2  0
 11 12  2  0
 26 15  1  0
 52 20  1  0
 15 14  1  0
  2 20  1  0
  2  3  2  0
 12 13  1  0
 17  3  1  0
 20  4  1  0
 14 13  2  0
 14 28  1  0
  3 21  1  0
 13 27  1  0
  4 22  2  0
  4  5  1  0
 21  5  1  0
 21 53  1  0
  5 10  1  0
 53  8  1  0
  8  9  1  0
  9 24  1  0
  9 23  1  0
  5 29  1  6
 52 30  1  0
 52 31  1  0
  7 32  1  0
 53 33  1  0
 53 34  1  0
  8 35  1  0
  8 36  1  0
  9 37  1  1
 10 38  1  0
 10 39  1  0
 10 40  1  0
 12 41  1  0
 16 42  1  0
 19 43  1  0
 23 44  1  0
 23 45  1  0
 23 46  1  0
 24 47  1  0
 24 48  1  0
 24 49  1  0
 25 50  1  0
 28 51  1  0
M  END
