
     RDKit          3D

 20 20  0  0  0  0  0  0  0  0999 V2000
    2.4470    1.5229   -0.2217 C   0  0  0  0  0  0  0  0  0  0  0  0
   -3.0601   -0.1574   -0.8411 N   0  0  0  0  0  0  0  0  0  0  0  0
    1.1664    0.7897   -0.0377 C   0  0  0  0  0  0  0  0  0  0  0  0
   -0.1719   -0.9853    0.1787 N   0  0  0  0  0  0  0  0  0  0  0  0
   -0.1181    1.2563    0.1483 C   0  0  0  0  0  0  0  0  0  0  0  0
    1.0751   -0.5566   -0.0172 N   0  0  0  0  0  0  0  0  0  0  0  0
   -0.9130    0.1045    0.2772 C   0  0  0  0  0  0  0  0  0  0  0  0
   -2.3962    0.0302    0.4463 C   0  0  0  0  0  0  0  0  0  0  0  0
    2.1558   -1.5084   -0.0900 C   0  0  0  0  0  0  0  0  0  0  0  0
    3.1537    1.3197    0.5846 H   0  0  0  0  0  0  0  0  0  0  0  0
    2.9368    1.2599   -1.1607 H   0  0  0  0  0  0  0  0  0  0  0  0
    2.2586    2.5941   -0.2344 H   0  0  0  0  0  0  0  0  0  0  0  0
   -4.0605   -0.2016   -0.6889 H   0  0  0  0  0  0  0  0  0  0  0  0
   -2.9108    0.6635   -1.4152 H   0  0  0  0  0  0  0  0  0  0  0  0
   -0.4331    2.2871    0.1854 H   0  0  0  0  0  0  0  0  0  0  0  0
   -2.7281    0.9276    0.9841 H   0  0  0  0  0  0  0  0  0  0  0  0
   -2.6436   -0.8231    1.0813 H   0  0  0  0  0  0  0  0  0  0  0  0
    2.5005   -1.7947    0.9036 H   0  0  0  0  0  0  0  0  0  0  0  0
    1.8169   -2.3956   -0.6182 H   0  0  0  0  0  0  0  0  0  0  0  0
    2.9905   -1.0787   -0.6375 H   0  0  0  0  0  0  0  0  0  0  0  0
  1  3  1  0
  2  8  1  0
  3  5  2  0
  3  6  1  0
  4  6  1  0
  4  7  2  0
  5  7  1  0
  6  9  1  0
  7  8  1  0
  1 10  1  0
  1 11  1  0
  1 12  1  0
  2 13  1  0
  2 14  1  0
  5 15  1  0
  8 16  1  0
  8 17  1  0
  9 18  1  0
  9 19  1  0
  9 20  1  0
M  END
