
     RDKit          3D

 30 29  0  0  0  0  0  0  0  0999 V2000
    5.3779   -0.3653    0.0336 C   0  0  0  0  0  0  0  0  0  0  0  0
    4.0703    0.4106    0.0704 C   0  0  0  0  0  0  0  0  0  0  0  0
    2.8458   -0.4881   -0.0421 C   0  0  0  0  0  0  0  0  0  0  0  0
    1.5317    0.2814   -0.0076 C   0  0  0  0  0  0  0  0  0  0  0  0
    0.3089   -0.6200   -0.1237 C   0  0  0  0  0  0  0  0  0  0  0  0
   -1.0032    0.1531   -0.1156 C   0  0  0  0  0  0  0  0  0  0  0  0
   -2.2083   -0.7689   -0.2619 C   0  0  0  0  0  0  0  0  0  0  0  0
   -3.5157   -0.0193   -0.3621 C   0  0  0  0  0  0  0  0  0  0  0  0
    6.5219    0.5308    0.1412 N   0  0  0  0  0  0  0  0  0  0  0  0
   -4.5131   -0.5752    0.3593 N   0  0  0  0  0  0  0  0  0  0  0  0
   -5.7963   -0.1586    0.1593 O   0  0  0  0  0  0  0  0  0  0  0  0
   -3.6542    0.9976   -1.0180 O   0  0  0  0  0  0  0  0  0  0  0  0
    5.3549   -1.1390    0.8149 H   0  0  0  0  0  0  0  0  0  0  0  0
    5.4473   -0.8961   -0.9205 H   0  0  0  0  0  0  0  0  0  0  0  0
    4.0154    0.9848    1.0029 H   0  0  0  0  0  0  0  0  0  0  0  0
    4.0681    1.1449   -0.7415 H   0  0  0  0  0  0  0  0  0  0  0  0
    2.9016   -1.0640   -0.9730 H   0  0  0  0  0  0  0  0  0  0  0  0
    2.8563   -1.2236    0.7701 H   0  0  0  0  0  0  0  0  0  0  0  0
    1.4726    0.8585    0.9222 H   0  0  0  0  0  0  0  0  0  0  0  0
    1.5196    1.0175   -0.8191 H   0  0  0  0  0  0  0  0  0  0  0  0
    0.3780   -1.2058   -1.0473 H   0  0  0  0  0  0  0  0  0  0  0  0
    0.3146   -1.3457    0.6975 H   0  0  0  0  0  0  0  0  0  0  0  0
   -1.0872    0.7234    0.8149 H   0  0  0  0  0  0  0  0  0  0  0  0
   -0.9987    0.8830   -0.9285 H   0  0  0  0  0  0  0  0  0  0  0  0
   -2.1081   -1.3556   -1.1818 H   0  0  0  0  0  0  0  0  0  0  0  0
   -2.2282   -1.4920    0.5578 H   0  0  0  0  0  0  0  0  0  0  0  0
    6.5112    0.9714    1.0536 H   0  0  0  0  0  0  0  0  0  0  0  0
    7.3779   -0.0082    0.1106 H   0  0  0  0  0  0  0  0  0  0  0  0
   -4.4345   -1.5165    0.7179 H   0  0  0  0  0  0  0  0  0  0  0  0
   -6.0130    0.4091    0.9093 H   0  0  0  0  0  0  0  0  0  0  0  0
  9  1  1  0
  1  2  1  0
  3  2  1  0
  3  4  1  0
  5  4  1  0
  5  6  1  0
  6  7  1  0
  7  8  1  0
 10  8  1  0
 10 11  1  0
  8 12  2  0
  1 13  1  0
  1 14  1  0
  2 15  1  0
  2 16  1  0
  3 17  1  0
  3 18  1  0
  4 19  1  0
  4 20  1  0
  5 21  1  0
  5 22  1  0
  6 23  1  0
  6 24  1  0
  7 25  1  0
  7 26  1  0
  9 27  1  0
  9 28  1  0
 10 29  1  0
 11 30  1  0
M  END
