
     RDKit          3D

 22 23  0  0  0  0  0  0  0  0999 V2000
    2.6044   -2.2946    0.5886 C   0  0  0  0  0  0  0  0  0  0  0  0
   -2.8383   -0.3042   -0.1248 C   0  0  0  0  0  0  0  0  0  0  0  0
   -2.8828   -1.4286   -0.8900 C   0  0  0  0  0  0  0  0  0  0  0  0
   -1.5495   -1.8918   -0.9795 C   0  0  0  0  0  0  0  0  0  0  0  0
   -0.7923   -1.0104   -0.2630 C   0  0  0  0  0  0  0  0  0  0  0  0
    0.6384   -1.0049    0.0235 C   0  0  0  0  0  0  0  0  0  0  0  0
    1.2475   -2.2215    0.3289 C   0  0  0  0  0  0  0  0  0  0  0  0
    3.3794   -1.1478    0.5586 C   0  0  0  0  0  0  0  0  0  0  0  0
    2.7898    0.0688    0.2518 C   0  0  0  0  0  0  0  0  0  0  0  0
    1.4277    0.1487   -0.0237 C   0  0  0  0  0  0  0  0  0  0  0  0
   -3.4877    1.5809    1.0580 O   0  0  0  0  0  0  0  0  0  0  0  0
   -5.0648    0.4055   -0.0215 O   0  0  0  0  0  0  0  0  0  0  0  0
   -1.5701   -0.0506    0.2571 O   0  0  0  0  0  0  0  0  0  0  0  0
    3.7715    1.4825    0.2008 Cl  0  0  0  0  0  0  0  0  0  0  0  0
    0.7471    1.6611   -0.4766 Cl  0  0  0  0  0  0  0  0  0  0  0  0
    3.0603   -3.2446    0.8293 H   0  0  0  0  0  0  0  0  0  0  0  0
   -3.7600   -1.8672   -1.3366 H   0  0  0  0  0  0  0  0  0  0  0  0
   -1.1904   -2.7539   -1.5175 H   0  0  0  0  0  0  0  0  0  0  0  0
    0.6389   -3.1144    0.3783 H   0  0  0  0  0  0  0  0  0  0  0  0
    4.4390   -1.1928    0.7684 H   0  0  0  0  0  0  0  0  0  0  0  0
   -4.2340    2.1444    1.3121 H   0  0  0  0  0  0  0  0  0  0  0  0
   -3.9140    0.5847    0.2990 C   0  0  0  0  0  0  0  0  0  0  0  0
  1  7  2  0
  1  8  1  0
  7  6  1  0
 12 22  2  0
  8  9  2  0
 22 11  1  0
 22  2  1  0
 13  2  1  0
 13  5  1  0
  6  5  1  0
  6 10  2  0
  9 10  1  0
  9 14  1  0
  2  3  2  0
  5  4  2  0
 10 15  1  0
  3  4  1  0
  1 16  1  0
  3 17  1  0
  4 18  1  0
  7 19  1  0
  8 20  1  0
 11 21  1  0
M  END
