
     RDKit          3D

 30 32  0  0  0  0  0  0  0  0999 V2000
   -2.3217    0.9182   -0.0269 C   0  0  0  0  0  0  0  0  0  0  0  0
   -0.9713    1.1401   -0.0162 C   0  0  0  0  0  0  0  0  0  0  0  0
   -0.0750    0.0451   -0.0314 C   0  0  0  0  0  0  0  0  0  0  0  0
    1.3948    0.2427   -0.0404 C   0  0  0  0  0  0  0  0  0  0  0  0
    1.9630    1.5144   -0.0811 C   0  0  0  0  0  0  0  0  0  0  0  0
    3.3379    1.6345   -0.0868 C   0  0  0  0  0  0  0  0  0  0  0  0
    4.1874    0.5478   -0.0539 C   0  0  0  0  0  0  0  0  0  0  0  0
    3.5999   -0.7078   -0.0137 C   0  0  0  0  0  0  0  0  0  0  0  0
    2.2282   -0.8765   -0.0067 C   0  0  0  0  0  0  0  0  0  0  0  0
   -2.2274   -2.7996   -0.0056 C   0  0  0  0  0  0  0  0  0  0  0  0
   -3.5529   -3.1288    0.0254 C   0  0  0  0  0  0  0  0  0  0  0  0
   -4.1744   -0.7922    0.0179 C   0  0  0  0  0  0  0  0  0  0  0  0
   -0.5046   -1.1881   -0.0366 N   0  0  0  0  0  0  0  0  0  0  0  0
   -3.2395    2.0945   -0.1033 C   0  0  0  0  0  0  0  0  0  0  0  0
   -4.2868    2.0955   -0.6986 O   0  0  0  0  0  0  0  0  0  0  0  0
   -1.8277   -1.4435   -0.0234 C   0  0  0  0  0  0  0  0  0  0  0  0
   -4.5304   -2.1141    0.0434 C   0  0  0  0  0  0  0  0  0  0  0  0
   -2.8112   -0.4173   -0.0243 C   0  0  0  0  0  0  0  0  0  0  0  0
    3.8722    2.8607   -0.1255 F   0  0  0  0  0  0  0  0  0  0  0  0
   -2.7542    3.1450    0.5359 O   0  0  0  0  0  0  0  0  0  0  0  0
    4.6210   -2.1029    0.0308 Cl  0  0  0  0  0  0  0  0  0  0  0  0
   -0.5951    2.1515   -0.0165 H   0  0  0  0  0  0  0  0  0  0  0  0
    1.3651    2.4146   -0.1113 H   0  0  0  0  0  0  0  0  0  0  0  0
    5.2611    0.6774   -0.0594 H   0  0  0  0  0  0  0  0  0  0  0  0
    1.7980   -1.8669    0.0259 H   0  0  0  0  0  0  0  0  0  0  0  0
   -1.4565   -3.5586   -0.0105 H   0  0  0  0  0  0  0  0  0  0  0  0
   -3.8557   -4.1673    0.0430 H   0  0  0  0  0  0  0  0  0  0  0  0
   -4.9480   -0.0412    0.0338 H   0  0  0  0  0  0  0  0  0  0  0  0
   -5.5779   -2.3822    0.0795 H   0  0  0  0  0  0  0  0  0  0  0  0
   -3.3394    3.9092    0.4161 H   0  0  0  0  0  0  0  0  0  0  0  0
 19  6  1  0
  6  7  1  0
  6  5  2  0
  7  8  2  0
  5  4  1  0
  8 21  1  0
  8  9  1  0
  4  9  2  0
  4  3  1  0
 15 14  2  0
  2  3  1  0
  2  1  2  0
 14 20  1  0
 14  1  1  0
  3 13  2  0
  1 18  1  0
 13 16  1  0
 18 16  2  0
 18 12  1  0
 16 10  1  0
 12 17  2  0
 10 11  2  0
 17 11  1  0
  2 22  1  0
  5 23  1  0
  7 24  1  0
  9 25  1  0
 10 26  1  0
 11 27  1  0
 12 28  1  0
 17 29  1  0
 20 30  1  0
M  END
