
     RDKit          3D

 37 39  0  0  0  0  0  0  0  0999 V2000
   -0.5837    0.9014    0.0289 O   0  0  0  0  0  0  0  0  0  0  0  0
   -1.8051    1.4774    0.0135 C   0  0  0  0  0  0  0  0  0  0  0  0
   -2.9820    0.6322    0.1739 C   0  0  0  0  0  0  0  0  0  0  0  0
   -3.1001   -0.6343   -0.4196 C   0  0  0  0  0  0  0  0  0  0  0  0
   -4.2675   -1.3605   -0.2106 C   0  0  0  0  0  0  0  0  0  0  0  0
   -5.3110   -0.8586    0.5525 C   0  0  0  0  0  0  0  0  0  0  0  0
   -5.1988    0.4010    1.1230 C   0  0  0  0  0  0  0  0  0  0  0  0
   -4.0396    1.1344    0.9365 C   0  0  0  0  0  0  0  0  0  0  0  0
   -2.0423   -1.2158   -1.3132 C   0  0  0  0  0  0  0  0  0  0  0  0
   -0.9499   -1.9303   -0.5592 C   0  0  0  0  0  0  0  0  0  0  0  0
    0.0841   -2.2070   -1.3466 O   0  0  0  0  0  0  0  0  0  0  0  0
   -1.0028   -2.2471    0.6012 O   0  0  0  0  0  0  0  0  0  0  0  0
   -1.6643    2.8232   -0.1416 C   0  0  0  0  0  0  0  0  0  0  0  0
   -0.2707    3.0773   -0.2275 C   0  0  0  0  0  0  0  0  0  0  0  0
    0.3471    1.8688   -0.1184 C   0  0  0  0  0  0  0  0  0  0  0  0
    1.7394    1.4629   -0.1288 C   0  0  0  0  0  0  0  0  0  0  0  0
    2.1116    0.1746    0.2483 C   0  0  0  0  0  0  0  0  0  0  0  0
    3.4485   -0.1813    0.2050 C   0  0  0  0  0  0  0  0  0  0  0  0
    3.8161   -1.5407    0.5778 N   0  0  0  0  0  0  0  0  0  0  0  0
    4.9853   -1.7844    0.7509 O   0  0  0  0  0  0  0  0  0  0  0  0
    2.9323   -2.3591    0.6919 O   0  0  0  0  0  0  0  0  0  0  0  0
    4.4424    0.7038   -0.1816 C   0  0  0  0  0  0  0  0  0  0  0  0
    4.0636    1.9866   -0.5477 C   0  0  0  0  0  0  0  0  0  0  0  0
    2.7319    2.3625   -0.5288 C   0  0  0  0  0  0  0  0  0  0  0  0
   -4.3680   -2.3360   -0.6711 H   0  0  0  0  0  0  0  0  0  0  0  0
   -6.2075   -1.4475    0.6946 H   0  0  0  0  0  0  0  0  0  0  0  0
   -6.0043    0.8081    1.7195 H   0  0  0  0  0  0  0  0  0  0  0  0
   -3.9401    2.1062    1.4033 H   0  0  0  0  0  0  0  0  0  0  0  0
   -2.5019   -1.9557   -1.9765 H   0  0  0  0  0  0  0  0  0  0  0  0
   -1.6010   -0.4687   -1.9756 H   0  0  0  0  0  0  0  0  0  0  0  0
    0.7562   -2.7010   -0.8532 H   0  0  0  0  0  0  0  0  0  0  0  0
   -2.4611    3.5463   -0.2051 H   0  0  0  0  0  0  0  0  0  0  0  0
    0.2056    4.0362   -0.3541 H   0  0  0  0  0  0  0  0  0  0  0  0
    1.3740   -0.5283    0.6036 H   0  0  0  0  0  0  0  0  0  0  0  0
    5.4816    0.4116   -0.2100 H   0  0  0  0  0  0  0  0  0  0  0  0
    4.8170    2.6955   -0.8620 H   0  0  0  0  0  0  0  0  0  0  0  0
    2.4597    3.3633   -0.8376 H   0  0  0  0  0  0  0  0  0  0  0  0
 20 19  1  0
 19 21  2  0
 19 18  1  0
 22 18  1  0
 22 23  2  0
 18 17  2  0
 23 24  1  0
 17 16  1  0
 24 16  2  0
 16 15  1  0
 15  1  1  0
 15 14  2  0
  1  2  1  0
 14 13  1  0
  2 13  2  0
  2  3  1  0
  8  3  1  0
  8  7  2  0
  3  4  2  0
  7  6  1  0
 12 10  2  0
  4  5  1  0
  4  9  1  0
  6  5  2  0
 10  9  1  0
 10 11  1  0
  5 25  1  0
  6 26  1  0
  7 27  1  0
  8 28  1  0
  9 29  1  0
  9 30  1  0
 11 31  1  0
 13 32  1  0
 14 33  1  0
 17 34  1  0
 22 35  1  0
 23 36  1  0
 24 37  1  0
M  CHG  2  19   1  20  -1
M  END
