
     RDKit          3D

 44 47  0  0  0  0  0  0  0  0999 V2000
    7.9865   -1.4549    0.5051 N   0  0  0  0  0  0  0  0  0  0  0  0
    7.3868   -0.3922   -0.1022 C   0  0  0  0  0  0  0  0  0  0  0  0
    8.0880    0.5272   -0.6465 N   0  0  0  0  0  0  0  0  0  0  0  0
    5.8967   -0.4353   -0.1050 C   0  0  0  0  0  0  0  0  0  0  0  0
    5.1795    0.7314   -0.0075 C   0  0  0  0  0  0  0  0  0  0  0  0
    3.7696    0.7218   -0.0120 C   0  0  0  0  0  0  0  0  0  0  0  0
    3.0856   -0.5151   -0.1288 C   0  0  0  0  0  0  0  0  0  0  0  0
    3.8432   -1.7050   -0.2344 C   0  0  0  0  0  0  0  0  0  0  0  0
    5.2086   -1.6683   -0.2156 C   0  0  0  0  0  0  0  0  0  0  0  0
    3.0140    1.9139    0.1027 C   0  0  0  0  0  0  0  0  0  0  0  0
    1.6507    1.8805    0.0994 C   0  0  0  0  0  0  0  0  0  0  0  0
    0.9598    0.6436   -0.0180 C   0  0  0  0  0  0  0  0  0  0  0  0
    1.6760   -0.5284   -0.1315 C   0  0  0  0  0  0  0  0  0  0  0  0
   -0.4611    0.6258   -0.0095 C   0  0  0  0  0  0  0  0  0  0  0  0
   -1.6692    0.6146    0.0055 C   0  0  0  0  0  0  0  0  0  0  0  0
   -3.0908    0.5963    0.0262 C   0  0  0  0  0  0  0  0  0  0  0  0
   -3.7819   -0.6134   -0.0445 C   0  0  0  0  0  0  0  0  0  0  0  0
   -5.1713   -0.6559   -0.0211 C   0  0  0  0  0  0  0  0  0  0  0  0
   -5.8877    0.5388    0.0732 C   0  0  0  0  0  0  0  0  0  0  0  0
   -5.1970    1.7476    0.1481 C   0  0  0  0  0  0  0  0  0  0  0  0
   -3.8172    1.7888    0.1241 C   0  0  0  0  0  0  0  0  0  0  0  0
   -5.8906   -1.9763   -0.1049 C   0  0  0  0  0  0  0  0  0  0  0  0
   -7.3412   -1.8497    0.3289 C   0  0  0  0  0  0  0  0  0  0  0  0
   -7.9333   -0.7162   -0.3575 N   0  0  0  0  0  0  0  0  0  0  0  0
   -7.3916    0.5329    0.1341 C   0  0  0  0  0  0  0  0  0  0  0  0
    7.5000   -1.9114    1.2588 H   0  0  0  0  0  0  0  0  0  0  0  0
    8.9830   -1.3856    0.6388 H   0  0  0  0  0  0  0  0  0  0  0  0
    7.4971    1.1817   -1.1455 H   0  0  0  0  0  0  0  0  0  0  0  0
    5.6909    1.6810    0.1002 H   0  0  0  0  0  0  0  0  0  0  0  0
    3.3263   -2.6515   -0.3348 H   0  0  0  0  0  0  0  0  0  0  0  0
    5.7697   -2.5892   -0.3076 H   0  0  0  0  0  0  0  0  0  0  0  0
    3.5327    2.8600    0.1955 H   0  0  0  0  0  0  0  0  0  0  0  0
    1.0811    2.7956    0.1898 H   0  0  0  0  0  0  0  0  0  0  0  0
    1.1555   -1.4737   -0.2219 H   0  0  0  0  0  0  0  0  0  0  0  0
   -3.2214   -1.5384   -0.1159 H   0  0  0  0  0  0  0  0  0  0  0  0
   -5.7552    2.6738    0.2245 H   0  0  0  0  0  0  0  0  0  0  0  0
   -3.2968    2.7358    0.1801 H   0  0  0  0  0  0  0  0  0  0  0  0
   -5.8530   -2.3397   -1.1360 H   0  0  0  0  0  0  0  0  0  0  0  0
   -5.3771   -2.7214    0.5064 H   0  0  0  0  0  0  0  0  0  0  0  0
   -7.8879   -2.7544    0.0610 H   0  0  0  0  0  0  0  0  0  0  0  0
   -7.3926   -1.7541    1.4253 H   0  0  0  0  0  0  0  0  0  0  0  0
   -8.9356   -0.7164   -0.2240 H   0  0  0  0  0  0  0  0  0  0  0  0
   -7.6877    0.7460    1.1748 H   0  0  0  0  0  0  0  0  0  0  0  0
   -7.7827    1.3567   -0.4680 H   0  0  0  0  0  0  0  0  0  0  0  0
 10 11  1  0
 10  6  2  0
  3  2  2  0
 11 12  2  0
  5  6  1  0
  5  4  2  0
  6  7  1  0
  2  1  1  0
  2  4  1  0
  4  9  1  0
 12 14  1  0
 12 13  1  0
 21 20  2  0
 21 16  1  0
  7 13  2  0
  7  8  1  0
 14 15  3  0
 15 16  1  0
  9  8  2  0
 20 19  1  0
 16 17  2  0
 19 25  1  0
 19 18  2  0
 17 18  1  0
 25 24  1  0
 18 22  1  0
 24 23  1  0
 22 23  1  0
  1 26  1  0
  1 27  1  0
  3 28  1  0
  5 29  1  0
  8 30  1  0
  9 31  1  0
 10 32  1  0
 11 33  1  0
 13 34  1  0
 17 35  1  0
 20 36  1  0
 21 37  1  0
 22 38  1  0
 22 39  1  0
 23 40  1  0
 23 41  1  0
 24 42  1  0
 25 43  1  0
 25 44  1  0
M  END
