
     RDKit          3D

 50 52  0  0  0  0  0  0  0  0999 V2000
   -3.4246    3.4501   -0.7504 C   0  0  0  0  0  0  0  0  0  0  0  0
   -4.2617    2.3299   -0.5574 O   0  0  0  0  0  0  0  0  0  0  0  0
   -3.6835    1.1489   -0.2581 C   0  0  0  0  0  0  0  0  0  0  0  0
   -4.5657    0.0609   -0.0960 C   0  0  0  0  0  0  0  0  0  0  0  0
   -5.8739    0.3366   -0.2645 O   0  0  0  0  0  0  0  0  0  0  0  0
   -6.7969   -0.7237   -0.1314 C   0  0  0  0  0  0  0  0  0  0  0  0
   -4.0473   -1.1766    0.2296 C   0  0  0  0  0  0  0  0  0  0  0  0
   -2.6703   -1.3799    0.3849 C   0  0  0  0  0  0  0  0  0  0  0  0
   -2.3266    0.9451   -0.1061 C   0  0  0  0  0  0  0  0  0  0  0  0
   -1.7989   -0.3185    0.1945 C   0  0  0  0  0  0  0  0  0  0  0  0
   -0.2992   -0.4816    0.3448 C   0  0  2  0  0  0  0  0  0  0  0  0
    0.4643    0.1178   -0.8494 C   0  0  0  0  0  0  0  0  0  0  0  0
    1.9544   -0.0238   -0.7067 C   0  0  0  0  0  0  0  0  0  0  0  0
    0.0502   -1.8846    0.4512 N   0  0  0  0  0  0  0  0  0  0  0  0
   -0.7758   -2.6139    1.3907 C   0  0  0  0  0  0  0  0  0  0  0  0
   -2.1653   -2.7362    0.7964 C   0  0  0  0  0  0  0  0  0  0  0  0
    2.6594   -1.0076   -1.3741 C   0  0  0  0  0  0  0  0  0  0  0  0
    4.0387   -1.1400   -1.2056 C   0  0  0  0  0  0  0  0  0  0  0  0
    4.7292   -0.2901   -0.3601 C   0  0  0  0  0  0  0  0  0  0  0  0
    6.0565   -0.3313   -0.1294 O   0  0  0  0  0  0  0  0  0  0  0  0
    6.8139   -1.3181   -0.7975 C   0  0  0  0  0  0  0  0  0  0  0  0
    4.0208    0.7170    0.3294 C   0  0  0  0  0  0  0  0  0  0  0  0
    2.6543    0.8369    0.1481 C   0  0  0  0  0  0  0  0  0  0  0  0
    4.7660    1.5060    1.1275 O   0  0  0  0  0  0  0  0  0  0  0  0
    4.1169    2.5451    1.8299 C   0  0  0  0  0  0  0  0  0  0  0  0
   -2.7106    3.2921   -1.5637 H   0  0  0  0  0  0  0  0  0  0  0  0
   -4.0747    4.2817   -1.0118 H   0  0  0  0  0  0  0  0  0  0  0  0
   -2.8705    3.7095    0.1562 H   0  0  0  0  0  0  0  0  0  0  0  0
   -7.7818   -0.3023   -0.3174 H   0  0  0  0  0  0  0  0  0  0  0  0
   -6.6107   -1.5205   -0.8568 H   0  0  0  0  0  0  0  0  0  0  0  0
   -6.7843   -1.1558    0.8730 H   0  0  0  0  0  0  0  0  0  0  0  0
   -4.7077   -2.0222    0.3792 H   0  0  0  0  0  0  0  0  0  0  0  0
   -1.6504    1.7828   -0.2113 H   0  0  0  0  0  0  0  0  0  0  0  0
    0.0017    0.0788    1.2489 H   0  0  0  0  0  0  0  0  0  0  0  0
    0.1238   -0.3812   -1.7594 H   0  0  0  0  0  0  0  0  0  0  0  0
    0.2155    1.1756   -0.9529 H   0  0  0  0  0  0  0  0  0  0  0  0
    1.0253   -1.9624    0.7073 H   0  0  0  0  0  0  0  0  0  0  0  0
   -0.3406   -3.6015    1.5494 H   0  0  0  0  0  0  0  0  0  0  0  0
   -0.8395   -2.1282    2.3775 H   0  0  0  0  0  0  0  0  0  0  0  0
   -2.8512   -3.1856    1.5183 H   0  0  0  0  0  0  0  0  0  0  0  0
   -2.1333   -3.4083   -0.0667 H   0  0  0  0  0  0  0  0  0  0  0  0
    2.1437   -1.6880   -2.0405 H   0  0  0  0  0  0  0  0  0  0  0  0
    4.5565   -1.9204   -1.7470 H   0  0  0  0  0  0  0  0  0  0  0  0
    7.8455   -1.1841   -0.4811 H   0  0  0  0  0  0  0  0  0  0  0  0
    6.4937   -2.3297   -0.5335 H   0  0  0  0  0  0  0  0  0  0  0  0
    6.7627   -1.2077   -1.8841 H   0  0  0  0  0  0  0  0  0  0  0  0
    2.1018    1.6128    0.6641 H   0  0  0  0  0  0  0  0  0  0  0  0
    3.6420    3.2618    1.1544 H   0  0  0  0  0  0  0  0  0  0  0  0
    3.3615    2.1617    2.5212 H   0  0  0  0  0  0  0  0  0  0  0  0
    4.8852    3.0600    2.4015 H   0  0  0  0  0  0  0  0  0  0  0  0
 21 20  1  0
 20 19  1  0
 24 25  1  0
 24 22  1  0
 19 22  2  0
 19 18  1  0
 22 23  1  0
 18 17  2  0
 23 13  2  0
 17 13  1  0
 13 12  1  0
 14 15  1  0
 14 11  1  0
 12 11  1  0
 15 16  1  0
 11 10  1  0
 16  8  1  0
 10  8  2  0
 10  9  1  0
  8  7  1  0
  9  3  2  0
  7  4  2  0
  3  4  1  0
  3  2  1  0
  1  2  1  0
  4  5  1  0
  5  6  1  0
  1 26  1  0
  1 27  1  0
  1 28  1  0
  6 29  1  0
  6 30  1  0
  6 31  1  0
  7 32  1  0
  9 33  1  0
 11 34  1  1
 12 35  1  0
 12 36  1  0
 14 37  1  0
 15 38  1  0
 15 39  1  0
 16 40  1  0
 16 41  1  0
 17 42  1  0
 18 43  1  0
 21 44  1  0
 21 45  1  0
 21 46  1  0
 23 47  1  0
 25 48  1  0
 25 49  1  0
 25 50  1  0
M  END
