
     RDKit          3D

 51 53  0  0  0  0  0  0  0  0999 V2000
    0.3592    0.3925    0.1460 C   0  0  0  0  0  0  0  0  0  0  0  0
   -1.9066    0.5110    0.3335 C   0  0  0  0  0  0  0  0  0  0  0  0
   -1.8394    1.9098    0.0983 C   0  0  0  0  0  0  0  0  0  0  0  0
    6.9144    0.2510   -0.4305 O   0  0  0  0  0  0  0  0  0  0  0  0
   -2.8682   -4.7443   -1.2738 C   0  0  0  0  0  0  0  0  0  0  0  0
   -2.1354   -4.3757    1.0955 C   0  0  0  0  0  0  0  0  0  0  0  0
    2.7892   -0.2250    0.0422 C   0  0  0  0  0  0  0  0  0  0  0  0
    3.6429   -1.3197    0.2083 C   0  0  0  0  0  0  0  0  0  0  0  0
    4.9994   -1.1567    0.0493 C   0  0  0  0  0  0  0  0  0  0  0  0
    5.5898    0.0581   -0.2681 C   0  0  0  0  0  0  0  0  0  0  0  0
    4.7135    1.1218   -0.4262 C   0  0  0  0  0  0  0  0  0  0  0  0
    3.3457    1.0132   -0.2836 C   0  0  0  0  0  0  0  0  0  0  0  0
    0.5267    1.6676   -0.1315 N   0  0  0  0  0  0  0  0  0  0  0  0
   -0.8047   -0.2155    0.3777 N   0  0  0  0  0  0  0  0  0  0  0  0
   -0.5875    2.4134   -0.1376 C   0  0  0  0  0  0  0  0  0  0  0  0
    1.4345   -0.4533    0.2131 N   0  0  0  0  0  0  0  0  0  0  0  0
   -3.0907   -0.0845    0.5390 N   0  0  0  0  0  0  0  0  0  0  0  0
   -3.1525   -1.5058    0.8478 C   0  0  0  0  0  0  0  0  0  0  0  0
   -2.8919   -2.4269   -0.3415 C   0  0  0  0  0  0  0  0  0  0  0  0
   -3.0741   -3.9093   -0.0143 C   0  0  1  0  0  0  0  0  0  0  0  0
   -4.3389    0.6272    0.3401 C   0  0  1  0  0  0  0  0  0  0  0  0
   -4.2202    2.1436    0.3779 C   0  0  0  0  0  0  0  0  0  0  0  0
   -2.9928    2.6938    0.1780 N   0  0  0  0  0  0  0  0  0  0  0  0
   -5.0463    0.2305   -0.9584 C   0  0  0  0  0  0  0  0  0  0  0  0
    5.8125   -2.2145    0.2102 F   0  0  0  0  0  0  0  0  0  0  0  0
    5.2363    2.3121   -0.7352 F   0  0  0  0  0  0  0  0  0  0  0  0
    7.4016   -0.5422   -0.1889 H   0  0  0  0  0  0  0  0  0  0  0  0
   -3.0561   -5.8020   -1.0836 H   0  0  0  0  0  0  0  0  0  0  0  0
   -3.5362   -4.4288   -2.0771 H   0  0  0  0  0  0  0  0  0  0  0  0
   -1.8438   -4.6503   -1.6421 H   0  0  0  0  0  0  0  0  0  0  0  0
   -1.0955   -4.1480    0.8473 H   0  0  0  0  0  0  0  0  0  0  0  0
   -2.3571   -3.9041    2.0533 H   0  0  0  0  0  0  0  0  0  0  0  0
   -2.2111   -5.4539    1.2443 H   0  0  0  0  0  0  0  0  0  0  0  0
   -3.8270    4.5903    0.2607 H   0  0  0  0  0  0  0  0  0  0  0  0
   -2.1695    4.4934    0.8702 H   0  0  0  0  0  0  0  0  0  0  0  0
   -2.4804    4.4334   -0.8749 H   0  0  0  0  0  0  0  0  0  0  0  0
    3.2622   -2.3006    0.4630 H   0  0  0  0  0  0  0  0  0  0  0  0
    2.7218    1.8819   -0.4208 H   0  0  0  0  0  0  0  0  0  0  0  0
   -0.4339    3.4672   -0.3338 H   0  0  0  0  0  0  0  0  0  0  0  0
    1.1711   -1.3994    0.4335 H   0  0  0  0  0  0  0  0  0  0  0  0
   -2.4347   -1.7110    1.6426 H   0  0  0  0  0  0  0  0  0  0  0  0
   -4.1449   -1.7008    1.2623 H   0  0  0  0  0  0  0  0  0  0  0  0
   -3.5609   -2.1611   -1.1636 H   0  0  0  0  0  0  0  0  0  0  0  0
   -1.8743   -2.2591   -0.7021 H   0  0  0  0  0  0  0  0  0  0  0  0
   -4.1063   -4.0620    0.3238 H   0  0  0  0  0  0  0  0  0  0  0  0
   -4.9983    0.3789    1.1766 H   0  0  0  0  0  0  0  0  0  0  0  0
   -5.3027   -0.8278   -0.9502 H   0  0  0  0  0  0  0  0  0  0  0  0
   -5.9726    0.7904   -1.0696 H   0  0  0  0  0  0  0  0  0  0  0  0
   -4.4128    0.4226   -1.8249 H   0  0  0  0  0  0  0  0  0  0  0  0
   -5.2250    2.8036    0.5297 O   0  0  0  0  0  0  0  0  0  0  0  0
   -2.8570    4.1326    0.1039 C   0  0  0  0  0  0  0  0  0  0  0  0
  6 20  1  0
 24 21  1  0
 20  5  1  0
 20 19  1  0
 18 19  1  0
 18 17  1  0
 21 17  1  0
 21 22  1  0
 17  2  1  0
 50 22  2  0
  4 10  1  0
 22 23  1  0
 26 11  1  0
 10 11  2  0
 10  9  1  0
 11 12  1  0
  2 14  2  0
  2  3  1  0
 14  1  1  0
 23  3  1  0
 23 51  1  0
  9 25  1  0
  9  8  2  0
 12  7  2  0
  3 15  2  0
  8  7  1  0
  7 16  1  0
  1 16  1  0
  1 13  2  0
 15 13  1  0
  4 27  1  0
  5 28  1  0
  5 29  1  0
  5 30  1  0
  6 31  1  0
  6 32  1  0
  6 33  1  0
 51 34  1  0
 51 35  1  0
 51 36  1  0
  8 37  1  0
 12 38  1  0
 15 39  1  0
 16 40  1  0
 18 41  1  0
 18 42  1  0
 19 43  1  0
 19 44  1  0
 20 45  1  1
 21 46  1  1
 24 47  1  0
 24 48  1  0
 24 49  1  0
M  END
