
     RDKit          3D

 46 48  0  0  0  0  0  0  0  0999 V2000
    3.6857   -4.0022    1.3685 C   0  0  0  0  0  0  0  0  0  0  0  0
    2.2453   -1.4241    0.5661 N   0  0  0  0  0  0  0  0  0  0  0  0
   -3.9746    2.5599    1.1474 O   0  0  0  0  0  0  0  0  0  0  0  0
   -5.0604    2.0128    1.2592 C   0  0  0  0  0  0  0  0  0  0  0  0
   -5.9165    2.2744    2.2566 N   0  0  0  0  0  0  0  0  0  0  0  0
   -4.4581    0.0899   -0.2316 C   0  0  0  0  0  0  0  0  0  0  0  0
   -3.5847    0.4850   -1.2413 C   0  0  0  0  0  0  0  0  0  0  0  0
   -2.5623   -0.3505   -1.6641 C   0  0  0  0  0  0  0  0  0  0  0  0
   -4.2779   -1.1631    0.3446 C   0  0  0  0  0  0  0  0  0  0  0  0
   -3.2528   -1.9993   -0.0762 C   0  0  0  0  0  0  0  0  0  0  0  0
   -2.3830   -1.6050   -1.0872 C   0  0  0  0  0  0  0  0  0  0  0  0
    0.0072   -2.1683   -0.7701 C   0  0  0  0  0  0  0  0  0  0  0  0
    0.5358   -3.0129    0.1951 C   0  0  0  0  0  0  0  0  0  0  0  0
    1.6851   -2.5946    0.8547 C   0  0  0  0  0  0  0  0  0  0  0  0
    2.3651   -3.4374    1.8890 C   0  0  0  0  0  0  0  0  0  0  0  0
    0.5855   -1.0070   -1.0533 N   0  0  0  0  0  0  0  0  0  0  0  0
    1.6753   -0.6815   -0.3731 C   0  0  0  0  0  0  0  0  0  0  0  0
    2.3062    0.6210   -0.6894 C   0  0  0  0  0  0  0  0  0  0  0  0
    3.5013    0.9846   -0.0709 C   0  0  0  0  0  0  0  0  0  0  0  0
    4.0811    2.2035   -0.3735 C   0  0  0  0  0  0  0  0  0  0  0  0
    5.5700    2.6432    0.4003 Cl  0  0  0  0  0  0  0  0  0  0  0  0
    1.7155    1.4939   -1.6016 C   0  0  0  0  0  0  0  0  0  0  0  0
    2.3117    2.7112   -1.8897 C   0  0  0  0  0  0  0  0  0  0  0  0
    3.5021    3.0796   -1.2789 C   0  0  0  0  0  0  0  0  0  0  0  0
    4.1885   -4.5753    2.1469 H   0  0  0  0  0  0  0  0  0  0  0  0
    3.5247   -4.6637    0.5168 H   0  0  0  0  0  0  0  0  0  0  0  0
    4.3551   -3.2018    1.0539 H   0  0  0  0  0  0  0  0  0  0  0  0
   -5.6863    2.9528    2.9645 H   0  0  0  0  0  0  0  0  0  0  0  0
   -6.7965    1.7967    2.3419 H   0  0  0  0  0  0  0  0  0  0  0  0
   -6.3832    0.4120    0.6498 H   0  0  0  0  0  0  0  0  0  0  0  0
   -5.9649    1.5646   -0.5995 H   0  0  0  0  0  0  0  0  0  0  0  0
   -3.7103    1.4527   -1.7111 H   0  0  0  0  0  0  0  0  0  0  0  0
   -1.8978   -0.0239   -2.4544 H   0  0  0  0  0  0  0  0  0  0  0  0
   -4.9496   -1.4968    1.1272 H   0  0  0  0  0  0  0  0  0  0  0  0
   -3.1354   -2.9734    0.3843 H   0  0  0  0  0  0  0  0  0  0  0  0
   -1.5138   -3.5484   -1.3524 H   0  0  0  0  0  0  0  0  0  0  0  0
   -1.0642   -2.3807   -2.5896 H   0  0  0  0  0  0  0  0  0  0  0  0
    0.0724   -3.9623    0.4266 H   0  0  0  0  0  0  0  0  0  0  0  0
    1.7063   -4.2500    2.1989 H   0  0  0  0  0  0  0  0  0  0  0  0
    2.5546   -2.8224    2.7714 H   0  0  0  0  0  0  0  0  0  0  0  0
    3.9686    0.3150    0.6375 H   0  0  0  0  0  0  0  0  0  0  0  0
    0.7867    1.2180   -2.0806 H   0  0  0  0  0  0  0  0  0  0  0  0
    1.8471    3.3845   -2.5973 H   0  0  0  0  0  0  0  0  0  0  0  0
    3.9671    4.0297   -1.5045 H   0  0  0  0  0  0  0  0  0  0  0  0
   -1.2518   -2.5029   -1.5206 C   0  0  0  0  0  0  0  0  0  0  0  0
   -5.5567    0.9961    0.2412 C   0  0  0  0  0  0  0  0  0  0  0  0
 23 24  2  0
 23 22  1  0
 24 20  1  0
 22 18  2  0
 20 21  1  0
 20 19  2  0
 18 19  1  0
 18 17  1  0
  1 15  1  0
  2 17  2  0
  2 14  1  0
 17 16  1  0
 15 14  1  0
 14 13  2  0
 16 12  2  0
 13 12  1  0
 12 45  1  0
  5  4  1  0
  8  7  1  0
  8 11  2  0
 45 11  1  0
  7  6  2  0
 11 10  1  0
  4  3  2  0
  4 46  1  0
  6 46  1  0
  6  9  1  0
 10  9  2  0
  1 25  1  0
  1 26  1  0
  1 27  1  0
  5 28  1  0
  5 29  1  0
 46 30  1  0
 46 31  1  0
  7 32  1  0
  8 33  1  0
  9 34  1  0
 10 35  1  0
 45 36  1  0
 45 37  1  0
 13 38  1  0
 15 39  1  0
 15 40  1  0
 19 41  1  0
 22 42  1  0
 23 43  1  0
 24 44  1  0
M  END
