
     RDKit          3D

 45 46  0  0  0  0  0  0  0  0999 V2000
    4.5888    3.5883   -0.2750 C   0  0  0  0  0  0  0  0  0  0  0  0
    2.7952    0.3141    0.3201 C   0  0  0  0  0  0  0  0  0  0  0  0
    3.0046    1.6646    0.1016 C   0  0  0  0  0  0  0  0  0  0  0  0
    4.3118    2.1291   -0.0778 C   0  0  0  0  0  0  0  0  0  0  0  0
    5.3397    1.2081   -0.0392 C   0  0  0  0  0  0  0  0  0  0  0  0
    5.0359   -0.1448    0.1859 C   0  0  0  0  0  0  0  0  0  0  0  0
    6.0216   -1.0906    0.1869 N   0  0  0  0  0  0  0  0  0  0  0  0
    3.7901   -0.5728    0.3641 N   0  0  0  0  0  0  0  0  0  0  0  0
    1.0060   -1.1633   -0.6569 C   0  0  0  0  0  0  0  0  0  0  0  0
   -2.8476   -2.7515    0.0171 C   0  0  0  0  0  0  0  0  0  0  0  0
   -2.7759   -1.5003   -0.5861 C   0  0  0  0  0  0  0  0  0  0  0  0
   -1.5053   -0.9886   -0.8241 C   0  0  0  0  0  0  0  0  0  0  0  0
   -0.3762   -1.7124   -0.4626 C   0  0  0  0  0  0  0  0  0  0  0  0
   -0.5849   -2.9528    0.1338 C   0  0  0  0  0  0  0  0  0  0  0  0
   -1.7851   -3.4655    0.3679 N   0  0  0  0  0  0  0  0  0  0  0  0
   -4.2447    0.4392    0.0438 C   0  0  0  0  0  0  0  0  0  0  0  0
   -5.7131    2.3128    0.6396 N   0  0  0  0  0  0  0  0  0  0  0  0
   -5.5105    1.2145   -0.2844 C   0  0  0  0  0  0  0  0  0  0  0  0
   -6.9171    3.0658    0.3545 C   0  0  0  0  0  0  0  0  0  0  0  0
    6.9620   -0.7804    0.3656 H   0  0  0  0  0  0  0  0  0  0  0  0
    5.7903   -1.9675    0.6246 H   0  0  0  0  0  0  0  0  0  0  0  0
    6.3686    1.5170   -0.1817 H   0  0  0  0  0  0  0  0  0  0  0  0
    4.7575    4.0757    0.6875 H   0  0  0  0  0  0  0  0  0  0  0  0
    5.4788    3.7505   -0.8817 H   0  0  0  0  0  0  0  0  0  0  0  0
    3.7500    4.0944   -0.7512 H   0  0  0  0  0  0  0  0  0  0  0  0
    2.1671    2.3501    0.0738 H   0  0  0  0  0  0  0  0  0  0  0  0
    1.3655   -0.8017    1.4372 H   0  0  0  0  0  0  0  0  0  0  0  0
    0.6900    0.5775    0.5830 H   0  0  0  0  0  0  0  0  0  0  0  0
    1.0535   -0.6059   -1.5958 H   0  0  0  0  0  0  0  0  0  0  0  0
    1.7295   -1.9773   -0.7314 H   0  0  0  0  0  0  0  0  0  0  0  0
   -1.3940   -0.0188   -1.2996 H   0  0  0  0  0  0  0  0  0  0  0  0
    0.2672   -3.5591    0.4285 H   0  0  0  0  0  0  0  0  0  0  0  0
   -3.8180   -3.1955    0.2204 H   0  0  0  0  0  0  0  0  0  0  0  0
   -3.9431   -0.3363   -1.9433 H   0  0  0  0  0  0  0  0  0  0  0  0
   -4.8804   -1.3902   -0.9019 H   0  0  0  0  0  0  0  0  0  0  0  0
   -4.3057    0.0494    1.0652 H   0  0  0  0  0  0  0  0  0  0  0  0
   -3.3877    1.1179    0.0178 H   0  0  0  0  0  0  0  0  0  0  0  0
   -5.4289    1.6281   -1.2953 H   0  0  0  0  0  0  0  0  0  0  0  0
   -6.3672    0.5204   -0.3084 H   0  0  0  0  0  0  0  0  0  0  0  0
   -5.7794    1.9378    1.5782 H   0  0  0  0  0  0  0  0  0  0  0  0
   -7.0602    3.8381    1.1105 H   0  0  0  0  0  0  0  0  0  0  0  0
   -6.8233    3.5659   -0.6116 H   0  0  0  0  0  0  0  0  0  0  0  0
   -7.8323    2.4573    0.3181 H   0  0  0  0  0  0  0  0  0  0  0  0
    1.4101   -0.2391    0.5003 C   0  0  0  0  0  0  0  0  0  0  0  0
   -4.0147   -0.7235   -0.9229 C   0  0  0  0  0  0  0  0  0  0  0  0
  7  6  1  0
  6  5  2  0
  6  8  1  0
  5  4  1  0
  4  1  1  0
  4  3  2  0
  3  2  1  0
  8  2  2  0
  2 44  1  0
 44  9  1  0
  9 13  1  0
 13 12  1  0
 13 14  2  0
 12 11  2  0
 14 15  1  0
 15 10  2  0
 10 11  1  0
 11 45  1  0
 45 16  1  0
 16 18  1  0
 18 17  1  0
 17 19  1  0
  7 20  1  0
  7 21  1  0
  5 22  1  0
  1 23  1  0
  1 24  1  0
  1 25  1  0
  3 26  1  0
 44 27  1  0
 44 28  1  0
  9 29  1  0
  9 30  1  0
 12 31  1  0
 14 32  1  0
 10 33  1  0
 45 34  1  0
 45 35  1  0
 16 36  1  0
 16 37  1  0
 18 38  1  0
 18 39  1  0
 17 40  1  0
 19 41  1  0
 19 42  1  0
 19 43  1  0
M  END
