
     RDKit          3D

 18 18  0  0  0  0  0  0  0  0999 V2000
    3.2990   -0.9217   -0.0299 C   0  0  0  0  0  0  0  0  0  0  0  0
    1.8384   -0.6034   -0.0313 C   0  0  0  0  0  0  0  0  0  0  0  0
    0.9753   -1.6085   -0.0127 N   0  0  0  0  0  0  0  0  0  0  0  0
   -0.3294   -1.3663   -0.0132 C   0  0  0  0  0  0  0  0  0  0  0  0
   -0.8487   -0.0795   -0.0336 C   0  0  0  0  0  0  0  0  0  0  0  0
   -2.3026    0.2043   -0.0343 C   0  0  0  0  0  0  0  0  0  0  0  0
   -3.0420   -0.8938   -0.0049 O   0  0  0  0  0  0  0  0  0  0  0  0
   -2.7648    1.3195   -0.0584 O   0  0  0  0  0  0  0  0  0  0  0  0
    0.0425    0.9902   -0.0540 C   0  0  0  0  0  0  0  0  0  0  0  0
    1.3994    0.7320   -0.0523 C   0  0  0  0  0  0  0  0  0  0  0  0
    2.3390    1.6906   -0.0702 O   0  0  0  0  0  0  0  0  0  0  0  0
    3.8005   -0.4923    0.8395 H   0  0  0  0  0  0  0  0  0  0  0  0
    3.4439   -1.9994   -0.0139 H   0  0  0  0  0  0  0  0  0  0  0  0
    3.7964   -0.5187   -0.9141 H   0  0  0  0  0  0  0  0  0  0  0  0
   -0.9745   -2.2357    0.0030 H   0  0  0  0  0  0  0  0  0  0  0  0
   -3.9827   -0.6622   -0.0058 H   0  0  0  0  0  0  0  0  0  0  0  0
   -0.3249    2.0099   -0.0706 H   0  0  0  0  0  0  0  0  0  0  0  0
    1.9344    2.5658   -0.0873 H   0  0  0  0  0  0  0  0  0  0  0  0
  1  2  1  0
  1 12  1  0
  1 13  1  0
  1 14  1  0
  3  2  2  0
  2 10  1  0
  3  4  1  0
  4  5  2  0
  4 15  1  0
  5  9  1  0
  5  6  1  0
  8  6  2  0
  6  7  1  0
  7 16  1  0
 10  9  2  0
  9 17  1  0
 10 11  1  0
 11 18  1  0
M  END
