
     RDKit          3D

 24 24  0  0  0  0  0  0  0  0999 V2000
    0.4592   -0.4107   -3.3809 C   0  0  0  0  0  0  0  0  0  0  0  0
    1.1479    0.3911   -2.2637 C   0  0  0  0  0  0  0  0  0  0  0  0
    0.0950    0.5695   -1.1399 C   0  0  1  0  0  0  0  0  0  0  0  0
   -1.1227   -0.2438   -1.6069 C   0  0  0  0  0  0  0  0  0  0  0  0
   -1.0334   -0.2081   -3.1288 C   0  0  0  0  0  0  0  0  0  0  0  0
    0.6168    0.1726    0.2354 C   0  0  0  0  0  0  0  0  0  0  0  0
   -0.4343    0.3360    1.3218 C   0  0  0  0  0  0  0  0  0  0  0  0
    0.0682    0.0365    2.7063 C   0  0  0  0  0  0  0  0  0  0  0  0
    1.1822   -0.3357    2.9805 O   0  0  0  0  0  0  0  0  0  0  0  0
   -0.8742    0.2300    3.6261 O   0  0  0  0  0  0  0  0  0  0  0  0
    0.7731   -0.1012   -4.3786 H   0  0  0  0  0  0  0  0  0  0  0  0
    0.6991   -1.4731   -3.2856 H   0  0  0  0  0  0  0  0  0  0  0  0
    1.4783    1.3637   -2.6319 H   0  0  0  0  0  0  0  0  0  0  0  0
    2.0413   -0.1210   -1.8990 H   0  0  0  0  0  0  0  0  0  0  0  0
   -0.1978    1.6246   -1.0994 H   0  0  0  0  0  0  0  0  0  0  0  0
   -1.0337   -1.2801   -1.2605 H   0  0  0  0  0  0  0  0  0  0  0  0
   -2.0670    0.1453   -1.2216 H   0  0  0  0  0  0  0  0  0  0  0  0
   -1.3516    0.7706   -3.5005 H   0  0  0  0  0  0  0  0  0  0  0  0
   -1.6572   -0.9605   -3.6146 H   0  0  0  0  0  0  0  0  0  0  0  0
    1.4928    0.7792    0.4805 H   0  0  0  0  0  0  0  0  0  0  0  0
    0.9601   -0.8661    0.2018 H   0  0  0  0  0  0  0  0  0  0  0  0
   -1.2947   -0.3130    1.1315 H   0  0  0  0  0  0  0  0  0  0  0  0
   -0.8346    1.3554    1.3190 H   0  0  0  0  0  0  0  0  0  0  0  0
   -0.5229    0.0326    4.5070 H   0  0  0  0  0  0  0  0  0  0  0  0
  1  2  1  0
  1  5  1  0
  1 11  1  0
  1 12  1  0
  2  3  1  0
  2 13  1  0
  2 14  1  0
  3  4  1  0
  3  6  1  0
  3 15  1  1
  4  5  1  0
  4 16  1  0
  4 17  1  0
  5 18  1  0
  5 19  1  0
  6  7  1  0
  6 20  1  0
  6 21  1  0
  7  8  1  0
  7 22  1  0
  7 23  1  0
  8  9  2  0
  8 10  1  0
 10 24  1  0
M  END
