
     RDKit          3D

 18 18  0  0  0  0  0  0  0  0999 V2000
    2.1749   -1.8498   -0.1725 N   0  0  0  0  0  0  0  0  0  0  0  0
    0.9648   -1.2392   -0.0338 C   0  0  0  0  0  0  0  0  0  0  0  0
   -0.2077   -2.0114   -0.1179 C   0  0  0  0  0  0  0  0  0  0  0  0
   -1.4605   -1.4474   -0.0243 C   0  0  0  0  0  0  0  0  0  0  0  0
   -1.5823   -0.0751    0.1559 C   0  0  0  0  0  0  0  0  0  0  0  0
   -3.1558    0.6441    0.3035 Cl  0  0  0  0  0  0  0  0  0  0  0  0
   -0.4547    0.7142    0.2258 C   0  0  0  0  0  0  0  0  0  0  0  0
    0.8221    0.1583    0.1216 C   0  0  0  0  0  0  0  0  0  0  0  0
    2.0197    1.0402    0.2209 C   0  0  0  0  0  0  0  0  0  0  0  0
    3.0842    0.6379    0.6833 O   0  0  0  0  0  0  0  0  0  0  0  0
    1.8644    2.3023   -0.2078 N   0  0  0  0  0  0  0  0  0  0  0  0
    2.9743   -1.3721    0.2084 H   0  0  0  0  0  0  0  0  0  0  0  0
    2.1912   -2.8503   -0.0678 H   0  0  0  0  0  0  0  0  0  0  0  0
   -0.1204   -3.0830   -0.2491 H   0  0  0  0  0  0  0  0  0  0  0  0
   -2.3383   -2.0767   -0.0837 H   0  0  0  0  0  0  0  0  0  0  0  0
   -0.5680    1.7777    0.3898 H   0  0  0  0  0  0  0  0  0  0  0  0
    1.0704    2.5942   -0.7502 H   0  0  0  0  0  0  0  0  0  0  0  0
    2.6484    2.9335   -0.1738 H   0  0  0  0  0  0  0  0  0  0  0  0
  3  4  1  0
  3  2  2  0
  1  2  1  0
  4  5  2  0
  2  8  1  0
  5  7  1  0
  5  6  1  0
  8  7  2  0
  8  9  1  0
  9 10  2  0
  9 11  1  0
  1 12  1  0
  1 13  1  0
  3 14  1  0
  4 15  1  0
  7 16  1  0
 11 17  1  0
 11 18  1  0
M  END
