
     RDKit          3D

 62 65  0  0  0  0  0  0  0  0999 V2000
    2.1379    5.1936   -0.0129 S   0  0  1  0  0  0  0  0  0  0  0  0
    0.6981    1.6633   -0.7591 C   0  0  1  0  0  0  0  0  0  0  0  0
    2.0672    1.4133   -0.1404 C   0  0  1  0  0  0  0  0  0  0  0  0
    1.8178    3.7016   -0.6157 N   0  0  0  0  0  0  0  0  0  0  0  0
   -0.3926    0.7868   -0.1804 C   0  0  0  0  0  0  0  0  0  0  0  0
   -6.5696   -1.2209    0.6007 N   0  0  0  0  0  0  0  0  0  0  0  0
    2.7085    0.1284   -0.6252 C   0  0  0  0  0  0  0  0  0  0  0  0
    0.4680    3.1504   -0.4732 C   0  0  0  0  0  0  0  0  0  0  0  0
    2.8510    2.6573   -0.5642 C   0  0  0  0  0  0  0  0  0  0  0  0
   -7.1016   -2.3053   -0.1026 C   0  0  0  0  0  0  0  0  0  0  0  0
   -5.2890   -0.7284    0.2112 C   0  0  0  0  0  0  0  0  0  0  0  0
   -1.5692    0.8734   -0.8537 N   0  0  0  0  0  0  0  0  0  0  0  0
   -5.2078    0.4827   -0.4570 C   0  0  0  0  0  0  0  0  0  0  0  0
    3.2841   -0.6021    0.3539 N   0  0  0  0  0  0  0  0  0  0  0  0
   -2.7840    0.2945   -0.4764 C   0  0  0  0  0  0  0  0  0  0  0  0
   -3.9615    0.9733   -0.7766 C   0  0  0  0  0  0  0  0  0  0  0  0
    5.0760   -3.5737    1.4680 C   0  0  0  0  0  0  0  0  0  0  0  0
    4.3842   -2.3900    1.4704 C   0  0  0  0  0  0  0  0  0  0  0  0
    3.4529    5.5784   -0.5003 O   0  0  0  0  0  0  0  0  0  0  0  0
    0.9817    6.0227   -0.3159 O   0  0  0  0  0  0  0  0  0  0  0  0
   -7.2214   -0.5953    1.6216 C   0  0  0  0  0  0  0  0  0  0  0  0
    3.9753   -1.8166    0.2618 C   0  0  0  0  0  0  0  0  0  0  0  0
   -0.2210    0.0959    0.8028 O   0  0  0  0  0  0  0  0  0  0  0  0
    2.7023   -0.1763   -1.8048 O   0  0  0  0  0  0  0  0  0  0  0  0
   -8.4012   -2.7250    0.3504 C   0  0  0  0  0  0  0  0  0  0  0  0
    5.3978   -4.2528    0.2918 C   0  0  0  0  0  0  0  0  0  0  0  0
   -6.4727   -2.8136   -1.0226 O   0  0  0  0  0  0  0  0  0  0  0  0
   -4.1400   -1.4367    0.5205 C   0  0  0  0  0  0  0  0  0  0  0  0
   -2.8969   -0.9340    0.1720 C   0  0  0  0  0  0  0  0  0  0  0  0
   -8.4464   -0.9982    2.0326 C   0  0  0  0  0  0  0  0  0  0  0  0
   -9.0426   -2.0982    1.3697 C   0  0  0  0  0  0  0  0  0  0  0  0
    4.9845   -3.6744   -0.8994 C   0  0  0  0  0  0  0  0  0  0  0  0
    2.2386    5.0109    1.7548 C   0  0  0  0  0  0  0  0  0  0  0  0
   -3.8713    2.1517   -1.4091 F   0  0  0  0  0  0  0  0  0  0  0  0
    4.2835   -2.4714   -0.9242 C   0  0  0  0  0  0  0  0  0  0  0  0
    6.0787   -5.4028    0.4229 O   0  0  0  0  0  0  0  0  0  0  0  0
    6.3859   -6.1261   -0.7534 C   0  0  0  0  0  0  0  0  0  0  0  0
    3.0252    4.3022    2.0047 H   0  0  0  0  0  0  0  0  0  0  0  0
    2.4763    5.9845    2.1805 H   0  0  0  0  0  0  0  0  0  0  0  0
    1.2835    4.6646    2.1437 H   0  0  0  0  0  0  0  0  0  0  0  0
    0.7518    1.5145   -1.8425 H   0  0  0  0  0  0  0  0  0  0  0  0
    1.9702    1.4134    0.9482 H   0  0  0  0  0  0  0  0  0  0  0  0
   -0.2199    3.6121   -1.1791 H   0  0  0  0  0  0  0  0  0  0  0  0
    0.0686    3.2887    0.5381 H   0  0  0  0  0  0  0  0  0  0  0  0
    3.6458    2.8853    0.1468 H   0  0  0  0  0  0  0  0  0  0  0  0
    3.3053    2.5348   -1.5482 H   0  0  0  0  0  0  0  0  0  0  0  0
   -1.5942    1.4884   -1.6536 H   0  0  0  0  0  0  0  0  0  0  0  0
   -6.6947    0.2302    2.0786 H   0  0  0  0  0  0  0  0  0  0  0  0
    3.1875   -0.2405    1.2904 H   0  0  0  0  0  0  0  0  0  0  0  0
   -8.8517   -3.5622   -0.1653 H   0  0  0  0  0  0  0  0  0  0  0  0
   -6.0959    1.0456   -0.7148 H   0  0  0  0  0  0  0  0  0  0  0  0
   -4.2059   -2.3836    1.0389 H   0  0  0  0  0  0  0  0  0  0  0  0
   -2.0144   -1.5074    0.4061 H   0  0  0  0  0  0  0  0  0  0  0  0
    4.1634   -1.9116    2.4171 H   0  0  0  0  0  0  0  0  0  0  0  0
   -8.9403   -0.4872    2.8444 H   0  0  0  0  0  0  0  0  0  0  0  0
    3.9932   -2.0668   -1.8788 H   0  0  0  0  0  0  0  0  0  0  0  0
  -10.0214   -2.4412    1.6793 H   0  0  0  0  0  0  0  0  0  0  0  0
    5.2023   -4.1500   -1.8457 H   0  0  0  0  0  0  0  0  0  0  0  0
    5.4839   -6.4258   -1.2931 H   0  0  0  0  0  0  0  0  0  0  0  0
    7.0285   -5.5549   -1.4283 H   0  0  0  0  0  0  0  0  0  0  0  0
    6.9182   -7.0187   -0.4355 H   0  0  0  0  0  0  0  0  0  0  0  0
    5.4618   -4.1084    2.6349 F   0  0  0  0  0  0  0  0  0  0  0  0
  1  4  1  0
  1 19  2  0
  1 20  2  0
  1 33  1  1
  2  3  1  0
  2  5  1  0
  2  8  1  0
  3  7  1  0
  3  9  1  0
  4  8  1  0
  4  9  1  0
  5 12  1  0
  5 23  2  0
  6 10  1  0
  6 11  1  0
  6 21  1  0
  7 14  1  0
  7 24  2  0
 10 25  1  0
 10 27  2  0
 11 13  2  0
 11 28  1  0
 12 15  1  0
 13 16  1  0
 14 22  1  0
 15 16  2  0
 15 29  1  0
 16 34  1  0
 17 18  2  0
 17 26  1  0
 17 62  1  0
 18 22  1  0
 21 30  2  0
 22 35  2  0
 25 31  2  0
 26 32  2  0
 26 36  1  0
 28 29  2  0
 30 31  1  0
 32 35  1  0
 36 37  1  0
 33 38  1  0
 33 39  1  0
 33 40  1  0
  2 41  1  6
  3 42  1  1
  8 43  1  0
  8 44  1  0
  9 45  1  0
  9 46  1  0
 12 47  1  0
 21 48  1  0
 14 49  1  0
 25 50  1  0
 13 51  1  0
 28 52  1  0
 29 53  1  0
 18 54  1  0
 30 55  1  0
 35 56  1  0
 31 57  1  0
 32 58  1  0
 37 59  1  0
 37 60  1  0
 37 61  1  0
M  END
