
     RDKit          3D

 36 37  0  0  0  0  0  0  0  0999 V2000
    0.7235   -3.2471   -0.7900 N   0  0  0  0  0  0  0  0  0  0  0  0
   -0.5354   -3.3445   -0.3987 C   0  0  0  0  0  0  0  0  0  0  0  0
   -1.2796   -4.6106   -0.7007 C   0  0  0  0  0  0  0  0  0  0  0  0
   -1.1648   -2.2890    0.2771 C   0  0  0  0  0  0  0  0  0  0  0  0
   -2.4515   -2.3536    0.6668 O   0  0  0  0  0  0  0  0  0  0  0  0
   -0.4525   -1.1297    0.5588 C   0  0  0  0  0  0  0  0  0  0  0  0
   -1.1187    0.0162    1.2793 C   0  0  0  0  0  0  0  0  0  0  0  0
    0.8699   -1.0459    0.1186 C   0  0  0  0  0  0  0  0  0  0  0  0
    1.4085   -2.1349   -0.5479 C   0  0  0  0  0  0  0  0  0  0  0  0
    1.6504    0.2099    0.3798 C   0  0  0  0  0  0  0  0  0  0  0  0
    2.9184    0.1268   -0.2607 O   0  0  0  0  0  0  0  0  0  0  0  0
    4.0395    1.2129    0.0874 P   0  0  1  0  0  0  0  0  0  0  0  0
    3.6091    2.6226    0.0679 O   0  0  0  0  0  0  0  0  0  0  0  0
    4.6032    0.8430    1.5352 O   0  0  0  0  0  0  0  0  0  0  0  0
    5.1038    0.7319   -0.9938 O   0  0  0  0  0  0  0  0  0  0  0  0
   -1.5809    0.9760    0.2965 N   0  0  0  0  0  0  0  0  0  0  0  0
   -2.8010    1.2661    0.2387 C   0  0  0  0  0  0  0  0  0  0  0  0
   -3.3158    2.2552   -0.7663 C   0  0  0  0  0  0  0  0  0  0  0  0
   -2.6817    2.8652   -1.6065 O   0  0  0  0  0  0  0  0  0  0  0  0
   -4.6267    2.3096   -0.5356 N   0  0  0  0  0  0  0  0  0  0  0  0
   -5.0991    1.5468    0.5120 O   0  0  0  0  0  0  0  0  0  0  0  0
   -3.9908    0.8074    1.0274 C   0  0  0  0  0  0  0  0  0  0  0  0
   -1.6655   -5.0893    0.2030 H   0  0  0  0  0  0  0  0  0  0  0  0
   -2.1259   -4.4386   -1.3706 H   0  0  0  0  0  0  0  0  0  0  0  0
   -0.6157   -5.3200   -1.1889 H   0  0  0  0  0  0  0  0  0  0  0  0
   -2.8468   -3.2025    0.4397 H   0  0  0  0  0  0  0  0  0  0  0  0
   -1.8988   -0.3548    1.9473 H   0  0  0  0  0  0  0  0  0  0  0  0
   -0.3899    0.5273    1.9134 H   0  0  0  0  0  0  0  0  0  0  0  0
    2.4305   -2.1215   -0.9037 H   0  0  0  0  0  0  0  0  0  0  0  0
    1.1006    1.0751    0.0004 H   0  0  0  0  0  0  0  0  0  0  0  0
    1.7735    0.3482    1.4599 H   0  0  0  0  0  0  0  0  0  0  0  0
    4.9705   -0.0459    1.6315 H   0  0  0  0  0  0  0  0  0  0  0  0
    5.8603    1.3250   -1.0951 H   0  0  0  0  0  0  0  0  0  0  0  0
   -5.3196    2.9165   -0.9501 H   0  0  0  0  0  0  0  0  0  0  0  0
   -4.1730   -0.2622    0.8946 H   0  0  0  0  0  0  0  0  0  0  0  0
   -3.8937    1.0173    2.0951 H   0  0  0  0  0  0  0  0  0  0  0  0
  1  2  2  0
  1  9  1  0
  2  3  1  0
  2  4  1  0
  4  5  1  0
  4  6  2  0
  6  7  1  0
  6  8  1  0
  7 16  1  0
  8  9  2  0
  8 10  1  0
 10 11  1  0
 12 11  1  6
 12 13  2  0
 12 14  1  0
 12 15  1  0
 16 17  2  0
 17 18  1  0
 17 22  1  0
 18 19  2  0
 18 20  1  0
 20 21  1  0
 21 22  1  0
  3 23  1  0
  3 24  1  0
  3 25  1  0
  5 26  1  0
  7 27  1  0
  7 28  1  0
  9 29  1  0
 10 30  1  0
 10 31  1  0
 14 32  1  0
 15 33  1  0
 20 34  1  0
 22 35  1  0
 22 36  1  0
M  END
