
     RDKit          3D

 18 18  0  0  0  0  0  0  0  0999 V2000
   -2.0573   -0.4428    0.0368 C   0  0  0  0  0  0  0  0  0  0  0  0
   -3.3371   -1.1853    0.0394 C   0  0  0  0  0  0  0  0  0  0  0  0
   -0.8412    1.4032    0.0788 N   0  0  0  0  0  0  0  0  0  0  0  0
    2.0567   -1.5361   -0.0757 O   0  0  0  0  0  0  0  0  0  0  0  0
    2.2953   -0.3454   -0.0324 C   0  0  0  0  0  0  0  0  0  0  0  0
    3.6970    0.1994    0.0037 C   0  0  0  0  0  0  0  0  0  0  0  0
    1.3165    0.6035    0.0057 N   0  0  0  0  0  0  0  0  0  0  0  0
   -0.0420    0.3721    0.0239 C   0  0  0  0  0  0  0  0  0  0  0  0
   -2.1058    0.8895    0.0867 O   0  0  0  0  0  0  0  0  0  0  0  0
   -0.7654   -0.8490   -0.0060 C   0  0  0  0  0  0  0  0  0  0  0  0
   -3.9641   -0.8952   -0.8042 H   0  0  0  0  0  0  0  0  0  0  0  0
   -3.1437   -2.2529   -0.0276 H   0  0  0  0  0  0  0  0  0  0  0  0
   -3.9017   -0.9966    0.9533 H   0  0  0  0  0  0  0  0  0  0  0  0
    4.2875   -0.2669   -0.7836 H   0  0  0  0  0  0  0  0  0  0  0  0
    3.7536    1.2799   -0.1088 H   0  0  0  0  0  0  0  0  0  0  0  0
    4.1542   -0.0696    0.9568 H   0  0  0  0  0  0  0  0  0  0  0  0
    1.5932    1.5740    0.0353 H   0  0  0  0  0  0  0  0  0  0  0  0
   -0.3968   -1.8560   -0.0531 H   0  0  0  0  0  0  0  0  0  0  0  0
  4  5  2  0
  6  5  1  0
  5  7  1  0
  7  8  1  0
  3  8  2  0
  3  9  1  0
  8 10  1  0
  9  1  1  0
 10  1  2  0
  1  2  1  0
  2 11  1  0
  2 12  1  0
  2 13  1  0
  6 14  1  0
  6 15  1  0
  6 16  1  0
  7 17  1  0
 10 18  1  0
M  END
