
     RDKit          3D

 41 43  0  0  0  0  0  0  0  0999 V2000
    6.0447   -0.1727   -0.0165 N   0  0  0  0  0  0  0  0  0  0  0  0
    5.9983    1.1431   -0.0342 C   0  0  0  0  0  0  0  0  0  0  0  0
    4.8936    1.9062   -0.0302 N   0  0  0  0  0  0  0  0  0  0  0  0
    3.7169    1.3075   -0.0149 C   0  0  0  0  0  0  0  0  0  0  0  0
    3.6160   -0.1339   -0.0085 C   0  0  0  0  0  0  0  0  0  0  0  0
    4.8581   -0.8169   -0.0062 C   0  0  0  0  0  0  0  0  0  0  0  0
    2.4115   -0.8871   -0.0007 C   0  0  0  0  0  0  0  0  0  0  0  0
    2.4500   -2.2666    0.0094 C   0  0  0  0  0  0  0  0  0  0  0  0
    3.6889   -2.9216    0.0138 C   0  0  0  0  0  0  0  0  0  0  0  0
    4.8685   -2.2284    0.0066 C   0  0  0  0  0  0  0  0  0  0  0  0
    7.1706    1.8147   -0.0952 N   0  0  0  0  0  0  0  0  0  0  0  0
    2.6509    2.1100   -0.0033 N   0  0  0  0  0  0  0  0  0  0  0  0
    1.2609   -0.1904   -0.0056 O   0  0  0  0  0  0  0  0  0  0  0  0
    0.0213   -0.8822   -0.0020 C   0  0  0  0  0  0  0  0  0  0  0  0
   -1.0842    0.1538   -0.0066 C   0  0  0  0  0  0  0  0  0  0  0  0
   -2.4364   -0.5317   -0.0027 C   0  0  0  0  0  0  0  0  0  0  0  0
   -3.4306    0.4786   -0.0069 O   0  0  0  0  0  0  0  0  0  0  0  0
   -4.7255    0.1172   -0.0052 C   0  0  0  0  0  0  0  0  0  0  0  0
   -5.1760   -1.2017   -0.0008 C   0  0  0  0  0  0  0  0  0  0  0  0
   -6.5427   -1.4553    0.0007 C   0  0  0  0  0  0  0  0  0  0  0  0
   -7.4738   -0.4297   -0.0017 C   0  0  0  0  0  0  0  0  0  0  0  0
   -6.9909    0.8672   -0.0064 C   0  0  0  0  0  0  0  0  0  0  0  0
   -5.6470    1.1671   -0.0083 C   0  0  0  0  0  0  0  0  0  0  0  0
   -7.8688    1.8834   -0.0091 F   0  0  0  0  0  0  0  0  0  0  0  0
    1.5467   -2.8589    0.0146 H   0  0  0  0  0  0  0  0  0  0  0  0
    3.7015   -4.0039    0.0220 H   0  0  0  0  0  0  0  0  0  0  0  0
    5.8215   -2.7404    0.0087 H   0  0  0  0  0  0  0  0  0  0  0  0
    8.0167    1.3130    0.1118 H   0  0  0  0  0  0  0  0  0  0  0  0
    7.1680    2.7983    0.1111 H   0  0  0  0  0  0  0  0  0  0  0  0
    2.7998    3.1045   -0.0102 H   0  0  0  0  0  0  0  0  0  0  0  0
    1.7127    1.7564    0.0045 H   0  0  0  0  0  0  0  0  0  0  0  0
   -0.0509   -1.5272   -0.8836 H   0  0  0  0  0  0  0  0  0  0  0  0
   -0.0509   -1.5188    0.8857 H   0  0  0  0  0  0  0  0  0  0  0  0
   -0.9932    0.7942    0.8743 H   0  0  0  0  0  0  0  0  0  0  0  0
   -0.9941    0.7857   -0.8937 H   0  0  0  0  0  0  0  0  0  0  0  0
   -2.5403   -1.1753   -0.8837 H   0  0  0  0  0  0  0  0  0  0  0  0
   -2.5391   -1.1669    0.8844 H   0  0  0  0  0  0  0  0  0  0  0  0
   -4.4900   -2.0363    0.0015 H   0  0  0  0  0  0  0  0  0  0  0  0
   -6.8844   -2.4820    0.0048 H   0  0  0  0  0  0  0  0  0  0  0  0
   -8.5368   -0.6273    0.0003 H   0  0  0  0  0  0  0  0  0  0  0  0
   -5.3086    2.1958   -0.0124 H   0  0  0  0  0  0  0  0  0  0  0  0
  2  1  2  0
  1  6  1  0
 11  2  1  0
  2  3  1  0
  3  4  2  0
  4  5  1  0
  4 12  1  0
  6  5  2  0
  5  7  1  0
  6 10  1  0
  7  8  2  0
  7 13  1  0
  9  8  1  0
  8 25  1  0
 10  9  2  0
  9 26  1  0
 10 27  1  0
 11 28  1  0
 11 29  1  0
 12 30  1  0
 12 31  1  0
 13 14  1  0
 14 15  1  0
 14 32  1  0
 14 33  1  0
 15 16  1  0
 15 34  1  0
 15 35  1  0
 17 16  1  0
 16 36  1  0
 16 37  1  0
 17 18  1  0
 19 18  2  0
 18 23  1  0
 20 19  1  0
 19 38  1  0
 20 21  2  0
 20 39  1  0
 21 22  1  0
 21 40  1  0
 22 23  2  0
 22 24  1  0
 23 41  1  0
M  END
