
     RDKit          3D

 26 27  0  0  0  0  0  0  0  0999 V2000
   -2.1371    1.1636   -0.7511 I   0  0  0  0  0  0  0  0  0  0  0  0
    1.6364   -0.8600   -0.0846 N   0  0  0  0  0  0  0  0  0  0  0  0
    0.4237    0.5187    1.2704 O   0  0  0  0  0  0  0  0  0  0  0  0
   -1.8887   -0.8513   -0.1892 C   0  0  0  0  0  0  0  0  0  0  0  0
   -0.6701   -1.3387    0.2783 C   0  0  0  0  0  0  0  0  0  0  0  0
   -0.5658   -2.6958    0.5796 C   0  0  0  0  0  0  0  0  0  0  0  0
   -1.6494   -3.5464    0.4279 C   0  0  0  0  0  0  0  0  0  0  0  0
   -2.8534   -3.0458   -0.0415 C   0  0  0  0  0  0  0  0  0  0  0  0
   -2.9741   -1.6994   -0.3580 C   0  0  0  0  0  0  0  0  0  0  0  0
    0.5089   -0.4510    0.5422 C   0  0  0  0  0  0  0  0  0  0  0  0
    2.9276   -0.3203   -0.0303 C   0  0  0  0  0  0  0  0  0  0  0  0
    3.2851    0.7944    0.7289 C   0  0  0  0  0  0  0  0  0  0  0  0
    4.5994    1.2443    0.7053 C   0  0  0  0  0  0  0  0  0  0  0  0
    5.5666    0.6082   -0.0579 C   0  0  0  0  0  0  0  0  0  0  0  0
    5.2068   -0.5017   -0.8118 C   0  0  0  0  0  0  0  0  0  0  0  0
    3.9021   -0.9624   -0.7987 C   0  0  0  0  0  0  0  0  0  0  0  0
    1.5361   -1.6509   -0.7040 H   0  0  0  0  0  0  0  0  0  0  0  0
    0.3712   -3.0875    0.9558 H   0  0  0  0  0  0  0  0  0  0  0  0
   -1.5510   -4.5941    0.6766 H   0  0  0  0  0  0  0  0  0  0  0  0
   -3.7055   -3.6998   -0.1698 H   0  0  0  0  0  0  0  0  0  0  0  0
   -3.9146   -1.3229   -0.7359 H   0  0  0  0  0  0  0  0  0  0  0  0
    2.5601    1.3121    1.3341 H   0  0  0  0  0  0  0  0  0  0  0  0
    4.8623    2.1116    1.2971 H   0  0  0  0  0  0  0  0  0  0  0  0
    6.5858    0.9703   -0.0662 H   0  0  0  0  0  0  0  0  0  0  0  0
    5.9432   -1.0148   -1.4161 H   0  0  0  0  0  0  0  0  0  0  0  0
    3.6340   -1.8316   -1.3880 H   0  0  0  0  0  0  0  0  0  0  0  0
  1  4  1  0
  2 10  1  0
  2 11  1  0
  3 10  2  0
  4  5  2  0
  4  9  1  0
  5  6  1  0
  5 10  1  0
  6  7  2  0
  7  8  1  0
  8  9  2  0
 11 12  2  0
 11 16  1  0
 12 13  1  0
 13 14  2  0
 14 15  1  0
 15 16  2  0
  2 17  1  0
  6 18  1  0
  7 19  1  0
  8 20  1  0
  9 21  1  0
 12 22  1  0
 13 23  1  0
 14 24  1  0
 15 25  1  0
 16 26  1  0
M  END
