
     RDKit          3D

 23 25  0  0  0  0  0  0  0  0999 V2000
   -1.6711    0.8945    0.0138 C   0  0  0  0  0  0  0  0  0  0  0  0
   -3.0355    0.7155    0.0223 C   0  0  0  0  0  0  0  0  0  0  0  0
    0.6386   -0.0014    0.0066 C   0  0  0  0  0  0  0  0  0  0  0  0
    2.2851    1.6090    0.0268 N   0  0  0  0  0  0  0  0  0  0  0  0
    3.2095    0.6463    0.0030 C   0  0  0  0  0  0  0  0  0  0  0  0
    5.0005   -0.4684   -0.0295 C   0  0  0  0  0  0  0  0  0  0  0  0
    4.5172    0.7882   -0.0025 N   0  0  0  0  0  0  0  0  0  0  0  0
    3.9982   -1.4139   -0.0414 C   0  0  0  0  0  0  0  0  0  0  0  0
    1.5421   -1.0267   -0.0194 C   0  0  0  0  0  0  0  0  0  0  0  0
    2.8482   -0.6961   -0.0205 N   0  0  0  0  0  0  0  0  0  0  0  0
   -3.8474    1.7733    0.0248 F   0  0  0  0  0  0  0  0  0  0  0  0
   -3.5868   -0.5548    0.0290 C   0  0  0  0  0  0  0  0  0  0  0  0
   -4.9097   -0.6987    0.0378 F   0  0  0  0  0  0  0  0  0  0  0  0
   -0.8206   -0.2124    0.0125 C   0  0  0  0  0  0  0  0  0  0  0  0
   -1.3862   -1.4860    0.0194 C   0  0  0  0  0  0  0  0  0  0  0  0
   -2.7603   -1.6583    0.0273 C   0  0  0  0  0  0  0  0  0  0  0  0
    1.0466    1.2977    0.0290 N   0  0  0  0  0  0  0  0  0  0  0  0
   -1.2694    1.8983    0.0076 H   0  0  0  0  0  0  0  0  0  0  0  0
    6.0602   -0.6673   -0.0402 H   0  0  0  0  0  0  0  0  0  0  0  0
    4.0206   -2.4887   -0.0624 H   0  0  0  0  0  0  0  0  0  0  0  0
    1.3027   -2.0776   -0.0414 H   0  0  0  0  0  0  0  0  0  0  0  0
   -0.7682   -2.3731    0.0218 H   0  0  0  0  0  0  0  0  0  0  0  0
   -3.1936   -2.6495    0.0344 H   0  0  0  0  0  0  0  0  0  0  0  0
 13 12  1  0
 16 12  2  0
 16 15  1  0
 12  2  1  0
 11  2  1  0
  2  1  2  0
 15 14  2  0
  1 14  1  0
 14  3  1  0
  3 17  1  0
  3  9  2  0
 17  4  2  0
  9 10  1  0
  4  5  1  0
 10  5  1  0
 10  8  1  0
  5  7  2  0
  8  6  2  0
  7  6  1  0
  1 18  1  0
  6 19  1  0
  8 20  1  0
  9 21  1  0
 15 22  1  0
 16 23  1  0
M  END
