
     RDKit          3D

 33 34  0  0  0  0  0  0  0  0999 V2000
    1.8099   -1.0476    4.0017 O   0  0  0  0  0  0  0  0  0  0  0  0
    1.8351   -1.0550    2.6515 C   0  0  0  0  0  0  0  0  0  0  0  0
    1.7236   -2.2257    1.9038 C   0  0  0  0  0  0  0  0  0  0  0  0
    1.7611   -2.1691    0.5209 C   0  0  0  0  0  0  0  0  0  0  0  0
    1.9825    0.1570    1.9887 C   0  0  0  0  0  0  0  0  0  0  0  0
    2.0150    0.1927    0.6002 C   0  0  0  0  0  0  0  0  0  0  0  0
    1.9045   -0.9633   -0.1655 C   0  0  0  0  0  0  0  0  0  0  0  0
    1.8918   -0.9612   -1.6925 C   0  0  2  0  0  0  0  0  0  0  0  0
    2.2706    0.4075   -2.2739 C   0  0  0  0  0  0  0  0  0  0  0  0
    0.4608   -1.2813   -2.1468 C   0  0  0  0  0  0  0  0  0  0  0  0
    2.9040   -1.9826   -2.2043 C   0  0  0  0  0  0  0  0  0  0  0  0
    4.2173   -1.9419   -1.7354 C   0  0  0  0  0  0  0  0  0  0  0  0
    5.1865   -2.8181   -2.1939 C   0  0  0  0  0  0  0  0  0  0  0  0
    2.6008   -2.9490   -3.1575 C   0  0  0  0  0  0  0  0  0  0  0  0
    3.5581   -3.8388   -3.6285 C   0  0  0  0  0  0  0  0  0  0  0  0
    4.8609   -3.7779   -3.1506 C   0  0  0  0  0  0  0  0  0  0  0  0
    5.7605   -4.6618   -3.6335 O   0  0  0  0  0  0  0  0  0  0  0  0
    1.6958   -1.9435    4.3368 H   0  0  0  0  0  0  0  0  0  0  0  0
    1.6104   -3.1829    2.4008 H   0  0  0  0  0  0  0  0  0  0  0  0
    1.6828   -3.0953   -0.0369 H   0  0  0  0  0  0  0  0  0  0  0  0
    2.0761    1.0742    2.5574 H   0  0  0  0  0  0  0  0  0  0  0  0
    2.1362    1.1570    0.1245 H   0  0  0  0  0  0  0  0  0  0  0  0
    1.5335    1.1707   -2.0168 H   0  0  0  0  0  0  0  0  0  0  0  0
    3.2472    0.7492   -1.9278 H   0  0  0  0  0  0  0  0  0  0  0  0
    2.3090    0.3466   -3.3620 H   0  0  0  0  0  0  0  0  0  0  0  0
   -0.2307   -0.5555   -1.7171 H   0  0  0  0  0  0  0  0  0  0  0  0
    0.3602   -1.2249   -3.2322 H   0  0  0  0  0  0  0  0  0  0  0  0
    0.1382   -2.2742   -1.8293 H   0  0  0  0  0  0  0  0  0  0  0  0
    4.4952   -1.2128   -0.9829 H   0  0  0  0  0  0  0  0  0  0  0  0
    6.1959   -2.7566   -1.8024 H   0  0  0  0  0  0  0  0  0  0  0  0
    1.5981   -3.0326   -3.5546 H   0  0  0  0  0  0  0  0  0  0  0  0
    3.2896   -4.5846   -4.3670 H   0  0  0  0  0  0  0  0  0  0  0  0
    6.6240   -4.5118   -3.2344 H   0  0  0  0  0  0  0  0  0  0  0  0
  1  2  1  0
  1 18  1  0
  2  3  2  0
  2  5  1  0
  3  4  1  0
  3 19  1  0
  4  7  2  0
  4 20  1  0
  5  6  2  0
  5 21  1  0
  6  7  1  0
  6 22  1  0
  7  8  1  0
  8 11  1  0
  8  9  1  6
  8 10  1  0
  9 23  1  0
  9 24  1  0
  9 25  1  0
 10 26  1  0
 10 27  1  0
 10 28  1  0
 11 12  2  0
 11 14  1  0
 12 13  1  0
 12 29  1  0
 13 16  2  0
 13 30  1  0
 14 15  2  0
 14 31  1  0
 15 16  1  0
 15 32  1  0
 16 17  1  0
 17 33  1  0
M  END
