
     RDKit          3D

 35 37  0  0  0  0  0  0  0  0999 V2000
   -5.4056   -0.0231    0.1887 S   0  0  1  0  0  0  0  0  0  0  0  0
   -3.6889   -0.3489    0.2005 C   0  0  0  0  0  0  0  0  0  0  0  0
   -2.6306    0.7262   -0.6111 S   0  0  0  0  0  0  0  0  0  0  0  0
   -1.2808   -0.2488   -0.1870 C   0  0  0  0  0  0  0  0  0  0  0  0
   -1.6519   -1.3529    0.5413 C   0  0  0  0  0  0  0  0  0  0  0  0
   -3.0431   -1.4094    0.7632 C   0  0  0  0  0  0  0  0  0  0  0  0
    0.0435    0.1326   -0.5928 C   0  0  0  0  0  0  0  0  0  0  0  0
    0.5632    1.1826   -1.2831 C   0  0  0  0  0  0  0  0  0  0  0  0
    1.9207    1.0330   -1.3487 N   0  0  0  0  0  0  0  0  0  0  0  0
    2.1699   -0.0640   -0.7185 C   0  0  0  0  0  0  0  0  0  0  0  0
    1.0737   -0.6642   -0.2415 O   0  0  0  0  0  0  0  0  0  0  0  0
    3.4428   -0.8258   -0.5688 C   0  0  0  0  0  0  0  0  0  0  0  0
   -5.5724    1.1036   -0.7183 O   0  0  0  0  0  0  0  0  0  0  0  0
   -6.1406   -1.2501   -0.0608 O   0  0  0  0  0  0  0  0  0  0  0  0
   -5.6836    0.3595    1.7648 N   0  0  0  0  0  0  0  0  0  0  0  0
    3.3726   -2.0454   -0.5871 O   0  0  0  0  0  0  0  0  0  0  0  0
    4.5832   -0.1268   -0.4771 N   0  0  0  0  0  0  0  0  0  0  0  0
    4.7162    1.2910   -0.1710 C   0  0  0  0  0  0  0  0  0  0  0  0
    5.5034    1.4555    1.1198 C   0  0  0  0  0  0  0  0  0  0  0  0
    6.7528    0.8081    1.0649 O   0  0  0  0  0  0  0  0  0  0  0  0
    6.6026   -0.5712    0.8133 C   0  0  0  0  0  0  0  0  0  0  0  0
    5.8668   -0.8157   -0.4922 C   0  0  0  0  0  0  0  0  0  0  0  0
   -0.9574   -2.0965    0.9032 H   0  0  0  0  0  0  0  0  0  0  0  0
   -3.5374   -2.1964    1.3137 H   0  0  0  0  0  0  0  0  0  0  0  0
    0.0530    2.0220   -1.7283 H   0  0  0  0  0  0  0  0  0  0  0  0
   -5.3251    1.2741    2.0196 H   0  0  0  0  0  0  0  0  0  0  0  0
   -6.6691    0.2841    2.0004 H   0  0  0  0  0  0  0  0  0  0  0  0
    5.2322    1.7860   -0.9979 H   0  0  0  0  0  0  0  0  0  0  0  0
    3.7471    1.7646   -0.0550 H   0  0  0  0  0  0  0  0  0  0  0  0
    5.6885    2.5156    1.2975 H   0  0  0  0  0  0  0  0  0  0  0  0
    4.9042    1.0716    1.9576 H   0  0  0  0  0  0  0  0  0  0  0  0
    7.6009   -1.0069    0.7597 H   0  0  0  0  0  0  0  0  0  0  0  0
    6.0610   -1.0599    1.6348 H   0  0  0  0  0  0  0  0  0  0  0  0
    5.7201   -1.8809   -0.6483 H   0  0  0  0  0  0  0  0  0  0  0  0
    6.4518   -0.4270   -1.3310 H   0  0  0  0  0  0  0  0  0  0  0  0
 22 21  1  0
 22 17  1  0
 21 20  1  0
 17 12  1  0
 17 18  1  0
 20 19  1  0
 16 12  2  0
 12 10  1  0
 19 18  1  0
 10  9  2  0
 10 11  1  0
  9  8  1  0
 11  7  1  0
  8  7  2  0
  7  4  1  0
  4  5  2  0
  4  3  1  0
  5  6  1  0
  3  2  1  0
  6  2  2  0
  2  1  1  0
  1 15  1  1
 13  1  2  0
  1 14  2  0
  5 23  1  0
  6 24  1  0
  8 25  1  0
 15 26  1  0
 15 27  1  0
 18 28  1  0
 18 29  1  0
 19 30  1  0
 19 31  1  0
 21 32  1  0
 21 33  1  0
 22 34  1  0
 22 35  1  0
M  END
