
     RDKit          3D

 51 54  0  0  0  0  0  0  0  0999 V2000
    7.8048    1.3476    0.6178 C   0  0  0  0  0  0  0  0  0  0  0  0
    7.6583   -0.6814   -0.5455 C   0  0  1  0  0  0  0  0  0  0  0  0
    7.0488   -1.9244    0.1142 C   0  0  0  0  0  0  0  0  0  0  0  0
    5.1673   -0.4524   -0.7754 C   0  0  1  0  0  0  0  0  0  0  0  0
    3.9666    0.4716   -0.6878 C   0  0  0  0  0  0  0  0  0  0  0  0
    2.6394   -0.2622   -0.5380 C   0  0  0  0  0  0  0  0  0  0  0  0
    1.4469    0.6861   -0.5369 C   0  0  0  0  0  0  0  0  0  0  0  0
    0.1215   -0.0339   -0.3295 C   0  0  0  0  0  0  0  0  0  0  0  0
   -1.0720    0.9216   -0.3442 C   0  0  0  0  0  0  0  0  0  0  0  0
   -2.3668    0.2323   -0.0850 C   0  0  0  0  0  0  0  0  0  0  0  0
   -3.2423    0.3872    0.9599 C   0  0  0  0  0  0  0  0  0  0  0  0
   -6.6694   -0.5594    0.7022 C   0  0  0  0  0  0  0  0  0  0  0  0
   -7.5449   -1.6115    0.4694 C   0  0  0  0  0  0  0  0  0  0  0  0
   -8.7159   -1.4023   -0.2491 C   0  0  0  0  0  0  0  0  0  0  0  0
   -9.0218   -0.1454   -0.7470 C   0  0  0  0  0  0  0  0  0  0  0  0
   -8.1326    0.8864   -0.5055 C   0  0  0  0  0  0  0  0  0  0  0  0
   -6.9663    0.7084    0.2087 C   0  0  0  0  0  0  0  0  0  0  0  0
    6.5057    0.2619   -1.0022 C   0  0  1  0  0  0  0  0  0  0  0  0
   -8.4191    2.1095   -0.9793 F   0  0  0  0  0  0  0  0  0  0  0  0
    8.3970    0.1533    0.3649 N   0  0  0  0  0  0  0  0  0  0  0  0
   -4.2207   -0.5013    0.7103 N   0  0  0  0  0  0  0  0  0  0  0  0
   -3.9817   -1.1641   -0.4042 N   0  0  0  0  0  0  0  0  0  0  0  0
   -2.8694   -0.7303   -0.8914 N   0  0  0  0  0  0  0  0  0  0  0  0
    6.6832    1.4105   -0.1505 N   0  0  0  0  0  0  0  0  0  0  0  0
    8.2067    2.2104    1.3838 O   0  0  0  0  0  0  0  0  0  0  0  0
    5.4248   -1.4275    0.7437 S   0  0  0  0  0  0  0  0  0  0  0  0
    8.2826   -0.9915   -1.3861 H   0  0  0  0  0  0  0  0  0  0  0  0
    6.9274   -2.7175   -0.6251 H   0  0  0  0  0  0  0  0  0  0  0  0
    7.6684   -2.3077    0.9242 H   0  0  0  0  0  0  0  0  0  0  0  0
    5.0221   -1.1575   -1.6009 H   0  0  0  0  0  0  0  0  0  0  0  0
    4.0980    1.1661    0.1464 H   0  0  0  0  0  0  0  0  0  0  0  0
    3.9427    1.0796   -1.5994 H   0  0  0  0  0  0  0  0  0  0  0  0
    2.5277   -0.9894   -1.3489 H   0  0  0  0  0  0  0  0  0  0  0  0
    2.6388   -0.8401    0.3922 H   0  0  0  0  0  0  0  0  0  0  0  0
    1.5796    1.4340    0.2522 H   0  0  0  0  0  0  0  0  0  0  0  0
    1.4213    1.2401   -1.4818 H   0  0  0  0  0  0  0  0  0  0  0  0
   -0.0116   -0.7924   -1.1064 H   0  0  0  0  0  0  0  0  0  0  0  0
    0.1417   -0.5700    0.6246 H   0  0  0  0  0  0  0  0  0  0  0  0
   -0.9308    1.6961    0.4127 H   0  0  0  0  0  0  0  0  0  0  0  0
   -1.1113    1.4364   -1.3089 H   0  0  0  0  0  0  0  0  0  0  0  0
   -3.2421    1.0317    1.8225 H   0  0  0  0  0  0  0  0  0  0  0  0
   -5.3772   -0.1250    2.3631 H   0  0  0  0  0  0  0  0  0  0  0  0
   -5.3577   -1.8076    1.8566 H   0  0  0  0  0  0  0  0  0  0  0  0
   -7.3124   -2.5988    0.8474 H   0  0  0  0  0  0  0  0  0  0  0  0
   -9.3940   -2.2259   -0.4279 H   0  0  0  0  0  0  0  0  0  0  0  0
   -9.9288    0.0309   -1.3102 H   0  0  0  0  0  0  0  0  0  0  0  0
   -6.3022    1.5477    0.3794 H   0  0  0  0  0  0  0  0  0  0  0  0
    6.5968    0.5338   -2.0577 H   0  0  0  0  0  0  0  0  0  0  0  0
    9.1442   -0.1988    0.9393 H   0  0  0  0  0  0  0  0  0  0  0  0
    6.2554    2.2974   -0.3557 H   0  0  0  0  0  0  0  0  0  0  0  0
   -5.4094   -0.7812    1.4939 C   0  0  0  0  0  0  0  0  0  0  0  0
 19 16  1  0
 17 16  2  0
 17 12  1  0
 16 15  1  0
 51 12  1  0
 51 21  1  0
 12 13  2  0
 15 14  2  0
 21 22  1  0
 21 11  1  0
 22 23  2  0
 11 10  2  0
 13 14  1  0
 23 10  1  0
  8  7  1  0
  8  9  1  0
 10  9  1  0
  7  6  1  0
  6  5  1  0
  5  4  1  0
  4 18  1  0
  4 26  1  0
 18 24  1  0
 18  2  1  0
 24  1  1  0
 26  3  1  0
  2  3  1  0
  2 20  1  0
  1 20  1  0
  1 25  2  0
  2 27  1  6
  3 28  1  0
  3 29  1  0
  4 30  1  6
  5 31  1  0
  5 32  1  0
  6 33  1  0
  6 34  1  0
  7 35  1  0
  7 36  1  0
  8 37  1  0
  8 38  1  0
  9 39  1  0
  9 40  1  0
 11 41  1  0
 51 42  1  0
 51 43  1  0
 13 44  1  0
 14 45  1  0
 15 46  1  0
 17 47  1  0
 18 48  1  6
 20 49  1  0
 24 50  1  0
M  END
