
     RDKit          3D

 35 36  0  0  0  0  0  0  0  0999 V2000
    3.3404   -0.0847    0.2901 N   0  0  0  0  0  0  0  0  0  0  0  0
    1.5681    1.1402   -0.8969 C   0  0  0  0  0  0  0  0  0  0  0  0
    0.5269    0.1217   -0.4547 C   0  0  1  0  0  0  0  0  0  0  0  0
    0.9909   -0.5298    0.8468 C   0  0  0  0  0  0  0  0  0  0  0  0
    2.3894   -1.1053    0.6917 C   0  0  0  0  0  0  0  0  0  0  0  0
   -1.9344    0.0467   -0.2177 C   0  0  0  0  0  0  0  0  0  0  0  0
   -3.2924   -1.9571   -0.4406 C   0  0  0  0  0  0  0  0  0  0  0  0
   -3.0997    0.6878    0.2231 C   0  0  0  0  0  0  0  0  0  0  0  0
    5.7657    0.4599    0.1825 C   0  0  0  0  0  0  0  0  0  0  0  0
   -4.4233   -1.2852   -0.0054 C   0  0  0  0  0  0  0  0  0  0  0  0
   -4.3173    0.0607    0.3323 C   0  0  0  0  0  0  0  0  0  0  0  0
    4.6931   -0.6141    0.2615 C   0  0  0  0  0  0  0  0  0  0  0  0
    2.9502    0.5089   -0.9757 C   0  0  0  0  0  0  0  0  0  0  0  0
   -2.0677   -1.3087   -0.5425 C   0  0  0  0  0  0  0  0  0  0  0  0
   -3.0016    1.9948    0.5544 F   0  0  0  0  0  0  0  0  0  0  0  0
   -0.7691    0.7620   -0.3570 N   0  0  0  0  0  0  0  0  0  0  0  0
    1.3006    1.5547   -1.8712 H   0  0  0  0  0  0  0  0  0  0  0  0
    1.5922    1.9714   -0.1834 H   0  0  0  0  0  0  0  0  0  0  0  0
    0.4678   -0.6471   -1.2335 H   0  0  0  0  0  0  0  0  0  0  0  0
    0.9915    0.2241    1.6406 H   0  0  0  0  0  0  0  0  0  0  0  0
    0.3059   -1.3235    1.1542 H   0  0  0  0  0  0  0  0  0  0  0  0
    2.3604   -1.9407   -0.0327 H   0  0  0  0  0  0  0  0  0  0  0  0
    2.7165   -1.5318    1.6431 H   0  0  0  0  0  0  0  0  0  0  0  0
   -3.3523   -3.0054   -0.7027 H   0  0  0  0  0  0  0  0  0  0  0  0
    5.7494    1.0048   -0.7615 H   0  0  0  0  0  0  0  0  0  0  0  0
    5.6517    1.1806    0.9928 H   0  0  0  0  0  0  0  0  0  0  0  0
    6.7526    0.0053    0.2721 H   0  0  0  0  0  0  0  0  0  0  0  0
   -5.3758   -1.7906    0.0745 H   0  0  0  0  0  0  0  0  0  0  0  0
   -5.1765    0.6204    0.6800 H   0  0  0  0  0  0  0  0  0  0  0  0
    4.8407   -1.1823    1.1834 H   0  0  0  0  0  0  0  0  0  0  0  0
    4.8281   -1.3339   -0.5642 H   0  0  0  0  0  0  0  0  0  0  0  0
    3.6706    1.2795   -1.2549 H   0  0  0  0  0  0  0  0  0  0  0  0
    2.9629   -0.2404   -1.7888 H   0  0  0  0  0  0  0  0  0  0  0  0
   -1.2079   -1.8696   -0.8828 H   0  0  0  0  0  0  0  0  0  0  0  0
   -0.7489    1.6346    0.1488 H   0  0  0  0  0  0  0  0  0  0  0  0
 15  8  1  0
 11  8  2  0
 11 10  1  0
  8  6  1  0
 10  7  2  0
  6 16  1  0
  6 14  2  0
  7 14  1  0
 16  3  1  0
  3  2  1  0
  3  4  1  0
  2 13  1  0
  4  5  1  0
 13  1  1  0
  1  5  1  0
  1 12  1  0
 12  9  1  0
  2 17  1  0
  2 18  1  0
  3 19  1  6
  4 20  1  0
  4 21  1  0
  5 22  1  0
  5 23  1  0
  7 24  1  0
  9 25  1  0
  9 26  1  0
  9 27  1  0
 10 28  1  0
 11 29  1  0
 12 30  1  0
 12 31  1  0
 13 32  1  0
 13 33  1  0
 14 34  1  0
 16 35  1  0
M  END
