
     RDKit          3D

 39 41  0  0  0  0  0  0  0  0999 V2000
    1.1970   -0.8194    0.0838 C   0  0  0  0  0  0  0  0  0  0  0  0
    0.1403   -1.7499    0.0929 C   0  0  0  0  0  0  0  0  0  0  0  0
   -1.1059   -1.2435   -0.0305 N   0  0  0  0  0  0  0  0  0  0  0  0
   -1.0765    0.0613   -0.1538 C   0  0  0  0  0  0  0  0  0  0  0  0
    0.5069    0.7890   -0.1262 S   0  0  0  0  0  0  0  0  0  0  0  0
    2.5752   -1.1265    0.1392 C   0  0  0  0  0  0  0  0  0  0  0  0
    0.2926   -3.0647    0.2172 N   0  0  0  0  0  0  0  0  0  0  0  0
   -2.1606    0.8096   -0.3047 N   0  0  0  0  0  0  0  0  0  0  0  0
    3.0061   -2.2868    0.1764 O   0  0  0  0  0  0  0  0  0  0  0  0
    5.4917    1.9090    0.0069 C   0  0  0  0  0  0  0  0  0  0  0  0
    5.5876    0.8668   -0.8128 N   0  0  0  0  0  0  0  0  0  0  0  0
    4.6501   -0.0664   -0.7427 C   0  0  0  0  0  0  0  0  0  0  0  0
    3.5591   -0.0021    0.1221 C   0  0  0  0  0  0  0  0  0  0  0  0
    3.4759    1.0904    0.9777 C   0  0  0  0  0  0  0  0  0  0  0  0
    4.4624    2.0625    0.9222 C   0  0  0  0  0  0  0  0  0  0  0  0
   -5.8746    0.7292   -1.0311 C   0  0  0  0  0  0  0  0  0  0  0  0
   -4.4403    1.2486   -1.0190 C   0  0  0  0  0  0  0  0  0  0  0  0
   -3.5152    0.2739   -0.2982 C   0  0  2  0  0  0  0  0  0  0  0  0
   -4.0087   -0.0133    1.1189 C   0  0  0  0  0  0  0  0  0  0  0  0
   -5.4430   -0.5339    1.1006 C   0  0  0  0  0  0  0  0  0  0  0  0
   -6.3742    0.4343    0.3789 C   0  0  0  0  0  0  0  0  0  0  0  0
    1.2157   -3.4579    0.2914 H   0  0  0  0  0  0  0  0  0  0  0  0
   -0.5113   -3.6675    0.2166 H   0  0  0  0  0  0  0  0  0  0  0  0
   -2.0552    1.8122   -0.3289 H   0  0  0  0  0  0  0  0  0  0  0  0
    4.7556   -0.9092   -1.4171 H   0  0  0  0  0  0  0  0  0  0  0  0
    2.6709    1.1757    1.6971 H   0  0  0  0  0  0  0  0  0  0  0  0
    4.4388    2.9209    1.5786 H   0  0  0  0  0  0  0  0  0  0  0  0
   -6.5226    1.4586   -1.5215 H   0  0  0  0  0  0  0  0  0  0  0  0
   -5.9217   -0.1829   -1.6345 H   0  0  0  0  0  0  0  0  0  0  0  0
   -4.0840    1.4121   -2.0389 H   0  0  0  0  0  0  0  0  0  0  0  0
   -4.4110    2.2196   -0.5110 H   0  0  0  0  0  0  0  0  0  0  0  0
   -3.4959   -0.6647   -0.8600 H   0  0  0  0  0  0  0  0  0  0  0  0
   -3.3467   -0.7367    1.5997 H   0  0  0  0  0  0  0  0  0  0  0  0
   -3.9577    0.9087    1.7078 H   0  0  0  0  0  0  0  0  0  0  0  0
   -5.4691   -1.5080    0.6006 H   0  0  0  0  0  0  0  0  0  0  0  0
   -5.7859   -0.7039    2.1235 H   0  0  0  0  0  0  0  0  0  0  0  0
   -6.4295    1.3700    0.9450 H   0  0  0  0  0  0  0  0  0  0  0  0
   -7.3887    0.0308    0.3423 H   0  0  0  0  0  0  0  0  0  0  0  0
    6.2741    2.6557   -0.0655 H   0  0  0  0  0  0  0  0  0  0  0  0
  1  2  2  0
  1  5  1  0
  1  6  1  0
  2  3  1  0
  2  7  1  0
  3  4  2  0
  4  5  1  0
  4  8  1  0
  6  9  2  0
  6 13  1  0
  8 18  1  0
 10 11  2  0
 10 15  1  0
 11 12  1  0
 12 13  2  0
 13 14  1  0
 14 15  2  0
 16 17  1  0
 16 21  1  0
 17 18  1  0
 18 19  1  0
 19 20  1  0
 20 21  1  0
  7 22  1  0
  7 23  1  0
  8 24  1  0
 10 39  1  0
 12 25  1  0
 14 26  1  0
 15 27  1  0
 16 28  1  0
 16 29  1  0
 17 30  1  0
 17 31  1  0
 18 32  1  6
 19 33  1  0
 19 34  1  0
 20 35  1  0
 20 36  1  0
 21 37  1  0
 21 38  1  0
M  END
