
     RDKit          3D

137137  0  0  0  0  0  0  0  0999 V2000
   -1.4090    3.5923    2.2532 C   0  0  0  0  0  0  0  0  0  0  0  0
   -1.9930    2.1836    2.2880 C   0  0  2  0  0  0  0  0  0  0  0  0
   -1.1796    1.3341    1.4452 N   0  0  0  0  0  0  0  0  0  0  0  0
   -3.4628    2.1264    1.8237 C   0  0  2  0  0  0  0  0  0  0  0  0
   -4.1990    3.2399    2.2705 O   0  0  0  0  0  0  0  0  0  0  0  0
   -4.1915    0.8301    2.2413 C   0  0  2  0  0  0  0  0  0  0  0  0
   -3.3812   -0.3201    2.1628 O   0  0  0  0  0  0  0  0  0  0  0  0
   -5.4844    0.6636    1.4474 C   0  0  0  0  0  0  0  0  0  0  0  0
   -6.3232   -0.5381    1.8638 C   0  0  0  0  0  0  0  0  0  0  0  0
   -7.5552   -0.7197    0.9855 C   0  0  0  0  0  0  0  0  0  0  0  0
   -8.3601   -1.9678    1.3247 C   0  0  0  0  0  0  0  0  0  0  0  0
   -9.5592   -2.1751    0.4076 C   0  0  0  0  0  0  0  0  0  0  0  0
  -10.3334   -3.4530    0.7051 C   0  0  0  0  0  0  0  0  0  0  0  0
  -11.5154   -3.6718   -0.2313 C   0  0  0  0  0  0  0  0  0  0  0  0
  -12.2706   -4.9660    0.0435 C   0  0  0  0  0  0  0  0  0  0  0  0
  -13.4432   -5.1918   -0.9032 C   0  0  0  0  0  0  0  0  0  0  0  0
  -14.1873   -6.4949   -0.6402 C   0  0  0  0  0  0  0  0  0  0  0  0
  -15.3539   -6.7255   -1.5931 C   0  0  0  0  0  0  0  0  0  0  0  0
  -16.0934   -8.0319   -1.3344 C   0  0  0  0  0  0  0  0  0  0  0  0
  -17.2543   -8.2683   -2.2932 C   0  0  0  0  0  0  0  0  0  0  0  0
  -17.9890   -9.5739   -2.0223 C   0  0  0  0  0  0  0  0  0  0  0  0
   -0.7152    5.1662    0.6056 C   0  0  2  0  0  0  0  0  0  0  0  0
   -1.4443    4.0267    0.9102 O   0  0  0  0  0  0  0  0  0  0  0  0
   -1.0574    5.5639   -0.8318 C   0  0  2  0  0  0  0  0  0  0  0  0
   -2.4358    5.7396   -1.0309 O   0  0  0  0  0  0  0  0  0  0  0  0
   -0.5718    4.4782   -1.7838 C   0  0  1  0  0  0  0  0  0  0  0  0
   -0.7444    4.8461   -3.1333 O   0  0  0  0  0  0  0  0  0  0  0  0
    0.9175    4.2348   -1.5748 C   0  0  2  0  0  0  0  0  0  0  0  0
    1.3680    3.1190   -2.3037 O   0  0  0  0  0  0  0  0  0  0  0  0
    2.9717    3.6812    1.4972 O   0  0  0  0  0  0  0  0  0  0  0  0
    1.2288    3.9735   -0.1004 C   0  0  1  0  0  0  0  0  0  0  0  0
    2.7242    3.9752    0.1426 C   0  0  0  0  0  0  0  0  0  0  0  0
    0.6696    4.9811    0.7242 O   0  0  0  0  0  0  0  0  0  0  0  0
   -0.2127    0.5099    1.8863 C   0  0  0  0  0  0  0  0  0  0  0  0
   -0.0090    0.2857    3.0716 O   0  0  0  0  0  0  0  0  0  0  0  0
    0.6446   -0.0990    0.7993 C   0  0  0  0  0  0  0  0  0  0  0  0
    2.1263    0.1715    1.0565 C   0  0  0  0  0  0  0  0  0  0  0  0
    2.9971   -0.1664   -0.1452 C   0  0  0  0  0  0  0  0  0  0  0  0
    4.4672    0.1495    0.0946 C   0  0  0  0  0  0  0  0  0  0  0  0
    5.3576   -0.1776   -1.0967 C   0  0  0  0  0  0  0  0  0  0  0  0
    6.8257    0.1490   -0.8564 C   0  0  0  0  0  0  0  0  0  0  0  0
    7.7208   -0.1942   -2.0405 C   0  0  0  0  0  0  0  0  0  0  0  0
    9.1879    0.1314   -1.7942 C   0  0  0  0  0  0  0  0  0  0  0  0
   10.0867   -0.2256   -2.9790 C   0  0  0  0  0  0  0  0  0  0  0  0
   11.5143    0.1508   -2.7410 C   0  0  0  0  0  0  0  0  0  0  0  0
   12.5301   -0.7041   -2.6667 C   0  0  0  0  0  0  0  0  0  0  0  0
   13.9529   -0.3244   -2.3742 C   0  0  0  0  0  0  0  0  0  0  0  0
   14.3989   -0.8857   -1.0550 C   0  0  0  0  0  0  0  0  0  0  0  0
   15.3554   -1.7960   -0.8976 C   0  0  0  0  0  0  0  0  0  0  0  0
   15.7702   -2.3906    0.4104 C   0  0  0  0  0  0  0  0  0  0  0  0
   15.5383   -3.9017    0.4634 C   0  0  0  0  0  0  0  0  0  0  0  0
   15.9977   -4.5251    1.7751 C   0  0  0  0  0  0  0  0  0  0  0  0
   15.7675   -6.0304    1.8391 C   0  0  0  0  0  0  0  0  0  0  0  0
   16.2308   -6.6412    3.1544 C   0  0  0  0  0  0  0  0  0  0  0  0
   -1.9668    4.2761    2.9018 H   0  0  0  0  0  0  0  0  0  0  0  0
   -0.3820    3.5414    2.6308 H   0  0  0  0  0  0  0  0  0  0  0  0
   -1.9129    1.8196    3.3152 H   0  0  0  0  0  0  0  0  0  0  0  0
   -1.2388    1.4973    0.4528 H   0  0  0  0  0  0  0  0  0  0  0  0
   -3.4732    2.1975    0.7293 H   0  0  0  0  0  0  0  0  0  0  0  0
   -4.3088    3.1752    3.2257 H   0  0  0  0  0  0  0  0  0  0  0  0
   -4.4328    0.9254    3.3087 H   0  0  0  0  0  0  0  0  0  0  0  0
   -3.1317   -0.4592    1.2432 H   0  0  0  0  0  0  0  0  0  0  0  0
   -6.0811    1.5750    1.5386 H   0  0  0  0  0  0  0  0  0  0  0  0
   -5.2286    0.5753    0.3832 H   0  0  0  0  0  0  0  0  0  0  0  0
   -5.7149   -1.4454    1.8158 H   0  0  0  0  0  0  0  0  0  0  0  0
   -6.6313   -0.4295    2.9095 H   0  0  0  0  0  0  0  0  0  0  0  0
   -8.1981    0.1639    1.0643 H   0  0  0  0  0  0  0  0  0  0  0  0
   -7.2409   -0.7708   -0.0631 H   0  0  0  0  0  0  0  0  0  0  0  0
   -7.7057   -2.8445    1.2649 H   0  0  0  0  0  0  0  0  0  0  0  0
   -8.7011   -1.9151    2.3646 H   0  0  0  0  0  0  0  0  0  0  0  0
  -10.2315   -1.3137    0.4864 H   0  0  0  0  0  0  0  0  0  0  0  0
   -9.2161   -2.1960   -0.6329 H   0  0  0  0  0  0  0  0  0  0  0  0
   -9.6552   -4.3107    0.6356 H   0  0  0  0  0  0  0  0  0  0  0  0
  -10.6895   -3.4326    1.7412 H   0  0  0  0  0  0  0  0  0  0  0  0
  -12.2040   -2.8234   -0.1513 H   0  0  0  0  0  0  0  0  0  0  0  0
  -11.1589   -3.6746   -1.2676 H   0  0  0  0  0  0  0  0  0  0  0  0
  -11.5786   -5.8121   -0.0315 H   0  0  0  0  0  0  0  0  0  0  0  0
  -12.6340   -4.9636    1.0773 H   0  0  0  0  0  0  0  0  0  0  0  0
  -14.1410   -4.3510   -0.8229 H   0  0  0  0  0  0  0  0  0  0  0  0
  -13.0795   -5.1848   -1.9369 H   0  0  0  0  0  0  0  0  0  0  0  0
  -13.4872   -7.3342   -0.7168 H   0  0  0  0  0  0  0  0  0  0  0  0
  -14.5551   -6.5016    0.3920 H   0  0  0  0  0  0  0  0  0  0  0  0
  -16.0562   -5.8882   -1.5152 H   0  0  0  0  0  0  0  0  0  0  0  0
  -14.9852   -6.7157   -2.6250 H   0  0  0  0  0  0  0  0  0  0  0  0
  -15.3901   -8.8690   -1.4072 H   0  0  0  0  0  0  0  0  0  0  0  0
  -16.4671   -8.0405   -0.3043 H   0  0  0  0  0  0  0  0  0  0  0  0
  -17.9554   -7.4311   -2.2242 H   0  0  0  0  0  0  0  0  0  0  0  0
  -16.8788   -8.2645   -3.3213 H   0  0  0  0  0  0  0  0  0  0  0  0
  -18.4086   -9.5878   -1.0145 H   0  0  0  0  0  0  0  0  0  0  0  0
  -18.8101   -9.7268   -2.7237 H   0  0  0  0  0  0  0  0  0  0  0  0
  -17.3170  -10.4301   -2.1090 H   0  0  0  0  0  0  0  0  0  0  0  0
   -0.9495    5.9830    1.3032 H   0  0  0  0  0  0  0  0  0  0  0  0
   -0.5065    6.4897   -1.0521 H   0  0  0  0  0  0  0  0  0  0  0  0
   -2.6981    6.5846   -0.6539 H   0  0  0  0  0  0  0  0  0  0  0  0
   -1.1096    3.5445   -1.5652 H   0  0  0  0  0  0  0  0  0  0  0  0
   -1.6880    4.8875   -3.3178 H   0  0  0  0  0  0  0  0  0  0  0  0
    1.4524    5.1486   -1.8823 H   0  0  0  0  0  0  0  0  0  0  0  0
    1.1868    3.2784   -3.2359 H   0  0  0  0  0  0  0  0  0  0  0  0
    3.9207    3.5789    1.6122 H   0  0  0  0  0  0  0  0  0  0  0  0
    0.8250    2.9878    0.1692 H   0  0  0  0  0  0  0  0  0  0  0  0
    3.1305    4.9580   -0.1366 H   0  0  0  0  0  0  0  0  0  0  0  0
    3.1804    3.2350   -0.5234 H   0  0  0  0  0  0  0  0  0  0  0  0
    0.4617   -1.1767    0.7645 H   0  0  0  0  0  0  0  0  0  0  0  0
    0.3643    0.2956   -0.1812 H   0  0  0  0  0  0  0  0  0  0  0  0
    2.2694    1.2262    1.3082 H   0  0  0  0  0  0  0  0  0  0  0  0
    2.4575   -0.3983    1.9283 H   0  0  0  0  0  0  0  0  0  0  0  0
    2.8842   -1.2253   -0.4022 H   0  0  0  0  0  0  0  0  0  0  0  0
    2.6428    0.3993   -1.0146 H   0  0  0  0  0  0  0  0  0  0  0  0
    4.5680    1.2123    0.3449 H   0  0  0  0  0  0  0  0  0  0  0  0
    4.8202   -0.4001    0.9743 H   0  0  0  0  0  0  0  0  0  0  0  0
    5.2575   -1.2406   -1.3422 H   0  0  0  0  0  0  0  0  0  0  0  0
    5.0022    0.3698   -1.9771 H   0  0  0  0  0  0  0  0  0  0  0  0
    6.9265    1.2145   -0.6215 H   0  0  0  0  0  0  0  0  0  0  0  0
    7.1771   -0.3895    0.0310 H   0  0  0  0  0  0  0  0  0  0  0  0
    7.6193   -1.2595   -2.2756 H   0  0  0  0  0  0  0  0  0  0  0  0
    7.3724    0.3455   -2.9283 H   0  0  0  0  0  0  0  0  0  0  0  0
    9.2907    1.1982   -1.5683 H   0  0  0  0  0  0  0  0  0  0  0  0
    9.5390   -0.4024   -0.9052 H   0  0  0  0  0  0  0  0  0  0  0  0
   10.0118   -1.2970   -3.1875 H   0  0  0  0  0  0  0  0  0  0  0  0
    9.7143    0.2925   -3.8700 H   0  0  0  0  0  0  0  0  0  0  0  0
   11.7104    1.2121   -2.5969 H   0  0  0  0  0  0  0  0  0  0  0  0
   12.3396   -1.7675   -2.7965 H   0  0  0  0  0  0  0  0  0  0  0  0
   14.6110   -0.6937   -3.1670 H   0  0  0  0  0  0  0  0  0  0  0  0
   14.0427    0.7664   -2.3665 H   0  0  0  0  0  0  0  0  0  0  0  0
   13.8663   -0.5196   -0.1796 H   0  0  0  0  0  0  0  0  0  0  0  0
   15.8773   -2.1658   -1.7789 H   0  0  0  0  0  0  0  0  0  0  0  0
   16.8347   -2.1947    0.5817 H   0  0  0  0  0  0  0  0  0  0  0  0
   15.2290   -1.9070    1.2291 H   0  0  0  0  0  0  0  0  0  0  0  0
   14.4738   -4.1067    0.3109 H   0  0  0  0  0  0  0  0  0  0  0  0
   16.0631   -4.3795   -0.3709 H   0  0  0  0  0  0  0  0  0  0  0  0
   17.0628   -4.3153    1.9244 H   0  0  0  0  0  0  0  0  0  0  0  0
   15.4752   -4.0431    2.6090 H   0  0  0  0  0  0  0  0  0  0  0  0
   14.7037   -6.2395    1.6904 H   0  0  0  0  0  0  0  0  0  0  0  0
   16.2898   -6.5111    1.0061 H   0  0  0  0  0  0  0  0  0  0  0  0
   16.0502   -7.7163    3.1853 H   0  0  0  0  0  0  0  0  0  0  0  0
   17.2999   -6.4819    3.3074 H   0  0  0  0  0  0  0  0  0  0  0  0
   15.7080   -6.1933    4.0017 H   0  0  0  0  0  0  0  0  0  0  0  0
  1  2  1  0
  1 23  1  0
  2  3  1  0
  2  4  1  0
  3 34  1  0
  4  5  1  0
  4  6  1  0
  6  7  1  0
  6  8  1  0
  8  9  1  0
  9 10  1  0
 10 11  1  0
 11 12  1  0
 12 13  1  0
 13 14  1  0
 14 15  1  0
 15 16  1  0
 16 17  1  0
 17 18  1  0
 18 19  1  0
 19 20  1  0
 20 21  1  0
 22 23  1  0
 22 24  1  0
 22 33  1  0
 24 25  1  0
 24 26  1  0
 26 27  1  0
 26 28  1  0
 28 29  1  0
 28 31  1  0
 30 32  1  0
 31 32  1  0
 31 33  1  0
 34 35  2  0
 34 36  1  0
 36 37  1  0
 37 38  1  0
 38 39  1  0
 39 40  1  0
 40 41  1  0
 41 42  1  0
 42 43  1  0
 43 44  1  0
 44 45  1  0
 45 46  2  0
 46 47  1  0
 47 48  1  0
 48 49  2  0
 49 50  1  0
 50 51  1  0
 51 52  1  0
 52 53  1  0
 53 54  1  0
  1 55  1  0
  1 56  1  0
  2 57  1  1
  3 58  1  0
  4 59  1  6
  5 60  1  0
  6 61  1  1
  7 62  1  0
  8 63  1  0
  8 64  1  0
  9 65  1  0
  9 66  1  0
 10 67  1  0
 10 68  1  0
 11 69  1  0
 11 70  1  0
 12 71  1  0
 12 72  1  0
 13 73  1  0
 13 74  1  0
 14 75  1  0
 14 76  1  0
 15 77  1  0
 15 78  1  0
 16 79  1  0
 16 80  1  0
 17 81  1  0
 17 82  1  0
 18 83  1  0
 18 84  1  0
 19 85  1  0
 19 86  1  0
 20 87  1  0
 20 88  1  0
 21 89  1  0
 21 90  1  0
 21 91  1  0
 22 92  1  1
 24 93  1  6
 25 94  1  0
 26 95  1  1
 27 96  1  0
 28 97  1  6
 29 98  1  0
 30 99  1  0
 31100  1  1
 32101  1  0
 32102  1  0
 36103  1  0
 36104  1  0
 37105  1  0
 37106  1  0
 38107  1  0
 38108  1  0
 39109  1  0
 39110  1  0
 40111  1  0
 40112  1  0
 41113  1  0
 41114  1  0
 42115  1  0
 42116  1  0
 43117  1  0
 43118  1  0
 44119  1  0
 44120  1  0
 45121  1  0
 46122  1  0
 47123  1  0
 47124  1  0
 48125  1  0
 49126  1  0
 50127  1  0
 50128  1  0
 51129  1  0
 51130  1  0
 52131  1  0
 52132  1  0
 53133  1  0
 53134  1  0
 54135  1  0
 54136  1  0
 54137  1  0
M  END
