
     RDKit          3D

 27 27  0  0  0  0  0  0  0  0999 V2000
   -0.7226    0.9305    0.8259 N   0  0  0  0  0  0  0  0  0  0  0  0
   -2.2547    2.5642    1.2067 O   0  0  0  0  0  0  0  0  0  0  0  0
   -3.5784   -1.1915   -0.9461 O   0  0  0  0  0  0  0  0  0  0  0  0
   -2.8788    0.6691    0.1151 N   0  0  0  0  0  0  0  0  0  0  0  0
   -1.9738    1.4735    0.7512 C   0  0  0  0  0  0  0  0  0  0  0  0
   -2.6599   -0.5956   -0.4094 C   0  0  0  0  0  0  0  0  0  0  0  0
   -1.3066   -1.0964   -0.2678 C   0  0  0  0  0  0  0  0  0  0  0  0
   -0.9567   -2.4465   -0.8142 C   0  0  0  0  0  0  0  0  0  0  0  0
   -0.3865   -0.3070    0.3376 C   0  0  0  0  0  0  0  0  0  0  0  0
    1.0044   -0.7343    0.5290 C   0  0  0  0  0  0  0  0  0  0  0  0
    2.0844   -0.0679    0.1134 C   0  0  0  0  0  0  0  0  0  0  0  0
    3.4688   -0.5789    0.3879 C   0  0  0  0  0  0  0  0  0  0  0  0
    2.0300    1.2382   -0.6317 C   0  0  0  0  0  0  0  0  0  0  0  0
    3.4319   -1.6596    1.2802 O   0  0  0  0  0  0  0  0  0  0  0  0
    2.9986    1.2169   -1.6542 O   0  0  0  0  0  0  0  0  0  0  0  0
   -0.0381    1.4505    1.3560 H   0  0  0  0  0  0  0  0  0  0  0  0
   -3.8192    1.0360    0.0369 H   0  0  0  0  0  0  0  0  0  0  0  0
   -1.8441   -2.9571   -1.1800 H   0  0  0  0  0  0  0  0  0  0  0  0
   -0.2498   -2.3761   -1.6422 H   0  0  0  0  0  0  0  0  0  0  0  0
   -0.5014   -3.0841   -0.0545 H   0  0  0  0  0  0  0  0  0  0  0  0
    1.1258   -1.6854    1.0338 H   0  0  0  0  0  0  0  0  0  0  0  0
    3.9356   -0.8582   -0.5641 H   0  0  0  0  0  0  0  0  0  0  0  0
    4.0648    0.2564    0.7843 H   0  0  0  0  0  0  0  0  0  0  0  0
    1.0281    1.4105   -1.0382 H   0  0  0  0  0  0  0  0  0  0  0  0
    2.2273    2.0485    0.0847 H   0  0  0  0  0  0  0  0  0  0  0  0
    4.3042   -2.0629    1.2969 H   0  0  0  0  0  0  0  0  0  0  0  0
    3.0737    2.1066   -2.0107 H   0  0  0  0  0  0  0  0  0  0  0  0
  8  7  1  0
  3  6  2  0
 15 13  1  0
  7  6  1  0
  7  9  2  0
  6  4  1  0
 12 11  1  0
 12 14  1  0
 11 13  1  0
 11 10  2  0
 10  9  1  0
  9  1  1  0
  4  5  1  0
  1  5  1  0
  5  2  2  0
  1 16  1  0
  4 17  1  0
  8 18  1  0
  8 19  1  0
  8 20  1  0
 10 21  1  0
 12 22  1  0
 12 23  1  0
 13 24  1  0
 13 25  1  0
 14 26  1  0
 15 27  1  0
M  END
