
     RDKit          3D

 39 41  0  0  0  0  0  0  0  0999 V2000
    5.2624   -0.9872   -0.5329 O   0  0  0  0  0  0  0  0  0  0  0  0
    4.1285   -0.4883   -0.0020 C   0  0  0  0  0  0  0  0  0  0  0  0
    2.9575   -0.3433   -0.7436 C   0  0  0  0  0  0  0  0  0  0  0  0
    4.1482   -0.1096    1.3374 C   0  0  0  0  0  0  0  0  0  0  0  0
    2.9994    0.4066    1.9184 C   0  0  0  0  0  0  0  0  0  0  0  0
    1.8314    0.5504    1.1844 C   0  0  0  0  0  0  0  0  0  0  0  0
    1.8128    0.1744   -0.1550 C   0  0  0  0  0  0  0  0  0  0  0  0
    0.5530    0.3452   -0.9828 C   0  0  1  0  0  0  0  0  0  0  0  0
   -0.6008   -0.4310   -0.4169 C   0  0  0  0  0  0  0  0  0  0  0  0
   -0.6014   -1.8758   -0.5625 C   0  0  0  0  0  0  0  0  0  0  0  0
    0.2782   -2.4449   -1.1894 O   0  0  0  0  0  0  0  0  0  0  0  0
   -1.7015   -2.6402    0.1307 C   0  0  0  0  0  0  0  0  0  0  0  0
   -3.0222   -1.8759    0.2548 C   0  0  2  0  0  0  0  0  0  0  0  0
   -3.9786   -2.6591    1.1489 C   0  0  0  0  0  0  0  0  0  0  0  0
   -3.6646   -1.6884   -1.1215 C   0  0  0  0  0  0  0  0  0  0  0  0
   -2.7307   -0.5170    0.8980 C   0  0  0  0  0  0  0  0  0  0  0  0
   -1.6031    0.1978    0.2306 C   0  0  0  0  0  0  0  0  0  0  0  0
   -1.6141    1.5646    0.3162 N   0  0  0  0  0  0  0  0  0  0  0  0
   -0.7679    2.3699   -0.3867 C   0  0  0  0  0  0  0  0  0  0  0  0
   -0.9790    4.0276   -0.3855 S   0  0  0  0  0  0  0  0  0  0  0  0
    0.1868    1.7544   -1.0724 N   0  0  0  0  0  0  0  0  0  0  0  0
    5.1249   -1.2255   -1.4565 H   0  0  0  0  0  0  0  0  0  0  0  0
    2.9369   -0.6371   -1.7881 H   0  0  0  0  0  0  0  0  0  0  0  0
    5.0562   -0.2196    1.9170 H   0  0  0  0  0  0  0  0  0  0  0  0
    3.0198    0.6982    2.9605 H   0  0  0  0  0  0  0  0  0  0  0  0
    0.9463    0.9542    1.6604 H   0  0  0  0  0  0  0  0  0  0  0  0
    0.7602    0.0049   -2.0002 H   0  0  0  0  0  0  0  0  0  0  0  0
    0.8067    2.3525   -1.5972 H   0  0  0  0  0  0  0  0  0  0  0  0
   -1.8501   -3.5941   -0.3811 H   0  0  0  0  0  0  0  0  0  0  0  0
   -1.3288   -2.8833    1.1344 H   0  0  0  0  0  0  0  0  0  0  0  0
   -3.5445   -2.8385    2.1343 H   0  0  0  0  0  0  0  0  0  0  0  0
   -4.9177   -2.1202    1.2882 H   0  0  0  0  0  0  0  0  0  0  0  0
   -4.2154   -3.6277    0.7054 H   0  0  0  0  0  0  0  0  0  0  0  0
   -3.8791   -2.6564   -1.5778 H   0  0  0  0  0  0  0  0  0  0  0  0
   -4.6106   -1.1501   -1.0356 H   0  0  0  0  0  0  0  0  0  0  0  0
   -3.0298   -1.1318   -1.8129 H   0  0  0  0  0  0  0  0  0  0  0  0
   -3.6267    0.1097    0.8847 H   0  0  0  0  0  0  0  0  0  0  0  0
   -2.4629   -0.6536    1.9527 H   0  0  0  0  0  0  0  0  0  0  0  0
   -2.3776    2.0237    0.7893 H   0  0  0  0  0  0  0  0  0  0  0  0
  1  2  1  0
  2  3  2  0
  2  4  1  0
  3  7  1  0
  4  5  2  0
  5  6  1  0
  6  7  2  0
  7  8  1  0
  8  9  1  0
  8 21  1  0
  9 10  1  0
  9 17  2  0
 10 11  2  0
 10 12  1  0
 12 13  1  0
 13 14  1  1
 13 15  1  0
 13 16  1  0
 16 17  1  0
 17 18  1  0
 18 19  1  0
 19 20  2  0
 19 21  1  0
  1 22  1  0
  3 23  1  0
  4 24  1  0
  5 25  1  0
  6 26  1  0
  8 27  1  6
 21 28  1  0
 12 29  1  0
 12 30  1  0
 14 31  1  0
 14 32  1  0
 14 33  1  0
 15 34  1  0
 15 35  1  0
 15 36  1  0
 16 37  1  0
 16 38  1  0
 18 39  1  0
M  END
