
     RDKit          3D

 47 49  0  0  0  0  0  0  0  0999 V2000
    0.6804   -1.5553    0.3314 O   0  0  0  0  0  0  0  0  0  0  0  0
    0.5654   -0.6065   -0.4162 C   0  0  0  0  0  0  0  0  0  0  0  0
    1.6235    0.0761   -0.9559 N   0  0  0  0  0  0  0  0  0  0  0  0
    2.9584   -0.2301   -0.6935 C   0  0  0  0  0  0  0  0  0  0  0  0
    3.8594    0.8022   -0.4141 C   0  0  0  0  0  0  0  0  0  0  0  0
    3.2923    2.4268   -0.3397 Cl  0  0  0  0  0  0  0  0  0  0  0  0
    5.2041    0.5190   -0.1969 C   0  0  0  0  0  0  0  0  0  0  0  0
    6.3129    1.7954    0.1321 Cl  0  0  0  0  0  0  0  0  0  0  0  0
    5.6622   -0.7871   -0.2273 C   0  0  0  0  0  0  0  0  0  0  0  0
    4.7660   -1.8096   -0.4955 C   0  0  0  0  0  0  0  0  0  0  0  0
    3.4311   -1.5389   -0.7389 C   0  0  0  0  0  0  0  0  0  0  0  0
   -0.6460   -0.0990   -0.8074 N   0  0  0  0  0  0  0  0  0  0  0  0
   -1.8506   -0.6394   -0.3924 C   0  0  0  0  0  0  0  0  0  0  0  0
   -2.2770   -1.9372   -0.2747 C   0  0  0  0  0  0  0  0  0  0  0  0
   -3.6284   -1.8354    0.1219 C   0  0  0  0  0  0  0  0  0  0  0  0
   -4.5718   -2.9705    0.4195 C   0  0  1  0  0  0  0  0  0  0  0  0
   -4.0698   -3.7103    1.6662 C   0  0  0  0  0  0  0  0  0  0  0  0
   -5.9876   -2.4564    0.6757 C   0  0  0  0  0  0  0  0  0  0  0  0
   -4.5897   -3.9397   -0.7679 C   0  0  0  0  0  0  0  0  0  0  0  0
   -3.9933   -0.5756    0.2274 N   0  0  0  0  0  0  0  0  0  0  0  0
   -2.9048    0.1526   -0.0630 N   0  0  0  0  0  0  0  0  0  0  0  0
   -2.9777    1.5618   -0.0447 C   0  0  0  0  0  0  0  0  0  0  0  0
   -4.0848    2.1911   -0.6030 C   0  0  0  0  0  0  0  0  0  0  0  0
   -1.9673    2.3112    0.5486 C   0  0  0  0  0  0  0  0  0  0  0  0
   -2.0590    3.6958    0.5587 C   0  0  0  0  0  0  0  0  0  0  0  0
   -3.1604    4.3316    0.0025 C   0  0  0  0  0  0  0  0  0  0  0  0
   -4.1745    3.5742   -0.5700 C   0  0  0  0  0  0  0  0  0  0  0  0
    1.4423    0.9430   -1.4392 H   0  0  0  0  0  0  0  0  0  0  0  0
    6.7075   -0.9972   -0.0498 H   0  0  0  0  0  0  0  0  0  0  0  0
    5.1185   -2.8312   -0.5323 H   0  0  0  0  0  0  0  0  0  0  0  0
    2.7549   -2.3452   -0.9797 H   0  0  0  0  0  0  0  0  0  0  0  0
   -0.6802    0.6591   -1.4739 H   0  0  0  0  0  0  0  0  0  0  0  0
   -1.7007   -2.8267   -0.4634 H   0  0  0  0  0  0  0  0  0  0  0  0
   -4.0435   -3.0492    2.5342 H   0  0  0  0  0  0  0  0  0  0  0  0
   -4.7274   -4.5496    1.9019 H   0  0  0  0  0  0  0  0  0  0  0  0
   -3.0641   -4.1084    1.5206 H   0  0  0  0  0  0  0  0  0  0  0  0
   -6.3895   -1.9273   -0.1894 H   0  0  0  0  0  0  0  0  0  0  0  0
   -6.6503   -3.2965    0.8916 H   0  0  0  0  0  0  0  0  0  0  0  0
   -6.0231   -1.7771    1.5278 H   0  0  0  0  0  0  0  0  0  0  0  0
   -3.5980   -4.3450   -0.9750 H   0  0  0  0  0  0  0  0  0  0  0  0
   -5.2522   -4.7811   -0.5559 H   0  0  0  0  0  0  0  0  0  0  0  0
   -4.9473   -3.4503   -1.6753 H   0  0  0  0  0  0  0  0  0  0  0  0
   -4.8703    1.6017   -1.0562 H   0  0  0  0  0  0  0  0  0  0  0  0
   -1.1245    1.8236    1.0186 H   0  0  0  0  0  0  0  0  0  0  0  0
   -1.2705    4.2755    1.0200 H   0  0  0  0  0  0  0  0  0  0  0  0
   -3.2313    5.4110    0.0198 H   0  0  0  0  0  0  0  0  0  0  0  0
   -5.0387    4.0610   -1.0019 H   0  0  0  0  0  0  0  0  0  0  0  0
  1  2  2  0
  2  3  1  0
  2 12  1  0
  3  4  1  0
  3 28  1  0
  4  5  2  0
  4 11  1  0
  5  6  1  0
  5  7  1  0
  7  8  1  0
  7  9  2  0
  9 10  1  0
  9 29  1  0
 10 11  2  0
 10 30  1  0
 11 31  1  0
 12 13  1  0
 12 32  1  0
 13 14  2  0
 13 21  1  0
 14 15  1  0
 14 33  1  0
 15 16  1  0
 15 20  2  0
 16 17  1  1
 16 18  1  0
 16 19  1  0
 17 34  1  0
 17 35  1  0
 17 36  1  0
 18 37  1  0
 18 38  1  0
 18 39  1  0
 19 40  1  0
 19 41  1  0
 19 42  1  0
 20 21  1  0
 21 22  1  0
 22 23  2  0
 22 24  1  0
 23 27  1  0
 23 43  1  0
 24 25  2  0
 24 44  1  0
 25 26  1  0
 25 45  1  0
 26 27  2  0
 26 46  1  0
 27 47  1  0
M  END
