
     RDKit          3D

 19 18  0  0  0  0  0  0  0  0999 V2000
    2.6942    1.6158   -0.5404 N   0  0  0  0  0  0  0  0  0  0  0  0
    2.7318    0.3834    0.2035 C   0  0  2  0  0  0  0  0  0  0  0  0
    4.0658   -0.3504    0.1370 C   0  0  0  0  0  0  0  0  0  0  0  0
    4.8591   -0.4092   -0.8064 O   0  0  0  0  0  0  0  0  0  0  0  0
    1.6263   -0.6136   -0.2039 C   0  0  0  0  0  0  0  0  0  0  0  0
   -0.4293    0.6483   -0.0788 C   0  0  0  0  0  0  0  0  0  0  0  0
   -0.1339    1.1876   -1.1456 O   0  0  0  0  0  0  0  0  0  0  0  0
    0.4041   -0.2975    0.4625 O   0  0  0  0  0  0  0  0  0  0  0  0
   -1.6350    0.8833    0.7699 C   0  0  0  0  0  0  0  0  0  0  0  0
   -3.1500   -0.1417    0.1898 Br  0  0  0  0  0  0  0  0  0  0  0  0
    4.4022   -1.0173    1.2735 O   0  0  0  0  0  0  0  0  0  0  0  0
    3.5366    2.1403   -0.4088 H   0  0  0  0  0  0  0  0  0  0  0  0
    2.5401    1.4530   -1.5180 H   0  0  0  0  0  0  0  0  0  0  0  0
    2.5808    0.6500    1.2963 H   0  0  0  0  0  0  0  0  0  0  0  0
    1.4917   -0.6421   -1.3164 H   0  0  0  0  0  0  0  0  0  0  0  0
    1.8883   -1.6336    0.1890 H   0  0  0  0  0  0  0  0  0  0  0  0
    5.2606   -1.4575    1.1544 H   0  0  0  0  0  0  0  0  0  0  0  0
   -1.4260    0.6011    1.8302 H   0  0  0  0  0  0  0  0  0  0  0  0
   -1.9134    1.9632    0.7080 H   0  0  0  0  0  0  0  0  0  0  0  0
  1  2  1  0
  1 12  1  0
  1 13  1  0
  2  3  1  0
  2  5  1  0
  2 14  1  1
  3  4  2  0
  3 11  1  0
  5  8  1  0
  5 15  1  0
  5 16  1  0
  6  7  2  0
  6  8  1  0
  6  9  1  0
  9 10  1  0
  9 18  1  0
  9 19  1  0
 11 17  1  0
M  END
