
     RDKit          3D

101104  0  0  0  0  0  0  0  0999 V2000
    0.5935   -2.8281   -0.1128 O   0  0  0  0  0  0  0  0  0  0  0  0
    0.6642   -1.6314    0.1165 C   0  0  0  0  0  0  0  0  0  0  0  0
    1.9448   -0.8816   -0.0787 C   0  0  0  0  0  0  0  0  0  0  0  0
    2.3397    0.1047    0.8171 C   0  0  0  0  0  0  0  0  0  0  0  0
    2.7611   -1.1964   -1.1564 C   0  0  0  0  0  0  0  0  0  0  0  0
    3.9639   -0.5271   -1.3346 C   0  0  0  0  0  0  0  0  0  0  0  0
    4.7688   -0.9034   -2.4440 N   0  0  0  0  0  0  0  0  0  0  0  0
    5.6662   -2.0619   -2.2775 C   0  0  0  0  0  0  0  0  0  0  0  0
    5.9414   -2.7281   -3.6155 C   0  0  0  0  0  0  0  0  0  0  0  0
    6.5403   -1.7770   -4.6447 C   0  0  0  0  0  0  0  0  0  0  0  0
    5.6392   -0.5755   -4.9064 C   0  0  0  0  0  0  0  0  0  0  0  0
    5.3628    0.3289   -3.3986 S   0  0  1  0  0  0  0  0  0  0  0  0
    4.2937    1.3037   -3.5486 O   0  0  0  0  0  0  0  0  0  0  0  0
    6.6563    0.8022   -2.9116 O   0  0  0  0  0  0  0  0  0  0  0  0
    4.3660    0.4428   -0.4233 C   0  0  0  0  0  0  0  0  0  0  0  0
    3.5408    0.7779    0.6425 C   0  0  0  0  0  0  0  0  0  0  0  0
    4.0341    1.7790    1.6444 C   0  0  0  0  0  0  0  0  0  0  0  0
    3.2359    2.8209    1.9488 N   0  0  0  0  0  0  0  0  0  0  0  0
    3.7036    3.7819    2.9395 C   0  0  0  0  0  0  0  0  0  0  0  0
    4.6347    4.8421    2.3620 C   0  0  0  0  0  0  0  0  0  0  0  0
    5.0525    5.8482    3.4251 C   0  0  0  0  0  0  0  0  0  0  0  0
    2.0555    3.2076    1.1882 C   0  0  0  0  0  0  0  0  0  0  0  0
    0.7470    3.0654    1.9576 C   0  0  0  0  0  0  0  0  0  0  0  0
   -0.4482    3.4205    1.0855 C   0  0  0  0  0  0  0  0  0  0  0  0
    5.1333    1.6098    2.1566 O   0  0  0  0  0  0  0  0  0  0  0  0
   -0.3624   -0.8780    0.5460 N   0  0  0  0  0  0  0  0  0  0  0  0
   -1.6465   -1.3925    0.9667 C   0  0  1  0  0  0  0  0  0  0  0  0
   -1.8057   -1.2336    2.4888 C   0  0  0  0  0  0  0  0  0  0  0  0
   -0.6052   -1.7436    3.2350 C   0  0  0  0  0  0  0  0  0  0  0  0
    0.2779   -0.8599    3.8482 C   0  0  0  0  0  0  0  0  0  0  0  0
    1.4172   -1.3199    4.4963 C   0  0  0  0  0  0  0  0  0  0  0  0
    1.6855   -2.6805    4.5431 C   0  0  0  0  0  0  0  0  0  0  0  0
    0.8062   -3.5736    3.9427 C   0  0  0  0  0  0  0  0  0  0  0  0
   -0.3278   -3.1076    3.2935 C   0  0  0  0  0  0  0  0  0  0  0  0
   -2.7537   -0.7017    0.1584 C   0  0  2  0  0  0  0  0  0  0  0  0
   -2.6552    0.7083    0.2463 O   0  0  0  0  0  0  0  0  0  0  0  0
   -4.1435   -1.2001    0.5293 C   0  0  0  0  0  0  0  0  0  0  0  0
   -5.1120   -0.7064   -0.4266 N   0  0  0  0  0  0  0  0  0  0  0  0
   -6.5112   -1.0857   -0.2300 C   0  0  1  0  0  0  0  0  0  0  0  0
   -6.6399   -2.6134   -0.2759 C   0  0  0  0  0  0  0  0  0  0  0  0
   -7.0587   -0.5725    1.1101 C   0  0  0  0  0  0  0  0  0  0  0  0
   -7.3098   -0.5214   -1.4069 C   0  0  0  0  0  0  0  0  0  0  0  0
   -6.6859   -0.2102   -2.6178 C   0  0  0  0  0  0  0  0  0  0  0  0
   -7.4336    0.2571   -3.6858 C   0  0  0  0  0  0  0  0  0  0  0  0
   -8.8098    0.4226   -3.5929 C   0  0  0  0  0  0  0  0  0  0  0  0
   -9.4401    0.1035   -2.3939 C   0  0  0  0  0  0  0  0  0  0  0  0
   -8.6872   -0.3635   -1.3158 C   0  0  0  0  0  0  0  0  0  0  0  0
  -10.7677    0.2138   -2.1797 O   0  0  0  0  0  0  0  0  0  0  0  0
  -11.5836    0.6850   -3.2321 C   0  0  0  0  0  0  0  0  0  0  0  0
   -0.2494    0.1236    0.5722 H   0  0  0  0  0  0  0  0  0  0  0  0
    1.7295    0.3132    1.6860 H   0  0  0  0  0  0  0  0  0  0  0  0
    2.4638   -1.9538   -1.8705 H   0  0  0  0  0  0  0  0  0  0  0  0
    5.3225    0.9365   -0.5379 H   0  0  0  0  0  0  0  0  0  0  0  0
    6.5956   -1.7664   -1.7787 H   0  0  0  0  0  0  0  0  0  0  0  0
    5.1528   -2.7606   -1.6185 H   0  0  0  0  0  0  0  0  0  0  0  0
    6.6236   -3.5628   -3.4495 H   0  0  0  0  0  0  0  0  0  0  0  0
    5.0081   -3.1463   -4.0012 H   0  0  0  0  0  0  0  0  0  0  0  0
    7.5255   -1.4342   -4.3222 H   0  0  0  0  0  0  0  0  0  0  0  0
    6.6847   -2.2947   -5.5936 H   0  0  0  0  0  0  0  0  0  0  0  0
    6.0894    0.1335   -5.6034 H   0  0  0  0  0  0  0  0  0  0  0  0
    4.6589   -0.8693   -5.2833 H   0  0  0  0  0  0  0  0  0  0  0  0
    2.8264    4.2638    3.3751 H   0  0  0  0  0  0  0  0  0  0  0  0
    4.1982    3.2462    3.7502 H   0  0  0  0  0  0  0  0  0  0  0  0
    2.1776    4.2506    0.8805 H   0  0  0  0  0  0  0  0  0  0  0  0
    2.0129    2.6296    0.2662 H   0  0  0  0  0  0  0  0  0  0  0  0
    5.5176    4.3603    1.9376 H   0  0  0  0  0  0  0  0  0  0  0  0
    4.1345    5.3632    1.5406 H   0  0  0  0  0  0  0  0  0  0  0  0
    5.6013    5.3643    4.2348 H   0  0  0  0  0  0  0  0  0  0  0  0
    5.6975    6.6199    3.0051 H   0  0  0  0  0  0  0  0  0  0  0  0
    4.1848    6.3443    3.8636 H   0  0  0  0  0  0  0  0  0  0  0  0
    0.6420    2.0442    2.3363 H   0  0  0  0  0  0  0  0  0  0  0  0
    0.7588    3.7111    2.8386 H   0  0  0  0  0  0  0  0  0  0  0  0
   -1.3758    3.3752    1.6552 H   0  0  0  0  0  0  0  0  0  0  0  0
   -0.3577    4.4311    0.6843 H   0  0  0  0  0  0  0  0  0  0  0  0
   -0.5455    2.7373    0.2408 H   0  0  0  0  0  0  0  0  0  0  0  0
   -1.6697   -2.4545    0.7171 H   0  0  0  0  0  0  0  0  0  0  0  0
   -1.9610   -0.1804    2.7435 H   0  0  0  0  0  0  0  0  0  0  0  0
   -2.7038   -1.7676    2.8078 H   0  0  0  0  0  0  0  0  0  0  0  0
   -2.5814   -0.9402   -0.8951 H   0  0  0  0  0  0  0  0  0  0  0  0
    0.0672    0.2040    3.8263 H   0  0  0  0  0  0  0  0  0  0  0  0
   -1.0052   -3.8139    2.8272 H   0  0  0  0  0  0  0  0  0  0  0  0
    2.0918   -0.6152    4.9657 H   0  0  0  0  0  0  0  0  0  0  0  0
    2.5723   -3.0445    5.0456 H   0  0  0  0  0  0  0  0  0  0  0  0
    1.0064   -4.6369    3.9796 H   0  0  0  0  0  0  0  0  0  0  0  0
   -2.9974    0.9980    1.0993 H   0  0  0  0  0  0  0  0  0  0  0  0
   -4.1273   -2.2922    0.5043 H   0  0  0  0  0  0  0  0  0  0  0  0
   -4.3635   -0.9173    1.5703 H   0  0  0  0  0  0  0  0  0  0  0  0
   -5.0535    0.3053   -0.4577 H   0  0  0  0  0  0  0  0  0  0  0  0
   -6.1620   -3.0845    0.5852 H   0  0  0  0  0  0  0  0  0  0  0  0
   -7.6899   -2.9064   -0.2634 H   0  0  0  0  0  0  0  0  0  0  0  0
   -6.1861   -3.0127   -1.1841 H   0  0  0  0  0  0  0  0  0  0  0  0
   -7.0084    0.5167    1.1644 H   0  0  0  0  0  0  0  0  0  0  0  0
   -8.0922   -0.8711    1.2807 H   0  0  0  0  0  0  0  0  0  0  0  0
   -6.4789   -0.9815    1.9385 H   0  0  0  0  0  0  0  0  0  0  0  0
   -5.6178   -0.3365   -2.7198 H   0  0  0  0  0  0  0  0  0  0  0  0
   -9.2151   -0.6056   -0.4019 H   0  0  0  0  0  0  0  0  0  0  0  0
   -6.9394    0.5014   -4.6179 H   0  0  0  0  0  0  0  0  0  0  0  0
   -9.3587    0.7922   -4.4479 H   0  0  0  0  0  0  0  0  0  0  0  0
  -11.3127    1.6986   -3.5393 H   0  0  0  0  0  0  0  0  0  0  0  0
  -11.5426    0.0310   -4.1075 H   0  0  0  0  0  0  0  0  0  0  0  0
  -12.6026    0.6964   -2.8529 H   0  0  0  0  0  0  0  0  0  0  0  0
  1  2  2  0
  2  3  1  0
  2 26  1  0
  3  4  2  0
  3  5  1  0
  4 16  1  0
  5  6  2  0
  6  7  1  0
  6 15  1  0
  7  8  1  0
 12  7  1  1
  8  9  1  0
  9 10  1  0
 10 11  1  0
 11 12  1  0
 12 13  2  0
 12 14  2  0
 15 16  2  0
 16 17  1  0
 17 18  1  0
 17 25  2  0
 18 19  1  0
 18 22  1  0
 19 20  1  0
 20 21  1  0
 22 23  1  0
 23 24  1  0
 26 27  1  0
 27 28  1  0
 27 35  1  0
 28 29  1  0
 29 30  2  0
 29 34  1  0
 30 31  1  0
 31 32  2  0
 32 33  1  0
 33 34  2  0
 35 36  1  0
 35 37  1  0
 37 38  1  0
 39 38  1  6
 39 40  1  0
 39 41  1  0
 39 42  1  0
 42 43  2  0
 42 47  1  0
 43 44  1  0
 44 45  2  0
 45 46  1  0
 46 47  2  0
 46 48  1  0
 48 49  1  0
 26 50  1  0
  4 51  1  0
  5 52  1  0
 15 53  1  0
  8 54  1  0
  8 55  1  0
  9 56  1  0
  9 57  1  0
 10 58  1  0
 10 59  1  0
 11 60  1  0
 11 61  1  0
 19 62  1  0
 19 63  1  0
 22 64  1  0
 22 65  1  0
 20 66  1  0
 20 67  1  0
 21 68  1  0
 21 69  1  0
 21 70  1  0
 23 71  1  0
 23 72  1  0
 24 73  1  0
 24 74  1  0
 24 75  1  0
 27 76  1  1
 28 77  1  0
 28 78  1  0
 35 79  1  6
 30 80  1  0
 34 81  1  0
 31 82  1  0
 32 83  1  0
 33 84  1  0
 36 85  1  0
 37 86  1  0
 37 87  1  0
 38 88  1  0
 40 89  1  0
 40 90  1  0
 40 91  1  0
 41 92  1  0
 41 93  1  0
 41 94  1  0
 43 95  1  0
 47 96  1  0
 44 97  1  0
 45 98  1  0
 49 99  1  0
 49100  1  0
 49101  1  0
M  END
