
     RDKit          3D

 72 73  0  0  0  0  0  0  0  0999 V2000
   -3.1776   -0.4323    0.5951 C   0  0  0  0  0  0  0  0  0  0  0  0
   -4.2853    0.1561   -0.0013 C   0  0  0  0  0  0  0  0  0  0  0  0
   -4.2060    1.4683   -0.4805 C   0  0  0  0  0  0  0  0  0  0  0  0
   -3.0051    2.1502   -0.3354 C   0  0  0  0  0  0  0  0  0  0  0  0
   -1.8724    1.5877    0.2551 C   0  0  0  0  0  0  0  0  0  0  0  0
   -1.9927    0.2821    0.7167 C   0  0  0  0  0  0  0  0  0  0  0  0
   -0.5957    2.3915    0.4914 C   0  0  1  0  0  0  0  0  0  0  0  0
    0.6540    1.5355    0.2984 C   0  0  0  0  0  0  0  0  0  0  0  0
   -0.4699    3.6064   -0.4620 C   0  0  0  0  0  0  0  0  0  0  0  0
   -0.6894    2.9939    1.9174 C   0  0  0  0  0  0  0  0  0  0  0  0
   -0.7501    2.0225    3.0867 C   0  0  0  0  0  0  0  0  0  0  0  0
   -0.3561    3.3103   -1.9499 C   0  0  0  0  0  0  0  0  0  0  0  0
    0.7077    0.5511   -0.6934 C   0  0  0  0  0  0  0  0  0  0  0  0
    1.8444   -0.1921   -0.9667 C   0  0  0  0  0  0  0  0  0  0  0  0
    3.0018    0.0577   -0.2150 C   0  0  0  0  0  0  0  0  0  0  0  0
    1.8490   -1.2382   -2.0424 C   0  0  0  0  0  0  0  0  0  0  0  0
    2.9857    1.0403    0.7660 C   0  0  0  0  0  0  0  0  0  0  0  0
    1.8228    1.7660    1.0097 C   0  0  0  0  0  0  0  0  0  0  0  0
   -5.4788   -0.4606   -0.1664 O   0  0  0  0  0  0  0  0  0  0  0  0
   -8.5075   -3.9877    0.0145 O   0  0  0  0  0  0  0  0  0  0  0  0
   -5.6382   -1.7533    0.3478 C   0  0  0  0  0  0  0  0  0  0  0  0
   -7.0986   -2.1275    0.1663 C   0  0  0  0  0  0  0  0  0  0  0  0
   -7.2653   -3.4387   -0.0812 N   0  0  0  0  0  0  0  0  0  0  0  0
   -8.0025   -1.3221    0.2458 O   0  0  0  0  0  0  0  0  0  0  0  0
    7.7513   -1.1827    0.1290 C   0  0  1  0  0  0  0  0  0  0  0  0
    8.6855   -2.2355   -0.4727 C   0  0  0  0  0  0  0  0  0  0  0  0
    7.8483   -1.2300    1.6565 C   0  0  0  0  0  0  0  0  0  0  0  0
    8.2072    0.1940   -0.3650 C   0  0  0  0  0  0  0  0  0  0  0  0
    5.2863   -0.4777    0.1771 C   0  0  0  0  0  0  0  0  0  0  0  0
    4.0752   -0.7007   -0.5179 O   0  0  0  0  0  0  0  0  0  0  0  0
    6.3116   -1.4668   -0.3597 C   0  0  2  0  0  0  0  0  0  0  0  0
    5.8970   -2.7907   -0.1052 O   0  0  0  0  0  0  0  0  0  0  0  0
   -5.3898    2.1132   -1.1392 C   0  0  0  0  0  0  0  0  0  0  0  0
   -3.2105   -1.4465    0.9706 H   0  0  0  0  0  0  0  0  0  0  0  0
   -2.9712    3.1670   -0.7070 H   0  0  0  0  0  0  0  0  0  0  0  0
   -1.1483   -0.2075    1.1840 H   0  0  0  0  0  0  0  0  0  0  0  0
   -1.3117    4.2834   -0.2869 H   0  0  0  0  0  0  0  0  0  0  0  0
    0.4159    4.1641   -0.1461 H   0  0  0  0  0  0  0  0  0  0  0  0
    0.1506    3.6800    2.0615 H   0  0  0  0  0  0  0  0  0  0  0  0
   -1.5810    3.6275    1.9367 H   0  0  0  0  0  0  0  0  0  0  0  0
   -1.6656    1.4318    3.0812 H   0  0  0  0  0  0  0  0  0  0  0  0
    0.0921    1.3304    3.0905 H   0  0  0  0  0  0  0  0  0  0  0  0
   -0.7253    2.5735    4.0278 H   0  0  0  0  0  0  0  0  0  0  0  0
   -1.1885    2.7113   -2.3212 H   0  0  0  0  0  0  0  0  0  0  0  0
   -0.3502    4.2433   -2.5153 H   0  0  0  0  0  0  0  0  0  0  0  0
    0.5660    2.7806   -2.1884 H   0  0  0  0  0  0  0  0  0  0  0  0
   -0.1752    0.3509   -1.2889 H   0  0  0  0  0  0  0  0  0  0  0  0
    2.5985   -1.0292   -2.8079 H   0  0  0  0  0  0  0  0  0  0  0  0
    2.0734   -2.2292   -1.6437 H   0  0  0  0  0  0  0  0  0  0  0  0
    0.8784   -1.2894   -2.5340 H   0  0  0  0  0  0  0  0  0  0  0  0
    3.8648    1.2614    1.3570 H   0  0  0  0  0  0  0  0  0  0  0  0
    1.8632    2.5269    1.7779 H   0  0  0  0  0  0  0  0  0  0  0  0
   -8.8347   -4.0683   -0.8906 H   0  0  0  0  0  0  0  0  0  0  0  0
   -4.9765   -2.4733   -0.1475 H   0  0  0  0  0  0  0  0  0  0  0  0
   -5.4156   -1.7936    1.4223 H   0  0  0  0  0  0  0  0  0  0  0  0
   -6.5058   -4.1016   -0.0114 H   0  0  0  0  0  0  0  0  0  0  0  0
    8.4405   -3.2430   -0.1384 H   0  0  0  0  0  0  0  0  0  0  0  0
    8.6385   -2.2233   -1.5643 H   0  0  0  0  0  0  0  0  0  0  0  0
    9.7188   -2.0330   -0.1851 H   0  0  0  0  0  0  0  0  0  0  0  0
    7.5528   -2.2001    2.0647 H   0  0  0  0  0  0  0  0  0  0  0  0
    8.8784   -1.0589    1.9749 H   0  0  0  0  0  0  0  0  0  0  0  0
    7.2334   -0.4641    2.1332 H   0  0  0  0  0  0  0  0  0  0  0  0
    9.2693    0.3316   -0.1556 H   0  0  0  0  0  0  0  0  0  0  0  0
    8.0695    0.2952   -1.4440 H   0  0  0  0  0  0  0  0  0  0  0  0
    7.6764    1.0153    0.1181 H   0  0  0  0  0  0  0  0  0  0  0  0
    5.6228    0.5526    0.0266 H   0  0  0  0  0  0  0  0  0  0  0  0
    5.1392   -0.6220    1.2556 H   0  0  0  0  0  0  0  0  0  0  0  0
    6.3214   -1.3743   -1.4525 H   0  0  0  0  0  0  0  0  0  0  0  0
    5.8690   -2.9306    0.8474 H   0  0  0  0  0  0  0  0  0  0  0  0
   -6.2535    2.1541   -0.4737 H   0  0  0  0  0  0  0  0  0  0  0  0
   -5.1532    3.1320   -1.4424 H   0  0  0  0  0  0  0  0  0  0  0  0
   -5.7025    1.5676   -2.0311 H   0  0  0  0  0  0  0  0  0  0  0  0
 25 26  1  6
 28 25  1  0
 25 27  1  0
 25 31  1  0
 31 29  1  0
 31 32  1  0
 29 30  1  0
 30 15  1  0
 17 15  2  0
 17 18  1  0
 15 14  1  0
 20 23  1  0
 18  8  2  0
 23 22  1  0
 12  9  1  0
 14 16  1  0
 14 13  2  0
 19  2  1  0
 19 21  1  0
  1  2  2  0
  1  6  1  0
  8 13  1  0
  8  7  1  0
  2  3  1  0
  6  5  2  0
 22 21  1  0
 22 24  2  0
  3 33  1  0
  3  4  2  0
  5  4  1  0
  5  7  1  0
  7  9  1  6
  7 10  1  0
 10 11  1  0
  1 34  1  0
  4 35  1  0
  6 36  1  0
  9 37  1  0
  9 38  1  0
 10 39  1  0
 10 40  1  0
 11 41  1  0
 11 42  1  0
 11 43  1  0
 12 44  1  0
 12 45  1  0
 12 46  1  0
 13 47  1  0
 16 48  1  0
 16 49  1  0
 16 50  1  0
 17 51  1  0
 18 52  1  0
 20 53  1  0
 21 54  1  0
 21 55  1  0
 23 56  1  0
 26 57  1  0
 26 58  1  0
 26 59  1  0
 27 60  1  0
 27 61  1  0
 27 62  1  0
 28 63  1  0
 28 64  1  0
 28 65  1  0
 29 66  1  0
 29 67  1  0
 31 68  1  6
 32 69  1  0
 33 70  1  0
 33 71  1  0
 33 72  1  0
M  END
