
     RDKit          3D

 47 49  0  0  0  0  0  0  0  0999 V2000
   -3.7697    0.4760    0.8673 S   0  0  1  0  0  0  0  0  0  0  0  0
    5.0292   -2.1169    0.4833 N   0  0  0  0  0  0  0  0  0  0  0  0
    5.0854   -0.8001    0.6618 C   0  0  0  0  0  0  0  0  0  0  0  0
    4.1241    0.0930    0.5011 N   0  0  0  0  0  0  0  0  0  0  0  0
    2.9859   -0.4755    0.1137 C   0  0  0  0  0  0  0  0  0  0  0  0
    2.7724   -1.8260   -0.1101 C   0  0  0  0  0  0  0  0  0  0  0  0
    3.8774   -2.6739    0.0920 C   0  0  0  0  0  0  0  0  0  0  0  0
    3.8210   -3.9920   -0.0987 N   0  0  0  0  0  0  0  0  0  0  0  0
    1.4757   -2.0581   -0.4934 N   0  0  0  0  0  0  0  0  0  0  0  0
    0.9283   -0.8814   -0.5049 C   0  0  0  0  0  0  0  0  0  0  0  0
    1.7868    0.1243   -0.1497 N   0  0  0  0  0  0  0  0  0  0  0  0
    1.4941    1.5298   -0.0547 C   0  0  1  0  0  0  0  0  0  0  0  0
   -4.6009   -1.8370   -0.3594 C   0  0  0  0  0  0  0  0  0  0  0  0
   -4.2207   -3.1166   -1.0944 C   0  0  0  0  0  0  0  0  0  0  0  0
   -5.4090   -3.9044   -1.3769 N   0  0  0  0  0  0  0  0  0  0  0  0
   -3.3672   -0.9921   -0.0761 C   0  0  0  0  0  0  0  0  0  0  0  0
    1.0637    2.1635   -1.3787 C   0  0  2  0  0  0  0  0  0  0  0  0
    2.1922    2.5289   -2.1121 O   0  0  0  0  0  0  0  0  0  0  0  0
   -4.6552    1.3078    0.0653 O   0  0  0  0  0  0  0  0  0  0  0  0
    0.2037    3.3286   -0.8835 C   0  0  2  0  0  0  0  0  0  0  0  0
    1.0051    4.3762   -0.4065 O   0  0  0  0  0  0  0  0  0  0  0  0
   -4.1869    0.0597    2.1971 O   0  0  0  0  0  0  0  0  0  0  0  0
   -0.5011    2.6848    0.3030 C   0  0  2  0  0  0  0  0  0  0  0  0
    0.4253    1.7301    0.8325 O   0  0  0  0  0  0  0  0  0  0  0  0
   -1.7942    1.9985   -0.1038 C   0  0  0  0  0  0  0  0  0  0  0  0
   -2.3631    1.3172    1.0522 N   0  0  0  0  0  0  0  0  0  0  0  0
    4.6164   -4.5681    0.1163 H   0  0  0  0  0  0  0  0  0  0  0  0
    2.9580   -4.4454   -0.3420 H   0  0  0  0  0  0  0  0  0  0  0  0
   -0.1011   -0.6843   -0.7649 H   0  0  0  0  0  0  0  0  0  0  0  0
    2.4086    2.0069    0.3120 H   0  0  0  0  0  0  0  0  0  0  0  0
   -5.3131   -1.2717   -0.9628 H   0  0  0  0  0  0  0  0  0  0  0  0
   -5.0951   -2.0954    0.5806 H   0  0  0  0  0  0  0  0  0  0  0  0
   -3.7467   -2.8565   -2.0442 H   0  0  0  0  0  0  0  0  0  0  0  0
   -3.4638   -3.6534   -0.5047 H   0  0  0  0  0  0  0  0  0  0  0  0
   -5.1470   -4.7260   -1.9063 H   0  0  0  0  0  0  0  0  0  0  0  0
   -5.7937   -4.2529   -0.5072 H   0  0  0  0  0  0  0  0  0  0  0  0
   -2.8969   -0.6613   -1.0051 H   0  0  0  0  0  0  0  0  0  0  0  0
   -2.6308   -1.5456    0.5107 H   0  0  0  0  0  0  0  0  0  0  0  0
    0.4289    1.4650   -1.9387 H   0  0  0  0  0  0  0  0  0  0  0  0
    1.9408    2.6487   -3.0336 H   0  0  0  0  0  0  0  0  0  0  0  0
   -0.5075    3.6712   -1.6464 H   0  0  0  0  0  0  0  0  0  0  0  0
    1.6940    4.5465   -1.0596 H   0  0  0  0  0  0  0  0  0  0  0  0
   -0.7170    3.4210    1.0818 H   0  0  0  0  0  0  0  0  0  0  0  0
   -2.4898    2.7634   -0.4466 H   0  0  0  0  0  0  0  0  0  0  0  0
   -1.6170    1.3188   -0.9469 H   0  0  0  0  0  0  0  0  0  0  0  0
   -1.6889    0.8070    1.6153 H   0  0  0  0  0  0  0  0  0  0  0  0
    6.0476   -0.4135    0.9797 H   0  0  0  0  0  0  0  0  0  0  0  0
  1 16  1  0
  1 19  2  0
  1 22  2  0
  1 26  1  1
  2  3  2  0
  2  7  1  0
  3  4  1  0
  4  5  2  0
  5  6  1  0
  5 11  1  0
  6  7  2  0
  6  9  1  0
  7  8  1  0
  9 10  2  0
 10 11  1  0
 11 12  1  0
 12 17  1  0
 12 24  1  0
 13 14  1  0
 13 16  1  0
 14 15  1  0
 17 18  1  0
 17 20  1  0
 20 21  1  0
 20 23  1  0
 23 24  1  0
 23 25  1  0
 25 26  1  0
  3 47  1  0
  8 27  1  0
  8 28  1  0
 10 29  1  0
 12 30  1  1
 13 31  1  0
 13 32  1  0
 14 33  1  0
 14 34  1  0
 15 35  1  0
 15 36  1  0
 16 37  1  0
 16 38  1  0
 17 39  1  6
 18 40  1  0
 20 41  1  6
 21 42  1  0
 23 43  1  1
 25 44  1  0
 25 45  1  0
 26 46  1  0
M  END
