
     RDKit          3D

 81 83  0  0  0  0  0  0  0  0999 V2000
    7.5529   -0.5959    0.2678 C   0  0  1  0  0  0  0  0  0  0  0  0
   -4.7499    4.2059    1.2931 C   0  0  0  0  0  0  0  0  0  0  0  0
   -3.0670   -0.6859   -0.2509 C   0  0  0  0  0  0  0  0  0  0  0  0
   -3.9712   -1.7511    0.3554 C   0  0  0  0  0  0  0  0  0  0  0  0
   -4.7696   -2.5035   -0.7024 C   0  0  0  0  0  0  0  0  0  0  0  0
   -5.7772   -3.5134   -0.1561 C   0  0  2  0  0  0  0  0  0  0  0  0
   -5.1127   -4.6551    0.6149 C   0  0  0  0  0  0  0  0  0  0  0  0
   -6.1328   -5.6725    1.1193 C   0  0  0  0  0  0  0  0  0  0  0  0
   -6.9854   -6.2235   -0.0182 C   0  0  0  0  0  0  0  0  0  0  0  0
   -7.6608   -5.0940   -0.7889 C   0  0  0  0  0  0  0  0  0  0  0  0
   -6.6367   -4.0793   -1.2873 C   0  0  0  0  0  0  0  0  0  0  0  0
   -3.5932    4.0223    0.3140 C   0  0  2  0  0  0  0  0  0  0  0  0
    2.3371    0.4010    0.5142 C   0  0  0  0  0  0  0  0  0  0  0  0
    2.7771   -0.8874    0.8068 C   0  0  0  0  0  0  0  0  0  0  0  0
    4.0061   -1.3433    0.3528 C   0  0  0  0  0  0  0  0  0  0  0  0
    4.8256   -0.5136   -0.4080 C   0  0  0  0  0  0  0  0  0  0  0  0
    4.3841    0.7699   -0.7224 C   0  0  0  0  0  0  0  0  0  0  0  0
    3.1574    1.2205   -0.2593 C   0  0  0  0  0  0  0  0  0  0  0  0
    8.8845   -1.1351   -0.2279 C   0  0  0  0  0  0  0  0  0  0  0  0
    7.1961   -1.2179    1.6155 C   0  0  0  0  0  0  0  0  0  0  0  0
    7.6206    0.9266    0.3747 C   0  0  0  0  0  0  0  0  0  0  0  0
   -4.0364    4.3406   -1.1140 C   0  0  0  0  0  0  0  0  0  0  0  0
   -4.6210    5.7465   -1.2136 C   0  0  0  0  0  0  0  0  0  0  0  0
   -5.7738    5.9367   -0.2332 C   0  0  0  0  0  0  0  0  0  0  0  0
   -5.3415    5.6082    1.1916 C   0  0  0  0  0  0  0  0  0  0  0  0
   -1.7635    2.3882    0.1335 C   0  0  0  0  0  0  0  0  0  0  0  0
   -0.0517    0.7018   -0.1521 C   0  0  0  0  0  0  0  0  0  0  0  0
   -2.2375    0.0415    0.8017 C   0  0  0  0  0  0  0  0  0  0  0  0
   -1.3886    1.0817    0.2518 N   0  0  0  0  0  0  0  0  0  0  0  0
   -3.0565    2.6819    0.4458 N   0  0  0  0  0  0  0  0  0  0  0  0
    9.8659   -0.8713    0.6186 O   0  0  0  0  0  0  0  0  0  0  0  0
   -0.9646    3.2565   -0.2121 O   0  0  0  0  0  0  0  0  0  0  0  0
    9.0397   -1.7253   -1.2668 O   0  0  0  0  0  0  0  0  0  0  0  0
    6.3628   -1.1190   -1.0462 S   0  0  0  0  0  0  0  0  0  0  0  0
   -5.5278    3.4624    1.0810 H   0  0  0  0  0  0  0  0  0  0  0  0
   -4.4024    4.0132    2.3113 H   0  0  0  0  0  0  0  0  0  0  0  0
   -2.3923   -1.1465   -0.9799 H   0  0  0  0  0  0  0  0  0  0  0  0
   -3.6726    0.0357   -0.8100 H   0  0  0  0  0  0  0  0  0  0  0  0
   -3.3628   -2.4483    0.9391 H   0  0  0  0  0  0  0  0  0  0  0  0
   -4.6615   -1.2800    1.0641 H   0  0  0  0  0  0  0  0  0  0  0  0
   -5.3081   -1.7736   -1.3177 H   0  0  0  0  0  0  0  0  0  0  0  0
   -4.0778   -3.0163   -1.3816 H   0  0  0  0  0  0  0  0  0  0  0  0
   -6.4458   -2.9839    0.5383 H   0  0  0  0  0  0  0  0  0  0  0  0
   -4.3931   -5.1568   -0.0441 H   0  0  0  0  0  0  0  0  0  0  0  0
   -4.5386   -4.2650    1.4593 H   0  0  0  0  0  0  0  0  0  0  0  0
   -5.6234   -6.4860    1.6419 H   0  0  0  0  0  0  0  0  0  0  0  0
   -6.7838   -5.1901    1.8573 H   0  0  0  0  0  0  0  0  0  0  0  0
   -6.3487   -6.7958   -0.7018 H   0  0  0  0  0  0  0  0  0  0  0  0
   -7.7319   -6.9211    0.3701 H   0  0  0  0  0  0  0  0  0  0  0  0
   -8.2306   -5.4960   -1.6307 H   0  0  0  0  0  0  0  0  0  0  0  0
   -8.3840   -4.5912   -0.1373 H   0  0  0  0  0  0  0  0  0  0  0  0
   -7.1387   -3.2622   -1.8138 H   0  0  0  0  0  0  0  0  0  0  0  0
   -5.9806   -4.5626   -2.0221 H   0  0  0  0  0  0  0  0  0  0  0  0
    0.6672    0.3193    1.8462 H   0  0  0  0  0  0  0  0  0  0  0  0
    1.0285    1.9310    1.2407 H   0  0  0  0  0  0  0  0  0  0  0  0
   -2.7995    4.7208    0.5921 H   0  0  0  0  0  0  0  0  0  0  0  0
    2.1540   -1.5443    1.4022 H   0  0  0  0  0  0  0  0  0  0  0  0
    4.3304   -2.3480    0.5917 H   0  0  0  0  0  0  0  0  0  0  0  0
    5.0016    1.4180   -1.3307 H   0  0  0  0  0  0  0  0  0  0  0  0
    2.8335    2.2250   -0.5058 H   0  0  0  0  0  0  0  0  0  0  0  0
    7.1679   -2.3061    1.5639 H   0  0  0  0  0  0  0  0  0  0  0  0
    7.9165   -0.9220    2.3783 H   0  0  0  0  0  0  0  0  0  0  0  0
    6.2161   -0.8674    1.9381 H   0  0  0  0  0  0  0  0  0  0  0  0
    6.6439    1.3229    0.6518 H   0  0  0  0  0  0  0  0  0  0  0  0
    8.3268    1.2266    1.1494 H   0  0  0  0  0  0  0  0  0  0  0  0
    7.9172    1.3866   -0.5676 H   0  0  0  0  0  0  0  0  0  0  0  0
   -3.1896    4.2293   -1.7947 H   0  0  0  0  0  0  0  0  0  0  0  0
   -4.7937    3.6101   -1.4216 H   0  0  0  0  0  0  0  0  0  0  0  0
   -3.8382    6.4836   -1.0029 H   0  0  0  0  0  0  0  0  0  0  0  0
   -4.9548    5.9389   -2.2359 H   0  0  0  0  0  0  0  0  0  0  0  0
   -6.1519    6.9605   -0.2855 H   0  0  0  0  0  0  0  0  0  0  0  0
   -6.6045    5.2837   -0.5228 H   0  0  0  0  0  0  0  0  0  0  0  0
   -6.1844    5.7055    1.8793 H   0  0  0  0  0  0  0  0  0  0  0  0
   -4.5894    6.3347    1.5172 H   0  0  0  0  0  0  0  0  0  0  0  0
    0.2502    1.2768   -1.0277 H   0  0  0  0  0  0  0  0  0  0  0  0
   -0.0797   -0.3451   -0.4624 H   0  0  0  0  0  0  0  0  0  0  0  0
   -2.8797    0.4597    1.5804 H   0  0  0  0  0  0  0  0  0  0  0  0
   -1.5947   -0.6770    1.3168 H   0  0  0  0  0  0  0  0  0  0  0  0
   -3.7405    1.9429    0.4658 H   0  0  0  0  0  0  0  0  0  0  0  0
   10.7047   -1.2184    0.2781 H   0  0  0  0  0  0  0  0  0  0  0  0
    0.9863    0.8768    0.9621 C   0  0  0  0  0  0  0  0  0  0  0  0
  3 28  1  0
  3  4  1  0
  7  8  1  0
  7  6  1  0
 30 12  1  0
 30 26  1  0
 28 29  1  0
 33 19  2  0
 22 12  1  0
 22 23  1  0
  4  5  1  0
  8  9  1  0
 12  2  1  0
 31 19  1  0
  1 19  1  6
  6  5  1  0
  6 11  1  0
 26 32  2  0
 26 29  1  0
 21  1  1  0
 20  1  1  0
 29 27  1  0
  1 34  1  0
 23 24  1  0
  9 10  1  0
 11 10  1  0
  2 25  1  0
 27 81  1  0
 24 25  1  0
 34 16  1  0
 15 16  1  0
 15 14  2  0
 16 17  2  0
 14 13  1  0
 17 18  1  0
 13 18  2  0
 13 81  1  0
  2 35  1  0
  2 36  1  0
  3 37  1  0
  3 38  1  0
  4 39  1  0
  4 40  1  0
  5 41  1  0
  5 42  1  0
  6 43  1  1
  7 44  1  0
  7 45  1  0
  8 46  1  0
  8 47  1  0
  9 48  1  0
  9 49  1  0
 10 50  1  0
 10 51  1  0
 11 52  1  0
 11 53  1  0
 81 54  1  0
 81 55  1  0
 12 56  1  1
 14 57  1  0
 15 58  1  0
 17 59  1  0
 18 60  1  0
 20 61  1  0
 20 62  1  0
 20 63  1  0
 21 64  1  0
 21 65  1  0
 21 66  1  0
 22 67  1  0
 22 68  1  0
 23 69  1  0
 23 70  1  0
 24 71  1  0
 24 72  1  0
 25 73  1  0
 25 74  1  0
 27 75  1  0
 27 76  1  0
 28 77  1  0
 28 78  1  0
 30 79  1  0
 31 80  1  0
M  END
