
     RDKit          3D

 81 83  0  0  0  0  0  0  0  0999 V2000
    2.2633   -0.2329    1.2351 C   0  0  1  0  0  0  0  0  0  0  0  0
    2.2522   -0.7201    2.5612 O   0  0  0  0  0  0  0  0  0  0  0  0
    3.3768    0.8007    1.1483 C   0  0  0  0  0  0  0  0  0  0  0  0
    4.1718    1.1285    2.2408 C   0  0  0  0  0  0  0  0  0  0  0  0
    3.6164    1.4397   -0.0677 C   0  0  0  0  0  0  0  0  0  0  0  0
    5.1827    2.0743    2.1199 C   0  0  0  0  0  0  0  0  0  0  0  0
    4.6273    2.3782   -0.1701 C   0  0  0  0  0  0  0  0  0  0  0  0
    5.4244    2.7115    0.9139 C   0  0  0  0  0  0  0  0  0  0  0  0
    2.5653   -1.3791    0.2514 C   0  0  0  0  0  0  0  0  0  0  0  0
    3.9117   -2.0601    0.4674 C   0  0  0  0  0  0  0  0  0  0  0  0
    4.1357   -3.2016   -0.5183 C   0  0  0  0  0  0  0  0  0  0  0  0
    5.4721   -3.8780   -0.2879 C   0  0  0  0  0  0  0  0  0  0  0  0
    5.6426   -4.9222   -1.2155 O   0  0  0  0  0  0  0  0  0  0  0  0
    6.8669   -5.5893   -1.0550 C   0  0  0  0  0  0  0  0  0  0  0  0
   -4.2433    0.2022   -1.8188 C   0  0  2  0  0  0  0  0  0  0  0  0
   -4.0450    0.9248   -3.1486 C   0  0  0  0  0  0  0  0  0  0  0  0
   -5.6386    0.5030   -1.2679 C   0  0  0  0  0  0  0  0  0  0  0  0
   -2.7923    0.5802   -3.7831 N   0  0  0  0  0  0  0  0  0  0  0  0
   -5.9353   -0.0206    0.1344 C   0  0  1  0  0  0  0  0  0  0  0  0
   -7.3528    0.3803    0.5471 C   0  0  0  0  0  0  0  0  0  0  0  0
   -7.7092   -0.1075    1.9469 C   0  0  0  0  0  0  0  0  0  0  0  0
   -7.5216   -1.6158    2.0682 C   0  0  0  0  0  0  0  0  0  0  0  0
   -5.7574   -1.5328    0.2635 C   0  0  0  0  0  0  0  0  0  0  0  0
   -6.1087   -2.0239    1.6662 C   0  0  0  0  0  0  0  0  0  0  0  0
   -3.2157    0.5818   -0.8683 N   0  0  0  0  0  0  0  0  0  0  0  0
   -2.0541   -1.3570   -0.9409 O   0  0  0  0  0  0  0  0  0  0  0  0
   -1.5130    0.1621    0.6526 N   0  0  0  0  0  0  0  0  0  0  0  0
   -0.6985    2.3184    1.4569 C   0  0  0  0  0  0  0  0  0  0  0  0
    0.6415    1.6706    1.7889 C   0  0  0  0  0  0  0  0  0  0  0  0
    0.9098    0.4529    0.9018 C   0  0  2  0  0  0  0  0  0  0  0  0
   -0.2780   -0.5168    0.9893 C   0  0  0  0  0  0  0  0  0  0  0  0
   -1.8123    1.2865    1.5179 C   0  0  0  0  0  0  0  0  0  0  0  0
   -2.5643    1.3344   -4.9977 C   0  0  0  0  0  0  0  0  0  0  0  0
    4.9020    3.1579   -1.6973 Cl  0  0  0  0  0  0  0  0  0  0  0  0
    1.7344   -1.5311    2.5891 H   0  0  0  0  0  0  0  0  0  0  0  0
    4.0130    0.6515    3.1965 H   0  0  0  0  0  0  0  0  0  0  0  0
    3.0176    1.2115   -0.9404 H   0  0  0  0  0  0  0  0  0  0  0  0
    5.7929    2.3191    2.9797 H   0  0  0  0  0  0  0  0  0  0  0  0
    6.2111    3.4472    0.8201 H   0  0  0  0  0  0  0  0  0  0  0  0
    1.7780   -2.1353    0.3298 H   0  0  0  0  0  0  0  0  0  0  0  0
    2.5086   -0.9964   -0.7717 H   0  0  0  0  0  0  0  0  0  0  0  0
    4.7213   -1.3318    0.3663 H   0  0  0  0  0  0  0  0  0  0  0  0
    3.9707   -2.4467    1.4886 H   0  0  0  0  0  0  0  0  0  0  0  0
    3.3318   -3.9375   -0.4205 H   0  0  0  0  0  0  0  0  0  0  0  0
    4.0922   -2.8173   -1.5422 H   0  0  0  0  0  0  0  0  0  0  0  0
    6.2845   -3.1419   -0.3834 H   0  0  0  0  0  0  0  0  0  0  0  0
    5.5205   -4.2645    0.7416 H   0  0  0  0  0  0  0  0  0  0  0  0
    6.9279   -6.3746   -1.8078 H   0  0  0  0  0  0  0  0  0  0  0  0
    7.7240   -4.9172   -1.1876 H   0  0  0  0  0  0  0  0  0  0  0  0
    6.9576   -6.0524   -0.0647 H   0  0  0  0  0  0  0  0  0  0  0  0
   -4.1380   -0.8684   -1.9932 H   0  0  0  0  0  0  0  0  0  0  0  0
   -4.8631    0.6462   -3.8209 H   0  0  0  0  0  0  0  0  0  0  0  0
   -4.1500    2.0112   -2.9767 H   0  0  0  0  0  0  0  0  0  0  0  0
   -5.7951    1.5888   -1.2739 H   0  0  0  0  0  0  0  0  0  0  0  0
   -6.3709    0.0893   -1.9698 H   0  0  0  0  0  0  0  0  0  0  0  0
   -2.0366    0.7659   -3.1356 H   0  0  0  0  0  0  0  0  0  0  0  0
   -5.2377    0.4583    0.8343 H   0  0  0  0  0  0  0  0  0  0  0  0
   -7.4610    1.4674    0.4878 H   0  0  0  0  0  0  0  0  0  0  0  0
   -8.0644   -0.0414   -0.1737 H   0  0  0  0  0  0  0  0  0  0  0  0
   -7.0709    0.3960    2.6812 H   0  0  0  0  0  0  0  0  0  0  0  0
   -8.7380    0.1689    2.1910 H   0  0  0  0  0  0  0  0  0  0  0  0
   -7.7368   -1.9458    3.0877 H   0  0  0  0  0  0  0  0  0  0  0  0
   -8.2441   -2.1224    1.4187 H   0  0  0  0  0  0  0  0  0  0  0  0
   -6.4032   -2.0324   -0.4694 H   0  0  0  0  0  0  0  0  0  0  0  0
   -4.7325   -1.8234    0.0194 H   0  0  0  0  0  0  0  0  0  0  0  0
   -5.3955   -1.6019    2.3835 H   0  0  0  0  0  0  0  0  0  0  0  0
   -5.9962   -3.1097    1.7220 H   0  0  0  0  0  0  0  0  0  0  0  0
   -3.2611    1.5261   -0.5248 H   0  0  0  0  0  0  0  0  0  0  0  0
   -0.9107    3.1266    2.1599 H   0  0  0  0  0  0  0  0  0  0  0  0
   -0.6670    2.7591    0.4557 H   0  0  0  0  0  0  0  0  0  0  0  0
    1.4410    2.4058    1.6836 H   0  0  0  0  0  0  0  0  0  0  0  0
    0.6393    1.3585    2.8380 H   0  0  0  0  0  0  0  0  0  0  0  0
    0.9621    0.7906   -0.1401 H   0  0  0  0  0  0  0  0  0  0  0  0
   -0.3626   -0.9201    2.0062 H   0  0  0  0  0  0  0  0  0  0  0  0
   -0.1597   -1.3586    0.3141 H   0  0  0  0  0  0  0  0  0  0  0  0
   -2.7775    1.7275    1.2796 H   0  0  0  0  0  0  0  0  0  0  0  0
   -1.9033    0.9106    2.5442 H   0  0  0  0  0  0  0  0  0  0  0  0
   -1.5799    1.0984   -5.4024 H   0  0  0  0  0  0  0  0  0  0  0  0
   -3.3036    1.0589   -5.7528 H   0  0  0  0  0  0  0  0  0  0  0  0
   -2.6232    2.4250   -4.8679 H   0  0  0  0  0  0  0  0  0  0  0  0
   -2.2535   -0.2637   -0.4141 C   0  0  0  0  0  0  0  0  0  0  0  0
  1  2  1  1
  1  3  1  0
  1  9  1  0
  1 30  1  0
  3  4  2  0
  3  5  1  0
  4  6  1  0
  5  7  2  0
  6  8  2  0
  7  8  1  0
  7 34  1  0
  9 10  1  0
 10 11  1  0
 11 12  1  0
 12 13  1  0
 13 14  1  0
 15 16  1  0
 15 17  1  0
 15 25  1  0
 16 18  1  0
 17 19  1  0
 18 33  1  0
 19 20  1  0
 19 23  1  0
 20 21  1  0
 21 22  1  0
 22 24  1  0
 23 24  1  0
 25 81  1  0
 81 26  2  0
 81 27  1  0
 27 31  1  0
 27 32  1  0
 28 29  1  0
 28 32  1  0
 29 30  1  0
 30 31  1  0
  2 35  1  0
  4 36  1  0
  5 37  1  0
  6 38  1  0
  8 39  1  0
  9 40  1  0
  9 41  1  0
 10 42  1  0
 10 43  1  0
 11 44  1  0
 11 45  1  0
 12 46  1  0
 12 47  1  0
 14 48  1  0
 14 49  1  0
 14 50  1  0
 15 51  1  6
 16 52  1  0
 16 53  1  0
 17 54  1  0
 17 55  1  0
 18 56  1  0
 19 57  1  1
 20 58  1  0
 20 59  1  0
 21 60  1  0
 21 61  1  0
 22 62  1  0
 22 63  1  0
 23 64  1  0
 23 65  1  0
 24 66  1  0
 24 67  1  0
 25 68  1  0
 28 69  1  0
 28 70  1  0
 29 71  1  0
 29 72  1  0
 30 73  1  6
 31 74  1  0
 31 75  1  0
 32 76  1  0
 32 77  1  0
 33 78  1  0
 33 79  1  0
 33 80  1  0
M  END
