
     RDKit          3D

 45 49  0  0  0  0  0  0  0  0999 V2000
    1.6846   -2.2140   -1.8719 C   0  0  0  0  0  0  0  0  0  0  0  0
    1.2077   -3.4017   -1.3516 C   0  0  0  0  0  0  0  0  0  0  0  0
    3.4332    1.9788    0.8471 C   0  0  0  0  0  0  0  0  0  0  0  0
    1.0679    1.7861    0.1371 C   0  0  0  0  0  0  0  0  0  0  0  0
   -1.2387    2.9052   -0.7848 C   0  0  0  0  0  0  0  0  0  0  0  0
   -0.0425    3.6299   -0.9396 C   0  0  0  0  0  0  0  0  0  0  0  0
    1.1102    3.0764   -0.4937 C   0  0  0  0  0  0  0  0  0  0  0  0
   -3.2075    2.1283   -0.7432 C   0  0  0  0  0  0  0  0  0  0  0  0
   -2.4179    1.1426   -0.1692 C   0  0  0  0  0  0  0  0  0  0  0  0
   -2.8287   -0.1626    0.3272 C   0  0  0  0  0  0  0  0  0  0  0  0
   -1.9419   -1.1945    0.6391 C   0  0  0  0  0  0  0  0  0  0  0  0
   -2.4577   -2.4047    1.0731 C   0  0  0  0  0  0  0  0  0  0  0  0
   -3.8296   -2.5603    1.1859 C   0  0  0  0  0  0  0  0  0  0  0  0
   -4.6303   -1.4781    0.8454 C   0  0  0  0  0  0  0  0  0  0  0  0
    1.8375   -2.1066   -3.2036 F   0  0  0  0  0  0  0  0  0  0  0  0
    1.0569   -3.4913    0.0250 C   0  0  0  0  0  0  0  0  0  0  0  0
    1.3671   -2.4127    0.8416 C   0  0  0  0  0  0  0  0  0  0  0  0
    1.8416   -1.2249    0.2934 C   0  0  0  0  0  0  0  0  0  0  0  0
    2.0108   -1.1296   -1.0827 C   0  0  0  0  0  0  0  0  0  0  0  0
    2.2274   -0.0957    1.2143 C   0  0  1  0  0  0  0  0  0  0  0  0
    3.6808   -0.2299    1.6910 C   0  0  0  0  0  0  0  0  0  0  0  0
    4.0955    1.2044    1.9782 C   0  0  0  0  0  0  0  0  0  0  0  0
    2.2097    1.2208    0.5959 N   0  0  0  0  0  0  0  0  0  0  0  0
   -0.0423    1.1007    0.2783 N   0  0  0  0  0  0  0  0  0  0  0  0
   -1.1530    1.6664   -0.2033 N   0  0  0  0  0  0  0  0  0  0  0  0
   -2.4875    3.1957   -1.1200 N   0  0  0  0  0  0  0  0  0  0  0  0
   -4.1535   -0.3162    0.4311 N   0  0  0  0  0  0  0  0  0  0  0  0
    0.9588   -4.2302   -2.0015 H   0  0  0  0  0  0  0  0  0  0  0  0
    3.2138    3.0074    1.1342 H   0  0  0  0  0  0  0  0  0  0  0  0
    4.0688    2.0051   -0.0432 H   0  0  0  0  0  0  0  0  0  0  0  0
   -0.0640    4.5982   -1.4199 H   0  0  0  0  0  0  0  0  0  0  0  0
    2.0501    3.5912   -0.6240 H   0  0  0  0  0  0  0  0  0  0  0  0
   -4.2741    2.0757   -0.8971 H   0  0  0  0  0  0  0  0  0  0  0  0
   -0.8773   -1.0576    0.5374 H   0  0  0  0  0  0  0  0  0  0  0  0
   -1.7865   -3.2182    1.3169 H   0  0  0  0  0  0  0  0  0  0  0  0
   -4.2719   -3.4871    1.5230 H   0  0  0  0  0  0  0  0  0  0  0  0
   -5.7100   -1.5559    0.9141 H   0  0  0  0  0  0  0  0  0  0  0  0
    0.6859   -4.4097    0.4604 H   0  0  0  0  0  0  0  0  0  0  0  0
    1.2288   -2.4927    1.9133 H   0  0  0  0  0  0  0  0  0  0  0  0
    2.3839   -0.2205   -1.5380 H   0  0  0  0  0  0  0  0  0  0  0  0
    1.5508   -0.1116    2.0778 H   0  0  0  0  0  0  0  0  0  0  0  0
    3.7572   -0.8947    2.5501 H   0  0  0  0  0  0  0  0  0  0  0  0
    4.2958   -0.6471    0.8900 H   0  0  0  0  0  0  0  0  0  0  0  0
    5.1754    1.3438    1.9954 H   0  0  0  0  0  0  0  0  0  0  0  0
    3.6960    1.5333    2.9396 H   0  0  0  0  0  0  0  0  0  0  0  0
 22  3  1  0
 22 21  1  0
  3 23  1  0
 21 20  1  0
 15  1  1  0
 19  1  2  0
 19 18  1  0
  1  2  1  0
 23 20  1  0
 23  4  1  0
 20 18  1  0
 18 17  2  0
  2 16  2  0
  7  4  1  0
  7  6  2  0
 17 16  1  0
  4 24  2  0
  6  5  1  0
 24 25  1  0
  5 25  1  0
  5 26  2  0
 25  9  1  0
 11 12  2  0
 11 10  1  0
 26  8  1  0
  9 10  1  0
  9  8  2  0
 12 13  1  0
 10 27  2  0
 13 14  2  0
 27 14  1  0
  2 28  1  0
  3 29  1  0
  3 30  1  0
  6 31  1  0
  7 32  1  0
  8 33  1  0
 11 34  1  0
 12 35  1  0
 13 36  1  0
 14 37  1  0
 16 38  1  0
 17 39  1  0
 19 40  1  0
 20 41  1  1
 21 42  1  0
 21 43  1  0
 22 44  1  0
 22 45  1  0
M  END
