
     RDKit          3D

 56 58  0  0  0  0  0  0  0  0999 V2000
    2.1114  -13.9777   -9.9938 C   0  0  0  0  0  0  0  0  0  0  0  0
    1.5745  -12.7078   -9.3547 C   0  0  0  0  0  0  0  0  0  0  0  0
    0.7246  -12.9642   -8.2004 N   0  0  0  0  0  0  0  0  0  0  0  0
   -0.6026  -13.4263   -8.5804 C   0  0  0  0  0  0  0  0  0  0  0  0
   -1.3085  -14.1713   -7.4591 C   0  0  0  0  0  0  0  0  0  0  0  0
    0.6819  -11.8227   -7.3050 C   0  0  0  0  0  0  0  0  0  0  0  0
    1.8644  -11.8355   -6.3387 C   0  0  0  0  0  0  0  0  0  0  0  0
    1.8934  -10.6636   -5.4931 N   0  0  0  0  0  0  0  0  0  0  0  0
    1.1923  -10.5561   -4.3491 C   0  0  0  0  0  0  0  0  0  0  0  0
    0.5565  -11.4930   -3.8766 O   0  0  0  0  0  0  0  0  0  0  0  0
    1.2426   -9.2455   -3.6736 C   0  0  0  0  0  0  0  0  0  0  0  0
    1.3383   -7.9550   -4.2296 C   0  0  0  0  0  0  0  0  0  0  0  0
    1.4399   -7.5850   -5.6719 C   0  0  0  0  0  0  0  0  0  0  0  0
    1.1321   -9.1021   -2.2830 C   0  0  0  0  0  0  0  0  0  0  0  0
    1.0007  -10.1253   -1.2145 C   0  0  0  0  0  0  0  0  0  0  0  0
    1.1773   -7.8003   -2.0066 N   0  0  0  0  0  0  0  0  0  0  0  0
    1.2931   -7.0554   -3.1568 C   0  0  0  0  0  0  0  0  0  0  0  0
    1.3467   -5.6478   -3.2178 C   0  0  0  0  0  0  0  0  0  0  0  0
    1.3258   -4.6873   -2.2495 C   0  0  0  0  0  0  0  0  0  0  0  0
    1.3871   -3.2547   -2.4882 C   0  0  0  0  0  0  0  0  0  0  0  0
    1.4664   -2.4962   -3.6443 C   0  0  0  0  0  0  0  0  0  0  0  0
    1.5051   -1.1138   -3.5157 C   0  0  0  0  0  0  0  0  0  0  0  0
    1.6062   -0.1408   -4.9520 Cl  0  0  0  0  0  0  0  0  0  0  0  0
    1.4663   -0.4858   -2.2777 C   0  0  0  0  0  0  0  0  0  0  0  0
    1.3868   -1.2454   -1.1143 C   0  0  0  0  0  0  0  0  0  0  0  0
    1.3482   -2.6194   -1.2399 C   0  0  0  0  0  0  0  0  0  0  0  0
    1.2675   -3.5906   -0.2586 N   0  0  0  0  0  0  0  0  0  0  0  0
    1.2452   -4.8488   -0.7850 C   0  0  0  0  0  0  0  0  0  0  0  0
    1.1696   -5.8726   -0.1088 O   0  0  0  0  0  0  0  0  0  0  0  0
    2.6674  -14.5694   -9.2660 H   0  0  0  0  0  0  0  0  0  0  0  0
    1.3179  -14.6049  -10.4012 H   0  0  0  0  0  0  0  0  0  0  0  0
    2.7827  -13.7321  -10.8172 H   0  0  0  0  0  0  0  0  0  0  0  0
    1.0509  -12.0984  -10.1094 H   0  0  0  0  0  0  0  0  0  0  0  0
    2.4250  -12.1065   -9.0259 H   0  0  0  0  0  0  0  0  0  0  0  0
   -1.2306  -12.5938   -8.9378 H   0  0  0  0  0  0  0  0  0  0  0  0
   -0.5000  -14.1087   -9.4260 H   0  0  0  0  0  0  0  0  0  0  0  0
   -0.2337  -11.8565   -6.7132 H   0  0  0  0  0  0  0  0  0  0  0  0
    0.6592  -10.8665   -7.8522 H   0  0  0  0  0  0  0  0  0  0  0  0
   -0.7367  -15.0515   -7.1636 H   0  0  0  0  0  0  0  0  0  0  0  0
   -1.4498  -13.5529   -6.5716 H   0  0  0  0  0  0  0  0  0  0  0  0
   -2.2950  -14.5017   -7.7856 H   0  0  0  0  0  0  0  0  0  0  0  0
    2.8081  -11.8670   -6.8837 H   0  0  0  0  0  0  0  0  0  0  0  0
    1.8191  -12.7341   -5.7240 H   0  0  0  0  0  0  0  0  0  0  0  0
    2.4582   -9.8883   -5.7948 H   0  0  0  0  0  0  0  0  0  0  0  0
    0.8428   -8.2486   -6.2965 H   0  0  0  0  0  0  0  0  0  0  0  0
    1.0937   -6.5699   -5.8570 H   0  0  0  0  0  0  0  0  0  0  0  0
    2.4711   -7.6365   -6.0302 H   0  0  0  0  0  0  0  0  0  0  0  0
    1.1448   -9.6800   -0.2314 H   0  0  0  0  0  0  0  0  0  0  0  0
    0.0151  -10.5896   -1.2363 H   0  0  0  0  0  0  0  0  0  0  0  0
    1.7338  -10.9201   -1.3410 H   0  0  0  0  0  0  0  0  0  0  0  0
    1.1407   -7.3583   -1.0846 H   0  0  0  0  0  0  0  0  0  0  0  0
    1.4219   -5.2711   -4.2327 H   0  0  0  0  0  0  0  0  0  0  0  0
    1.4973   -2.9573   -4.6231 H   0  0  0  0  0  0  0  0  0  0  0  0
    1.4975    0.5929   -2.2127 H   0  0  0  0  0  0  0  0  0  0  0  0
    1.3552   -0.7630   -0.1465 H   0  0  0  0  0  0  0  0  0  0  0  0
    1.2228   -3.4062    0.7319 H   0  0  0  0  0  0  0  0  0  0  0  0
  1  2  1  0
  2  3  1  0
  3  4  1  0
  4  5  1  0
  3  6  1  0
  6  7  1  0
  7  8  1  0
  8  9  1  0
  9 10  2  0
  9 11  1  0
 11 12  1  0
 12 13  1  0
 11 14  2  0
 14 15  1  0
 14 16  1  0
 12 17  2  0
 16 17  1  0
 17 18  1  0
 18 19  2  0
 19 20  1  0
 20 21  2  0
 21 22  1  0
 22 23  1  0
 22 24  2  0
 24 25  1  0
 20 26  1  0
 25 26  2  0
 26 27  1  0
 19 28  1  0
 27 28  1  0
 28 29  2  0
  1 30  1  0
  1 31  1  0
  1 32  1  0
  2 33  1  0
  2 34  1  0
  4 35  1  0
  4 36  1  0
  6 37  1  0
  6 38  1  0
  5 39  1  0
  5 40  1  0
  5 41  1  0
  7 42  1  0
  7 43  1  0
  8 44  1  0
 13 45  1  0
 13 46  1  0
 13 47  1  0
 15 48  1  0
 15 49  1  0
 15 50  1  0
 16 51  1  0
 18 52  1  0
 21 53  1  0
 24 54  1  0
 25 55  1  0
 27 56  1  0
M  END
