
     RDKit          3D

 32 31  0  0  0  0  0  0  0  0999 V2000
   -4.2833    0.7792   -1.5522 N   0  0  0  0  0  0  0  0  0  0  0  0
   -3.8811   -0.2070   -0.5802 C   0  0  1  0  0  0  0  0  0  0  0  0
   -2.5836    0.1545    0.1605 C   0  0  0  0  0  0  0  0  0  0  0  0
   -1.4273    0.3312   -0.7994 C   0  0  0  0  0  0  0  0  0  0  0  0
   -0.1290    0.5122   -0.0398 C   0  0  0  0  0  0  0  0  0  0  0  0
    1.0167    0.7541   -1.0251 C   0  0  0  0  0  0  0  0  0  0  0  0
    2.2814    1.0056   -0.3840 N   0  0  0  0  0  0  0  0  0  0  0  0
    3.1762    0.0995   -0.2022 C   0  0  0  0  0  0  0  0  0  0  0  0
    4.5443    0.5409    0.2226 C   0  0  0  0  0  0  0  0  0  0  0  0
    5.1540    1.4240   -0.6046 O   0  0  0  0  0  0  0  0  0  0  0  0
    5.1505    0.1794    1.2361 O   0  0  0  0  0  0  0  0  0  0  0  0
    2.9772   -1.3963   -0.0387 C   0  0  0  0  0  0  0  0  0  0  0  0
    4.1791   -2.1019    0.1541 O   0  0  0  0  0  0  0  0  0  0  0  0
   -4.9513   -0.4983    0.4694 C   0  0  0  0  0  0  0  0  0  0  0  0
   -5.8665    0.2351    0.8563 O   0  0  0  0  0  0  0  0  0  0  0  0
   -4.8645   -1.7311    1.0369 O   0  0  0  0  0  0  0  0  0  0  0  0
   -5.1756    0.5467   -1.9445 H   0  0  0  0  0  0  0  0  0  0  0  0
   -4.3304    1.6921   -1.1442 H   0  0  0  0  0  0  0  0  0  0  0  0
   -3.7146   -1.1807   -1.1373 H   0  0  0  0  0  0  0  0  0  0  0  0
   -2.7296    1.0919    0.7576 H   0  0  0  0  0  0  0  0  0  0  0  0
   -2.3582   -0.6770    0.8809 H   0  0  0  0  0  0  0  0  0  0  0  0
   -1.3537   -0.5653   -1.4700 H   0  0  0  0  0  0  0  0  0  0  0  0
   -1.6077    1.2226   -1.4565 H   0  0  0  0  0  0  0  0  0  0  0  0
   -0.2188    1.3808    0.6647 H   0  0  0  0  0  0  0  0  0  0  0  0
    0.0823   -0.4008    0.5754 H   0  0  0  0  0  0  0  0  0  0  0  0
    1.0413   -0.1014   -1.7615 H   0  0  0  0  0  0  0  0  0  0  0  0
    0.7935    1.6946   -1.6104 H   0  0  0  0  0  0  0  0  0  0  0  0
    6.0303    1.6487   -0.2465 H   0  0  0  0  0  0  0  0  0  0  0  0
    2.2685   -1.5812    0.8152 H   0  0  0  0  0  0  0  0  0  0  0  0
    2.5476   -1.8273   -0.9873 H   0  0  0  0  0  0  0  0  0  0  0  0
    3.9593   -3.0279    0.3359 H   0  0  0  0  0  0  0  0  0  0  0  0
   -5.5751   -1.8417    1.6908 H   0  0  0  0  0  0  0  0  0  0  0  0
  2  1  1  0
  1 17  1  0
  1 18  1  0
  3  2  1  0
  2 14  1  0
  2 19  1  6
  4  3  1  0
  3 20  1  0
  3 21  1  0
  5  4  1  0
  4 22  1  0
  4 23  1  0
  6  5  1  0
  5 24  1  0
  5 25  1  0
  7  6  1  0
  6 26  1  0
  6 27  1  0
  8  7  2  0
  9  8  1  0
 12  8  1  0
 11  9  2  0
  9 10  1  0
 10 28  1  0
 13 12  1  0
 12 29  1  0
 12 30  1  0
 13 31  1  0
 14 15  2  0
 14 16  1  0
 16 32  1  0
M  END
