
     RDKit          3D

 50 52  0  0  0  0  0  0  0  0999 V2000
   -3.2833   -0.1592   -0.9813 C   0  0  1  0  0  0  0  0  0  0  0  0
   -4.1018    1.0854   -1.3323 C   0  0  1  0  0  0  0  0  0  0  0  0
   -4.3920    1.8894   -0.0721 C   0  0  2  0  0  0  0  0  0  0  0  0
   -5.0481    0.9946    0.9728 C   0  0  1  0  0  0  0  0  0  0  0  0
   -4.1954   -0.2503    1.2189 C   0  0  1  0  0  0  0  0  0  0  0  0
   -4.9078   -1.2448    2.1115 C   0  0  0  0  0  0  0  0  0  0  0  0
   -0.9678   -0.5699   -0.5302 C   0  0  0  0  0  0  0  0  0  0  0  0
   -1.0817   -1.9499   -0.6098 C   0  0  0  0  0  0  0  0  0  0  0  0
    0.0835   -2.7207   -0.5799 C   0  0  0  0  0  0  0  0  0  0  0  0
    1.3322   -2.1341   -0.4514 C   0  0  0  0  0  0  0  0  0  0  0  0
    1.4386   -0.7422   -0.3554 C   0  0  0  0  0  0  0  0  0  0  0  0
    0.2828    0.0312   -0.3999 C   0  0  0  0  0  0  0  0  0  0  0  0
    2.7183   -0.0483   -0.2209 C   0  0  0  0  0  0  0  0  0  0  0  0
    3.9267   -0.6207   -0.1330 C   0  0  0  0  0  0  0  0  0  0  0  0
    5.3396    1.4570    0.0664 C   0  0  0  0  0  0  0  0  0  0  0  0
    6.5788    2.0585    0.1808 C   0  0  0  0  0  0  0  0  0  0  0  0
    7.7367    1.2808    0.2295 C   0  0  0  0  0  0  0  0  0  0  0  0
    7.6280   -0.1058    0.1651 C   0  0  0  0  0  0  0  0  0  0  0  0
    6.3805   -0.6927    0.0505 C   0  0  0  0  0  0  0  0  0  0  0  0
    5.2074    0.0664   -0.0041 C   0  0  0  0  0  0  0  0  0  0  0  0
   -2.0172    0.2835   -0.5653 O   0  0  0  0  0  0  0  0  0  0  0  0
   -3.4415    1.9160   -2.2498 O   0  0  0  0  0  0  0  0  0  0  0  0
   -5.2806    2.9522   -0.3268 O   0  0  0  0  0  0  0  0  0  0  0  0
   -5.1993    1.6626    2.2009 O   0  0  0  0  0  0  0  0  0  0  0  0
   -3.9310   -0.9125   -0.0099 O   0  0  0  0  0  0  0  0  0  0  0  0
   -4.0467   -2.3282    2.3642 O   0  0  0  0  0  0  0  0  0  0  0  0
   -0.0788   -4.0554   -0.6718 O   0  0  0  0  0  0  0  0  0  0  0  0
   -3.1869   -0.8145   -1.8554 H   0  0  0  0  0  0  0  0  0  0  0  0
   -5.0571    0.7255   -1.7388 H   0  0  0  0  0  0  0  0  0  0  0  0
   -3.4450    2.2675    0.3406 H   0  0  0  0  0  0  0  0  0  0  0  0
   -6.0252    0.6711    0.5776 H   0  0  0  0  0  0  0  0  0  0  0  0
   -3.2561    0.0510    1.7033 H   0  0  0  0  0  0  0  0  0  0  0  0
   -5.1967   -0.7317    3.0346 H   0  0  0  0  0  0  0  0  0  0  0  0
   -5.8356   -1.5631    1.6157 H   0  0  0  0  0  0  0  0  0  0  0  0
   -2.0371   -2.4519   -0.6720 H   0  0  0  0  0  0  0  0  0  0  0  0
    2.2153   -2.7616   -0.4278 H   0  0  0  0  0  0  0  0  0  0  0  0
    0.3487    1.1107   -0.3408 H   0  0  0  0  0  0  0  0  0  0  0  0
    2.6398    1.0342   -0.1937 H   0  0  0  0  0  0  0  0  0  0  0  0
    4.0022   -1.7040   -0.1579 H   0  0  0  0  0  0  0  0  0  0  0  0
    4.4655    2.0944    0.0321 H   0  0  0  0  0  0  0  0  0  0  0  0
    6.6460    3.1396    0.2310 H   0  0  0  0  0  0  0  0  0  0  0  0
    8.5184   -0.7206    0.2038 H   0  0  0  0  0  0  0  0  0  0  0  0
    6.3145   -1.7732    0.0016 H   0  0  0  0  0  0  0  0  0  0  0  0
   -3.5761    1.5696   -3.1368 H   0  0  0  0  0  0  0  0  0  0  0  0
   -4.8348    3.5948   -0.8875 H   0  0  0  0  0  0  0  0  0  0  0  0
   -5.7444    2.4423    2.0526 H   0  0  0  0  0  0  0  0  0  0  0  0
   -4.4946   -2.9255    2.9696 H   0  0  0  0  0  0  0  0  0  0  0  0
    0.7761   -4.4993   -0.6420 H   0  0  0  0  0  0  0  0  0  0  0  0
    8.9176    2.7771    0.3577 H   0  0  0  0  0  0  0  0  0  0  0  0
    8.9669    1.8148    0.3368 O   0  0  0  0  0  0  0  0  0  0  0  0
 22  2  1  0
  2  1  1  0
  2  3  1  0
 23  3  1  0
  1 25  1  0
  1 21  1  0
 27  9  1  0
  3  4  1  0
 25  5  1  0
  8  9  2  0
  8  7  1  0
  9 10  1  0
  4  5  1  0
  4 24  1  0
 21  7  1  0
 26  6  1  0
  7 12  2  0
  5  6  1  0
 10 11  2  0
 12 11  1  0
 11 13  1  0
 13 14  2  0
 14 20  1  0
 19 20  1  0
 19 18  2  0
 20 15  2  0
 18 17  1  0
 15 16  1  0
 17 16  2  0
 17 50  1  0
  1 28  1  6
  2 29  1  6
  3 30  1  1
  4 31  1  6
  5 32  1  1
  6 33  1  0
  6 34  1  0
  8 35  1  0
 10 36  1  0
 12 37  1  0
 13 38  1  0
 14 39  1  0
 15 40  1  0
 16 41  1  0
 18 42  1  0
 19 43  1  0
 22 44  1  0
 23 45  1  0
 24 46  1  0
 26 47  1  0
 27 48  1  0
 50 49  1  0
M  END
