
     RDKit          3D

 41 42  0  0  0  0  0  0  0  0999 V2000
    0.1315    3.3187   -0.1667 C   0  0  0  0  0  0  0  0  0  0  0  0
    1.0848    2.1787   -0.0800 C   0  0  0  0  0  0  0  0  0  0  0  0
    2.4015    2.3540    0.3513 C   0  0  0  0  0  0  0  0  0  0  0  0
    2.9256    3.6940    0.7674 C   0  0  0  0  0  0  0  0  0  0  0  0
    3.2377    1.3244    0.3954 N   0  0  0  0  0  0  0  0  0  0  0  0
    2.8202    0.1312    0.0598 C   0  0  0  0  0  0  0  0  0  0  0  0
    3.7590   -1.0005    0.1206 C   0  0  0  0  0  0  0  0  0  0  0  0
    4.9213   -0.9036    0.4534 O   0  0  0  0  0  0  0  0  0  0  0  0
    3.1851   -2.1861   -0.2409 N   0  0  0  0  0  0  0  0  0  0  0  0
    1.8580   -2.3981   -0.6201 C   0  0  0  0  0  0  0  0  0  0  0  0
    1.4975   -3.5287   -0.8919 O   0  0  0  0  0  0  0  0  0  0  0  0
    1.0260   -1.3285   -0.6669 N   0  0  0  0  0  0  0  0  0  0  0  0
    1.5004   -0.1434   -0.3586 C   0  0  0  0  0  0  0  0  0  0  0  0
    0.6721    0.9472   -0.4496 N   0  0  0  0  0  0  0  0  0  0  0  0
   -0.6754    0.7370   -1.0005 C   0  0  0  0  0  0  0  0  0  0  0  0
   -1.6946    0.3574    0.0846 C   0  0  2  0  0  0  0  0  0  0  0  0
   -1.2019   -0.6394    0.9419 O   0  0  0  0  0  0  0  0  0  0  0  0
   -3.0053   -0.0917   -0.5919 C   0  0  2  0  0  0  0  0  0  0  0  0
   -3.3030    0.6653   -1.7442 O   0  0  0  0  0  0  0  0  0  0  0  0
   -4.2168   -0.0877    0.3640 C   0  0  2  0  0  0  0  0  0  0  0  0
   -3.9071   -0.4318    1.6902 O   0  0  0  0  0  0  0  0  0  0  0  0
   -5.3194   -0.9656   -0.2079 C   0  0  0  0  0  0  0  0  0  0  0  0
   -6.4922   -0.7786    0.5478 O   0  0  0  0  0  0  0  0  0  0  0  0
   -0.0509    3.5955   -1.2075 H   0  0  0  0  0  0  0  0  0  0  0  0
   -0.8284    3.0821    0.2893 H   0  0  0  0  0  0  0  0  0  0  0  0
    0.5258    4.1927    0.3402 H   0  0  0  0  0  0  0  0  0  0  0  0
    2.4085    4.0713    1.6506 H   0  0  0  0  0  0  0  0  0  0  0  0
    3.9826    3.6079    1.0071 H   0  0  0  0  0  0  0  0  0  0  0  0
    2.8146    4.4380   -0.0214 H   0  0  0  0  0  0  0  0  0  0  0  0
    3.7781   -3.0067   -0.2171 H   0  0  0  0  0  0  0  0  0  0  0  0
   -0.9723    1.6440   -1.5153 H   0  0  0  0  0  0  0  0  0  0  0  0
   -0.5891   -0.0475   -1.7505 H   0  0  0  0  0  0  0  0  0  0  0  0
   -1.8871    1.2344    0.7136 H   0  0  0  0  0  0  0  0  0  0  0  0
   -0.7230   -1.2926    0.4083 H   0  0  0  0  0  0  0  0  0  0  0  0
   -2.8311   -1.1129   -0.9558 H   0  0  0  0  0  0  0  0  0  0  0  0
   -3.5775    1.5496   -1.4762 H   0  0  0  0  0  0  0  0  0  0  0  0
   -4.5867    0.9452    0.4159 H   0  0  0  0  0  0  0  0  0  0  0  0
   -3.3981   -1.2494    1.6932 H   0  0  0  0  0  0  0  0  0  0  0  0
   -5.4708   -0.7046   -1.2622 H   0  0  0  0  0  0  0  0  0  0  0  0
   -4.9812   -2.0127   -0.1828 H   0  0  0  0  0  0  0  0  0  0  0  0
   -7.1829   -1.3276    0.1670 H   0  0  0  0  0  0  0  0  0  0  0  0
  1  2  1  0
  2  3  2  0
  2 14  1  0
  3  4  1  0
  3  5  1  0
  5  6  2  0
  6  7  1  0
  6 13  1  0
  7  8  2  0
  7  9  1  0
  9 10  1  0
 10 11  2  0
 10 12  1  0
 12 13  2  0
 13 14  1  0
 14 15  1  0
 15 16  1  0
 16 17  1  0
 16 18  1  0
 18 19  1  0
 18 20  1  0
 20 21  1  0
 20 22  1  0
 22 23  1  0
  1 24  1  0
  1 25  1  0
  1 26  1  0
  4 27  1  0
  4 28  1  0
  4 29  1  0
  9 30  1  0
 15 31  1  0
 15 32  1  0
 16 33  1  1
 17 34  1  0
 18 35  1  6
 19 36  1  0
 20 37  1  1
 21 38  1  0
 22 39  1  0
 22 40  1  0
 23 41  1  0
M  END
