
     RDKit          3D

 27 27  0  0  0  0  0  0  0  0999 V2000
   -2.9707    1.5314   -0.4122 C   0  0  0  0  0  0  0  0  0  0  0  0
    1.9858    1.5234   -1.5941 N   0  0  0  0  0  0  0  0  0  0  0  0
   -4.4436   -0.7202    0.0779 O   0  0  0  0  0  0  0  0  0  0  0  0
    3.4800   -1.7172    0.9555 O   0  0  0  0  0  0  0  0  0  0  0  0
   -2.5983   -1.9727    0.1938 O   0  0  0  0  0  0  0  0  0  0  0  0
    2.9556   -1.6021   -1.2089 O   0  0  0  0  0  0  0  0  0  0  0  0
    0.9273    1.6396    1.6360 C   0  0  0  0  0  0  0  0  0  0  0  0
    1.8098    0.5068    1.4217 C   0  0  0  0  0  0  0  0  0  0  0  0
    0.0135    1.9766    0.7238 C   0  0  0  0  0  0  0  0  0  0  0  0
   -1.0608    0.0823   -0.2755 O   0  0  0  0  0  0  0  0  0  0  0  0
   -2.3743    0.3522   -0.2367 C   0  0  0  0  0  0  0  0  0  0  0  0
   -3.1351   -0.9072    0.0341 C   0  0  0  0  0  0  0  0  0  0  0  0
    2.8583   -1.2021    0.0547 C   0  0  0  0  0  0  0  0  0  0  0  0
    1.9225   -0.0707    0.2172 C   0  0  0  0  0  0  0  0  0  0  0  0
    1.1670    0.4946   -0.9609 C   0  0  1  0  0  0  0  0  0  0  0  0
   -0.1428    1.1465   -0.5193 C   0  0  2  0  0  0  0  0  0  0  0  0
   -4.0446    1.6138   -0.3722 H   0  0  0  0  0  0  0  0  0  0  0  0
   -2.4272    2.4467   -0.5968 H   0  0  0  0  0  0  0  0  0  0  0  0
    2.8938    1.1403   -1.8250 H   0  0  0  0  0  0  0  0  0  0  0  0
    1.5668    1.7782   -2.4812 H   0  0  0  0  0  0  0  0  0  0  0  0
   -4.8904   -1.5585    0.2666 H   0  0  0  0  0  0  0  0  0  0  0  0
    3.5784   -2.3410   -1.2766 H   0  0  0  0  0  0  0  0  0  0  0  0
    1.0172    2.1940    2.5610 H   0  0  0  0  0  0  0  0  0  0  0  0
    2.3876    0.1417    2.2618 H   0  0  0  0  0  0  0  0  0  0  0  0
   -0.6557    2.8102    0.8926 H   0  0  0  0  0  0  0  0  0  0  0  0
    0.8950   -0.3163   -1.6476 H   0  0  0  0  0  0  0  0  0  0  0  0
   -0.5071    1.7609   -1.3517 H   0  0  0  0  0  0  0  0  0  0  0  0
  2 15  1  0
  3 12  1  0
  4 13  2  0
  5 12  2  0
  7  8  1  0
  9  7  2  0
 10 16  1  0
 11  1  2  0
 11 10  1  0
 12 11  1  0
 13  6  1  0
 14  8  2  0
 14 13  1  0
 15 14  1  0
 16  9  1  0
 16 15  1  0
  1 17  1  0
  1 18  1  0
  2 19  1  0
  2 20  1  0
  3 21  1  0
  6 22  1  0
  7 23  1  0
  8 24  1  0
  9 25  1  0
 15 26  1  6
 16 27  1  6
M  END
