
     RDKit          3D

 62 63  0  0  0  0  0  0  0  0999 V2000
    4.9802   -4.8233    1.7725 C   0  0  0  0  0  0  0  0  0  0  0  0
    3.3167   -3.2616    2.7894 C   0  0  0  0  0  0  0  0  0  0  0  0
    3.6195   -4.2618    1.8638 C   0  0  0  0  0  0  0  0  0  0  0  0
    2.6032   -4.7175    1.0262 C   0  0  0  0  0  0  0  0  0  0  0  0
    1.3233   -4.1941    1.1187 C   0  0  0  0  0  0  0  0  0  0  0  0
    2.0387   -2.7367    2.8779 C   0  0  0  0  0  0  0  0  0  0  0  0
    1.0253   -3.2040    2.0454 C   0  0  0  0  0  0  0  0  0  0  0  0
   -0.3811   -2.6544    2.1358 C   0  0  1  0  0  0  0  0  0  0  0  0
   -1.1154   -3.3396    3.2822 C   0  0  1  0  0  0  0  0  0  0  0  0
   -1.1556   -4.6640    3.1039 F   0  0  0  0  0  0  0  0  0  0  0  0
   -0.5469   -3.1168    4.4700 F   0  0  0  0  0  0  0  0  0  0  0  0
   -2.3862   -2.9183    3.3751 F   0  0  0  0  0  0  0  0  0  0  0  0
    1.8673    1.1761    2.0084 N   0  0  0  0  0  0  0  0  0  0  0  0
    2.4113    2.3518    2.6491 C   0  0  0  0  0  0  0  0  0  0  0  0
   -0.3758   -1.2289    2.3762 N   0  0  0  0  0  0  0  0  0  0  0  0
    0.1976   -0.4283    1.2949 C   0  0  1  0  0  0  0  0  0  0  0  0
   -0.7398   -0.2672    0.0958 C   0  0  0  0  0  0  0  0  0  0  0  0
   -0.1607    0.3971   -1.1607 C   0  0  2  0  0  0  0  0  0  0  0  0
    1.1241   -0.2799   -1.6319 C   0  0  0  0  0  0  0  0  0  0  0  0
    0.0388    1.9055   -1.0343 C   0  0  0  0  0  0  0  0  0  0  0  0
    0.5565    0.9020    1.9420 C   0  0  0  0  0  0  0  0  0  0  0  0
   -0.3126    1.6408    2.3834 O   0  0  0  0  0  0  0  0  0  0  0  0
    5.7449   -5.0293    2.9200 C   0  0  0  0  0  0  0  0  0  0  0  0
    7.0174   -5.5728    2.8422 C   0  0  0  0  0  0  0  0  0  0  0  0
    7.5341   -5.9098    1.6012 C   0  0  0  0  0  0  0  0  0  0  0  0
    6.7947   -5.7118    0.4417 C   0  0  0  0  0  0  0  0  0  0  0  0
    5.5256   -5.1724    0.5338 C   0  0  0  0  0  0  0  0  0  0  0  0
    9.1495   -6.6225    1.4773 S   0  0  1  0  0  0  0  0  0  0  0  0
   10.0438   -5.3634    0.8976 N   0  0  0  0  0  0  0  0  0  0  0  0
    9.5627   -7.0080    2.8189 O   0  0  0  0  0  0  0  0  0  0  0  0
    9.1385   -7.6271    0.4242 O   0  0  0  0  0  0  0  0  0  0  0  0
    2.6756    2.1392    4.1352 C   0  0  0  0  0  0  0  0  0  0  0  0
    3.2470    3.3460    4.7086 N   0  0  0  0  0  0  0  0  0  0  0  0
    4.0921   -2.8675    3.4343 H   0  0  0  0  0  0  0  0  0  0  0  0
    2.8001   -5.5008    0.3051 H   0  0  0  0  0  0  0  0  0  0  0  0
    0.5505   -4.5638    0.4559 H   0  0  0  0  0  0  0  0  0  0  0  0
    1.8390   -1.9409    3.5837 H   0  0  0  0  0  0  0  0  0  0  0  0
   -0.9203   -2.9523    1.2221 H   0  0  0  0  0  0  0  0  0  0  0  0
    2.5196    0.4932    1.6597 H   0  0  0  0  0  0  0  0  0  0  0  0
    1.7189    3.1830    2.5040 H   0  0  0  0  0  0  0  0  0  0  0  0
    3.3416    2.6145    2.1453 H   0  0  0  0  0  0  0  0  0  0  0  0
   -1.3117   -0.8890    2.5658 H   0  0  0  0  0  0  0  0  0  0  0  0
    1.1099   -0.9327    0.9667 H   0  0  0  0  0  0  0  0  0  0  0  0
   -1.6351    0.2735    0.4172 H   0  0  0  0  0  0  0  0  0  0  0  0
   -1.0763   -1.2679   -0.1919 H   0  0  0  0  0  0  0  0  0  0  0  0
   -0.9149    0.2423   -1.9394 H   0  0  0  0  0  0  0  0  0  0  0  0
    1.4113    0.0829   -2.6198 H   0  0  0  0  0  0  0  0  0  0  0  0
    1.0101   -1.3640   -1.6975 H   0  0  0  0  0  0  0  0  0  0  0  0
    1.9602   -0.0712   -0.9601 H   0  0  0  0  0  0  0  0  0  0  0  0
    0.8619    2.1581   -0.3648 H   0  0  0  0  0  0  0  0  0  0  0  0
    0.2774    2.3377   -2.0080 H   0  0  0  0  0  0  0  0  0  0  0  0
   -0.8590    2.4024   -0.6641 H   0  0  0  0  0  0  0  0  0  0  0  0
    5.3391   -4.7888    3.8938 H   0  0  0  0  0  0  0  0  0  0  0  0
    7.5844   -5.7386    3.7475 H   0  0  0  0  0  0  0  0  0  0  0  0
    7.1983   -5.9657   -0.5294 H   0  0  0  0  0  0  0  0  0  0  0  0
    4.9614   -5.0036   -0.3742 H   0  0  0  0  0  0  0  0  0  0  0  0
   10.4351   -4.7773    1.6266 H   0  0  0  0  0  0  0  0  0  0  0  0
   10.7642   -5.6747    0.2549 H   0  0  0  0  0  0  0  0  0  0  0  0
    3.3967    1.3263    4.2505 H   0  0  0  0  0  0  0  0  0  0  0  0
    1.7473    1.8076    4.6193 H   0  0  0  0  0  0  0  0  0  0  0  0
    3.4952    3.1778    5.6746 H   0  0  0  0  0  0  0  0  0  0  0  0
    2.5450    4.0756    4.7304 H   0  0  0  0  0  0  0  0  0  0  0  0
  1  3  1  0
  1 23  2  0
  1 27  1  0
  2  6  2  0
  2  3  1  0
  2 34  1  0
  3  4  2  0
  4  5  1  0
  4 35  1  0
  5  7  2  0
  5 36  1  0
  6  7  1  0
  6 37  1  0
  7  8  1  0
  8  9  1  0
  8 15  1  0
  8 38  1  6
  9 10  1  6
  9 12  1  0
  9 11  1  0
 13 14  1  0
 13 21  1  0
 13 39  1  0
 14 32  1  0
 14 40  1  0
 14 41  1  0
 15 16  1  0
 15 42  1  0
 16 21  1  0
 16 17  1  0
 16 43  1  6
 17 18  1  0
 17 44  1  0
 17 45  1  0
 18 19  1  0
 18 20  1  0
 18 46  1  6
 19 47  1  0
 19 48  1  0
 19 49  1  0
 20 50  1  0
 20 51  1  0
 20 52  1  0
 21 22  2  0
 23 24  1  0
 23 53  1  0
 24 25  2  0
 24 54  1  0
 25 26  1  0
 25 28  1  0
 26 27  2  0
 26 55  1  0
 27 56  1  0
 28 31  2  0
 28 30  2  0
 28 29  1  6
 29 57  1  0
 29 58  1  0
 32 33  1  0
 32 59  1  0
 32 60  1  0
 33 61  1  0
 33 62  1  0
M  END
