
     RDKit          3D

 19 19  0  0  0  0  0  0  0  0999 V2000
   -1.7991    0.0101   -0.1193 S   0  0  1  0  0  0  0  0  0  0  0  0
   -2.2770   -1.2144   -0.7310 O   0  0  0  0  0  0  0  0  0  0  0  0
   -2.2658    1.2766   -0.6487 O   0  0  0  0  0  0  0  0  0  0  0  0
   -2.1018   -0.0412    1.4537 O   0  0  0  0  0  0  0  0  0  0  0  0
   -0.0449    0.0008   -0.0403 C   0  0  0  0  0  0  0  0  0  0  0  0
    0.6294   -1.2136   -0.0047 C   0  0  0  0  0  0  0  0  0  0  0  0
    2.0112   -1.2095    0.0556 C   0  0  0  0  0  0  0  0  0  0  0  0
    2.7296   -0.0133    0.0769 C   0  0  0  0  0  0  0  0  0  0  0  0
    2.0252    1.1882    0.0418 C   0  0  0  0  0  0  0  0  0  0  0  0
    0.6412    1.2064   -0.0173 C   0  0  0  0  0  0  0  0  0  0  0  0
    4.2269   -0.0288    0.1141 C   0  0  0  0  0  0  0  0  0  0  0  0
   -3.0599   -0.0454    1.6292 H   0  0  0  0  0  0  0  0  0  0  0  0
    0.0923   -2.1523   -0.0268 H   0  0  0  0  0  0  0  0  0  0  0  0
    2.5413   -2.1534    0.0846 H   0  0  0  0  0  0  0  0  0  0  0  0
    2.5649    2.1267    0.0600 H   0  0  0  0  0  0  0  0  0  0  0  0
    0.1149    2.1507   -0.0488 H   0  0  0  0  0  0  0  0  0  0  0  0
    4.6315   -0.2813   -0.8678 H   0  0  0  0  0  0  0  0  0  0  0  0
    4.6320    0.9405    0.3995 H   0  0  0  0  0  0  0  0  0  0  0  0
    4.5976   -0.7756    0.8157 H   0  0  0  0  0  0  0  0  0  0  0  0
  1  2  2  0
  1  3  2  0
  1  4  1  1
  1  5  1  0
  4 12  1  0
  5  6  2  0
  5 10  1  0
  6  7  1  0
  6 13  1  0
  7  8  2  0
  7 14  1  0
  8  9  1  0
  8 11  1  0
  9 10  2  0
  9 15  1  0
 10 16  1  0
 11 17  1  0
 11 18  1  0
 11 19  1  0
M  END
