
     RDKit          3D

 40 40  0  0  0  0  0  0  0  0999 V2000
   -2.6166    1.4264    0.8769 O   0  0  0  0  0  0  0  0  0  0  0  0
   -1.5745    1.6240    0.3015 C   0  0  0  0  0  0  0  0  0  0  0  0
   -1.2535    2.7856   -0.2488 O   0  0  0  0  0  0  0  0  0  0  0  0
   -2.1971    3.8518   -0.1381 C   0  0  0  0  0  0  0  0  0  0  0  0
   -0.4636    0.6119    0.1621 C   0  0  2  0  0  0  0  0  0  0  0  0
   -0.9946   -0.8077    0.3248 C   0  0  1  0  0  0  0  0  0  0  0  0
   -2.0422   -1.1143   -0.7175 C   0  0  0  0  0  0  0  0  0  0  0  0
   -2.7083   -2.2234   -0.4336 O   0  0  0  0  0  0  0  0  0  0  0  0
   -3.6945   -2.6618   -1.3686 C   0  0  0  0  0  0  0  0  0  0  0  0
   -2.2430   -0.4535   -1.7073 O   0  0  0  0  0  0  0  0  0  0  0  0
    0.6191    0.8991    1.2152 C   0  0  0  0  0  0  0  0  0  0  0  0
    1.7600   -0.1056    1.1370 C   0  0  2  0  0  0  0  0  0  0  0  0
    2.4148    0.0822   -0.0938 O   0  0  0  0  0  0  0  0  0  0  0  0
    3.7461   -0.3747   -0.1395 C   0  0  0  0  0  0  0  0  0  0  0  0
    4.3815    0.0325   -1.4513 C   0  0  0  0  0  0  0  0  0  0  0  0
    4.4632    1.4770   -1.5913 N   0  0  0  0  0  0  0  0  0  0  0  0
    1.2374   -1.5406    1.2657 C   0  0  2  0  0  0  0  0  0  0  0  0
    0.1547   -1.8210    0.2281 C   0  0  0  0  0  0  0  0  0  0  0  0
    0.7544   -1.6702    2.5860 O   0  0  0  0  0  0  0  0  0  0  0  0
   -0.0193    0.7272   -0.8303 H   0  0  0  0  0  0  0  0  0  0  0  0
   -2.3805    4.1158    0.9031 H   0  0  0  0  0  0  0  0  0  0  0  0
   -1.7524    4.6991   -0.6512 H   0  0  0  0  0  0  0  0  0  0  0  0
   -3.1426    3.5964   -0.6157 H   0  0  0  0  0  0  0  0  0  0  0  0
   -1.4563   -0.9152    1.3110 H   0  0  0  0  0  0  0  0  0  0  0  0
    1.0220    1.9043    1.0800 H   0  0  0  0  0  0  0  0  0  0  0  0
    0.1804    0.8637    2.2153 H   0  0  0  0  0  0  0  0  0  0  0  0
   -0.2222   -2.8376    0.3644 H   0  0  0  0  0  0  0  0  0  0  0  0
    0.6033   -1.7865   -0.7684 H   0  0  0  0  0  0  0  0  0  0  0  0
   -4.4950   -1.9301   -1.4744 H   0  0  0  0  0  0  0  0  0  0  0  0
   -3.2567   -2.8596   -2.3466 H   0  0  0  0  0  0  0  0  0  0  0  0
   -4.1004   -3.5838   -0.9635 H   0  0  0  0  0  0  0  0  0  0  0  0
    2.4544    0.0885    1.9687 H   0  0  0  0  0  0  0  0  0  0  0  0
    2.0633   -2.2449    1.0947 H   0  0  0  0  0  0  0  0  0  0  0  0
    4.3217    0.0421    0.7006 H   0  0  0  0  0  0  0  0  0  0  0  0
    3.8064   -1.4670   -0.0500 H   0  0  0  0  0  0  0  0  0  0  0  0
    5.3540   -0.4770   -1.5050 H   0  0  0  0  0  0  0  0  0  0  0  0
    3.7833   -0.3659   -2.2750 H   0  0  0  0  0  0  0  0  0  0  0  0
    5.1483    1.8382   -0.9388 H   0  0  0  0  0  0  0  0  0  0  0  0
    4.8192    1.7031   -2.5108 H   0  0  0  0  0  0  0  0  0  0  0  0
    0.4549   -2.5761    2.7116 H   0  0  0  0  0  0  0  0  0  0  0  0
  1  2  2  0
  2  3  1  0
  2  5  1  0
  3  4  1  0
  5  6  1  0
  5 11  1  0
  6  7  1  0
  6 18  1  0
  7  8  1  0
  7 10  2  0
  8  9  1  0
 11 12  1  0
 12 13  1  0
 12 17  1  0
 13 14  1  0
 14 15  1  0
 15 16  1  0
 17 18  1  0
 17 19  1  0
  5 20  1  6
  4 21  1  0
  4 22  1  0
  4 23  1  0
  6 24  1  1
 11 25  1  0
 11 26  1  0
 18 27  1  0
 18 28  1  0
  9 29  1  0
  9 30  1  0
  9 31  1  0
 12 32  1  1
 17 33  1  6
 14 34  1  0
 14 35  1  0
 15 36  1  0
 15 37  1  0
 16 38  1  0
 16 39  1  0
 19 40  1  0
M  END
