
     RDKit          3D

 52 52  0  0  0  0  0  0  0  0999 V2000
    6.9356   -3.0045    1.9686 O   0  0  0  0  0  0  0  0  0  0  0  0
    6.8978   -1.7995    1.9597 C   0  0  0  0  0  0  0  0  0  0  0  0
    7.6162   -1.0436    2.7832 O   0  0  0  0  0  0  0  0  0  0  0  0
    6.0482   -0.9679    1.0390 C   0  0  0  0  0  0  0  0  0  0  0  0
    5.2825   -1.8070    0.0292 C   0  0  0  0  0  0  0  0  0  0  0  0
    4.4522   -0.9308   -0.9140 C   0  0  1  0  0  0  0  0  0  0  0  0
    3.8245   -1.7900   -2.0043 C   0  0  0  0  0  0  0  0  0  0  0  0
    2.6638   -2.1044   -2.0395 O   0  0  0  0  0  0  0  0  0  0  0  0
    4.7239   -2.1712   -2.9000 O   0  0  0  0  0  0  0  0  0  0  0  0
    3.4472   -0.2172   -0.1779 N   0  0  0  0  0  0  0  0  0  0  0  0
    2.7152    0.7465   -0.8057 C   0  0  0  0  0  0  0  0  0  0  0  0
    3.0051    1.1669   -1.9186 O   0  0  0  0  0  0  0  0  0  0  0  0
    1.6418    1.2044   -0.1069 N   0  0  0  0  0  0  0  0  0  0  0  0
    0.9167    2.3501   -0.5760 C   0  0  2  0  0  0  0  0  0  0  0  0
    1.7574    3.6144   -0.4607 C   0  0  0  0  0  0  0  0  0  0  0  0
    1.2345    4.6097   -1.1634 O   0  0  0  0  0  0  0  0  0  0  0  0
    2.7582    3.7123    0.2002 O   0  0  0  0  0  0  0  0  0  0  0  0
   -0.3939    2.5130    0.2003 C   0  0  0  0  0  0  0  0  0  0  0  0
   -1.3307    1.3239    0.0252 C   0  0  0  0  0  0  0  0  0  0  0  0
   -2.6673    1.5827    0.7056 C   0  0  0  0  0  0  0  0  0  0  0  0
   -3.6297    0.4202    0.5868 C   0  0  0  0  0  0  0  0  0  0  0  0
   -3.2550   -0.7381    0.5412 O   0  0  0  0  0  0  0  0  0  0  0  0
   -4.9347    0.7950    0.5616 N   0  0  0  0  0  0  0  0  0  0  0  0
   -6.0882    0.0050    0.5263 C   0  0  0  0  0  0  0  0  0  0  0  0
   -6.0905   -1.3881    0.4372 C   0  0  0  0  0  0  0  0  0  0  0  0
   -7.2931   -2.0819    0.4043 C   0  0  0  0  0  0  0  0  0  0  0  0
   -8.4842   -1.3895    0.4568 C   0  0  0  0  0  0  0  0  0  0  0  0
   -9.6444   -2.0686    0.4223 F   0  0  0  0  0  0  0  0  0  0  0  0
   -8.5117   -0.0114    0.5429 C   0  0  0  0  0  0  0  0  0  0  0  0
   -7.3121    0.6772    0.5770 C   0  0  0  0  0  0  0  0  0  0  0  0
    8.1503   -1.6034    3.3667 H   0  0  0  0  0  0  0  0  0  0  0  0
    5.3694   -0.3693    1.6525 H   0  0  0  0  0  0  0  0  0  0  0  0
    6.6946   -0.2488    0.5265 H   0  0  0  0  0  0  0  0  0  0  0  0
    5.9825   -2.3953   -0.5643 H   0  0  0  0  0  0  0  0  0  0  0  0
    4.6251   -2.5166    0.5387 H   0  0  0  0  0  0  0  0  0  0  0  0
    5.1216   -0.2147   -1.3974 H   0  0  0  0  0  0  0  0  0  0  0  0
    4.3134   -2.7448   -3.5644 H   0  0  0  0  0  0  0  0  0  0  0  0
    3.0279   -0.7025    0.6016 H   0  0  0  0  0  0  0  0  0  0  0  0
    1.5882    1.0008    0.8797 H   0  0  0  0  0  0  0  0  0  0  0  0
    0.6694    2.2084   -1.6315 H   0  0  0  0  0  0  0  0  0  0  0  0
    1.7616    5.4148   -1.0488 H   0  0  0  0  0  0  0  0  0  0  0  0
   -0.1766    2.6686    1.2623 H   0  0  0  0  0  0  0  0  0  0  0  0
   -0.8903    3.4193   -0.1507 H   0  0  0  0  0  0  0  0  0  0  0  0
   -1.4893    1.1442   -1.0418 H   0  0  0  0  0  0  0  0  0  0  0  0
   -0.8770    0.4198    0.4321 H   0  0  0  0  0  0  0  0  0  0  0  0
   -2.5114    1.7668    1.7746 H   0  0  0  0  0  0  0  0  0  0  0  0
   -3.1205    2.4942    0.3070 H   0  0  0  0  0  0  0  0  0  0  0  0
   -5.1048    1.7884    0.5990 H   0  0  0  0  0  0  0  0  0  0  0  0
   -5.1698   -1.9448    0.3909 H   0  0  0  0  0  0  0  0  0  0  0  0
   -7.2896   -3.1619    0.3361 H   0  0  0  0  0  0  0  0  0  0  0  0
   -9.4514    0.5234    0.5842 H   0  0  0  0  0  0  0  0  0  0  0  0
   -7.3316    1.7583    0.6435 H   0  0  0  0  0  0  0  0  0  0  0  0
 29 30  1  0
 29 27  2  0
 28 27  1  0
  8  7  2  0
  1  2  2  0
 30 24  2  0
 27 26  1  0
  7  9  1  0
  7  6  1  0
  2  3  1  0
  2  4  1  0
 24 23  1  0
 24 25  1  0
  4  5  1  0
 26 25  2  0
  5  6  1  0
 23 21  1  0
  6 10  1  0
 21 20  1  0
 21 22  2  0
 12 11  2  0
 10 11  1  0
 20 19  1  0
 11 13  1  0
 18 19  1  0
 18 14  1  0
 13 14  1  0
 14 15  1  0
 15 17  2  0
 15 16  1  0
  3 31  1  0
  4 32  1  0
  4 33  1  0
  5 34  1  0
  5 35  1  0
  6 36  1  6
  9 37  1  0
 10 38  1  0
 13 39  1  0
 14 40  1  6
 16 41  1  0
 18 42  1  0
 18 43  1  0
 19 44  1  0
 19 45  1  0
 20 46  1  0
 20 47  1  0
 23 48  1  0
 25 49  1  0
 26 50  1  0
 29 51  1  0
 30 52  1  0
M  END
