
     RDKit          3D

101102  0  0  0  0  0  0  0  0999 V2000
   -8.1866   -8.3868    1.6221 C   0  0  0  0  0  0  0  0  0  0  0  0
   -7.7288   -7.4375    0.5234 C   0  0  0  0  0  0  0  0  0  0  0  0
   -6.7309   -6.3969    1.0165 C   0  0  0  0  0  0  0  0  0  0  0  0
   -6.2770   -5.4353   -0.0744 C   0  0  0  0  0  0  0  0  0  0  0  0
   -5.2503   -4.4172    0.4054 C   0  0  0  0  0  0  0  0  0  0  0  0
   -4.8271   -3.4506   -0.6927 C   0  0  0  0  0  0  0  0  0  0  0  0
   -3.7559   -2.4734   -0.2297 C   0  0  0  0  0  0  0  0  0  0  0  0
   -3.3315   -1.5082   -1.3161 C   0  0  0  0  0  0  0  0  0  0  0  0
   -3.2897   -1.8338   -2.4948 O   0  0  0  0  0  0  0  0  0  0  0  0
   -2.9906   -0.2832   -0.8813 N   0  0  0  0  0  0  0  0  0  0  0  0
   -2.5581    0.8008   -1.7348 C   0  0  1  0  0  0  0  0  0  0  0  0
   -3.7091    1.7820   -1.9105 C   0  0  0  0  0  0  0  0  0  0  0  0
   -4.0324    2.3138   -0.6429 O   0  0  0  0  0  0  0  0  0  0  0  0
   -5.2796    2.9174   -0.5539 C   0  0  1  0  0  0  0  0  0  0  0  0
   -6.3329    1.9996   -0.6649 O   0  0  0  0  0  0  0  0  0  0  0  0
   -6.3612    1.0046    0.3451 C   0  0  2  0  0  0  0  0  0  0  0  0
   -7.4963    0.0535    0.0331 C   0  0  0  0  0  0  0  0  0  0  0  0
   -7.2027   -0.6119   -1.1730 O   0  0  0  0  0  0  0  0  0  0  0  0
   -6.4787    1.6219    1.7326 C   0  0  2  0  0  0  0  0  0  0  0  0
   -7.7439    2.2232    1.8627 O   0  0  0  0  0  0  0  0  0  0  0  0
   -5.3515    2.6352    1.9274 C   0  0  2  0  0  0  0  0  0  0  0  0
   -5.5426    3.2502    3.1796 O   0  0  0  0  0  0  0  0  0  0  0  0
   -5.3642    3.6470    0.7894 C   0  0  1  0  0  0  0  0  0  0  0  0
   -4.2972    4.5407    0.9873 O   0  0  0  0  0  0  0  0  0  0  0  0
   -1.2802    1.4494   -1.1611 C   0  0  2  0  0  0  0  0  0  0  0  0
   -1.0865    2.7479   -1.6690 O   0  0  0  0  0  0  0  0  0  0  0  0
   -0.0123    0.6062   -1.4118 C   0  0  2  0  0  0  0  0  0  0  0  0
   -0.1951   -0.7647   -1.1444 O   0  0  0  0  0  0  0  0  0  0  0  0
    1.1877    1.1733   -0.6562 C   0  0  0  0  0  0  0  0  0  0  0  0
    2.4828    0.4180   -0.9305 C   0  0  0  0  0  0  0  0  0  0  0  0
    3.6455    1.0200   -0.1590 C   0  0  0  0  0  0  0  0  0  0  0  0
    4.9444    0.2555   -0.3144 C   0  0  0  0  0  0  0  0  0  0  0  0
    5.0264   -0.7982   -0.9194 O   0  0  0  0  0  0  0  0  0  0  0  0
    5.9969    0.8563    0.3014 N   0  0  0  0  0  0  0  0  0  0  0  0
    7.3133    0.4105    0.4567 C   0  0  0  0  0  0  0  0  0  0  0  0
    7.8288   -0.7552   -0.1105 C   0  0  0  0  0  0  0  0  0  0  0  0
    9.1518   -1.1085    0.1235 C   0  0  0  0  0  0  0  0  0  0  0  0
    8.1577    1.1969    1.2456 C   0  0  0  0  0  0  0  0  0  0  0  0
    9.4725    0.8272    1.4640 C   0  0  0  0  0  0  0  0  0  0  0  0
    9.9999   -0.3377    0.9096 C   0  0  0  0  0  0  0  0  0  0  0  0
   11.4396   -0.7140    1.1160 C   0  0  0  0  0  0  0  0  0  0  0  0
   12.3761    0.0026    0.1416 C   0  0  0  0  0  0  0  0  0  0  0  0
   13.8357   -0.3894    0.3308 C   0  0  0  0  0  0  0  0  0  0  0  0
   14.7785    0.3248   -0.6300 C   0  0  0  0  0  0  0  0  0  0  0  0
   16.2345   -0.0747   -0.4337 C   0  0  0  0  0  0  0  0  0  0  0  0
   -8.6904   -7.8460    2.4252 H   0  0  0  0  0  0  0  0  0  0  0  0
   -8.8816   -9.1363    1.2416 H   0  0  0  0  0  0  0  0  0  0  0  0
   -7.3394   -8.9153    2.0636 H   0  0  0  0  0  0  0  0  0  0  0  0
   -7.2772   -8.0121   -0.2915 H   0  0  0  0  0  0  0  0  0  0  0  0
   -8.5968   -6.9300    0.0916 H   0  0  0  0  0  0  0  0  0  0  0  0
   -7.1769   -5.8274    1.8396 H   0  0  0  0  0  0  0  0  0  0  0  0
   -5.8576   -6.9057    1.4393 H   0  0  0  0  0  0  0  0  0  0  0  0
   -5.8535   -6.0072   -0.9072 H   0  0  0  0  0  0  0  0  0  0  0  0
   -7.1480   -4.9092   -0.4805 H   0  0  0  0  0  0  0  0  0  0  0  0
   -5.6623   -3.8540    1.2499 H   0  0  0  0  0  0  0  0  0  0  0  0
   -4.3704   -4.9435    0.7917 H   0  0  0  0  0  0  0  0  0  0  0  0
   -4.4543   -4.0151   -1.5501 H   0  0  0  0  0  0  0  0  0  0  0  0
   -5.6993   -2.8903   -1.0406 H   0  0  0  0  0  0  0  0  0  0  0  0
   -4.1002   -1.9268    0.6526 H   0  0  0  0  0  0  0  0  0  0  0  0
   -2.8638   -3.0244    0.0886 H   0  0  0  0  0  0  0  0  0  0  0  0
   -3.0890   -0.0830    0.1011 H   0  0  0  0  0  0  0  0  0  0  0  0
   -2.3388    0.3827   -2.7208 H   0  0  0  0  0  0  0  0  0  0  0  0
   -3.4510    2.5818   -2.6131 H   0  0  0  0  0  0  0  0  0  0  0  0
   -4.5536    1.2297   -2.3353 H   0  0  0  0  0  0  0  0  0  0  0  0
   -5.4309    3.6268   -1.3802 H   0  0  0  0  0  0  0  0  0  0  0  0
   -5.4326    0.4189    0.3297 H   0  0  0  0  0  0  0  0  0  0  0  0
   -7.5856   -0.6491    0.8721 H   0  0  0  0  0  0  0  0  0  0  0  0
   -8.4423    0.6035   -0.0296 H   0  0  0  0  0  0  0  0  0  0  0  0
   -7.9080   -1.2427   -1.3418 H   0  0  0  0  0  0  0  0  0  0  0  0
   -6.3497    0.8144    2.4696 H   0  0  0  0  0  0  0  0  0  0  0  0
   -7.7516    2.7216    2.6873 H   0  0  0  0  0  0  0  0  0  0  0  0
   -4.3978    2.0881    1.9058 H   0  0  0  0  0  0  0  0  0  0  0  0
   -4.9476    4.0054    3.2410 H   0  0  0  0  0  0  0  0  0  0  0  0
   -6.3254    4.1772    0.8047 H   0  0  0  0  0  0  0  0  0  0  0  0
   -4.4723    5.3460    0.4915 H   0  0  0  0  0  0  0  0  0  0  0  0
   -1.4165    1.5758   -0.0803 H   0  0  0  0  0  0  0  0  0  0  0  0
   -0.8436    2.6825   -2.5994 H   0  0  0  0  0  0  0  0  0  0  0  0
    0.1961    0.6549   -2.4899 H   0  0  0  0  0  0  0  0  0  0  0  0
   -0.3551   -0.8780   -0.2013 H   0  0  0  0  0  0  0  0  0  0  0  0
    1.3130    2.2258   -0.9209 H   0  0  0  0  0  0  0  0  0  0  0  0
    0.9748    1.1522    0.4202 H   0  0  0  0  0  0  0  0  0  0  0  0
    2.3632   -0.6305   -0.6558 H   0  0  0  0  0  0  0  0  0  0  0  0
    2.6978    0.4380   -2.0026 H   0  0  0  0  0  0  0  0  0  0  0  0
    3.8062    2.0608   -0.4577 H   0  0  0  0  0  0  0  0  0  0  0  0
    3.4054    1.0561    0.9098 H   0  0  0  0  0  0  0  0  0  0  0  0
    5.7910    1.7293    0.7638 H   0  0  0  0  0  0  0  0  0  0  0  0
    7.2156   -1.3904   -0.7274 H   0  0  0  0  0  0  0  0  0  0  0  0
    9.5248   -2.0226   -0.3244 H   0  0  0  0  0  0  0  0  0  0  0  0
    7.7776    2.1055    1.6985 H   0  0  0  0  0  0  0  0  0  0  0  0
   10.0983    1.4576    2.0853 H   0  0  0  0  0  0  0  0  0  0  0  0
   11.7413   -0.4760    2.1404 H   0  0  0  0  0  0  0  0  0  0  0  0
   11.5587   -1.7949    1.0002 H   0  0  0  0  0  0  0  0  0  0  0  0
   12.0658   -0.2195   -0.8845 H   0  0  0  0  0  0  0  0  0  0  0  0
   12.2664    1.0849    0.2679 H   0  0  0  0  0  0  0  0  0  0  0  0
   14.1396   -0.1754    1.3616 H   0  0  0  0  0  0  0  0  0  0  0  0
   13.9400   -1.4725    0.2022 H   0  0  0  0  0  0  0  0  0  0  0  0
   14.4765    0.1098   -1.6597 H   0  0  0  0  0  0  0  0  0  0  0  0
   14.6730    1.4066   -0.5024 H   0  0  0  0  0  0  0  0  0  0  0  0
   16.5729    0.1476    0.5802 H   0  0  0  0  0  0  0  0  0  0  0  0
   16.3747   -1.1446   -0.5991 H   0  0  0  0  0  0  0  0  0  0  0  0
   16.8928    0.4533   -1.1246 H   0  0  0  0  0  0  0  0  0  0  0  0
 45 44  1  0
 44 43  1  0
 43 42  1  0
 42 41  1  0
 41 40  1  0
 40 37  1  0
 40 39  2  0
 37 36  2  0
 39 38  1  0
 36 35  1  0
 38 35  2  0
 35 34  1  0
 34 32  1  0
 33 32  2  0
 32 31  1  0
  1  2  1  0
  2  3  1  0
 30 31  1  0
 30 29  1  0
  3  4  1  0
  4  5  1  0
 29 27  1  0
 28 27  1  0
 27 25  1  0
  5  6  1  0
  6  7  1  0
 26 25  1  0
 25 11  1  0
  9  8  2  0
 11 10  1  0
 11 12  1  0
  8 10  1  0
  8  7  1  0
 12 13  1  0
 13 14  1  0
 24 23  1  0
 14 23  1  0
 14 15  1  0
 23 21  1  0
 15 16  1  0
 21 22  1  0
 21 19  1  0
 16 19  1  0
 16 17  1  0
 18 17  1  0
 19 20  1  0
  1 46  1  0
  1 47  1  0
  1 48  1  0
  2 49  1  0
  2 50  1  0
  3 51  1  0
  3 52  1  0
  4 53  1  0
  4 54  1  0
  5 55  1  0
  5 56  1  0
  6 57  1  0
  6 58  1  0
  7 59  1  0
  7 60  1  0
 10 61  1  0
 11 62  1  6
 12 63  1  0
 12 64  1  0
 14 65  1  6
 16 66  1  1
 17 67  1  0
 17 68  1  0
 18 69  1  0
 19 70  1  1
 20 71  1  0
 21 72  1  1
 22 73  1  0
 23 74  1  6
 24 75  1  0
 25 76  1  1
 26 77  1  0
 27 78  1  6
 28 79  1  0
 29 80  1  0
 29 81  1  0
 30 82  1  0
 30 83  1  0
 31 84  1  0
 31 85  1  0
 34 86  1  0
 36 87  1  0
 37 88  1  0
 38 89  1  0
 39 90  1  0
 41 91  1  0
 41 92  1  0
 42 93  1  0
 42 94  1  0
 43 95  1  0
 43 96  1  0
 44 97  1  0
 44 98  1  0
 45 99  1  0
 45100  1  0
 45101  1  0
M  END
