
     RDKit          3D

 21 21  0  0  0  0  0  0  0  0999 V2000
    0.2584   -1.2289    0.5647 C   0  0  0  0  0  0  0  0  0  0  0  0
    1.0155   -0.0635    0.6238 C   0  0  0  0  0  0  0  0  0  0  0  0
    2.4974   -0.1116    0.8726 C   0  0  0  0  0  0  0  0  0  0  0  0
    3.2709    0.0522   -0.4317 C   0  0  0  0  0  0  0  0  0  0  0  0
    4.7629    0.0003   -0.2516 C   0  0  0  0  0  0  0  0  0  0  0  0
   -3.5687    0.0971   -0.2831 Br  0  0  0  0  0  0  0  0  0  0  0  0
   -1.7152    0.0321    0.0835 C   0  0  0  0  0  0  0  0  0  0  0  0
   -0.9876    1.2123    0.1371 C   0  0  0  0  0  0  0  0  0  0  0  0
   -1.1039   -1.1932    0.2972 C   0  0  0  0  0  0  0  0  0  0  0  0
    0.3714    1.1525    0.4078 C   0  0  0  0  0  0  0  0  0  0  0  0
    5.3309   -0.1728    0.7978 O   0  0  0  0  0  0  0  0  0  0  0  0
    5.4026    0.1683   -1.4045 O   0  0  0  0  0  0  0  0  0  0  0  0
    0.7328   -2.1879    0.7339 H   0  0  0  0  0  0  0  0  0  0  0  0
    2.7801    0.6786    1.5710 H   0  0  0  0  0  0  0  0  0  0  0  0
    2.7623   -1.0601    1.3418 H   0  0  0  0  0  0  0  0  0  0  0  0
    2.9855   -0.7255   -1.1465 H   0  0  0  0  0  0  0  0  0  0  0  0
    3.0165    1.0009   -0.9130 H   0  0  0  0  0  0  0  0  0  0  0  0
   -1.4625    2.1704   -0.0266 H   0  0  0  0  0  0  0  0  0  0  0  0
   -1.6691   -2.1148    0.2583 H   0  0  0  0  0  0  0  0  0  0  0  0
    0.9363    2.0764    0.4536 H   0  0  0  0  0  0  0  0  0  0  0  0
    6.3598    0.1251   -1.2614 H   0  0  0  0  0  0  0  0  0  0  0  0
  6  7  1  0
  8  7  2  0
  8 10  1  0
  7  9  1  0
 10  2  2  0
  9  1  2  0
  2  1  1  0
  2  3  1  0
  3  4  1  0
  4  5  1  0
  5 11  2  0
  5 12  1  0
  1 13  1  0
  3 14  1  0
  3 15  1  0
  4 16  1  0
  4 17  1  0
  8 18  1  0
  9 19  1  0
 10 20  1  0
 12 21  1  0
M  END
