
     RDKit          3D

 51 54  0  0  0  0  0  0  0  0999 V2000
   -0.7676   -3.0674    0.2209 O   0  0  0  0  0  0  0  0  0  0  0  0
   -0.8284   -2.4651    1.2708 C   0  0  0  0  0  0  0  0  0  0  0  0
   -1.4226   -1.2154    1.4082 N   0  0  0  0  0  0  0  0  0  0  0  0
   -2.0168   -0.4915    0.4138 C   0  0  0  0  0  0  0  0  0  0  0  0
   -2.5456    1.1258    0.7707 S   0  0  0  0  0  0  0  0  0  0  0  0
   -3.1261    1.2515   -0.8595 C   0  0  0  0  0  0  0  0  0  0  0  0
   -3.8358    2.6908   -1.5071 S   0  0  0  0  0  0  0  0  0  0  0  0
   -5.4949    2.6329   -0.8640 C   0  0  0  0  0  0  0  0  0  0  0  0
   -5.8592    1.6094   -0.1214 N   0  0  0  0  0  0  0  0  0  0  0  0
   -7.1049    1.5929    0.3468 C   0  0  0  0  0  0  0  0  0  0  0  0
   -8.0283    2.5905    0.0889 C   0  0  0  0  0  0  0  0  0  0  0  0
   -7.6280    3.6641   -0.6984 C   0  0  0  0  0  0  0  0  0  0  0  0
   -6.3349    3.6970   -1.1864 C   0  0  0  0  0  0  0  0  0  0  0  0
   -2.8656    0.0917   -1.5133 C   0  0  0  0  0  0  0  0  0  0  0  0
   -2.2427   -0.8842   -0.7998 N   0  0  0  0  0  0  0  0  0  0  0  0
   -0.3626   -2.9492    2.4491 N   0  0  0  0  0  0  0  0  0  0  0  0
    0.5343   -4.0703    2.4626 C   0  0  0  0  0  0  0  0  0  0  0  0
    1.8982   -3.7069    1.9564 C   0  0  0  0  0  0  0  0  0  0  0  0
    2.2627   -2.5290    1.5287 N   0  0  0  0  0  0  0  0  0  0  0  0
    2.9185   -4.5866    1.8863 N   0  0  0  0  0  0  0  0  0  0  0  0
    4.0026   -3.9298    1.3798 C   0  0  0  0  0  0  0  0  0  0  0  0
    3.5785   -2.6450    1.1607 C   0  0  0  0  0  0  0  0  0  0  0  0
    4.3229   -1.5170    0.6054 C   0  0  0  0  0  0  0  0  0  0  0  0
    5.7040   -1.5847    0.3938 C   0  0  0  0  0  0  0  0  0  0  0  0
    6.4007   -0.5242   -0.1490 C   0  0  0  0  0  0  0  0  0  0  0  0
    3.6743   -0.3358    0.2585 C   0  0  0  0  0  0  0  0  0  0  0  0
    4.3619    0.7414   -0.2877 C   0  0  0  0  0  0  0  0  0  0  0  0
    5.7333    0.6507   -0.4982 C   0  0  0  0  0  0  0  0  0  0  0  0
    6.4971    1.6338   -1.0255 O   0  0  0  0  0  0  0  0  0  0  0  0
    5.8707    2.8215   -1.4187 C   0  0  0  0  0  0  0  0  0  0  0  0
    6.9286    3.7210   -2.0098 C   0  0  0  0  0  0  0  0  0  0  0  0
    6.3893    4.8655   -2.4016 O   0  0  0  0  0  0  0  0  0  0  0  0
    8.0918    3.4421   -2.1128 O   0  0  0  0  0  0  0  0  0  0  0  0
    7.0673    5.4445   -2.7810 H   0  0  0  0  0  0  0  0  0  0  0  0
    5.0915    2.6494   -2.1718 H   0  0  0  0  0  0  0  0  0  0  0  0
    5.3957    3.3380   -0.5752 H   0  0  0  0  0  0  0  0  0  0  0  0
    3.8058    1.6329   -0.5453 H   0  0  0  0  0  0  0  0  0  0  0  0
    2.6062   -0.2511    0.4117 H   0  0  0  0  0  0  0  0  0  0  0  0
    6.2522   -2.4794    0.6623 H   0  0  0  0  0  0  0  0  0  0  0  0
    7.4698   -0.5977   -0.3047 H   0  0  0  0  0  0  0  0  0  0  0  0
    4.9448   -4.4253    1.2164 H   0  0  0  0  0  0  0  0  0  0  0  0
    2.8949   -5.5577    2.1559 H   0  0  0  0  0  0  0  0  0  0  0  0
    0.5994   -4.4343    3.4889 H   0  0  0  0  0  0  0  0  0  0  0  0
    0.1209   -4.8901    1.8727 H   0  0  0  0  0  0  0  0  0  0  0  0
   -0.3069   -2.3316    3.2429 H   0  0  0  0  0  0  0  0  0  0  0  0
   -1.3849   -0.7791    2.3176 H   0  0  0  0  0  0  0  0  0  0  0  0
   -3.1238   -0.0843   -2.5484 H   0  0  0  0  0  0  0  0  0  0  0  0
   -5.9888    4.5195   -1.7989 H   0  0  0  0  0  0  0  0  0  0  0  0
   -8.3158    4.4666   -0.9294 H   0  0  0  0  0  0  0  0  0  0  0  0
   -9.0294    2.5290    0.4917 H   0  0  0  0  0  0  0  0  0  0  0  0
   -7.3746    0.7376    0.9558 H   0  0  0  0  0  0  0  0  0  0  0  0
  1  2  2  0
  2 16  1  0
  2  3  1  0
  3  4  1  0
  3 46  1  0
  4 15  2  0
  4  5  1  0
  5  6  1  0
  6 14  2  0
  6  7  1  0
  7  8  1  0
  8 13  1  0
  8  9  2  0
  9 10  1  0
 10 11  2  0
 10 51  1  0
 11 12  1  0
 11 50  1  0
 12 13  2  0
 12 49  1  0
 13 48  1  0
 14 15  1  0
 14 47  1  0
 16 17  1  0
 16 45  1  0
 17 18  1  0
 17 43  1  0
 17 44  1  0
 18 20  1  0
 18 19  2  0
 19 22  1  0
 20 21  1  0
 20 42  1  0
 21 22  2  0
 21 41  1  0
 22 23  1  0
 23 26  1  0
 23 24  2  0
 24 25  1  0
 24 39  1  0
 25 28  2  0
 25 40  1  0
 26 27  2  0
 26 38  1  0
 27 28  1  0
 27 37  1  0
 28 29  1  0
 29 30  1  0
 30 31  1  0
 30 35  1  0
 30 36  1  0
 31 32  1  0
 31 33  2  0
 32 34  1  0
M  END
