
     RDKit          3D

 19 18  0  0  0  0  0  0  0  0999 V2000
    1.0736   -0.5123   -0.2483 C   0  0  0  0  0  0  0  0  0  0  0  0
   -0.0950    0.4068    0.0626 C   0  0  0  0  0  0  0  0  0  0  0  0
   -1.4310   -0.2574   -0.2336 C   0  0  1  0  0  0  0  0  0  0  0  0
    2.4119    0.1299   -0.0114 C   0  0  0  0  0  0  0  0  0  0  0  0
   -1.6069   -1.4585    0.4587 O   0  0  0  0  0  0  0  0  0  0  0  0
   -2.4247    0.6785    0.0626 O   0  0  0  0  0  0  0  0  0  0  0  0
    2.5867    1.2251    0.4618 O   0  0  0  0  0  0  0  0  0  0  0  0
    1.0330   -1.4207    0.3597 H   0  0  0  0  0  0  0  0  0  0  0  0
    1.0356   -0.8531   -1.2874 H   0  0  0  0  0  0  0  0  0  0  0  0
   -0.0707    0.7137    1.1128 H   0  0  0  0  0  0  0  0  0  0  0  0
   -0.0228    1.3160   -0.5373 H   0  0  0  0  0  0  0  0  0  0  0  0
   -1.4848   -0.5377   -1.2960 H   0  0  0  0  0  0  0  0  0  0  0  0
   -3.7393    0.0920   -1.4418 H   0  0  0  0  0  0  0  0  0  0  0  0
   -4.1137   -0.5489    0.1689 H   0  0  0  0  0  0  0  0  0  0  0  0
   -4.3746    1.1651   -0.1838 H   0  0  0  0  0  0  0  0  0  0  0  0
    3.4105   -0.6670   -0.3808 O   0  0  0  0  0  0  0  0  0  0  0  0
   -1.4358   -1.3079    1.3966 H   0  0  0  0  0  0  0  0  0  0  0  0
    4.2596   -0.2338   -0.2086 H   0  0  0  0  0  0  0  0  0  0  0  0
   -3.7180    0.3163   -0.3692 C   0  0  0  0  0  0  0  0  0  0  0  0
  1  2  1  0
  1  4  1  0
  1  8  1  0
  1  9  1  0
  2  3  1  0
  2 10  1  0
  2 11  1  0
  3  5  1  0
  3  6  1  0
  3 12  1  6
 19  6  1  0
 19 13  1  0
 19 14  1  0
 19 15  1  0
  4  7  2  0
  4 16  1  0
  5 17  1  0
 16 18  1  0
M  END
