
     RDKit          3D

 54 56  0  0  0  0  0  0  0  0999 V2000
   -1.5776    0.7289   -1.1122 N   0  0  0  0  0  0  0  0  0  0  0  0
    4.2131   -1.2095   -0.8592 C   0  0  0  0  0  0  0  0  0  0  0  0
   -2.9486   -2.1238   -1.6495 O   0  0  0  0  0  0  0  0  0  0  0  0
    2.3333    2.0392   -0.7035 C   0  0  0  0  0  0  0  0  0  0  0  0
    1.7720    2.0101   -1.9851 C   0  0  0  0  0  0  0  0  0  0  0  0
    0.4762    1.5743   -2.1771 C   0  0  0  0  0  0  0  0  0  0  0  0
    4.5880   -0.1855    1.2797 C   0  0  0  0  0  0  0  0  0  0  0  0
    4.3009   -1.3822    1.9118 C   0  0  0  0  0  0  0  0  0  0  0  0
    3.9759   -2.4873    1.1401 C   0  0  0  0  0  0  0  0  0  0  0  0
    3.6214   -3.9766    1.9275 Cl  0  0  0  0  0  0  0  0  0  0  0  0
    4.5491   -0.0902   -0.1093 C   0  0  0  0  0  0  0  0  0  0  0  0
    3.9266   -2.4141   -0.2420 C   0  0  0  0  0  0  0  0  0  0  0  0
    4.8924    1.4302   -0.9720 S   0  0  1  0  0  0  0  0  0  0  0  0
    6.1243    2.0095   -0.4799 O   0  0  0  0  0  0  0  0  0  0  0  0
    4.7385    1.1451   -2.3844 O   0  0  0  0  0  0  0  0  0  0  0  0
    3.6750    2.4741   -0.5389 N   0  0  0  0  0  0  0  0  0  0  0  0
    1.5996    1.6465    0.4067 C   0  0  0  0  0  0  0  0  0  0  0  0
    0.2934    1.2337    0.2042 C   0  0  0  0  0  0  0  0  0  0  0  0
   -0.2794    1.1791   -1.0754 C   0  0  0  0  0  0  0  0  0  0  0  0
   -0.8641    0.6975    1.3784 S   0  0  0  0  0  0  0  0  0  0  0  0
   -1.9966    0.4446    0.0678 C   0  0  0  0  0  0  0  0  0  0  0  0
   -3.5670   -0.1792    0.4487 S   0  0  0  0  0  0  0  0  0  0  0  0
   -4.3122   -0.2320   -1.2088 C   0  0  1  0  0  0  0  0  0  0  0  0
   -3.5378   -1.0780   -2.1994 C   0  0  0  0  0  0  0  0  0  0  0  0
   -3.5443   -0.8458   -3.3807 O   0  0  0  0  0  0  0  0  0  0  0  0
   -5.7357   -0.7893   -1.0583 C   0  0  0  0  0  0  0  0  0  0  0  0
   -6.6778    0.1267   -0.2862 C   0  0  0  0  0  0  0  0  0  0  0  0
   -8.0709   -0.4747   -0.1512 C   0  0  0  0  0  0  0  0  0  0  0  0
   -9.0326    0.4205    0.6189 C   0  0  0  0  0  0  0  0  0  0  0  0
  -10.4082   -0.2055    0.8133 C   0  0  0  0  0  0  0  0  0  0  0  0
  -11.3602    0.6885    1.5949 C   0  0  0  0  0  0  0  0  0  0  0  0
    4.1709   -1.1485   -1.9369 H   0  0  0  0  0  0  0  0  0  0  0  0
   -2.5093   -2.6531   -2.3325 H   0  0  0  0  0  0  0  0  0  0  0  0
    2.3554    2.3443   -2.8310 H   0  0  0  0  0  0  0  0  0  0  0  0
    0.0430    1.5479   -3.1679 H   0  0  0  0  0  0  0  0  0  0  0  0
    4.3298   -1.4483    2.9903 H   0  0  0  0  0  0  0  0  0  0  0  0
    3.6687   -3.2795   -0.8354 H   0  0  0  0  0  0  0  0  0  0  0  0
    3.8699    2.9394    0.3418 H   0  0  0  0  0  0  0  0  0  0  0  0
    2.0321    1.6724    1.3987 H   0  0  0  0  0  0  0  0  0  0  0  0
   -4.3551    0.7842   -1.6032 H   0  0  0  0  0  0  0  0  0  0  0  0
   -6.1354   -0.9390   -2.0648 H   0  0  0  0  0  0  0  0  0  0  0  0
   -5.6973   -1.7767   -0.5900 H   0  0  0  0  0  0  0  0  0  0  0  0
   -6.2811    0.3331    0.7125 H   0  0  0  0  0  0  0  0  0  0  0  0
   -6.7379    1.0931   -0.7963 H   0  0  0  0  0  0  0  0  0  0  0  0
   -8.4806   -0.6825   -1.1456 H   0  0  0  0  0  0  0  0  0  0  0  0
   -7.9950   -1.4438    0.3538 H   0  0  0  0  0  0  0  0  0  0  0  0
   -8.6020    0.6576    1.5982 H   0  0  0  0  0  0  0  0  0  0  0  0
   -9.1389    1.3778    0.0969 H   0  0  0  0  0  0  0  0  0  0  0  0
  -10.8429   -0.4405   -0.1632 H   0  0  0  0  0  0  0  0  0  0  0  0
  -10.2961   -1.1633    1.3312 H   0  0  0  0  0  0  0  0  0  0  0  0
  -10.9551    0.9286    2.5798 H   0  0  0  0  0  0  0  0  0  0  0  0
  -11.5354    1.6316    1.0739 H   0  0  0  0  0  0  0  0  0  0  0  0
  -12.3287    0.2098    1.7441 H   0  0  0  0  0  0  0  0  0  0  0  0
    4.9557    1.1751    2.2719 Cl  0  0  0  0  0  0  0  0  0  0  0  0
 14 13  2  0
 13 16  1  1
 13 15  2  0
 13 11  1  0
 16  4  1  0
 54  7  1  0
  5  4  2  0
  5  6  1  0
 11  7  1  0
 11  2  2  0
  4 17  1  0
  7  8  2  0
  2 12  1  0
  8  9  1  0
  6 19  2  0
 17 18  2  0
  9 12  2  0
  9 10  1  0
 19 18  1  0
 19  1  1  0
 18 20  1  0
  1 21  2  0
 20 21  1  0
 21 22  1  0
 22 23  1  0
 26 23  1  0
 26 27  1  0
 23 24  1  0
 27 28  1  0
 24 25  2  0
 24  3  1  0
 28 29  1  0
 29 30  1  0
 30 31  1  0
  2 32  1  0
  3 33  1  0
  5 34  1  0
  6 35  1  0
  8 36  1  0
 12 37  1  0
 16 38  1  0
 17 39  1  0
 23 40  1  6
 26 41  1  0
 26 42  1  0
 27 43  1  0
 27 44  1  0
 28 45  1  0
 28 46  1  0
 29 47  1  0
 29 48  1  0
 30 49  1  0
 30 50  1  0
 31 51  1  0
 31 52  1  0
 31 53  1  0
M  END
