
     RDKit          3D

 36 38  0  0  0  0  0  0  0  0999 V2000
    4.6911   -1.7285    0.1854 C   0  0  0  0  0  0  0  0  0  0  0  0
    3.4844   -0.8942   -0.2367 C   0  0  1  0  0  0  0  0  0  0  0  0
    3.3358   -0.9706   -1.7587 C   0  0  0  0  0  0  0  0  0  0  0  0
    2.2263   -1.4490    0.4493 C   0  0  0  0  0  0  0  0  0  0  0  0
    1.0675   -0.5226    0.3196 C   0  0  0  0  0  0  0  0  0  0  0  0
    1.2503    0.8200    0.1185 C   0  0  0  0  0  0  0  0  0  0  0  0
    2.5182    1.4759   -0.0071 C   0  0  0  0  0  0  0  0  0  0  0  0
    3.7082    0.5635    0.1966 C   0  0  0  0  0  0  0  0  0  0  0  0
    2.6314    2.6747   -0.2183 O   0  0  0  0  0  0  0  0  0  0  0  0
   -0.2910    1.6187    0.0260 S   0  0  0  0  0  0  0  0  0  0  0  0
   -1.0474    0.0603    0.2666 C   0  0  0  0  0  0  0  0  0  0  0  0
   -2.3728   -0.0779    0.2888 N   0  0  0  0  0  0  0  0  0  0  0  0
   -3.2919    1.0438    0.2427 C   0  0  0  0  0  0  0  0  0  0  0  0
   -4.4840    0.6896   -0.6306 C   0  0  0  0  0  0  0  0  0  0  0  0
   -5.0993   -0.5055   -0.2126 O   0  0  0  0  0  0  0  0  0  0  0  0
   -4.1944   -1.5852   -0.2639 C   0  0  0  0  0  0  0  0  0  0  0  0
   -2.9924   -1.3500    0.6315 C   0  0  0  0  0  0  0  0  0  0  0  0
   -0.2079   -0.9455    0.4083 N   0  0  0  0  0  0  0  0  0  0  0  0
    5.6046   -1.3632   -0.2877 H   0  0  0  0  0  0  0  0  0  0  0  0
    4.8379   -1.6951    1.2668 H   0  0  0  0  0  0  0  0  0  0  0  0
    4.5633   -2.7739   -0.1028 H   0  0  0  0  0  0  0  0  0  0  0  0
    3.1919   -2.0034   -2.0820 H   0  0  0  0  0  0  0  0  0  0  0  0
    2.4892   -0.3897   -2.1281 H   0  0  0  0  0  0  0  0  0  0  0  0
    4.2341   -0.5937   -2.2519 H   0  0  0  0  0  0  0  0  0  0  0  0
    1.9657   -2.4284    0.0413 H   0  0  0  0  0  0  0  0  0  0  0  0
    2.4243   -1.6020    1.5171 H   0  0  0  0  0  0  0  0  0  0  0  0
    3.9452    0.5914    1.2680 H   0  0  0  0  0  0  0  0  0  0  0  0
    4.5715    0.9865   -0.3228 H   0  0  0  0  0  0  0  0  0  0  0  0
   -3.6174    1.2960    1.2573 H   0  0  0  0  0  0  0  0  0  0  0  0
   -2.8092    1.9248   -0.1811 H   0  0  0  0  0  0  0  0  0  0  0  0
   -5.2264    1.4852   -0.5683 H   0  0  0  0  0  0  0  0  0  0  0  0
   -4.1528    0.6119   -1.6750 H   0  0  0  0  0  0  0  0  0  0  0  0
   -4.7250   -2.4775    0.0698 H   0  0  0  0  0  0  0  0  0  0  0  0
   -3.8543   -1.7578   -1.2940 H   0  0  0  0  0  0  0  0  0  0  0  0
   -2.2711   -2.1529    0.5039 H   0  0  0  0  0  0  0  0  0  0  0  0
   -3.2977   -1.3305    1.6833 H   0  0  0  0  0  0  0  0  0  0  0  0
  2  1  1  1
  2  3  1  0
  2  4  1  0
  2  8  1  0
  4  5  1  0
  5  6  2  0
  5 18  1  0
  6  7  1  0
  6 10  1  0
  7  8  1  0
  7  9  2  0
 10 11  1  0
 11 12  1  0
 11 18  2  0
 12 13  1  0
 12 17  1  0
 13 14  1  0
 14 15  1  0
 15 16  1  0
 16 17  1  0
  1 19  1  0
  1 20  1  0
  1 21  1  0
  3 22  1  0
  3 23  1  0
  3 24  1  0
  4 25  1  0
  4 26  1  0
  8 27  1  0
  8 28  1  0
 13 29  1  0
 13 30  1  0
 14 31  1  0
 14 32  1  0
 16 33  1  0
 16 34  1  0
 17 35  1  0
 17 36  1  0
M  END
