
     RDKit          3D

 22 22  0  0  0  0  0  0  0  0999 V2000
    0.0725   -0.6849    2.1937 C   0  0  0  0  0  0  0  0  0  0  0  0
    0.2127   -0.4776    0.7127 C   0  0  0  0  0  0  0  0  0  0  0  0
    0.4557   -0.0810   -2.0627 C   0  0  0  0  0  0  0  0  0  0  0  0
   -0.9122   -0.4300   -0.1110 C   0  0  0  0  0  0  0  0  0  0  0  0
    1.4578   -0.3140    0.1207 C   0  0  0  0  0  0  0  0  0  0  0  0
    1.5784   -0.1220   -1.2517 C   0  0  0  0  0  0  0  0  0  0  0  0
   -0.8079   -0.2350   -1.4803 C   0  0  0  0  0  0  0  0  0  0  0  0
   -1.8765   -0.1841   -2.3085 O   0  0  0  0  0  0  0  0  0  0  0  0
    0.5087    0.0787   -3.4068 O   0  0  0  0  0  0  0  0  0  0  0  0
   -0.0909    0.6389    2.9394 C   0  0  0  0  0  0  0  0  0  0  0  0
   -0.2404    0.4017    4.3677 N   0  0  0  0  0  0  0  0  0  0  0  0
    0.9487   -1.2052    2.5880 H   0  0  0  0  0  0  0  0  0  0  0  0
   -0.7911   -1.3241    2.3999 H   0  0  0  0  0  0  0  0  0  0  0  0
   -1.8985   -0.5785    0.3205 H   0  0  0  0  0  0  0  0  0  0  0  0
    2.3527   -0.3524    0.7304 H   0  0  0  0  0  0  0  0  0  0  0  0
    2.5596   -0.0015   -1.6953 H   0  0  0  0  0  0  0  0  0  0  0  0
   -2.6828   -0.2729   -1.7924 H   0  0  0  0  0  0  0  0  0  0  0  0
    1.3742    0.4121   -3.6659 H   0  0  0  0  0  0  0  0  0  0  0  0
   -0.9269    1.2003    2.4979 H   0  0  0  0  0  0  0  0  0  0  0  0
    0.8061    1.2428    2.7795 H   0  0  0  0  0  0  0  0  0  0  0  0
   -0.4264    1.2722    4.8475 H   0  0  0  0  0  0  0  0  0  0  0  0
   -1.0540   -0.1805    4.5259 H   0  0  0  0  0  0  0  0  0  0  0  0
  1  2  1  0
  1 10  1  0
  1 12  1  0
  1 13  1  0
  2  4  2  0
  2  5  1  0
  3  6  1  0
  3  7  2  0
  3  9  1  0
  4  7  1  0
  4 14  1  0
  5  6  2  0
  5 15  1  0
  6 16  1  0
  7  8  1  0
  8 17  1  0
  9 18  1  0
 10 11  1  0
 10 19  1  0
 10 20  1  0
 11 21  1  0
 11 22  1  0
M  END
