
     RDKit          3D

 28 30  0  0  0  0  0  0  0  0999 V2000
    4.2484   -0.5654    0.0008 C   0  0  0  0  0  0  0  0  0  0  0  0
    3.7654   -1.8307    0.2521 C   0  0  0  0  0  0  0  0  0  0  0  0
    2.3900   -2.1052    0.3159 C   0  0  0  0  0  0  0  0  0  0  0  0
   -3.7725   -0.1053   -0.7400 C   0  0  0  0  0  0  0  0  0  0  0  0
    1.5559   -1.0380    0.1146 C   0  0  0  0  0  0  0  0  0  0  0  0
    0.0771   -0.9865    0.1241 C   0  0  0  0  0  0  0  0  0  0  0  0
   -1.6128    0.7908   -0.1906 C   0  0  1  0  0  0  0  0  0  0  0  0
   -2.4540    0.2830   -1.3614 C   0  0  0  0  0  0  0  0  0  0  0  0
   -2.3996    0.3851    1.0534 C   0  0  0  0  0  0  0  0  0  0  0  0
   -0.2601    0.3303   -0.1290 N   0  0  0  0  0  0  0  0  0  0  0  0
    3.3855    0.5396   -0.2108 C   0  0  0  0  0  0  0  0  0  0  0  0
   -3.6345   -0.0210    0.6277 N   0  0  0  0  0  0  0  0  0  0  0  0
    0.8683    1.1370   -0.2946 C   0  0  0  0  0  0  0  0  0  0  0  0
    2.0209    0.2513   -0.1413 C   0  0  0  0  0  0  0  0  0  0  0  0
   -0.7223   -1.8712    0.3100 O   0  0  0  0  0  0  0  0  0  0  0  0
   -4.7791   -0.4448   -1.3071 O   0  0  0  0  0  0  0  0  0  0  0  0
   -2.0211    0.4463    2.1930 O   0  0  0  0  0  0  0  0  0  0  0  0
    5.3188   -0.4042   -0.0382 H   0  0  0  0  0  0  0  0  0  0  0  0
    4.4747   -2.6330    0.4064 H   0  0  0  0  0  0  0  0  0  0  0  0
    2.0204   -3.1013    0.5149 H   0  0  0  0  0  0  0  0  0  0  0  0
   -1.5853    1.8836   -0.1991 H   0  0  0  0  0  0  0  0  0  0  0  0
   -2.0211   -0.5958   -1.8422 H   0  0  0  0  0  0  0  0  0  0  0  0
   -2.6034    1.0357   -2.1337 H   0  0  0  0  0  0  0  0  0  0  0  0
    4.8590    1.9394   -0.3680 H   0  0  0  0  0  0  0  0  0  0  0  0
    3.2731    2.5666   -0.4906 H   0  0  0  0  0  0  0  0  0  0  0  0
   -4.3718   -0.2893    1.2678 H   0  0  0  0  0  0  0  0  0  0  0  0
    3.8762    1.7627   -0.4836 N   0  0  0  0  0  0  0  0  0  0  0  0
    0.8312    2.3244   -0.5180 O   0  0  0  0  0  0  0  0  0  0  0  0
 16  4  2  0
  4 12  1  0
  4  8  1  0
 12  9  1  0
  8  7  1  0
  9  7  1  0
  9 17  2  0
  7 10  1  0
 28 13  2  0
 10 13  1  0
 10  6  1  0
 13 14  1  0
 15  6  2  0
  6  5  1  0
 14  5  2  0
 14 11  1  0
  5  3  1  0
 27 11  1  0
 11  1  2  0
  3  2  2  0
  1  2  1  0
  1 18  1  0
  2 19  1  0
  3 20  1  0
  7 21  1  6
  8 22  1  0
  8 23  1  0
 27 24  1  0
 27 25  1  0
 12 26  1  0
M  END
