
     RDKit          3D

 49 50  0  0  0  0  0  0  0  0999 V2000
    4.7992    1.3046   -1.0793 C   0  0  0  0  0  0  0  0  0  0  0  0
    6.1280    1.4590   -1.4440 C   0  0  0  0  0  0  0  0  0  0  0  0
    7.1486    1.1081   -0.5682 C   0  0  0  0  0  0  0  0  0  0  0  0
    6.8313    0.5990    0.6829 C   0  0  0  0  0  0  0  0  0  0  0  0
    5.5035    0.4253    1.0487 C   0  0  0  0  0  0  0  0  0  0  0  0
    4.4840    0.7733    0.1684 C   0  0  0  0  0  0  0  0  0  0  0  0
    3.1518    0.6440    0.6048 N   0  0  0  0  0  0  0  0  0  0  0  0
    2.1309    0.0368   -0.0425 C   0  0  0  0  0  0  0  0  0  0  0  0
    2.3047   -0.7354   -1.5245 S   0  0  0  0  0  0  0  0  0  0  0  0
    0.9630    0.0948    0.6088 N   0  0  0  0  0  0  0  0  0  0  0  0
   -0.2570   -0.5488    0.1772 C   0  0  1  0  0  0  0  0  0  0  0  0
   -0.3384   -1.9844    0.7079 C   0  0  0  0  0  0  0  0  0  0  0  0
   -1.5805   -2.7776    0.3020 C   0  0  1  0  0  0  0  0  0  0  0  0
   -1.6865   -2.9461   -1.2105 C   0  0  0  0  0  0  0  0  0  0  0  0
   -1.5526   -4.1413    0.9869 C   0  0  0  0  0  0  0  0  0  0  0  0
   -1.4168    0.2866    0.7046 C   0  0  0  0  0  0  0  0  0  0  0  0
   -1.4363    0.6800    1.8624 O   0  0  0  0  0  0  0  0  0  0  0  0
   -2.3994    0.5255   -0.1722 N   0  0  0  0  0  0  0  0  0  0  0  0
   -3.5962    1.2568    0.1678 C   0  0  2  0  0  0  0  0  0  0  0  0
   -4.6161    0.4661    0.9858 C   0  0  0  0  0  0  0  0  0  0  0  0
   -5.8192    1.1799    0.7930 O   0  0  0  0  0  0  0  0  0  0  0  0
   -4.4265    1.6138   -1.0589 C   0  0  0  0  0  0  0  0  0  0  0  0
   -5.8554    1.7091   -0.5196 C   0  0  1  0  0  0  0  0  0  0  0  0
   -6.7054    0.9895   -1.3520 O   0  0  0  0  0  0  0  0  0  0  0  0
    4.0120    1.5994   -1.7581 H   0  0  0  0  0  0  0  0  0  0  0  0
    6.3676    1.8717   -2.4154 H   0  0  0  0  0  0  0  0  0  0  0  0
    8.1828    1.2371   -0.8586 H   0  0  0  0  0  0  0  0  0  0  0  0
    7.6162    0.3271    1.3766 H   0  0  0  0  0  0  0  0  0  0  0  0
    5.2550    0.0150    2.0199 H   0  0  0  0  0  0  0  0  0  0  0  0
    2.9844    0.9325    1.5588 H   0  0  0  0  0  0  0  0  0  0  0  0
    0.9358    0.5153    1.5285 H   0  0  0  0  0  0  0  0  0  0  0  0
   -0.2494   -0.5564   -0.9131 H   0  0  0  0  0  0  0  0  0  0  0  0
   -0.2637   -1.9539    1.7991 H   0  0  0  0  0  0  0  0  0  0  0  0
    0.5516   -2.5064    0.3429 H   0  0  0  0  0  0  0  0  0  0  0  0
   -2.4745   -2.2516    0.6574 H   0  0  0  0  0  0  0  0  0  0  0  0
   -1.8315   -2.0009   -1.7354 H   0  0  0  0  0  0  0  0  0  0  0  0
   -0.7814   -3.4071   -1.6123 H   0  0  0  0  0  0  0  0  0  0  0  0
   -2.5300   -3.5864   -1.4724 H   0  0  0  0  0  0  0  0  0  0  0  0
   -0.6898   -4.7256    0.6586 H   0  0  0  0  0  0  0  0  0  0  0  0
   -1.4919   -4.0397    2.0717 H   0  0  0  0  0  0  0  0  0  0  0  0
   -2.4499   -4.7169    0.7554 H   0  0  0  0  0  0  0  0  0  0  0  0
   -2.2912    0.2052   -1.1213 H   0  0  0  0  0  0  0  0  0  0  0  0
   -3.3176    2.1619    0.7136 H   0  0  0  0  0  0  0  0  0  0  0  0
   -4.6804   -0.5655    0.6129 H   0  0  0  0  0  0  0  0  0  0  0  0
   -4.3909    0.4353    2.0518 H   0  0  0  0  0  0  0  0  0  0  0  0
   -4.1040    2.5345   -1.5427 H   0  0  0  0  0  0  0  0  0  0  0  0
   -4.3736    0.8075   -1.7962 H   0  0  0  0  0  0  0  0  0  0  0  0
   -6.1957    2.7456   -0.4247 H   0  0  0  0  0  0  0  0  0  0  0  0
   -7.6172    1.2195   -1.1444 H   0  0  0  0  0  0  0  0  0  0  0  0
  1  2  2  0
  1  6  1  0
  1 25  1  0
  2  3  1  0
  2 26  1  0
  3  4  2  0
  3 27  1  0
  4  5  1  0
  4 28  1  0
  5  6  2  0
  5 29  1  0
  6  7  1  0
  7  8  1  0
  7 30  1  0
  8  9  2  0
  8 10  1  0
 10 11  1  0
 10 31  1  0
 11 12  1  0
 11 16  1  0
 11 32  1  6
 12 13  1  0
 12 33  1  0
 12 34  1  0
 13 14  1  0
 13 15  1  0
 13 35  1  1
 14 36  1  0
 14 37  1  0
 14 38  1  0
 15 39  1  0
 15 40  1  0
 15 41  1  0
 16 17  2  0
 16 18  1  0
 18 19  1  0
 18 42  1  0
 19 20  1  0
 19 22  1  0
 19 43  1  1
 20 21  1  0
 20 44  1  0
 20 45  1  0
 21 23  1  0
 22 23  1  0
 22 46  1  0
 22 47  1  0
 23 24  1  0
 23 48  1  1
 24 49  1  0
M  END
