
     RDKit          3D

 21 22  0  0  0  0  0  0  0  0999 V2000
   -1.1313    0.0870   -0.0551 C   0  0  0  0  0  0  0  0  0  0  0  0
   -0.7142    1.4091   -0.3057 C   0  0  0  0  0  0  0  0  0  0  0  0
    0.6231    1.7385   -0.3584 C   0  0  0  0  0  0  0  0  0  0  0  0
    1.5589    0.7260   -0.1478 C   0  0  0  0  0  0  0  0  0  0  0  0
    1.1227   -0.5895    0.1020 C   0  0  0  0  0  0  0  0  0  0  0  0
   -0.2153   -0.9385    0.1510 C   0  0  0  0  0  0  0  0  0  0  0  0
   -2.5670   -0.2182   -0.0091 C   0  0  0  0  0  0  0  0  0  0  0  0
    3.3025   -0.4482    0.1110 C   0  0  0  0  0  0  0  0  0  0  0  0
   -2.9964   -1.3656   -0.4784 N   0  0  0  0  0  0  0  0  0  0  0  0
   -3.3981    0.6602    0.4992 N   0  0  0  0  0  0  0  0  0  0  0  0
    2.9271    0.7774   -0.1364 N   0  0  0  0  0  0  0  0  0  0  0  0
    2.2728   -1.3089    0.2659 N   0  0  0  0  0  0  0  0  0  0  0  0
   -1.4514    2.1783   -0.4935 H   0  0  0  0  0  0  0  0  0  0  0  0
    0.9367    2.7529   -0.5643 H   0  0  0  0  0  0  0  0  0  0  0  0
   -0.5258   -1.9517    0.3708 H   0  0  0  0  0  0  0  0  0  0  0  0
    4.3265   -0.7804    0.1907 H   0  0  0  0  0  0  0  0  0  0  0  0
   -3.9644   -1.6430   -0.4159 H   0  0  0  0  0  0  0  0  0  0  0  0
   -2.3811   -1.9764   -0.9905 H   0  0  0  0  0  0  0  0  0  0  0  0
   -3.0579    1.4743    0.9843 H   0  0  0  0  0  0  0  0  0  0  0  0
   -4.3965    0.5144    0.5010 H   0  0  0  0  0  0  0  0  0  0  0  0
    2.3519   -2.2963    0.4540 H   0  0  0  0  0  0  0  0  0  0  0  0
  1  2  2  0
  1  6  1  0
  1  7  1  0
  2  3  1  0
  2 13  1  0
  3  4  2  0
  3 14  1  0
  4  5  1  0
  4 11  1  0
  5  6  2  0
  5 12  1  0
  6 15  1  0
  7  9  1  0
  7 10  2  0
  8 11  2  0
  8 12  1  0
  8 16  1  0
  9 17  1  0
  9 18  1  0
 10 19  1  0
 10 20  1  0
 12 21  1  0
M  CHG  1  10   1
M  END
