
     RDKit          3D

 81 80  0  0  0  0  0  0  0  0999 V2000
   11.5530   -1.8701   -0.6475 C   0  0  0  0  0  0  0  0  0  0  0  0
   10.5997   -1.0233    0.1855 C   0  0  0  0  0  0  0  0  0  0  0  0
    9.2828   -0.7182   -0.5180 C   0  0  0  0  0  0  0  0  0  0  0  0
    8.3375    0.1262    0.3264 C   0  0  0  0  0  0  0  0  0  0  0  0
    7.0071    0.4199   -0.3562 C   0  0  0  0  0  0  0  0  0  0  0  0
    6.0701    1.2601    0.5016 C   0  0  0  0  0  0  0  0  0  0  0  0
    4.7225    1.5323   -0.1553 C   0  0  0  0  0  0  0  0  0  0  0  0
    3.7939    2.3694    0.7145 C   0  0  0  0  0  0  0  0  0  0  0  0
    2.4250    2.6020    0.0878 C   0  0  0  0  0  0  0  0  0  0  0  0
    1.5042    3.4400    0.9754 C   0  0  0  0  0  0  0  0  0  0  0  0
    0.1519    3.6411    0.3676 C   0  0  0  0  0  0  0  0  0  0  0  0
   -0.9772    3.1771    0.8940 C   0  0  0  0  0  0  0  0  0  0  0  0
   -2.3448    3.3115    0.2855 C   0  0  1  0  0  0  0  0  0  0  0  0
   -2.3238    3.8605   -1.0089 O   0  0  0  0  0  0  0  0  0  0  0  0
   -3.0894    1.9613    0.3300 C   0  0  1  0  0  0  0  0  0  0  0  0
   -3.2483    1.5599    1.7143 N   0  0  0  0  0  0  0  0  0  0  0  0
   -4.4049    2.0591   -0.4381 C   0  0  0  0  0  0  0  0  0  0  0  0
   -5.0572    0.7816   -0.3211 O   0  0  0  0  0  0  0  0  0  0  0  0
   -6.3612    0.4473   -1.1600 P   0  0  1  0  0  0  0  0  0  0  0  0
   -7.5604    1.3229   -0.5740 O   0  0  0  0  0  0  0  0  0  0  0  0
   -6.3029    0.5986   -2.6241 O   0  0  0  0  0  0  0  0  0  0  0  0
   -6.5530   -1.0432   -0.6069 O   0  0  0  0  0  0  0  0  0  0  0  0
   -7.5499   -1.8994   -1.1577 C   0  0  0  0  0  0  0  0  0  0  0  0
   -7.3758   -3.3019   -0.6334 C   0  0  0  0  0  0  0  0  0  0  0  0
   -7.7255   -3.5516    0.8099 N   0  0  1  0  0  0  0  0  0  0  0  0
   -9.1230   -3.1296    1.1046 C   0  0  0  0  0  0  0  0  0  0  0  0
   -7.6105   -5.0223    1.0367 C   0  0  0  0  0  0  0  0  0  0  0  0
   -6.7923   -2.8605    1.7468 C   0  0  0  0  0  0  0  0  0  0  0  0
   12.8600   -2.1816    0.0714 C   0  0  0  0  0  0  0  0  0  0  0  0
   13.8204   -3.0281   -0.7542 C   0  0  0  0  0  0  0  0  0  0  0  0
   15.1179   -3.3359   -0.0194 C   0  0  0  0  0  0  0  0  0  0  0  0
   11.0589   -2.8080   -0.9252 H   0  0  0  0  0  0  0  0  0  0  0  0
   11.7708   -1.3541   -1.5893 H   0  0  0  0  0  0  0  0  0  0  0  0
   10.3918   -1.5365    1.1311 H   0  0  0  0  0  0  0  0  0  0  0  0
   11.0923   -0.0828    0.4567 H   0  0  0  0  0  0  0  0  0  0  0  0
    9.4864   -0.2035   -1.4637 H   0  0  0  0  0  0  0  0  0  0  0  0
    8.7888   -1.6586   -0.7873 H   0  0  0  0  0  0  0  0  0  0  0  0
    8.1479   -0.3845    1.2773 H   0  0  0  0  0  0  0  0  0  0  0  0
    8.8286    1.0707    0.5863 H   0  0  0  0  0  0  0  0  0  0  0  0
    7.1909    0.9328   -1.3068 H   0  0  0  0  0  0  0  0  0  0  0  0
    6.5154   -0.5249   -0.6141 H   0  0  0  0  0  0  0  0  0  0  0  0
    5.9060    0.7541    1.4598 H   0  0  0  0  0  0  0  0  0  0  0  0
    6.5559    2.2117    0.7448 H   0  0  0  0  0  0  0  0  0  0  0  0
    4.8796    2.0382   -1.1145 H   0  0  0  0  0  0  0  0  0  0  0  0
    4.2367    0.5795   -0.3935 H   0  0  0  0  0  0  0  0  0  0  0  0
    3.6646    1.8760    1.6845 H   0  0  0  0  0  0  0  0  0  0  0  0
    4.2668    3.3342    0.9291 H   0  0  0  0  0  0  0  0  0  0  0  0
    2.5448    3.0932   -0.8838 H   0  0  0  0  0  0  0  0  0  0  0  0
    1.9475    1.6381   -0.1158 H   0  0  0  0  0  0  0  0  0  0  0  0
    1.4044    2.9601    1.9535 H   0  0  0  0  0  0  0  0  0  0  0  0
    1.9770    4.4124    1.1524 H   0  0  0  0  0  0  0  0  0  0  0  0
    0.1309    4.1874   -0.5728 H   0  0  0  0  0  0  0  0  0  0  0  0
   -0.9485    2.6376    1.8352 H   0  0  0  0  0  0  0  0  0  0  0  0
   -2.9285    4.0191    0.8905 H   0  0  0  0  0  0  0  0  0  0  0  0
   -1.7562    3.3111   -1.5622 H   0  0  0  0  0  0  0  0  0  0  0  0
   -2.4628    1.2098   -0.1654 H   0  0  0  0  0  0  0  0  0  0  0  0
   -3.8989    2.1795    2.1848 H   0  0  0  0  0  0  0  0  0  0  0  0
   -3.6485    0.6328    1.7689 H   0  0  0  0  0  0  0  0  0  0  0  0
   -5.0410    2.8361   -0.0015 H   0  0  0  0  0  0  0  0  0  0  0  0
   -4.2403    2.2942   -1.4899 H   0  0  0  0  0  0  0  0  0  0  0  0
   -7.6686    1.3240    0.3865 H   0  0  0  0  0  0  0  0  0  0  0  0
   -8.5513   -1.5102   -0.9610 H   0  0  0  0  0  0  0  0  0  0  0  0
   -7.4374   -1.9718   -2.2417 H   0  0  0  0  0  0  0  0  0  0  0  0
   -8.0259   -3.9511   -1.2194 H   0  0  0  0  0  0  0  0  0  0  0  0
   -6.3492   -3.6384   -0.7756 H   0  0  0  0  0  0  0  0  0  0  0  0
   -9.7983   -3.5986    0.3941 H   0  0  0  0  0  0  0  0  0  0  0  0
   -9.3756   -3.4440    2.1131 H   0  0  0  0  0  0  0  0  0  0  0  0
   -9.2068   -2.0490    1.0401 H   0  0  0  0  0  0  0  0  0  0  0  0
   -6.5943   -5.3390    0.8166 H   0  0  0  0  0  0  0  0  0  0  0  0
   -7.8437   -5.2383    2.0752 H   0  0  0  0  0  0  0  0  0  0  0  0
   -8.3091   -5.5415    0.3865 H   0  0  0  0  0  0  0  0  0  0  0  0
   -6.9198   -1.7867    1.6773 H   0  0  0  0  0  0  0  0  0  0  0  0
   -7.0220   -3.1856    2.7578 H   0  0  0  0  0  0  0  0  0  0  0  0
   -5.7705   -3.1308    1.4975 H   0  0  0  0  0  0  0  0  0  0  0  0
   13.3528   -1.2437    0.3517 H   0  0  0  0  0  0  0  0  0  0  0  0
   12.6401   -2.6978    1.0128 H   0  0  0  0  0  0  0  0  0  0  0  0
   13.3272   -3.9635   -1.0366 H   0  0  0  0  0  0  0  0  0  0  0  0
   14.0443   -2.5099   -1.6919 H   0  0  0  0  0  0  0  0  0  0  0  0
   15.6441   -2.4182    0.2513 H   0  0  0  0  0  0  0  0  0  0  0  0
   14.9264   -3.8867    0.9036 H   0  0  0  0  0  0  0  0  0  0  0  0
   15.7935   -3.9370   -0.6292 H   0  0  0  0  0  0  0  0  0  0  0  0
  1  2  1  0
  1 29  1  0
  2  3  1  0
  3  4  1  0
  4  5  1  0
  5  6  1  0
  6  7  1  0
  7  8  1  0
  8  9  1  0
  9 10  1  0
 10 11  1  0
 11 12  2  0
 12 13  1  0
 13 14  1  0
 13 15  1  0
 15 16  1  0
 15 17  1  0
 17 18  1  0
 19 18  1  1
 19 20  1  0
 19 21  2  0
 19 22  1  0
 22 23  1  0
 23 24  1  0
 25 24  1  6
 25 26  1  0
 25 27  1  0
 25 28  1  0
 29 30  1  0
 30 31  1  0
  1 32  1  0
  1 33  1  0
  2 34  1  0
  2 35  1  0
  3 36  1  0
  3 37  1  0
  4 38  1  0
  4 39  1  0
  5 40  1  0
  5 41  1  0
  6 42  1  0
  6 43  1  0
  7 44  1  0
  7 45  1  0
  8 46  1  0
  8 47  1  0
  9 48  1  0
  9 49  1  0
 10 50  1  0
 10 51  1  0
 11 52  1  0
 12 53  1  0
 13 54  1  1
 14 55  1  0
 15 56  1  6
 16 57  1  0
 16 58  1  0
 17 59  1  0
 17 60  1  0
 20 61  1  0
 23 62  1  0
 23 63  1  0
 24 64  1  0
 24 65  1  0
 26 66  1  0
 26 67  1  0
 26 68  1  0
 27 69  1  0
 27 70  1  0
 27 71  1  0
 28 72  1  0
 28 73  1  0
 28 74  1  0
 29 75  1  0
 29 76  1  0
 30 77  1  0
 30 78  1  0
 31 79  1  0
 31 80  1  0
 31 81  1  0
M  CHG  1  25   1
M  END
