
     RDKit          3D

 70 76  0  0  0  0  0  0  0  0999 V2000
    4.8731    3.6722    1.9303 F   0  0  0  0  0  0  0  0  0  0  0  0
    6.2976    2.1659    1.3233 F   0  0  0  0  0  0  0  0  0  0  0  0
    5.4446    3.5047   -0.1327 F   0  0  0  0  0  0  0  0  0  0  0  0
    2.7031   -5.4005   -0.2917 O   0  0  0  0  0  0  0  0  0  0  0  0
    0.1516   -0.3775    0.1754 O   0  0  0  0  0  0  0  0  0  0  0  0
    3.3452   -5.5647   -1.5153 N   0  0  0  0  0  0  0  0  0  0  0  0
    3.0862    0.0010    0.4252 N   0  0  0  0  0  0  0  0  0  0  0  0
    4.2700    0.5460    0.6309 N   0  0  0  0  0  0  0  0  0  0  0  0
   -0.0218    1.8881    0.0688 N   0  0  0  0  0  0  0  0  0  0  0  0
    2.7244   -4.1078    0.0343 C   0  0  0  0  0  0  0  0  0  0  0  0
    3.3639   -3.3807   -0.9559 C   0  0  0  0  0  0  0  0  0  0  0  0
    3.7289   -4.3871   -1.9168 C   0  0  0  0  0  0  0  0  0  0  0  0
    2.1994   -3.5180    1.1789 C   0  0  0  0  0  0  0  0  0  0  0  0
    2.3421   -2.1501    1.2792 C   0  0  0  0  0  0  0  0  0  0  0  0
    2.9722   -1.4074    0.2702 C   0  0  0  0  0  0  0  0  0  0  0  0
    3.4961   -2.0000   -0.8581 C   0  0  0  0  0  0  0  0  0  0  0  0
    4.0536    1.8442    0.7464 C   0  0  0  0  0  0  0  0  0  0  0  0
    2.6970    2.1565    0.6023 C   0  0  0  0  0  0  0  0  0  0  0  0
    2.1063    0.9372    0.3948 C   0  0  0  0  0  0  0  0  0  0  0  0
    5.1765    2.7901    0.9695 C   0  0  2  0  0  0  0  0  0  0  0  0
    0.6669    0.7285    0.1943 C   0  0  0  0  0  0  0  0  0  0  0  0
   -1.4303    1.8023   -0.1250 C   0  0  0  0  0  0  0  0  0  0  0  0
   -2.2787    1.9297    0.9651 C   0  0  0  0  0  0  0  0  0  0  0  0
   -3.6461    1.7881    0.7954 C   0  0  0  0  0  0  0  0  0  0  0  0
   -4.1828    1.5054   -0.4578 C   0  0  0  0  0  0  0  0  0  0  0  0
   -3.3256    1.4447   -1.5537 C   0  0  0  0  0  0  0  0  0  0  0  0
   -1.9561    1.5867   -1.3904 C   0  0  0  0  0  0  0  0  0  0  0  0
   -5.6413    1.2859   -0.6136 C   0  0  0  0  0  0  0  0  0  0  0  0
   -6.1526    0.0392   -1.0051 C   0  0  0  0  0  0  0  0  0  0  0  0
   -5.2340   -1.1389   -1.2431 C   0  0  0  0  0  0  0  0  0  0  0  0
   -4.3763   -1.3646   -0.1215 N   0  0  0  0  0  0  0  0  0  0  0  0
   -4.9576   -1.9283    1.0819 C   0  0  0  0  0  0  0  0  0  0  0  0
   -3.0542   -1.8927   -0.3193 C   0  0  0  0  0  0  0  0  0  0  0  0
   -6.5206    2.3327   -0.3515 C   0  0  0  0  0  0  0  0  0  0  0  0
   -7.8935    2.1684   -0.4856 C   0  0  0  0  0  0  0  0  0  0  0  0
   -7.5280   -0.1121   -1.1328 C   0  0  0  0  0  0  0  0  0  0  0  0
   -8.3996    0.9409   -0.8827 C   0  0  0  0  0  0  0  0  0  0  0  0
   -2.5500   -1.9389    1.1190 C   0  0  1  0  0  0  0  0  0  0  0  0
   -3.7605   -2.5175    1.8454 C   0  0  0  0  0  0  0  0  0  0  0  0
   -1.3937   -2.7104    1.3275 O   0  0  0  0  0  0  0  0  0  0  0  0
    0.6313    3.1778   -0.1928 C   0  0  0  0  0  0  0  0  0  0  0  0
    1.8738    3.3939    0.6601 C   0  0  0  0  0  0  0  0  0  0  0  0
    4.6830   -4.9782   -3.5943 H   0  0  0  0  0  0  0  0  0  0  0  0
    4.9403   -3.3718   -3.1700 H   0  0  0  0  0  0  0  0  0  0  0  0
    1.9657   -1.6391    2.1549 H   0  0  0  0  0  0  0  0  0  0  0  0
    3.9765   -1.4109   -1.6284 H   0  0  0  0  0  0  0  0  0  0  0  0
   -1.8668    2.1153    1.9490 H   0  0  0  0  0  0  0  0  0  0  0  0
   -4.3013    1.8510    1.6553 H   0  0  0  0  0  0  0  0  0  0  0  0
   -3.7253    1.2610   -2.5434 H   0  0  0  0  0  0  0  0  0  0  0  0
   -1.2952    1.5131   -2.2452 H   0  0  0  0  0  0  0  0  0  0  0  0
   -5.8454   -2.0206   -1.4995 H   0  0  0  0  0  0  0  0  0  0  0  0
   -4.6078   -0.9450   -2.1174 H   0  0  0  0  0  0  0  0  0  0  0  0
   -5.4713   -1.1547    1.6619 H   0  0  0  0  0  0  0  0  0  0  0  0
   -5.7061   -2.7049    0.8639 H   0  0  0  0  0  0  0  0  0  0  0  0
   -3.0258   -2.9062   -0.7592 H   0  0  0  0  0  0  0  0  0  0  0  0
   -2.4591   -1.2302   -0.9521 H   0  0  0  0  0  0  0  0  0  0  0  0
   -6.1233    3.2931   -0.0453 H   0  0  0  0  0  0  0  0  0  0  0  0
   -8.5598    2.9959   -0.2791 H   0  0  0  0  0  0  0  0  0  0  0  0
   -7.9256   -1.0774   -1.4243 H   0  0  0  0  0  0  0  0  0  0  0  0
   -9.4672    0.7966   -0.9872 H   0  0  0  0  0  0  0  0  0  0  0  0
   -2.3936   -0.9031    1.4429 H   0  0  0  0  0  0  0  0  0  0  0  0
   -3.7784   -2.2815    2.9099 H   0  0  0  0  0  0  0  0  0  0  0  0
   -3.7454   -3.6064    1.7488 H   0  0  0  0  0  0  0  0  0  0  0  0
   -0.6547   -2.1989    0.9786 H   0  0  0  0  0  0  0  0  0  0  0  0
   -0.0977    3.9593    0.0104 H   0  0  0  0  0  0  0  0  0  0  0  0
    0.8943    3.2427   -1.2529 H   0  0  0  0  0  0  0  0  0  0  0  0
    1.5981    3.6101    1.6956 H   0  0  0  0  0  0  0  0  0  0  0  0
    2.4074    4.2648    0.2804 H   0  0  0  0  0  0  0  0  0  0  0  0
    1.7119   -4.0920    1.9543 H   0  0  0  0  0  0  0  0  0  0  0  0
    4.3266   -4.1680   -3.1123 N   0  0  0  0  0  0  0  0  0  0  0  0
 20  1  1  1
  2 20  1  0
  3 20  1  0
  4  6  1  0
  4 10  1  0
  5 21  2  0
  6 12  2  0
 70 12  1  0
 70 43  1  0
 70 44  1  0
  7  8  1  0
  7 15  1  0
  7 19  1  0
  8 17  2  0
  9 21  1  0
  9 22  1  0
  9 41  1  0
 10 11  2  0
 10 13  1  0
 11 12  1  0
 11 16  1  0
 13 14  2  0
 13 69  1  0
 14 15  1  0
 14 45  1  0
 15 16  2  0
 16 46  1  0
 17 18  1  0
 17 20  1  0
 18 19  2  0
 18 42  1  0
 19 21  1  0
 22 23  2  0
 22 27  1  0
 23 24  1  0
 23 47  1  0
 24 25  2  0
 24 48  1  0
 25 26  1  0
 25 28  1  0
 26 27  2  0
 26 49  1  0
 27 50  1  0
 28 29  1  0
 28 34  2  0
 29 30  1  0
 29 36  2  0
 30 31  1  0
 30 51  1  0
 30 52  1  0
 31 32  1  0
 31 33  1  0
 32 39  1  0
 32 53  1  0
 32 54  1  0
 33 38  1  0
 33 55  1  0
 33 56  1  0
 34 35  1  0
 34 57  1  0
 35 37  2  0
 35 58  1  0
 36 37  1  0
 36 59  1  0
 37 60  1  0
 38 39  1  0
 38 40  1  0
 38 61  1  1
 39 62  1  0
 39 63  1  0
 40 64  1  0
 41 42  1  0
 41 65  1  0
 41 66  1  0
 42 67  1  0
 42 68  1  0
M  END
