
     RDKit          3D

 57 60  0  0  0  0  0  0  0  0999 V2000
    8.1650   -1.6835    1.4753 C   0  0  0  0  0  0  0  0  0  0  0  0
    7.3225   -0.6856    0.7504 C   0  0  0  0  0  0  0  0  0  0  0  0
    5.9907   -0.5918    0.9129 C   0  0  0  0  0  0  0  0  0  0  0  0
    5.1838    0.3091    0.2675 N   0  0  0  0  0  0  0  0  0  0  0  0
    5.7174    1.1971   -0.6351 C   0  0  0  0  0  0  0  0  0  0  0  0
    5.0623    2.0064   -1.2613 O   0  0  0  0  0  0  0  0  0  0  0  0
    7.0786    1.1069   -0.7875 N   0  0  0  0  0  0  0  0  0  0  0  0
    7.9549    0.2337   -0.1705 C   0  0  0  0  0  0  0  0  0  0  0  0
    9.1475    0.2735   -0.4161 O   0  0  0  0  0  0  0  0  0  0  0  0
    3.7428    0.2965    0.5623 C   0  0  1  0  0  0  0  0  0  0  0  0
    3.2133    1.5975    1.1513 C   0  0  0  0  0  0  0  0  0  0  0  0
    1.7466    1.3939    1.5154 C   0  0  0  0  0  0  0  0  0  0  0  0
    0.9534    0.8669    0.3305 C   0  0  0  0  0  0  0  0  0  0  0  0
    1.5362   -0.3629   -0.1816 N   0  0  0  0  0  0  0  0  0  0  0  0
    2.9024   -0.1568   -0.6298 C   0  0  0  0  0  0  0  0  0  0  0  0
    0.7225   -0.9611   -1.2223 C   0  0  0  0  0  0  0  0  0  0  0  0
   -0.5666   -1.4806   -0.6432 C   0  0  0  0  0  0  0  0  0  0  0  0
   -0.5363   -2.4497    0.3576 C   0  0  0  0  0  0  0  0  0  0  0  0
   -1.6962   -2.9325    0.9287 C   0  0  0  0  0  0  0  0  0  0  0  0
   -2.9435   -2.4367    0.5419 C   0  0  0  0  0  0  0  0  0  0  0  0
   -2.9913   -1.4691   -0.4578 C   0  0  0  0  0  0  0  0  0  0  0  0
   -1.8083   -1.0197   -1.0337 C   0  0  0  0  0  0  0  0  0  0  0  0
   -1.9112   -0.0828   -1.9829 F   0  0  0  0  0  0  0  0  0  0  0  0
   -4.1649   -0.9893   -0.9463 O   0  0  0  0  0  0  0  0  0  0  0  0
   -4.6290    0.2115   -0.5019 C   0  0  0  0  0  0  0  0  0  0  0  0
   -4.0126    0.9532    0.4963 C   0  0  0  0  0  0  0  0  0  0  0  0
   -4.5682    2.1687    0.8707 C   0  0  0  0  0  0  0  0  0  0  0  0
   -5.7223    2.6514    0.2741 C   0  0  0  0  0  0  0  0  0  0  0  0
   -6.3164    1.8828   -0.7160 C   0  0  0  0  0  0  0  0  0  0  0  0
   -5.7891    0.6683   -1.1161 C   0  0  0  0  0  0  0  0  0  0  0  0
   -7.7618    2.4548   -1.4811 Cl  0  0  0  0  0  0  0  0  0  0  0  0
   -4.1918   -2.8964    1.2048 C   0  0  0  0  0  0  0  0  0  0  0  0
   -5.2183   -2.2666    1.2399 O   0  0  0  0  0  0  0  0  0  0  0  0
   -4.0413   -4.0833    1.7754 O   0  0  0  0  0  0  0  0  0  0  0  0
    8.7206   -2.3139    0.7801 H   0  0  0  0  0  0  0  0  0  0  0  0
    8.8957   -1.1947    2.1217 H   0  0  0  0  0  0  0  0  0  0  0  0
    7.5506   -2.3335    2.0960 H   0  0  0  0  0  0  0  0  0  0  0  0
    5.4729   -1.2539    1.5933 H   0  0  0  0  0  0  0  0  0  0  0  0
    7.4793    1.7622   -1.4477 H   0  0  0  0  0  0  0  0  0  0  0  0
    3.6248   -0.4748    1.3262 H   0  0  0  0  0  0  0  0  0  0  0  0
    3.7953    1.8767    2.0324 H   0  0  0  0  0  0  0  0  0  0  0  0
    3.2990    2.4072    0.4259 H   0  0  0  0  0  0  0  0  0  0  0  0
    1.6613    0.6875    2.3458 H   0  0  0  0  0  0  0  0  0  0  0  0
    1.3098    2.3364    1.8493 H   0  0  0  0  0  0  0  0  0  0  0  0
   -0.0719    0.6674    0.6501 H   0  0  0  0  0  0  0  0  0  0  0  0
    0.8979    1.6408   -0.4553 H   0  0  0  0  0  0  0  0  0  0  0  0
    2.9616    0.5761   -1.4475 H   0  0  0  0  0  0  0  0  0  0  0  0
    3.2943   -1.1050   -1.0065 H   0  0  0  0  0  0  0  0  0  0  0  0
    0.5362   -0.2711   -2.0566 H   0  0  0  0  0  0  0  0  0  0  0  0
    1.2703   -1.8107   -1.6380 H   0  0  0  0  0  0  0  0  0  0  0  0
    0.4225   -2.8230    0.6919 H   0  0  0  0  0  0  0  0  0  0  0  0
   -1.6282   -3.6847    1.7010 H   0  0  0  0  0  0  0  0  0  0  0  0
   -3.1163    0.6050    0.9923 H   0  0  0  0  0  0  0  0  0  0  0  0
   -4.0896    2.7500    1.6473 H   0  0  0  0  0  0  0  0  0  0  0  0
   -6.1473    3.5996    0.5716 H   0  0  0  0  0  0  0  0  0  0  0  0
   -6.2638    0.0791   -1.8894 H   0  0  0  0  0  0  0  0  0  0  0  0
   -4.8559   -4.3316    2.2381 H   0  0  0  0  0  0  0  0  0  0  0  0
 12 11  1  0
 12 13  1  0
 11 10  1  0
 10  4  1  0
 10 15  1  0
  6  5  2  0
  5  7  1  0
  5  4  1  0
  7  8  1  0
  4  3  1  0
  8  9  2  0
  8  2  1  0
  3  2  2  0
  2  1  1  0
 13 14  1  0
 14 15  1  0
 14 16  1  0
 16 17  1  0
 18 17  2  0
 18 19  1  0
 17 22  1  0
 27 26  2  0
 27 28  1  0
 19 20  2  0
 22 23  1  0
 22 21  2  0
 26 25  1  0
 28 29  2  0
 20 21  1  0
 20 32  1  0
 21 24  1  0
 25 24  1  0
 25 30  2  0
 33 32  2  0
 32 34  1  0
 29 30  1  0
 29 31  1  0
  1 35  1  0
  1 36  1  0
  1 37  1  0
  3 38  1  0
  7 39  1  0
 10 40  1  1
 11 41  1  0
 11 42  1  0
 12 43  1  0
 12 44  1  0
 13 45  1  0
 13 46  1  0
 15 47  1  0
 15 48  1  0
 16 49  1  0
 16 50  1  0
 18 51  1  0
 19 52  1  0
 26 53  1  0
 27 54  1  0
 28 55  1  0
 30 56  1  0
 34 57  1  0
M  END
