
     RDKit          3D

 56 59  0  0  0  0  0  0  0  0999 V2000
    1.8031   -1.9028    0.5787 C   0  0  0  0  0  0  0  0  0  0  0  0
   -0.2626   -1.3807    0.7859 N   0  0  0  0  0  0  0  0  0  0  0  0
   -1.6402   -0.9482    0.6119 C   0  0  2  0  0  0  0  0  0  0  0  0
   -3.0695    1.0929    0.2702 C   0  0  0  0  0  0  0  0  0  0  0  0
   -3.6658    1.3035    1.5381 C   0  0  0  0  0  0  0  0  0  0  0  0
   -4.9300    1.8091    1.6452 C   0  0  0  0  0  0  0  0  0  0  0  0
   -6.9871    2.6692    0.5673 C   0  0  0  0  0  0  0  0  0  0  0  0
   -7.0990    2.7706   -1.8386 C   0  0  0  0  0  0  0  0  0  0  0  0
   -5.0919    1.9309   -0.7837 C   0  0  0  0  0  0  0  0  0  0  0  0
   -3.9004   -4.8687   -0.5594 O   0  0  0  0  0  0  0  0  0  0  0  0
   -3.0752   -4.1310   -0.9916 N   0  0  0  0  0  0  0  0  0  0  0  0
   -2.1362   -3.7388    1.0982 O   0  0  0  0  0  0  0  0  0  0  0  0
   -2.3653   -1.8424   -0.3804 C   0  0  0  0  0  0  0  0  0  0  0  0
   -1.6807    0.5257    0.1906 C   0  0  0  0  0  0  0  0  0  0  0  0
   -3.7809    1.4033   -0.8592 C   0  0  0  0  0  0  0  0  0  0  0  0
   -5.8338    2.2587   -1.9426 C   0  0  0  0  0  0  0  0  0  0  0  0
   -7.6815    2.9796   -0.5707 C   0  0  0  0  0  0  0  0  0  0  0  0
   -5.6790    2.1381    0.4902 C   0  0  0  0  0  0  0  0  0  0  0  0
    0.6943   -1.5440   -0.1431 C   0  0  0  0  0  0  0  0  0  0  0  0
    0.2129   -1.6111    1.9980 N   0  0  0  0  0  0  0  0  0  0  0  0
    1.4541   -1.9274    1.8837 N   0  0  0  0  0  0  0  0  0  0  0  0
    3.1869   -2.1875    0.1105 C   0  0  0  0  0  0  0  0  0  0  0  0
    3.9988   -0.9875    0.1695 N   0  0  0  0  0  0  0  0  0  0  0  0
    5.0866   -0.8076   -0.6011 C   0  0  0  0  0  0  0  0  0  0  0  0
    5.4636   -1.6374   -1.4186 O   0  0  0  0  0  0  0  0  0  0  0  0
    5.8181    0.4790   -0.4056 C   0  0  0  0  0  0  0  0  0  0  0  0
    7.1734    0.5266   -0.7276 C   0  0  0  0  0  0  0  0  0  0  0  0
    7.8932    1.6973   -0.5682 C   0  0  0  0  0  0  0  0  0  0  0  0
    7.2809    2.8623   -0.1043 C   0  0  0  0  0  0  0  0  0  0  0  0
    8.0646    4.1325    0.0384 C   0  0  0  0  0  0  0  0  0  0  0  0
    5.9232    2.8125    0.1989 C   0  0  0  0  0  0  0  0  0  0  0  0
    5.1988    1.6382    0.0538 C   0  0  0  0  0  0  0  0  0  0  0  0
   -2.0955   -1.0525    1.5979 H   0  0  0  0  0  0  0  0  0  0  0  0
   -3.1069    1.0659    2.4361 H   0  0  0  0  0  0  0  0  0  0  0  0
   -5.3711    1.9700    2.6215 H   0  0  0  0  0  0  0  0  0  0  0  0
   -7.4325    2.8298    1.5419 H   0  0  0  0  0  0  0  0  0  0  0  0
   -7.6583    3.0174   -2.7316 H   0  0  0  0  0  0  0  0  0  0  0  0
   -3.3782   -1.4583   -0.5483 H   0  0  0  0  0  0  0  0  0  0  0  0
   -1.8982   -1.8274   -1.3699 H   0  0  0  0  0  0  0  0  0  0  0  0
   -1.0151    1.0836    0.8537 H   0  0  0  0  0  0  0  0  0  0  0  0
   -1.2898    0.6347   -0.8235 H   0  0  0  0  0  0  0  0  0  0  0  0
   -3.3387    1.2460   -1.8372 H   0  0  0  0  0  0  0  0  0  0  0  0
   -5.3862    2.0975   -2.9160 H   0  0  0  0  0  0  0  0  0  0  0  0
   -8.6815    3.3876   -0.5021 H   0  0  0  0  0  0  0  0  0  0  0  0
    0.5360   -1.4060   -1.1997 H   0  0  0  0  0  0  0  0  0  0  0  0
    3.6243   -2.9831    0.7201 H   0  0  0  0  0  0  0  0  0  0  0  0
    3.1636   -2.5449   -0.9175 H   0  0  0  0  0  0  0  0  0  0  0  0
    3.8496   -0.3711    0.9521 H   0  0  0  0  0  0  0  0  0  0  0  0
    7.6700   -0.3624   -1.0930 H   0  0  0  0  0  0  0  0  0  0  0  0
    8.9499    1.7082   -0.8081 H   0  0  0  0  0  0  0  0  0  0  0  0
    8.2806    4.5673   -0.9395 H   0  0  0  0  0  0  0  0  0  0  0  0
    7.5209    4.8775    0.6171 H   0  0  0  0  0  0  0  0  0  0  0  0
    9.0224    3.9546    0.5282 H   0  0  0  0  0  0  0  0  0  0  0  0
    5.4199    3.7052    0.5498 H   0  0  0  0  0  0  0  0  0  0  0  0
    4.1400    1.6517    0.2814 H   0  0  0  0  0  0  0  0  0  0  0  0
   -2.4916   -3.2580    0.0661 C   0  0  0  0  0  0  0  0  0  0  0  0
  1 19  2  0
  1 21  1  0
  1 22  1  0
  2  3  1  0
  2 19  1  0
  2 20  1  0
  3 13  1  0
  3 14  1  0
 56 11  1  0
 56 12  2  0
 56 13  1  0
  4  5  2  0
  4 14  1  0
  4 15  1  0
  5  6  1  0
  6 18  2  0
  7 17  2  0
  7 18  1  0
  8 16  2  0
  8 17  1  0
  9 15  2  0
  9 16  1  0
  9 18  1  0
 10 11  2  0
 20 21  2  0
 22 23  1  0
 23 24  1  0
 24 25  2  0
 24 26  1  0
 26 27  2  0
 26 32  1  0
 27 28  1  0
 28 29  2  0
 29 30  1  0
 29 31  1  0
 31 32  2  0
  3 33  1  1
  5 34  1  0
  6 35  1  0
  7 36  1  0
  8 37  1  0
 13 38  1  0
 13 39  1  0
 14 40  1  0
 14 41  1  0
 15 42  1  0
 16 43  1  0
 17 44  1  0
 19 45  1  0
 22 46  1  0
 22 47  1  0
 23 48  1  0
 27 49  1  0
 28 50  1  0
 30 51  1  0
 30 52  1  0
 30 53  1  0
 31 54  1  0
 32 55  1  0
M  END
