
     RDKit          3D

 53 53  0  0  0  0  0  0  0  0999 V2000
    2.6764    3.3212    5.1765 C   0  0  0  0  0  0  0  0  0  0  0  0
    2.9891    3.6716    6.6324 C   0  0  0  0  0  0  0  0  0  0  0  0
    1.7905    4.2981    7.3337 C   0  0  0  0  0  0  0  0  0  0  0  0
    2.0807    4.6679    8.7830 C   0  0  0  0  0  0  0  0  0  0  0  0
    0.8808    5.2778    9.4973 C   0  0  0  0  0  0  0  0  0  0  0  0
    1.1807    5.6473   10.9436 C   0  0  0  0  0  0  0  0  0  0  0  0
    2.4197    1.9989    2.2914 C   0  0  2  0  0  0  0  0  0  0  0  0
    2.1770    0.5181    2.5508 C   0  0  0  0  0  0  0  0  0  0  0  0
    0.8378    0.0582    1.9795 C   0  0  1  0  0  0  0  0  0  0  0  0
    0.7628    0.4018    0.4964 C   0  0  0  0  0  0  0  0  0  0  0  0
    1.0257    1.8825    0.2484 C   0  0  0  0  0  0  0  0  0  0  0  0
    2.3830    2.3280    0.8004 C   0  0  1  0  0  0  0  0  0  0  0  0
    0.6150   -1.4270    2.2301 C   0  0  0  0  0  0  0  0  0  0  0  0
    2.7223    3.7978    0.4878 C   0  0  1  0  0  0  0  0  0  0  0  0
    2.8795    4.0211   -1.0142 C   0  0  0  0  0  0  0  0  0  0  0  0
    1.7315    4.7963    1.0812 C   0  0  0  0  0  0  0  0  0  0  0  0
    3.7014    2.4086    2.8007 O   0  0  0  0  0  0  0  0  0  0  0  0
    4.4689    1.2254    5.0137 O   0  0  0  0  0  0  0  0  0  0  0  0
    4.0585    2.4958    4.3607 P   0  0  2  0  0  0  0  0  0  0  0  0
    1.8102    2.6540    5.1408 H   0  0  0  0  0  0  0  0  0  0  0  0
    2.4077    4.2208    4.6159 H   0  0  0  0  0  0  0  0  0  0  0  0
    3.8367    4.3614    6.6731 H   0  0  0  0  0  0  0  0  0  0  0  0
    3.2918    2.7694    7.1701 H   0  0  0  0  0  0  0  0  0  0  0  0
    1.4735    5.1909    6.7845 H   0  0  0  0  0  0  0  0  0  0  0  0
    0.9476    3.5998    7.2988 H   0  0  0  0  0  0  0  0  0  0  0  0
    2.9193    5.3718    8.8173 H   0  0  0  0  0  0  0  0  0  0  0  0
    2.4092    3.7753    9.3268 H   0  0  0  0  0  0  0  0  0  0  0  0
    0.5489    6.1664    8.9517 H   0  0  0  0  0  0  0  0  0  0  0  0
    0.0448    4.5722    9.4672 H   0  0  0  0  0  0  0  0  0  0  0  0
    0.3053    6.0656   11.4415 H   0  0  0  0  0  0  0  0  0  0  0  0
    1.4978    4.7729   11.5155 H   0  0  0  0  0  0  0  0  0  0  0  0
    1.9805    6.3874   11.0058 H   0  0  0  0  0  0  0  0  0  0  0  0
    1.6363    2.5796    2.7948 H   0  0  0  0  0  0  0  0  0  0  0  0
    2.2052    0.3132    3.6249 H   0  0  0  0  0  0  0  0  0  0  0  0
    2.9897   -0.0607    2.0962 H   0  0  0  0  0  0  0  0  0  0  0  0
    0.0409    0.6119    2.4922 H   0  0  0  0  0  0  0  0  0  0  0  0
   -0.2182    0.1271    0.0985 H   0  0  0  0  0  0  0  0  0  0  0  0
    1.5004   -0.1981   -0.0495 H   0  0  0  0  0  0  0  0  0  0  0  0
    0.9749    2.0897   -0.8222 H   0  0  0  0  0  0  0  0  0  0  0  0
    0.2247    2.4677    0.7130 H   0  0  0  0  0  0  0  0  0  0  0  0
    3.1531    1.7105    0.3167 H   0  0  0  0  0  0  0  0  0  0  0  0
   -0.3464   -1.7523    1.8292 H   0  0  0  0  0  0  0  0  0  0  0  0
    1.3941   -2.0261    1.7530 H   0  0  0  0  0  0  0  0  0  0  0  0
    0.6254   -1.6585    3.2966 H   0  0  0  0  0  0  0  0  0  0  0  0
    3.6989    4.0039    0.9347 H   0  0  0  0  0  0  0  0  0  0  0  0
    1.9406    3.8913   -1.5554 H   0  0  0  0  0  0  0  0  0  0  0  0
    3.2314    5.0342   -1.2156 H   0  0  0  0  0  0  0  0  0  0  0  0
    3.6073    3.3293   -1.4436 H   0  0  0  0  0  0  0  0  0  0  0  0
    0.7255    4.6666    0.6777 H   0  0  0  0  0  0  0  0  0  0  0  0
    2.0411    5.8179    0.8546 H   0  0  0  0  0  0  0  0  0  0  0  0
    1.6632    4.7158    2.1677 H   0  0  0  0  0  0  0  0  0  0  0  0
    5.2322    3.5933    4.2572 O   0  0  0  0  0  0  0  0  0  0  0  0
    5.9626    3.4199    4.8647 H   0  0  0  0  0  0  0  0  0  0  0  0
  1  2  1  0
  1 19  1  0
  1 20  1  0
  1 21  1  0
  2  3  1  0
  2 22  1  0
  2 23  1  0
  3  4  1  0
  3 24  1  0
  3 25  1  0
  4  5  1  0
  4 26  1  0
  4 27  1  0
  5  6  1  0
  5 28  1  0
  5 29  1  0
  6 30  1  0
  6 31  1  0
  6 32  1  0
  7  8  1  0
  7 12  1  0
  7 17  1  0
  7 33  1  1
  8  9  1  0
  8 34  1  0
  8 35  1  0
  9 10  1  0
  9 13  1  0
  9 36  1  1
 10 11  1  0
 10 37  1  0
 10 38  1  0
 11 12  1  0
 11 39  1  0
 11 40  1  0
 12 14  1  0
 12 41  1  6
 13 42  1  0
 13 43  1  0
 13 44  1  0
 14 15  1  0
 14 16  1  0
 14 45  1  1
 15 46  1  0
 15 47  1  0
 15 48  1  0
 16 49  1  0
 16 50  1  0
 16 51  1  0
 19 17  1  6
 18 19  2  0
 52 19  1  0
 52 53  1  0
M  END
