
     RDKit          3D

 26 27  0  0  0  0  0  0  0  0999 V2000
   -2.2785    0.8449   -0.7621 C   0  0  0  0  0  0  0  0  0  0  0  0
   -4.7028    0.0713    0.3582 C   0  0  0  0  0  0  0  0  0  0  0  0
    0.3447    0.1350    0.9119 C   0  0  0  0  0  0  0  0  0  0  0  0
    4.3881    1.2901    0.8266 O   0  0  0  0  0  0  0  0  0  0  0  0
    4.8223   -0.3605   -0.6088 O   0  0  0  0  0  0  0  0  0  0  0  0
    2.5992   -0.0793    0.0752 C   0  0  0  0  0  0  0  0  0  0  0  0
    2.1654   -1.0499   -0.8259 C   0  0  0  0  0  0  0  0  0  0  0  0
    0.8317   -1.4202   -0.8700 C   0  0  0  0  0  0  0  0  0  0  0  0
   -0.0739   -0.8299    0.0004 C   0  0  0  0  0  0  0  0  0  0  0  0
   -1.3615   -1.2703   -0.0275 O   0  0  0  0  0  0  0  0  0  0  0  0
   -2.3930   -0.3744   -0.1055 C   0  0  0  0  0  0  0  0  0  0  0  0
   -3.3908    1.6717   -0.8525 C   0  0  0  0  0  0  0  0  0  0  0  0
   -4.6043    1.2935   -0.2949 C   0  0  0  0  0  0  0  0  0  0  0  0
   -3.6000   -0.7634    0.4619 C   0  0  0  0  0  0  0  0  0  0  0  0
    1.6750    0.5064    0.9401 C   0  0  0  0  0  0  0  0  0  0  0  0
   -1.3436    1.1532   -1.2125 H   0  0  0  0  0  0  0  0  0  0  0  0
   -5.6439   -0.2365    0.7951 H   0  0  0  0  0  0  0  0  0  0  0  0
   -0.3572    0.5879    1.6003 H   0  0  0  0  0  0  0  0  0  0  0  0
    5.7235   -0.0085   -0.5594 H   0  0  0  0  0  0  0  0  0  0  0  0
    2.8558   -1.5220   -1.5106 H   0  0  0  0  0  0  0  0  0  0  0  0
    0.4936   -2.1670   -1.5763 H   0  0  0  0  0  0  0  0  0  0  0  0
   -3.3014    2.6189   -1.3683 H   0  0  0  0  0  0  0  0  0  0  0  0
   -5.4659    1.9432   -0.3694 H   0  0  0  0  0  0  0  0  0  0  0  0
   -3.6770   -1.7213    0.9608 H   0  0  0  0  0  0  0  0  0  0  0  0
    1.9977    1.2572    1.6486 H   0  0  0  0  0  0  0  0  0  0  0  0
    4.0098    0.3658    0.1464 C   0  0  0  0  0  0  0  0  0  0  0  0
  1 12  2  0
  1 11  1  0
 12 13  1  0
  8  7  2  0
  8  9  1  0
 13  2  2  0
 11 10  1  0
 11 14  2  0
 10  9  1  0
  7  6  1  0
  9  3  2  0
  4 26  2  0
 14  2  1  0
  6 26  1  0
  6 15  2  0
 26  5  1  0
  3 15  1  0
  1 16  1  0
  2 17  1  0
  3 18  1  0
  5 19  1  0
  7 20  1  0
  8 21  1  0
 12 22  1  0
 13 23  1  0
 14 24  1  0
 15 25  1  0
M  END
