
     RDKit          3D

 92 95  0  0  0  0  0  0  0  0999 V2000
   -3.5955    3.6654    2.8379 O   0  0  0  0  0  0  0  0  0  0  0  0
   -4.4541    3.2161    2.0906 C   0  0  0  0  0  0  0  0  0  0  0  0
   -5.7078    3.9853    1.7595 C   0  0  0  0  0  0  0  0  0  0  0  0
   -4.3449    2.0167    1.4915 N   0  0  0  0  0  0  0  0  0  0  0  0
   -3.1593    1.2030    1.5849 C   0  0  1  0  0  0  0  0  0  0  0  0
   -3.2659    0.1353    2.6971 C   0  0  1  0  0  0  0  0  0  0  0  0
   -4.2320   -0.9949    2.3605 C   0  0  0  0  0  0  0  0  0  0  0  0
   -1.8973   -0.4035    3.0933 C   0  0  0  0  0  0  0  0  0  0  0  0
   -2.9144    0.6044    0.2020 C   0  0  0  0  0  0  0  0  0  0  0  0
   -3.8424    0.2567   -0.5073 O   0  0  0  0  0  0  0  0  0  0  0  0
   -1.6195    0.4830   -0.1488 N   0  0  0  0  0  0  0  0  0  0  0  0
   -1.1810    0.1934   -1.5033 C   0  0  1  0  0  0  0  0  0  0  0  0
   -0.6921    1.4970   -2.1611 C   0  0  0  0  0  0  0  0  0  0  0  0
   -1.7563    2.5570   -2.1507 C   0  0  0  0  0  0  0  0  0  0  0  0
   -2.7024    2.6173   -3.1713 C   0  0  0  0  0  0  0  0  0  0  0  0
   -3.7378    3.5405   -3.1298 C   0  0  0  0  0  0  0  0  0  0  0  0
   -3.8478    4.4203   -2.0603 C   0  0  0  0  0  0  0  0  0  0  0  0
   -2.9094    4.3741   -1.0392 C   0  0  0  0  0  0  0  0  0  0  0  0
   -1.8728    3.4520   -1.0900 C   0  0  0  0  0  0  0  0  0  0  0  0
   -0.0900   -0.8747   -1.5125 C   0  0  0  0  0  0  0  0  0  0  0  0
   -0.6086   -2.3065   -1.3966 C   0  0  2  0  0  0  0  0  0  0  0  0
   -1.4949   -2.4935   -0.3152 O   0  0  0  0  0  0  0  0  0  0  0  0
    0.5399   -3.3321   -1.3694 C   0  0  2  0  0  0  0  0  0  0  0  0
    0.0204   -4.7719   -1.3645 C   0  0  0  0  0  0  0  0  0  0  0  0
    1.1364   -5.7762   -1.4095 C   0  0  0  0  0  0  0  0  0  0  0  0
    1.5726   -6.4133   -0.2511 C   0  0  0  0  0  0  0  0  0  0  0  0
    2.6293   -7.3143   -0.2875 C   0  0  0  0  0  0  0  0  0  0  0  0
    3.2674   -7.5906   -1.4891 C   0  0  0  0  0  0  0  0  0  0  0  0
    2.8394   -6.9626   -2.6524 C   0  0  0  0  0  0  0  0  0  0  0  0
    1.7824   -6.0643   -2.6101 C   0  0  0  0  0  0  0  0  0  0  0  0
    1.4049   -3.1082   -0.2250 N   0  0  0  0  0  0  0  0  0  0  0  0
    2.5550   -2.4203   -0.2833 C   0  0  0  0  0  0  0  0  0  0  0  0
    3.0693   -2.0074   -1.3044 O   0  0  0  0  0  0  0  0  0  0  0  0
    3.1552   -2.0904    1.0906 C   0  0  2  0  0  0  0  0  0  0  0  0
    2.2767   -1.0801    1.8229 C   0  0  0  0  0  0  0  0  0  0  0  0
    4.3591   -1.3724    0.8867 O   0  0  0  0  0  0  0  0  0  0  0  0
    4.0768   -0.0606    0.8023 C   0  0  0  0  0  0  0  0  0  0  0  0
    4.8779    0.7549    0.4378 O   0  0  0  0  0  0  0  0  0  0  0  0
    2.7882    0.1357    1.2204 N   0  0  0  0  0  0  0  0  0  0  0  0
    2.1385    1.3716    1.3063 C   0  0  0  0  0  0  0  0  0  0  0  0
    1.2269    1.5901    2.3393 C   0  0  0  0  0  0  0  0  0  0  0  0
    0.5346    2.7888    2.4172 C   0  0  0  0  0  0  0  0  0  0  0  0
    0.7577    3.7893    1.4847 C   0  0  0  0  0  0  0  0  0  0  0  0
    2.3407    2.3631    0.3517 C   0  0  0  0  0  0  0  0  0  0  0  0
    1.6628    3.5760    0.4462 C   0  0  0  0  0  0  0  0  0  0  0  0
    1.9076    4.6103   -0.6067 C   0  0  0  0  0  0  0  0  0  0  0  0
    2.6500    4.3723   -1.5345 O   0  0  0  0  0  0  0  0  0  0  0  0
    1.2019    5.9305   -0.4812 C   0  0  0  0  0  0  0  0  0  0  0  0
   -5.4396    4.8578    1.1617 H   0  0  0  0  0  0  0  0  0  0  0  0
   -6.4390    3.4042    1.2009 H   0  0  0  0  0  0  0  0  0  0  0  0
   -6.1725    4.3480    2.6750 H   0  0  0  0  0  0  0  0  0  0  0  0
   -5.0608    1.7204    0.8470 H   0  0  0  0  0  0  0  0  0  0  0  0
   -2.3318    1.8692    1.8434 H   0  0  0  0  0  0  0  0  0  0  0  0
   -3.6623    0.6731    3.5637 H   0  0  0  0  0  0  0  0  0  0  0  0
   -3.8420   -1.6396    1.5710 H   0  0  0  0  0  0  0  0  0  0  0  0
   -4.3928   -1.6174    3.2416 H   0  0  0  0  0  0  0  0  0  0  0  0
   -5.2054   -0.6217    2.0406 H   0  0  0  0  0  0  0  0  0  0  0  0
   -1.9910   -1.1576    3.8744 H   0  0  0  0  0  0  0  0  0  0  0  0
   -1.3823   -0.8743    2.2540 H   0  0  0  0  0  0  0  0  0  0  0  0
   -1.2552    0.3893    3.4796 H   0  0  0  0  0  0  0  0  0  0  0  0
   -0.9412    0.9433    0.4422 H   0  0  0  0  0  0  0  0  0  0  0  0
   -2.0509   -0.1653   -2.0554 H   0  0  0  0  0  0  0  0  0  0  0  0
    0.2048    1.8433   -1.6362 H   0  0  0  0  0  0  0  0  0  0  0  0
   -0.3874    1.2723   -3.1850 H   0  0  0  0  0  0  0  0  0  0  0  0
   -2.6315    1.9303   -4.0070 H   0  0  0  0  0  0  0  0  0  0  0  0
   -4.4616    3.5722   -3.9341 H   0  0  0  0  0  0  0  0  0  0  0  0
   -4.6566    5.1385   -2.0258 H   0  0  0  0  0  0  0  0  0  0  0  0
   -2.9795    5.0573   -0.2022 H   0  0  0  0  0  0  0  0  0  0  0  0
   -1.1491    3.4273   -0.2839 H   0  0  0  0  0  0  0  0  0  0  0  0
    0.4781   -0.8030   -2.4427 H   0  0  0  0  0  0  0  0  0  0  0  0
    0.6264   -0.6485   -0.7144 H   0  0  0  0  0  0  0  0  0  0  0  0
   -1.1986   -2.5177   -2.2945 H   0  0  0  0  0  0  0  0  0  0  0  0
   -1.1059   -2.1284    0.4847 H   0  0  0  0  0  0  0  0  0  0  0  0
    1.1424   -3.1826   -2.2672 H   0  0  0  0  0  0  0  0  0  0  0  0
   -0.5990   -4.9340   -0.4792 H   0  0  0  0  0  0  0  0  0  0  0  0
   -0.6351   -4.8935   -2.2301 H   0  0  0  0  0  0  0  0  0  0  0  0
    1.0774   -6.2070    0.6912 H   0  0  0  0  0  0  0  0  0  0  0  0
    2.9523   -7.8020    0.6235 H   0  0  0  0  0  0  0  0  0  0  0  0
    4.0904   -8.2927   -1.5199 H   0  0  0  0  0  0  0  0  0  0  0  0
    3.3282   -7.1739   -3.5950 H   0  0  0  0  0  0  0  0  0  0  0  0
    1.4529   -5.5817   -3.5235 H   0  0  0  0  0  0  0  0  0  0  0  0
    1.1060   -3.4755    0.6665 H   0  0  0  0  0  0  0  0  0  0  0  0
    3.3591   -2.9854    1.6785 H   0  0  0  0  0  0  0  0  0  0  0  0
    1.2140   -1.2145    1.6227 H   0  0  0  0  0  0  0  0  0  0  0  0
    2.4333   -1.1067    2.9039 H   0  0  0  0  0  0  0  0  0  0  0  0
    1.0709    0.8382    3.1015 H   0  0  0  0  0  0  0  0  0  0  0  0
   -0.1735    2.9458    3.2205 H   0  0  0  0  0  0  0  0  0  0  0  0
    0.2193    4.7233    1.5738 H   0  0  0  0  0  0  0  0  0  0  0  0
    3.0165    2.1993   -0.4744 H   0  0  0  0  0  0  0  0  0  0  0  0
    0.1218    5.7982   -0.5754 H   0  0  0  0  0  0  0  0  0  0  0  0
    1.3846    6.3870    0.4919 H   0  0  0  0  0  0  0  0  0  0  0  0
    1.5340    6.6111   -1.2613 H   0  0  0  0  0  0  0  0  0  0  0  0
  1  2  2  0
  2  4  1  0
  2  3  1  0
  3 49  1  0
  3 50  1  0
  3 51  1  0
  4  5  1  0
  4 52  1  0
  5  9  1  0
  5  6  1  0
  5 53  1  1
  6  7  1  0
  6  8  1  0
  6 54  1  1
  7 55  1  0
  7 56  1  0
  7 57  1  0
  8 58  1  0
  8 59  1  0
  8 60  1  0
  9 11  1  0
  9 10  2  0
 11 12  1  0
 11 61  1  0
 12 20  1  0
 12 13  1  0
 12 62  1  6
 13 14  1  0
 13 63  1  0
 13 64  1  0
 14 19  1  0
 14 15  2  0
 15 16  1  0
 15 65  1  0
 16 17  2  0
 16 66  1  0
 17 18  1  0
 17 67  1  0
 18 19  2  0
 18 68  1  0
 19 69  1  0
 20 21  1  0
 20 70  1  0
 20 71  1  0
 21 22  1  0
 21 23  1  0
 21 72  1  6
 22 73  1  0
 23 24  1  0
 23 31  1  0
 23 74  1  6
 24 25  1  0
 24 75  1  0
 24 76  1  0
 25 26  2  0
 25 30  1  0
 26 27  1  0
 26 77  1  0
 27 28  2  0
 27 78  1  0
 28 29  1  0
 28 79  1  0
 29 30  2  0
 29 80  1  0
 30 81  1  0
 31 32  1  0
 31 82  1  0
 32 34  1  0
 32 33  2  0
 34 36  1  0
 34 35  1  0
 34 83  1  1
 35 39  1  0
 35 84  1  0
 35 85  1  0
 36 37  1  0
 37 38  2  0
 37 39  1  0
 39 40  1  0
 40 41  2  0
 40 44  1  0
 41 42  1  0
 41 86  1  0
 42 43  2  0
 42 87  1  0
 43 45  1  0
 43 88  1  0
 44 45  2  0
 44 89  1  0
 45 46  1  0
 46 48  1  0
 46 47  2  0
 48 90  1  0
 48 91  1  0
 48 92  1  0
M  END
