
     RDKit          3D

 31 34  0  0  0  0  0  0  0  0999 V2000
    2.1137    0.1991   -0.2698 C   0  0  0  0  0  0  0  0  0  0  0  0
    1.9956   -1.1488   -0.6268 C   0  0  0  0  0  0  0  0  0  0  0  0
    2.8409   -2.0695   -0.0390 C   0  0  0  0  0  0  0  0  0  0  0  0
    3.8038   -1.6698    0.9030 C   0  0  0  0  0  0  0  0  0  0  0  0
    3.9398   -0.3464    1.2769 C   0  0  0  0  0  0  0  0  0  0  0  0
    3.0851    0.5801    0.6814 C   0  0  0  0  0  0  0  0  0  0  0  0
    2.9844    1.9311    0.8472 N   0  0  0  0  0  0  0  0  0  0  0  0
    1.9930    2.4141    0.0425 C   0  0  0  0  0  0  0  0  0  0  0  0
    1.4288    1.3925   -0.6676 C   0  0  0  0  0  0  0  0  0  0  0  0
    0.3053    1.4816   -1.6477 C   0  0  0  0  0  0  0  0  0  0  0  0
   -0.9217    0.7791   -1.1691 C   0  0  0  0  0  0  0  0  0  0  0  0
   -1.3939    0.9583    0.0981 N   0  0  0  0  0  0  0  0  0  0  0  0
   -2.5195    0.2042    0.2257 C   0  0  0  0  0  0  0  0  0  0  0  0
   -3.4244   -0.0252    1.2528 C   0  0  0  0  0  0  0  0  0  0  0  0
   -4.4574   -0.8928    0.9464 C   0  0  0  0  0  0  0  0  0  0  0  0
   -4.6243   -1.4981   -0.2375 N   0  0  0  0  0  0  0  0  0  0  0  0
   -3.7541   -1.2711   -1.2079 C   0  0  0  0  0  0  0  0  0  0  0  0
   -2.6724   -0.4170   -1.0232 C   0  0  0  0  0  0  0  0  0  0  0  0
   -1.6566   -0.0382   -1.8694 N   0  0  0  0  0  0  0  0  0  0  0  0
    1.2528   -1.4664   -1.3493 H   0  0  0  0  0  0  0  0  0  0  0  0
    2.7640   -3.1157   -0.3055 H   0  0  0  0  0  0  0  0  0  0  0  0
    4.4540   -2.4137    1.3449 H   0  0  0  0  0  0  0  0  0  0  0  0
    4.6828   -0.0434    2.0038 H   0  0  0  0  0  0  0  0  0  0  0  0
    3.5454    2.4896    1.4680 H   0  0  0  0  0  0  0  0  0  0  0  0
    1.7559    3.4667    0.0309 H   0  0  0  0  0  0  0  0  0  0  0  0
    0.0598    2.5309   -1.8363 H   0  0  0  0  0  0  0  0  0  0  0  0
    0.5792    1.0471   -2.6109 H   0  0  0  0  0  0  0  0  0  0  0  0
   -0.9683    1.5365    0.8067 H   0  0  0  0  0  0  0  0  0  0  0  0
   -3.3440    0.4345    2.2282 H   0  0  0  0  0  0  0  0  0  0  0  0
   -5.2009   -1.1179    1.7024 H   0  0  0  0  0  0  0  0  0  0  0  0
   -3.9132   -1.7753   -2.1557 H   0  0  0  0  0  0  0  0  0  0  0  0
  7  8  1  0
  7  6  1  0
  8  9  2  0
  5  6  2  0
  5  4  1  0
  6  1  1  0
  9  1  1  0
  9 10  1  0
  4  3  2  0
  1  2  2  0
 10 11  1  0
  2  3  1  0
 12 11  1  0
 12 13  1  0
 11 19  2  0
 13 14  2  0
 13 18  1  0
 19 18  1  0
 14 15  1  0
 18 17  2  0
 15 16  2  0
 17 16  1  0
  2 20  1  0
  3 21  1  0
  4 22  1  0
  5 23  1  0
  7 24  1  0
  8 25  1  0
 10 26  1  0
 10 27  1  0
 12 28  1  0
 14 29  1  0
 15 30  1  0
 17 31  1  0
M  END
