
     RDKit          3D

 43 46  0  0  0  0  0  0  0  0999 V2000
   -0.0311   -1.4693   -0.0351 C   0  0  0  0  0  0  0  0  0  0  0  0
   -0.2505   -2.7723   -0.0352 N   0  0  0  0  0  0  0  0  0  0  0  0
    0.8450   -3.5381   -0.0586 C   0  0  0  0  0  0  0  0  0  0  0  0
    2.1187   -3.0392   -0.0800 C   0  0  0  0  0  0  0  0  0  0  0  0
    2.2322   -1.6334   -0.0738 C   0  0  0  0  0  0  0  0  0  0  0  0
    3.4754   -1.0837   -0.0842 N   0  0  0  0  0  0  0  0  0  0  0  0
    3.8921    0.2387   -0.0277 C   0  0  0  0  0  0  0  0  0  0  0  0
    3.0755    1.3572   -0.0202 C   0  0  0  0  0  0  0  0  0  0  0  0
    3.6268    2.6526    0.0462 C   0  0  0  0  0  0  0  0  0  0  0  0
    4.9776    2.8967    0.1062 C   0  0  0  0  0  0  0  0  0  0  0  0
    5.7996    1.7633    0.0961 C   0  0  0  0  0  0  0  0  0  0  0  0
    7.1439    1.6266    0.1446 N   0  0  0  0  0  0  0  0  0  0  0  0
    7.5317    0.3513    0.1162 N   0  0  0  0  0  0  0  0  0  0  0  0
    6.4416   -0.3708    0.0480 C   0  0  0  0  0  0  0  0  0  0  0  0
    5.2877    0.4582    0.0301 C   0  0  0  0  0  0  0  0  0  0  0  0
    1.1600   -0.8630   -0.0547 N   0  0  0  0  0  0  0  0  0  0  0  0
   -5.7370    2.1243    1.8165 C   0  0  0  0  0  0  0  0  0  0  0  0
   -6.9636    1.3174   -0.3687 O   0  0  0  0  0  0  0  0  0  0  0  0
   -4.9003    2.7351   -0.6036 O   0  0  0  0  0  0  0  0  0  0  0  0
   -4.6291    0.2094    0.1090 C   0  0  0  0  0  0  0  0  0  0  0  0
   -5.2532   -1.0253    0.2169 C   0  0  0  0  0  0  0  0  0  0  0  0
   -4.4459   -2.1506    0.2407 C   0  0  0  0  0  0  0  0  0  0  0  0
   -3.0644   -2.0576    0.1617 C   0  0  0  0  0  0  0  0  0  0  0  0
   -2.4476   -0.8063    0.0556 C   0  0  0  0  0  0  0  0  0  0  0  0
   -1.0811   -0.5953   -0.0170 N   0  0  0  0  0  0  0  0  0  0  0  0
   -3.2552    0.3363    0.0238 C   0  0  0  0  0  0  0  0  0  0  0  0
   -0.7914    0.3707   -0.0479 H   0  0  0  0  0  0  0  0  0  0  0  0
    0.6792   -4.6092   -0.0593 H   0  0  0  0  0  0  0  0  0  0  0  0
    2.9832   -3.6871   -0.0956 H   0  0  0  0  0  0  0  0  0  0  0  0
    4.2191   -1.7636   -0.1048 H   0  0  0  0  0  0  0  0  0  0  0  0
    2.0053    1.2499   -0.0624 H   0  0  0  0  0  0  0  0  0  0  0  0
    2.9399    3.4889    0.0498 H   0  0  0  0  0  0  0  0  0  0  0  0
    5.3785    3.8995    0.1588 H   0  0  0  0  0  0  0  0  0  0  0  0
    7.8341    2.3571    0.2026 H   0  0  0  0  0  0  0  0  0  0  0  0
    6.5119   -1.4481    0.0142 H   0  0  0  0  0  0  0  0  0  0  0  0
   -6.1886    1.3071    2.3740 H   0  0  0  0  0  0  0  0  0  0  0  0
   -4.7423    2.3395    2.1994 H   0  0  0  0  0  0  0  0  0  0  0  0
   -6.3637    3.0134    1.8810 H   0  0  0  0  0  0  0  0  0  0  0  0
   -6.3286   -1.1135    0.2771 H   0  0  0  0  0  0  0  0  0  0  0  0
   -2.7983    1.3143   -0.0715 H   0  0  0  0  0  0  0  0  0  0  0  0
   -4.8985   -3.1299    0.3213 H   0  0  0  0  0  0  0  0  0  0  0  0
   -2.4632   -2.9518    0.1796 H   0  0  0  0  0  0  0  0  0  0  0  0
   -5.6269    1.6791    0.0986 S   0  0  1  0  0  0  0  0  0  0  0  0
  1  2  2  0
  1 16  1  0
  1 25  1  0
  2  3  1  0
  3  4  2  0
  4  5  1  0
  5  6  1  0
  5 16  2  0
  6  7  1  0
  7  8  2  0
  7 15  1  0
  8  9  1  0
  9 10  2  0
 10 11  1  0
 11 12  1  0
 11 15  2  0
 12 13  1  0
 13 14  2  0
 14 15  1  0
 43 17  1  1
 43 18  2  0
 43 19  2  0
 43 20  1  0
 20 21  2  0
 20 26  1  0
 21 22  1  0
 22 23  2  0
 23 24  1  0
 24 25  1  0
 24 26  2  0
 25 27  1  0
  3 28  1  0
  4 29  1  0
  6 30  1  0
  8 31  1  0
  9 32  1  0
 10 33  1  0
 12 34  1  0
 14 35  1  0
 17 36  1  0
 17 37  1  0
 17 38  1  0
 21 39  1  0
 26 40  1  0
 22 41  1  0
 23 42  1  0
M  END
