
     RDKit          3D

 29 31  0  0  0  0  0  0  0  0999 V2000
   -2.9716   -0.3706    0.9374 C   0  0  0  0  0  0  0  0  0  0  0  0
   -3.9551    0.2163   -1.5597 C   0  0  0  0  0  0  0  0  0  0  0  0
   -2.6128   -0.0324   -1.3760 C   0  0  0  0  0  0  0  0  0  0  0  0
    1.1385    2.4677   -0.2978 N   0  0  0  0  0  0  0  0  0  0  0  0
    3.4807    2.0190   -0.1095 N   0  0  0  0  0  0  0  0  0  0  0  0
   -4.8045    0.1683   -0.4643 C   0  0  0  0  0  0  0  0  0  0  0  0
   -1.7731   -0.0032   -2.4256 F   0  0  0  0  0  0  0  0  0  0  0  0
   -2.0934   -0.3319   -0.1276 C   0  0  0  0  0  0  0  0  0  0  0  0
   -0.6423   -0.6693    0.0661 C   0  0  0  0  0  0  0  0  0  0  0  0
    0.3023    0.4122   -0.0473 C   0  0  0  0  0  0  0  0  0  0  0  0
    1.7319    0.3304    0.0440 C   0  0  0  0  0  0  0  0  0  0  0  0
    2.6700   -0.6769    0.2407 C   0  0  0  0  0  0  0  0  0  0  0  0
    3.9959   -0.2860    0.2537 C   0  0  0  0  0  0  0  0  0  0  0  0
    5.2428   -1.4603    0.4925 Cl  0  0  0  0  0  0  0  0  0  0  0  0
    4.3634    1.0528    0.0779 C   0  0  0  0  0  0  0  0  0  0  0  0
    2.2180    1.6413   -0.1212 C   0  0  0  0  0  0  0  0  0  0  0  0
    0.0056    1.7455   -0.2553 C   0  0  0  0  0  0  0  0  0  0  0  0
   -0.3123   -1.8128    0.3161 O   0  0  0  0  0  0  0  0  0  0  0  0
   -2.4810   -0.6481    2.1577 F   0  0  0  0  0  0  0  0  0  0  0  0
   -4.3379   -0.1209    0.8199 C   0  0  0  0  0  0  0  0  0  0  0  0
   -5.1595   -0.0990    1.9277 N   0  0  0  0  0  0  0  0  0  0  0  0
   -4.3421    0.4397   -2.5447 H   0  0  0  0  0  0  0  0  0  0  0  0
   -5.8602    0.3610   -0.6075 H   0  0  0  0  0  0  0  0  0  0  0  0
    2.3851   -1.7101    0.3783 H   0  0  0  0  0  0  0  0  0  0  0  0
    5.4097    1.3337    0.0917 H   0  0  0  0  0  0  0  0  0  0  0  0
   -0.9540    2.2253   -0.3665 H   0  0  0  0  0  0  0  0  0  0  0  0
   -6.1411   -0.1900    1.7182 H   0  0  0  0  0  0  0  0  0  0  0  0
   -4.8957   -0.7100    2.6847 H   0  0  0  0  0  0  0  0  0  0  0  0
    1.1866    3.4667   -0.4298 H   0  0  0  0  0  0  0  0  0  0  0  0
  2  6  2  0
  2  3  1  0
  6 20  1  0
  7  3  1  0
  3  8  2  0
 20 21  1  0
 20  1  2  0
  8  1  1  0
  8  9  1  0
  1 19  1  0
 17  4  1  0
 17 10  2  0
  4 16  1  0
  9 10  1  0
  9 18  2  0
 10 11  1  0
 16 11  2  0
 16  5  1  0
 11 12  1  0
  5 15  2  0
 12 13  2  0
 15 13  1  0
 13 14  1  0
  2 22  1  0
  4 29  1  0
  6 23  1  0
 12 24  1  0
 15 25  1  0
 17 26  1  0
 21 27  1  0
 21 28  1  0
M  END
