
     RDKit          3D

 24 25  0  0  0  0  0  0  0  0999 V2000
    2.3624    0.7595   -0.1206 C   0  0  2  0  0  0  0  0  0  0  0  0
    0.2049   -0.9363   -0.1159 C   0  0  0  0  0  0  0  0  0  0  0  0
    1.3551   -1.5106   -0.1743 N   0  0  0  0  0  0  0  0  0  0  0  0
   -0.9778   -1.6987    0.2136 C   0  0  0  0  0  0  0  0  0  0  0  0
   -2.1982   -1.1279    0.2990 C   0  0  0  0  0  0  0  0  0  0  0  0
    2.2287    0.9822    1.2661 O   0  0  0  0  0  0  0  0  0  0  0  0
    1.0880    1.2485   -0.7717 C   0  0  0  0  0  0  0  0  0  0  0  0
   -0.0301    0.4111   -0.3558 N   0  0  0  0  0  0  0  0  0  0  0  0
   -1.2682    0.9745   -0.2501 C   0  0  0  0  0  0  0  0  0  0  0  0
   -2.3792    0.2718    0.0688 C   0  0  0  0  0  0  0  0  0  0  0  0
   -3.7283    0.9119    0.1811 C   0  0  0  0  0  0  0  0  0  0  0  0
    3.2052    1.3242   -0.5400 H   0  0  0  0  0  0  0  0  0  0  0  0
   -0.8356   -2.7558    0.3927 H   0  0  0  0  0  0  0  0  0  0  0  0
   -3.0585   -1.7376    0.5506 H   0  0  0  0  0  0  0  0  0  0  0  0
    2.9707    0.5636    1.7134 H   0  0  0  0  0  0  0  0  0  0  0  0
    0.8763    2.2806   -0.4918 H   0  0  0  0  0  0  0  0  0  0  0  0
    1.1966    1.2156   -1.8579 H   0  0  0  0  0  0  0  0  0  0  0  0
   -1.3040    2.0392   -0.4436 H   0  0  0  0  0  0  0  0  0  0  0  0
   -4.4392    0.4703   -0.5202 H   0  0  0  0  0  0  0  0  0  0  0  0
   -4.1466    0.7868    1.1816 H   0  0  0  0  0  0  0  0  0  0  0  0
   -3.6802    1.9804   -0.0260 H   0  0  0  0  0  0  0  0  0  0  0  0
    2.5236   -0.7162   -0.4551 C   0  0  0  0  0  0  0  0  0  0  0  0
    2.8064   -0.8022   -1.5121 H   0  0  0  0  0  0  0  0  0  0  0  0
    3.3739   -1.1253    0.1028 H   0  0  0  0  0  0  0  0  0  0  0  0
  3  2  2  0
  6  1  1  0
  2  4  1  0
  2  8  1  0
  1  7  1  0
  4  5  2  0
  8  7  1  0
  8  9  1  0
  5 10  1  0
  9 10  2  0
 10 11  1  0
  1 12  1  6
  4 13  1  0
  5 14  1  0
  6 15  1  0
  7 16  1  0
  7 17  1  0
  9 18  1  0
 11 19  1  0
 11 20  1  0
 11 21  1  0
  3 22  1  0
  1 22  1  0
 22 23  1  0
 22 24  1  0
M  END
