
     RDKit          3D

 40 42  0  0  0  0  0  0  0  0999 V2000
    6.4504   -0.1114    0.3792 C   0  0  0  0  0  0  0  0  0  0  0  0
    5.3841   -0.8785    0.8226 C   0  0  0  0  0  0  0  0  0  0  0  0
    4.1083   -0.7329    0.3058 C   0  0  0  0  0  0  0  0  0  0  0  0
    3.8782    0.2106   -0.6910 C   0  0  0  0  0  0  0  0  0  0  0  0
    2.5085    0.3627   -1.3008 C   0  0  0  0  0  0  0  0  0  0  0  0
    0.1317    0.1595   -0.9154 C   0  0  0  0  0  0  0  0  0  0  0  0
   -0.9205   -0.1505    0.1368 C   0  0  0  0  0  0  0  0  0  0  0  0
   -3.2938   -0.4562    0.5759 N   0  0  0  0  0  0  0  0  0  0  0  0
   -2.3218   -0.1404   -0.4499 C   0  0  0  0  0  0  0  0  0  0  0  0
   -4.6197   -0.3775    0.3931 C   0  0  0  0  0  0  0  0  0  0  0  0
   -6.5333    0.1596   -0.5460 C   0  0  0  0  0  0  0  0  0  0  0  0
   -7.6088    0.5824   -1.2902 C   0  0  0  0  0  0  0  0  0  0  0  0
   -5.1698    0.2261   -0.6992 N   0  0  0  0  0  0  0  0  0  0  0  0
   -8.8625    0.2975   -0.7472 C   0  0  0  0  0  0  0  0  0  0  0  0
   -8.9570   -0.3688    0.4695 C   0  0  0  0  0  0  0  0  0  0  0  0
   -6.7218   -0.5141    0.6816 C   0  0  0  0  0  0  0  0  0  0  0  0
    4.9313    0.9953   -1.1474 C   0  0  0  0  0  0  0  0  0  0  0  0
   -7.9132   -0.7782    1.1913 N   0  0  0  0  0  0  0  0  0  0  0  0
    5.6655   -2.0539    2.0636 Cl  0  0  0  0  0  0  0  0  0  0  0  0
    6.1974    0.8218   -0.6124 C   0  0  0  0  0  0  0  0  0  0  0  0
    7.5010    1.8056   -1.1872 Cl  0  0  0  0  0  0  0  0  0  0  0  0
    1.4586    0.1476   -0.3302 N   0  0  0  0  0  0  0  0  0  0  0  0
   -5.5187   -0.8365    1.2401 N   0  0  0  0  0  0  0  0  0  0  0  0
    7.4405   -0.2334    0.7954 H   0  0  0  0  0  0  0  0  0  0  0  0
    3.2917   -1.3395    0.6722 H   0  0  0  0  0  0  0  0  0  0  0  0
    2.4477    1.3383   -1.8055 H   0  0  0  0  0  0  0  0  0  0  0  0
    2.3993   -0.3895   -2.0891 H   0  0  0  0  0  0  0  0  0  0  0  0
    0.0988   -0.6033   -1.6991 H   0  0  0  0  0  0  0  0  0  0  0  0
   -0.1080    1.1166   -1.4046 H   0  0  0  0  0  0  0  0  0  0  0  0
   -0.7090   -1.1305    0.5741 H   0  0  0  0  0  0  0  0  0  0  0  0
   -0.8667    0.5832    0.9466 H   0  0  0  0  0  0  0  0  0  0  0  0
   -3.0022   -1.0642    1.3251 H   0  0  0  0  0  0  0  0  0  0  0  0
   -2.5354    0.8538   -0.8519 H   0  0  0  0  0  0  0  0  0  0  0  0
   -2.3819   -0.8480   -1.2854 H   0  0  0  0  0  0  0  0  0  0  0  0
   -7.4993    1.1029   -2.2327 H   0  0  0  0  0  0  0  0  0  0  0  0
   -4.6775    0.6435   -1.4728 H   0  0  0  0  0  0  0  0  0  0  0  0
   -9.7643    0.5907   -1.2663 H   0  0  0  0  0  0  0  0  0  0  0  0
   -9.9362   -0.5821    0.8837 H   0  0  0  0  0  0  0  0  0  0  0  0
    4.7626    1.7403   -1.9141 H   0  0  0  0  0  0  0  0  0  0  0  0
    1.5141    0.8677    0.3810 H   0  0  0  0  0  0  0  0  0  0  0  0
 14 15  1  0
 14 12  2  0
 15 18  2  0
 12 11  1  0
 18 16  1  0
 11 16  2  0
 11 13  1  0
 16 23  1  0
 13 10  1  0
 23 10  2  0
 10  8  1  0
  8  9  1  0
  9  7  1  0
  7  6  1  0
  6 22  1  0
 22  5  1  0
 17 20  1  0
 17  4  2  0
 20  1  2  0
 20 21  1  0
  1  2  1  0
  4  3  1  0
  4  5  1  0
  3  2  2  0
  2 19  1  0
  1 24  1  0
  3 25  1  0
  5 26  1  0
  5 27  1  0
  6 28  1  0
  6 29  1  0
  7 30  1  0
  7 31  1  0
  8 32  1  0
  9 33  1  0
  9 34  1  0
 12 35  1  0
 13 36  1  0
 14 37  1  0
 15 38  1  0
 17 39  1  0
 22 40  1  0
M  END
