
     RDKit          3D

 61 63  0  0  0  0  0  0  0  0999 V2000
   -8.1125   -1.2346    0.2743 F   0  0  0  0  0  0  0  0  0  0  0  0
   -7.1728   -1.5973    1.1608 C   0  0  1  0  0  0  0  0  0  0  0  0
   -7.2089   -0.6892    2.1450 F   0  0  0  0  0  0  0  0  0  0  0  0
   -7.5617   -2.7619    1.6855 F   0  0  0  0  0  0  0  0  0  0  0  0
   -5.8208   -1.6746    0.5229 C   0  0  0  0  0  0  0  0  0  0  0  0
   -5.2251   -2.8986    0.2507 C   0  0  0  0  0  0  0  0  0  0  0  0
   -3.9905   -2.9323   -0.3819 C   0  0  0  0  0  0  0  0  0  0  0  0
   -3.3514   -1.7574   -0.7419 C   0  0  0  0  0  0  0  0  0  0  0  0
   -5.1876   -0.4870    0.1713 C   0  0  0  0  0  0  0  0  0  0  0  0
   -3.9583   -0.5449   -0.4567 C   0  0  0  0  0  0  0  0  0  0  0  0
   -3.3327    0.6157   -0.8504 O   0  0  0  0  0  0  0  0  0  0  0  0
   -2.6108    1.2737    0.0944 C   0  0  0  0  0  0  0  0  0  0  0  0
   -2.5957    0.9490    1.2562 O   0  0  0  0  0  0  0  0  0  0  0  0
   -1.9674    2.3146   -0.4598 N   0  0  0  0  0  0  0  0  0  0  0  0
   -0.9387    3.0350    0.2433 C   0  0  0  0  0  0  0  0  0  0  0  0
    0.4498    2.4878   -0.0895 C   0  0  2  0  0  0  0  0  0  0  0  0
    0.4205    1.0824    0.1485 O   0  0  0  0  0  0  0  0  0  0  0  0
    0.7047    0.2272   -0.8314 C   0  0  0  0  0  0  0  0  0  0  0  0
    0.3462   -1.1632   -0.4786 C   0  0  0  0  0  0  0  0  0  0  0  0
    0.5361   -2.1469   -1.4468 C   0  0  0  0  0  0  0  0  0  0  0  0
    0.1572   -3.4553   -1.1943 C   0  0  0  0  0  0  0  0  0  0  0  0
    0.3020   -4.4596   -2.0793 O   0  0  0  0  0  0  0  0  0  0  0  0
   -0.4226   -3.7880    0.0327 C   0  0  0  0  0  0  0  0  0  0  0  0
   -0.8042   -5.0616    0.2291 O   0  0  0  0  0  0  0  0  0  0  0  0
   -0.5970   -2.7973    1.0005 C   0  0  0  0  0  0  0  0  0  0  0  0
   -1.1640   -3.2111    2.1536 O   0  0  0  0  0  0  0  0  0  0  0  0
   -0.2164   -1.4896    0.7524 C   0  0  0  0  0  0  0  0  0  0  0  0
    1.1762    0.5513   -1.8942 O   0  0  0  0  0  0  0  0  0  0  0  0
    1.5096    3.1114    0.7886 C   0  0  0  0  0  0  0  0  0  0  0  0
    2.7576    2.5718    0.3688 O   0  0  0  0  0  0  0  0  0  0  0  0
    3.8470    2.8988    1.0516 C   0  0  0  0  0  0  0  0  0  0  0  0
    3.8383    3.6737    1.9784 O   0  0  0  0  0  0  0  0  0  0  0  0
    5.0557    2.2085    0.5519 C   0  0  0  0  0  0  0  0  0  0  0  0
    5.0036    1.3152   -0.5147 C   0  0  0  0  0  0  0  0  0  0  0  0
    6.1619    0.6816   -0.9386 C   0  0  0  0  0  0  0  0  0  0  0  0
    6.0892   -0.1812   -1.9709 O   0  0  0  0  0  0  0  0  0  0  0  0
    7.3754    0.9406   -0.2995 C   0  0  0  0  0  0  0  0  0  0  0  0
    8.4665    0.2969   -0.7578 O   0  0  0  0  0  0  0  0  0  0  0  0
    7.4180    1.8382    0.7692 C   0  0  0  0  0  0  0  0  0  0  0  0
    8.6334    2.0238    1.3258 O   0  0  0  0  0  0  0  0  0  0  0  0
    6.2636    2.4708    1.1946 C   0  0  0  0  0  0  0  0  0  0  0  0
   -5.7064   -3.8283    0.5194 H   0  0  0  0  0  0  0  0  0  0  0  0
   -3.5249   -3.8851   -0.5929 H   0  0  0  0  0  0  0  0  0  0  0  0
   -2.3926   -1.7791   -1.2441 H   0  0  0  0  0  0  0  0  0  0  0  0
   -5.6404    0.4757    0.3734 H   0  0  0  0  0  0  0  0  0  0  0  0
   -2.0500    2.4581   -1.4548 H   0  0  0  0  0  0  0  0  0  0  0  0
   -0.9797    4.0876   -0.0377 H   0  0  0  0  0  0  0  0  0  0  0  0
   -1.1309    2.9774    1.3140 H   0  0  0  0  0  0  0  0  0  0  0  0
    0.6778    2.6885   -1.1385 H   0  0  0  0  0  0  0  0  0  0  0  0
    0.9697   -1.8888   -2.4053 H   0  0  0  0  0  0  0  0  0  0  0  0
    0.7164   -4.1345   -2.8864 H   0  0  0  0  0  0  0  0  0  0  0  0
   -1.2024   -5.1599    1.1026 H   0  0  0  0  0  0  0  0  0  0  0  0
   -1.3341   -2.4682    2.7429 H   0  0  0  0  0  0  0  0  0  0  0  0
   -0.3749   -0.7372    1.5125 H   0  0  0  0  0  0  0  0  0  0  0  0
    1.4940    4.1972    0.6660 H   0  0  0  0  0  0  0  0  0  0  0  0
    1.3272    2.8834    1.8419 H   0  0  0  0  0  0  0  0  0  0  0  0
    4.0754    1.0973   -1.0257 H   0  0  0  0  0  0  0  0  0  0  0  0
    6.9463   -0.5923   -2.1338 H   0  0  0  0  0  0  0  0  0  0  0  0
    9.2428    0.5039   -0.2238 H   0  0  0  0  0  0  0  0  0  0  0  0
    8.5834    2.6343    2.0697 H   0  0  0  0  0  0  0  0  0  0  0  0
    6.3052    3.1644    2.0252 H   0  0  0  0  0  0  0  0  0  0  0  0
 24 23  1  0
 22 21  1  0
  2  4  1  1
 23 21  1  0
 23 25  2  0
 21 20  2  0
 26 25  1  0
 25 27  1  0
  1  2  1  0
  2  3  1  0
  2  5  1  0
 20 19  1  0
 27 19  2  0
  5  9  2  0
  5  6  1  0
 19 18  1  0
  9 10  1  0
  6  7  2  0
 10 11  1  0
 10  8  2  0
 18 28  2  0
 18 17  1  0
 11 12  1  0
  7  8  1  0
 17 16  1  0
 12 14  1  0
 12 13  2  0
 14 15  1  0
 16 15  1  0
 16 29  1  0
 29 30  1  0
 30 31  1  0
 31 32  2  0
 31 33  1  0
 34 33  2  0
 34 35  1  0
 36 35  1  0
 33 41  1  0
 35 37  2  0
 41 39  2  0
 37 39  1  0
 37 38  1  0
 39 40  1  0
  6 42  1  0
  7 43  1  0
  8 44  1  0
  9 45  1  0
 14 46  1  0
 15 47  1  0
 15 48  1  0
 16 49  1  6
 20 50  1  0
 22 51  1  0
 24 52  1  0
 26 53  1  0
 27 54  1  0
 29 55  1  0
 29 56  1  0
 34 57  1  0
 36 58  1  0
 38 59  1  0
 40 60  1  0
 41 61  1  0
M  END
