
     RDKit          3D

 28 30  0  0  0  0  0  0  0  0999 V2000
   -3.7917   -0.6095    0.1994 C   0  0  0  0  0  0  0  0  0  0  0  0
   -4.2022   -1.9946    0.5895 C   0  0  0  0  0  0  0  0  0  0  0  0
    3.4000   -0.1576    0.6810 C   0  0  0  0  0  0  0  0  0  0  0  0
    2.0762    0.2525    0.6978 C   0  0  0  0  0  0  0  0  0  0  0  0
    3.8587   -1.1958    0.0273 N   0  0  0  0  0  0  0  0  0  0  0  0
    2.9852   -1.9053   -0.6813 C   0  0  0  0  0  0  0  0  0  0  0  0
    1.6397   -1.5964   -0.7637 C   0  0  0  0  0  0  0  0  0  0  0  0
    1.1809   -0.4941   -0.0525 C   0  0  0  0  0  0  0  0  0  0  0  0
   -0.1756   -0.1328   -0.0895 N   0  0  0  0  0  0  0  0  0  0  0  0
   -0.6404    1.1456   -0.4083 C   0  0  0  0  0  0  0  0  0  0  0  0
    0.0516    2.0851   -0.6948 O   0  0  0  0  0  0  0  0  0  0  0  0
   -2.1124    1.0654   -0.3246 C   0  0  0  0  0  0  0  0  0  0  0  0
   -3.0483    2.0509   -0.5461 C   0  0  0  0  0  0  0  0  0  0  0  0
   -4.3834    1.6886   -0.3887 C   0  0  0  0  0  0  0  0  0  0  0  0
   -1.2294   -1.0153    0.1912 C   0  0  0  0  0  0  0  0  0  0  0  0
   -1.0884   -2.1671    0.5022 O   0  0  0  0  0  0  0  0  0  0  0  0
   -2.4683   -0.2263    0.0349 C   0  0  0  0  0  0  0  0  0  0  0  0
   -4.7394    0.3946   -0.0262 C   0  0  0  0  0  0  0  0  0  0  0  0
   -3.7700   -2.2801    1.5484 H   0  0  0  0  0  0  0  0  0  0  0  0
   -5.2850   -2.0671    0.6701 H   0  0  0  0  0  0  0  0  0  0  0  0
   -3.8679   -2.7277   -0.1448 H   0  0  0  0  0  0  0  0  0  0  0  0
    1.7625    1.1060    1.2801 H   0  0  0  0  0  0  0  0  0  0  0  0
    3.3813   -2.7580   -1.2182 H   0  0  0  0  0  0  0  0  0  0  0  0
    0.9816   -2.1939   -1.3769 H   0  0  0  0  0  0  0  0  0  0  0  0
   -2.7640    3.0561   -0.8257 H   0  0  0  0  0  0  0  0  0  0  0  0
   -5.1606    2.4235   -0.5490 H   0  0  0  0  0  0  0  0  0  0  0  0
   -5.7891    0.1538    0.0863 H   0  0  0  0  0  0  0  0  0  0  0  0
    4.5537    0.7523    1.6004 Cl  0  0  0  0  0  0  0  0  0  0  0  0
  1  2  1  0
  1 17  2  0
  1 18  1  0
 28  3  1  0
  3  4  2  0
  3  5  1  0
  4  8  1  0
  5  6  2  0
  6  7  1  0
  7  8  2  0
  8  9  1  0
  9 10  1  0
  9 15  1  0
 10 11  2  0
 10 12  1  0
 12 13  2  0
 12 17  1  0
 13 14  1  0
 14 18  2  0
 15 16  2  0
 15 17  1  0
  2 19  1  0
  2 20  1  0
  2 21  1  0
  4 22  1  0
  6 23  1  0
  7 24  1  0
 13 25  1  0
 14 26  1  0
 18 27  1  0
M  END
