
     RDKit          3D

 36 35  0  0  0  0  0  0  0  0999 V2000
    3.3170   -1.1190    1.5166 O   0  0  0  0  0  0  0  0  0  0  0  0
    2.8200   -0.6658    0.5168 C   0  0  0  0  0  0  0  0  0  0  0  0
    3.4147    0.1901   -0.2939 O   0  0  0  0  0  0  0  0  0  0  0  0
    4.7329    0.6528    0.0493 C   0  0  0  0  0  0  0  0  0  0  0  0
    5.1690    1.6267   -1.0174 C   0  0  0  0  0  0  0  0  0  0  0  0
    1.4100   -0.9949    0.0466 C   0  0  1  0  0  0  0  0  0  0  0  0
    0.9188   -2.1265    0.7008 O   0  0  0  0  0  0  0  0  0  0  0  0
    0.5179    0.2299    0.2411 C   0  0  0  0  0  0  0  0  0  0  0  0
   -0.8390    0.0364   -0.4083 C   0  0  0  0  0  0  0  0  0  0  0  0
   -1.0228   -0.8061   -1.2753 O   0  0  0  0  0  0  0  0  0  0  0  0
   -1.8306    0.8650   -0.0140 N   0  0  0  0  0  0  0  0  0  0  0  0
   -1.5638    1.8446    0.9331 N   0  0  0  0  0  0  0  0  0  0  0  0
   -3.1467    0.7978   -0.6343 C   0  0  0  0  0  0  0  0  0  0  0  0
   -4.0917   -0.2385   -0.0240 C   0  0  1  0  0  0  0  0  0  0  0  0
   -4.2454   -0.0731    1.4832 C   0  0  0  0  0  0  0  0  0  0  0  0
   -5.4439   -0.1460   -0.7239 C   0  0  0  0  0  0  0  0  0  0  0  0
    4.7068    1.1315    1.0301 H   0  0  0  0  0  0  0  0  0  0  0  0
    5.4153   -0.1971    0.1057 H   0  0  0  0  0  0  0  0  0  0  0  0
    4.4935    2.4795   -1.0827 H   0  0  0  0  0  0  0  0  0  0  0  0
    6.1609    2.0046   -0.7713 H   0  0  0  0  0  0  0  0  0  0  0  0
    5.2262    1.1509   -1.9962 H   0  0  0  0  0  0  0  0  0  0  0  0
    1.4578   -1.2417   -1.0169 H   0  0  0  0  0  0  0  0  0  0  0  0
    0.9553   -1.9784    1.6523 H   0  0  0  0  0  0  0  0  0  0  0  0
    0.4154    0.4591    1.3024 H   0  0  0  0  0  0  0  0  0  0  0  0
    0.9773    1.1154   -0.2073 H   0  0  0  0  0  0  0  0  0  0  0  0
   -1.7200    2.7585    0.5240 H   0  0  0  0  0  0  0  0  0  0  0  0
   -2.2014    1.7446    1.7134 H   0  0  0  0  0  0  0  0  0  0  0  0
   -3.5866    1.7948   -0.5474 H   0  0  0  0  0  0  0  0  0  0  0  0
   -3.0278    0.5975   -1.7005 H   0  0  0  0  0  0  0  0  0  0  0  0
   -3.6740   -1.2309   -0.2209 H   0  0  0  0  0  0  0  0  0  0  0  0
   -4.6187    0.9220    1.7383 H   0  0  0  0  0  0  0  0  0  0  0  0
   -4.9576   -0.7990    1.8785 H   0  0  0  0  0  0  0  0  0  0  0  0
   -3.3045   -0.2324    2.0132 H   0  0  0  0  0  0  0  0  0  0  0  0
   -5.3500   -0.2937   -1.8012 H   0  0  0  0  0  0  0  0  0  0  0  0
   -6.1330   -0.9020   -0.3453 H   0  0  0  0  0  0  0  0  0  0  0  0
   -5.9039    0.8314   -0.5596 H   0  0  0  0  0  0  0  0  0  0  0  0
  1  2  2  0
  2  3  1  0
  2  6  1  0
  3  4  1  0
  4  5  1  0
  6  7  1  0
  6  8  1  0
  8  9  1  0
  9 10  2  0
  9 11  1  0
 11 12  1  0
 11 13  1  0
 13 14  1  0
 14 15  1  0
 14 16  1  0
  4 17  1  0
  4 18  1  0
  5 19  1  0
  5 20  1  0
  5 21  1  0
  6 22  1  6
  7 23  1  0
  8 24  1  0
  8 25  1  0
 12 26  1  0
 12 27  1  0
 13 28  1  0
 13 29  1  0
 14 30  1  1
 15 31  1  0
 15 32  1  0
 15 33  1  0
 16 34  1  0
 16 35  1  0
 16 36  1  0
M  END
