
     RDKit          3D

 45 48  0  0  0  0  0  0  0  0999 V2000
    5.6082    2.8519    0.3032 C   0  0  0  0  0  0  0  0  0  0  0  0
   -4.9058   -0.3163   -2.4285 C   0  0  0  0  0  0  0  0  0  0  0  0
   -6.6223    0.3913    0.7811 C   0  0  0  0  0  0  0  0  0  0  0  0
   -3.9601    0.4315    1.6092 C   0  0  0  0  0  0  0  0  0  0  0  0
    3.5582    2.2394   -0.8381 C   0  0  0  0  0  0  0  0  0  0  0  0
    5.7619    1.5904    0.8347 C   0  0  0  0  0  0  0  0  0  0  0  0
   -4.2524    0.1779    0.2489 C   0  0  0  0  0  0  0  0  0  0  0  0
    2.8967   -0.2361   -0.4288 C   0  0  0  0  0  0  0  0  0  0  0  0
   -3.2264   -0.0594   -0.7164 C   0  0  0  0  0  0  0  0  0  0  0  0
   -0.8834   -0.2462   -1.1142 C   0  0  0  0  0  0  0  0  0  0  0  0
   -6.3138    0.6334    2.0922 C   0  0  0  0  0  0  0  0  0  0  0  0
   -4.9687    0.6537    2.5092 C   0  0  0  0  0  0  0  0  0  0  0  0
    4.5165    3.1773   -0.5276 C   0  0  0  0  0  0  0  0  0  0  0  0
   -5.9127   -0.0947   -1.5342 C   0  0  0  0  0  0  0  0  0  0  0  0
   -3.5528   -0.3017   -2.0286 C   0  0  0  0  0  0  0  0  0  0  0  0
   -5.6061    0.1574   -0.1746 C   0  0  0  0  0  0  0  0  0  0  0  0
    3.6857    0.9449   -0.3117 C   0  0  0  0  0  0  0  0  0  0  0  0
    4.7867    0.6397    0.5181 C   0  0  0  0  0  0  0  0  0  0  0  0
    3.5367   -1.1932    0.3274 C   0  0  0  0  0  0  0  0  0  0  0  0
    1.6218   -0.3475   -1.1963 C   0  0  0  0  0  0  0  0  0  0  0  0
    0.3940   -0.1308   -0.3101 C   0  0  0  0  0  0  0  0  0  0  0  0
    4.6739   -0.6582    0.8891 N   0  0  0  0  0  0  0  0  0  0  0  0
    4.0164   -3.2389    1.3003 O   0  0  0  0  0  0  0  0  0  0  0  0
    2.1288   -3.0775    0.1092 O   0  0  0  0  0  0  0  0  0  0  0  0
   -1.9738   -0.0229   -0.2357 O   0  0  0  0  0  0  0  0  0  0  0  0
    6.3430    3.6139    0.5289 H   0  0  0  0  0  0  0  0  0  0  0  0
   -7.6559    0.3743    0.4569 H   0  0  0  0  0  0  0  0  0  0  0  0
   -2.9326    0.4526    1.9453 H   0  0  0  0  0  0  0  0  0  0  0  0
    2.7208    2.4962   -1.4757 H   0  0  0  0  0  0  0  0  0  0  0  0
    6.6026    1.3466    1.4715 H   0  0  0  0  0  0  0  0  0  0  0  0
   -0.8940    0.4891   -1.9276 H   0  0  0  0  0  0  0  0  0  0  0  0
   -0.9589   -1.2410   -1.5687 H   0  0  0  0  0  0  0  0  0  0  0  0
   -7.1023    0.8098    2.8122 H   0  0  0  0  0  0  0  0  0  0  0  0
   -4.7319    0.8458    3.5475 H   0  0  0  0  0  0  0  0  0  0  0  0
    4.4368    4.1812   -0.9232 H   0  0  0  0  0  0  0  0  0  0  0  0
   -6.9483   -0.1106   -1.8507 H   0  0  0  0  0  0  0  0  0  0  0  0
   -2.7905   -0.4826   -2.7738 H   0  0  0  0  0  0  0  0  0  0  0  0
    1.6259    0.3984   -1.9962 H   0  0  0  0  0  0  0  0  0  0  0  0
    1.5543   -1.3211   -1.6835 H   0  0  0  0  0  0  0  0  0  0  0  0
    0.4465    0.8566    0.1560 H   0  0  0  0  0  0  0  0  0  0  0  0
    0.3895   -0.8699    0.4942 H   0  0  0  0  0  0  0  0  0  0  0  0
    5.3181   -1.1509    1.4858 H   0  0  0  0  0  0  0  0  0  0  0  0
    3.7224   -4.1521    1.4344 H   0  0  0  0  0  0  0  0  0  0  0  0
    3.1385   -2.5797    0.5506 C   0  0  0  0  0  0  0  0  0  0  0  0
   -5.1353   -0.5089   -3.4685 H   0  0  0  0  0  0  0  0  0  0  0  0
 14  2  2  0
 14 16  1  0
  3 16  2  0
  3 11  1  0
  2 15  1  0
 16  7  1  0
 11 12  2  0
 15  9  2  0
  7  9  1  0
  7  4  2  0
 12  4  1  0
  9 25  1  0
 25 10  1  0
 13  1  2  0
 13  5  1  0
  1  6  1  0
 10 21  1  0
  5 17  2  0
  6 18  2  0
 17 18  1  0
 17  8  1  0
 21 20  1  0
 18 22  1  0
  8 20  1  0
  8 19  2  0
 22 19  1  0
 19 44  1  0
 44 24  2  0
 44 23  1  0
  1 26  1  0
  2 45  1  0
  3 27  1  0
  4 28  1  0
  5 29  1  0
  6 30  1  0
 10 31  1  0
 10 32  1  0
 11 33  1  0
 12 34  1  0
 13 35  1  0
 14 36  1  0
 15 37  1  0
 20 38  1  0
 20 39  1  0
 21 40  1  0
 21 41  1  0
 22 42  1  0
 23 43  1  0
M  END
