
     RDKit          3D

 19 20  0  0  0  0  0  0  0  0999 V2000
    1.9315   -1.8351    0.0009 C   0  0  0  0  0  0  0  0  0  0  0  0
    2.8830   -0.7967    0.0164 C   0  0  0  0  0  0  0  0  0  0  0  0
    2.4687    0.5065    0.0331 C   0  0  0  0  0  0  0  0  0  0  0  0
    1.0924    0.8324    0.0258 C   0  0  0  0  0  0  0  0  0  0  0  0
    0.6643    2.1802    0.0672 C   0  0  0  0  0  0  0  0  0  0  0  0
   -0.6669    2.4845    0.0608 C   0  0  0  0  0  0  0  0  0  0  0  0
   -1.6287    1.4570   -0.0094 C   0  0  0  0  0  0  0  0  0  0  0  0
   -1.2498    0.1390   -0.0456 C   0  0  0  0  0  0  0  0  0  0  0  0
    0.1307   -0.2145   -0.0091 C   0  0  0  0  0  0  0  0  0  0  0  0
    0.5917   -1.5511   -0.0103 C   0  0  0  0  0  0  0  0  0  0  0  0
   -2.5369   -1.0813   -0.0304 S   0  0  0  0  0  0  0  0  0  0  0  0
    2.2618   -2.8657    0.0026 H   0  0  0  0  0  0  0  0  0  0  0  0
    3.9392   -1.0320    0.0218 H   0  0  0  0  0  0  0  0  0  0  0  0
    3.1929    1.3116    0.0540 H   0  0  0  0  0  0  0  0  0  0  0  0
    1.4086    2.9658    0.1047 H   0  0  0  0  0  0  0  0  0  0  0  0
   -0.9948    3.5151    0.0943 H   0  0  0  0  0  0  0  0  0  0  0  0
   -2.6792    1.7155   -0.0431 H   0  0  0  0  0  0  0  0  0  0  0  0
   -0.1224   -2.3631   -0.0076 H   0  0  0  0  0  0  0  0  0  0  0  0
   -2.1329   -1.8207   -1.0720 H   0  0  0  0  0  0  0  0  0  0  0  0
  6  7  2  0
  6  5  1  0
  7  8  1  0
  5  4  2  0
  8 11  1  0
  8  9  2  0
  4  9  1  0
  4  3  1  0
  9 10  1  0
  3  2  2  0
 10  1  2  0
  2  1  1  0
  1 12  1  0
  2 13  1  0
  3 14  1  0
  5 15  1  0
  6 16  1  0
  7 17  1  0
 10 18  1  0
 11 19  1  0
M  END
