
     RDKit          3D

 17 18  0  0  0  0  0  0  0  0999 V2000
   -1.2806    0.9899   -0.0472 C   0  0  0  0  0  0  0  0  0  0  0  0
    1.2892    1.3243   -0.0077 C   0  0  0  0  0  0  0  0  0  0  0  0
    1.8186   -0.9225    0.0166 C   0  0  0  0  0  0  0  0  0  0  0  0
    0.3452   -0.7983   -0.0172 C   0  0  0  0  0  0  0  0  0  0  0  0
   -0.6370   -1.7669   -0.0342 C   0  0  0  0  0  0  0  0  0  0  0  0
   -1.9596   -1.3442   -0.0725 C   0  0  0  0  0  0  0  0  0  0  0  0
   -2.2832    0.0147   -0.0747 C   0  0  0  0  0  0  0  0  0  0  0  0
    0.0223    0.5482   -0.0292 C   0  0  0  0  0  0  0  0  0  0  0  0
    2.2967    0.3761    0.0167 N   0  0  0  0  0  0  0  0  0  0  0  0
    1.4394    2.5189   -0.0082 O   0  0  0  0  0  0  0  0  0  0  0  0
   -3.5910    0.3586   -0.0533 O   0  0  0  0  0  0  0  0  0  0  0  0
    2.4846   -1.9292    0.0581 O   0  0  0  0  0  0  0  0  0  0  0  0
   -1.5265    2.0448   -0.0402 H   0  0  0  0  0  0  0  0  0  0  0  0
   -0.3933   -2.8211   -0.0298 H   0  0  0  0  0  0  0  0  0  0  0  0
   -2.7615   -2.0705   -0.0959 H   0  0  0  0  0  0  0  0  0  0  0  0
    3.2799    0.6103    0.0355 H   0  0  0  0  0  0  0  0  0  0  0  0
   -3.7526    1.1156   -0.6285 H   0  0  0  0  0  0  0  0  0  0  0  0
 10  2  2  0
  9  2  1  0
  9  3  1  0
  2  8  1  0
 12  3  2  0
  3  4  1  0
  8  4  1  0
  8  1  2  0
  4  5  2  0
  1  7  1  0
  5  6  1  0
  7  6  2  0
  7 11  1  0
  1 13  1  0
  5 14  1  0
  6 15  1  0
  9 16  1  0
 11 17  1  0
M  END
