
     RDKit          3D

 41 44  0  0  0  0  0  0  0  0999 V2000
   -0.7080   -1.7319    0.1862 N   0  0  0  0  0  0  0  0  0  0  0  0
    0.0648   -2.6475   -0.6245 C   0  0  0  0  0  0  0  0  0  0  0  0
    1.5733   -2.4713   -0.4588 C   0  0  0  0  0  0  0  0  0  0  0  0
   -1.7379    1.4069    1.1689 C   0  0  0  0  0  0  0  0  0  0  0  0
   -0.4625   -0.3236   -0.1165 C   0  0  1  0  0  0  0  0  0  0  0  0
   -1.1909    0.1653   -1.3899 C   0  0  0  0  0  0  0  0  0  0  0  0
   -2.4920    0.9025   -1.1285 C   0  0  2  0  0  0  0  0  0  0  0  0
   -2.2440    2.0151   -0.1044 C   0  0  0  0  0  0  0  0  0  0  0  0
   -0.9556    0.3365    1.1478 C   0  0  0  0  0  0  0  0  0  0  0  0
   -0.5448   -0.5494    2.2788 C   0  0  0  0  0  0  0  0  0  0  0  0
   -0.5800   -1.9451    1.6345 C   0  0  0  0  0  0  0  0  0  0  0  0
    1.0246   -0.0487   -0.2704 C   0  0  0  0  0  0  0  0  0  0  0  0
    1.9235   -1.0193   -0.3974 C   0  0  0  0  0  0  0  0  0  0  0  0
    3.3680   -0.6524   -0.5124 C   0  0  0  0  0  0  0  0  0  0  0  0
    2.8605    1.5507    0.2954 C   0  0  0  0  0  0  0  0  0  0  0  0
    1.5029    1.3743   -0.3263 C   0  0  0  0  0  0  0  0  0  0  0  0
    3.2132    2.5535    0.8632 O   0  0  0  0  0  0  0  0  0  0  0  0
    3.7110    0.5364    0.2061 O   0  0  0  0  0  0  0  0  0  0  0  0
   -3.4449   -0.0429   -0.7015 O   0  0  0  0  0  0  0  0  0  0  0  0
   -4.7226    0.4807   -0.4543 C   0  0  0  0  0  0  0  0  0  0  0  0
   -0.2283   -3.6716   -0.3849 H   0  0  0  0  0  0  0  0  0  0  0  0
   -0.2019   -2.4914   -1.6738 H   0  0  0  0  0  0  0  0  0  0  0  0
   -1.4321   -2.5254    1.9989 H   0  0  0  0  0  0  0  0  0  0  0  0
    0.3204   -2.5089    1.8976 H   0  0  0  0  0  0  0  0  0  0  0  0
    1.9439   -2.9774    0.4393 H   0  0  0  0  0  0  0  0  0  0  0  0
    2.0951   -2.9455   -1.2966 H   0  0  0  0  0  0  0  0  0  0  0  0
   -2.0936    1.7990    2.1161 H   0  0  0  0  0  0  0  0  0  0  0  0
   -3.1494    2.5959    0.0811 H   0  0  0  0  0  0  0  0  0  0  0  0
   -1.5294    2.7231   -0.5390 H   0  0  0  0  0  0  0  0  0  0  0  0
   -0.5470    0.8535   -1.9430 H   0  0  0  0  0  0  0  0  0  0  0  0
   -1.3619   -0.6808   -2.0603 H   0  0  0  0  0  0  0  0  0  0  0  0
   -2.8289    1.3634   -2.0704 H   0  0  0  0  0  0  0  0  0  0  0  0
    0.4668   -0.3145    2.6204 H   0  0  0  0  0  0  0  0  0  0  0  0
   -1.2076   -0.4622    3.1395 H   0  0  0  0  0  0  0  0  0  0  0  0
    1.5775    1.7112   -1.3690 H   0  0  0  0  0  0  0  0  0  0  0  0
    0.8153    2.0603    0.1693 H   0  0  0  0  0  0  0  0  0  0  0  0
    4.0008   -1.4365   -0.0949 H   0  0  0  0  0  0  0  0  0  0  0  0
    3.6576   -0.5261   -1.5613 H   0  0  0  0  0  0  0  0  0  0  0  0
   -5.0829    1.1052   -1.2816 H   0  0  0  0  0  0  0  0  0  0  0  0
   -5.4085   -0.3585   -0.3394 H   0  0  0  0  0  0  0  0  0  0  0  0
   -4.7674    1.0784    0.4630 H   0  0  0  0  0  0  0  0  0  0  0  0
  1  2  1  0
  1  5  1  0
  1 11  1  0
  2  3  1  0
  3 13  1  0
  4  8  1  0
  4  9  2  0
  5  6  1  6
  5  9  1  0
  5 12  1  0
  6  7  1  0
  7  8  1  0
  7 19  1  0
  9 10  1  0
 10 11  1  0
 12 13  2  0
 12 16  1  0
 13 14  1  0
 14 18  1  0
 15 16  1  0
 15 17  2  0
 15 18  1  0
 20 19  1  0
  2 21  1  0
  2 22  1  0
 11 23  1  0
 11 24  1  0
  3 25  1  0
  3 26  1  0
  4 27  1  0
  8 28  1  0
  8 29  1  0
  6 30  1  0
  6 31  1  0
  7 32  1  6
 10 33  1  0
 10 34  1  0
 16 35  1  0
 16 36  1  0
 14 37  1  0
 14 38  1  0
 20 39  1  0
 20 40  1  0
 20 41  1  0
M  END
