
     RDKit          3D

 62 66  0  0  0  0  0  0  0  0999 V2000
    4.1048    0.1614    0.4890 N   0  0  0  0  0  0  0  0  0  0  0  0
    1.3205    3.9616   -0.1238 O   0  0  0  0  0  0  0  0  0  0  0  0
    4.9896   -0.5455    1.2804 C   0  0  0  0  0  0  0  0  0  0  0  0
   -0.9749    0.2771    0.5749 N   0  0  0  0  0  0  0  0  0  0  0  0
    5.0772   -0.4006    2.4815 O   0  0  0  0  0  0  0  0  0  0  0  0
    5.7795   -1.4326    0.5973 N   0  0  0  0  0  0  0  0  0  0  0  0
    5.7812   -1.7109   -0.7608 C   0  0  0  0  0  0  0  0  0  0  0  0
    6.5480   -2.5343   -1.2229 O   0  0  0  0  0  0  0  0  0  0  0  0
    4.8137   -0.9407   -1.5046 C   0  0  0  0  0  0  0  0  0  0  0  0
    4.0340   -0.0625   -0.8568 C   0  0  0  0  0  0  0  0  0  0  0  0
    3.1794    1.1052    1.1012 C   0  0  1  0  0  0  0  0  0  0  0  0
   -2.2753   -0.1236    0.0520 C   0  0  1  0  0  0  0  0  0  0  0  0
   -3.2561    1.0569   -0.0992 C   0  0  0  0  0  0  0  0  0  0  0  0
   -3.1644    2.1525    0.7560 C   0  0  0  0  0  0  0  0  0  0  0  0
    3.2310    2.5184    0.5030 C   0  0  0  0  0  0  0  0  0  0  0  0
   -4.0716    3.2013    0.6863 C   0  0  0  0  0  0  0  0  0  0  0  0
   -5.1025    3.1749   -0.2415 C   0  0  0  0  0  0  0  0  0  0  0  0
   -5.2152    2.0858   -1.0935 C   0  0  0  0  0  0  0  0  0  0  0  0
   -4.3018    1.0427   -1.0225 C   0  0  0  0  0  0  0  0  0  0  0  0
   -2.0184   -0.8318   -1.2863 C   0  0  0  0  0  0  0  0  0  0  0  0
   -1.9000   -0.1077   -2.4727 C   0  0  0  0  0  0  0  0  0  0  0  0
   -1.5854   -0.7346   -3.6702 C   0  0  0  0  0  0  0  0  0  0  0  0
   -1.3779   -2.1063   -3.7073 C   0  0  0  0  0  0  0  0  0  0  0  0
   -1.4833   -2.8381   -2.5337 C   0  0  0  0  0  0  0  0  0  0  0  0
   -1.7976   -2.2057   -1.3376 C   0  0  0  0  0  0  0  0  0  0  0  0
    1.8798    2.6805   -0.1966 C   0  0  1  0  0  0  0  0  0  0  0  0
   -2.8958   -1.1110    1.0552 C   0  0  0  0  0  0  0  0  0  0  0  0
   -2.1429   -1.6733    2.0828 C   0  0  0  0  0  0  0  0  0  0  0  0
   -2.7075   -2.5851    2.9686 C   0  0  0  0  0  0  0  0  0  0  0  0
   -4.0330   -2.9650    2.8354 C   0  0  0  0  0  0  0  0  0  0  0  0
   -4.7897   -2.4236    1.8035 C   0  0  0  0  0  0  0  0  0  0  0  0
   -4.2273   -1.5074    0.9289 C   0  0  0  0  0  0  0  0  0  0  0  0
    1.0072    1.6928    0.5733 C   0  0  2  0  0  0  0  0  0  0  0  0
    1.8748    0.6191    0.8914 O   0  0  0  0  0  0  0  0  0  0  0  0
   -0.1800    1.1925   -0.2160 C   0  0  0  0  0  0  0  0  0  0  0  0
    1.7844    4.5348   -0.7414 H   0  0  0  0  0  0  0  0  0  0  0  0
   -1.0773    0.6351    1.5172 H   0  0  0  0  0  0  0  0  0  0  0  0
    4.7218   -1.0793   -2.5705 H   0  0  0  0  0  0  0  0  0  0  0  0
    3.3007    0.5210   -1.3946 H   0  0  0  0  0  0  0  0  0  0  0  0
    3.4197    1.1252    2.1629 H   0  0  0  0  0  0  0  0  0  0  0  0
   -2.3823    2.2085    1.5027 H   0  0  0  0  0  0  0  0  0  0  0  0
    3.3055    3.2480    1.3106 H   0  0  0  0  0  0  0  0  0  0  0  0
    4.0845    2.6662   -0.1586 H   0  0  0  0  0  0  0  0  0  0  0  0
   -3.9683    4.0404    1.3623 H   0  0  0  0  0  0  0  0  0  0  0  0
   -5.8090    3.9925   -0.2998 H   0  0  0  0  0  0  0  0  0  0  0  0
   -6.0152    2.0438   -1.8213 H   0  0  0  0  0  0  0  0  0  0  0  0
   -4.4192    0.2087   -1.7025 H   0  0  0  0  0  0  0  0  0  0  0  0
   -2.0575    0.9632   -2.4758 H   0  0  0  0  0  0  0  0  0  0  0  0
   -1.5016   -0.1448   -4.5741 H   0  0  0  0  0  0  0  0  0  0  0  0
   -1.1361   -2.5985   -4.6404 H   0  0  0  0  0  0  0  0  0  0  0  0
   -1.3232   -3.9085   -2.5437 H   0  0  0  0  0  0  0  0  0  0  0  0
   -1.8729   -2.8050   -0.4402 H   0  0  0  0  0  0  0  0  0  0  0  0
    1.9562    2.3496   -1.2424 H   0  0  0  0  0  0  0  0  0  0  0  0
   -1.0986   -1.4172    2.1924 H   0  0  0  0  0  0  0  0  0  0  0  0
   -2.0990   -3.0026    3.7607 H   0  0  0  0  0  0  0  0  0  0  0  0
   -4.4735   -3.6754    3.5230 H   0  0  0  0  0  0  0  0  0  0  0  0
   -5.8252   -2.7129    1.6782 H   0  0  0  0  0  0  0  0  0  0  0  0
   -4.8456   -1.1034    0.1391 H   0  0  0  0  0  0  0  0  0  0  0  0
    0.6622    2.1860    1.4966 H   0  0  0  0  0  0  0  0  0  0  0  0
    0.1824    0.6833   -1.1126 H   0  0  0  0  0  0  0  0  0  0  0  0
   -0.7327    2.0792   -0.5602 H   0  0  0  0  0  0  0  0  0  0  0  0
    6.4396   -1.9462    1.1687 H   0  0  0  0  0  0  0  0  0  0  0  0
  3  1  1  0
 10  1  1  0
  1 11  1  0
 26  2  1  0
  2 36  1  0
  6  3  1  0
  3  5  2  0
 12  4  1  1
  4 35  1  0
  4 37  1  0
  7  6  1  0
  8  7  2  0
  7  9  1  0
  9 10  2  0
  9 38  1  0
 10 39  1  0
 34 11  1  0
 11 15  1  0
 11 40  1  1
 27 12  1  0
 13 12  1  0
 20 12  1  0
 19 13  1  0
 13 14  2  0
 16 14  1  0
 14 41  1  0
 26 15  1  0
 15 42  1  0
 15 43  1  0
 17 16  2  0
 16 44  1  0
 18 17  1  0
 17 45  1  0
 18 19  2  0
 18 46  1  0
 19 47  1  0
 21 20  2  0
 20 25  1  0
 22 21  1  0
 21 48  1  0
 22 23  2  0
 22 49  1  0
 23 24  1  0
 23 50  1  0
 24 25  2  0
 24 51  1  0
 25 52  1  0
 33 26  1  0
 26 53  1  6
 32 27  1  0
 27 28  2  0
 29 28  1  0
 28 54  1  0
 30 29  2  0
 29 55  1  0
 31 30  1  0
 30 56  1  0
 31 32  2  0
 31 57  1  0
 32 58  1  0
 35 33  1  0
 33 34  1  0
 33 59  1  1
 35 60  1  0
 35 61  1  0
  6 62  1  0
M  END
