
     RDKit          3D

 30 31  0  0  0  0  0  0  0  0999 V2000
   -0.2271   -0.3766    0.3264 C   0  0  0  0  0  0  0  0  0  0  0  0
   -1.2808   -1.2859    0.1853 C   0  0  0  0  0  0  0  0  0  0  0  0
   -2.5415   -0.8130   -0.1529 C   0  0  0  0  0  0  0  0  0  0  0  0
   -2.7786    0.5425   -0.3687 C   0  0  0  0  0  0  0  0  0  0  0  0
   -1.7155    1.4274   -0.2382 C   0  0  0  0  0  0  0  0  0  0  0  0
   -0.4507    0.9732    0.1158 C   0  0  0  0  0  0  0  0  0  0  0  0
    0.9667   -0.9016    0.7326 O   0  0  0  0  0  0  0  0  0  0  0  0
    2.1322   -0.2654    0.4039 C   0  0  0  0  0  0  0  0  0  0  0  0
    3.0136    0.0420    1.4294 C   0  0  0  0  0  0  0  0  0  0  0  0
    4.2375    0.6262    1.1276 C   0  0  0  0  0  0  0  0  0  0  0  0
    4.5732    0.9106   -0.1880 C   0  0  0  0  0  0  0  0  0  0  0  0
    3.6805    0.6000   -1.2066 C   0  0  0  0  0  0  0  0  0  0  0  0
    2.4585    0.0097   -0.9196 C   0  0  0  0  0  0  0  0  0  0  0  0
   -4.1645    1.0377   -0.6810 C   0  0  0  0  0  0  0  0  0  0  0  0
   -4.8602    1.6112    0.5517 C   0  0  0  0  0  0  0  0  0  0  0  0
   -1.0089   -2.5877    0.3989 O   0  0  0  0  0  0  0  0  0  0  0  0
    0.3605    1.6818    0.2232 H   0  0  0  0  0  0  0  0  0  0  0  0
   -3.3598   -1.5197   -0.2497 H   0  0  0  0  0  0  0  0  0  0  0  0
   -1.7982   -3.1199    0.2505 H   0  0  0  0  0  0  0  0  0  0  0  0
   -1.8684    2.4868   -0.4022 H   0  0  0  0  0  0  0  0  0  0  0  0
   -4.1148    1.8044   -1.4576 H   0  0  0  0  0  0  0  0  0  0  0  0
   -4.7637    0.2220   -1.0912 H   0  0  0  0  0  0  0  0  0  0  0  0
    2.7433   -0.1743    2.4557 H   0  0  0  0  0  0  0  0  0  0  0  0
    1.7684   -0.2348   -1.7180 H   0  0  0  0  0  0  0  0  0  0  0  0
    4.9236    0.8667    1.9294 H   0  0  0  0  0  0  0  0  0  0  0  0
    5.5226    1.3736   -0.4218 H   0  0  0  0  0  0  0  0  0  0  0  0
    3.9416    0.8069   -2.2362 H   0  0  0  0  0  0  0  0  0  0  0  0
   -5.8640    1.9599    0.3071 H   0  0  0  0  0  0  0  0  0  0  0  0
   -4.9471    0.8610    1.3388 H   0  0  0  0  0  0  0  0  0  0  0  0
   -4.3048    2.4578    0.9573 H   0  0  0  0  0  0  0  0  0  0  0  0
  1  2  2  0
  1  6  1  0
  1  7  1  0
  2  3  1  0
  2 16  1  0
  3  4  2  0
  4  5  1  0
  4 14  1  0
  5  6  2  0
  7  8  1  0
  8  9  2  0
  8 13  1  0
  9 10  1  0
 10 11  2  0
 11 12  1  0
 12 13  2  0
 14 15  1  0
  6 17  1  0
  3 18  1  0
 16 19  1  0
  5 20  1  0
 14 21  1  0
 14 22  1  0
  9 23  1  0
 13 24  1  0
 10 25  1  0
 11 26  1  0
 12 27  1  0
 15 28  1  0
 15 29  1  0
 15 30  1  0
M  END
