
     RDKit          3D

 52 54  0  0  0  0  0  0  0  0999 V2000
    0.3408    1.0767    0.1587 C   0  0  0  0  0  0  0  0  0  0  0  0
   -0.8901    0.5863    0.5838 C   0  0  0  0  0  0  0  0  0  0  0  0
   -0.9370   -0.1218    1.7809 C   0  0  0  0  0  0  0  0  0  0  0  0
    0.2174   -0.3451    2.5131 C   0  0  0  0  0  0  0  0  0  0  0  0
    1.4594    0.1354    2.1084 C   0  0  0  0  0  0  0  0  0  0  0  0
    1.4867    0.8613    0.9105 C   0  0  0  0  0  0  0  0  0  0  0  0
   -2.0998    0.8246   -0.2069 C   0  0  0  0  0  0  0  0  0  0  0  0
    3.0060    1.5409    0.2703 S   0  0  1  0  0  0  0  0  0  0  0  0
    2.6777    2.2155   -0.9757 O   0  0  0  0  0  0  0  0  0  0  0  0
    3.6672    2.2916    1.3259 O   0  0  0  0  0  0  0  0  0  0  0  0
    2.6643   -0.1611    2.9510 C   0  0  0  0  0  0  0  0  0  0  0  0
    4.0046    0.2982   -0.1017 N   0  0  0  0  0  0  0  0  0  0  0  0
    3.6239   -0.7280   -1.0645 C   0  0  1  0  0  0  0  0  0  0  0  0
    4.8579   -1.3220   -1.7504 C   0  0  0  0  0  0  0  0  0  0  0  0
    4.4041   -2.6965   -2.2755 C   0  0  0  0  0  0  0  0  0  0  0  0
    3.0211   -2.9600   -1.6402 C   0  0  0  0  0  0  0  0  0  0  0  0
    2.9092   -1.9552   -0.4976 C   0  0  0  0  0  0  0  0  0  0  0  0
   -3.0612   -0.0572   -0.5851 C   0  0  0  0  0  0  0  0  0  0  0  0
   -4.0059    0.5828   -1.2702 O   0  0  0  0  0  0  0  0  0  0  0  0
   -3.6985    1.9093   -1.3560 N   0  0  0  0  0  0  0  0  0  0  0  0
   -2.5654    2.0661   -0.7381 C   0  0  0  0  0  0  0  0  0  0  0  0
   -1.9316    3.4067   -0.6310 C   0  0  0  0  0  0  0  0  0  0  0  0
   -3.2068   -1.5356   -0.4448 C   0  0  0  0  0  0  0  0  0  0  0  0
   -4.5233   -1.9372   -0.0185 N   0  0  0  0  0  0  0  0  0  0  0  0
   -4.9913   -1.6639    1.2120 C   0  0  0  0  0  0  0  0  0  0  0  0
   -4.3230   -1.0606    2.0407 O   0  0  0  0  0  0  0  0  0  0  0  0
   -6.3819   -2.1588    1.5108 C   0  0  0  0  0  0  0  0  0  0  0  0
    0.4040    1.6174   -0.7752 H   0  0  0  0  0  0  0  0  0  0  0  0
   -1.8853   -0.4916    2.1496 H   0  0  0  0  0  0  0  0  0  0  0  0
    0.1531   -0.9042    3.4382 H   0  0  0  0  0  0  0  0  0  0  0  0
    3.3865   -0.7844    2.4209 H   0  0  0  0  0  0  0  0  0  0  0  0
    3.1792    0.7429    3.2698 H   0  0  0  0  0  0  0  0  0  0  0  0
    2.3685   -0.7118    3.8414 H   0  0  0  0  0  0  0  0  0  0  0  0
    4.5596   -0.0209    0.6845 H   0  0  0  0  0  0  0  0  0  0  0  0
    2.9860   -0.2544   -1.8154 H   0  0  0  0  0  0  0  0  0  0  0  0
    5.2475   -0.6673   -2.5298 H   0  0  0  0  0  0  0  0  0  0  0  0
    5.6502   -1.4417   -1.0067 H   0  0  0  0  0  0  0  0  0  0  0  0
    4.3427   -2.7116   -3.3636 H   0  0  0  0  0  0  0  0  0  0  0  0
    5.1200   -3.4682   -1.9924 H   0  0  0  0  0  0  0  0  0  0  0  0
    2.2300   -2.7711   -2.3690 H   0  0  0  0  0  0  0  0  0  0  0  0
    2.9019   -3.9900   -1.3047 H   0  0  0  0  0  0  0  0  0  0  0  0
    3.4513   -2.3125    0.3841 H   0  0  0  0  0  0  0  0  0  0  0  0
    1.8790   -1.7595   -0.1993 H   0  0  0  0  0  0  0  0  0  0  0  0
   -1.0771    3.4923   -1.3026 H   0  0  0  0  0  0  0  0  0  0  0  0
   -2.6410    4.1893   -0.8930 H   0  0  0  0  0  0  0  0  0  0  0  0
   -1.5742    3.5870    0.3822 H   0  0  0  0  0  0  0  0  0  0  0  0
   -3.0191   -2.0054   -1.4114 H   0  0  0  0  0  0  0  0  0  0  0  0
   -2.4411   -1.9081    0.2360 H   0  0  0  0  0  0  0  0  0  0  0  0
   -5.1060   -2.4241   -0.6780 H   0  0  0  0  0  0  0  0  0  0  0  0
   -6.8883   -2.5863    0.6479 H   0  0  0  0  0  0  0  0  0  0  0  0
   -6.3307   -2.9182    2.2912 H   0  0  0  0  0  0  0  0  0  0  0  0
   -6.9836   -1.3367    1.8965 H   0  0  0  0  0  0  0  0  0  0  0  0
 26 25  2  0
 27 25  1  0
 25 24  1  0
 24 23  1  0
 23 18  1  0
 19 18  1  0
 19 20  1  0
 18  7  2  0
 20 21  2  0
  7 21  1  0
  7  2  1  0
 21 22  1  0
  2  3  1  0
  2  1  2  0
  3  4  2  0
 17 16  1  0
 17 13  1  0
  1  6  1  0
 16 15  1  0
  4  5  1  0
 13 14  1  0
 13 12  1  0
 14 15  1  0
  6  5  2  0
  6  8  1  0
  5 11  1  0
  8 12  1  6
 10  8  2  0
  8  9  2  0
  1 28  1  0
  3 29  1  0
  4 30  1  0
 11 31  1  0
 11 32  1  0
 11 33  1  0
 12 34  1  0
 13 35  1  6
 14 36  1  0
 14 37  1  0
 15 38  1  0
 15 39  1  0
 16 40  1  0
 16 41  1  0
 17 42  1  0
 17 43  1  0
 22 44  1  0
 22 45  1  0
 22 46  1  0
 23 47  1  0
 23 48  1  0
 24 49  1  0
 27 50  1  0
 27 51  1  0
 27 52  1  0
M  END
