
     RDKit          3D

 38 40  0  0  0  0  0  0  0  0999 V2000
   -3.9906   -2.0392   -0.9184 C   0  0  0  0  0  0  0  0  0  0  0  0
   -2.1064    0.9806    2.0927 C   0  0  0  0  0  0  0  0  0  0  0  0
   -0.0769    2.2730    1.9215 C   0  0  0  0  0  0  0  0  0  0  0  0
    2.5040   -0.5508   -1.8464 C   0  0  0  0  0  0  0  0  0  0  0  0
    1.2821   -2.3309   -0.1265 C   0  0  0  0  0  0  0  0  0  0  0  0
    1.6422   -1.0914    0.3585 C   0  0  0  0  0  0  0  0  0  0  0  0
    2.6019    1.4348    0.0326 S   0  0  2  0  0  0  0  0  0  0  0  0
    0.0557    1.8436    0.6082 C   0  0  0  0  0  0  0  0  0  0  0  0
   -0.8767    0.9932    0.0291 C   0  0  0  0  0  0  0  0  0  0  0  0
   -1.9718    0.5480    0.7713 C   0  0  0  0  0  0  0  0  0  0  0  0
   -2.9359   -0.3079    0.2277 N   0  0  0  0  0  0  0  0  0  0  0  0
   -4.2457   -0.4634    0.8535 C   0  0  0  0  0  0  0  0  0  0  0  0
   -5.0493   -1.2191   -0.1981 C   0  0  0  0  0  0  0  0  0  0  0  0
   -2.7275   -1.2230   -0.7709 C   0  0  0  0  0  0  0  0  0  0  0  0
   -1.7025   -1.3703   -1.4040 O   0  0  0  0  0  0  0  0  0  0  0  0
   -1.1678    1.8334    2.6526 C   0  0  0  0  0  0  0  0  0  0  0  0
    2.2494   -0.2092   -0.5259 C   0  0  0  0  0  0  0  0  0  0  0  0
    2.1437   -1.8162   -2.2868 C   0  0  0  0  0  0  0  0  0  0  0  0
    1.5255   -2.7149   -1.4308 C   0  0  0  0  0  0  0  0  0  0  0  0
    2.8766    1.3790    1.4555 O   0  0  0  0  0  0  0  0  0  0  0  0
   -3.8246   -3.0047   -0.4308 H   0  0  0  0  0  0  0  0  0  0  0  0
   -4.2080   -2.2364   -1.9672 H   0  0  0  0  0  0  0  0  0  0  0  0
   -2.9386    0.6515    2.6996 H   0  0  0  0  0  0  0  0  0  0  0  0
    0.6487    2.9463    2.3552 H   0  0  0  0  0  0  0  0  0  0  0  0
    2.9806    0.1445   -2.5230 H   0  0  0  0  0  0  0  0  0  0  0  0
    1.4471   -0.8294    1.3895 H   0  0  0  0  0  0  0  0  0  0  0  0
   -0.7345    0.6802   -0.9932 H   0  0  0  0  0  0  0  0  0  0  0  0
   -4.1657   -1.0378    1.7813 H   0  0  0  0  0  0  0  0  0  0  0  0
   -4.6729    0.5102    1.0929 H   0  0  0  0  0  0  0  0  0  0  0  0
   -5.5167   -0.5149   -0.8873 H   0  0  0  0  0  0  0  0  0  0  0  0
   -5.8359   -1.8217    0.2508 H   0  0  0  0  0  0  0  0  0  0  0  0
   -1.2965    2.1587    3.6762 H   0  0  0  0  0  0  0  0  0  0  0  0
    2.3458   -2.1041   -3.3091 H   0  0  0  0  0  0  0  0  0  0  0  0
    1.2346   -3.6993   -1.7722 H   0  0  0  0  0  0  0  0  0  0  0  0
    0.9783    2.4459   -1.1350 H   0  0  0  0  0  0  0  0  0  0  0  0
    1.1777    2.2770   -0.1534 N   0  0  0  0  0  0  0  0  0  0  0  0
    0.6823   -3.1931    0.7027 F   0  0  0  0  0  0  0  0  0  0  0  0
    3.5497    2.0460   -0.8802 O   0  0  0  0  0  0  0  0  0  0  0  0
  1 13  1  0
  1 14  1  0
  2 10  2  0
  2 16  1  0
  3  8  1  0
  3 16  2  0
  4 17  2  0
  4 18  1  0
  5  6  2  0
  5 19  1  0
  5 37  1  0
  6 17  1  0
 38  7  2  0
  7 36  1  1
  7 17  1  0
  7 20  2  0
 36  8  1  0
  8  9  2  0
  9 10  1  0
 10 11  1  0
 11 12  1  0
 11 14  1  0
 12 13  1  0
 14 15  2  0
 18 19  2  0
  1 21  1  0
  1 22  1  0
  2 23  1  0
  3 24  1  0
  4 25  1  0
  6 26  1  0
 36 35  1  0
  9 27  1  0
 12 28  1  0
 12 29  1  0
 13 30  1  0
 13 31  1  0
 16 32  1  0
 18 33  1  0
 19 34  1  0
M  END
