
     RDKit          3D

 54 53  0  0  0  0  0  0  0  0999 V2000
   -0.9089    1.0940   -9.1987 C   0  0  0  0  0  0  0  0  0  0  0  0
   -1.2683    0.2419   -8.0137 C   0  0  0  0  0  0  0  0  0  0  0  0
   -0.0976   -0.0569   -7.0924 C   0  0  0  0  0  0  0  0  0  0  0  0
   -0.5239   -0.9396   -5.9185 C   0  0  0  0  0  0  0  0  0  0  0  0
    0.6305   -1.2900   -5.0339 C   0  0  0  0  0  0  0  0  0  0  0  0
    0.7928   -0.9890   -3.7466 C   0  0  0  0  0  0  0  0  0  0  0  0
   -0.1596   -0.2439   -2.8553 C   0  0  0  0  0  0  0  0  0  0  0  0
   -0.7691   -1.1714   -1.8432 C   0  0  0  0  0  0  0  0  0  0  0  0
   -0.5937   -1.1619   -0.5231 C   0  0  0  0  0  0  0  0  0  0  0  0
    0.2313   -0.1990    0.2812 C   0  0  0  0  0  0  0  0  0  0  0  0
   -0.6479    0.6659    1.1388 C   0  0  0  0  0  0  0  0  0  0  0  0
   -0.7062    0.6927    2.4692 C   0  0  0  0  0  0  0  0  0  0  0  0
    0.1195   -0.1101    3.4338 C   0  0  0  0  0  0  0  0  0  0  0  0
    1.1498    0.7651    4.0889 C   0  0  0  0  0  0  0  0  0  0  0  0
    1.1810    1.1770    5.3550 C   0  0  0  0  0  0  0  0  0  0  0  0
    0.2219    0.8496    6.4551 C   0  0  0  0  0  0  0  0  0  0  0  0
    0.8876    0.0576    7.5822 C   0  0  0  0  0  0  0  0  0  0  0  0
   -0.0355   -0.1695    8.7720 C   0  0  0  0  0  0  0  0  0  0  0  0
    0.6198   -0.9634    9.8957 C   0  0  0  0  0  0  0  0  0  0  0  0
   -0.3030   -1.1660   11.0896 C   0  0  0  0  0  0  0  0  0  0  0  0
    0.1975    1.4983   -9.4571 O   0  0  0  0  0  0  0  0  0  0  0  0
   -1.9701    1.3574   -9.9564 O   0  0  0  0  0  0  0  0  0  0  0  0
   -1.7083   -0.6880   -8.3890 H   0  0  0  0  0  0  0  0  0  0  0  0
   -2.0713    0.7429   -7.4639 H   0  0  0  0  0  0  0  0  0  0  0  0
    0.3244    0.8751   -6.7093 H   0  0  0  0  0  0  0  0  0  0  0  0
    0.6991   -0.5544   -7.6514 H   0  0  0  0  0  0  0  0  0  0  0  0
   -0.9579   -1.8650   -6.3135 H   0  0  0  0  0  0  0  0  0  0  0  0
   -1.3196   -0.4458   -5.3566 H   0  0  0  0  0  0  0  0  0  0  0  0
    1.4271   -1.8469   -5.5209 H   0  0  0  0  0  0  0  0  0  0  0  0
    1.6999   -1.3317   -3.2569 H   0  0  0  0  0  0  0  0  0  0  0  0
   -0.9582    0.2173   -3.4407 H   0  0  0  0  0  0  0  0  0  0  0  0
    0.3742    0.5725   -2.3640 H   0  0  0  0  0  0  0  0  0  0  0  0
   -1.4070   -1.9439   -2.2636 H   0  0  0  0  0  0  0  0  0  0  0  0
   -1.1126   -1.9161    0.0618 H   0  0  0  0  0  0  0  0  0  0  0  0
    0.8274    0.4399   -0.3740 H   0  0  0  0  0  0  0  0  0  0  0  0
    0.9406   -0.7589    0.8950 H   0  0  0  0  0  0  0  0  0  0  0  0
   -1.3120    1.3270    0.5889 H   0  0  0  0  0  0  0  0  0  0  0  0
   -1.3980    1.3904    2.9327 H   0  0  0  0  0  0  0  0  0  0  0  0
    0.6238   -0.9331    2.9221 H   0  0  0  0  0  0  0  0  0  0  0  0
   -0.5370   -0.5660    4.1782 H   0  0  0  0  0  0  0  0  0  0  0  0
    1.9374    1.1110    3.4251 H   0  0  0  0  0  0  0  0  0  0  0  0
    2.0089    1.8184    5.6480 H   0  0  0  0  0  0  0  0  0  0  0  0
   -0.6440    0.2969    6.0840 H   0  0  0  0  0  0  0  0  0  0  0  0
   -0.1680    1.7858    6.8704 H   0  0  0  0  0  0  0  0  0  0  0  0
    1.7866    0.5877    7.9148 H   0  0  0  0  0  0  0  0  0  0  0  0
    1.2294   -0.9060    7.1914 H   0  0  0  0  0  0  0  0  0  0  0  0
   -0.9401   -0.6918    8.4408 H   0  0  0  0  0  0  0  0  0  0  0  0
   -0.3702    0.7992    9.1598 H   0  0  0  0  0  0  0  0  0  0  0  0
    1.5309   -0.4486   10.2158 H   0  0  0  0  0  0  0  0  0  0  0  0
    0.9414   -1.9360    9.5105 H   0  0  0  0  0  0  0  0  0  0  0  0
    0.1816   -1.7386   11.8811 H   0  0  0  0  0  0  0  0  0  0  0  0
   -0.6125   -0.2093   11.5147 H   0  0  0  0  0  0  0  0  0  0  0  0
   -1.2077   -1.7043   10.7999 H   0  0  0  0  0  0  0  0  0  0  0  0
   -1.7093    1.8992  -10.7158 H   0  0  0  0  0  0  0  0  0  0  0  0
  1  2  1  0
  1 21  2  0
  1 22  1  0
  2  3  1  0
  2 23  1  0
  2 24  1  0
  3  4  1  0
  3 25  1  0
  3 26  1  0
  4  5  1  0
  4 27  1  0
  4 28  1  0
  5  6  2  0
  5 29  1  0
  6  7  1  0
  6 30  1  0
  7  8  1  0
  7 31  1  0
  7 32  1  0
  8  9  2  0
  8 33  1  0
  9 10  1  0
  9 34  1  0
 10 11  1  0
 10 35  1  0
 10 36  1  0
 11 12  2  0
 11 37  1  0
 12 13  1  0
 12 38  1  0
 13 14  1  0
 13 39  1  0
 13 40  1  0
 14 15  2  0
 14 41  1  0
 15 16  1  0
 15 42  1  0
 16 17  1  0
 16 43  1  0
 16 44  1  0
 17 18  1  0
 17 45  1  0
 17 46  1  0
 18 19  1  0
 18 47  1  0
 18 48  1  0
 19 20  1  0
 19 49  1  0
 19 50  1  0
 20 51  1  0
 20 52  1  0
 20 53  1  0
 22 54  1  0
M  END
