
     RDKit          3D

 66 69  0  0  0  0  0  0  0  0999 V2000
   -9.7049   -0.4200   -0.0630 N   0  0  0  0  0  0  0  0  0  0  0  0
    8.2191   -2.0987   -1.3753 N   0  0  0  0  0  0  0  0  0  0  0  0
    1.2660    1.2628   -1.2555 C   0  0  0  0  0  0  0  0  0  0  0  0
   -0.0351    1.2714   -1.6470 C   0  0  0  0  0  0  0  0  0  0  0  0
   -0.8124    1.1052   -0.4456 C   0  0  0  0  0  0  0  0  0  0  0  0
   -2.2223    1.0579   -0.3523 C   0  0  0  0  0  0  0  0  0  0  0  0
   -5.4358    1.3962    1.0844 C   0  0  0  0  0  0  0  0  0  0  0  0
   -7.0317    0.4292   -0.9658 C   0  0  0  0  0  0  0  0  0  0  0  0
   -9.1250    0.8289    0.3811 C   0  0  0  0  0  0  0  0  0  0  0  0
  -11.7098   -1.6541   -0.6670 C   0  0  0  0  0  0  0  0  0  0  0  0
    0.0550    1.0019    0.6212 C   0  0  0  0  0  0  0  0  0  0  0  0
    2.6144    1.0725    0.5939 C   0  0  0  0  0  0  0  0  0  0  0  0
    7.7151    0.6217   -1.2618 C   0  0  0  0  0  0  0  0  0  0  0  0
    7.4516    0.1037    1.3692 S   0  0  1  0  0  0  0  0  0  0  0  0
    8.7238   -0.5853    1.5876 O   0  0  0  0  0  0  0  0  0  0  0  0
    6.9217   -0.3124   -0.3509 C   0  0  2  0  0  0  0  0  0  0  0  0
    7.2538   -1.8049   -0.4985 C   0  0  0  0  0  0  0  0  0  0  0  0
    6.6641   -2.6433    0.1577 O   0  0  0  0  0  0  0  0  0  0  0  0
    8.4813   -3.3997   -1.6674 O   0  0  0  0  0  0  0  0  0  0  0  0
    5.4061   -0.1613   -0.5436 C   0  0  0  0  0  0  0  0  0  0  0  0
    3.4047    1.2490   -0.4843 N   0  0  0  0  0  0  0  0  0  0  0  0
    2.9263    0.9234    1.7535 O   0  0  0  0  0  0  0  0  0  0  0  0
    1.3044    1.0998    0.0998 N   0  0  0  0  0  0  0  0  0  0  0  0
    2.6730    1.3661   -1.7385 C   0  0  0  0  0  0  0  0  0  0  0  0
   -4.8403    0.9670   -0.1042 C   0  0  0  0  0  0  0  0  0  0  0  0
   -5.6594    0.4807   -1.1301 C   0  0  0  0  0  0  0  0  0  0  0  0
   -7.6284    0.8583    0.2190 C   0  0  0  0  0  0  0  0  0  0  0  0
   -6.8115    1.3361    1.2379 C   0  0  0  0  0  0  0  0  0  0  0  0
   -9.3232   -1.5350    0.7854 C   0  0  0  0  0  0  0  0  0  0  0  0
   -9.9281   -2.8213    0.2568 C   0  0  0  0  0  0  0  0  0  0  0  0
  -11.3328   -2.7350    0.1568 O   0  0  0  0  0  0  0  0  0  0  0  0
  -11.1514   -0.3405   -0.1543 C   0  0  0  0  0  0  0  0  0  0  0  0
    8.6413   -1.4329   -2.0041 H   0  0  0  0  0  0  0  0  0  0  0  0
   -0.4214    1.3826   -2.6470 H   0  0  0  0  0  0  0  0  0  0  0  0
   -4.8186    1.7713    1.8903 H   0  0  0  0  0  0  0  0  0  0  0  0
   -7.6496    0.0386   -1.7646 H   0  0  0  0  0  0  0  0  0  0  0  0
   -9.5601    1.6335   -0.2210 H   0  0  0  0  0  0  0  0  0  0  0  0
   -9.3831    1.0567    1.4288 H   0  0  0  0  0  0  0  0  0  0  0  0
  -11.3622   -1.8173   -1.6971 H   0  0  0  0  0  0  0  0  0  0  0  0
  -12.8001   -1.6179   -0.6818 H   0  0  0  0  0  0  0  0  0  0  0  0
   -0.1319    0.8711    1.6735 H   0  0  0  0  0  0  0  0  0  0  0  0
    8.7927    0.5189   -1.1352 H   0  0  0  0  0  0  0  0  0  0  0  0
    7.4636    0.4182   -2.3035 H   0  0  0  0  0  0  0  0  0  0  0  0
    7.4702    1.6638   -1.0737 H   0  0  0  0  0  0  0  0  0  0  0  0
    5.2763   -0.0765    2.3364 H   0  0  0  0  0  0  0  0  0  0  0  0
    6.1647   -1.6292    2.3790 H   0  0  0  0  0  0  0  0  0  0  0  0
    6.6082   -0.3041    3.4903 H   0  0  0  0  0  0  0  0  0  0  0  0
    9.2161   -3.6637   -1.0971 H   0  0  0  0  0  0  0  0  0  0  0  0
    5.1857   -0.5238   -1.5521 H   0  0  0  0  0  0  0  0  0  0  0  0
    4.8805   -0.8308    0.1378 H   0  0  0  0  0  0  0  0  0  0  0  0
    5.1213    1.7016    0.5582 H   0  0  0  0  0  0  0  0  0  0  0  0
    5.2251    1.9144   -1.1728 H   0  0  0  0  0  0  0  0  0  0  0  0
    2.9378    0.5657   -2.4335 H   0  0  0  0  0  0  0  0  0  0  0  0
    2.8863    2.3212   -2.2236 H   0  0  0  0  0  0  0  0  0  0  0  0
   -5.2130    0.1385   -2.0546 H   0  0  0  0  0  0  0  0  0  0  0  0
   -7.2549    1.6664    2.1695 H   0  0  0  0  0  0  0  0  0  0  0  0
   -8.2358   -1.6386    0.7915 H   0  0  0  0  0  0  0  0  0  0  0  0
   -9.6394   -1.3743    1.8312 H   0  0  0  0  0  0  0  0  0  0  0  0
   -9.4879   -3.0510   -0.7239 H   0  0  0  0  0  0  0  0  0  0  0  0
   -9.6984   -3.6478    0.9312 H   0  0  0  0  0  0  0  0  0  0  0  0
  -11.6112   -0.0983    0.8195 H   0  0  0  0  0  0  0  0  0  0  0  0
  -11.4290    0.4566   -0.8486 H   0  0  0  0  0  0  0  0  0  0  0  0
   -3.4262    1.0169   -0.2563 C   0  0  0  0  0  0  0  0  0  0  0  0
    4.8431    1.2542   -0.3948 C   0  0  0  0  0  0  0  0  0  0  0  0
    6.2409   -0.5530    2.4951 C   0  0  0  0  0  0  0  0  0  0  0  0
    7.4349    1.5616    1.5070 O   0  0  0  0  0  0  0  0  0  0  0  0
 13 16  1  0
 15 14  2  0
 66 14  2  0
 14 16  1  0
 14 65  1  1
 16 17  1  6
 16 20  1  0
  2 19  1  0
  2 17  1  0
 22 12  2  0
 17 18  2  0
 64 20  1  0
 64 21  1  0
 12 21  1  0
 12 23  1  0
 21 24  1  0
 23 11  1  0
 23  3  1  0
 11  5  2  0
 24  3  1  0
  3  4  2  0
  5  4  1  0
  5  6  1  0
  6 63  3  0
 63 25  1  0
  7 25  2  0
  7 28  1  0
 25 26  1  0
 28 27  2  0
 26  8  2  0
 27  8  1  0
 27  9  1  0
  9  1  1  0
 29  1  1  0
 29 30  1  0
  1 32  1  0
 30 31  1  0
 32 10  1  0
 31 10  1  0
  2 33  1  0
  4 34  1  0
  7 35  1  0
  8 36  1  0
  9 37  1  0
  9 38  1  0
 10 39  1  0
 10 40  1  0
 11 41  1  0
 13 42  1  0
 13 43  1  0
 13 44  1  0
 65 45  1  0
 65 46  1  0
 65 47  1  0
 19 48  1  0
 20 49  1  0
 20 50  1  0
 64 51  1  0
 64 52  1  0
 24 53  1  0
 24 54  1  0
 26 55  1  0
 28 56  1  0
 29 57  1  0
 29 58  1  0
 30 59  1  0
 30 60  1  0
 32 61  1  0
 32 62  1  0
M  END
