
     RDKit          3D

 24 25  0  0  0  0  0  0  0  0999 V2000
   -2.6777    0.2823   -0.5765 C   0  0  0  0  0  0  0  0  0  0  0  0
    0.4717    0.3296    0.1878 C   0  0  0  0  0  0  0  0  0  0  0  0
   -1.9480   -0.2309    0.6650 C   0  0  0  0  0  0  0  0  0  0  0  0
   -0.5338   -0.6371    0.3676 C   0  0  0  0  0  0  0  0  0  0  0  0
   -0.1729   -1.9658    0.2272 C   0  0  0  0  0  0  0  0  0  0  0  0
    1.1417   -2.3525   -0.0837 C   0  0  0  0  0  0  0  0  0  0  0  0
    2.1415   -1.4187   -0.2654 C   0  0  0  0  0  0  0  0  0  0  0  0
    1.7881   -0.0765   -0.1249 C   0  0  0  0  0  0  0  0  0  0  0  0
    1.7692    2.1498   -0.0134 C   0  0  0  0  0  0  0  0  0  0  0  0
    0.4888    1.7591    0.2541 C   0  0  0  0  0  0  0  0  0  0  0  0
   -4.0380    0.6772   -0.2426 N   0  0  0  0  0  0  0  0  0  0  0  0
    2.5473    1.0515   -0.2416 N   0  0  0  0  0  0  0  0  0  0  0  0
   -2.0851    1.0858   -1.0348 H   0  0  0  0  0  0  0  0  0  0  0  0
   -2.7247   -0.5225   -1.3144 H   0  0  0  0  0  0  0  0  0  0  0  0
   -1.9562    0.5517    1.4314 H   0  0  0  0  0  0  0  0  0  0  0  0
   -2.5043   -1.0768    1.0754 H   0  0  0  0  0  0  0  0  0  0  0  0
   -0.9258   -2.7342    0.3592 H   0  0  0  0  0  0  0  0  0  0  0  0
    1.3731   -3.4054   -0.1809 H   0  0  0  0  0  0  0  0  0  0  0  0
    3.1545   -1.7153   -0.5059 H   0  0  0  0  0  0  0  0  0  0  0  0
    2.1922    3.1404   -0.0630 H   0  0  0  0  0  0  0  0  0  0  0  0
   -0.3391    2.4165    0.4682 H   0  0  0  0  0  0  0  0  0  0  0  0
   -4.0126    1.5115    0.3318 H   0  0  0  0  0  0  0  0  0  0  0  0
   -4.5262    0.9466   -1.0872 H   0  0  0  0  0  0  0  0  0  0  0  0
    3.5312    1.0766   -0.4500 H   0  0  0  0  0  0  0  0  0  0  0  0
 11  1  1  0
  6  5  1  0
  6  7  2  0
  5  4  2  0
  7  8  1  0
  1  3  1  0
  4  3  1  0
  4  2  1  0
  8  2  2  0
  8 12  1  0
  2 10  1  0
 12  9  1  0
 10  9  2  0
  1 13  1  0
  1 14  1  0
  3 15  1  0
  3 16  1  0
  5 17  1  0
  6 18  1  0
  7 19  1  0
  9 20  1  0
 10 21  1  0
 11 22  1  0
 11 23  1  0
 12 24  1  0
M  END
