
     RDKit          3D

 77 76  0  0  0  0  0  0  0  0999 V2000
   -0.0136    7.5650   -0.9035 C   0  0  0  0  0  0  0  0  0  0  0  0
   -0.0091    6.1990   -1.5758 C   0  0  0  0  0  0  0  0  0  0  0  0
   -0.0098    5.0533   -0.5718 C   0  0  0  0  0  0  0  0  0  0  0  0
   -0.0058    3.6795   -1.2298 C   0  0  0  0  0  0  0  0  0  0  0  0
   -0.0055    2.5514   -0.2023 C   0  0  0  0  0  0  0  0  0  0  0  0
   -0.0033    1.2081   -0.9060 C   0  0  0  0  0  0  0  0  0  0  0  0
   -0.0028   -0.0015   -0.0046 N   0  0  1  0  0  0  0  0  0  0  0  0
   -0.0029   -1.2113   -0.9055 C   0  0  0  0  0  0  0  0  0  0  0  0
   -0.0020   -2.5546   -0.2017 C   0  0  0  0  0  0  0  0  0  0  0  0
   -0.0012   -3.6818   -1.2303 C   0  0  0  0  0  0  0  0  0  0  0  0
    0.0000   -5.0565   -0.5744 C   0  0  0  0  0  0  0  0  0  0  0  0
   -0.0004   -6.2004   -1.5805 C   0  0  0  0  0  0  0  0  0  0  0  0
    0.0001   -7.5679   -0.9111 C   0  0  0  0  0  0  0  0  0  0  0  0
    1.2067   -0.0014    0.8970 C   0  0  0  0  0  0  0  0  0  0  0  0
    2.5500   -0.0016    0.1937 C   0  0  0  0  0  0  0  0  0  0  0  0
    3.6777   -0.0042    1.2217 C   0  0  0  0  0  0  0  0  0  0  0  0
    5.0518   -0.0092    0.5645 C   0  0  0  0  0  0  0  0  0  0  0  0
    6.1968   -0.0073    1.5693 C   0  0  0  0  0  0  0  0  0  0  0  0
    7.5634   -0.0051    0.8980 C   0  0  0  0  0  0  0  0  0  0  0  0
   -1.2120   -0.0020    0.8970 C   0  0  0  0  0  0  0  0  0  0  0  0
   -2.5560   -0.0025    0.1947 C   0  0  0  0  0  0  0  0  0  0  0  0
   -3.6828   -0.0016    1.2238 C   0  0  0  0  0  0  0  0  0  0  0  0
   -5.0577   -0.0051    0.5682 C   0  0  0  0  0  0  0  0  0  0  0  0
   -6.2013   -0.0043    1.5745 C   0  0  0  0  0  0  0  0  0  0  0  0
   -7.5690   -0.0095    0.9054 C   0  0  0  0  0  0  0  0  0  0  0  0
   -0.0126    8.3737   -1.6349 H   0  0  0  0  0  0  0  0  0  0  0  0
   -0.8961    7.6901   -0.2728 H   0  0  0  0  0  0  0  0  0  0  0  0
    0.8643    7.6931   -0.2669 H   0  0  0  0  0  0  0  0  0  0  0  0
   -0.8818    6.1078   -2.2295 H   0  0  0  0  0  0  0  0  0  0  0  0
    0.8672    6.1108   -2.2251 H   0  0  0  0  0  0  0  0  0  0  0  0
    0.8633    5.1446    0.0834 H   0  0  0  0  0  0  0  0  0  0  0  0
   -0.8868    5.1415    0.0786 H   0  0  0  0  0  0  0  0  0  0  0  0
   -0.8811    3.5819   -1.8801 H   0  0  0  0  0  0  0  0  0  0  0  0
    0.8718    3.5854   -1.8775 H   0  0  0  0  0  0  0  0  0  0  0  0
    0.8705    2.6584    0.4416 H   0  0  0  0  0  0  0  0  0  0  0  0
   -0.8830    2.6564    0.4398 H   0  0  0  0  0  0  0  0  0  0  0  0
   -0.8763    1.1152   -1.5508 H   0  0  0  0  0  0  0  0  0  0  0  0
    0.8712    1.1176   -1.5491 H   0  0  0  0  0  0  0  0  0  0  0  0
   -0.8774   -1.1200   -1.5484 H   0  0  0  0  0  0  0  0  0  0  0  0
    0.8703   -1.1197   -1.5503 H   0  0  0  0  0  0  0  0  0  0  0  0
    1.1146    0.8725    1.5406 H   0  0  0  0  0  0  0  0  0  0  0  0
    1.1144   -0.8752    1.5408 H   0  0  0  0  0  0  0  0  0  0  0  0
   -1.1195   -0.8763    1.5401 H   0  0  0  0  0  0  0  0  0  0  0  0
   -1.1198    0.8714    1.5416 H   0  0  0  0  0  0  0  0  0  0  0  0
    0.8750   -2.6598    0.4410 H   0  0  0  0  0  0  0  0  0  0  0  0
   -0.8790   -2.6615    0.4408 H   0  0  0  0  0  0  0  0  0  0  0  0
   -0.8778   -3.5858   -1.8790 H   0  0  0  0  0  0  0  0  0  0  0  0
    0.8751   -3.5844   -1.8793 H   0  0  0  0  0  0  0  0  0  0  0  0
    0.8757   -5.1472    0.0775 H   0  0  0  0  0  0  0  0  0  0  0  0
   -0.8745   -5.1480    0.0791 H   0  0  0  0  0  0  0  0  0  0  0  0
   -0.8753   -6.1096   -2.2314 H   0  0  0  0  0  0  0  0  0  0  0  0
    0.8736   -6.1093   -2.2325 H   0  0  0  0  0  0  0  0  0  0  0  0
    0.0006   -8.3749   -1.6444 H   0  0  0  0  0  0  0  0  0  0  0  0
    0.8803   -7.6953   -0.2778 H   0  0  0  0  0  0  0  0  0  0  0  0
   -0.8802   -7.6962   -0.2779 H   0  0  0  0  0  0  0  0  0  0  0  0
    2.6555   -0.8776   -0.4503 H   0  0  0  0  0  0  0  0  0  0  0  0
    2.6570    0.8763   -0.4476 H   0  0  0  0  0  0  0  0  0  0  0  0
    3.5841    0.8728    1.8705 H   0  0  0  0  0  0  0  0  0  0  0  0
    3.5788   -0.8800    1.8710 H   0  0  0  0  0  0  0  0  0  0  0  0
    5.1405   -0.8875   -0.0840 H   0  0  0  0  0  0  0  0  0  0  0  0
    5.1438    0.8626   -0.0923 H   0  0  0  0  0  0  0  0  0  0  0  0
    6.1054    0.8668    2.2212 H   0  0  0  0  0  0  0  0  0  0  0  0
    6.1080   -0.8821    2.2206 H   0  0  0  0  0  0  0  0  0  0  0  0
    8.3714   -0.0044    1.6301 H   0  0  0  0  0  0  0  0  0  0  0  0
    7.6914   -0.8850    0.2642 H   0  0  0  0  0  0  0  0  0  0  0  0
    7.6890    0.8755    0.2648 H   0  0  0  0  0  0  0  0  0  0  0  0
   -2.6632    0.8735   -0.4492 H   0  0  0  0  0  0  0  0  0  0  0  0
   -2.6625   -0.8805   -0.4464 H   0  0  0  0  0  0  0  0  0  0  0  0
   -3.5847   -0.8765    1.8745 H   0  0  0  0  0  0  0  0  0  0  0  0
   -3.5872    0.8765    1.8707 H   0  0  0  0  0  0  0  0  0  0  0  0
   -5.1503    0.8681   -0.0867 H   0  0  0  0  0  0  0  0  0  0  0  0
   -5.1476   -0.8821   -0.0821 H   0  0  0  0  0  0  0  0  0  0  0  0
   -6.1086   -0.8766    2.2286 H   0  0  0  0  0  0  0  0  0  0  0  0
   -6.1120    0.8723    2.2233 H   0  0  0  0  0  0  0  0  0  0  0  0
   -7.6982    0.8674    0.2677 H   0  0  0  0  0  0  0  0  0  0  0  0
   -7.6958   -0.8932    0.2768 H   0  0  0  0  0  0  0  0  0  0  0  0
   -8.3757   -0.0066    1.6389 H   0  0  0  0  0  0  0  0  0  0  0  0
  1  2  1  0
  2  3  1  0
  3  4  1  0
  4  5  1  0
  5  6  1  0
  7  6  1  6
  7  8  1  0
  7 14  1  0
  7 20  1  0
  8  9  1  0
  9 10  1  0
 10 11  1  0
 11 12  1  0
 12 13  1  0
 14 15  1  0
 15 16  1  0
 16 17  1  0
 17 18  1  0
 18 19  1  0
 20 21  1  0
 21 22  1  0
 22 23  1  0
 23 24  1  0
 24 25  1  0
  1 26  1  0
  1 27  1  0
  1 28  1  0
  2 29  1  0
  2 30  1  0
  3 31  1  0
  3 32  1  0
  4 33  1  0
  4 34  1  0
  5 35  1  0
  5 36  1  0
  6 37  1  0
  6 38  1  0
  8 39  1  0
  8 40  1  0
 14 41  1  0
 14 42  1  0
 20 43  1  0
 20 44  1  0
  9 45  1  0
  9 46  1  0
 10 47  1  0
 10 48  1  0
 11 49  1  0
 11 50  1  0
 12 51  1  0
 12 52  1  0
 13 53  1  0
 13 54  1  0
 13 55  1  0
 15 56  1  0
 15 57  1  0
 16 58  1  0
 16 59  1  0
 17 60  1  0
 17 61  1  0
 18 62  1  0
 18 63  1  0
 19 64  1  0
 19 65  1  0
 19 66  1  0
 21 67  1  0
 21 68  1  0
 22 69  1  0
 22 70  1  0
 23 71  1  0
 23 72  1  0
 24 73  1  0
 24 74  1  0
 25 75  1  0
 25 76  1  0
 25 77  1  0
M  CHG  1   7   1
M  END
