
     RDKit          3D

 63 67  0  0  0  0  0  0  0  0999 V2000
   -5.3478    1.8969    0.0838 C   0  0  0  0  0  0  0  0  0  0  0  0
   -7.7388    0.8949    0.4591 C   0  0  0  0  0  0  0  0  0  0  0  0
   -6.3182    0.9065    0.2609 C   0  0  0  0  0  0  0  0  0  0  0  0
   -5.9096   -0.4397    0.2677 C   0  0  0  0  0  0  0  0  0  0  0  0
   -1.5998   -0.9767    0.7511 C   0  0  0  0  0  0  0  0  0  0  0  0
   -1.4421    0.1896   -1.3458 C   0  0  0  0  0  0  0  0  0  0  0  0
    3.8338    1.0089   -0.2365 C   0  0  0  0  0  0  0  0  0  0  0  0
    3.5786    1.7457    0.9125 C   0  0  0  0  0  0  0  0  0  0  0  0
    3.3344    1.5242   -1.4262 C   0  0  0  0  0  0  0  0  0  0  0  0
    3.9678   -1.5312    0.1525 C   0  0  0  0  0  0  0  0  0  0  0  0
   -4.0313    1.5176   -0.0836 C   0  0  0  0  0  0  0  0  0  0  0  0
   -3.6330    0.1659   -0.0830 C   0  0  0  0  0  0  0  0  0  0  0  0
   -4.5849   -0.8271    0.0983 C   0  0  0  0  0  0  0  0  0  0  0  0
   -7.0233   -1.2229    0.4613 N   0  0  0  0  0  0  0  0  0  0  0  0
   -8.1064   -0.4284    0.5740 C   0  0  0  0  0  0  0  0  0  0  0  0
   -8.6133    2.0474    0.5323 C   0  0  0  0  0  0  0  0  0  0  0  0
   -8.2407    3.1972    0.4321 O   0  0  0  0  0  0  0  0  0  0  0  0
   -9.8915    1.7181    0.7252 O   0  0  0  0  0  0  0  0  0  0  0  0
   -0.2662   -1.3575    0.6805 C   0  0  0  0  0  0  0  0  0  0  0  0
   -2.2059   -0.2019   -0.2321 C   0  0  0  0  0  0  0  0  0  0  0  0
   -0.1098   -0.1907   -1.4153 C   0  0  0  0  0  0  0  0  0  0  0  0
    0.4884   -0.9513   -0.4123 C   0  0  0  0  0  0  0  0  0  0  0  0
    1.7905   -1.2537   -0.5978 O   0  0  0  0  0  0  0  0  0  0  0  0
    2.8673    2.9347    0.8354 C   0  0  0  0  0  0  0  0  0  0  0  0
    2.4081    3.4030   -0.3126 N   0  0  0  0  0  0  0  0  0  0  0  0
    2.6300    2.7190   -1.4230 C   0  0  0  0  0  0  0  0  0  0  0  0
    4.5420   -0.2782   -0.1802 C   0  0  0  0  0  0  0  0  0  0  0  0
    5.0122   -2.3903    0.0487 C   0  0  0  0  0  0  0  0  0  0  0  0
    6.1032   -1.7003   -0.3030 O   0  0  0  0  0  0  0  0  0  0  0  0
    5.8065   -0.3823   -0.4514 N   0  0  0  0  0  0  0  0  0  0  0  0
    4.1356    1.1834    2.4400 Cl  0  0  0  0  0  0  0  0  0  0  0  0
    5.1459   -3.8614    0.2388 C   0  0  1  0  0  0  0  0  0  0  0  0
    5.4987   -4.5560   -1.0783 C   0  0  0  0  0  0  0  0  0  0  0  0
    6.1536   -4.1931    1.3410 C   0  0  0  0  0  0  0  0  0  0  0  0
    2.5427   -1.7572    0.4928 C   0  0  0  0  0  0  0  0  0  0  0  0
    3.5572    0.6766   -2.9031 Cl  0  0  0  0  0  0  0  0  0  0  0  0
   -5.6162    2.9439    0.0864 H   0  0  0  0  0  0  0  0  0  0  0  0
   -6.3332   -3.0137    1.2903 H   0  0  0  0  0  0  0  0  0  0  0  0
   -8.0173   -3.0171    0.7586 H   0  0  0  0  0  0  0  0  0  0  0  0
   -6.7163   -3.0903   -0.4387 H   0  0  0  0  0  0  0  0  0  0  0  0
   -2.1809   -1.2889    1.6104 H   0  0  0  0  0  0  0  0  0  0  0  0
   -3.2768    2.2855   -0.1965 H   0  0  0  0  0  0  0  0  0  0  0  0
   -4.2984   -1.8719    0.0950 H   0  0  0  0  0  0  0  0  0  0  0  0
   -9.0829   -0.8579    0.7348 H   0  0  0  0  0  0  0  0  0  0  0  0
    0.1511   -1.9640    1.4731 H   0  0  0  0  0  0  0  0  0  0  0  0
    0.4843    0.0993   -2.2744 H   0  0  0  0  0  0  0  0  0  0  0  0
    2.6713    3.5137    1.7298 H   0  0  0  0  0  0  0  0  0  0  0  0
    2.2374    3.1235   -2.3481 H   0  0  0  0  0  0  0  0  0  0  0  0
    4.1631   -4.2178    0.5585 H   0  0  0  0  0  0  0  0  0  0  0  0
    6.4819   -4.2540   -1.4410 H   0  0  0  0  0  0  0  0  0  0  0  0
    5.5158   -5.6359   -0.9315 H   0  0  0  0  0  0  0  0  0  0  0  0
    4.7656   -4.3358   -1.8543 H   0  0  0  0  0  0  0  0  0  0  0  0
    5.8870   -3.7139    2.2830 H   0  0  0  0  0  0  0  0  0  0  0  0
    6.1734   -5.2699    1.5077 H   0  0  0  0  0  0  0  0  0  0  0  0
    7.1620   -3.8790    1.0702 H   0  0  0  0  0  0  0  0  0  0  0  0
    2.3386   -2.8184    0.6659 H   0  0  0  0  0  0  0  0  0  0  0  0
    2.2853   -1.2239    1.4149 H   0  0  0  0  0  0  0  0  0  0  0  0
   -2.0839    2.0521   -2.2282 H   0  0  0  0  0  0  0  0  0  0  0  0
   -1.4135    0.9005   -3.3703 H   0  0  0  0  0  0  0  0  0  0  0  0
   -3.0379    0.6653   -2.7207 H   0  0  0  0  0  0  0  0  0  0  0  0
  -10.4314    2.5203    0.7720 H   0  0  0  0  0  0  0  0  0  0  0  0
   -7.0180   -2.6661    0.5183 C   0  0  0  0  0  0  0  0  0  0  0  0
   -2.0273    0.9907   -2.4747 C   0  0  0  0  0  0  0  0  0  0  0  0
  1  3  2  0
  1 11  1  0
  2  3  1  0
  2 15  2  0
  2 16  1  0
  3  4  1  0
  4 13  2  0
  4 14  1  0
 62 14  1  0
  5 19  2  0
  5 20  1  0
  6 20  2  0
  6 21  1  0
  6 63  1  0
  7  8  2  0
  7  9  1  0
  7 27  1  0
  8 24  1  0
  8 31  1  0
  9 26  2  0
  9 36  1  0
 10 27  1  0
 10 28  2  0
 10 35  1  0
 11 12  2  0
 12 13  1  0
 12 20  1  0
 14 15  1  0
 16 17  2  0
 16 18  1  0
 19 22  1  0
 21 22  2  0
 22 23  1  0
 23 35  1  0
 24 25  2  0
 25 26  1  0
 27 30  2  0
 28 29  1  0
 28 32  1  0
 29 30  1  0
 32 33  1  0
 32 34  1  0
  1 37  1  0
 62 38  1  0
 62 39  1  0
 62 40  1  0
  5 41  1  0
 11 42  1  0
 13 43  1  0
 15 44  1  0
 19 45  1  0
 21 46  1  0
 24 47  1  0
 26 48  1  0
 32 49  1  1
 33 50  1  0
 33 51  1  0
 33 52  1  0
 34 53  1  0
 34 54  1  0
 34 55  1  0
 35 56  1  0
 35 57  1  0
 63 58  1  0
 63 59  1  0
 63 60  1  0
 18 61  1  0
M  END
