
     RDKit          3D

 39 40  0  0  0  0  0  0  0  0999 V2000
    6.3323   -2.3478   -0.6076 O   0  0  0  0  0  0  0  0  0  0  0  0
    6.3638   -1.1497   -0.4729 C   0  0  0  0  0  0  0  0  0  0  0  0
    7.4776   -0.4459   -0.3425 O   0  0  0  0  0  0  0  0  0  0  0  0
    5.1685   -0.2739   -0.4316 C   0  0  0  0  0  0  0  0  0  0  0  0
    3.9472   -0.7853   -0.5412 C   0  0  0  0  0  0  0  0  0  0  0  0
    2.7509    0.0940   -0.4987 C   0  0  0  0  0  0  0  0  0  0  0  0
    2.7996    1.2983   -0.3490 O   0  0  0  0  0  0  0  0  0  0  0  0
    1.5863   -0.5832   -0.6556 N   0  0  0  0  0  0  0  0  0  0  0  0
    0.4023    0.0751   -0.5810 N   0  0  0  0  0  0  0  0  0  0  0  0
   -0.1017    0.4544    0.6215 C   0  0  0  0  0  0  0  0  0  0  0  0
    0.3383    0.0617    1.6816 O   0  0  0  0  0  0  0  0  0  0  0  0
   -1.2336    1.4204    0.5094 C   0  0  0  0  0  0  0  0  0  0  0  0
   -0.9845    2.6471   -0.1038 C   0  0  0  0  0  0  0  0  0  0  0  0
   -1.8750    3.6213   -0.1941 N   0  0  0  0  0  0  0  0  0  0  0  0
   -3.0760    3.3948    0.3274 C   0  0  0  0  0  0  0  0  0  0  0  0
   -3.4257    2.2088    0.9486 C   0  0  0  0  0  0  0  0  0  0  0  0
   -2.4944    1.1820    1.0575 C   0  0  0  0  0  0  0  0  0  0  0  0
   -2.9067   -0.1292    1.6744 C   0  0  0  0  0  0  0  0  0  0  0  0
   -3.7480   -0.9236    0.7041 C   0  0  0  0  0  0  0  0  0  0  0  0
   -3.1589   -1.5732   -0.3790 C   0  0  0  0  0  0  0  0  0  0  0  0
   -3.9338   -2.2768   -1.2893 C   0  0  0  0  0  0  0  0  0  0  0  0
   -5.3130   -2.3412   -1.1299 C   0  0  0  0  0  0  0  0  0  0  0  0
   -5.9084   -1.6989   -0.0536 C   0  0  0  0  0  0  0  0  0  0  0  0
   -5.1291   -0.9945    0.8561 C   0  0  0  0  0  0  0  0  0  0  0  0
    8.2504   -1.0299   -0.3750 H   0  0  0  0  0  0  0  0  0  0  0  0
    5.3197    0.7917   -0.3092 H   0  0  0  0  0  0  0  0  0  0  0  0
    3.8012   -1.8526   -0.6640 H   0  0  0  0  0  0  0  0  0  0  0  0
    1.5576   -1.5905   -0.7111 H   0  0  0  0  0  0  0  0  0  0  0  0
    0.0298    0.4522   -1.4408 H   0  0  0  0  0  0  0  0  0  0  0  0
   -0.0027    2.8478   -0.5224 H   0  0  0  0  0  0  0  0  0  0  0  0
   -3.8001    4.1973    0.2472 H   0  0  0  0  0  0  0  0  0  0  0  0
   -4.4259    2.0868    1.3451 H   0  0  0  0  0  0  0  0  0  0  0  0
   -2.0388   -0.7080    1.9869 H   0  0  0  0  0  0  0  0  0  0  0  0
   -3.4859    0.0758    2.5760 H   0  0  0  0  0  0  0  0  0  0  0  0
   -2.0845   -1.5321   -0.5179 H   0  0  0  0  0  0  0  0  0  0  0  0
   -5.6009   -0.4969    1.6952 H   0  0  0  0  0  0  0  0  0  0  0  0
   -3.4597   -2.7756   -2.1247 H   0  0  0  0  0  0  0  0  0  0  0  0
   -5.9176   -2.8902   -1.8401 H   0  0  0  0  0  0  0  0  0  0  0  0
   -6.9813   -1.7461    0.0823 H   0  0  0  0  0  0  0  0  0  0  0  0
  1  2  2  0
  2  3  1  0
  2  4  1  0
  4  5  2  0
  5  6  1  0
  6  7  2  0
  6  8  1  0
  8  9  1  0
  9 10  1  0
 10 11  2  0
 10 12  1  0
 12 13  2  0
 12 17  1  0
 13 14  1  0
 14 15  2  0
 15 16  1  0
 16 17  2  0
 17 18  1  0
 18 19  1  0
 19 20  2  0
 19 24  1  0
 20 21  1  0
 21 22  2  0
 22 23  1  0
 23 24  2  0
  3 25  1  0
  4 26  1  0
  5 27  1  0
  8 28  1  0
  9 29  1  0
 13 30  1  0
 15 31  1  0
 16 32  1  0
 18 33  1  0
 18 34  1  0
 20 35  1  0
 24 36  1  0
 21 37  1  0
 22 38  1  0
 23 39  1  0
M  END
