
     RDKit          3D

 71 75  0  0  0  0  0  0  0  0999 V2000
   -0.2769   -0.6587   -0.3010 C   0  0  0  0  0  0  0  0  0  0  0  0
   -2.7124   -0.7961   -0.3161 C   0  0  0  0  0  0  0  0  0  0  0  0
   -6.7168   -0.2241    1.7817 C   0  0  0  0  0  0  0  0  0  0  0  0
   -4.8413    1.3579    0.2511 C   0  0  0  0  0  0  0  0  0  0  0  0
   -8.6314    0.6578    0.4011 C   0  0  1  0  0  0  0  0  0  0  0  0
    3.4140   -3.1512   -0.2324 C   0  0  0  0  0  0  0  0  0  0  0  0
   -3.7333   -0.4567   -3.8054 C   0  0  0  0  0  0  0  0  0  0  0  0
   -2.6118   -0.6448   -1.7371 C   0  0  0  0  0  0  0  0  0  0  0  0
   -0.3342   -0.5268   -1.7057 C   0  0  0  0  0  0  0  0  0  0  0  0
    0.8744   -0.4073   -2.4190 C   0  0  0  0  0  0  0  0  0  0  0  0
    2.0774   -0.4164   -1.7664 C   0  0  0  0  0  0  0  0  0  0  0  0
    2.1402   -0.5473   -0.3649 C   0  0  0  0  0  0  0  0  0  0  0  0
    0.9722   -0.6694    0.3474 C   0  0  0  0  0  0  0  0  0  0  0  0
   -1.5291   -0.7859    0.3628 C   0  0  0  0  0  0  0  0  0  0  0  0
   -4.0369   -0.9335    0.3871 C   0  0  0  0  0  0  0  0  0  0  0  0
   -5.2805    0.0751    2.2134 C   0  0  0  0  0  0  0  0  0  0  0  0
   -7.2230    0.9067    0.8808 C   0  0  2  0  0  0  0  0  0  0  0  0
   -6.2570    1.1398   -0.2859 C   0  0  0  0  0  0  0  0  0  0  0  0
    3.4786   -0.6194    0.3729 C   0  0  1  0  0  0  0  0  0  0  0  0
    3.9294   -2.0492    0.3865 C   0  0  0  0  0  0  0  0  0  0  0  0
    5.1368   -3.8328    0.8256 C   0  0  0  0  0  0  0  0  0  0  0  0
    6.1999   -4.6957    1.4040 C   0  0  0  0  0  0  0  0  0  0  0  0
    4.5026    0.2761   -0.3342 C   0  0  0  0  0  0  0  0  0  0  0  0
    5.3806   -0.2182   -1.2855 C   0  0  0  0  0  0  0  0  0  0  0  0
    6.2682    0.6498   -1.9098 C   0  0  0  0  0  0  0  0  0  0  0  0
    5.4770    2.4122   -0.7374 C   0  0  0  0  0  0  0  0  0  0  0  0
    4.5577    1.6395   -0.0549 C   0  0  0  0  0  0  0  0  0  0  0  0
    5.6041    3.8931   -0.4998 C   0  0  1  0  0  0  0  0  0  0  0  0
   -9.4946    0.4959    1.4176 F   0  0  0  0  0  0  0  0  0  0  0  0
   -9.1046    1.6747   -0.3384 F   0  0  0  0  0  0  0  0  0  0  0  0
   -8.7343   -0.4442   -0.3608 F   0  0  0  0  0  0  0  0  0  0  0  0
    5.3924    4.5815   -1.6260 F   0  0  0  0  0  0  0  0  0  0  0  0
    4.7360    4.3403    0.4102 F   0  0  0  0  0  0  0  0  0  0  0  0
    6.8303    4.2107   -0.0729 F   0  0  0  0  0  0  0  0  0  0  0  0
   -1.5001   -0.5166   -2.3910 N   0  0  0  0  0  0  0  0  0  0  0  0
   -4.3657    0.2861    1.1079 N   0  0  0  0  0  0  0  0  0  0  0  0
    4.1698   -4.2502    0.0438 N   0  0  0  0  0  0  0  0  0  0  0  0
    5.0441   -2.5003    1.0581 N   0  0  0  0  0  0  0  0  0  0  0  0
    6.3215    1.9430   -1.6445 N   0  0  0  0  0  0  0  0  0  0  0  0
   -3.7663   -0.6350   -2.3948 O   0  0  0  0  0  0  0  0  0  0  0  0
    3.3424   -0.2335    1.7199 O   0  0  0  0  0  0  0  0  0  0  0  0
   -1.5371   -0.9548    2.0786 Cl  0  0  0  0  0  0  0  0  0  0  0  0
   -6.7507   -1.1822    1.2546 H   0  0  0  0  0  0  0  0  0  0  0  0
   -7.3433   -0.3236    2.6700 H   0  0  0  0  0  0  0  0  0  0  0  0
   -4.1455    1.4982   -0.5782 H   0  0  0  0  0  0  0  0  0  0  0  0
   -4.8199    2.2868    0.8313 H   0  0  0  0  0  0  0  0  0  0  0  0
    2.5428   -3.2036   -0.8673 H   0  0  0  0  0  0  0  0  0  0  0  0
   -4.7702   -0.4761   -4.1290 H   0  0  0  0  0  0  0  0  0  0  0  0
   -3.2843    0.4991   -4.0762 H   0  0  0  0  0  0  0  0  0  0  0  0
   -3.1816   -1.2573   -4.2984 H   0  0  0  0  0  0  0  0  0  0  0  0
    0.8317   -0.3095   -3.4958 H   0  0  0  0  0  0  0  0  0  0  0  0
    2.9837   -0.3248   -2.3498 H   0  0  0  0  0  0  0  0  0  0  0  0
    1.0035   -0.7944    1.4207 H   0  0  0  0  0  0  0  0  0  0  0  0
   -4.8062   -1.2460   -0.3254 H   0  0  0  0  0  0  0  0  0  0  0  0
   -3.9572   -1.7451    1.1139 H   0  0  0  0  0  0  0  0  0  0  0  0
   -5.2744    0.9802    2.8301 H   0  0  0  0  0  0  0  0  0  0  0  0
   -4.8996   -0.7340    2.8395 H   0  0  0  0  0  0  0  0  0  0  0  0
   -7.2646    1.8250    1.4804 H   0  0  0  0  0  0  0  0  0  0  0  0
   -6.5515    2.0165   -0.8652 H   0  0  0  0  0  0  0  0  0  0  0  0
   -6.2688    0.2864   -0.9684 H   0  0  0  0  0  0  0  0  0  0  0  0
    7.1978   -4.3885    1.0869 H   0  0  0  0  0  0  0  0  0  0  0  0
    6.1846   -4.6858    2.4949 H   0  0  0  0  0  0  0  0  0  0  0  0
    6.0435   -5.7197    1.0738 H   0  0  0  0  0  0  0  0  0  0  0  0
    5.4782   -1.5797    2.8991 H   0  0  0  0  0  0  0  0  0  0  0  0
    6.8587   -2.2743    2.0426 H   0  0  0  0  0  0  0  0  0  0  0  0
    6.1541   -0.7716    1.4772 H   0  0  0  0  0  0  0  0  0  0  0  0
    5.3884   -1.2666   -1.5523 H   0  0  0  0  0  0  0  0  0  0  0  0
    6.9622    0.2741   -2.6520 H   0  0  0  0  0  0  0  0  0  0  0  0
    3.9011    2.0946    0.6728 H   0  0  0  0  0  0  0  0  0  0  0  0
    2.8486    0.5928    1.7819 H   0  0  0  0  0  0  0  0  0  0  0  0
    5.9234   -1.7368    1.9192 C   0  0  0  0  0  0  0  0  0  0  0  0
  7 40  1  0
 28 33  1  1
 40  8  1  0
 35  8  2  0
 35  9  1  0
 10  9  2  0
 10 11  1  0
 39 25  1  0
 39 26  2  0
 25 24  2  0
 32 28  1  0
  8  2  1  0
 28 26  1  0
 28 34  1  0
  9  1  1  0
 11 12  2  0
 26 27  1  0
 24 23  1  0
  4 18  1  0
  4 36  1  0
  5 30  1  6
 27 23  2  0
 18 17  1  0
 23 19  1  0
  2 15  1  0
  2 14  2  0
 31  5  1  0
  1 14  1  0
  1 13  2  0
 12 13  1  0
 12 19  1  0
  5 17  1  0
  5 29  1  0
 15 36  1  0
 14 42  1  0
 36 16  1  0
 19 20  1  0
 19 41  1  1
 17  3  1  0
  6 20  2  0
  6 37  1  0
 20 38  1  0
 16  3  1  0
 37 21  2  0
 38 21  1  0
 38 71  1  0
 21 22  1  0
  3 43  1  0
  3 44  1  0
  4 45  1  0
  4 46  1  0
  6 47  1  0
  7 48  1  0
  7 49  1  0
  7 50  1  0
 10 51  1  0
 11 52  1  0
 13 53  1  0
 15 54  1  0
 15 55  1  0
 16 56  1  0
 16 57  1  0
 17 58  1  1
 18 59  1  0
 18 60  1  0
 22 61  1  0
 22 62  1  0
 22 63  1  0
 71 64  1  0
 71 65  1  0
 71 66  1  0
 24 67  1  0
 25 68  1  0
 27 69  1  0
 41 70  1  0
M  END
