
     RDKit          3D

 64 68  0  0  0  0  0  0  0  0999 V2000
    0.1688    1.4425    2.3219 C   0  0  2  0  0  0  0  0  0  0  0  0
    1.1609    0.5644    1.5331 C   0  0  1  0  0  0  0  0  0  0  0  0
    1.2174   -0.7370    2.0815 O   0  0  0  0  0  0  0  0  0  0  0  0
    1.4409   -0.8108    3.4192 C   0  0  0  0  0  0  0  0  0  0  0  0
    1.9012   -2.0258    3.9199 C   0  0  0  0  0  0  0  0  0  0  0  0
    2.1215   -2.1918    5.2739 C   0  0  0  0  0  0  0  0  0  0  0  0
    1.8874   -1.1327    6.1497 C   0  0  0  0  0  0  0  0  0  0  0  0
    2.1203   -1.3380    7.4671 O   0  0  0  0  0  0  0  0  0  0  0  0
    1.4284    0.0748    5.6450 C   0  0  0  0  0  0  0  0  0  0  0  0
    1.1978    0.2539    4.2812 C   0  0  0  0  0  0  0  0  0  0  0  0
    0.6828    1.5754    3.7649 C   0  0  1  0  0  0  0  0  0  0  0  0
    1.7580    2.6595    3.8646 C   0  0  0  0  0  0  0  0  0  0  0  0
   -1.2507    0.9502    2.1943 C   0  0  0  0  0  0  0  0  0  0  0  0
   -2.0408    1.4177    1.1439 C   0  0  0  0  0  0  0  0  0  0  0  0
   -3.3396    0.9815    0.9517 C   0  0  0  0  0  0  0  0  0  0  0  0
   -3.8911    0.0453    1.8226 C   0  0  0  0  0  0  0  0  0  0  0  0
   -5.1604   -0.3566    1.5989 O   0  0  0  0  0  0  0  0  0  0  0  0
   -3.1246   -0.4293    2.8815 C   0  0  0  0  0  0  0  0  0  0  0  0
   -1.8226    0.0210    3.0577 C   0  0  0  0  0  0  0  0  0  0  0  0
    0.8237    0.4564    0.0755 C   0  0  0  0  0  0  0  0  0  0  0  0
   -0.0086   -0.5318   -0.4301 C   0  0  0  0  0  0  0  0  0  0  0  0
   -0.3540   -0.5666   -1.7761 C   0  0  0  0  0  0  0  0  0  0  0  0
    0.1270    0.4114   -2.6429 C   0  0  0  0  0  0  0  0  0  0  0  0
    0.9640    1.4111   -2.1433 C   0  0  0  0  0  0  0  0  0  0  0  0
    1.3049    1.4233   -0.8043 C   0  0  0  0  0  0  0  0  0  0  0  0
   -0.1553    0.4741   -3.9577 O   0  0  0  0  0  0  0  0  0  0  0  0
   -1.0201   -0.4954   -4.5255 C   0  0  0  0  0  0  0  0  0  0  0  0
   -1.1873   -0.2147   -6.0033 C   0  0  0  0  0  0  0  0  0  0  0  0
   -0.0866   -0.6497   -6.8309 N   0  0  0  0  0  0  0  0  0  0  0  0
    1.1732    0.0561   -6.6574 C   0  0  0  0  0  0  0  0  0  0  0  0
    2.0063   -0.4213   -7.8452 C   0  0  0  0  0  0  0  0  0  0  0  0
    0.9658   -0.7223   -8.9434 C   0  0  0  0  0  0  0  0  0  0  0  0
   -0.3837   -0.5191   -8.2487 C   0  0  0  0  0  0  0  0  0  0  0  0
    0.2105    2.4354    1.8630 H   0  0  0  0  0  0  0  0  0  0  0  0
    2.1542    1.0288    1.6215 H   0  0  0  0  0  0  0  0  0  0  0  0
    2.0833   -2.8478    3.2384 H   0  0  0  0  0  0  0  0  0  0  0  0
    2.4781   -3.1406    5.6542 H   0  0  0  0  0  0  0  0  0  0  0  0
    1.9012   -0.5471    7.9713 H   0  0  0  0  0  0  0  0  0  0  0  0
    1.2335    0.9025    6.3206 H   0  0  0  0  0  0  0  0  0  0  0  0
   -0.1550    1.8842    4.3984 H   0  0  0  0  0  0  0  0  0  0  0  0
    2.1208    2.7649    4.8870 H   0  0  0  0  0  0  0  0  0  0  0  0
    2.6168    2.4280    3.2331 H   0  0  0  0  0  0  0  0  0  0  0  0
    1.3566    3.6242    3.5508 H   0  0  0  0  0  0  0  0  0  0  0  0
   -1.6280    2.1429    0.4524 H   0  0  0  0  0  0  0  0  0  0  0  0
   -3.9289    1.3658    0.1282 H   0  0  0  0  0  0  0  0  0  0  0  0
   -5.4227   -1.0133    2.2531 H   0  0  0  0  0  0  0  0  0  0  0  0
   -3.5393   -1.1521    3.5757 H   0  0  0  0  0  0  0  0  0  0  0  0
   -1.2622   -0.3692    3.8977 H   0  0  0  0  0  0  0  0  0  0  0  0
   -0.4120   -1.2939    0.2235 H   0  0  0  0  0  0  0  0  0  0  0  0
   -1.0018   -1.3596   -2.1246 H   0  0  0  0  0  0  0  0  0  0  0  0
    1.3488    2.1708   -2.8122 H   0  0  0  0  0  0  0  0  0  0  0  0
    1.9596    2.2061   -0.4375 H   0  0  0  0  0  0  0  0  0  0  0  0
   -0.6246   -1.5070   -4.3802 H   0  0  0  0  0  0  0  0  0  0  0  0
   -2.0019   -0.4476   -4.0411 H   0  0  0  0  0  0  0  0  0  0  0  0
   -2.0775   -0.7629   -6.3240 H   0  0  0  0  0  0  0  0  0  0  0  0
   -1.4194    0.8561   -6.1435 H   0  0  0  0  0  0  0  0  0  0  0  0
    1.0341    1.1499   -6.7000 H   0  0  0  0  0  0  0  0  0  0  0  0
    1.6384   -0.1763   -5.7002 H   0  0  0  0  0  0  0  0  0  0  0  0
    2.5560   -1.3256   -7.5813 H   0  0  0  0  0  0  0  0  0  0  0  0
    2.7408    0.3243   -8.1486 H   0  0  0  0  0  0  0  0  0  0  0  0
    1.0708   -1.7423   -9.3132 H   0  0  0  0  0  0  0  0  0  0  0  0
    1.0663   -0.0585   -9.8016 H   0  0  0  0  0  0  0  0  0  0  0  0
   -1.1428   -1.2426   -8.5548 H   0  0  0  0  0  0  0  0  0  0  0  0
   -0.7793    0.4842   -8.4822 H   0  0  0  0  0  0  0  0  0  0  0  0
  1  2  1  0
  1 11  1  0
  1 13  1  0
  1 34  1  6
  2  3  1  0
  2 20  1  0
  2 35  1  6
  3  4  1  0
  4  5  2  0
  4 10  1  0
  5  6  1  0
  5 36  1  0
  6  7  2  0
  6 37  1  0
  7  8  1  0
  7  9  1  0
  8 38  1  0
  9 10  2  0
  9 39  1  0
 10 11  1  0
 11 12  1  0
 11 40  1  1
 12 41  1  0
 12 42  1  0
 12 43  1  0
 13 14  2  0
 13 19  1  0
 14 15  1  0
 14 44  1  0
 15 16  2  0
 15 45  1  0
 16 17  1  0
 16 18  1  0
 17 46  1  0
 18 19  2  0
 18 47  1  0
 19 48  1  0
 20 21  2  0
 20 25  1  0
 21 22  1  0
 21 49  1  0
 22 23  2  0
 22 50  1  0
 23 24  1  0
 23 26  1  0
 24 25  2  0
 24 51  1  0
 25 52  1  0
 26 27  1  0
 27 28  1  0
 27 53  1  0
 27 54  1  0
 28 29  1  0
 28 55  1  0
 28 56  1  0
 29 30  1  0
 29 33  1  0
 30 31  1  0
 30 57  1  0
 30 58  1  0
 31 32  1  0
 31 59  1  0
 31 60  1  0
 32 33  1  0
 32 61  1  0
 32 62  1  0
 33 63  1  0
 33 64  1  0
M  END
