
     RDKit          3D

 41 40  0  0  0  0  0  0  0  0999 V2000
    8.9232    0.2872    0.0147 C   0  0  0  0  0  0  0  0  0  0  0  0
    7.6482   -0.5432   -0.0370 C   0  0  0  0  0  0  0  0  0  0  0  0
    6.3865    0.3115   -0.0123 C   0  0  0  0  0  0  0  0  0  0  0  0
    5.1013   -0.5055   -0.0548 C   0  0  0  0  0  0  0  0  0  0  0  0
    3.8429    0.3536   -0.0328 C   0  0  0  0  0  0  0  0  0  0  0  0
   -7.6593   -0.2992    0.1029 S   0  0  0  0  0  0  0  0  0  0  0  0
   -6.1216    0.6787    0.0369 C   0  0  0  0  0  0  0  0  0  0  0  0
   -4.9360   -0.2728   -0.0010 C   0  0  0  0  0  0  0  0  0  0  0  0
   -3.6984    0.4795   -0.0364 N   0  0  0  0  0  0  0  0  0  0  0  0
   -2.5207   -0.3707   -0.0251 C   0  0  0  0  0  0  0  0  0  0  0  0
   -1.2420    0.4517   -0.0428 C   0  0  0  0  0  0  0  0  0  0  0  0
    0.0114   -0.4144   -0.0522 C   0  0  0  0  0  0  0  0  0  0  0  0
    1.2990    0.3999   -0.0393 C   0  0  0  0  0  0  0  0  0  0  0  0
    2.5558   -0.4613   -0.0610 C   0  0  0  0  0  0  0  0  0  0  0  0
    8.9821    0.9705   -0.8350 H   0  0  0  0  0  0  0  0  0  0  0  0
    8.9619    0.8900    0.9243 H   0  0  0  0  0  0  0  0  0  0  0  0
    9.8157   -0.3393   -0.0038 H   0  0  0  0  0  0  0  0  0  0  0  0
    7.6481   -1.1621   -0.9399 H   0  0  0  0  0  0  0  0  0  0  0  0
    7.6289   -1.2399    0.8072 H   0  0  0  0  0  0  0  0  0  0  0  0
    6.3901    0.9352    0.8891 H   0  0  0  0  0  0  0  0  0  0  0  0
    6.4045    1.0059   -0.8603 H   0  0  0  0  0  0  0  0  0  0  0  0
    5.0977   -1.1316   -0.9544 H   0  0  0  0  0  0  0  0  0  0  0  0
    5.0830   -1.1974    0.7948 H   0  0  0  0  0  0  0  0  0  0  0  0
    3.8519    0.9866    0.8619 H   0  0  0  0  0  0  0  0  0  0  0  0
    3.8571    1.0391   -0.8877 H   0  0  0  0  0  0  0  0  0  0  0  0
   -8.5217    0.7208    0.0498 H   0  0  0  0  0  0  0  0  0  0  0  0
   -6.1336    1.3045   -0.8563 H   0  0  0  0  0  0  0  0  0  0  0  0
   -6.0545    1.3249    0.9116 H   0  0  0  0  0  0  0  0  0  0  0  0
   -4.9386   -0.8906    0.9019 H   0  0  0  0  0  0  0  0  0  0  0  0
   -5.0448   -0.9630   -0.8525 H   0  0  0  0  0  0  0  0  0  0  0  0
   -3.6828    1.0387   -0.8825 H   0  0  0  0  0  0  0  0  0  0  0  0
   -2.5461   -0.9777    0.8861 H   0  0  0  0  0  0  0  0  0  0  0  0
   -2.5090   -1.0825   -0.8668 H   0  0  0  0  0  0  0  0  0  0  0  0
   -1.2388    1.1017   -0.9252 H   0  0  0  0  0  0  0  0  0  0  0  0
   -1.2290    1.1136    0.8288 H   0  0  0  0  0  0  0  0  0  0  0  0
   -0.0018   -1.0838    0.8154 H   0  0  0  0  0  0  0  0  0  0  0  0
    0.0005   -1.0623   -0.9357 H   0  0  0  0  0  0  0  0  0  0  0  0
    1.3091    1.0771   -0.9009 H   0  0  0  0  0  0  0  0  0  0  0  0
    1.3136    1.0410    0.8493 H   0  0  0  0  0  0  0  0  0  0  0  0
    2.5461   -1.0945   -0.9554 H   0  0  0  0  0  0  0  0  0  0  0  0
    2.5411   -1.1458    0.7947 H   0  0  0  0  0  0  0  0  0  0  0  0
  7  6  1  0
  7  8  1  0
  8  9  1  0
  9 10  1  0
 10 11  1  0
  2  1  1  0
  2  3  1  0
 11 12  1  0
  3  4  1  0
  4  5  1  0
 13 12  1  0
 13 14  1  0
 14  5  1  0
  1 15  1  0
  1 16  1  0
  1 17  1  0
  2 18  1  0
  2 19  1  0
  3 20  1  0
  3 21  1  0
  4 22  1  0
  4 23  1  0
  5 24  1  0
  5 25  1  0
  6 26  1  0
  7 27  1  0
  7 28  1  0
  8 29  1  0
  8 30  1  0
  9 31  1  0
 10 32  1  0
 10 33  1  0
 11 34  1  0
 11 35  1  0
 12 36  1  0
 12 37  1  0
 13 38  1  0
 13 39  1  0
 14 40  1  0
 14 41  1  0
M  END
