
     RDKit          3D

 25 26  0  0  0  0  0  0  0  0999 V2000
    0.0111    0.3192    2.1170 N   0  0  0  0  0  0  0  0  0  0  0  0
   -1.1524   -0.3027    2.5457 C   0  0  0  0  0  0  0  0  0  0  0  0
   -2.1451   -0.4691    1.8867 O   0  0  0  0  0  0  0  0  0  0  0  0
   -0.9132   -0.7109    3.9587 C   0  0  0  0  0  0  0  0  0  0  0  0
    0.3194   -0.3557    4.2992 C   0  0  0  0  0  0  0  0  0  0  0  0
    0.9579    0.3134    3.1311 C   0  0  0  0  0  0  0  0  0  0  0  0
    2.0666    0.7723    3.0521 O   0  0  0  0  0  0  0  0  0  0  0  0
    0.2460    0.8507    0.7996 C   0  0  0  0  0  0  0  0  0  0  0  0
    0.9720   -0.0385   -0.0023 O   0  0  0  0  0  0  0  0  0  0  0  0
    0.2249   -0.8969   -0.8172 C   0  0  0  0  0  0  0  0  0  0  0  0
   -0.0232   -0.3313   -2.1185 N   0  0  0  0  0  0  0  0  0  0  0  0
    0.9185   -0.2902   -3.1365 C   0  0  0  0  0  0  0  0  0  0  0  0
    2.0342   -0.7341   -3.0718 O   0  0  0  0  0  0  0  0  0  0  0  0
    0.2643    0.3920   -4.2881 C   0  0  0  0  0  0  0  0  0  0  0  0
   -0.9721    0.7207   -3.9352 C   0  0  0  0  0  0  0  0  0  0  0  0
   -1.1992    0.2787   -2.5303 C   0  0  0  0  0  0  0  0  0  0  0  0
   -2.1929    0.4125   -1.8655 O   0  0  0  0  0  0  0  0  0  0  0  0
   -1.6602   -1.2138    4.5535 H   0  0  0  0  0  0  0  0  0  0  0  0
    0.8263   -0.4962    5.2416 H   0  0  0  0  0  0  0  0  0  0  0  0
   -0.7225    1.1081    0.3687 H   0  0  0  0  0  0  0  0  0  0  0  0
    0.8345    1.7609    0.8970 H   0  0  0  0  0  0  0  0  0  0  0  0
    0.8034   -1.8098   -0.9439 H   0  0  0  0  0  0  0  0  0  0  0  0
   -0.7408   -1.1549   -0.3798 H   0  0  0  0  0  0  0  0  0  0  0  0
    0.7647    0.5611   -5.2293 H   0  0  0  0  0  0  0  0  0  0  0  0
   -1.7294    1.2232   -4.5169 H   0  0  0  0  0  0  0  0  0  0  0  0
  1  2  1  0
  1  6  1  0
  1  8  1  0
  2  3  2  0
  2  4  1  0
  4  5  2  0
  4 18  1  0
  5  6  1  0
  5 19  1  0
  6  7  2  0
  8  9  1  0
  8 20  1  0
  8 21  1  0
  9 10  1  0
 10 11  1  0
 10 22  1  0
 10 23  1  0
 11 12  1  0
 11 16  1  0
 12 13  2  0
 12 14  1  0
 14 15  2  0
 14 24  1  0
 15 16  1  0
 15 25  1  0
 16 17  2  0
M  END
