
     RDKit          3D

 37 38  0  0  0  0  0  0  0  0999 V2000
   -5.9777   -0.5060    0.2598 P   0  0  1  0  0  0  0  0  0  0  0  0
   -6.9882    0.4655   -0.1969 O   0  0  0  0  0  0  0  0  0  0  0  0
   -5.9911   -1.7844   -0.7006 O   0  0  0  0  0  0  0  0  0  0  0  0
   -4.4664    0.0077    0.3217 O   0  0  0  0  0  0  0  0  0  0  0  0
   -3.9101    0.7054   -0.8046 C   0  0  0  0  0  0  0  0  0  0  0  0
   -2.4206    0.6916   -0.6542 C   0  0  0  0  0  0  0  0  0  0  0  0
   -1.7348    1.8448   -0.2989 C   0  0  0  0  0  0  0  0  0  0  0  0
   -1.7049   -0.4923   -0.8488 C   0  0  0  0  0  0  0  0  0  0  0  0
   -0.3564    1.8221   -0.1440 C   0  0  0  0  0  0  0  0  0  0  0  0
   -0.3336   -0.5241   -0.6976 C   0  0  0  0  0  0  0  0  0  0  0  0
    0.3513    0.6420   -0.3412 C   0  0  0  0  0  0  0  0  0  0  0  0
    1.7425    0.7325   -0.1577 N   0  0  0  0  0  0  0  0  0  0  0  0
    6.5448   -0.2813    0.1063 C   0  0  0  0  0  0  0  0  0  0  0  0
    5.8568   -1.4084   -0.3337 C   0  0  0  0  0  0  0  0  0  0  0  0
    5.8193    0.8738    0.4053 C   0  0  0  0  0  0  0  0  0  0  0  0
    4.4805   -1.3835   -0.4815 C   0  0  0  0  0  0  0  0  0  0  0  0
    4.4446    0.9051    0.2626 C   0  0  0  0  0  0  0  0  0  0  0  0
    3.7628   -0.2274   -0.1874 C   0  0  0  0  0  0  0  0  0  0  0  0
    2.3736   -0.3113   -0.3721 N   0  0  0  0  0  0  0  0  0  0  0  0
    8.4946    0.6282    1.1386 O   0  0  0  0  0  0  0  0  0  0  0  0
   -5.4053   -2.5101   -0.4462 H   0  0  0  0  0  0  0  0  0  0  0  0
   -4.2006    0.2202   -1.7403 H   0  0  0  0  0  0  0  0  0  0  0  0
   -4.2854    1.7297   -0.8236 H   0  0  0  0  0  0  0  0  0  0  0  0
   -2.2771    2.7688   -0.1400 H   0  0  0  0  0  0  0  0  0  0  0  0
   -2.2280   -1.3982   -1.1306 H   0  0  0  0  0  0  0  0  0  0  0  0
    0.1813    2.7193    0.1338 H   0  0  0  0  0  0  0  0  0  0  0  0
    0.2100   -1.4453   -0.8572 H   0  0  0  0  0  0  0  0  0  0  0  0
    6.4010   -2.3172   -0.5616 H   0  0  0  0  0  0  0  0  0  0  0  0
    6.3304    1.7600    0.7554 H   0  0  0  0  0  0  0  0  0  0  0  0
    3.9483   -2.2623   -0.8225 H   0  0  0  0  0  0  0  0  0  0  0  0
    3.8982    1.8074    0.5019 H   0  0  0  0  0  0  0  0  0  0  0  0
    8.3549   -1.3388    0.4771 H   0  0  0  0  0  0  0  0  0  0  0  0
    8.4572   -0.1292   -0.7921 H   0  0  0  0  0  0  0  0  0  0  0  0
    9.4405    0.7447    1.0140 H   0  0  0  0  0  0  0  0  0  0  0  0
   -6.0576   -1.0253    1.7636 O   0  0  0  0  0  0  0  0  0  0  0  0
   -6.9457   -1.2777    2.0499 H   0  0  0  0  0  0  0  0  0  0  0  0
    8.0437   -0.3214    0.2069 C   0  0  0  0  0  0  0  0  0  0  0  0
  2  1  2  0
  1  3  1  6
  1  4  1  0
  5  4  1  0
  5  6  1  0
  7  6  2  0
  7  9  1  0
  6  8  1  0
  9 11  2  0
  8 10  2  0
 11 10  1  0
 11 12  1  0
 19 12  2  0
 19 18  1  0
 16 18  2  0
 16 14  1  0
 18 17  1  0
 14 13  2  0
 17 15  2  0
 13 15  1  0
 13 37  1  0
 20 37  1  0
  3 21  1  0
  5 22  1  0
  5 23  1  0
  7 24  1  0
  8 25  1  0
  9 26  1  0
 10 27  1  0
 14 28  1  0
 15 29  1  0
 16 30  1  0
 17 31  1  0
 37 32  1  0
 37 33  1  0
 20 34  1  0
  1 35  1  0
 35 36  1  0
M  END
