
     RDKit          3D

 65 65  0  0  0  0  0  0  0  0999 V2000
    4.7667    0.8853    0.1595 C   0  0  0  0  0  0  0  0  0  0  0  0
    3.8201    1.1636    1.2874 C   0  0  0  0  0  0  0  0  0  0  0  0
    4.3049    0.6973    2.6293 C   0  0  0  0  0  0  0  0  0  0  0  0
    2.6375    1.7728    1.1649 C   0  0  0  0  0  0  0  0  0  0  0  0
    1.9979    2.2784   -0.0911 C   0  0  0  0  0  0  0  0  0  0  0  0
    0.7543    1.4472   -0.4988 C   0  0  2  0  0  0  0  0  0  0  0  0
    0.1347    2.0393   -1.7978 C   0  0  0  0  0  0  0  0  0  0  0  0
   -1.0883    1.2943   -2.2328 C   0  0  0  0  0  0  0  0  0  0  0  0
   -2.3519    1.7252   -2.2298 C   0  0  0  0  0  0  0  0  0  0  0  0
   -2.7922    3.0970   -1.8165 C   0  0  0  0  0  0  0  0  0  0  0  0
   -3.4716    0.8198   -2.6510 C   0  0  0  0  0  0  0  0  0  0  0  0
   -0.2810    1.5206    0.5781 C   0  0  0  0  0  0  0  0  0  0  0  0
   -0.6312    2.7707    0.8487 O   0  0  0  0  0  0  0  0  0  0  0  0
    1.2335    0.0270   -0.8326 C   0  0  0  0  0  0  0  0  0  0  0  0
    2.0991   -0.0612   -1.6906 O   0  0  0  0  0  0  0  0  0  0  0  0
    0.6284   -1.1021   -0.1689 C   0  0  0  0  0  0  0  0  0  0  0  0
    0.9858   -2.4818   -0.4216 C   0  0  0  0  0  0  0  0  0  0  0  0
    0.3957   -3.3954    0.1941 O   0  0  0  0  0  0  0  0  0  0  0  0
    2.0286   -2.9006   -1.4309 C   0  0  1  0  0  0  0  0  0  0  0  0
    2.6190   -4.2679   -1.1051 C   0  0  0  0  0  0  0  0  0  0  0  0
    1.3809   -2.9056   -2.8219 C   0  0  0  0  0  0  0  0  0  0  0  0
   -0.3806   -0.8559    0.7949 C   0  0  0  0  0  0  0  0  0  0  0  0
   -0.9655   -1.8458    1.3910 O   0  0  0  0  0  0  0  0  0  0  0  0
   -0.8217    0.4458    1.1950 C   0  0  0  0  0  0  0  0  0  0  0  0
   -1.9364    0.5520    2.2074 C   0  0  0  0  0  0  0  0  0  0  0  0
   -3.2759    0.4598    1.5326 C   0  0  0  0  0  0  0  0  0  0  0  0
   -4.2387   -0.4392    1.7447 C   0  0  0  0  0  0  0  0  0  0  0  0
   -4.1676   -1.5499    2.7487 C   0  0  0  0  0  0  0  0  0  0  0  0
   -5.5135   -0.4029    0.9523 C   0  0  0  0  0  0  0  0  0  0  0  0
    4.8973   -0.1919    0.0300 H   0  0  0  0  0  0  0  0  0  0  0  0
    4.4414    1.2922   -0.7938 H   0  0  0  0  0  0  0  0  0  0  0  0
    5.7555    1.2925    0.3851 H   0  0  0  0  0  0  0  0  0  0  0  0
    5.2408    1.1922    2.9008 H   0  0  0  0  0  0  0  0  0  0  0  0
    3.5796    0.8901    3.4193 H   0  0  0  0  0  0  0  0  0  0  0  0
    4.5152   -0.3752    2.6164 H   0  0  0  0  0  0  0  0  0  0  0  0
    2.0544    1.9116    2.0728 H   0  0  0  0  0  0  0  0  0  0  0  0
    1.6898    3.3188    0.0382 H   0  0  0  0  0  0  0  0  0  0  0  0
    2.6883    2.2644   -0.9331 H   0  0  0  0  0  0  0  0  0  0  0  0
   -0.0628    3.0997   -1.6417 H   0  0  0  0  0  0  0  0  0  0  0  0
    0.9060    1.9798   -2.5688 H   0  0  0  0  0  0  0  0  0  0  0  0
   -0.9128    0.2721   -2.5604 H   0  0  0  0  0  0  0  0  0  0  0  0
   -3.3542    3.5748   -2.6228 H   0  0  0  0  0  0  0  0  0  0  0  0
   -3.4723    3.0398   -0.9624 H   0  0  0  0  0  0  0  0  0  0  0  0
   -1.9734    3.7582   -1.5446 H   0  0  0  0  0  0  0  0  0  0  0  0
   -4.1988    0.7069   -1.8417 H   0  0  0  0  0  0  0  0  0  0  0  0
   -4.0181    1.2363   -3.5012 H   0  0  0  0  0  0  0  0  0  0  0  0
   -3.1199   -0.1739   -2.9267 H   0  0  0  0  0  0  0  0  0  0  0  0
    2.8311   -2.1658   -1.4357 H   0  0  0  0  0  0  0  0  0  0  0  0
    1.8769   -5.0636   -1.1578 H   0  0  0  0  0  0  0  0  0  0  0  0
    3.4029   -4.4983   -1.8275 H   0  0  0  0  0  0  0  0  0  0  0  0
    3.0711   -4.2905   -0.1128 H   0  0  0  0  0  0  0  0  0  0  0  0
    0.9712   -1.9334   -3.0919 H   0  0  0  0  0  0  0  0  0  0  0  0
    2.1264   -3.1705   -3.5725 H   0  0  0  0  0  0  0  0  0  0  0  0
    0.5770   -3.6420   -2.8750 H   0  0  0  0  0  0  0  0  0  0  0  0
   -0.5229   -2.7025    1.0121 H   0  0  0  0  0  0  0  0  0  0  0  0
   -1.8154   -0.2116    2.9738 H   0  0  0  0  0  0  0  0  0  0  0  0
   -1.8655    1.4964    2.7594 H   0  0  0  0  0  0  0  0  0  0  0  0
   -3.4464    1.2141    0.7673 H   0  0  0  0  0  0  0  0  0  0  0  0
   -5.0269   -1.5069    3.4216 H   0  0  0  0  0  0  0  0  0  0  0  0
   -4.2131   -2.5201    2.2478 H   0  0  0  0  0  0  0  0  0  0  0  0
   -3.2665   -1.5315    3.3560 H   0  0  0  0  0  0  0  0  0  0  0  0
   -5.6586   -1.3411    0.4106 H   0  0  0  0  0  0  0  0  0  0  0  0
   -6.3805   -0.2873    1.6079 H   0  0  0  0  0  0  0  0  0  0  0  0
   -5.5280    0.4103    0.2270 H   0  0  0  0  0  0  0  0  0  0  0  0
   -1.3094    2.8196    1.5350 H   0  0  0  0  0  0  0  0  0  0  0  0
  1  2  1  0
  1 30  1  0
  1 31  1  0
  1 32  1  0
  2  3  1  0
  2  4  2  0
  3 33  1  0
  3 34  1  0
  3 35  1  0
  4  5  1  0
  4 36  1  0
  6  5  1  1
  5 37  1  0
  5 38  1  0
  6  7  1  0
  6 12  1  0
  6 14  1  0
  7  8  1  0
  7 39  1  0
  7 40  1  0
  8  9  2  0
  8 41  1  0
  9 10  1  0
  9 11  1  0
 10 42  1  0
 10 43  1  0
 10 44  1  0
 11 45  1  0
 11 46  1  0
 11 47  1  0
 12 13  1  0
 12 24  2  0
 14 15  2  0
 14 16  1  0
 16 17  1  0
 16 22  2  0
 17 18  2  0
 17 19  1  0
 19 20  1  0
 19 21  1  0
 19 48  1  6
 20 49  1  0
 20 50  1  0
 20 51  1  0
 21 52  1  0
 21 53  1  0
 21 54  1  0
 22 23  1  0
 22 24  1  0
 23 55  1  0
 24 25  1  0
 25 26  1  0
 25 56  1  0
 25 57  1  0
 26 27  2  0
 26 58  1  0
 27 28  1  0
 27 29  1  0
 28 59  1  0
 28 60  1  0
 28 61  1  0
 29 62  1  0
 29 63  1  0
 29 64  1  0
 13 65  1  0
M  END
