
     RDKit          3D

 21 20  0  0  0  0  0  0  0  0999 V2000
   -1.1047    0.8738    1.2619 N   0  0  0  0  0  0  0  0  0  0  0  0
   -0.8376    0.3746   -0.0718 C   0  0  2  0  0  0  0  0  0  0  0  0
   -2.0063   -0.3253   -0.7569 C   0  0  0  0  0  0  0  0  0  0  0  0
    0.3752   -0.5655   -0.1396 C   0  0  0  0  0  0  0  0  0  0  0  0
    1.6909    0.1399    0.1537 C   0  0  1  0  0  0  0  0  0  0  0  0
    2.7554   -0.8849    0.4944 C   0  0  0  0  0  0  0  0  0  0  0  0
    2.1411    0.9817   -1.0224 C   0  0  0  0  0  0  0  0  0  0  0  0
   -3.1241   -0.4266   -0.2507 O   0  0  0  0  0  0  0  0  0  0  0  0
   -2.0108    1.3033    1.2869 H   0  0  0  0  0  0  0  0  0  0  0  0
   -1.0878    0.1259    1.9282 H   0  0  0  0  0  0  0  0  0  0  0  0
   -0.6147    1.2861   -0.7108 H   0  0  0  0  0  0  0  0  0  0  0  0
   -1.7832   -0.7293   -1.7692 H   0  0  0  0  0  0  0  0  0  0  0  0
    0.2350   -1.4080    0.5883 H   0  0  0  0  0  0  0  0  0  0  0  0
    0.4206   -1.0136   -1.1674 H   0  0  0  0  0  0  0  0  0  0  0  0
    1.5530    0.8167    1.0438 H   0  0  0  0  0  0  0  0  0  0  0  0
    3.7293   -0.3763    0.6931 H   0  0  0  0  0  0  0  0  0  0  0  0
    2.4658   -1.4628    1.4047 H   0  0  0  0  0  0  0  0  0  0  0  0
    2.8965   -1.6012   -0.3505 H   0  0  0  0  0  0  0  0  0  0  0  0
    3.1077    1.4876   -0.7831 H   0  0  0  0  0  0  0  0  0  0  0  0
    2.2912    0.3467   -1.9287 H   0  0  0  0  0  0  0  0  0  0  0  0
    1.3843    1.7670   -1.2599 H   0  0  0  0  0  0  0  0  0  0  0  0
  1  2  1  0
  2  3  1  0
  2  4  1  0
  8  3  2  0
  5  7  1  0
  5  4  1  0
  5  6  1  0
  1  9  1  0
  2 11  1  6
  3 12  1  0
  4 13  1  0
  4 14  1  0
  5 15  1  1
  6 16  1  0
  6 17  1  0
  6 18  1  0
  7 19  1  0
  7 20  1  0
  7 21  1  0
  1 10  1  0
M  END
