
     RDKit          3D

 53 56  0  0  0  0  0  0  0  0999 V2000
   -6.9331   -3.7770    1.0906 O   0  0  0  0  0  0  0  0  0  0  0  0
   -8.1893   -1.8690   -0.6767 O   0  0  0  0  0  0  0  0  0  0  0  0
    1.0824   -0.1438   -1.3182 O   0  0  0  0  0  0  0  0  0  0  0  0
   -6.1619   -2.9160    2.9992 O   0  0  0  0  0  0  0  0  0  0  0  0
   -6.7761   -2.9406   -2.0425 O   0  0  0  0  0  0  0  0  0  0  0  0
   10.1988   -0.0338    0.1212 C   0  0  0  0  0  0  0  0  0  0  0  0
    9.4433   -1.0812   -0.3896 C   0  0  0  0  0  0  0  0  0  0  0  0
    9.5667    1.1402    0.5096 C   0  0  0  0  0  0  0  0  0  0  0  0
   -1.8519    3.8149    0.5941 C   0  0  0  0  0  0  0  0  0  0  0  0
   -0.5420    3.3831    0.5041 C   0  0  0  0  0  0  0  0  0  0  0  0
   -2.8898    3.0517    0.0756 C   0  0  0  0  0  0  0  0  0  0  0  0
    8.0677   -0.9553   -0.5124 C   0  0  0  0  0  0  0  0  0  0  0  0
    8.1906    1.2650    0.3893 C   0  0  0  0  0  0  0  0  0  0  0  0
   -3.9110   -0.0947    0.9747 C   0  0  0  0  0  0  0  0  0  0  0  0
    3.9084   -0.0925   -1.4624 C   0  0  0  0  0  0  0  0  0  0  0  0
    3.8404    1.1881    0.5639 C   0  0  0  0  0  0  0  0  0  0  0  0
    5.2800   -0.2161   -1.3374 C   0  0  0  0  0  0  0  0  0  0  0  0
    5.2122    1.0521    0.6931 C   0  0  0  0  0  0  0  0  0  0  0  0
   -4.6199   -1.0790    1.6419 C   0  0  0  0  0  0  0  0  0  0  0  0
   -1.2673    1.3902   -0.6400 C   0  0  0  0  0  0  0  0  0  0  0  0
   -5.1985   -0.5593   -1.0127 C   0  0  0  0  0  0  0  0  0  0  0  0
   -6.3105   -2.9282    1.6842 C   0  0  0  0  0  0  0  0  0  0  0  0
    1.6949    0.7138   -0.7064 C   0  0  0  0  0  0  0  0  0  0  0  0
   -0.2347    2.1678   -0.1153 C   0  0  0  0  0  0  0  0  0  0  0  0
   -2.5695    1.8531   -0.5343 C   0  0  0  0  0  0  0  0  0  0  0  0
   -4.2018    0.1644   -0.3594 C   0  0  0  0  0  0  0  0  0  0  0  0
    3.1725    0.6243   -0.5213 C   0  0  0  0  0  0  0  0  0  0  0  0
    7.4211    0.2197   -0.1246 C   0  0  0  0  0  0  0  0  0  0  0  0
    5.9578    0.3546   -0.2578 C   0  0  0  0  0  0  0  0  0  0  0  0
   -5.6200   -1.8097    1.0086 C   0  0  0  0  0  0  0  0  0  0  0  0
   -5.9067   -1.5302   -0.3325 C   0  0  0  0  0  0  0  0  0  0  0  0
   -8.8755   -2.3188   -1.1940 H   0  0  0  0  0  0  0  0  0  0  0  0
   -6.5928   -3.6907    3.3904 H   0  0  0  0  0  0  0  0  0  0  0  0
   11.2724   -0.1319    0.2154 H   0  0  0  0  0  0  0  0  0  0  0  0
    9.9246   -2.0027   -0.6904 H   0  0  0  0  0  0  0  0  0  0  0  0
   10.1459    1.9661    0.9017 H   0  0  0  0  0  0  0  0  0  0  0  0
   -2.0688    4.7590    1.0750 H   0  0  0  0  0  0  0  0  0  0  0  0
    0.2534    3.9932    0.9150 H   0  0  0  0  0  0  0  0  0  0  0  0
   -3.9171    3.3850    0.1395 H   0  0  0  0  0  0  0  0  0  0  0  0
    7.4921   -1.7886   -0.8959 H   0  0  0  0  0  0  0  0  0  0  0  0
    7.7159    2.1939    0.6793 H   0  0  0  0  0  0  0  0  0  0  0  0
   -3.1386    0.4484    1.5012 H   0  0  0  0  0  0  0  0  0  0  0  0
    3.4090   -0.5412   -2.3105 H   0  0  0  0  0  0  0  0  0  0  0  0
    3.3021    1.7081    1.3467 H   0  0  0  0  0  0  0  0  0  0  0  0
    5.8311   -0.7483   -2.1023 H   0  0  0  0  0  0  0  0  0  0  0  0
    5.7002    1.4745    1.5618 H   0  0  0  0  0  0  0  0  0  0  0  0
   -4.3657   -1.2811    2.6729 H   0  0  0  0  0  0  0  0  0  0  0  0
   -1.0734    0.4508   -1.1319 H   0  0  0  0  0  0  0  0  0  0  0  0
   -5.4199   -0.3375   -2.0492 H   0  0  0  0  0  0  0  0  0  0  0  0
    1.7357    2.5052    0.2311 H   0  0  0  0  0  0  0  0  0  0  0  0
   -3.5725    1.0984   -1.1024 O   0  0  0  0  0  0  0  0  0  0  0  0
   -6.9895   -2.2262   -1.0981 C   0  0  0  0  0  0  0  0  0  0  0  0
    1.1142    1.8144   -0.1610 N   0  0  0  0  0  0  0  0  0  0  0  0
  1 22  2  0
 52  2  1  0
  2 32  1  0
  3 23  2  0
 22  4  1  0
  4 33  1  0
  5 52  2  0
  8  6  2  0
  6  7  1  0
  6 34  1  0
  7 12  2  0
  7 35  1  0
  8 13  1  0
  8 36  1  0
 11  9  2  0
 10  9  1  0
  9 37  1  0
 24 10  2  0
 10 38  1  0
 25 11  1  0
 11 39  1  0
 28 12  1  0
 12 40  1  0
 13 28  2  0
 13 41  1  0
 26 14  2  0
 14 19  1  0
 14 42  1  0
 17 15  2  0
 15 27  1  0
 15 43  1  0
 18 16  1  0
 16 27  2  0
 16 44  1  0
 29 17  1  0
 17 45  1  0
 29 18  2  0
 18 46  1  0
 19 30  2  0
 19 47  1  0
 20 25  2  0
 20 24  1  0
 20 48  1  0
 26 21  1  0
 21 31  2  0
 21 49  1  0
 23 53  1  0
 53 24  1  0
 53 50  1  0
 51 26  1  0
 51 25  1  0
 30 22  1  0
 31 52  1  0
 27 23  1  0
 28 29  1  0
 31 30  1  0
M  END
