
     RDKit          3D

 71 74  0  0  0  0  0  0  0  0999 V2000
   -1.7713    2.5744    0.2707 N   0  0  0  0  0  0  0  0  0  0  0  0
   -2.1598    1.5293    1.2654 C   0  0  2  0  0  0  0  0  0  0  0  0
   -1.9602    2.1298    2.6614 C   0  0  0  0  0  0  0  0  0  0  0  0
   -1.4343    0.2120    1.0978 C   0  0  0  0  0  0  0  0  0  0  0  0
   -3.7233    1.4606    0.9507 C   0  0  2  0  0  0  0  0  0  0  0  0
   -4.5872    1.1947    2.1835 C   0  0  0  0  0  0  0  0  0  0  0  0
   -4.0546    0.4379   -0.1310 C   0  0  0  0  0  0  0  0  0  0  0  0
   -4.0109    2.8011    0.4582 N   0  0  0  0  0  0  0  0  0  0  0  0
   -2.9329    3.3232    0.0399 C   0  0  0  0  0  0  0  0  0  0  0  0
   -2.8751    4.6846   -0.5650 C   0  0  0  0  0  0  0  0  0  0  0  0
   -1.0365   -0.5213    2.2121 C   0  0  0  0  0  0  0  0  0  0  0  0
   -0.3796   -1.7389    2.0912 C   0  0  0  0  0  0  0  0  0  0  0  0
   -0.1079   -2.2344    0.8306 C   0  0  0  0  0  0  0  0  0  0  0  0
    0.7597   -3.7246    0.6591 Cl  0  0  0  0  0  0  0  0  0  0  0  0
   -0.5128   -1.5444   -0.3007 C   0  0  0  0  0  0  0  0  0  0  0  0
   -1.1742   -0.3385   -0.1587 C   0  0  0  0  0  0  0  0  0  0  0  0
   -4.1784   -0.9128    0.1984 C   0  0  0  0  0  0  0  0  0  0  0  0
   -4.4360   -1.8755   -0.7615 C   0  0  0  0  0  0  0  0  0  0  0  0
   -4.5747   -1.4870   -2.0847 C   0  0  0  0  0  0  0  0  0  0  0  0
   -4.8908   -2.6838   -3.2995 Cl  0  0  0  0  0  0  0  0  0  0  0  0
   -4.4681   -0.1563   -2.4450 C   0  0  0  0  0  0  0  0  0  0  0  0
   -4.2124    0.7956   -1.4659 C   0  0  0  0  0  0  0  0  0  0  0  0
   -0.8046    2.5422   -0.7460 C   0  0  0  0  0  0  0  0  0  0  0  0
   -1.1409    2.7748   -1.8989 O   0  0  0  0  0  0  0  0  0  0  0  0
    0.4670    2.2454   -0.4107 N   0  0  0  0  0  0  0  0  0  0  0  0
    1.0945    2.4673    0.8749 C   0  0  0  0  0  0  0  0  0  0  0  0
    1.9900    1.3011    1.2420 C   0  0  0  0  0  0  0  0  0  0  0  0
    2.9935    1.0704    0.2162 N   0  0  0  0  0  0  0  0  0  0  0  0
    2.3510    0.8440   -1.0666 C   0  0  0  0  0  0  0  0  0  0  0  0
    1.4438    1.9980   -1.4565 C   0  0  0  0  0  0  0  0  0  0  0  0
    5.0803   -0.1874   -0.2849 C   0  0  0  0  0  0  0  0  0  0  0  0
    5.9651   -1.2970    0.2643 C   0  0  0  0  0  0  0  0  0  0  0  0
    7.4099   -1.5289   -0.7665 S   0  0  1  0  0  0  0  0  0  0  0  0
    8.2835   -2.8642    0.0175 C   0  0  0  0  0  0  0  0  0  0  0  0
    6.9730   -1.9691   -2.0931 O   0  0  0  0  0  0  0  0  0  0  0  0
    8.2345   -0.3213   -0.6891 O   0  0  0  0  0  0  0  0  0  0  0  0
    3.8512   -0.0331    0.6033 C   0  0  0  0  0  0  0  0  0  0  0  0
   -2.3980    1.5164    3.4448 H   0  0  0  0  0  0  0  0  0  0  0  0
   -0.9068    2.2426    2.9048 H   0  0  0  0  0  0  0  0  0  0  0  0
   -2.4228    3.1141    2.7227 H   0  0  0  0  0  0  0  0  0  0  0  0
   -4.5204    2.0136    2.8962 H   0  0  0  0  0  0  0  0  0  0  0  0
   -5.6293    1.1035    1.8786 H   0  0  0  0  0  0  0  0  0  0  0  0
   -4.3088    0.2776    2.7002 H   0  0  0  0  0  0  0  0  0  0  0  0
   -2.9278    4.6364   -1.6508 H   0  0  0  0  0  0  0  0  0  0  0  0
   -3.7244    5.2646   -0.2107 H   0  0  0  0  0  0  0  0  0  0  0  0
   -1.9561    5.2022   -0.2947 H   0  0  0  0  0  0  0  0  0  0  0  0
   -1.2207   -0.1576    3.2120 H   0  0  0  0  0  0  0  0  0  0  0  0
   -0.0744   -2.2777    2.9779 H   0  0  0  0  0  0  0  0  0  0  0  0
   -0.3134   -1.9365   -1.2886 H   0  0  0  0  0  0  0  0  0  0  0  0
   -1.4912    0.1577   -1.0656 H   0  0  0  0  0  0  0  0  0  0  0  0
   -4.0523   -1.2428    1.2211 H   0  0  0  0  0  0  0  0  0  0  0  0
   -4.5195   -2.9165   -0.4799 H   0  0  0  0  0  0  0  0  0  0  0  0
   -4.5838    0.1460   -3.4773 H   0  0  0  0  0  0  0  0  0  0  0  0
   -4.1357    1.8279   -1.7747 H   0  0  0  0  0  0  0  0  0  0  0  0
    1.6953    3.3829    0.8191 H   0  0  0  0  0  0  0  0  0  0  0  0
    0.3508    2.6252    1.6457 H   0  0  0  0  0  0  0  0  0  0  0  0
    2.4901    1.5334    2.1848 H   0  0  0  0  0  0  0  0  0  0  0  0
    1.3689    0.4084    1.4098 H   0  0  0  0  0  0  0  0  0  0  0  0
    3.1069    0.7481   -1.8469 H   0  0  0  0  0  0  0  0  0  0  0  0
    1.7642   -0.0892   -1.0642 H   0  0  0  0  0  0  0  0  0  0  0  0
    0.9386    1.7529   -2.3870 H   0  0  0  0  0  0  0  0  0  0  0  0
    2.0396    2.9017   -1.6275 H   0  0  0  0  0  0  0  0  0  0  0  0
    5.6286    0.7559   -0.3090 H   0  0  0  0  0  0  0  0  0  0  0  0
    4.7915   -0.4304   -1.3086 H   0  0  0  0  0  0  0  0  0  0  0  0
    6.3273   -1.0675    1.2683 H   0  0  0  0  0  0  0  0  0  0  0  0
    5.4393   -2.2532    0.2968 H   0  0  0  0  0  0  0  0  0  0  0  0
    7.6485   -3.7464    0.0487 H   0  0  0  0  0  0  0  0  0  0  0  0
    9.1716   -3.0659   -0.5798 H   0  0  0  0  0  0  0  0  0  0  0  0
    8.5722   -2.5670    1.0230 H   0  0  0  0  0  0  0  0  0  0  0  0
    4.1866    0.1517    1.6276 H   0  0  0  0  0  0  0  0  0  0  0  0
    3.2948   -0.9873    0.6257 H   0  0  0  0  0  0  0  0  0  0  0  0
 14 13  1  0
 15 13  2  0
 15 16  1  0
 13 12  1  0
 16  4  2  0
 20 19  1  0
 12 11  2  0
 19 18  1  0
 19 21  2  0
  4 11  1  0
  4  2  1  0
 18 17  2  0
 21 22  1  0
  2  3  1  1
 24 23  2  0
 17  7  1  0
  2  5  1  0
  2  1  1  0
 22  7  2  0
  7  5  1  0
 23  1  1  0
 23 25  1  0
  5  6  1  1
  5  8  1  0
  1  9  1  0
 26 25  1  0
 26 27  1  0
 25 30  1  0
  9  8  2  0
  9 10  1  0
 27 28  1  0
 30 29  1  0
 28 29  1  0
 28 37  1  0
 37 31  1  0
 31 32  1  0
 33 32  1  1
 36 33  2  0
 33 35  2  0
 33 34  1  0
  3 38  1  0
  3 39  1  0
  3 40  1  0
  6 41  1  0
  6 42  1  0
  6 43  1  0
 10 44  1  0
 10 45  1  0
 10 46  1  0
 11 47  1  0
 12 48  1  0
 15 49  1  0
 16 50  1  0
 17 51  1  0
 18 52  1  0
 21 53  1  0
 22 54  1  0
 26 55  1  0
 26 56  1  0
 27 57  1  0
 27 58  1  0
 29 59  1  0
 29 60  1  0
 30 61  1  0
 30 62  1  0
 31 63  1  0
 31 64  1  0
 32 65  1  0
 32 66  1  0
 34 67  1  0
 34 68  1  0
 34 69  1  0
 37 70  1  0
 37 71  1  0
M  END
