
     RDKit          3D

 16 16  0  0  0  0  0  0  0  0999 V2000
    2.3909    2.3893   -0.0096 O   0  0  0  0  0  0  0  0  0  0  0  0
    2.3093    1.0797    0.0540 C   0  0  0  0  0  0  0  0  0  0  0  0
    3.2880    0.3558    0.1192 O   0  0  0  0  0  0  0  0  0  0  0  0
    0.9313    0.5588    0.0394 C   0  0  0  0  0  0  0  0  0  0  0  0
   -0.1672    1.4190   -0.0301 C   0  0  0  0  0  0  0  0  0  0  0  0
    0.7424   -0.8334    0.0968 C   0  0  0  0  0  0  0  0  0  0  0  0
    1.7300   -1.7111    0.1641 O   0  0  0  0  0  0  0  0  0  0  0  0
   -0.5717   -1.3193    0.0802 C   0  0  0  0  0  0  0  0  0  0  0  0
   -0.8156   -3.0230    0.1492 Cl  0  0  0  0  0  0  0  0  0  0  0  0
   -1.6552   -0.4715    0.0111 C   0  0  0  0  0  0  0  0  0  0  0  0
   -1.4421    0.9016   -0.0440 C   0  0  0  0  0  0  0  0  0  0  0  0
   -2.8057    1.9626   -0.1306 Cl  0  0  0  0  0  0  0  0  0  0  0  0
    3.3176    2.6749    0.0032 H   0  0  0  0  0  0  0  0  0  0  0  0
   -0.0202    2.4885   -0.0744 H   0  0  0  0  0  0  0  0  0  0  0  0
    2.5792   -1.2176    0.1675 H   0  0  0  0  0  0  0  0  0  0  0  0
   -2.6585   -0.8752    0.0000 H   0  0  0  0  0  0  0  0  0  0  0  0
  1  2  1  0
  2  3  2  0
  2  4  1  0
  4  5  2  0
  4  6  1  0
  5 11  1  0
  6  7  1  0
  6  8  2  0
  8  9  1  0
  8 10  1  0
 10 11  2  0
 11 12  1  0
  1 13  1  0
  5 14  1  0
  7 15  1  0
 10 16  1  0
M  END
