
     RDKit          3D

 47 49  0  0  0  0  0  0  0  0999 V2000
    3.5941   -0.1423   -0.9141 C   0  0  1  0  0  0  0  0  0  0  0  0
    2.4737   -1.1024   -0.4934 C   0  0  0  0  0  0  0  0  0  0  0  0
    1.1480   -0.6897   -0.4953 C   0  0  0  0  0  0  0  0  0  0  0  0
    0.0936   -1.5302   -0.1342 C   0  0  0  0  0  0  0  0  0  0  0  0
   -2.3785   -1.5578    0.0547 C   0  0  0  0  0  0  0  0  0  0  0  0
   -3.5326   -0.6159   -0.0588 C   0  0  0  0  0  0  0  0  0  0  0  0
   -4.3010    1.4876   -0.4506 C   0  0  0  0  0  0  0  0  0  0  0  0
   -3.2906    0.6604   -0.3625 N   0  0  0  0  0  0  0  0  0  0  0  0
   -5.8598   -0.2251    0.0790 N   0  0  0  0  0  0  0  0  0  0  0  0
   -2.5536   -2.7330    0.3286 O   0  0  0  0  0  0  0  0  0  0  0  0
   -5.6074    1.0245   -0.2194 C   0  0  0  0  0  0  0  0  0  0  0  0
    3.0438    1.1226   -1.3375 N   0  0  0  0  0  0  0  0  0  0  0  0
   -7.9103    1.4961   -0.1232 C   0  0  0  0  0  0  0  0  0  0  0  0
   -4.8256   -1.0568    0.1559 C   0  0  0  0  0  0  0  0  0  0  0  0
    0.3668   -2.8433    0.2394 C   0  0  0  0  0  0  0  0  0  0  0  0
    1.6822   -3.2788    0.2423 C   0  0  0  0  0  0  0  0  0  0  0  0
    2.7008   -2.4235   -0.1171 C   0  0  0  0  0  0  0  0  0  0  0  0
    2.8686    2.1112   -0.5617 C   0  0  0  0  0  0  0  0  0  0  0  0
    3.9531    0.5888    1.5083 C   0  0  1  0  0  0  0  0  0  0  0  0
    5.6072    0.8605   -0.1563 F   0  0  0  0  0  0  0  0  0  0  0  0
    4.5795    0.0197    0.2556 C   0  0  2  0  0  0  0  0  0  0  0  0
    4.9403    0.7398    2.6545 C   0  0  0  0  0  0  0  0  0  0  0  0
    3.2163    2.2206    1.1732 S   0  0  0  0  0  0  0  0  0  0  0  0
    2.2909    3.2572   -1.0166 N   0  0  0  0  0  0  0  0  0  0  0  0
    4.3171   -0.7103   -2.1451 C   0  0  0  0  0  0  0  0  0  0  0  0
    3.9562   -2.9151   -0.0868 F   0  0  0  0  0  0  0  0  0  0  0  0
   -1.1855   -0.9704   -0.1686 N   0  0  0  0  0  0  0  0  0  0  0  0
   -6.5959    1.9194   -0.3133 O   0  0  0  0  0  0  0  0  0  0  0  0
   -8.1354    1.2870    1.2137 F   0  0  0  0  0  0  0  0  0  0  0  0
    0.9205    0.3219   -0.8033 H   0  0  0  0  0  0  0  0  0  0  0  0
   -4.1062    2.5236   -0.6993 H   0  0  0  0  0  0  0  0  0  0  0  0
   -8.5396    2.3148   -0.4618 H   0  0  0  0  0  0  0  0  0  0  0  0
   -8.1243    0.5736   -0.6607 H   0  0  0  0  0  0  0  0  0  0  0  0
   -5.0408   -2.0886    0.3996 H   0  0  0  0  0  0  0  0  0  0  0  0
   -0.4152   -3.5263    0.5259 H   0  0  0  0  0  0  0  0  0  0  0  0
    1.9165   -4.2953    0.5303 H   0  0  0  0  0  0  0  0  0  0  0  0
    3.1493   -0.0811    1.8191 H   0  0  0  0  0  0  0  0  0  0  0  0
    5.0334   -0.9399    0.5089 H   0  0  0  0  0  0  0  0  0  0  0  0
    4.4527    1.1579    3.5350 H   0  0  0  0  0  0  0  0  0  0  0  0
    5.3326   -0.2396    2.9316 H   0  0  0  0  0  0  0  0  0  0  0  0
    5.7746    1.3861    2.3877 H   0  0  0  0  0  0  0  0  0  0  0  0
    2.2522    3.3521   -2.0197 H   0  0  0  0  0  0  0  0  0  0  0  0
    2.4806    4.1191   -0.5308 H   0  0  0  0  0  0  0  0  0  0  0  0
    3.5962   -0.8542   -2.9493 H   0  0  0  0  0  0  0  0  0  0  0  0
    5.0712   -0.0084   -2.4982 H   0  0  0  0  0  0  0  0  0  0  0  0
    4.8045   -1.6620   -1.9478 H   0  0  0  0  0  0  0  0  0  0  0  0
   -1.2336    0.0154   -0.3935 H   0  0  0  0  0  0  0  0  0  0  0  0
 22 19  1  0
 26 17  1  0
 20 21  1  0
 21 19  1  0
 21  1  1  0
 19 23  1  0
 17 16  2  0
 17  2  1  0
  1 25  1  6
 16 15  1  0
  1  2  1  0
  1 12  1  0
  2  3  2  0
 23 18  1  0
 15  4  2  0
 12 18  2  0
 18 24  1  0
  3  4  1  0
  4 27  1  0
 27  5  1  0
 10  5  2  0
  5  6  1  0
  6 14  2  0
  6  8  1  0
 14  9  1  0
  8  7  2  0
  9 11  2  0
  7 11  1  0
 11 28  1  0
 28 13  1  0
 13 29  1  0
  3 30  1  0
  7 31  1  0
 13 32  1  0
 13 33  1  0
 14 34  1  0
 15 35  1  0
 16 36  1  0
 19 37  1  1
 21 38  1  1
 22 39  1  0
 22 40  1  0
 22 41  1  0
 24 42  1  0
 24 43  1  0
 25 44  1  0
 25 45  1  0
 25 46  1  0
 27 47  1  0
M  END
