
     RDKit          3D

 18 18  0  0  0  0  0  0  0  0999 V2000
   -0.9254   -0.0432   -2.8832 O   0  0  0  0  0  0  0  0  0  0  0  0
    0.0971   -0.0060   -2.0350 C   0  0  0  0  0  0  0  0  0  0  0  0
    1.2472   -0.0236   -2.4305 O   0  0  0  0  0  0  0  0  0  0  0  0
   -0.3131    0.0516   -0.6244 C   0  0  0  0  0  0  0  0  0  0  0  0
   -1.6804    0.0258   -0.2883 C   0  0  0  0  0  0  0  0  0  0  0  0
   -2.0874    0.0555    1.0214 C   0  0  0  0  0  0  0  0  0  0  0  0
   -1.1296    0.1146    2.0391 C   0  0  0  0  0  0  0  0  0  0  0  0
    0.2103    0.1474    1.7376 C   0  0  0  0  0  0  0  0  0  0  0  0
    1.1847    0.2083    2.6743 O   0  0  0  0  0  0  0  0  0  0  0  0
    0.6632    0.1170    0.3926 C   0  0  0  0  0  0  0  0  0  0  0  0
    2.0015    0.1946    0.1713 N   0  0  0  0  0  0  0  0  0  0  0  0
   -0.5891   -0.0831   -3.7903 H   0  0  0  0  0  0  0  0  0  0  0  0
   -2.4240   -0.0221   -1.0701 H   0  0  0  0  0  0  0  0  0  0  0  0
   -3.1390    0.0331    1.2711 H   0  0  0  0  0  0  0  0  0  0  0  0
   -1.4432    0.1378    3.0772 H   0  0  0  0  0  0  0  0  0  0  0  0
    0.8023    0.1940    3.5585 H   0  0  0  0  0  0  0  0  0  0  0  0
    2.6171   -0.0495    0.9278 H   0  0  0  0  0  0  0  0  0  0  0  0
    2.3316   -0.0258   -0.7526 H   0  0  0  0  0  0  0  0  0  0  0  0
  1  2  1  0
  1 12  1  0
  2  3  2  0
  2  4  1  0
  4  5  2  0
  4 10  1  0
  5  6  1  0
  5 13  1  0
  6  7  2  0
  6 14  1  0
  7  8  1  0
  7 15  1  0
  8  9  1  0
  8 10  2  0
  9 16  1  0
 10 11  1  0
 11 17  1  0
 11 18  1  0
M  END
