
     RDKit          3D

 55 56  0  0  0  0  0  0  0  0999 V2000
   -2.9260   -0.0047   -0.6116 N   0  0  0  0  0  0  0  0  0  0  0  0
    4.4656    2.0438   -0.8556 O   0  0  0  0  0  0  0  0  0  0  0  0
   -2.4340   -1.2871   -0.8125 C   0  0  0  0  0  0  0  0  0  0  0  0
   -3.1464   -2.1474   -1.2786 O   0  0  0  0  0  0  0  0  0  0  0  0
   -1.0091   -1.5453   -0.4201 C   0  0  0  0  0  0  0  0  0  0  0  0
   -2.8399    1.9954    0.4173 O   0  0  0  0  0  0  0  0  0  0  0  0
   -0.1384   -0.2987   -0.3965 C   0  0  1  0  0  0  0  0  0  0  0  0
   -4.8442   -0.5455    1.2470 O   0  0  0  0  0  0  0  0  0  0  0  0
   -0.8323    0.7191    0.4946 C   0  0  0  0  0  0  0  0  0  0  0  0
   -6.4645    0.2524   -0.0744 O   0  0  0  0  0  0  0  0  0  0  0  0
   -2.2608    0.9767    0.1127 C   0  0  0  0  0  0  0  0  0  0  0  0
    1.2749   -0.6606    0.0556 C   0  0  0  0  0  0  0  0  0  0  0  0
    2.3071    0.4592   -0.0751 C   0  0  2  0  0  0  0  0  0  0  0  0
    3.7385   -0.0912   -0.0398 C   0  0  1  0  0  0  0  0  0  0  0  0
    2.1177    1.4867    0.8762 O   0  0  0  0  0  0  0  0  0  0  0  0
    4.7673    0.9309   -0.4876 C   0  0  0  0  0  0  0  0  0  0  0  0
    6.2021    0.4482   -0.4733 C   0  0  2  0  0  0  0  0  0  0  0  0
    6.5359   -0.1351    0.9082 C   0  0  0  0  0  0  0  0  0  0  0  0
    5.5622   -1.2220    1.3573 C   0  0  1  0  0  0  0  0  0  0  0  0
    4.1346   -0.6757    1.3273 C   0  0  0  0  0  0  0  0  0  0  0  0
   -4.3049    0.2518   -0.9570 C   0  0  0  0  0  0  0  0  0  0  0  0
   -7.4685    0.0181    0.9311 C   0  0  0  0  0  0  0  0  0  0  0  0
   -8.7903    0.4970    0.3847 C   0  0  0  0  0  0  0  0  0  0  0  0
    7.1965    1.5205   -0.8858 C   0  0  0  0  0  0  0  0  0  0  0  0
    5.7135   -2.5141    0.5589 C   0  0  0  0  0  0  0  0  0  0  0  0
   -5.2165   -0.0645    0.2089 C   0  0  0  0  0  0  0  0  0  0  0  0
   -1.0291   -1.9988    0.5787 H   0  0  0  0  0  0  0  0  0  0  0  0
   -0.6153   -2.3053   -1.0961 H   0  0  0  0  0  0  0  0  0  0  0  0
   -0.0773    0.1039   -1.4139 H   0  0  0  0  0  0  0  0  0  0  0  0
   -0.8371    0.3572    1.5303 H   0  0  0  0  0  0  0  0  0  0  0  0
   -0.3244    1.6812    0.5073 H   0  0  0  0  0  0  0  0  0  0  0  0
    1.2401   -1.0340    1.0864 H   0  0  0  0  0  0  0  0  0  0  0  0
    1.6118   -1.5041   -0.5549 H   0  0  0  0  0  0  0  0  0  0  0  0
    2.1585    0.9322   -1.0510 H   0  0  0  0  0  0  0  0  0  0  0  0
    3.7918   -0.9011   -0.7796 H   0  0  0  0  0  0  0  0  0  0  0  0
    2.0334    1.0887    1.7484 H   0  0  0  0  0  0  0  0  0  0  0  0
    6.2472   -0.3692   -1.2051 H   0  0  0  0  0  0  0  0  0  0  0  0
    7.5581   -0.5227    0.8886 H   0  0  0  0  0  0  0  0  0  0  0  0
    6.5303    0.6801    1.6401 H   0  0  0  0  0  0  0  0  0  0  0  0
    5.7954   -1.4583    2.4003 H   0  0  0  0  0  0  0  0  0  0  0  0
    4.0446    0.1020    2.0922 H   0  0  0  0  0  0  0  0  0  0  0  0
    3.4322   -1.4671    1.6026 H   0  0  0  0  0  0  0  0  0  0  0  0
   -4.4279    1.2922   -1.2535 H   0  0  0  0  0  0  0  0  0  0  0  0
   -4.5893   -0.3575   -1.8140 H   0  0  0  0  0  0  0  0  0  0  0  0
   -7.5038   -1.0468    1.1673 H   0  0  0  0  0  0  0  0  0  0  0  0
   -7.2014    0.5575    1.8415 H   0  0  0  0  0  0  0  0  0  0  0  0
   -8.7654    1.5604    0.1473 H   0  0  0  0  0  0  0  0  0  0  0  0
   -9.0806   -0.0548   -0.5092 H   0  0  0  0  0  0  0  0  0  0  0  0
   -9.5623    0.3408    1.1376 H   0  0  0  0  0  0  0  0  0  0  0  0
    7.2073    2.3502   -0.1771 H   0  0  0  0  0  0  0  0  0  0  0  0
    8.2022    1.0998   -0.9157 H   0  0  0  0  0  0  0  0  0  0  0  0
    6.9779    1.9253   -1.8734 H   0  0  0  0  0  0  0  0  0  0  0  0
    6.7345   -2.8927    0.6273 H   0  0  0  0  0  0  0  0  0  0  0  0
    5.0488   -3.2880    0.9459 H   0  0  0  0  0  0  0  0  0  0  0  0
    5.4837   -2.3907   -0.5008 H   0  0  0  0  0  0  0  0  0  0  0  0
  1  3  1  0
  1 11  1  0
  1 21  1  0
  2 16  2  0
  3  4  2  0
  3  5  1  0
  5  7  1  0
  5 27  1  0
  5 28  1  0
  6 11  2  0
  7  9  1  0
  7 12  1  0
  7 29  1  6
  8 26  2  0
  9 11  1  0
  9 30  1  0
  9 31  1  0
 10 22  1  0
 10 26  1  0
 12 13  1  0
 12 32  1  0
 12 33  1  0
 13 14  1  0
 13 15  1  0
 13 34  1  6
 14 16  1  0
 14 20  1  0
 14 35  1  6
 15 36  1  0
 16 17  1  0
 17 18  1  0
 17 24  1  0
 17 37  1  6
 18 19  1  0
 18 38  1  0
 18 39  1  0
 19 20  1  0
 19 25  1  0
 19 40  1  1
 20 41  1  0
 20 42  1  0
 21 26  1  0
 21 43  1  0
 21 44  1  0
 22 23  1  0
 22 45  1  0
 22 46  1  0
 23 47  1  0
 23 48  1  0
 23 49  1  0
 24 50  1  0
 24 51  1  0
 24 52  1  0
 25 53  1  0
 25 54  1  0
 25 55  1  0
M  END
