
     RDKit          3D

 59 62  0  0  0  0  0  0  0  0999 V2000
    6.4030   -1.2724    0.8023 C   0  0  0  0  0  0  0  0  0  0  0  0
    7.7856   -1.4117    0.7205 C   0  0  0  0  0  0  0  0  0  0  0  0
    8.4054   -1.4615   -0.5227 C   0  0  0  0  0  0  0  0  0  0  0  0
    0.7364    2.2523   -2.5000 C   0  0  0  0  0  0  0  0  0  0  0  0
    1.0034    2.8294   -3.8543 C   0  0  0  0  0  0  0  0  0  0  0  0
   -0.7521    1.7797   -0.8810 C   0  0  0  0  0  0  0  0  0  0  0  0
   -1.5316    1.0997    0.9426 C   0  0  0  0  0  0  0  0  0  0  0  0
   -3.8364    0.9100    1.6813 C   0  0  2  0  0  0  0  0  0  0  0  0
   -4.5874    0.9456    3.0186 C   0  0  0  0  0  0  0  0  0  0  0  0
   -4.1868    2.0857    3.8294 C   0  0  0  0  0  0  0  0  0  0  0  0
   -4.3580   -0.2370    0.8386 C   0  0  0  0  0  0  0  0  0  0  0  0
   -3.8851   -1.5330    1.0089 C   0  0  0  0  0  0  0  0  0  0  0  0
   -4.4012   -2.5708    0.2468 C   0  0  0  0  0  0  0  0  0  0  0  0
   -5.3950   -2.3328   -0.6920 C   0  0  0  0  0  0  0  0  0  0  0  0
   -5.8604   -1.0372   -0.8506 C   0  0  0  0  0  0  0  0  0  0  0  0
   -5.3526    0.0104   -0.0992 C   0  0  0  0  0  0  0  0  0  0  0  0
   -7.0968   -0.7138   -2.0225 Cl  0  0  0  0  0  0  0  0  0  0  0  0
   -3.8761    2.9907    4.4676 N   0  0  0  0  0  0  0  0  0  0  0  0
   -2.4207    0.8641    1.9423 N   0  0  0  0  0  0  0  0  0  0  0  0
   -1.8933    1.6877   -0.2122 N   0  0  0  0  0  0  0  0  0  0  0  0
   -0.2500    0.7958    1.0709 N   0  0  0  0  0  0  0  0  0  0  0  0
    0.2443    1.2419   -0.1063 N   0  0  0  0  0  0  0  0  0  0  0  0
   -0.5270    2.2866   -2.0821 N   0  0  0  0  0  0  0  0  0  0  0  0
    1.7885    1.7202   -1.7564 C   0  0  0  0  0  0  0  0  0  0  0  0
    1.5387    1.1863   -0.4911 C   0  0  0  0  0  0  0  0  0  0  0  0
    3.8145    0.4469    0.1236 C   0  0  0  0  0  0  0  0  0  0  0  0
    4.1246   -1.0118   -0.2707 C   0  0  1  0  0  0  0  0  0  0  0  0
    3.4543   -1.4399   -1.4826 N   0  0  0  0  0  0  0  0  0  0  0  0
    5.6259   -1.1878   -0.3653 C   0  0  0  0  0  0  0  0  0  0  0  0
    5.7289   -1.2169    1.9692 O   0  0  0  0  0  0  0  0  0  0  0  0
    6.4461   -1.3430    3.1804 C   0  0  0  0  0  0  0  0  0  0  0  0
    6.2737   -1.2488   -1.5906 C   0  0  0  0  0  0  0  0  0  0  0  0
    7.6551   -1.3807   -1.6822 C   0  0  0  0  0  0  0  0  0  0  0  0
    8.3939   -1.4852    1.6117 H   0  0  0  0  0  0  0  0  0  0  0  0
    9.4815   -1.5662   -0.5723 H   0  0  0  0  0  0  0  0  0  0  0  0
    0.6974    3.8756   -3.8873 H   0  0  0  0  0  0  0  0  0  0  0  0
    2.0564    2.7722   -4.1212 H   0  0  0  0  0  0  0  0  0  0  0  0
    0.4256    2.3009   -4.6134 H   0  0  0  0  0  0  0  0  0  0  0  0
   -4.0495    1.8424    1.1557 H   0  0  0  0  0  0  0  0  0  0  0  0
   -5.6614    1.0098    2.8396 H   0  0  0  0  0  0  0  0  0  0  0  0
   -4.4138    0.0329    3.5940 H   0  0  0  0  0  0  0  0  0  0  0  0
   -3.1061   -1.7408    1.7317 H   0  0  0  0  0  0  0  0  0  0  0  0
   -4.0268   -3.5770    0.3801 H   0  0  0  0  0  0  0  0  0  0  0  0
   -5.7934   -3.1404   -1.2906 H   0  0  0  0  0  0  0  0  0  0  0  0
   -5.7252    1.0168   -0.2461 H   0  0  0  0  0  0  0  0  0  0  0  0
   -2.0968    0.2559    2.6790 H   0  0  0  0  0  0  0  0  0  0  0  0
    2.7906    1.7380   -2.1541 H   0  0  0  0  0  0  0  0  0  0  0  0
    2.0283    0.3167    1.2394 H   0  0  0  0  0  0  0  0  0  0  0  0
    4.1563    1.1201   -0.6637 H   0  0  0  0  0  0  0  0  0  0  0  0
    4.3530    0.7256    1.0288 H   0  0  0  0  0  0  0  0  0  0  0  0
    3.7522   -1.6539    0.5325 H   0  0  0  0  0  0  0  0  0  0  0  0
    2.4601   -1.5201   -1.3172 H   0  0  0  0  0  0  0  0  0  0  0  0
    3.5666   -0.7620   -2.2268 H   0  0  0  0  0  0  0  0  0  0  0  0
    5.7124   -1.2891    3.9806 H   0  0  0  0  0  0  0  0  0  0  0  0
    6.9700   -2.2999    3.2451 H   0  0  0  0  0  0  0  0  0  0  0  0
    7.1702   -0.5352    3.3128 H   0  0  0  0  0  0  0  0  0  0  0  0
    5.6910   -1.2032   -2.5015 H   0  0  0  0  0  0  0  0  0  0  0  0
    8.1328   -1.4256   -2.6519 H   0  0  0  0  0  0  0  0  0  0  0  0
    2.4068    0.6598    0.3681 N   0  0  0  0  0  0  0  0  0  0  0  0
 33  3  2  0
 33 32  1  0
  3  2  1  0
 32 29  2  0
  2  1  2  0
 29  1  1  0
 29 27  1  0
 26 27  1  0
 26 59  1  0
  1 30  1  0
 27 28  1  0
 59 25  1  0
 30 31  1  0
 25 24  2  0
 25 22  1  0
 18 10  3  0
 24  4  1  0
 21 22  1  0
 21  7  2  0
 10  9  1  0
 22  6  1  0
 12 13  2  0
 12 11  1  0
  8  9  1  0
  8 11  1  0
  8 19  1  0
 13 14  1  0
  7 19  1  0
  7 20  1  0
  4  5  1  0
  4 23  2  0
 11 16  2  0
  6 23  1  0
  6 20  2  0
 14 15  2  0
 16 15  1  0
 15 17  1  0
  2 34  1  0
  3 35  1  0
  5 36  1  0
  5 37  1  0
  5 38  1  0
  8 39  1  6
  9 40  1  0
  9 41  1  0
 12 42  1  0
 13 43  1  0
 14 44  1  0
 16 45  1  0
 19 46  1  0
 24 47  1  0
 59 48  1  0
 26 49  1  0
 26 50  1  0
 27 51  1  1
 28 52  1  0
 28 53  1  0
 31 54  1  0
 31 55  1  0
 31 56  1  0
 32 57  1  0
 33 58  1  0
M  END
