
     RDKit          3D

 54 56  0  0  0  0  0  0  0  0999 V2000
    3.3402   -0.2431    1.3102 C   0  0  0  0  0  0  0  0  0  0  0  0
    4.2783    1.4616   -1.4377 C   0  0  0  0  0  0  0  0  0  0  0  0
    2.1935    1.9940    1.3348 C   0  0  0  0  0  0  0  0  0  0  0  0
    1.4207    1.5780    2.5962 C   0  0  0  0  0  0  0  0  0  0  0  0
   -2.1088    2.7749   -0.4203 C   0  0  0  0  0  0  0  0  0  0  0  0
   -3.5005    4.0775   -1.8670 C   0  0  0  0  0  0  0  0  0  0  0  0
   -1.7405    5.0202   -0.5773 C   0  0  0  0  0  0  0  0  0  0  0  0
   -3.1192   -5.5901   -0.1760 C   0  0  0  0  0  0  0  0  0  0  0  0
   -3.3483   -4.1506   -0.5421 C   0  0  0  0  0  0  0  0  0  0  0  0
   -2.3831   -3.2130    0.1586 C   0  0  0  0  0  0  0  0  0  0  0  0
   -1.9848   -0.7843    0.2188 C   0  0  0  0  0  0  0  0  0  0  0  0
   -0.9524   -0.8940    1.1505 C   0  0  0  0  0  0  0  0  0  0  0  0
   -0.3397    0.2980    1.5488 C   0  0  0  0  0  0  0  0  0  0  0  0
    1.3928   -0.8676    2.8243 C   0  0  0  0  0  0  0  0  0  0  0  0
    2.3974   -1.3440    1.7791 C   0  0  0  0  0  0  0  0  0  0  0  0
    5.2079    0.7243   -2.0241 C   0  0  0  0  0  0  0  0  0  0  0  0
   -1.7082    1.4635    0.1665 C   0  0  0  0  0  0  0  0  0  0  0  0
   -3.1657    2.8472   -1.3256 C   0  0  0  0  0  0  0  0  0  0  0  0
   -2.7723    5.1946   -1.4898 C   0  0  0  0  0  0  0  0  0  0  0  0
    0.6799    0.3418    2.4468 N   0  0  0  0  0  0  0  0  0  0  0  0
    2.6335    0.8201    0.5969 N   0  0  0  0  0  0  0  0  0  0  0  0
   -0.7468    1.4793    1.0670 N   0  0  0  0  0  0  0  0  0  0  0  0
   -1.4147    3.8480   -0.0537 N   0  0  0  0  0  0  0  0  0  0  0  0
   -2.3523    0.4037   -0.2881 N   0  0  0  0  0  0  0  0  0  0  0  0
   -2.2917   -5.9806    0.6089 O   0  0  0  0  0  0  0  0  0  0  0  0
   -3.9483   -6.3976   -0.8259 O   0  0  0  0  0  0  0  0  0  0  0  0
    1.7012    1.7754   -1.5234 O   0  0  0  0  0  0  0  0  0  0  0  0
    2.6276   -0.5596   -1.4910 O   0  0  0  0  0  0  0  0  0  0  0  0
    2.6842    0.8218   -1.0359 S   0  0  1  0  0  0  0  0  0  0  0  0
    3.8656    0.2094    2.1555 H   0  0  0  0  0  0  0  0  0  0  0  0
    4.1194   -0.6697    0.6769 H   0  0  0  0  0  0  0  0  0  0  0  0
    4.4295    2.4951   -1.1478 H   0  0  0  0  0  0  0  0  0  0  0  0
    1.5382    2.5803    0.6977 H   0  0  0  0  0  0  0  0  0  0  0  0
    3.0439    2.6165    1.6323 H   0  0  0  0  0  0  0  0  0  0  0  0
    2.1092    1.4340    3.4283 H   0  0  0  0  0  0  0  0  0  0  0  0
    0.7574    2.3970    2.8734 H   0  0  0  0  0  0  0  0  0  0  0  0
   -4.3170    4.1598   -2.5721 H   0  0  0  0  0  0  0  0  0  0  0  0
   -1.1502    5.8718   -0.2563 H   0  0  0  0  0  0  0  0  0  0  0  0
   -3.2608   -4.0494   -1.6280 H   0  0  0  0  0  0  0  0  0  0  0  0
   -4.3822   -3.8921   -0.2940 H   0  0  0  0  0  0  0  0  0  0  0  0
   -2.4818   -3.3203    1.2428 H   0  0  0  0  0  0  0  0  0  0  0  0
   -1.3532   -3.4821   -0.0970 H   0  0  0  0  0  0  0  0  0  0  0  0
   -0.6384   -1.8564    1.5225 H   0  0  0  0  0  0  0  0  0  0  0  0
    0.6810   -1.6607    3.0547 H   0  0  0  0  0  0  0  0  0  0  0  0
    1.9133   -0.6548    3.7598 H   0  0  0  0  0  0  0  0  0  0  0  0
    1.8822   -1.7592    0.9114 H   0  0  0  0  0  0  0  0  0  0  0  0
    2.9882   -2.1526    2.2171 H   0  0  0  0  0  0  0  0  0  0  0  0
    6.1793    1.1452   -2.2446 H   0  0  0  0  0  0  0  0  0  0  0  0
    5.0416   -0.3059   -2.3079 H   0  0  0  0  0  0  0  0  0  0  0  0
   -3.7089    1.9539   -1.5971 H   0  0  0  0  0  0  0  0  0  0  0  0
   -2.9921    6.1759   -1.8872 H   0  0  0  0  0  0  0  0  0  0  0  0
   -3.3615   -1.6778   -0.9384 H   0  0  0  0  0  0  0  0  0  0  0  0
   -3.7842   -7.3180   -0.5711 H   0  0  0  0  0  0  0  0  0  0  0  0
   -2.6634   -1.8549   -0.2344 N   0  0  0  0  0  0  0  0  0  0  0  0
 19  7  1  0
 19  6  2  0
  7 23  2  0
  6 18  1  0
 23  5  1  0
 18  5  2  0
  5 17  1  0
 16  2  2  0
 17 24  1  0
 17 22  2  0
 24 11  2  0
 29  2  1  1
 22 13  1  0
 27 29  2  0
 29 21  1  0
 29 28  2  0
  3 21  1  0
  3  4  1  0
 11 54  1  0
 11 12  1  0
 13 12  2  0
 13 20  1  0
 54 10  1  0
 21  1  1  0
  4 20  1  0
 20 14  1  0
 10  9  1  0
  1 15  1  0
  9  8  1  0
 14 15  1  0
  8 25  2  0
  8 26  1  0
  1 30  1  0
  1 31  1  0
  2 32  1  0
  3 33  1  0
  3 34  1  0
  4 35  1  0
  4 36  1  0
  6 37  1  0
  7 38  1  0
  9 39  1  0
  9 40  1  0
 10 41  1  0
 10 42  1  0
 12 43  1  0
 14 44  1  0
 14 45  1  0
 15 46  1  0
 15 47  1  0
 16 48  1  0
 16 49  1  0
 18 50  1  0
 19 51  1  0
 54 52  1  0
 26 53  1  0
M  END
