
     RDKit          3D

 48 50  0  0  0  0  0  0  0  0999 V2000
    7.8512   -1.2738    1.5339 F   0  0  0  0  0  0  0  0  0  0  0  0
    7.4333   -1.7178    0.2838 C   0  0  0  0  0  0  0  0  0  0  0  0
    5.9814   -1.4022    0.0715 C   0  0  0  0  0  0  0  0  0  0  0  0
    5.8333    0.0024    0.0033 O   0  0  0  0  0  0  0  0  0  0  0  0
    4.5967    0.5146   -0.1274 C   0  0  0  0  0  0  0  0  0  0  0  0
    3.4414   -0.2315   -0.2555 C   0  0  0  0  0  0  0  0  0  0  0  0
    4.5233    1.9247   -0.1311 C   0  0  0  0  0  0  0  0  0  0  0  0
    5.6916    2.5671    0.0064 O   0  0  0  0  0  0  0  0  0  0  0  0
    5.6802    3.9816    0.0350 C   0  0  0  0  0  0  0  0  0  0  0  0
    3.2869    2.5353   -0.2700 C   0  0  0  0  0  0  0  0  0  0  0  0
    2.1296    1.7765   -0.3964 C   0  0  0  0  0  0  0  0  0  0  0  0
    2.1921    0.3914   -0.3868 C   0  0  0  0  0  0  0  0  0  0  0  0
    0.9652   -0.3917   -0.5013 C   0  0  0  0  0  0  0  0  0  0  0  0
   -0.2077    0.1151   -0.7213 N   0  0  0  0  0  0  0  0  0  0  0  0
    0.9424   -2.1165   -0.3287 S   0  0  0  0  0  0  0  0  0  0  0  0
   -0.7592   -2.1242   -0.5739 C   0  0  0  0  0  0  0  0  0  0  0  0
   -1.5707   -3.3729   -0.5139 C   0  0  0  0  0  0  0  0  0  0  0  0
   -1.1792   -0.8406   -0.7684 C   0  0  0  0  0  0  0  0  0  0  0  0
   -2.6000   -0.4381   -0.9702 C   0  0  0  0  0  0  0  0  0  0  0  0
   -3.2822   -0.0260    0.6692 S   0  0  0  0  0  0  0  0  0  0  0  0
   -4.9744    0.3105    0.3183 C   0  0  0  0  0  0  0  0  0  0  0  0
   -5.6680    0.6150    1.3998 N   0  0  0  0  0  0  0  0  0  0  0  0
   -5.3889    0.2286   -0.9260 N   0  0  0  0  0  0  0  0  0  0  0  0
   -6.6968    0.4813   -1.1248 C   0  0  0  0  0  0  0  0  0  0  0  0
   -7.1296    0.4303   -2.3998 N   0  0  0  0  0  0  0  0  0  0  0  0
   -7.5437    0.8069   -0.0684 C   0  0  0  0  0  0  0  0  0  0  0  0
   -6.9720    0.8685    1.2030 C   0  0  0  0  0  0  0  0  0  0  0  0
   -7.6911    1.2125    2.2901 N   0  0  0  0  0  0  0  0  0  0  0  0
    8.0579   -1.2459   -0.4762 H   0  0  0  0  0  0  0  0  0  0  0  0
    7.5719   -2.7985    0.2323 H   0  0  0  0  0  0  0  0  0  0  0  0
    5.6621   -1.8808   -0.8615 H   0  0  0  0  0  0  0  0  0  0  0  0
    5.3791   -1.8217    0.8851 H   0  0  0  0  0  0  0  0  0  0  0  0
    3.5046   -1.3124   -0.2617 H   0  0  0  0  0  0  0  0  0  0  0  0
    6.7122    4.2939    0.1718 H   0  0  0  0  0  0  0  0  0  0  0  0
    5.3043    4.4060   -0.8994 H   0  0  0  0  0  0  0  0  0  0  0  0
    5.0820    4.3673    0.8645 H   0  0  0  0  0  0  0  0  0  0  0  0
    3.2020    3.6131   -0.2754 H   0  0  0  0  0  0  0  0  0  0  0  0
    1.1767    2.2770   -0.4983 H   0  0  0  0  0  0  0  0  0  0  0  0
   -0.9539   -4.2659   -0.5935 H   0  0  0  0  0  0  0  0  0  0  0  0
   -2.1221   -3.4345    0.4260 H   0  0  0  0  0  0  0  0  0  0  0  0
   -2.2980   -3.4040   -1.3253 H   0  0  0  0  0  0  0  0  0  0  0  0
   -2.6684    0.4317   -1.6213 H   0  0  0  0  0  0  0  0  0  0  0  0
   -3.1885   -1.2429   -1.4064 H   0  0  0  0  0  0  0  0  0  0  0  0
   -8.1168    0.4052   -2.5887 H   0  0  0  0  0  0  0  0  0  0  0  0
   -6.5310    0.0071   -3.0882 H   0  0  0  0  0  0  0  0  0  0  0  0
   -8.5956    1.0041   -0.2253 H   0  0  0  0  0  0  0  0  0  0  0  0
   -8.6952    1.2048    2.2420 H   0  0  0  0  0  0  0  0  0  0  0  0
   -7.2885    1.0457    3.1967 H   0  0  0  0  0  0  0  0  0  0  0  0
 17 16  1  0
 15 16  1  0
 15 13  1  0
 16 18  2  0
 25 24  1  0
 11 10  2  0
 11 12  1  0
 24 26  2  0
 24 23  1  0
 10  7  1  0
 26 27  1  0
 23 21  2  0
 13 12  1  0
 13 14  2  0
 27 28  1  0
 27 22  2  0
 12  6  2  0
 21 22  1  0
 21 20  1  0
 18 14  1  0
 18 19  1  0
 20 19  1  0
  9  8  1  0
  7  8  1  0
  7  5  2  0
  6  5  1  0
  5  4  1  0
  4  3  1  0
  3  2  1  0
  2  1  1  0
  2 29  1  0
  2 30  1  0
  3 31  1  0
  3 32  1  0
  6 33  1  0
  9 34  1  0
  9 35  1  0
  9 36  1  0
 10 37  1  0
 11 38  1  0
 17 39  1  0
 17 40  1  0
 17 41  1  0
 19 42  1  0
 19 43  1  0
 25 44  1  0
 25 45  1  0
 26 46  1  0
 28 47  1  0
 28 48  1  0
M  END
