
     RDKit          3D

 33 35  0  0  0  0  0  0  0  0999 V2000
   -0.3938   -3.3068    0.2775 C   0  0  0  0  0  0  0  0  0  0  0  0
    0.9641   -3.2358    0.1374 C   0  0  0  0  0  0  0  0  0  0  0  0
    1.6046   -1.9776    0.1200 C   0  0  0  0  0  0  0  0  0  0  0  0
    0.8338   -0.7907    0.2371 C   0  0  0  0  0  0  0  0  0  0  0  0
   -0.5787   -0.9010    0.4160 C   0  0  0  0  0  0  0  0  0  0  0  0
   -1.1673   -2.1423    0.4301 C   0  0  0  0  0  0  0  0  0  0  0  0
    3.0059   -1.8678   -0.0319 C   0  0  0  0  0  0  0  0  0  0  0  0
    3.6189   -0.6490   -0.0876 C   0  0  0  0  0  0  0  0  0  0  0  0
    2.8559    0.5381    0.0034 C   0  0  0  0  0  0  0  0  0  0  0  0
    1.4943    0.4553    0.1603 C   0  0  0  0  0  0  0  0  0  0  0  0
   -1.3100    0.2717    0.6187 N   0  0  0  0  0  0  0  0  0  0  0  0
   -2.5429    0.5930    0.1374 C   0  0  0  0  0  0  0  0  0  0  0  0
   -3.0354    1.7509    0.5883 N   0  0  0  0  0  0  0  0  0  0  0  0
   -4.2207    2.1072    0.1253 C   0  0  0  0  0  0  0  0  0  0  0  0
   -4.9360    1.3358   -0.7786 C   0  0  0  0  0  0  0  0  0  0  0  0
   -4.3255    0.1588   -1.1747 C   0  0  0  0  0  0  0  0  0  0  0  0
   -3.1371   -0.2217   -0.7285 N   0  0  0  0  0  0  0  0  0  0  0  0
    3.5110    1.8753   -0.0659 C   0  0  0  0  0  0  0  0  0  0  0  0
    3.1315    2.9069    0.5864 N   0  0  0  0  0  0  0  0  0  0  0  0
    4.6139    1.9300   -0.8643 N   0  0  0  0  0  0  0  0  0  0  0  0
   -0.8899   -4.2684    0.2945 H   0  0  0  0  0  0  0  0  0  0  0  0
    1.5595   -4.1345    0.0358 H   0  0  0  0  0  0  0  0  0  0  0  0
   -2.2332   -2.2363    0.5754 H   0  0  0  0  0  0  0  0  0  0  0  0
    3.5951   -2.7735   -0.1049 H   0  0  0  0  0  0  0  0  0  0  0  0
    4.6944   -0.5939   -0.1918 H   0  0  0  0  0  0  0  0  0  0  0  0
    0.9141    1.3689    0.1834 H   0  0  0  0  0  0  0  0  0  0  0  0
   -0.9085    0.9723    1.2225 H   0  0  0  0  0  0  0  0  0  0  0  0
   -4.6184    3.0476    0.4903 H   0  0  0  0  0  0  0  0  0  0  0  0
   -5.9054    1.6328   -1.1482 H   0  0  0  0  0  0  0  0  0  0  0  0
   -4.8085   -0.5068   -1.8816 H   0  0  0  0  0  0  0  0  0  0  0  0
    2.3716    2.6768    1.2159 H   0  0  0  0  0  0  0  0  0  0  0  0
    5.0058    2.8451   -1.0214 H   0  0  0  0  0  0  0  0  0  0  0  0
    4.6650    1.3146   -1.6590 H   0  0  0  0  0  0  0  0  0  0  0  0
  1  2  2  0
  1  6  1  0
  1 21  1  0
  2  3  1  0
  2 22  1  0
  3  4  2  0
  3  7  1  0
  4  5  1  0
  4 10  1  0
  5  6  2  0
  5 11  1  0
  6 23  1  0
  7  8  2  0
  7 24  1  0
  8  9  1  0
  8 25  1  0
  9 10  2  0
  9 18  1  0
 10 26  1  0
 11 12  1  0
 11 27  1  0
 12 13  2  0
 12 17  1  0
 13 14  1  0
 14 15  2  0
 14 28  1  0
 15 16  1  0
 15 29  1  0
 16 17  2  0
 16 30  1  0
 18 19  2  0
 18 20  1  0
 19 31  1  0
 20 32  1  0
 20 33  1  0
M  END
