
     RDKit          3D

 34 35  0  0  0  0  0  0  0  0999 V2000
    1.8250    0.1349   -2.7767 P   0  0  1  0  0  0  0  0  0  0  0  0
    1.3543    0.9065   -4.0982 O   0  0  0  0  0  0  0  0  0  0  0  0
    2.4430   -1.2619   -3.2311 O   0  0  0  0  0  0  0  0  0  0  0  0
    2.6609    1.0264   -1.9565 O   0  0  0  0  0  0  0  0  0  0  0  0
    0.5023   -0.4466   -2.0952 O   0  0  0  0  0  0  0  0  0  0  0  0
   -0.4686    0.4685   -1.5818 C   0  0  0  0  0  0  0  0  0  0  0  0
   -1.7044   -0.3336   -1.2309 C   0  0  1  0  0  0  0  0  0  0  0  0
   -1.4392   -1.2652   -0.1842 O   0  0  0  0  0  0  0  0  0  0  0  0
   -2.8409    0.5322   -0.7063 C   0  0  1  0  0  0  0  0  0  0  0  0
   -4.0449   -0.1567   -0.8967 O   0  0  0  0  0  0  0  0  0  0  0  0
   -2.4892    0.6143    0.7820 C   0  0  1  0  0  0  0  0  0  0  0  0
   -3.5879    0.8098    1.6267 O   0  0  0  0  0  0  0  0  0  0  0  0
   -1.8804   -0.7694    1.0405 C   0  0  2  0  0  0  0  0  0  0  0  0
   -0.7895   -0.7173    1.9902 N   0  0  0  0  0  0  0  0  0  0  0  0
   -0.5311   -1.5582    3.0035 C   0  0  0  0  0  0  0  0  0  0  0  0
    0.5876   -1.2159    3.5865 N   0  0  0  0  0  0  0  0  0  0  0  0
    0.9896   -0.1428    2.8672 C   0  0  0  0  0  0  0  0  0  0  0  0
    2.2337    0.6261    3.1526 C   0  0  0  0  0  0  0  0  0  0  0  0
    2.5405    1.6038    2.5014 O   0  0  0  0  0  0  0  0  0  0  0  0
    2.9410    0.1265    4.1780 N   0  0  0  0  0  0  0  0  0  0  0  0
    0.1814    0.1841    1.8895 N   0  0  0  0  0  0  0  0  0  0  0  0
    0.8342    0.3897   -4.7246 H   0  0  0  0  0  0  0  0  0  0  0  0
    3.3122   -1.1735   -3.6423 H   0  0  0  0  0  0  0  0  0  0  0  0
   -0.7357    1.2150   -2.3354 H   0  0  0  0  0  0  0  0  0  0  0  0
   -0.0610    0.9894   -0.7119 H   0  0  0  0  0  0  0  0  0  0  0  0
   -2.0189   -0.8984   -2.1124 H   0  0  0  0  0  0  0  0  0  0  0  0
   -2.8570    1.5245   -1.1771 H   0  0  0  0  0  0  0  0  0  0  0  0
   -4.6718    0.1531   -0.2327 H   0  0  0  0  0  0  0  0  0  0  0  0
   -1.7246    1.3839    0.9322 H   0  0  0  0  0  0  0  0  0  0  0  0
   -3.7460    1.7551    1.7189 H   0  0  0  0  0  0  0  0  0  0  0  0
   -2.6183   -1.4490    1.4786 H   0  0  0  0  0  0  0  0  0  0  0  0
   -1.1777   -2.3784    3.2762 H   0  0  0  0  0  0  0  0  0  0  0  0
    3.7916    0.5753    4.4720 H   0  0  0  0  0  0  0  0  0  0  0  0
    2.6260   -0.6822    4.6863 H   0  0  0  0  0  0  0  0  0  0  0  0
  1  2  1  6
  1  3  1  0
  1  4  2  0
  1  5  1  0
  2 22  1  0
  3 23  1  0
  5  6  1  0
  6  7  1  0
  6 24  1  0
  6 25  1  0
  7  8  1  0
  7  9  1  0
  7 26  1  6
  8 13  1  0
  9 10  1  0
  9 11  1  0
  9 27  1  6
 10 28  1  0
 11 12  1  0
 11 13  1  0
 11 29  1  6
 12 30  1  0
 13 14  1  0
 13 31  1  1
 14 15  1  0
 14 21  1  0
 15 16  2  0
 15 32  1  0
 16 17  1  0
 17 18  1  0
 17 21  2  0
 18 19  2  0
 18 20  1  0
 20 33  1  0
 20 34  1  0
M  END
