
     RDKit          3D

 53 55  0  0  0  0  0  0  0  0999 V2000
   -1.0486   -2.2630   -1.2601 C   0  0  0  0  0  0  0  0  0  0  0  0
   -0.1407   -3.4639   -1.0842 C   0  0  0  0  0  0  0  0  0  0  0  0
   -0.8240   -4.5232   -0.3725 N   0  0  0  0  0  0  0  0  0  0  0  0
    0.0042   -5.6997   -0.2395 C   0  0  0  0  0  0  0  0  0  0  0  0
   -1.3032   -4.0556    0.9120 C   0  0  0  0  0  0  0  0  0  0  0  0
   -2.2306   -2.8673    0.7408 C   0  0  0  0  0  0  0  0  0  0  0  0
   -1.5172   -1.8073    0.0484 N   0  0  0  0  0  0  0  0  0  0  0  0
   -2.1041   -0.5302    0.0499 C   0  0  0  0  0  0  0  0  0  0  0  0
   -3.4749   -0.3136    0.0467 C   0  0  0  0  0  0  0  0  0  0  0  0
   -3.9949    0.9711    0.0556 C   0  0  0  0  0  0  0  0  0  0  0  0
   -3.1337    2.0627    0.0634 C   0  0  0  0  0  0  0  0  0  0  0  0
   -3.6252    3.4626    0.0677 C   0  0  0  0  0  0  0  0  0  0  0  0
   -2.9022    4.4306    0.0483 O   0  0  0  0  0  0  0  0  0  0  0  0
   -4.9458    3.5400    0.0975 O   0  0  0  0  0  0  0  0  0  0  0  0
   -5.5312    4.8418    0.1046 C   0  0  0  0  0  0  0  0  0  0  0  0
   -1.7533    1.8652    0.0859 C   0  0  0  0  0  0  0  0  0  0  0  0
   -1.2337    0.5801    0.0904 C   0  0  0  0  0  0  0  0  0  0  0  0
    0.1197    0.2709    0.1994 N   0  0  0  0  0  0  0  0  0  0  0  0
    1.1999    1.0546   -0.0257 C   0  0  0  0  0  0  0  0  0  0  0  0
    1.1296    2.2092   -0.4107 O   0  0  0  0  0  0  0  0  0  0  0  0
    2.5175    0.3837    0.2043 C   0  0  0  0  0  0  0  0  0  0  0  0
    3.6219    0.9195   -0.4413 C   0  0  0  0  0  0  0  0  0  0  0  0
    2.6717   -0.7264    1.0381 C   0  0  0  0  0  0  0  0  0  0  0  0
    3.9275   -1.2855    1.1963 C   0  0  0  0  0  0  0  0  0  0  0  0
    5.0361   -0.7650    0.5409 C   0  0  0  0  0  0  0  0  0  0  0  0
    4.8838    0.3476   -0.2841 C   0  0  0  0  0  0  0  0  0  0  0  0
    5.8857    0.9341   -0.9610 O   0  0  0  0  0  0  0  0  0  0  0  0
    7.1906    0.4020   -0.8376 C   0  0  0  0  0  0  0  0  0  0  0  0
   -0.4994   -1.4636   -1.7592 H   0  0  0  0  0  0  0  0  0  0  0  0
   -1.8977   -2.5274   -1.9057 H   0  0  0  0  0  0  0  0  0  0  0  0
    0.1614   -3.8288   -2.0688 H   0  0  0  0  0  0  0  0  0  0  0  0
    0.7813   -3.1467   -0.5631 H   0  0  0  0  0  0  0  0  0  0  0  0
    0.9232   -5.5206    0.3403 H   0  0  0  0  0  0  0  0  0  0  0  0
   -0.5533   -6.4947    0.2578 H   0  0  0  0  0  0  0  0  0  0  0  0
    0.2990   -6.0625   -1.2252 H   0  0  0  0  0  0  0  0  0  0  0  0
   -1.8498   -4.8628    1.4044 H   0  0  0  0  0  0  0  0  0  0  0  0
   -0.4735   -3.7694    1.5821 H   0  0  0  0  0  0  0  0  0  0  0  0
   -3.1292   -3.1862    0.1943 H   0  0  0  0  0  0  0  0  0  0  0  0
   -2.5449   -2.5071    1.7211 H   0  0  0  0  0  0  0  0  0  0  0  0
   -4.1520   -1.1572    0.0266 H   0  0  0  0  0  0  0  0  0  0  0  0
   -5.0673    1.1030    0.0434 H   0  0  0  0  0  0  0  0  0  0  0  0
   -5.2246    5.4098    0.9824 H   0  0  0  0  0  0  0  0  0  0  0  0
   -5.2709    5.3994   -0.7946 H   0  0  0  0  0  0  0  0  0  0  0  0
   -6.6052    4.6847    0.1336 H   0  0  0  0  0  0  0  0  0  0  0  0
   -1.0953    2.7183    0.1237 H   0  0  0  0  0  0  0  0  0  0  0  0
    0.2631   -0.7055    0.4276 H   0  0  0  0  0  0  0  0  0  0  0  0
    3.5111    1.7845   -1.0829 H   0  0  0  0  0  0  0  0  0  0  0  0
    1.8439   -1.1440    1.5967 H   0  0  0  0  0  0  0  0  0  0  0  0
    4.0528   -2.1410    1.8464 H   0  0  0  0  0  0  0  0  0  0  0  0
    6.0003   -1.2319    0.6878 H   0  0  0  0  0  0  0  0  0  0  0  0
    7.2452   -0.6323   -1.1870 H   0  0  0  0  0  0  0  0  0  0  0  0
    7.8342    1.0164   -1.4619 H   0  0  0  0  0  0  0  0  0  0  0  0
    7.5525    0.4467    0.1928 H   0  0  0  0  0  0  0  0  0  0  0  0
 28 27  1  0
 15 14  1  0
 13 12  2  0
 27 26  1  0
 12 14  1  0
 12 11  1  0
 26 22  2  0
 26 25  1  0
 22 21  1  0
 16 11  2  0
 16 17  1  0
 11 10  1  0
 25 24  2  0
 18 17  1  0
 18 19  1  0
 17  8  2  0
 21 19  1  0
 21 23  2  0
 10  9  2  0
 19 20  2  0
 24 23  1  0
  8  9  1  0
  8  7  1  0
  7  1  1  0
  7  6  1  0
  1  2  1  0
  6  5  1  0
  2  3  1  0
  5  3  1  0
  3  4  1  0
  1 29  1  0
  1 30  1  0
  2 31  1  0
  2 32  1  0
  4 33  1  0
  4 34  1  0
  4 35  1  0
  5 36  1  0
  5 37  1  0
  6 38  1  0
  6 39  1  0
  9 40  1  0
 10 41  1  0
 15 42  1  0
 15 43  1  0
 15 44  1  0
 16 45  1  0
 18 46  1  0
 22 47  1  0
 23 48  1  0
 24 49  1  0
 25 50  1  0
 28 51  1  0
 28 52  1  0
 28 53  1  0
M  END
