
     RDKit          3D

 44 45  0  0  0  0  0  0  0  0999 V2000
   -7.1717    1.1032    0.3483 O   0  0  0  0  0  0  0  0  0  0  0  0
   -7.1450   -0.2997    0.4925 C   0  0  0  0  0  0  0  0  0  0  0  0
   -5.9912   -0.9170   -0.2733 C   0  0  0  0  0  0  0  0  0  0  0  0
   -4.7288   -0.3507    0.1667 N   0  0  0  0  0  0  0  0  0  0  0  0
   -4.7689    1.0928    0.0139 C   0  0  0  0  0  0  0  0  0  0  0  0
   -5.9508    1.6686    0.7708 C   0  0  0  0  0  0  0  0  0  0  0  0
   -3.6139   -0.9673   -0.5286 C   0  0  0  0  0  0  0  0  0  0  0  0
   -2.2482   -0.5752    0.0162 C   0  0  0  0  0  0  0  0  0  0  0  0
   -1.1239   -1.3438   -0.6677 C   0  0  0  0  0  0  0  0  0  0  0  0
    0.2545   -0.9533   -0.1518 C   0  0  0  0  0  0  0  0  0  0  0  0
    1.3829   -1.6943   -0.8677 C   0  0  0  0  0  0  0  0  0  0  0  0
    2.7388   -1.3329   -0.3309 C   0  0  0  0  0  0  0  0  0  0  0  0
    3.1303   -0.0754   -0.4631 N   0  0  0  0  0  0  0  0  0  0  0  0
    4.3069    0.3212    0.0130 C   0  0  0  0  0  0  0  0  0  0  0  0
    5.1778   -0.5666    0.6598 C   0  0  0  0  0  0  0  0  0  0  0  0
    4.7768   -1.8896    0.8012 C   0  0  0  0  0  0  0  0  0  0  0  0
    3.5470   -2.2751    0.3054 C   0  0  0  0  0  0  0  0  0  0  0  0
    6.3548   -0.1051    1.1150 O   0  0  0  0  0  0  0  0  0  0  0  0
    4.6912    1.7274   -0.1419 C   0  0  0  0  0  0  0  0  0  0  0  0
    3.8942    2.5537   -0.6852 N   0  0  0  0  0  0  0  0  0  0  0  0
    4.4136    3.8105   -0.7403 O   0  0  0  0  0  0  0  0  0  0  0  0
   -7.0651   -0.5748    1.5539 H   0  0  0  0  0  0  0  0  0  0  0  0
   -8.0938   -0.6861    0.1171 H   0  0  0  0  0  0  0  0  0  0  0  0
   -5.9864   -1.9957   -0.0958 H   0  0  0  0  0  0  0  0  0  0  0  0
   -6.1479   -0.7701   -1.3567 H   0  0  0  0  0  0  0  0  0  0  0  0
   -3.8591    1.5408    0.4173 H   0  0  0  0  0  0  0  0  0  0  0  0
   -4.8307    1.3883   -1.0487 H   0  0  0  0  0  0  0  0  0  0  0  0
   -6.0127    2.7448    0.6016 H   0  0  0  0  0  0  0  0  0  0  0  0
   -5.8055    1.5051    1.8484 H   0  0  0  0  0  0  0  0  0  0  0  0
   -3.7276   -2.0515   -0.4305 H   0  0  0  0  0  0  0  0  0  0  0  0
   -3.6482   -0.7519   -1.6119 H   0  0  0  0  0  0  0  0  0  0  0  0
   -2.0738    0.4958   -0.1210 H   0  0  0  0  0  0  0  0  0  0  0  0
   -2.2236   -0.7601    1.0946 H   0  0  0  0  0  0  0  0  0  0  0  0
   -1.2727   -2.4197   -0.5266 H   0  0  0  0  0  0  0  0  0  0  0  0
   -1.1704   -1.1699   -1.7484 H   0  0  0  0  0  0  0  0  0  0  0  0
    0.4005    0.1236   -0.2730 H   0  0  0  0  0  0  0  0  0  0  0  0
    0.3136   -1.1533    0.9229 H   0  0  0  0  0  0  0  0  0  0  0  0
    1.2327   -2.7729   -0.7758 H   0  0  0  0  0  0  0  0  0  0  0  0
    1.3412   -1.4645   -1.9369 H   0  0  0  0  0  0  0  0  0  0  0  0
    5.4200   -2.6081    1.2971 H   0  0  0  0  0  0  0  0  0  0  0  0
    3.2168   -3.3003    0.4087 H   0  0  0  0  0  0  0  0  0  0  0  0
    6.8620   -0.8157    1.5239 H   0  0  0  0  0  0  0  0  0  0  0  0
    5.6655    2.0433    0.2238 H   0  0  0  0  0  0  0  0  0  0  0  0
    3.7231    4.3361   -1.1584 H   0  0  0  0  0  0  0  0  0  0  0  0
 21 20  1  0
 20 19  2  0
 19 14  1  0
 18 15  1  0
 14 15  1  0
 14 13  2  0
 15 16  2  0
 13 12  1  0
 16 17  1  0
 12 17  2  0
 12 11  1  0
 11 10  1  0
 10  9  1  0
  9  8  1  0
  8  7  1  0
  7  4  1  0
  5  4  1  0
  5  6  1  0
  4  3  1  0
  3  2  1  0
  6  1  1  0
  1  2  1  0
  2 22  1  0
  2 23  1  0
  3 24  1  0
  3 25  1  0
  5 26  1  0
  5 27  1  0
  6 28  1  0
  6 29  1  0
  7 30  1  0
  7 31  1  0
  8 32  1  0
  8 33  1  0
  9 34  1  0
  9 35  1  0
 10 36  1  0
 10 37  1  0
 11 38  1  0
 11 39  1  0
 16 40  1  0
 17 41  1  0
 18 42  1  0
 19 43  1  0
 21 44  1  0
M  END
