
     RDKit          3D

 43 46  0  0  0  0  0  0  0  0999 V2000
    8.6578   -6.5702   -0.3547 C   0  0  0  0  0  0  0  0  0  0  0  0
    8.4685   -7.6322   -1.2451 C   0  0  0  0  0  0  0  0  0  0  0  0
    9.0078   -8.8594   -0.9304 C   0  0  0  0  0  0  0  0  0  0  0  0
    8.7805  -10.1871   -2.0221 Cl  0  0  0  0  0  0  0  0  0  0  0  0
    9.7379   -9.0748    0.2430 C   0  0  0  0  0  0  0  0  0  0  0  0
    9.9354   -8.0334    1.1255 C   0  0  0  0  0  0  0  0  0  0  0  0
    9.3964   -6.7871    0.8202 C   0  0  0  0  0  0  0  0  0  0  0  0
    9.5204   -5.3395    1.7594 S   0  0  0  0  0  0  0  0  0  0  0  0
    8.5978   -4.4617    0.5993 C   0  0  0  0  0  0  0  0  0  0  0  0
    8.1895   -5.2119   -0.4523 C   0  0  0  0  0  0  0  0  0  0  0  0
    7.3854   -4.7025   -1.6146 C   0  0  2  0  0  0  0  0  0  0  0  0
    8.4619   -3.6898   -2.6841 P   0  0  1  0  0  0  0  0  0  0  0  0
    7.4186   -3.2931   -3.8355 O   0  0  0  0  0  0  0  0  0  0  0  0
    9.1988   -2.5664   -2.0643 O   0  0  0  0  0  0  0  0  0  0  0  0
    9.3912   -4.8375   -3.3118 O   0  0  0  0  0  0  0  0  0  0  0  0
    6.1819   -3.8895   -1.1571 C   0  0  0  0  0  0  0  0  0  0  0  0
    6.3165   -2.7761   -0.6883 O   0  0  0  0  0  0  0  0  0  0  0  0
    5.0056   -4.5350   -1.3102 N   0  0  0  0  0  0  0  0  0  0  0  0
    3.7075   -4.1196   -0.9857 C   0  0  0  0  0  0  0  0  0  0  0  0
    2.6862   -4.9969   -1.2684 C   0  0  0  0  0  0  0  0  0  0  0  0
    1.3448   -4.6769   -0.9803 C   0  0  0  0  0  0  0  0  0  0  0  0
    0.2844   -5.5701   -1.2698 C   0  0  0  0  0  0  0  0  0  0  0  0
   -1.0080   -5.2315   -0.9771 C   0  0  0  0  0  0  0  0  0  0  0  0
   -1.3058   -3.9858   -0.3823 C   0  0  0  0  0  0  0  0  0  0  0  0
   -0.3011   -3.1040   -0.0920 C   0  0  0  0  0  0  0  0  0  0  0  0
    1.0446   -3.4264   -0.3831 C   0  0  0  0  0  0  0  0  0  0  0  0
    2.1124   -2.5459   -0.1035 C   0  0  0  0  0  0  0  0  0  0  0  0
    3.4098   -2.8681   -0.3912 C   0  0  0  0  0  0  0  0  0  0  0  0
    7.9099   -7.5029   -2.1626 H   0  0  0  0  0  0  0  0  0  0  0  0
   10.1462  -10.0526    0.4577 H   0  0  0  0  0  0  0  0  0  0  0  0
   10.5004   -8.1914    2.0344 H   0  0  0  0  0  0  0  0  0  0  0  0
    8.4017   -3.4143    0.7674 H   0  0  0  0  0  0  0  0  0  0  0  0
    7.0597   -5.5527   -2.2201 H   0  0  0  0  0  0  0  0  0  0  0  0
    7.6499   -2.4896   -4.3213 H   0  0  0  0  0  0  0  0  0  0  0  0
   10.3173   -4.5795   -3.4114 H   0  0  0  0  0  0  0  0  0  0  0  0
    5.0531   -5.4573   -1.7157 H   0  0  0  0  0  0  0  0  0  0  0  0
    2.9078   -5.9569   -1.7224 H   0  0  0  0  0  0  0  0  0  0  0  0
    0.5116   -6.5253   -1.7276 H   0  0  0  0  0  0  0  0  0  0  0  0
   -1.8119   -5.9203   -1.2022 H   0  0  0  0  0  0  0  0  0  0  0  0
   -2.3335   -3.7315   -0.1590 H   0  0  0  0  0  0  0  0  0  0  0  0
   -0.5269   -2.1468    0.3626 H   0  0  0  0  0  0  0  0  0  0  0  0
    1.8951   -1.5875    0.3524 H   0  0  0  0  0  0  0  0  0  0  0  0
    4.1934   -2.1650   -0.1643 H   0  0  0  0  0  0  0  0  0  0  0  0
  1 10  1  0
  1  7  1  0
  1  2  2  0
  2  3  1  0
  2 29  1  0
  3  5  2  0
  3  4  1  0
  5  6  1  0
  5 30  1  0
  6  7  2  0
  6 31  1  0
  7  8  1  0
  8  9  1  0
  9 10  2  0
  9 32  1  0
 10 11  1  0
 11 16  1  0
 11 12  1  0
 11 33  1  6
 12 14  2  0
 12 13  1  6
 12 15  1  0
 13 34  1  0
 15 35  1  0
 16 17  2  0
 16 18  1  0
 18 19  1  0
 18 36  1  0
 19 28  1  0
 19 20  2  0
 20 21  1  0
 20 37  1  0
 21 26  2  0
 21 22  1  0
 22 23  2  0
 22 38  1  0
 23 24  1  0
 23 39  1  0
 24 25  2  0
 24 40  1  0
 25 26  1  0
 25 41  1  0
 26 27  1  0
 27 28  2  0
 27 42  1  0
 28 43  1  0
M  END
