
     RDKit          3D

 22 21  0  0  0  0  0  0  0  0999 V2000
    2.8852    0.4182   -0.1290 N   0  0  0  0  0  0  0  0  0  0  0  0
    1.6362   -0.3202    0.0188 C   0  0  0  0  0  0  0  0  0  0  0  0
    0.4511    0.6266   -0.1163 C   0  0  0  0  0  0  0  0  0  0  0  0
   -0.9478   -0.0009   -0.0000 C   0  0  1  0  0  0  0  0  0  0  0  0
   -1.1386   -1.0991   -1.0484 C   0  0  0  0  0  0  0  0  0  0  0  0
   -1.1780   -0.5791    1.3981 C   0  0  0  0  0  0  0  0  0  0  0  0
   -1.9808    1.1017   -0.2471 C   0  0  0  0  0  0  0  0  0  0  0  0
    2.9957    1.0465    0.6580 H   0  0  0  0  0  0  0  0  0  0  0  0
    1.5999   -1.0731   -0.7719 H   0  0  0  0  0  0  0  0  0  0  0  0
    1.5721   -0.8686    0.9686 H   0  0  0  0  0  0  0  0  0  0  0  0
    0.5429    1.4111    0.6455 H   0  0  0  0  0  0  0  0  0  0  0  0
    0.5295    1.1327   -1.0852 H   0  0  0  0  0  0  0  0  0  0  0  0
   -0.4800   -1.9516   -0.8742 H   0  0  0  0  0  0  0  0  0  0  0  0
   -2.1643   -1.4739   -1.0341 H   0  0  0  0  0  0  0  0  0  0  0  0
   -0.9367   -0.7242   -2.0546 H   0  0  0  0  0  0  0  0  0  0  0  0
   -1.0527    0.1880    2.1662 H   0  0  0  0  0  0  0  0  0  0  0  0
   -2.1920   -0.9749    1.4897 H   0  0  0  0  0  0  0  0  0  0  0  0
   -0.4884   -1.3932    1.6269 H   0  0  0  0  0  0  0  0  0  0  0  0
   -1.8631    1.5402   -1.2407 H   0  0  0  0  0  0  0  0  0  0  0  0
   -2.9982    0.7101   -0.1754 H   0  0  0  0  0  0  0  0  0  0  0  0
   -1.8827    1.9063    0.4852 H   0  0  0  0  0  0  0  0  0  0  0  0
    3.6652   -0.2242   -0.0732 H   0  0  0  0  0  0  0  0  0  0  0  0
  4  7  1  6
  3  4  1  0
  3  2  1  0
  4  6  1  0
  4  5  1  0
  1  2  1  0
  1  8  1  0
  2  9  1  0
  2 10  1  0
  3 11  1  0
  3 12  1  0
  5 13  1  0
  5 14  1  0
  5 15  1  0
  6 16  1  0
  6 17  1  0
  6 18  1  0
  7 19  1  0
  7 20  1  0
  7 21  1  0
  1 22  1  0
M  END
