
     RDKit          3D

 24 25  0  0  0  0  0  0  0  0999 V2000
    2.0345   -0.1167   -0.0347 C   0  0  0  0  0  0  0  0  0  0  0  0
    0.7121    0.3128   -0.0488 C   0  0  0  0  0  0  0  0  0  0  0  0
   -0.3371   -0.5931    0.0766 C   0  0  0  0  0  0  0  0  0  0  0  0
   -1.7363   -0.1100    0.0511 C   0  0  0  0  0  0  0  0  0  0  0  0
   -2.7948   -0.9418   -0.3134 C   0  0  0  0  0  0  0  0  0  0  0  0
   -4.0818   -0.4299   -0.3125 C   0  0  0  0  0  0  0  0  0  0  0  0
    4.3203    0.3886   -0.1649 O   0  0  0  0  0  0  0  0  0  0  0  0
   -1.9305    1.1663    0.3805 N   0  0  0  0  0  0  0  0  0  0  0  0
    3.1008    0.9060   -0.1883 C   0  0  0  0  0  0  0  0  0  0  0  0
    2.8856    2.0869   -0.3216 O   0  0  0  0  0  0  0  0  0  0  0  0
    1.2846   -2.3784    0.2551 C   0  0  0  0  0  0  0  0  0  0  0  0
    2.3233   -1.4720    0.1187 C   0  0  0  0  0  0  0  0  0  0  0  0
   -4.2791    0.8952    0.0424 C   0  0  0  0  0  0  0  0  0  0  0  0
   -3.1637    1.6500    0.3745 C   0  0  0  0  0  0  0  0  0  0  0  0
   -0.0324   -1.9458    0.2337 C   0  0  0  0  0  0  0  0  0  0  0  0
    0.4923    1.3650   -0.1658 H   0  0  0  0  0  0  0  0  0  0  0  0
   -2.6224   -1.9671   -0.6097 H   0  0  0  0  0  0  0  0  0  0  0  0
   -4.9177   -1.0578   -0.5913 H   0  0  0  0  0  0  0  0  0  0  0  0
    4.9803    1.0898   -0.2718 H   0  0  0  0  0  0  0  0  0  0  0  0
    1.5008   -3.4301    0.3849 H   0  0  0  0  0  0  0  0  0  0  0  0
    3.3442   -1.8269    0.1374 H   0  0  0  0  0  0  0  0  0  0  0  0
   -5.2656    1.3369    0.0586 H   0  0  0  0  0  0  0  0  0  0  0  0
   -3.2730    2.6930    0.6508 H   0  0  0  0  0  0  0  0  0  0  0  0
   -0.8217   -2.6751    0.3602 H   0  0  0  0  0  0  0  0  0  0  0  0
 10  9  2  0
  9  7  1  0
  9  1  1  0
 12 11  1  0
 12  1  2  0
 11 15  2  0
  1  2  1  0
 15  3  1  0
  2  3  2  0
  3  4  1  0
  4  5  2  0
  4  8  1  0
  5  6  1  0
  8 14  2  0
  6 13  2  0
 14 13  1  0
  2 16  1  0
  5 17  1  0
  6 18  1  0
  7 19  1  0
 11 20  1  0
 12 21  1  0
 13 22  1  0
 14 23  1  0
 15 24  1  0
M  END
