
     RDKit          3D

 55 56  0  0  0  0  0  0  0  0999 V2000
   -3.2957    0.1261    1.4202 O   0  0  0  0  0  0  0  0  0  0  0  0
   -3.4586   -3.0630    0.1052 O   0  0  0  0  0  0  0  0  0  0  0  0
    3.8135   -0.1537    0.4268 C   0  0  0  0  0  0  0  0  0  0  0  0
    5.6519   -0.3145   -1.2829 C   0  0  0  0  0  0  0  0  0  0  0  0
    7.8691    0.5171   -0.8516 C   0  0  0  0  0  0  0  0  0  0  0  0
    7.4691    0.8927    0.4235 C   0  0  0  0  0  0  0  0  0  0  0  0
   -3.1576    1.3773   -0.6885 C   0  0  2  0  0  0  0  0  0  0  0  0
    6.1630    0.6662    0.8398 C   0  0  0  0  0  0  0  0  0  0  0  0
   -3.7379    0.9712    0.6579 C   0  0  0  0  0  0  0  0  0  0  0  0
   -1.3491   -0.8638   -1.5609 C   0  0  0  0  0  0  0  0  0  0  0  0
   -1.9714   -2.0126   -1.3137 C   0  0  0  0  0  0  0  0  0  0  0  0
   -2.2372   -2.5535    0.0403 C   0  0  0  0  0  0  0  0  0  0  0  0
    1.4278    0.5471    0.2372 C   0  0  0  0  0  0  0  0  0  0  0  0
   -3.9072   -3.5780    1.3676 C   0  0  0  0  0  0  0  0  0  0  0  0
   -1.4489   -2.5679    0.9531 O   0  0  0  0  0  0  0  0  0  0  0  0
   -5.3350   -4.0360    1.1951 C   0  0  0  0  0  0  0  0  0  0  0  0
   -0.8734    0.1535   -0.5656 C   0  0  2  0  0  0  0  0  0  0  0  0
   -1.6389    1.4734   -0.7511 C   0  0  0  0  0  0  0  0  0  0  0  0
   -3.8647    2.7007   -0.9848 C   0  0  0  0  0  0  0  0  0  0  0  0
   -5.1961    2.5800   -0.2437 C   0  0  0  0  0  0  0  0  0  0  0  0
   -4.8520    1.6973    0.8507 N   0  0  0  0  0  0  0  0  0  0  0  0
    0.5473    0.3752   -0.7644 N   0  0  0  0  0  0  0  0  0  0  0  0
    1.1248    0.4659    1.4195 O   0  0  0  0  0  0  0  0  0  0  0  0
    2.8483    0.8673   -0.1977 C   0  0  1  0  0  0  0  0  0  0  0  0
    3.1824    2.3007    0.2096 C   0  0  0  0  0  0  0  0  0  0  0  0
    5.2363    0.0626   -0.0064 C   0  0  0  0  0  0  0  0  0  0  0  0
    6.9548   -0.0899   -1.7044 C   0  0  0  0  0  0  0  0  0  0  0  0
    3.4961   -1.1610    0.1434 H   0  0  0  0  0  0  0  0  0  0  0  0
    4.9479   -0.7951   -1.9533 H   0  0  0  0  0  0  0  0  0  0  0  0
    8.8867    0.6913   -1.1768 H   0  0  0  0  0  0  0  0  0  0  0  0
    8.1745    1.3621    1.0976 H   0  0  0  0  0  0  0  0  0  0  0  0
   -3.5032    0.6187   -1.4026 H   0  0  0  0  0  0  0  0  0  0  0  0
    5.8599    0.9640    1.8368 H   0  0  0  0  0  0  0  0  0  0  0  0
   -1.2297   -0.5791   -2.6038 H   0  0  0  0  0  0  0  0  0  0  0  0
   -2.3500   -2.5959   -2.1459 H   0  0  0  0  0  0  0  0  0  0  0  0
   -3.2671   -4.4063    1.6791 H   0  0  0  0  0  0  0  0  0  0  0  0
   -3.8360   -2.7929    2.1224 H   0  0  0  0  0  0  0  0  0  0  0  0
   -5.7058   -4.4183    2.1456 H   0  0  0  0  0  0  0  0  0  0  0  0
   -5.9845   -3.2155    0.8895 H   0  0  0  0  0  0  0  0  0  0  0  0
   -5.4158   -4.8365    0.4596 H   0  0  0  0  0  0  0  0  0  0  0  0
   -1.0083   -0.2066    0.4488 H   0  0  0  0  0  0  0  0  0  0  0  0
   -1.3720    1.8914   -1.7273 H   0  0  0  0  0  0  0  0  0  0  0  0
   -1.2828    2.1863   -0.0018 H   0  0  0  0  0  0  0  0  0  0  0  0
   -3.2851    3.5280   -0.5673 H   0  0  0  0  0  0  0  0  0  0  0  0
   -3.9946    2.8868   -2.0493 H   0  0  0  0  0  0  0  0  0  0  0  0
   -5.5631    3.5379    0.1232 H   0  0  0  0  0  0  0  0  0  0  0  0
   -5.9737    2.1413   -0.8762 H   0  0  0  0  0  0  0  0  0  0  0  0
   -5.4798    1.5156    1.6185 H   0  0  0  0  0  0  0  0  0  0  0  0
    0.8678    0.5338   -1.7072 H   0  0  0  0  0  0  0  0  0  0  0  0
    2.9223    0.7881   -1.2874 H   0  0  0  0  0  0  0  0  0  0  0  0
    4.1731    2.5805   -0.1465 H   0  0  0  0  0  0  0  0  0  0  0  0
    2.4681    3.0082   -0.2134 H   0  0  0  0  0  0  0  0  0  0  0  0
    3.1701    2.4115    1.2945 H   0  0  0  0  0  0  0  0  0  0  0  0
    7.2578   -0.3932   -2.6984 H   0  0  0  0  0  0  0  0  0  0  0  0
    3.7409   -0.0908    1.5144 H   0  0  0  0  0  0  0  0  0  0  0  0
  1  9  2  0
  9 21  1  0
  9  7  1  0
 18  7  1  0
 18 17  1  0
 21 20  1  0
  7 19  1  0
 10 17  1  0
 10 11  2  0
 22 17  1  0
 22 13  1  0
 20 19  1  0
 24 13  1  0
 24 25  1  0
 24  3  1  0
  8  6  2  0
  8 26  1  0
 11 12  1  0
 13 23  2  0
  6  5  1  0
  3 26  1  0
 26  4  2  0
 15 12  2  0
 12  2  1  0
  5 27  2  0
  4 27  1  0
  2 14  1  0
 14 16  1  0
  3 55  1  0
  3 28  1  0
  4 29  1  0
  5 30  1  0
  6 31  1  0
  7 32  1  6
  8 33  1  0
 10 34  1  0
 11 35  1  0
 14 36  1  0
 14 37  1  0
 16 38  1  0
 16 39  1  0
 16 40  1  0
 17 41  1  1
 18 42  1  0
 18 43  1  0
 19 44  1  0
 19 45  1  0
 20 46  1  0
 20 47  1  0
 21 48  1  0
 22 49  1  0
 24 50  1  6
 25 51  1  0
 25 52  1  0
 25 53  1  0
 27 54  1  0
M  END
