
     RDKit          3D

 55 57  0  0  0  0  0  0  0  0999 V2000
   -4.4938    1.2059    0.3437 N   0  0  0  0  0  0  0  0  0  0  0  0
   -4.4936   -0.0271   -0.2018 C   0  0  0  0  0  0  0  0  0  0  0  0
   -3.4229   -0.8098   -0.3637 N   0  0  0  0  0  0  0  0  0  0  0  0
   -2.2615   -0.3389    0.0447 C   0  0  0  0  0  0  0  0  0  0  0  0
   -2.1410    0.9362    0.6321 C   0  0  0  0  0  0  0  0  0  0  0  0
   -3.3305    1.6563    0.7462 C   0  0  0  0  0  0  0  0  0  0  0  0
   -1.1417   -1.1116   -0.1038 N   0  0  0  0  0  0  0  0  0  0  0  0
    0.1157   -0.7060    0.3266 C   0  0  0  0  0  0  0  0  0  0  0  0
    0.2224    0.6289    0.9058 C   0  0  0  0  0  0  0  0  0  0  0  0
   -0.8742    1.4028    1.0571 C   0  0  0  0  0  0  0  0  0  0  0  0
   -1.2263   -2.4411   -0.6969 C   0  0  0  0  0  0  0  0  0  0  0  0
    1.0694   -1.4590    0.2153 O   0  0  0  0  0  0  0  0  0  0  0  0
    1.5640    1.0443    1.3433 C   0  0  0  0  0  0  0  0  0  0  0  0
    2.6065    1.1661    0.4386 C   0  0  0  0  0  0  0  0  0  0  0  0
    3.9060    1.4795    0.8103 C   0  0  0  0  0  0  0  0  0  0  0  0
    4.1627    1.7159    2.1556 C   0  0  0  0  0  0  0  0  0  0  0  0
    3.1518    1.6193    3.0958 C   0  0  0  0  0  0  0  0  0  0  0  0
    1.8803    1.2823    2.6733 C   0  0  0  0  0  0  0  0  0  0  0  0
    0.9086    1.1682    3.5833 F   0  0  0  0  0  0  0  0  0  0  0  0
    2.3458    0.9742   -0.8559 F   0  0  0  0  0  0  0  0  0  0  0  0
    4.9458    1.5488   -0.1445 N   0  0  0  0  0  0  0  0  0  0  0  0
   -5.6653   -0.5169   -0.6128 N   0  0  0  0  0  0  0  0  0  0  0  0
    5.9180    0.2077   -0.3496 S   0  0  1  0  0  0  0  0  0  0  0  0
    4.8729   -1.0876   -1.0081 C   0  0  0  0  0  0  0  0  0  0  0  0
    6.9011    0.5861   -1.3511 O   0  0  0  0  0  0  0  0  0  0  0  0
    6.3582   -0.1964    0.9758 O   0  0  0  0  0  0  0  0  0  0  0  0
    5.6413   -2.3892   -1.1988 C   0  0  0  0  0  0  0  0  0  0  0  0
    4.7174   -3.4739   -1.7368 C   0  0  0  0  0  0  0  0  0  0  0  0
   -6.9196    0.2018   -0.5588 C   0  0  0  0  0  0  0  0  0  0  0  0
   -8.0642   -0.7254   -0.9340 C   0  0  0  0  0  0  0  0  0  0  0  0
   -9.3938    0.0024   -0.8962 C   0  0  0  0  0  0  0  0  0  0  0  0
  -10.4105   -0.9014   -1.2690 O   0  0  0  0  0  0  0  0  0  0  0  0
   -3.3116    2.6472    1.1903 H   0  0  0  0  0  0  0  0  0  0  0  0
   -0.7990    2.3925    1.4924 H   0  0  0  0  0  0  0  0  0  0  0  0
   -0.5030   -2.5355   -1.5028 H   0  0  0  0  0  0  0  0  0  0  0  0
   -1.0224   -3.2052    0.0513 H   0  0  0  0  0  0  0  0  0  0  0  0
   -2.2234   -2.5884   -1.0910 H   0  0  0  0  0  0  0  0  0  0  0  0
    5.1634    1.9829    2.4634 H   0  0  0  0  0  0  0  0  0  0  0  0
    3.3492    1.7986    4.1436 H   0  0  0  0  0  0  0  0  0  0  0  0
    4.7223    2.0059   -1.0228 H   0  0  0  0  0  0  0  0  0  0  0  0
   -5.6426   -1.4152   -1.0692 H   0  0  0  0  0  0  0  0  0  0  0  0
    4.0480   -1.2199   -0.3054 H   0  0  0  0  0  0  0  0  0  0  0  0
    4.4714   -0.7177   -1.9529 H   0  0  0  0  0  0  0  0  0  0  0  0
    6.4700   -2.2328   -1.8911 H   0  0  0  0  0  0  0  0  0  0  0  0
    6.0692   -2.7085   -0.2473 H   0  0  0  0  0  0  0  0  0  0  0  0
    3.8833   -3.6558   -1.0578 H   0  0  0  0  0  0  0  0  0  0  0  0
    4.3037   -3.1972   -2.7073 H   0  0  0  0  0  0  0  0  0  0  0  0
    5.2586   -4.4115   -1.8591 H   0  0  0  0  0  0  0  0  0  0  0  0
   -7.0724    0.5954    0.4481 H   0  0  0  0  0  0  0  0  0  0  0  0
   -6.8957    1.0616   -1.2361 H   0  0  0  0  0  0  0  0  0  0  0  0
   -7.8984   -1.1264   -1.9386 H   0  0  0  0  0  0  0  0  0  0  0  0
   -8.0895   -1.5727   -0.2429 H   0  0  0  0  0  0  0  0  0  0  0  0
   -9.5617    0.4020    0.1127 H   0  0  0  0  0  0  0  0  0  0  0  0
   -9.3558    0.8645   -1.5754 H   0  0  0  0  0  0  0  0  0  0  0  0
  -11.2513   -0.4370   -1.2326 H   0  0  0  0  0  0  0  0  0  0  0  0
  6  1  2  0
  2  1  1  0
  3  2  2  0
  2 22  1  0
  4  3  1  0
  7  4  1  0
  4  5  2  0
 10  5  1  0
  5  6  1  0
  6 33  1  0
  8  7  1  0
 11  7  1  0
 12  8  2  0
  8  9  1  0
 13  9  1  0
  9 10  2  0
 10 34  1  0
 11 35  1  0
 11 36  1  0
 11 37  1  0
 14 13  2  0
 13 18  1  0
 20 14  1  0
 15 14  1  0
 21 15  1  0
 15 16  2  0
 16 17  1  0
 16 38  1  0
 17 18  2  0
 17 39  1  0
 18 19  1  0
 23 21  1  1
 21 40  1  0
 22 29  1  0
 22 41  1  0
 26 23  2  0
 23 24  1  0
 23 25  2  0
 27 24  1  0
 24 42  1  0
 24 43  1  0
 27 28  1  0
 27 44  1  0
 27 45  1  0
 28 46  1  0
 28 47  1  0
 28 48  1  0
 30 29  1  0
 29 49  1  0
 29 50  1  0
 31 30  1  0
 30 51  1  0
 30 52  1  0
 32 31  1  0
 31 53  1  0
 31 54  1  0
 32 55  1  0
M  END
