
     RDKit          3D

 34 33  0  0  0  0  0  0  0  0999 V2000
   -1.1473    1.1269   -1.6175 N   0  0  0  0  0  0  0  0  0  0  0  0
   -0.2363    2.2266   -1.8068 C   0  0  2  0  0  0  0  0  0  0  0  0
   -0.6103    2.9884   -3.0729 C   0  0  0  0  0  0  0  0  0  0  0  0
   -1.0232    2.5340   -4.1434 O   0  0  0  0  0  0  0  0  0  0  0  0
    1.2675    1.8864   -1.8849 C   0  0  0  0  0  0  0  0  0  0  0  0
    1.5590    0.6904   -2.7640 C   0  0  0  0  0  0  0  0  0  0  0  0
    2.9935    0.6682   -3.2847 C   0  0  0  0  0  0  0  0  0  0  0  0
    3.9681    0.3417   -2.2604 N   0  0  0  0  0  0  0  0  0  0  0  0
    5.3446    0.3138   -2.4538 C   0  0  0  0  0  0  0  0  0  0  0  0
    5.9190    0.6061   -3.6805 N   0  0  0  0  0  0  0  0  0  0  0  0
    6.2301   -0.0064   -1.4353 N   0  0  0  0  0  0  0  0  0  0  0  0
   -0.4538    4.3288   -2.9630 O   0  0  0  0  0  0  0  0  0  0  0  0
    5.8745   -0.3485   -0.0675 C   0  0  0  0  0  0  0  0  0  0  0  0
    7.0886   -0.5885    0.7730 C   0  0  0  0  0  0  0  0  0  0  0  0
    7.3896   -1.7829    1.2774 C   0  0  0  0  0  0  0  0  0  0  0  0
   -0.7890    0.4632   -0.9639 H   0  0  0  0  0  0  0  0  0  0  0  0
   -1.3960    0.6856   -2.4798 H   0  0  0  0  0  0  0  0  0  0  0  0
   -0.3769    2.9331   -0.9298 H   0  0  0  0  0  0  0  0  0  0  0  0
    1.6358    1.6966   -0.8433 H   0  0  0  0  0  0  0  0  0  0  0  0
    1.8051    2.7922   -2.2716 H   0  0  0  0  0  0  0  0  0  0  0  0
    0.8957    0.7175   -3.6771 H   0  0  0  0  0  0  0  0  0  0  0  0
    1.3298   -0.2604   -2.2142 H   0  0  0  0  0  0  0  0  0  0  0  0
    3.0579   -0.1026   -4.1086 H   0  0  0  0  0  0  0  0  0  0  0  0
    3.2402    1.6821   -3.7183 H   0  0  0  0  0  0  0  0  0  0  0  0
    3.5872    0.1253   -1.3638 H   0  0  0  0  0  0  0  0  0  0  0  0
    5.3809    0.8485   -4.4794 H   0  0  0  0  0  0  0  0  0  0  0  0
    6.9069    0.5777   -3.7863 H   0  0  0  0  0  0  0  0  0  0  0  0
    7.2073   -0.0072   -1.6429 H   0  0  0  0  0  0  0  0  0  0  0  0
   -0.7062    4.7632   -3.7974 H   0  0  0  0  0  0  0  0  0  0  0  0
    5.2883    0.5060    0.3856 H   0  0  0  0  0  0  0  0  0  0  0  0
    5.2182   -1.2683   -0.0800 H   0  0  0  0  0  0  0  0  0  0  0  0
    7.7538    0.2820    0.9006 H   0  0  0  0  0  0  0  0  0  0  0  0
    8.2589   -1.9307    1.9366 H   0  0  0  0  0  0  0  0  0  0  0  0
    6.8003   -2.6900    1.0776 H   0  0  0  0  0  0  0  0  0  0  0  0
  1  2  1  0
  1 16  1  0
  1 17  1  0
  2  3  1  0
  2  5  1  0
  2 18  1  1
  3  4  2  0
  3 12  1  0
  5  6  1  0
  5 19  1  0
  5 20  1  0
  6  7  1  0
  6 21  1  0
  6 22  1  0
  7  8  1  0
  7 23  1  0
  7 24  1  0
  8  9  1  0
  8 25  1  0
  9 10  1  0
  9 11  2  0
 10 26  1  0
 10 27  1  0
 11 13  1  0
 11 28  1  0
 12 29  1  0
 13 14  1  0
 13 30  1  0
 13 31  1  0
 14 15  2  0
 14 32  1  0
 15 33  1  0
 15 34  1  0
M  CHG  1  11   1
M  END
