
     RDKit          3D

 17 16  0  0  0  0  0  0  0  0999 V2000
    1.4490    1.5047   -0.2590 N   0  0  0  0  0  0  0  0  0  0  0  0
    0.7334    0.2557   -0.3516 C   0  0  2  0  0  0  0  0  0  0  0  0
   -0.7444    0.3634    0.0040 C   0  0  0  0  0  0  0  0  0  0  0  0
    1.3619   -0.8482    0.5319 C   0  0  0  0  0  0  0  0  0  0  0  0
    2.6026   -1.2674    0.0160 O   0  0  0  0  0  0  0  0  0  0  0  0
   -1.3421    1.3385    0.4652 O   0  0  0  0  0  0  0  0  0  0  0  0
   -2.8490   -0.7462    0.0409 C   0  0  0  0  0  0  0  0  0  0  0  0
   -1.4504   -0.7752   -0.2527 O   0  0  0  0  0  0  0  0  0  0  0  0
    1.0905    2.1691   -0.9164 H   0  0  0  0  0  0  0  0  0  0  0  0
    1.3853    1.8894    0.6640 H   0  0  0  0  0  0  0  0  0  0  0  0
    0.7896   -0.0993   -1.4263 H   0  0  0  0  0  0  0  0  0  0  0  0
    1.4708   -0.4936    1.5908 H   0  0  0  0  0  0  0  0  0  0  0  0
    0.7089   -1.7626    0.4971 H   0  0  0  0  0  0  0  0  0  0  0  0
    3.1931   -0.5029    0.0085 H   0  0  0  0  0  0  0  0  0  0  0  0
   -3.0046   -0.5553    1.1296 H   0  0  0  0  0  0  0  0  0  0  0  0
   -3.3471    0.0499   -0.5625 H   0  0  0  0  0  0  0  0  0  0  0  0
   -3.2005   -1.7657   -0.2526 H   0  0  0  0  0  0  0  0  0  0  0  0
  5  4  1  0
  4  2  1  0
  1  2  1  0
  2  3  1  0
  3  6  2  0
  3  8  1  0
  8  7  1  0
  1  9  1  0
  1 10  1  0
  2 11  1  6
  4 12  1  0
  4 13  1  0
  5 14  1  0
  7 15  1  0
  7 16  1  0
  7 17  1  0
M  END
