
     RDKit          3D

 15 15  0  0  0  0  0  0  0  0999 V2000
   -2.7419    0.3759   -0.0162 C   0  0  0  0  0  0  0  0  0  0  0  0
   -1.7515   -0.6361   -0.0196 O   0  0  0  0  0  0  0  0  0  0  0  0
   -0.4596   -0.2719   -0.0131 C   0  0  0  0  0  0  0  0  0  0  0  0
    0.4898   -1.2933   -0.0234 C   0  0  0  0  0  0  0  0  0  0  0  0
    1.8288   -0.9571   -0.0174 C   0  0  0  0  0  0  0  0  0  0  0  0
    2.1854    0.3864   -0.0016 C   0  0  0  0  0  0  0  0  0  0  0  0
    1.2888    1.3596    0.0087 N   0  0  0  0  0  0  0  0  0  0  0  0
   -0.0030    1.0459    0.0032 C   0  0  0  0  0  0  0  0  0  0  0  0
   -2.6725    1.0177   -0.8978 H   0  0  0  0  0  0  0  0  0  0  0  0
   -3.7015   -0.1342   -0.0302 H   0  0  0  0  0  0  0  0  0  0  0  0
   -2.6877    0.9972    0.8812 H   0  0  0  0  0  0  0  0  0  0  0  0
    0.1731   -2.3289   -0.0356 H   0  0  0  0  0  0  0  0  0  0  0  0
    2.5901   -1.7250   -0.0254 H   0  0  0  0  0  0  0  0  0  0  0  0
    3.2290    0.6792    0.0033 H   0  0  0  0  0  0  0  0  0  0  0  0
   -0.6931    1.8813    0.0120 H   0  0  0  0  0  0  0  0  0  0  0  0
  1  2  1  0
  2  3  1  0
  3  4  2  0
  3  8  1  0
  4  5  1  0
  5  6  2  0
  6  7  1  0
  7  8  2  0
  1  9  1  0
  1 10  1  0
  1 11  1  0
  4 12  1  0
  5 13  1  0
  6 14  1  0
  8 15  1  0
M  END
