
     RDKit          3D

 47 50  0  0  0  0  0  0  0  0999 V2000
    1.1950   -2.2273    0.8413 O   0  0  0  0  0  0  0  0  0  0  0  0
    1.4812   -1.1352    0.3701 C   0  0  0  0  0  0  0  0  0  0  0  0
    2.9065   -0.6987    0.2464 C   0  0  0  0  0  0  0  0  0  0  0  0
    3.2877    0.6399    0.2792 C   0  0  0  0  0  0  0  0  0  0  0  0
    4.6218    0.9983    0.1791 C   0  0  0  0  0  0  0  0  0  0  0  0
    5.5872    0.0088    0.0577 C   0  0  0  0  0  0  0  0  0  0  0  0
    6.9478    0.3658   -0.0430 N   0  0  0  0  0  0  0  0  0  0  0  0
    7.9075   -0.2186   -0.8068 C   0  0  0  0  0  0  0  0  0  0  0  0
    9.0424    0.3881   -0.6401 N   0  0  0  0  0  0  0  0  0  0  0  0
    8.8457    1.3925    0.2542 N   0  0  0  0  0  0  0  0  0  0  0  0
    7.5951    1.3721    0.6000 C   0  0  0  0  0  0  0  0  0  0  0  0
    5.2253   -1.3320    0.0412 C   0  0  0  0  0  0  0  0  0  0  0  0
    3.8895   -1.6784    0.1374 C   0  0  0  0  0  0  0  0  0  0  0  0
    0.5573   -0.2622   -0.0596 N   0  0  0  0  0  0  0  0  0  0  0  0
   -0.8601   -0.5511   -0.0095 C   0  0  0  0  0  0  0  0  0  0  0  0
   -1.6510    0.7296   -0.2287 C   0  0  0  0  0  0  0  0  0  0  0  0
   -3.1194    0.4886   -0.1739 C   0  0  0  0  0  0  0  0  0  0  0  0
   -3.9933    1.4739    0.1600 N   0  0  0  0  0  0  0  0  0  0  0  0
   -5.2548    0.9416    0.1035 C   0  0  0  0  0  0  0  0  0  0  0  0
   -6.5191    1.4631    0.3470 C   0  0  0  0  0  0  0  0  0  0  0  0
   -3.7153   -0.6412   -0.4431 N   0  0  0  0  0  0  0  0  0  0  0  0
   -5.0588   -0.3904   -0.2781 C   0  0  0  0  0  0  0  0  0  0  0  0
   -6.1613   -1.2302   -0.4283 C   0  0  0  0  0  0  0  0  0  0  0  0
   -7.4323   -0.7308   -0.1920 C   0  0  0  0  0  0  0  0  0  0  0  0
   -8.6298   -1.6255   -0.3469 C   0  0  0  0  0  0  0  0  0  0  0  0
   -7.6109    0.6205    0.1998 C   0  0  0  0  0  0  0  0  0  0  0  0
   -8.9933    1.1427    0.4675 C   0  0  0  0  0  0  0  0  0  0  0  0
    2.5538    1.4263    0.3965 H   0  0  0  0  0  0  0  0  0  0  0  0
    4.8982    2.0445    0.1875 H   0  0  0  0  0  0  0  0  0  0  0  0
    7.7216   -1.0509   -1.4670 H   0  0  0  0  0  0  0  0  0  0  0  0
    7.1190    2.0300    1.3098 H   0  0  0  0  0  0  0  0  0  0  0  0
    5.9786   -2.1055   -0.0239 H   0  0  0  0  0  0  0  0  0  0  0  0
    3.6137   -2.7241    0.1324 H   0  0  0  0  0  0  0  0  0  0  0  0
    0.8518    0.5324   -0.6045 H   0  0  0  0  0  0  0  0  0  0  0  0
   -1.1312   -1.2954   -0.7619 H   0  0  0  0  0  0  0  0  0  0  0  0
   -1.1040   -0.9741    0.9651 H   0  0  0  0  0  0  0  0  0  0  0  0
   -1.3759    1.4731    0.5232 H   0  0  0  0  0  0  0  0  0  0  0  0
   -1.3979    1.1635   -1.2022 H   0  0  0  0  0  0  0  0  0  0  0  0
   -3.7484    2.4175    0.4153 H   0  0  0  0  0  0  0  0  0  0  0  0
   -6.6562    2.4959    0.6439 H   0  0  0  0  0  0  0  0  0  0  0  0
   -6.0240   -2.2640   -0.7234 H   0  0  0  0  0  0  0  0  0  0  0  0
   -9.1860   -1.7218    0.5884 H   0  0  0  0  0  0  0  0  0  0  0  0
   -9.3317   -1.2394   -1.0892 H   0  0  0  0  0  0  0  0  0  0  0  0
   -8.3351   -2.6262   -0.6603 H   0  0  0  0  0  0  0  0  0  0  0  0
   -9.6421    1.0404   -0.4047 H   0  0  0  0  0  0  0  0  0  0  0  0
   -9.4765    0.5976    1.2816 H   0  0  0  0  0  0  0  0  0  0  0  0
   -8.9716    2.1964    0.7422 H   0  0  0  0  0  0  0  0  0  0  0  0
 16 15  1  0
 16 17  1  0
 15 14  1  0
 14  2  1  0
  1  2  2  0
  2  3  1  0
 17 21  2  0
 17 18  1  0
  4  3  2  0
  4  5  1  0
 21 22  1  0
  3 13  1  0
 18 19  1  0
  5  6  2  0
 13 12  2  0
 22 19  2  0
 22 23  1  0
  6 12  1  0
  6  7  1  0
 19 20  1  0
 11  7  1  0
 11 10  2  0
 23 24  2  0
  7  8  1  0
 20 26  2  0
 10  9  1  0
 24 26  1  0
 24 25  1  0
  8  9  2  0
 26 27  1  0
  4 28  1  0
  5 29  1  0
  8 30  1  0
 11 31  1  0
 12 32  1  0
 13 33  1  0
 14 34  1  0
 15 35  1  0
 15 36  1  0
 16 37  1  0
 16 38  1  0
 18 39  1  0
 20 40  1  0
 23 41  1  0
 25 42  1  0
 25 43  1  0
 25 44  1  0
 27 45  1  0
 27 46  1  0
 27 47  1  0
M  END
