
     RDKit          3D

 46 49  0  0  0  0  0  0  0  0999 V2000
    3.5977    2.4262    0.5577 N   0  0  0  0  0  0  0  0  0  0  0  0
    2.2953    2.0998    1.1130 C   0  0  0  0  0  0  0  0  0  0  0  0
    1.2207    2.1114    0.0429 C   0  0  1  0  0  0  0  0  0  0  0  0
   -0.0848    1.5423    0.5711 C   0  0  0  0  0  0  0  0  0  0  0  0
   -1.1170    1.6047   -0.4561 N   0  0  0  0  0  0  0  0  0  0  0  0
   -2.2124    0.7950   -0.3449 C   0  0  0  0  0  0  0  0  0  0  0  0
   -3.4116    1.3464   -0.5211 N   0  0  0  0  0  0  0  0  0  0  0  0
   -4.5064    0.6165   -0.3221 C   0  0  0  0  0  0  0  0  0  0  0  0
   -4.5732   -0.6351    0.0779 N   0  0  0  0  0  0  0  0  0  0  0  0
   -3.3733   -1.2038    0.1877 C   0  0  0  0  0  0  0  0  0  0  0  0
   -3.1440   -2.4952    0.5168 N   0  0  0  0  0  0  0  0  0  0  0  0
   -1.8041   -2.7486    0.4360 C   0  0  0  0  0  0  0  0  0  0  0  0
   -1.1314   -1.6157    0.0680 C   0  0  0  0  0  0  0  0  0  0  0  0
    0.3022   -1.5709   -0.2465 C   0  0  0  0  0  0  0  0  0  0  0  0
    0.7416   -1.0539   -1.4669 C   0  0  0  0  0  0  0  0  0  0  0  0
    2.0940   -1.0310   -1.7629 C   0  0  0  0  0  0  0  0  0  0  0  0
    3.0291   -1.5139   -0.8544 C   0  0  0  0  0  0  0  0  0  0  0  0
    2.6083   -2.0410    0.3611 C   0  0  0  0  0  0  0  0  0  0  0  0
    3.5777   -2.5370    1.3996 C   0  0  0  0  0  0  0  0  0  0  0  0
    4.8376   -2.7626    0.8224 O   0  0  0  0  0  0  0  0  0  0  0  0
    1.2462   -2.0672    0.6490 C   0  0  0  0  0  0  0  0  0  0  0  0
   -2.1329   -0.5895   -0.0650 C   0  0  0  0  0  0  0  0  0  0  0  0
   -1.2957    2.9601   -0.9485 C   0  0  0  0  0  0  0  0  0  0  0  0
    0.0465    3.4873   -1.4234 C   0  0  0  0  0  0  0  0  0  0  0  0
    1.0275    3.4341   -0.4141 O   0  0  0  0  0  0  0  0  0  0  0  0
    4.2685    2.5135    1.3101 H   0  0  0  0  0  0  0  0  0  0  0  0
    3.9224    1.6504   -0.0071 H   0  0  0  0  0  0  0  0  0  0  0  0
    2.2630    1.1168    1.6049 H   0  0  0  0  0  0  0  0  0  0  0  0
    2.0450    2.8377    1.8802 H   0  0  0  0  0  0  0  0  0  0  0  0
    1.5469    1.4774   -0.7954 H   0  0  0  0  0  0  0  0  0  0  0  0
    0.0698    0.5197    0.8986 H   0  0  0  0  0  0  0  0  0  0  0  0
   -0.4063    2.1194    1.4511 H   0  0  0  0  0  0  0  0  0  0  0  0
   -1.9937    2.9645   -1.7837 H   0  0  0  0  0  0  0  0  0  0  0  0
   -1.7080    3.6155   -0.1703 H   0  0  0  0  0  0  0  0  0  0  0  0
    0.0224   -0.6712   -2.1799 H   0  0  0  0  0  0  0  0  0  0  0  0
    0.9106   -2.4630    1.6019 H   0  0  0  0  0  0  0  0  0  0  0  0
    2.4276   -0.6266   -2.7101 H   0  0  0  0  0  0  0  0  0  0  0  0
    4.0809   -1.4766   -1.1020 H   0  0  0  0  0  0  0  0  0  0  0  0
    3.6339   -1.7907    2.2035 H   0  0  0  0  0  0  0  0  0  0  0  0
    3.1717   -3.4489    1.8574 H   0  0  0  0  0  0  0  0  0  0  0  0
    5.4606   -2.9537    1.5289 H   0  0  0  0  0  0  0  0  0  0  0  0
    0.3667    2.9124   -2.3038 H   0  0  0  0  0  0  0  0  0  0  0  0
   -0.0567    4.5309   -1.7249 H   0  0  0  0  0  0  0  0  0  0  0  0
   -3.8568   -3.1761    0.7257 H   0  0  0  0  0  0  0  0  0  0  0  0
   -5.4501    1.1263   -0.4859 H   0  0  0  0  0  0  0  0  0  0  0  0
   -1.4192   -3.7411    0.6070 H   0  0  0  0  0  0  0  0  0  0  0  0
  1  2  1  0
  2  3  1  0
  3  4  1  0
  3 25  1  0
  4  5  1  0
  5  6  1  0
  5 23  1  0
  6  7  2  0
  6 22  1  0
  7  8  1  0
  8  9  2  0
  9 10  1  0
 10 11  1  0
 10 22  2  0
 11 12  1  0
 12 13  2  0
 13 14  1  0
 13 22  1  0
 14 15  2  0
 14 21  1  0
 15 16  1  0
 16 17  2  0
 17 18  1  0
 18 19  1  0
 18 21  2  0
 19 20  1  0
 23 24  1  0
 24 25  1  0
  1 26  1  0
  1 27  1  0
  2 28  1  0
  2 29  1  0
  3 30  1  6
  4 31  1  0
  4 32  1  0
 23 33  1  0
 23 34  1  0
 15 35  1  0
 21 36  1  0
 16 37  1  0
 17 38  1  0
 19 39  1  0
 19 40  1  0
 20 41  1  0
 24 42  1  0
 24 43  1  0
 11 44  1  0
  8 45  1  0
 12 46  1  0
M  END
