
     RDKit          3D

 60 63  0  0  0  0  0  0  0  0999 V2000
    3.2485   -1.2059   -0.4108 N   0  0  0  0  0  0  0  0  0  0  0  0
    3.9676   -2.3690   -0.2279 C   0  0  0  0  0  0  0  0  0  0  0  0
    4.6022   -4.3287    0.4943 C   0  0  0  0  0  0  0  0  0  0  0  0
    5.6307   -4.1171   -0.3594 C   0  0  0  0  0  0  0  0  0  0  0  0
    2.1505    3.4561   -0.8136 C   0  0  0  0  0  0  0  0  0  0  0  0
    2.5035    5.7827    0.0950 C   0  0  0  0  0  0  0  0  0  0  0  0
    2.4574    3.8112    1.6553 C   0  0  0  0  0  0  0  0  0  0  0  0
   -1.9280    0.5455    1.0282 C   0  0  0  0  0  0  0  0  0  0  0  0
   -2.6204    0.4274   -0.1961 C   0  0  0  0  0  0  0  0  0  0  0  0
   -1.9751    0.3654   -1.3832 C   0  0  0  0  0  0  0  0  0  0  0  0
   -4.7099   -1.2941    0.5271 C   0  0  1  0  0  0  0  0  0  0  0  0
    2.0140   -0.9248    0.1008 C   0  0  0  0  0  0  0  0  0  0  0  0
    3.6635   -3.3363    0.5678 N   0  0  0  0  0  0  0  0  0  0  0  0
    5.4318   -2.5949   -1.1347 S   0  0  0  0  0  0  0  0  0  0  0  0
    1.5595    0.5044   -0.2004 C   0  0  2  0  0  0  0  0  0  0  0  0
    2.1948    1.4863    0.7896 C   0  0  0  0  0  0  0  0  0  0  0  0
    1.7911    2.9460    0.5827 C   0  0  2  0  0  0  0  0  0  0  0  0
    1.8285    4.9386   -0.9795 C   0  0  0  0  0  0  0  0  0  0  0  0
    2.1264    5.2903    1.4871 C   0  0  0  0  0  0  0  0  0  0  0  0
    0.1025    0.5331   -0.2055 N   0  0  0  0  0  0  0  0  0  0  0  0
   -0.5752    0.5795    0.9684 C   0  0  0  0  0  0  0  0  0  0  0  0
   -0.5336    0.3916   -1.4393 C   0  0  0  0  0  0  0  0  0  0  0  0
    0.1110    0.2871   -2.4737 O   0  0  0  0  0  0  0  0  0  0  0  0
   -4.8751    1.3399    0.7915 O   0  0  0  0  0  0  0  0  0  0  0  0
   -4.8990    0.3807   -1.5322 O   0  0  0  0  0  0  0  0  0  0  0  0
   -6.2336   -1.5677    0.5399 C   0  0  0  0  0  0  0  0  0  0  0  0
   -6.4360   -2.6701   -0.4970 C   0  0  0  0  0  0  0  0  0  0  0  0
   -5.1523   -3.4861   -0.3975 C   0  0  0  0  0  0  0  0  0  0  0  0
   -4.0649   -2.4141   -0.3091 C   0  0  0  0  0  0  0  0  0  0  0  0
    3.6687   -0.5075   -1.0066 H   0  0  0  0  0  0  0  0  0  0  0  0
    4.4870   -5.2122    1.1052 H   0  0  0  0  0  0  0  0  0  0  0  0
    6.4755   -4.7514   -0.5735 H   0  0  0  0  0  0  0  0  0  0  0  0
    3.2212    3.2930   -0.9866 H   0  0  0  0  0  0  0  0  0  0  0  0
    1.6239    2.8903   -1.5870 H   0  0  0  0  0  0  0  0  0  0  0  0
    3.5908    5.7243   -0.0275 H   0  0  0  0  0  0  0  0  0  0  0  0
    2.2337    6.8349   -0.0238 H   0  0  0  0  0  0  0  0  0  0  0  0
    2.1509    3.4678    2.6474 H   0  0  0  0  0  0  0  0  0  0  0  0
    3.5440    3.6745    1.6004 H   0  0  0  0  0  0  0  0  0  0  0  0
   -2.4268    0.6078    1.9832 H   0  0  0  0  0  0  0  0  0  0  0  0
   -2.5020    0.2681   -2.3223 H   0  0  0  0  0  0  0  0  0  0  0  0
   -4.3070   -1.2547    1.5406 H   0  0  0  0  0  0  0  0  0  0  0  0
    1.8751    0.7754   -1.2068 H   0  0  0  0  0  0  0  0  0  0  0  0
    1.9936    1.1825    1.8210 H   0  0  0  0  0  0  0  0  0  0  0  0
    3.2789    1.4008    0.6708 H   0  0  0  0  0  0  0  0  0  0  0  0
    0.7051    3.0421    0.7132 H   0  0  0  0  0  0  0  0  0  0  0  0
    2.1332    5.2727   -1.9740 H   0  0  0  0  0  0  0  0  0  0  0  0
    0.7437    5.0799   -0.9239 H   0  0  0  0  0  0  0  0  0  0  0  0
    2.6415    5.8752    2.2529 H   0  0  0  0  0  0  0  0  0  0  0  0
    1.0539    5.4429    1.6489 H   0  0  0  0  0  0  0  0  0  0  0  0
    0.0148    0.6657    1.8671 H   0  0  0  0  0  0  0  0  0  0  0  0
   -6.4972   -1.9270    1.5346 H   0  0  0  0  0  0  0  0  0  0  0  0
   -6.8479   -0.6857    0.3551 H   0  0  0  0  0  0  0  0  0  0  0  0
   -7.3378   -3.2533   -0.3097 H   0  0  0  0  0  0  0  0  0  0  0  0
   -6.5239   -2.2366   -1.4961 H   0  0  0  0  0  0  0  0  0  0  0  0
   -5.1619   -4.0929    0.5113 H   0  0  0  0  0  0  0  0  0  0  0  0
   -4.9996   -4.1594   -1.2410 H   0  0  0  0  0  0  0  0  0  0  0  0
   -3.8256   -2.0670   -1.3163 H   0  0  0  0  0  0  0  0  0  0  0  0
   -3.1380   -2.7659    0.1403 H   0  0  0  0  0  0  0  0  0  0  0  0
   -4.4041    0.3334   -0.1580 S   0  0  1  0  0  0  0  0  0  0  0  0
    1.3459   -1.6909    0.7510 O   0  0  0  0  0  0  0  0  0  0  0  0
 19  6  1  0
 19  7  1  0
  6 18  1  0
  7 17  1  0
 18  5  1  0
 25 59  2  0
 17  5  1  0
 17 16  1  0
 28 29  1  0
 28 27  1  0
 29 11  1  0
 59  9  1  6
 59 24  2  0
 59 11  1  0
  8  9  1  0
  8 21  2  0
 27 26  1  0
  9 10  2  0
 21 20  1  0
 16 15  1  0
 11 26  1  0
 10 22  1  0
 20 22  1  0
 20 15  1  0
 22 23  2  0
 15 12  1  0
 12 60  2  0
 12  1  1  0
  1  2  1  0
  2 14  1  0
  2 13  2  0
 14  4  1  0
 13  3  1  0
  3  4  2  0
  1 30  1  0
  3 31  1  0
  4 32  1  0
  5 33  1  0
  5 34  1  0
  6 35  1  0
  6 36  1  0
  7 37  1  0
  7 38  1  0
  8 39  1  0
 10 40  1  0
 11 41  1  1
 15 42  1  6
 16 43  1  0
 16 44  1  0
 17 45  1  1
 18 46  1  0
 18 47  1  0
 19 48  1  0
 19 49  1  0
 21 50  1  0
 26 51  1  0
 26 52  1  0
 27 53  1  0
 27 54  1  0
 28 55  1  0
 28 56  1  0
 29 57  1  0
 29 58  1  0
M  END
