
     RDKit          3D

 41 43  0  0  0  0  0  0  0  0999 V2000
   -2.4421   -4.3480    0.8611 C   0  0  0  0  0  0  0  0  0  0  0  0
   -2.9621   -3.4790   -0.1304 O   0  0  0  0  0  0  0  0  0  0  0  0
   -2.7465   -2.1654   -0.0167 C   0  0  0  0  0  0  0  0  0  0  0  0
   -3.2850   -1.3631   -1.0307 C   0  0  0  0  0  0  0  0  0  0  0  0
   -3.1131    0.0030   -1.0029 C   0  0  0  0  0  0  0  0  0  0  0  0
   -2.0372   -1.5732    1.0287 C   0  0  0  0  0  0  0  0  0  0  0  0
   -1.8664   -0.1983    1.0531 C   0  0  0  0  0  0  0  0  0  0  0  0
   -2.4040    0.5872    0.0453 C   0  0  0  0  0  0  0  0  0  0  0  0
   -2.0787    2.3159    0.0116 S   0  0  1  0  0  0  0  0  0  0  0  0
   -3.1409    2.9863   -0.7192 O   0  0  0  0  0  0  0  0  0  0  0  0
   -1.7318    2.7419    1.3553 O   0  0  0  0  0  0  0  0  0  0  0  0
   -0.7061    2.5081   -0.9199 N   0  0  0  0  0  0  0  0  0  0  0  0
    0.4735    1.8494   -0.4730 C   0  0  0  0  0  0  0  0  0  0  0  0
    0.7779    0.5692   -0.9434 C   0  0  0  0  0  0  0  0  0  0  0  0
    1.9269   -0.0215   -0.4661 C   0  0  0  0  0  0  0  0  0  0  0  0
    2.4947   -1.2467   -0.7263 N   0  0  0  0  0  0  0  0  0  0  0  0
    1.9518   -2.2425   -1.6135 C   0  0  0  0  0  0  0  0  0  0  0  0
    3.6462   -1.3948    0.0131 C   0  0  0  0  0  0  0  0  0  0  0  0
    4.3880   -2.3599    0.0243 O   0  0  0  0  0  0  0  0  0  0  0  0
    3.7917   -0.2320    0.7358 N   0  0  0  0  0  0  0  0  0  0  0  0
    4.8768    0.0430    1.6428 C   0  0  0  0  0  0  0  0  0  0  0  0
    2.7493    0.6223    0.4643 C   0  0  0  0  0  0  0  0  0  0  0  0
    2.4462    1.8846    0.9341 C   0  0  0  0  0  0  0  0  0  0  0  0
    1.2929    2.4944    0.4474 C   0  0  0  0  0  0  0  0  0  0  0  0
   -2.8509   -4.1254    1.8492 H   0  0  0  0  0  0  0  0  0  0  0  0
   -2.7401   -5.3527    0.5749 H   0  0  0  0  0  0  0  0  0  0  0  0
   -1.3516   -4.3015    0.9073 H   0  0  0  0  0  0  0  0  0  0  0  0
   -3.8378   -1.8252   -1.8383 H   0  0  0  0  0  0  0  0  0  0  0  0
   -3.5346    0.6056   -1.7964 H   0  0  0  0  0  0  0  0  0  0  0  0
   -1.6103   -2.1593    1.8301 H   0  0  0  0  0  0  0  0  0  0  0  0
   -1.3127    0.2470    1.8680 H   0  0  0  0  0  0  0  0  0  0  0  0
   -0.9140    2.3743   -1.9051 H   0  0  0  0  0  0  0  0  0  0  0  0
    0.1305    0.0658   -1.6504 H   0  0  0  0  0  0  0  0  0  0  0  0
    1.7940   -1.8228   -2.6062 H   0  0  0  0  0  0  0  0  0  0  0  0
    2.6514   -3.0689   -1.6930 H   0  0  0  0  0  0  0  0  0  0  0  0
    1.0018   -2.6240   -1.2377 H   0  0  0  0  0  0  0  0  0  0  0  0
    5.5731   -0.7897    1.6272 H   0  0  0  0  0  0  0  0  0  0  0  0
    5.4060    0.9465    1.3423 H   0  0  0  0  0  0  0  0  0  0  0  0
    4.5071    0.1716    2.6598 H   0  0  0  0  0  0  0  0  0  0  0  0
    3.0782    2.3927    1.6499 H   0  0  0  0  0  0  0  0  0  0  0  0
    1.0319    3.4885    0.7818 H   0  0  0  0  0  0  0  0  0  0  0  0
 11  9  2  0
 10  9  2  0
  9  8  1  0
  9 12  1  6
  8  7  2  0
  8  5  1  0
  7  6  1  0
 24 23  2  0
 24 13  1  0
  6  3  2  0
  5  4  2  0
 12 13  1  0
 23 22  1  0
  3  4  1  0
  3  2  1  0
 13 14  2  0
  2  1  1  0
 22 20  1  0
 22 15  2  0
 14 15  1  0
 21 20  1  0
 20 18  1  0
 15 16  1  0
 16 18  1  0
 16 17  1  0
 18 19  2  0
  1 25  1  0
  1 26  1  0
  1 27  1  0
  4 28  1  0
  5 29  1  0
  6 30  1  0
  7 31  1  0
 12 32  1  0
 14 33  1  0
 17 34  1  0
 17 35  1  0
 17 36  1  0
 21 37  1  0
 21 38  1  0
 21 39  1  0
 23 40  1  0
 24 41  1  0
M  END
