
     RDKit          3D

 27 27  0  0  0  0  0  0  0  0999 V2000
   -1.0221    0.7410   -1.6001 C   0  0  1  0  0  0  0  0  0  0  0  0
    0.4999    0.7218   -1.5938 C   0  0  1  0  0  0  0  0  0  0  0  0
    1.0529    0.7080   -0.2122 C   0  0  2  0  0  0  0  0  0  0  0  0
    0.4710   -0.3966    0.6149 C   0  0  1  0  0  0  0  0  0  0  0  0
   -1.0602   -0.3780    0.6034 C   0  0  1  0  0  0  0  0  0  0  0  0
   -1.5334    0.8403    1.3214 C   0  0  0  0  0  0  0  0  0  0  0  0
    1.9684   -2.9431    1.2500 C   0  0  0  0  0  0  0  0  0  0  0  0
   -1.4595    0.6065   -2.8829 O   0  0  0  0  0  0  0  0  0  0  0  0
    0.9525   -0.4560   -2.2872 O   0  0  0  0  0  0  0  0  0  0  0  0
    0.7544    1.9771    0.4250 O   0  0  0  0  0  0  0  0  0  0  0  0
    1.0578   -2.0270   -0.0605 S   0  0  0  0  0  0  0  0  0  0  0  0
   -1.6052   -0.3664   -0.7678 O   0  0  0  0  0  0  0  0  0  0  0  0
   -2.8457    0.6506    1.7404 O   0  0  0  0  0  0  0  0  0  0  0  0
   -1.3614    1.6911   -1.2054 H   0  0  0  0  0  0  0  0  0  0  0  0
    0.8646    1.6040   -2.1099 H   0  0  0  0  0  0  0  0  0  0  0  0
    2.1265    0.5784   -0.2655 H   0  0  0  0  0  0  0  0  0  0  0  0
    0.8150   -0.2882    1.6360 H   0  0  0  0  0  0  0  0  0  0  0  0
   -1.4249   -1.2599    1.1175 H   0  0  0  0  0  0  0  0  0  0  0  0
   -1.4869    1.6934    0.6549 H   0  0  0  0  0  0  0  0  0  0  0  0
   -0.9000    1.0205    2.1850 H   0  0  0  0  0  0  0  0  0  0  0  0
    2.5149   -3.7736    0.8001 H   0  0  0  0  0  0  0  0  0  0  0  0
    1.2604   -3.3289    1.9823 H   0  0  0  0  0  0  0  0  0  0  0  0
    2.6671   -2.2735    1.7404 H   0  0  0  0  0  0  0  0  0  0  0  0
   -2.2766    1.0732   -2.9884 H   0  0  0  0  0  0  0  0  0  0  0  0
    1.4995   -0.2028   -3.0135 H   0  0  0  0  0  0  0  0  0  0  0  0
    1.5548    2.4549    0.5634 H   0  0  0  0  0  0  0  0  0  0  0  0
   -3.0838    1.3333    2.3528 H   0  0  0  0  0  0  0  0  0  0  0  0
  1  2  1  0
  1  8  1  0
  1 12  1  0
  1 14  1  1
  2  3  1  0
  2  9  1  0
  2 15  1  6
  3  4  1  0
  3 10  1  0
  3 16  1  6
  4  5  1  0
  4 11  1  0
  4 17  1  1
  5  6  1  0
  5 12  1  0
  5 18  1  1
  6 13  1  0
  6 19  1  0
  6 20  1  0
  7 11  1  0
  7 21  1  0
  7 22  1  0
  7 23  1  0
  8 24  1  0
  9 25  1  0
 10 26  1  0
 13 27  1  0
M  END
