
     RDKit          3D

 47 50  0  0  0  0  0  0  0  0999 V2000
    7.4227    8.8965    3.8301 N   0  0  0  0  0  0  0  0  0  0  0  0
    8.0135    7.9051    2.9554 C   0  0  0  0  0  0  0  0  0  0  0  0
    9.3061    8.4329    2.3461 C   0  0  0  0  0  0  0  0  0  0  0  0
   10.9008    7.6455    4.1621 C   0  0  0  0  0  0  0  0  0  0  0  0
   11.6224    6.6498    3.3941 N   0  0  0  0  0  0  0  0  0  0  0  0
    9.6133    9.7673    4.4492 C   0  0  0  0  0  0  0  0  0  0  0  0
    8.2940    9.1879    4.9583 C   0  0  0  0  0  0  0  0  0  0  0  0
   11.1826   10.8804    2.0220 C   0  0  0  0  0  0  0  0  0  0  0  0
   10.8618   10.8527    0.6657 C   0  0  0  0  0  0  0  0  0  0  0  0
   10.5518   12.0105   -0.0320 C   0  0  0  0  0  0  0  0  0  0  0  0
   10.5712   13.2243    0.6357 C   0  0  0  0  0  0  0  0  0  0  0  0
   10.1909   14.6814   -0.2276 Cl  0  0  0  0  0  0  0  0  0  0  0  0
   10.9018   13.2916    1.9794 C   0  0  0  0  0  0  0  0  0  0  0  0
   11.2059   12.1202    2.6578 C   0  0  0  0  0  0  0  0  0  0  0  0
    6.4938    9.7936    3.4235 C   0  0  0  0  0  0  0  0  0  0  0  0
    6.0893   10.6887    4.3337 N   0  0  0  0  0  0  0  0  0  0  0  0
   11.5075    9.6192    2.7689 C   0  0  0  0  0  0  0  0  0  0  0  0
    5.1326   11.5570    4.0351 C   0  0  0  0  0  0  0  0  0  0  0  0
    4.4821   11.6842    2.8984 N   0  0  0  0  0  0  0  0  0  0  0  0
    4.9040   10.8163    1.9761 C   0  0  0  0  0  0  0  0  0  0  0  0
    4.4482   10.7566    0.7052 N   0  0  0  0  0  0  0  0  0  0  0  0
    5.1303    9.7861    0.0226 C   0  0  0  0  0  0  0  0  0  0  0  0
    6.0360    9.1981    0.8523 C   0  0  0  0  0  0  0  0  0  0  0  0
    5.9062    9.8383    2.1311 C   0  0  0  0  0  0  0  0  0  0  0  0
   10.3170    8.8722    3.4165 C   0  0  2  0  0  0  0  0  0  0  0  0
    8.2070    7.0138    3.5583 H   0  0  0  0  0  0  0  0  0  0  0  0
    7.3078    7.5911    2.1938 H   0  0  0  0  0  0  0  0  0  0  0  0
    7.8045    9.8862    5.6296 H   0  0  0  0  0  0  0  0  0  0  0  0
    8.4510    8.2601    5.5140 H   0  0  0  0  0  0  0  0  0  0  0  0
    9.7495    7.6740    1.6946 H   0  0  0  0  0  0  0  0  0  0  0  0
    9.0581    9.2791    1.6993 H   0  0  0  0  0  0  0  0  0  0  0  0
   10.0993    7.1261    4.6933 H   0  0  0  0  0  0  0  0  0  0  0  0
   11.5713    8.0239    4.9402 H   0  0  0  0  0  0  0  0  0  0  0  0
   11.0392    6.2543    2.6682 H   0  0  0  0  0  0  0  0  0  0  0  0
   12.4249    7.0555    2.9317 H   0  0  0  0  0  0  0  0  0  0  0  0
    9.3945   10.7442    4.0091 H   0  0  0  0  0  0  0  0  0  0  0  0
   10.2818    9.9508    5.2969 H   0  0  0  0  0  0  0  0  0  0  0  0
   10.8572    9.9099    0.1318 H   0  0  0  0  0  0  0  0  0  0  0  0
   11.4740   12.1807    3.7058 H   0  0  0  0  0  0  0  0  0  0  0  0
   12.0092    8.9322    2.0817 H   0  0  0  0  0  0  0  0  0  0  0  0
   12.2304    9.8463    3.5591 H   0  0  0  0  0  0  0  0  0  0  0  0
   10.3072   11.9635   -1.0846 H   0  0  0  0  0  0  0  0  0  0  0  0
   10.9320   14.2427    2.4937 H   0  0  0  0  0  0  0  0  0  0  0  0
    4.8565   12.2421    4.8309 H   0  0  0  0  0  0  0  0  0  0  0  0
    3.7278   11.3471    0.3220 H   0  0  0  0  0  0  0  0  0  0  0  0
    4.9193    9.5900   -1.0154 H   0  0  0  0  0  0  0  0  0  0  0  0
    6.7104    8.4163    0.5492 H   0  0  0  0  0  0  0  0  0  0  0  0
  1  2  1  0
  1  7  1  0
  1 15  1  0
  2  3  1  0
  3 25  1  0
  4  5  1  0
 25  4  1  1
  6  7  1  0
  6 25  1  0
  8  9  2  0
  8 14  1  0
  8 17  1  0
  9 10  1  0
 10 11  2  0
 11 12  1  0
 11 13  1  0
 13 14  2  0
 15 16  2  0
 15 24  1  0
 16 18  1  0
 18 19  2  0
 17 25  1  0
 19 20  1  0
 20 21  1  0
 20 24  2  0
 21 22  1  0
 22 23  2  0
 23 24  1  0
  2 26  1  0
  2 27  1  0
  7 28  1  0
  7 29  1  0
  3 30  1  0
  3 31  1  0
  4 32  1  0
  4 33  1  0
  5 34  1  0
  5 35  1  0
  6 36  1  0
  6 37  1  0
  9 38  1  0
 14 39  1  0
 17 40  1  0
 17 41  1  0
 10 42  1  0
 13 43  1  0
 18 44  1  0
 21 45  1  0
 22 46  1  0
 23 47  1  0
M  END
