
     RDKit          3D

 37 39  0  0  0  0  0  0  0  0999 V2000
    1.3997   -0.0615   -2.9902 C   0  0  0  0  0  0  0  0  0  0  0  0
    0.9334   -0.0220   -1.6983 C   0  0  0  0  0  0  0  0  0  0  0  0
    0.2402   -0.0449   -3.7765 C   0  0  0  0  0  0  0  0  0  0  0  0
    0.1654   -0.0517   -5.2586 C   0  0  1  0  0  0  0  0  0  0  0  0
   -1.3797   -0.0446   -0.7500 C   0  0  0  0  0  0  0  0  0  0  0  0
   -2.4562    0.8316   -0.7842 C   0  0  0  0  0  0  0  0  0  0  0  0
   -3.3993    0.7926    0.2260 C   0  0  0  0  0  0  0  0  0  0  0  0
   -3.2474   -0.1160    1.2641 C   0  0  0  0  0  0  0  0  0  0  0  0
   -2.1716   -0.9885    1.3029 C   0  0  0  0  0  0  0  0  0  0  0  0
   -1.2367   -0.9600    0.2820 C   0  0  0  0  0  0  0  0  0  0  0  0
    1.6844    0.0611   -0.4460 C   0  0  0  0  0  0  0  0  0  0  0  0
    2.7905   -0.7624   -0.2543 C   0  0  0  0  0  0  0  0  0  0  0  0
    3.5444   -0.6825    0.9053 C   0  0  0  0  0  0  0  0  0  0  0  0
    3.1848    0.2306    1.8849 C   0  0  0  0  0  0  0  0  0  0  0  0
    2.0892    1.0649    1.7123 C   0  0  0  0  0  0  0  0  0  0  0  0
    1.3469    0.9787    0.5474 C   0  0  0  0  0  0  0  0  0  0  0  0
   -0.4263   -0.0009   -1.7926 N   0  0  0  0  0  0  0  0  0  0  0  0
   -0.8521   -0.0087   -3.0489 N   0  0  0  0  0  0  0  0  0  0  0  0
   -5.6311   -1.1305    1.8988 N   0  0  0  0  0  0  0  0  0  0  0  0
   -5.0516    1.1501    2.6911 O   0  0  0  0  0  0  0  0  0  0  0  0
   -3.8451   -0.8235    3.6968 O   0  0  0  0  0  0  0  0  0  0  0  0
    4.2006    0.3458    3.4662 Br  0  0  0  0  0  0  0  0  0  0  0  0
   -1.0907   -0.0558   -5.7007 F   0  0  0  0  0  0  0  0  0  0  0  0
    0.7751    1.0215   -5.7839 F   0  0  0  0  0  0  0  0  0  0  0  0
    0.7828   -1.1198   -5.7799 F   0  0  0  0  0  0  0  0  0  0  0  0
   -4.4619   -0.1704    2.5549 S   0  0  2  0  0  0  0  0  0  0  0  0
    2.4280   -0.0538   -3.3109 H   0  0  0  0  0  0  0  0  0  0  0  0
   -2.5545    1.5462   -1.5888 H   0  0  0  0  0  0  0  0  0  0  0  0
   -4.2343    1.4781    0.1984 H   0  0  0  0  0  0  0  0  0  0  0  0
   -2.0534   -1.7008    2.1063 H   0  0  0  0  0  0  0  0  0  0  0  0
   -0.4106   -1.6565    0.2941 H   0  0  0  0  0  0  0  0  0  0  0  0
    3.0651   -1.4861   -1.0100 H   0  0  0  0  0  0  0  0  0  0  0  0
    4.3960   -1.3359    1.0320 H   0  0  0  0  0  0  0  0  0  0  0  0
    1.8112    1.7858    2.4681 H   0  0  0  0  0  0  0  0  0  0  0  0
    0.5110    1.6529    0.4173 H   0  0  0  0  0  0  0  0  0  0  0  0
   -6.5660   -0.7680    2.0280 H   0  0  0  0  0  0  0  0  0  0  0  0
   -5.5684   -2.1079    2.1489 H   0  0  0  0  0  0  0  0  0  0  0  0
  1  2  2  0
  1  3  1  0
  1 27  1  0
  2 11  1  0
  2 17  1  0
  3  4  1  0
  3 18  2  0
  4 23  1  1
  4 24  1  0
  4 25  1  0
  5  6  2  0
  5 10  1  0
  5 17  1  0
  6  7  1  0
  6 28  1  0
  7  8  2  0
  7 29  1  0
  8  9  1  0
  8 26  1  0
  9 10  2  0
  9 30  1  0
 10 31  1  0
 11 12  2  0
 11 16  1  0
 12 13  1  0
 12 32  1  0
 13 14  2  0
 13 33  1  0
 14 15  1  0
 14 22  1  0
 15 16  2  0
 15 34  1  0
 16 35  1  0
 17 18  1  0
 26 19  1  6
 19 36  1  0
 19 37  1  0
 20 26  2  0
 21 26  2  0
M  END
