
     RDKit          3D

 51 55  0  0  0  0  0  0  0  0999 V2000
   -3.6732    2.3326    1.5054 O   0  0  0  0  0  0  0  0  0  0  0  0
   -4.0703    1.3457    0.9281 C   0  0  0  0  0  0  0  0  0  0  0  0
   -5.4176    0.6447    1.1574 C   0  0  1  0  0  0  0  0  0  0  0  0
   -6.5037    1.5190    1.0642 O   0  0  0  0  0  0  0  0  0  0  0  0
   -3.4027    0.6711   -0.0530 N   0  0  0  0  0  0  0  0  0  0  0  0
   -4.1958   -0.3542   -0.5811 C   0  0  0  0  0  0  0  0  0  0  0  0
   -3.9018   -1.2368   -1.6035 C   0  0  0  0  0  0  0  0  0  0  0  0
   -4.8857   -2.1554   -1.9663 C   0  0  0  0  0  0  0  0  0  0  0  0
   -6.1172   -2.1890   -1.3267 C   0  0  0  0  0  0  0  0  0  0  0  0
   -6.3904   -1.2991   -0.2882 C   0  0  0  0  0  0  0  0  0  0  0  0
   -5.4227   -0.3893    0.0779 C   0  0  0  0  0  0  0  0  0  0  0  0
   -2.0945    1.0620   -0.5176 C   0  0  0  0  0  0  0  0  0  0  0  0
   -1.0510    0.6018    0.3618 N   0  0  0  0  0  0  0  0  0  0  0  0
   -0.8977   -0.8443    0.3506 C   0  0  0  0  0  0  0  0  0  0  0  0
    0.1761   -1.2559    1.3510 C   0  0  0  0  0  0  0  0  0  0  0  0
    1.4577   -0.6092    1.1359 N   0  0  0  0  0  0  0  0  0  0  0  0
    1.2750    0.8311    1.0684 C   0  0  0  0  0  0  0  0  0  0  0  0
    0.2112    1.2608    0.0655 C   0  0  0  0  0  0  0  0  0  0  0  0
   -5.3662    0.1589    2.1430 H   0  0  0  0  0  0  0  0  0  0  0  0
   -6.5373    2.0496    1.8671 H   0  0  0  0  0  0  0  0  0  0  0  0
   -2.9502   -1.2252   -2.1176 H   0  0  0  0  0  0  0  0  0  0  0  0
   -4.6804   -2.8539   -2.7670 H   0  0  0  0  0  0  0  0  0  0  0  0
   -6.8650   -2.9081   -1.6328 H   0  0  0  0  0  0  0  0  0  0  0  0
   -7.3456   -1.3238    0.2206 H   0  0  0  0  0  0  0  0  0  0  0  0
   -1.9797    0.6997   -1.5493 H   0  0  0  0  0  0  0  0  0  0  0  0
   -2.0576    2.1518   -0.5590 H   0  0  0  0  0  0  0  0  0  0  0  0
   -1.8407   -1.3143    0.6393 H   0  0  0  0  0  0  0  0  0  0  0  0
   -0.6490   -1.2179   -0.6590 H   0  0  0  0  0  0  0  0  0  0  0  0
   -0.1726   -0.9961    2.3561 H   0  0  0  0  0  0  0  0  0  0  0  0
    0.3081   -2.3394    1.3254 H   0  0  0  0  0  0  0  0  0  0  0  0
    0.9861    1.1912    2.0608 H   0  0  0  0  0  0  0  0  0  0  0  0
    2.2251    1.3079    0.8205 H   0  0  0  0  0  0  0  0  0  0  0  0
    0.5508    1.0489   -0.9630 H   0  0  0  0  0  0  0  0  0  0  0  0
    0.0733    2.3428    0.1348 H   0  0  0  0  0  0  0  0  0  0  0  0
    2.2209   -1.1539    0.0293 C   0  0  0  0  0  0  0  0  0  0  0  0
    3.6769   -0.7581    0.0924 C   0  0  0  0  0  0  0  0  0  0  0  0
    4.3667   -0.7776    1.2984 C   0  0  0  0  0  0  0  0  0  0  0  0
    5.7255   -0.4540    1.3792 C   0  0  0  0  0  0  0  0  0  0  0  0
    6.3561   -0.1172    0.2063 C   0  0  0  0  0  0  0  0  0  0  0  0
    5.6776   -0.0931   -0.9996 C   0  0  0  0  0  0  0  0  0  0  0  0
    4.3423   -0.4015   -1.0898 C   0  0  0  0  0  0  0  0  0  0  0  0
    6.5240    0.3018   -1.9840 O   0  0  0  0  0  0  0  0  0  0  0  0
    7.6449    0.2611    0.0062 O   0  0  0  0  0  0  0  0  0  0  0  0
    7.8211    0.3159   -1.4027 C   0  0  0  0  0  0  0  0  0  0  0  0
    2.1445   -2.2442    0.0851 H   0  0  0  0  0  0  0  0  0  0  0  0
    1.8308   -0.8797   -0.9622 H   0  0  0  0  0  0  0  0  0  0  0  0
    3.8350   -1.0431    2.2023 H   0  0  0  0  0  0  0  0  0  0  0  0
    6.2502   -0.4657    2.3252 H   0  0  0  0  0  0  0  0  0  0  0  0
    3.8172   -0.3686   -2.0368 H   0  0  0  0  0  0  0  0  0  0  0  0
    8.3896   -0.5577   -1.7414 H   0  0  0  0  0  0  0  0  0  0  0  0
    8.3377    1.2360   -1.6753 H   0  0  0  0  0  0  0  0  0  0  0  0
  9 10  1  0
  9  8  2  0
 10 11  2  0
  8  7  1  0
 11  3  1  0
 11  6  1  0
  4  3  1  0
  7  6  2  0
  3  2  1  0
  6  5  1  0
  2  5  1  0
  2  1  2  0
  5 12  1  0
 14 13  1  0
 14 15  1  0
 12 13  1  0
 13 18  1  0
 15 16  1  0
 16 17  1  0
 18 17  1  0
  3 19  1  1
  4 20  1  0
  7 21  1  0
  8 22  1  0
  9 23  1  0
 10 24  1  0
 12 25  1  0
 12 26  1  0
 14 27  1  0
 14 28  1  0
 15 29  1  0
 15 30  1  0
 17 31  1  0
 17 32  1  0
 18 33  1  0
 18 34  1  0
 16 35  1  0
 35 36  1  0
 36 37  2  0
 37 38  1  0
 38 39  2  0
 39 40  1  0
 40 41  2  0
 41 36  1  0
 40 42  1  0
 39 43  1  0
 42 44  1  0
 43 44  1  0
 35 45  1  0
 35 46  1  0
 37 47  1  0
 38 48  1  0
 41 49  1  0
 44 50  1  0
 44 51  1  0
M  END
