
     RDKit          3D

 74 73  0  0  0  0  0  0  0  0999 V2000
   -8.0211   -1.2156   -3.9541 C   0  0  0  0  0  0  0  0  0  0  0  0
   -6.9403   -1.7062   -3.0010 C   0  0  0  0  0  0  0  0  0  0  0  0
   -6.7329   -0.7748   -1.8125 C   0  0  0  0  0  0  0  0  0  0  0  0
   -5.6526   -1.2571   -0.8537 C   0  0  0  0  0  0  0  0  0  0  0  0
   -5.4471   -0.3122    0.3317 C   0  0  0  0  0  0  0  0  0  0  0  0
   -4.4272   -0.8277    1.2967 C   0  0  0  0  0  0  0  0  0  0  0  0
   -3.2625   -0.2374    1.5421 C   0  0  0  0  0  0  0  0  0  0  0  0
   -2.2024   -0.7458    2.4781 C   0  0  1  0  0  0  0  0  0  0  0  0
   -2.5916   -1.8831    3.2071 O   0  0  0  0  0  0  0  0  0  0  0  0
   -0.8919   -1.0432    1.7086 C   0  0  1  0  0  0  0  0  0  0  0  0
   -0.4843    0.0079    0.8021 N   0  0  0  0  0  0  0  0  0  0  0  0
   -0.1418    1.2639    1.1637 C   0  0  0  0  0  0  0  0  0  0  0  0
   -0.2362    1.6678    2.3113 O   0  0  0  0  0  0  0  0  0  0  0  0
    0.3772    2.1131    0.0236 C   0  0  0  0  0  0  0  0  0  0  0  0
    0.6572    3.5599    0.3915 C   0  0  0  0  0  0  0  0  0  0  0  0
    1.2800    4.3223   -0.7714 C   0  0  0  0  0  0  0  0  0  0  0  0
    1.6179    5.7682   -0.4299 C   0  0  0  0  0  0  0  0  0  0  0  0
    2.2571    6.5129   -1.5938 C   0  0  0  0  0  0  0  0  0  0  0  0
    0.2342   -1.4310    2.6610 C   0  0  0  0  0  0  0  0  0  0  0  0
    1.3483   -1.9103    1.8892 O   0  0  0  0  0  0  0  0  0  0  0  0
    2.7300   -1.1332    1.8286 P   0  0  2  0  0  0  0  0  0  0  0  0
    3.5407   -1.4769    3.1567 O   0  0  0  0  0  0  0  0  0  0  0  0
    2.7080    0.3281    1.6217 O   0  0  0  0  0  0  0  0  0  0  0  0
    3.3692   -1.9832    0.6311 O   0  0  0  0  0  0  0  0  0  0  0  0
    4.5729   -1.5530   -0.0018 C   0  0  0  0  0  0  0  0  0  0  0  0
    4.4706   -1.6346   -1.5054 C   0  0  0  0  0  0  0  0  0  0  0  0
    3.5797   -0.6417   -2.2087 N   0  0  1  0  0  0  0  0  0  0  0  0
    3.9014    0.7571   -1.8103 C   0  0  0  0  0  0  0  0  0  0  0  0
    3.8332   -0.7944   -3.6726 C   0  0  0  0  0  0  0  0  0  0  0  0
    2.1335   -0.9079   -1.9616 C   0  0  0  0  0  0  0  0  0  0  0  0
   -8.9805   -1.1168   -3.4428 H   0  0  0  0  0  0  0  0  0  0  0  0
   -7.7685   -0.2379   -4.3690 H   0  0  0  0  0  0  0  0  0  0  0  0
   -8.1612   -1.9020   -4.7899 H   0  0  0  0  0  0  0  0  0  0  0  0
   -7.1993   -2.7053   -2.6371 H   0  0  0  0  0  0  0  0  0  0  0  0
   -5.9953   -1.8164   -3.5420 H   0  0  0  0  0  0  0  0  0  0  0  0
   -6.4745    0.2252   -2.1784 H   0  0  0  0  0  0  0  0  0  0  0  0
   -7.6775   -0.6637   -1.2686 H   0  0  0  0  0  0  0  0  0  0  0  0
   -5.9132   -2.2540   -0.4819 H   0  0  0  0  0  0  0  0  0  0  0  0
   -4.7061   -1.3691   -1.3920 H   0  0  0  0  0  0  0  0  0  0  0  0
   -5.1536    0.6769   -0.0315 H   0  0  0  0  0  0  0  0  0  0  0  0
   -6.4053   -0.1854    0.8476 H   0  0  0  0  0  0  0  0  0  0  0  0
   -4.6856   -1.7575    1.7976 H   0  0  0  0  0  0  0  0  0  0  0  0
   -3.0324    0.6961    1.0377 H   0  0  0  0  0  0  0  0  0  0  0  0
   -2.0035    0.0277    3.2249 H   0  0  0  0  0  0  0  0  0  0  0  0
   -2.7757   -2.5995    2.5888 H   0  0  0  0  0  0  0  0  0  0  0  0
   -1.0988   -1.9069    1.0681 H   0  0  0  0  0  0  0  0  0  0  0  0
   -0.4757   -0.2168   -0.1785 H   0  0  0  0  0  0  0  0  0  0  0  0
    1.3037    1.6467   -0.3237 H   0  0  0  0  0  0  0  0  0  0  0  0
   -0.3209    2.0585   -0.8178 H   0  0  0  0  0  0  0  0  0  0  0  0
   -0.2665    4.0560    0.7021 H   0  0  0  0  0  0  0  0  0  0  0  0
    1.3324    3.5927    1.2501 H   0  0  0  0  0  0  0  0  0  0  0  0
    2.1924    3.8068   -1.0935 H   0  0  0  0  0  0  0  0  0  0  0  0
    0.6012    4.3018   -1.6310 H   0  0  0  0  0  0  0  0  0  0  0  0
    0.7086    6.2888   -0.1142 H   0  0  0  0  0  0  0  0  0  0  0  0
    2.2930    5.7866    0.4311 H   0  0  0  0  0  0  0  0  0  0  0  0
    3.1756    6.0194   -1.9166 H   0  0  0  0  0  0  0  0  0  0  0  0
    1.5862    6.5543   -2.4539 H   0  0  0  0  0  0  0  0  0  0  0  0
    2.5105    7.5385   -1.3231 H   0  0  0  0  0  0  0  0  0  0  0  0
    0.5168   -0.5883    3.2938 H   0  0  0  0  0  0  0  0  0  0  0  0
   -0.0776   -2.2505    3.3047 H   0  0  0  0  0  0  0  0  0  0  0  0
    3.5935   -2.4135    3.3923 H   0  0  0  0  0  0  0  0  0  0  0  0
    4.8795   -0.5584    0.3266 H   0  0  0  0  0  0  0  0  0  0  0  0
    5.3741   -2.2387    0.2774 H   0  0  0  0  0  0  0  0  0  0  0  0
    5.4754   -1.4733   -1.8971 H   0  0  0  0  0  0  0  0  0  0  0  0
    4.1445   -2.6260   -1.8180 H   0  0  0  0  0  0  0  0  0  0  0  0
    4.9623    0.9382   -1.9598 H   0  0  0  0  0  0  0  0  0  0  0  0
    3.3243    1.4356   -2.4326 H   0  0  0  0  0  0  0  0  0  0  0  0
    3.6410    0.9167   -0.7682 H   0  0  0  0  0  0  0  0  0  0  0  0
    4.8757   -0.5717   -3.8800 H   0  0  0  0  0  0  0  0  0  0  0  0
    3.6078   -1.8157   -3.9685 H   0  0  0  0  0  0  0  0  0  0  0  0
    3.1934   -0.1043   -4.2151 H   0  0  0  0  0  0  0  0  0  0  0  0
    1.5494   -0.2723   -2.6214 H   0  0  0  0  0  0  0  0  0  0  0  0
    1.9156   -1.9508   -2.1716 H   0  0  0  0  0  0  0  0  0  0  0  0
    1.8853   -0.6789   -0.9337 H   0  0  0  0  0  0  0  0  0  0  0  0
 27 29  1  6
 30 27  1  0
 27 28  1  0
 27 26  1  0
 26 25  1  0
  9  8  1  0
  5  6  1  0
  5  4  1  0
  7  6  2  0
  7  8  1  0
  3  4  1  0
  3  2  1  0
 25 24  1  0
  8 10  1  0
  2  1  1  0
 21 24  1  6
 10 19  1  0
 10 11  1  0
 20 19  1  0
 20 21  1  0
 21 23  2  0
 21 22  1  0
 11 12  1  0
 12 13  2  0
 12 14  1  0
 15 14  1  0
 15 16  1  0
 17 18  1  0
 17 16  1  0
  1 31  1  0
  1 32  1  0
  1 33  1  0
  2 34  1  0
  2 35  1  0
  3 36  1  0
  3 37  1  0
  4 38  1  0
  4 39  1  0
  5 40  1  0
  5 41  1  0
  6 42  1  0
  7 43  1  0
  8 44  1  1
  9 45  1  0
 10 46  1  6
 11 47  1  0
 14 48  1  0
 14 49  1  0
 15 50  1  0
 15 51  1  0
 16 52  1  0
 16 53  1  0
 17 54  1  0
 17 55  1  0
 18 56  1  0
 18 57  1  0
 18 58  1  0
 19 59  1  0
 19 60  1  0
 22 61  1  0
 25 62  1  0
 25 63  1  0
 26 64  1  0
 26 65  1  0
 28 66  1  0
 28 67  1  0
 28 68  1  0
 29 69  1  0
 29 70  1  0
 29 71  1  0
 30 72  1  0
 30 73  1  0
 30 74  1  0
M  CHG  1  27   1
M  END
