
     RDKit          3D

 34 37  0  0  0  0  0  0  0  0999 V2000
    3.3593    3.7149    0.5071 N   0  0  0  0  0  0  0  0  0  0  0  0
    3.8217    2.4841    0.2129 C   0  0  0  0  0  0  0  0  0  0  0  0
    5.1264    2.3730   -0.0717 N   0  0  0  0  0  0  0  0  0  0  0  0
    5.5549    1.1503   -0.3267 C   0  0  0  0  0  0  0  0  0  0  0  0
    4.7380    0.0313   -0.3061 C   0  0  0  0  0  0  0  0  0  0  0  0
    3.3984    0.2523    0.0048 C   0  0  0  0  0  0  0  0  0  0  0  0
    2.9512    1.4766    0.2607 N   0  0  0  0  0  0  0  0  0  0  0  0
    2.4014   -0.8375    0.0472 C   0  0  0  0  0  0  0  0  0  0  0  0
    2.8246   -2.2116    0.0918 C   0  0  0  0  0  0  0  0  0  0  0  0
    1.9545   -3.2524    0.1019 C   0  0  0  0  0  0  0  0  0  0  0  0
    0.5658   -2.9478    0.0696 C   0  0  0  0  0  0  0  0  0  0  0  0
   -0.4488   -3.7815    0.0446 N   0  0  0  0  0  0  0  0  0  0  0  0
   -1.5532   -2.9862    0.0154 O   0  0  0  0  0  0  0  0  0  0  0  0
   -1.2419   -1.6977    0.0232 C   0  0  0  0  0  0  0  0  0  0  0  0
   -2.3273   -0.7360   -0.0160 C   0  0  0  0  0  0  0  0  0  0  0  0
   -3.5645   -1.0741   -0.5708 C   0  0  0  0  0  0  0  0  0  0  0  0
   -4.5922   -0.1494   -0.6141 C   0  0  0  0  0  0  0  0  0  0  0  0
   -4.3853    1.1218   -0.0985 C   0  0  0  0  0  0  0  0  0  0  0  0
   -5.6668    2.2793   -0.1536 Cl  0  0  0  0  0  0  0  0  0  0  0  0
   -3.1687    1.4774    0.4637 C   0  0  0  0  0  0  0  0  0  0  0  0
   -2.1460    0.5463    0.5049 C   0  0  0  0  0  0  0  0  0  0  0  0
    0.1335   -1.5906    0.0552 C   0  0  0  0  0  0  0  0  0  0  0  0
    1.0680   -0.5324    0.0344 C   0  0  0  0  0  0  0  0  0  0  0  0
    3.9337    4.5104    0.2889 H   0  0  0  0  0  0  0  0  0  0  0  0
    2.3655    3.8635    0.5346 H   0  0  0  0  0  0  0  0  0  0  0  0
    6.6082    1.0478   -0.5655 H   0  0  0  0  0  0  0  0  0  0  0  0
    5.1407   -0.9404   -0.5447 H   0  0  0  0  0  0  0  0  0  0  0  0
    3.8825   -2.4318    0.1314 H   0  0  0  0  0  0  0  0  0  0  0  0
    2.2980   -4.2770    0.1361 H   0  0  0  0  0  0  0  0  0  0  0  0
   -3.7331   -2.0573   -0.9888 H   0  0  0  0  0  0  0  0  0  0  0  0
   -5.5437   -0.4180   -1.0515 H   0  0  0  0  0  0  0  0  0  0  0  0
   -3.0187    2.4653    0.8765 H   0  0  0  0  0  0  0  0  0  0  0  0
   -1.2132    0.8255    0.9750 H   0  0  0  0  0  0  0  0  0  0  0  0
    0.7495    0.4996   -0.0100 H   0  0  0  0  0  0  0  0  0  0  0  0
  1  2  1  0
  2  3  2  0
  2  7  1  0
  3  4  1  0
  4  5  2  0
  5  6  1  0
  6  7  2  0
  6  8  1  0
  8  9  1  0
  8 23  2  0
  9 10  2  0
 10 11  1  0
 11 12  2  0
 11 22  1  0
 12 13  1  0
 13 14  1  0
 14 15  1  0
 14 22  2  0
 15 16  2  0
 15 21  1  0
 16 17  1  0
 17 18  2  0
 18 19  1  0
 18 20  1  0
 20 21  2  0
 22 23  1  0
  1 24  1  0
  1 25  1  0
  4 26  1  0
  5 27  1  0
  9 28  1  0
 10 29  1  0
 16 30  1  0
 17 31  1  0
 20 32  1  0
 21 33  1  0
 23 34  1  0
M  END
