
     RDKit          3D

 31 33  0  0  0  0  0  0  0  0999 V2000
   -1.0625   -0.0858    1.8783 C   0  0  0  0  0  0  0  0  0  0  0  0
   -1.9197   -0.0793    3.0909 C   0  0  0  0  0  0  0  0  0  0  0  0
   -0.9741    0.0306    4.1686 C   0  0  0  0  0  0  0  0  0  0  0  0
   -1.1279    0.0834    5.5575 C   0  0  0  0  0  0  0  0  0  0  0  0
    0.0119    0.1887    6.3417 C   0  0  0  0  0  0  0  0  0  0  0  0
    1.2746    0.2403    5.7383 C   0  0  0  0  0  0  0  0  0  0  0  0
    1.4511    0.1876    4.3466 C   0  0  0  0  0  0  0  0  0  0  0  0
    0.3007    0.0830    3.6106 C   0  0  0  0  0  0  0  0  0  0  0  0
   -1.4961   -0.1736    0.6156 C   0  0  0  0  0  0  0  0  0  0  0  0
   -0.7519   -0.1954   -0.6276 C   0  0  0  0  0  0  0  0  0  0  0  0
   -1.4675   -0.2382   -1.8427 C   0  0  0  0  0  0  0  0  0  0  0  0
   -0.7733   -0.2638   -3.0543 C   0  0  0  0  0  0  0  0  0  0  0  0
    0.6235   -0.2555   -3.1054 C   0  0  0  0  0  0  0  0  0  0  0  0
    1.3153   -0.2164   -1.8905 C   0  0  0  0  0  0  0  0  0  0  0  0
    0.6445   -0.1849   -0.6893 C   0  0  0  0  0  0  0  0  0  0  0  0
   -1.7420   -0.3033   -4.6727 Br  0  0  0  0  0  0  0  0  0  0  0  0
    3.1959   -0.2082   -1.9178 Br  0  0  0  0  0  0  0  0  0  0  0  0
    0.2521    0.0150    2.2575 O   0  0  0  0  0  0  0  0  0  0  0  0
   -3.1388   -0.1522    3.1310 O   0  0  0  0  0  0  0  0  0  0  0  0
   -2.3228    0.0351    6.1419 O   0  0  0  0  0  0  0  0  0  0  0  0
    2.3850    0.3442    6.4697 O   0  0  0  0  0  0  0  0  0  0  0  0
   -2.7959   -0.2457   -1.7611 O   0  0  0  0  0  0  0  0  0  0  0  0
    1.3383   -0.2813   -4.2219 O   0  0  0  0  0  0  0  0  0  0  0  0
   -0.0779    0.2311    7.4212 H   0  0  0  0  0  0  0  0  0  0  0  0
    2.4359    0.2276    3.9015 H   0  0  0  0  0  0  0  0  0  0  0  0
   -2.5747   -0.2367    0.5451 H   0  0  0  0  0  0  0  0  0  0  0  0
    1.2207   -0.1573    0.2221 H   0  0  0  0  0  0  0  0  0  0  0  0
   -3.0253   -0.0369    5.4807 H   0  0  0  0  0  0  0  0  0  0  0  0
    2.1795    0.3663    7.4120 H   0  0  0  0  0  0  0  0  0  0  0  0
   -3.2341   -0.3453   -2.6159 H   0  0  0  0  0  0  0  0  0  0  0  0
    0.7972   -0.3126   -5.0220 H   0  0  0  0  0  0  0  0  0  0  0  0
  1  2  1  0
  1  9  2  0
  1 18  1  0
  2  3  1  0
  2 19  2  0
  3  4  1  0
  3  8  2  0
  4  5  2  0
  4 20  1  0
  5  6  1  0
  5 24  1  0
  6  7  2  0
  6 21  1  0
  7  8  1  0
  7 25  1  0
  8 18  1  0
  9 10  1  0
  9 26  1  0
 10 11  2  0
 10 15  1  0
 11 12  1  0
 11 22  1  0
 12 13  2  0
 12 16  1  0
 13 14  1  0
 13 23  1  0
 14 15  2  0
 14 17  1  0
 15 27  1  0
 20 28  1  0
 21 29  1  0
 22 30  1  0
 23 31  1  0
M  END
