
     RDKit          3D

 62 65  0  0  0  0  0  0  0  0999 V2000
    4.9980   -3.0184    1.7004 C   0  0  0  0  0  0  0  0  0  0  0  0
    4.7011   -2.5077    0.4062 O   0  0  0  0  0  0  0  0  0  0  0  0
    4.5696   -1.1646    0.3327 C   0  0  0  0  0  0  0  0  0  0  0  0
    3.3232   -0.5378    0.2675 C   0  0  0  0  0  0  0  0  0  0  0  0
    2.0561   -1.3157    0.3526 C   0  0  0  0  0  0  0  0  0  0  0  0
    2.0131   -2.4054    0.8833 O   0  0  0  0  0  0  0  0  0  0  0  0
    0.8122   -0.7005   -0.2514 C   0  0  0  0  0  0  0  0  0  0  0  0
   -0.3619   -1.6644   -0.3366 C   0  0  0  0  0  0  0  0  0  0  0  0
   -1.6096   -1.0570   -0.9737 C   0  0  1  0  0  0  0  0  0  0  0  0
   -2.6951   -2.1182   -1.1356 C   0  0  0  0  0  0  0  0  0  0  0  0
   -3.9840   -1.5317   -1.6878 C   0  0  0  0  0  0  0  0  0  0  0  0
   -4.4701   -0.4652   -0.8357 N   0  0  0  0  0  0  0  0  0  0  0  0
   -5.7851    0.0063   -1.2199 C   0  0  0  0  0  0  0  0  0  0  0  0
   -6.5352    0.7170   -0.0959 C   0  0  1  0  0  0  0  0  0  0  0  0
   -7.8983    1.1998   -0.5905 C   0  0  0  0  0  0  0  0  0  0  0  0
   -8.6926    1.8924    0.5135 C   0  0  0  0  0  0  0  0  0  0  0  0
   -8.8502    0.9901    1.7334 C   0  0  0  0  0  0  0  0  0  0  0  0
   -7.4925    0.5099    2.2351 C   0  0  0  0  0  0  0  0  0  0  0  0
   -6.7017   -0.1808    1.1285 C   0  0  0  0  0  0  0  0  0  0  0  0
   -3.4956    0.6039   -0.7526 C   0  0  0  0  0  0  0  0  0  0  0  0
   -2.1789    0.1113   -0.1716 C   0  0  0  0  0  0  0  0  0  0  0  0
    3.2599    0.8664    0.1029 C   0  0  0  0  0  0  0  0  0  0  0  0
    4.3910    1.6385    0.0449 C   0  0  0  0  0  0  0  0  0  0  0  0
    4.3111    3.3575   -0.1274 Cl  0  0  0  0  0  0  0  0  0  0  0  0
    5.6334    1.0117    0.1167 C   0  0  0  0  0  0  0  0  0  0  0  0
    6.8898    1.5126    0.0573 N   0  0  0  0  0  0  0  0  0  0  0  0
    7.7892    0.4840    0.1389 C   0  0  0  0  0  0  0  0  0  0  0  0
    7.1256   -0.7011    0.2538 C   0  0  0  0  0  0  0  0  0  0  0  0
    5.7309   -0.3870    0.2494 C   0  0  0  0  0  0  0  0  0  0  0  0
    5.1281   -4.0931    1.5935 H   0  0  0  0  0  0  0  0  0  0  0  0
    5.9206   -2.5924    2.1016 H   0  0  0  0  0  0  0  0  0  0  0  0
    4.1827   -2.8271    2.3993 H   0  0  0  0  0  0  0  0  0  0  0  0
    0.5398    0.1727    0.3512 H   0  0  0  0  0  0  0  0  0  0  0  0
    1.0586   -0.3044   -1.2415 H   0  0  0  0  0  0  0  0  0  0  0  0
   -0.0627   -2.5441   -0.9139 H   0  0  0  0  0  0  0  0  0  0  0  0
   -0.6191   -2.0270    0.6628 H   0  0  0  0  0  0  0  0  0  0  0  0
   -1.3486   -0.6854   -1.9744 H   0  0  0  0  0  0  0  0  0  0  0  0
   -2.3471   -2.9200   -1.7930 H   0  0  0  0  0  0  0  0  0  0  0  0
   -2.9034   -2.5714   -0.1602 H   0  0  0  0  0  0  0  0  0  0  0  0
   -3.8128   -1.1834   -2.7237 H   0  0  0  0  0  0  0  0  0  0  0  0
   -4.7476   -2.3115   -1.7439 H   0  0  0  0  0  0  0  0  0  0  0  0
   -5.7403    0.6674   -2.1050 H   0  0  0  0  0  0  0  0  0  0  0  0
   -6.3798   -0.8631   -1.5210 H   0  0  0  0  0  0  0  0  0  0  0  0
   -5.9684    1.6058    0.2122 H   0  0  0  0  0  0  0  0  0  0  0  0
   -7.7704    1.8759   -1.4411 H   0  0  0  0  0  0  0  0  0  0  0  0
   -8.4700    0.3394   -0.9599 H   0  0  0  0  0  0  0  0  0  0  0  0
   -8.1750    2.8117    0.8087 H   0  0  0  0  0  0  0  0  0  0  0  0
   -9.6722    2.1970    0.1364 H   0  0  0  0  0  0  0  0  0  0  0  0
   -9.3876    1.5152    2.5271 H   0  0  0  0  0  0  0  0  0  0  0  0
   -9.4640    0.1234    1.4633 H   0  0  0  0  0  0  0  0  0  0  0  0
   -6.9201    1.3690    2.6030 H   0  0  0  0  0  0  0  0  0  0  0  0
   -7.6176   -0.1653    3.0855 H   0  0  0  0  0  0  0  0  0  0  0  0
   -7.2237   -1.0975    0.8254 H   0  0  0  0  0  0  0  0  0  0  0  0
   -5.7214   -0.4926    1.4938 H   0  0  0  0  0  0  0  0  0  0  0  0
   -3.3107    1.0496   -1.7486 H   0  0  0  0  0  0  0  0  0  0  0  0
   -3.8875    1.4047   -0.1222 H   0  0  0  0  0  0  0  0  0  0  0  0
   -2.3427   -0.2065    0.8639 H   0  0  0  0  0  0  0  0  0  0  0  0
   -1.4750    0.9463   -0.1423 H   0  0  0  0  0  0  0  0  0  0  0  0
    2.2998    1.3588    0.0395 H   0  0  0  0  0  0  0  0  0  0  0  0
    7.1293    2.4857   -0.0440 H   0  0  0  0  0  0  0  0  0  0  0  0
    8.8478    0.6828    0.1075 H   0  0  0  0  0  0  0  0  0  0  0  0
    7.5755   -1.6770    0.3350 H   0  0  0  0  0  0  0  0  0  0  0  0
 24 23  1  0
 22 23  2  0
 22  4  1  0
  6  5  2  0
 23 25  1  0
  5  4  1  0
  5  7  1  0
  8  7  1  0
  8  9  1  0
  4  3  2  0
 25 26  1  0
 25 29  2  0
 21  9  1  0
 21 20  1  0
 26 27  1  0
  9 10  1  0
  3 29  1  0
  3  2  1  0
 29 28  1  0
 20 12  1  0
 27 28  2  0
  2  1  1  0
 10 11  1  0
 18 19  1  0
 18 17  1  0
 12 11  1  0
 12 13  1  0
 19 14  1  0
 14 13  1  0
 14 15  1  0
 17 16  1  0
 16 15  1  0
  1 30  1  0
  1 31  1  0
  1 32  1  0
  7 33  1  0
  7 34  1  0
  8 35  1  0
  8 36  1  0
  9 37  1  6
 10 38  1  0
 10 39  1  0
 11 40  1  0
 11 41  1  0
 13 42  1  0
 13 43  1  0
 14 44  1  1
 15 45  1  0
 15 46  1  0
 16 47  1  0
 16 48  1  0
 17 49  1  0
 17 50  1  0
 18 51  1  0
 18 52  1  0
 19 53  1  0
 19 54  1  0
 20 55  1  0
 20 56  1  0
 21 57  1  0
 21 58  1  0
 22 59  1  0
 26 60  1  0
 27 61  1  0
 28 62  1  0
M  END
