
     RDKit          3D

 42 44  0  0  0  0  0  0  0  0999 V2000
    0.7317    2.1767    0.6699 O   0  0  0  0  0  0  0  0  0  0  0  0
    0.9230    1.0486    0.2753 C   0  0  0  0  0  0  0  0  0  0  0  0
   -0.0482    0.2197   -0.0709 O   0  0  0  0  0  0  0  0  0  0  0  0
   -1.3994    0.6847   -0.0046 C   0  0  2  0  0  0  0  0  0  0  0  0
   -1.9586    0.8079    1.4303 C   0  0  0  0  0  0  0  0  0  0  0  0
   -3.1790   -0.1204    1.3977 C   0  0  2  0  0  0  0  0  0  0  0  0
   -2.3260   -0.3380   -0.6845 C   0  0  1  0  0  0  0  0  0  0  0  0
   -2.2336   -0.3388   -2.1949 C   0  0  0  0  0  0  0  0  0  0  0  0
   -2.0715   -1.7111   -0.0353 C   0  0  0  0  0  0  0  0  0  0  0  0
   -2.6431   -1.5597    1.3947 C   0  0  0  0  0  0  0  0  0  0  0  0
   -3.6930    0.0585   -0.0486 C   0  0  1  0  0  0  0  0  0  0  0  0
   -4.8464   -0.8724   -0.4174 C   0  0  0  0  0  0  0  0  0  0  0  0
   -4.1583    1.4786   -0.3775 C   0  0  0  0  0  0  0  0  0  0  0  0
    2.2643    0.4460    0.1244 C   0  0  0  0  0  0  0  0  0  0  0  0
    3.3821    1.2065    0.4643 C   0  0  0  0  0  0  0  0  0  0  0  0
    4.6586    0.6940    0.3352 C   0  0  0  0  0  0  0  0  0  0  0  0
    4.8412   -0.6034   -0.1438 C   0  0  0  0  0  0  0  0  0  0  0  0
    6.0534   -1.1540   -0.2937 O   0  0  0  0  0  0  0  0  0  0  0  0
    3.7296   -1.3751   -0.4861 C   0  0  0  0  0  0  0  0  0  0  0  0
    2.4584   -0.8528   -0.3519 C   0  0  0  0  0  0  0  0  0  0  0  0
   -1.4441    1.6431   -0.5276 H   0  0  0  0  0  0  0  0  0  0  0  0
   -1.2317    0.5016    2.1849 H   0  0  0  0  0  0  0  0  0  0  0  0
   -2.2295    1.8404    1.6510 H   0  0  0  0  0  0  0  0  0  0  0  0
   -3.9110    0.0794    2.1830 H   0  0  0  0  0  0  0  0  0  0  0  0
   -1.2296   -0.6069   -2.5301 H   0  0  0  0  0  0  0  0  0  0  0  0
   -2.9246   -1.0641   -2.6283 H   0  0  0  0  0  0  0  0  0  0  0  0
   -2.4701    0.6414   -2.6151 H   0  0  0  0  0  0  0  0  0  0  0  0
   -2.5990   -2.4861   -0.5950 H   0  0  0  0  0  0  0  0  0  0  0  0
   -1.0184   -1.9915   -0.0491 H   0  0  0  0  0  0  0  0  0  0  0  0
   -1.8846   -1.7018    2.1670 H   0  0  0  0  0  0  0  0  0  0  0  0
   -3.4306   -2.2886    1.5924 H   0  0  0  0  0  0  0  0  0  0  0  0
   -5.7494   -0.5712    0.1180 H   0  0  0  0  0  0  0  0  0  0  0  0
   -5.0697   -0.8050   -1.4844 H   0  0  0  0  0  0  0  0  0  0  0  0
   -4.6711   -1.9217   -0.1869 H   0  0  0  0  0  0  0  0  0  0  0  0
   -3.4208    2.2562   -0.1848 H   0  0  0  0  0  0  0  0  0  0  0  0
   -4.4396    1.5553   -1.4298 H   0  0  0  0  0  0  0  0  0  0  0  0
   -5.0443    1.7293    0.2093 H   0  0  0  0  0  0  0  0  0  0  0  0
    3.2563    2.2152    0.8347 H   0  0  0  0  0  0  0  0  0  0  0  0
    5.5146    1.3022    0.6035 H   0  0  0  0  0  0  0  0  0  0  0  0
    6.7453   -0.5290   -0.0474 H   0  0  0  0  0  0  0  0  0  0  0  0
    3.8702   -2.3818   -0.8585 H   0  0  0  0  0  0  0  0  0  0  0  0
    1.6136   -1.4708   -0.6245 H   0  0  0  0  0  0  0  0  0  0  0  0
 18 17  1  0
 17 16  1  0
 17 19  2  0
 16 15  2  0
 19 20  1  0
 15 14  1  0
 20 14  2  0
 14  2  1  0
  2  3  1  0
  2  1  2  0
  3  4  1  0
  5  4  1  0
  5  6  1  0
  4  7  1  0
  6 10  1  0
  6 11  1  0
 11 13  1  1
 10  9  1  0
  7 11  1  0
  7  9  1  0
  7  8  1  6
 11 12  1  0
  4 21  1  6
  5 22  1  0
  5 23  1  0
  6 24  1  1
  8 25  1  0
  8 26  1  0
  8 27  1  0
  9 28  1  0
  9 29  1  0
 10 30  1  0
 10 31  1  0
 12 32  1  0
 12 33  1  0
 12 34  1  0
 13 35  1  0
 13 36  1  0
 13 37  1  0
 15 38  1  0
 16 39  1  0
 18 40  1  0
 19 41  1  0
 20 42  1  0
M  END
