
     RDKit          3D

 42 43  0  0  0  0  0  0  0  0999 V2000
    7.1886    3.5991   -0.0482 C   0  0  0  0  0  0  0  0  0  0  0  0
    5.7427    3.1946    0.2032 C   0  0  0  0  0  0  0  0  0  0  0  0
    5.4627    1.7414   -0.1614 C   0  0  0  0  0  0  0  0  0  0  0  0
    4.0117    1.3375    0.0669 C   0  0  0  0  0  0  0  0  0  0  0  0
    3.7722   -0.1187   -0.3043 C   0  0  0  0  0  0  0  0  0  0  0  0
    2.3437   -0.5518   -0.1100 C   0  0  0  0  0  0  0  0  0  0  0  0
    0.7197   -2.3550   -0.2085 C   0  0  1  0  0  0  0  0  0  0  0  0
    0.4005   -2.5653    1.2733 C   0  0  0  0  0  0  0  0  0  0  0  0
   -0.8907   -1.8310    1.5084 C   0  0  0  0  0  0  0  0  0  0  0  0
   -2.4609   -0.4783    0.1715 C   0  0  0  0  0  0  0  0  0  0  0  0
   -3.5568   -0.9845   -0.5103 C   0  0  0  0  0  0  0  0  0  0  0  0
   -4.6968   -0.2105   -0.6585 C   0  0  0  0  0  0  0  0  0  0  0  0
   -4.7235    1.0630   -0.1106 C   0  0  0  0  0  0  0  0  0  0  0  0
   -3.6331    1.5763    0.5756 C   0  0  0  0  0  0  0  0  0  0  0  0
   -2.4939    0.7992    0.7105 C   0  0  0  0  0  0  0  0  0  0  0  0
   -0.3904   -1.4432   -0.7172 C   0  0  0  0  0  0  0  0  0  0  0  0
    2.0102   -1.8017   -0.5218 N   0  0  0  0  0  0  0  0  0  0  0  0
   -1.2945   -1.2692    0.3084 N   0  0  0  0  0  0  0  0  0  0  0  0
    1.4708    0.1535    0.3735 O   0  0  0  0  0  0  0  0  0  0  0  0
    2.9955   -2.6922   -0.8435 O   0  0  0  0  0  0  0  0  0  0  0  0
   -1.5054   -1.7293    2.5374 O   0  0  0  0  0  0  0  0  0  0  0  0
   -0.5050   -0.9881   -1.8224 O   0  0  0  0  0  0  0  0  0  0  0  0
   -6.1462    2.0318   -0.2884 Cl  0  0  0  0  0  0  0  0  0  0  0  0
    7.3613    4.6451    0.2070 H   0  0  0  0  0  0  0  0  0  0  0  0
    7.8785    2.9975    0.5464 H   0  0  0  0  0  0  0  0  0  0  0  0
    7.4581    3.4676   -1.0980 H   0  0  0  0  0  0  0  0  0  0  0  0
    5.4929    3.3580    1.2560 H   0  0  0  0  0  0  0  0  0  0  0  0
    5.0770    3.8463   -0.3708 H   0  0  0  0  0  0  0  0  0  0  0  0
    5.7274    1.5753   -1.2115 H   0  0  0  0  0  0  0  0  0  0  0  0
    6.1202    1.0894    0.4238 H   0  0  0  0  0  0  0  0  0  0  0  0
    3.7467    1.5037    1.1143 H   0  0  0  0  0  0  0  0  0  0  0  0
    3.3582    1.9837   -0.5249 H   0  0  0  0  0  0  0  0  0  0  0  0
    4.0626   -0.2938   -1.3445 H   0  0  0  0  0  0  0  0  0  0  0  0
    4.4172   -0.7713    0.2921 H   0  0  0  0  0  0  0  0  0  0  0  0
    0.6325   -3.2936   -0.7590 H   0  0  0  0  0  0  0  0  0  0  0  0
    0.2623   -3.6189    1.5169 H   0  0  0  0  0  0  0  0  0  0  0  0
    1.1700   -2.1757    1.9400 H   0  0  0  0  0  0  0  0  0  0  0  0
   -3.5277   -1.9839   -0.9237 H   0  0  0  0  0  0  0  0  0  0  0  0
   -5.5528   -0.6002   -1.1914 H   0  0  0  0  0  0  0  0  0  0  0  0
   -3.6649    2.5712    0.9974 H   0  0  0  0  0  0  0  0  0  0  0  0
   -1.6319    1.1952    1.2306 H   0  0  0  0  0  0  0  0  0  0  0  0
    3.0082   -2.7447   -1.8093 H   0  0  0  0  0  0  0  0  0  0  0  0
 23 13  1  0
 14 13  2  0
 14 15  1  0
 13 12  1  0
 15 10  2  0
 12 11  2  0
 22 16  2  0
  1  2  1  0
 10 11  1  0
 10 18  1  0
  5  4  1  0
  5  6  1  0
  4  3  1  0
 16 18  1  0
 16  7  1  0
 18  9  1  0
  2  3  1  0
  6 19  2  0
  6 17  1  0
  7 17  1  0
  7  8  1  0
 17 20  1  0
  9 21  2  0
  9  8  1  0
  1 24  1  0
  1 25  1  0
  1 26  1  0
  2 27  1  0
  2 28  1  0
  3 29  1  0
  3 30  1  0
  4 31  1  0
  4 32  1  0
  5 33  1  0
  5 34  1  0
  7 35  1  6
  8 36  1  0
  8 37  1  0
 11 38  1  0
 12 39  1  0
 14 40  1  0
 15 41  1  0
 20 42  1  0
M  END
