
     RDKit          3D

 29 28  0  0  0  0  0  0  0  0999 V2000
   -2.1382   -0.3090    0.0674 N   0  0  1  0  0  0  0  0  0  0  0  0
   -2.0748   -1.4277    1.0506 C   0  0  0  0  0  0  0  0  0  0  0  0
    3.9229    0.4167    0.6158 O   0  0  0  0  0  0  0  0  0  0  0  0
    2.8768   -0.1464    0.0235 C   0  0  0  0  0  0  0  0  0  0  0  0
    2.9691   -1.0555   -0.7622 O   0  0  0  0  0  0  0  0  0  0  0  0
    1.5864    0.4919    0.4611 C   0  0  0  0  0  0  0  0  0  0  0  0
   -0.9078    0.5911    0.2315 C   0  0  1  0  0  0  0  0  0  0  0  0
   -2.2383   -0.8722   -1.3075 C   0  0  0  0  0  0  0  0  0  0  0  0
   -3.3815    0.4622    0.3569 C   0  0  0  0  0  0  0  0  0  0  0  0
    0.3701   -0.1170   -0.2216 C   0  0  0  0  0  0  0  0  0  0  0  0
   -1.0789    1.9219   -0.4814 C   0  0  0  0  0  0  0  0  0  0  0  0
   -2.0438   -1.0152    2.0554 H   0  0  0  0  0  0  0  0  0  0  0  0
   -2.9619   -2.0443    0.9364 H   0  0  0  0  0  0  0  0  0  0  0  0
   -1.1971   -2.0410    0.8780 H   0  0  0  0  0  0  0  0  0  0  0  0
   -0.8653    0.7698    1.3089 H   0  0  0  0  0  0  0  0  0  0  0  0
   -3.1643   -1.4364   -1.3820 H   0  0  0  0  0  0  0  0  0  0  0  0
   -2.2495   -0.0666   -2.0355 H   0  0  0  0  0  0  0  0  0  0  0  0
   -1.4017   -1.5369   -1.5006 H   0  0  0  0  0  0  0  0  0  0  0  0
   -3.2849    0.9547    1.3214 H   0  0  0  0  0  0  0  0  0  0  0  0
   -3.5565    1.1957   -0.4226 H   0  0  0  0  0  0  0  0  0  0  0  0
   -4.2189   -0.2293    0.3868 H   0  0  0  0  0  0  0  0  0  0  0  0
    4.7416   -0.0119    0.3245 H   0  0  0  0  0  0  0  0  0  0  0  0
    1.5070    0.3864    1.5472 H   0  0  0  0  0  0  0  0  0  0  0  0
    1.6648    1.5658    0.2737 H   0  0  0  0  0  0  0  0  0  0  0  0
    0.4687   -0.0363   -1.3058 H   0  0  0  0  0  0  0  0  0  0  0  0
    0.3497   -1.1803    0.0160 H   0  0  0  0  0  0  0  0  0  0  0  0
   -0.1502    2.4837   -0.3968 H   0  0  0  0  0  0  0  0  0  0  0  0
   -1.2797    1.8011   -1.5459 H   0  0  0  0  0  0  0  0  0  0  0  0
   -1.8541    2.5448   -0.0419 H   0  0  0  0  0  0  0  0  0  0  0  0
  1  2  1  1
  1  7  1  0
  1  8  1  0
  1  9  1  0
  3  4  1  0
  4  5  2  0
  4  6  1  0
  6 10  1  0
  7 10  1  0
  7 11  1  0
  2 12  1  0
  2 13  1  0
  2 14  1  0
  7 15  1  1
  8 16  1  0
  8 17  1  0
  8 18  1  0
  9 19  1  0
  9 20  1  0
  9 21  1  0
  3 22  1  0
  6 23  1  0
  6 24  1  0
 10 25  1  0
 10 26  1  0
 11 27  1  0
 11 28  1  0
 11 29  1  0
M  CHG  1   1   1
M  END
