
     RDKit          3D

 45 48  0  0  0  0  0  0  0  0999 V2000
    7.2268   -0.6568   -0.4571 C   0  0  0  0  0  0  0  0  0  0  0  0
    5.7659   -0.3781   -0.4687 C   0  0  0  0  0  0  0  0  0  0  0  0
    4.7160   -1.2241   -0.7198 C   0  0  0  0  0  0  0  0  0  0  0  0
    5.2455    0.8415   -0.1992 N   0  0  0  0  0  0  0  0  0  0  0  0
    3.9600    0.7876   -0.2683 N   0  0  0  0  0  0  0  0  0  0  0  0
    3.6239   -0.4489   -0.5870 N   0  0  0  0  0  0  0  0  0  0  0  0
    2.2347   -0.8344   -0.6656 C   0  0  0  0  0  0  0  0  0  0  0  0
    1.7146   -1.2339    0.7150 C   0  0  0  0  0  0  0  0  0  0  0  0
    0.3366   -1.6668    0.6460 N   0  0  0  0  0  0  0  0  0  0  0  0
   -0.0650   -2.9556    0.6168 C   0  0  0  0  0  0  0  0  0  0  0  0
   -1.3451   -3.0663    0.3970 N   0  0  0  0  0  0  0  0  0  0  0  0
   -1.8139   -1.7898    0.2608 C   0  0  0  0  0  0  0  0  0  0  0  0
   -3.2345   -1.5298    0.0160 C   0  0  0  0  0  0  0  0  0  0  0  0
   -3.9935   -2.4677   -0.6875 C   0  0  0  0  0  0  0  0  0  0  0  0
   -5.3409   -2.2496   -0.9313 C   0  0  0  0  0  0  0  0  0  0  0  0
   -5.9567   -1.0911   -0.4747 C   0  0  0  0  0  0  0  0  0  0  0  0
   -5.2136   -0.1576    0.2362 C   0  0  0  0  0  0  0  0  0  0  0  0
   -3.8665   -0.3763    0.4844 C   0  0  0  0  0  0  0  0  0  0  0  0
   -0.7762   -0.8950    0.4027 C   0  0  0  0  0  0  0  0  0  0  0  0
   -0.7305    0.5638    0.2901 C   0  0  0  0  0  0  0  0  0  0  0  0
   -1.1966    1.1814   -0.8722 C   0  0  0  0  0  0  0  0  0  0  0  0
   -1.1611    2.5562   -1.0031 C   0  0  0  0  0  0  0  0  0  0  0  0
   -0.6447    3.3327    0.0344 C   0  0  0  0  0  0  0  0  0  0  0  0
   -0.5978    4.7527   -0.0983 C   0  0  0  0  0  0  0  0  0  0  0  0
   -0.5637    5.8996   -0.2043 N   0  0  0  0  0  0  0  0  0  0  0  0
   -0.1771    2.7301    1.2008 C   0  0  0  0  0  0  0  0  0  0  0  0
   -0.2272    1.3535    1.3247 C   0  0  0  0  0  0  0  0  0  0  0  0
    7.5792   -0.8958    0.5476 H   0  0  0  0  0  0  0  0  0  0  0  0
    7.4698   -1.5011   -1.0997 H   0  0  0  0  0  0  0  0  0  0  0  0
    7.7908    0.2079   -0.8046 H   0  0  0  0  0  0  0  0  0  0  0  0
    4.6661   -2.2682   -0.9789 H   0  0  0  0  0  0  0  0  0  0  0  0
    1.6754    0.0078   -1.0705 H   0  0  0  0  0  0  0  0  0  0  0  0
    2.1452   -1.6664   -1.3621 H   0  0  0  0  0  0  0  0  0  0  0  0
    2.3012   -2.0631    1.1095 H   0  0  0  0  0  0  0  0  0  0  0  0
    1.8182   -0.4045    1.4126 H   0  0  0  0  0  0  0  0  0  0  0  0
    0.6272   -3.7707    0.7686 H   0  0  0  0  0  0  0  0  0  0  0  0
   -3.5197   -3.3704   -1.0506 H   0  0  0  0  0  0  0  0  0  0  0  0
   -5.9107   -2.9862   -1.4831 H   0  0  0  0  0  0  0  0  0  0  0  0
   -7.0077   -0.9195   -0.6671 H   0  0  0  0  0  0  0  0  0  0  0  0
   -5.6857    0.7415    0.6105 H   0  0  0  0  0  0  0  0  0  0  0  0
   -3.3124    0.3508    1.0632 H   0  0  0  0  0  0  0  0  0  0  0  0
   -1.5865    0.5800   -1.6824 H   0  0  0  0  0  0  0  0  0  0  0  0
   -1.5242    3.0254   -1.9070 H   0  0  0  0  0  0  0  0  0  0  0  0
    0.2142    3.3330    2.0087 H   0  0  0  0  0  0  0  0  0  0  0  0
    0.1104    0.8963    2.2452 H   0  0  0  0  0  0  0  0  0  0  0  0
 10 11  2  0
 10  9  1  0
 11 12  1  0
  9  8  1  0
  9 19  1  0
 12 13  1  0
 12 19  2  0
  8  7  1  0
 13 14  2  0
 13 18  1  0
 14 15  1  0
 18 17  2  0
 15 16  2  0
 27 26  2  0
 27 20  1  0
 16 17  1  0
 19 20  1  0
 26 23  1  0
 20 21  2  0
  7  6  1  0
 23 24  1  0
 23 22  2  0
 21 22  1  0
 24 25  3  0
  6  3  1  0
  6  5  1  0
  3  2  2  0
  5  4  2  0
  2  4  1  0
  2  1  1  0
  1 28  1  0
  1 29  1  0
  1 30  1  0
  3 31  1  0
  7 32  1  0
  7 33  1  0
  8 34  1  0
  8 35  1  0
 10 36  1  0
 14 37  1  0
 15 38  1  0
 16 39  1  0
 17 40  1  0
 18 41  1  0
 21 42  1  0
 22 43  1  0
 26 44  1  0
 27 45  1  0
M  END
