
     RDKit          3D

 31 30  0  0  0  0  0  0  0  0999 V2000
    4.6000    0.0750   -0.0914 C   0  0  0  0  0  0  0  0  0  0  0  0
    3.1966   -1.6902    0.9476 N   0  0  0  0  0  0  0  0  0  0  0  0
    5.4584    0.1437    0.7938 O   0  0  0  0  0  0  0  0  0  0  0  0
    3.2641   -0.6642   -0.0634 C   0  0  1  0  0  0  0  0  0  0  0  0
    2.1496    0.3881    0.0520 C   0  0  0  0  0  0  0  0  0  0  0  0
   -0.2881    0.8407   -0.0119 C   0  0  0  0  0  0  0  0  0  0  0  0
   -1.6303    0.2962   -0.0520 N   0  0  0  0  0  0  0  0  0  0  0  0
    0.7795   -0.2539    0.0412 C   0  0  0  0  0  0  0  0  0  0  0  0
   -2.7867    1.1240    0.0442 C   0  0  0  0  0  0  0  0  0  0  0  0
   -4.3365   -0.8828   -0.1410 C   0  0  0  0  0  0  0  0  0  0  0  0
   -3.4216   -1.7232   -0.2359 O   0  0  0  0  0  0  0  0  0  0  0  0
   -5.7882   -1.3013   -0.1672 C   0  0  0  0  0  0  0  0  0  0  0  0
   -2.6661    2.4211    0.1736 N   0  0  0  0  0  0  0  0  0  0  0  0
   -4.0832    0.4742   -0.0070 N   0  0  0  0  0  0  0  0  0  0  0  0
    3.9331   -2.3572    0.8261 H   0  0  0  0  0  0  0  0  0  0  0  0
    3.2536   -1.2987    1.8671 H   0  0  0  0  0  0  0  0  0  0  0  0
    3.1677   -1.1768   -1.0703 H   0  0  0  0  0  0  0  0  0  0  0  0
    2.2837    0.9894    0.9886 H   0  0  0  0  0  0  0  0  0  0  0  0
    2.2495    1.0885   -0.8201 H   0  0  0  0  0  0  0  0  0  0  0  0
   -0.1403    1.4582   -0.9442 H   0  0  0  0  0  0  0  0  0  0  0  0
   -0.1438    1.5263    0.8733 H   0  0  0  0  0  0  0  0  0  0  0  0
   -1.7306   -0.6972   -0.1511 H   0  0  0  0  0  0  0  0  0  0  0  0
    0.6849   -0.9304   -0.8489 H   0  0  0  0  0  0  0  0  0  0  0  0
    0.6429   -0.8851    0.9587 H   0  0  0  0  0  0  0  0  0  0  0  0
   -6.2962   -1.0195    0.7868 H   0  0  0  0  0  0  0  0  0  0  0  0
   -6.3188   -0.8176   -1.0229 H   0  0  0  0  0  0  0  0  0  0  0  0
   -5.8367   -2.4115   -0.2901 H   0  0  0  0  0  0  0  0  0  0  0  0
   -3.5140    2.9400    0.2353 H   0  0  0  0  0  0  0  0  0  0  0  0
   -4.8674    1.0809    0.0628 H   0  0  0  0  0  0  0  0  0  0  0  0
    4.8558    0.7362   -1.2520 O   0  0  0  0  0  0  0  0  0  0  0  0
    5.7189    1.1793   -1.1935 H   0  0  0  0  0  0  0  0  0  0  0  0
  4  1  1  0
  1  3  2  0
  4  2  1  0
  2 15  1  0
  2 16  1  0
  5  4  1  0
  4 17  1  6
  8  5  1  0
  5 18  1  0
  5 19  1  0
  6  8  1  0
  6  7  1  0
  6 20  1  0
  6 21  1  0
  9  7  1  0
  7 22  1  0
  8 23  1  0
  8 24  1  0
 13  9  2  0
  9 14  1  0
 11 10  2  0
 10 14  1  0
 10 12  1  0
 12 25  1  0
 12 26  1  0
 12 27  1  0
 13 28  1  0
 14 29  1  0
  1 30  1  0
 30 31  1  0
M  END
