
     RDKit          3D

 21 22  0  0  0  0  0  0  0  0999 V2000
    3.1414    1.8183   -0.0436 C   0  0  0  0  0  0  0  0  0  0  0  0
    2.0764   -1.5210   -0.0889 C   0  0  0  0  0  0  0  0  0  0  0  0
   -0.5682   -1.3029    0.0037 C   0  0  0  0  0  0  0  0  0  0  0  0
   -1.0795    0.9170    0.0738 C   0  0  0  0  0  0  0  0  0  0  0  0
    0.1255    1.4138    0.0447 N   0  0  0  0  0  0  0  0  0  0  0  0
    1.0505    0.4432   -0.0090 C   0  0  0  0  0  0  0  0  0  0  0  0
   -1.4928   -0.3369    0.0590 N   0  0  0  0  0  0  0  0  0  0  0  0
   -2.3572   -2.9672    0.0315 C   0  0  0  0  0  0  0  0  0  0  0  0
    0.7962   -0.9275   -0.0333 C   0  0  0  0  0  0  0  0  0  0  0  0
    3.0058   -0.5978   -0.0968 N   0  0  0  0  0  0  0  0  0  0  0  0
    2.3838    0.5921   -0.0483 N   0  0  0  0  0  0  0  0  0  0  0  0
    3.7557    1.8850   -0.9394 H   0  0  0  0  0  0  0  0  0  0  0  0
    2.4499    2.6554   -0.0250 H   0  0  0  0  0  0  0  0  0  0  0  0
    3.7797    1.8660    0.8365 H   0  0  0  0  0  0  0  0  0  0  0  0
    2.3436   -2.5662   -0.1227 H   0  0  0  0  0  0  0  0  0  0  0  0
   -0.2692   -3.2876   -0.0488 H   0  0  0  0  0  0  0  0  0  0  0  0
   -2.8365   -2.6485    0.9573 H   0  0  0  0  0  0  0  0  0  0  0  0
   -2.9194   -2.5556   -0.8064 H   0  0  0  0  0  0  0  0  0  0  0  0
   -2.3970   -4.0508   -0.0232 H   0  0  0  0  0  0  0  0  0  0  0  0
   -0.9700   -2.5669   -0.0144 N   0  0  0  0  0  0  0  0  0  0  0  0
   -2.3604    2.0896    0.1447 Cl  0  0  0  0  0  0  0  0  0  0  0  0
  1 11  1  0
 11 10  1  0
 11  6  1  0
 10  2  2  0
  6  5  1  0
  6  9  2  0
  5  4  2  0
  2  9  1  0
  9  3  1  0
  4 21  1  0
  4  7  1  0
  3  7  2  0
  3 20  1  0
 20  8  1  0
  1 12  1  0
  1 13  1  0
  1 14  1  0
  2 15  1  0
 20 16  1  0
  8 17  1  0
  8 18  1  0
  8 19  1  0
M  END
