
     RDKit          3D

 52 55  0  0  0  0  0  0  0  0999 V2000
    0.4939   -5.5375   -0.1716 O   0  0  0  0  0  0  0  0  0  0  0  0
    0.6730   -4.2100   -0.0090 C   0  0  0  0  0  0  0  0  0  0  0  0
    1.2503   -3.5029   -1.0616 C   0  0  0  0  0  0  0  0  0  0  0  0
    1.4663   -2.1431   -0.9439 C   0  0  0  0  0  0  0  0  0  0  0  0
    1.1020   -1.4395    0.2057 C   0  0  0  0  0  0  0  0  0  0  0  0
    1.3768    0.0147    0.3147 C   0  0  0  0  0  0  0  0  0  0  0  0
    2.7972    0.3765    0.0805 C   0  0  0  0  0  0  0  0  0  0  0  0
    3.8122   -0.2173    0.8328 C   0  0  0  0  0  0  0  0  0  0  0  0
    5.1448    0.0814    0.6172 C   0  0  0  0  0  0  0  0  0  0  0  0
    5.5031    0.9791   -0.3863 C   0  0  0  0  0  0  0  0  0  0  0  0
    6.8174    1.2294   -0.5652 O   0  0  0  0  0  0  0  0  0  0  0  0
    4.5091    1.5666   -1.1599 C   0  0  0  0  0  0  0  0  0  0  0  0
    3.1761    1.2629   -0.9236 C   0  0  0  0  0  0  0  0  0  0  0  0
    0.4278    0.9215    0.6034 C   0  0  0  0  0  0  0  0  0  0  0  0
    0.7010    2.3795    0.8484 C   0  0  0  0  0  0  0  0  0  0  0  0
   -0.0816    3.2658   -0.1202 C   0  0  0  0  0  0  0  0  0  0  0  0
   -1.5708    2.9518   -0.0763 C   0  0  0  0  0  0  0  0  0  0  0  0
   -1.8285    1.4636   -0.3257 C   0  0  2  0  0  0  0  0  0  0  0  0
   -3.2962    1.1248   -0.3181 C   0  0  0  0  0  0  0  0  0  0  0  0
   -4.0942    1.3268    0.8051 C   0  0  0  0  0  0  0  0  0  0  0  0
   -5.4480    1.0239    0.8002 C   0  0  0  0  0  0  0  0  0  0  0  0
   -6.0408    0.5048   -0.3459 C   0  0  0  0  0  0  0  0  0  0  0  0
   -7.3602    0.1954   -0.4144 O   0  0  0  0  0  0  0  0  0  0  0  0
   -5.2625    0.2883   -1.4762 C   0  0  0  0  0  0  0  0  0  0  0  0
   -3.9108    0.5970   -1.4499 C   0  0  0  0  0  0  0  0  0  0  0  0
   -1.0388    0.5946    0.6725 C   0  0  0  0  0  0  0  0  0  0  0  0
    0.5353   -2.1640    1.2498 C   0  0  0  0  0  0  0  0  0  0  0  0
    0.3184   -3.5311    1.1511 C   0  0  0  0  0  0  0  0  0  0  0  0
    0.1174   -5.9297    0.6203 H   0  0  0  0  0  0  0  0  0  0  0  0
    1.5341   -4.0252   -1.9661 H   0  0  0  0  0  0  0  0  0  0  0  0
    1.9261   -1.6147   -1.7698 H   0  0  0  0  0  0  0  0  0  0  0  0
    3.5578   -0.9252    1.6122 H   0  0  0  0  0  0  0  0  0  0  0  0
    5.9128   -0.3813    1.2234 H   0  0  0  0  0  0  0  0  0  0  0  0
    6.9435    1.8615   -1.2776 H   0  0  0  0  0  0  0  0  0  0  0  0
    4.7619    2.2528   -1.9604 H   0  0  0  0  0  0  0  0  0  0  0  0
    2.4205    1.7194   -1.5503 H   0  0  0  0  0  0  0  0  0  0  0  0
    0.3720    2.6148    1.8687 H   0  0  0  0  0  0  0  0  0  0  0  0
    1.7637    2.6114    0.8089 H   0  0  0  0  0  0  0  0  0  0  0  0
    0.0867    4.3169    0.1208 H   0  0  0  0  0  0  0  0  0  0  0  0
    0.2922    3.1152   -1.1378 H   0  0  0  0  0  0  0  0  0  0  0  0
   -1.9720    3.2379    0.9025 H   0  0  0  0  0  0  0  0  0  0  0  0
   -2.1065    3.5497   -0.8167 H   0  0  0  0  0  0  0  0  0  0  0  0
   -1.4427    1.2274   -1.3246 H   0  0  0  0  0  0  0  0  0  0  0  0
   -3.6674    1.7313    1.7141 H   0  0  0  0  0  0  0  0  0  0  0  0
   -6.0344    1.1961    1.6962 H   0  0  0  0  0  0  0  0  0  0  0  0
   -7.7921    0.4101    0.4171 H   0  0  0  0  0  0  0  0  0  0  0  0
   -5.7130   -0.1151   -2.3746 H   0  0  0  0  0  0  0  0  0  0  0  0
   -3.3166    0.4223   -2.3392 H   0  0  0  0  0  0  0  0  0  0  0  0
   -1.2328   -0.4561    0.4612 H   0  0  0  0  0  0  0  0  0  0  0  0
   -1.4098    0.7929    1.6860 H   0  0  0  0  0  0  0  0  0  0  0  0
    0.2676   -1.6549    2.1673 H   0  0  0  0  0  0  0  0  0  0  0  0
   -0.1198   -4.0617    1.9893 H   0  0  0  0  0  0  0  0  0  0  0  0
 21 20  2  0
 21 22  1  0
 20 19  1  0
 23 22  1  0
 22 24  2  0
 17 18  1  0
 17 16  1  0
 19 18  1  0
 19 25  2  0
 26 18  1  0
 26 14  1  0
 15 16  1  0
 15 14  1  0
 24 25  1  0
 14  6  2  0
 13 12  2  0
 13  7  1  0
 12 10  1  0
  6  7  1  0
  6  5  1  0
  4  5  2  0
  4  3  1  0
  7  8  2  0
  5 27  1  0
  3  2  2  0
 10 11  1  0
 10  9  2  0
 27 28  2  0
  2 28  1  0
  2  1  1  0
  8  9  1  0
  1 29  1  0
  3 30  1  0
  4 31  1  0
  8 32  1  0
  9 33  1  0
 11 34  1  0
 12 35  1  0
 13 36  1  0
 15 37  1  0
 15 38  1  0
 16 39  1  0
 16 40  1  0
 17 41  1  0
 17 42  1  0
 18 43  1  6
 20 44  1  0
 21 45  1  0
 23 46  1  0
 24 47  1  0
 25 48  1  0
 26 49  1  0
 26 50  1  0
 27 51  1  0
 28 52  1  0
M  END
