
     RDKit          3D

 41 42  0  0  0  0  0  0  0  0999 V2000
    8.4157    0.3629   -0.3796 C   0  0  0  0  0  0  0  0  0  0  0  0
    7.1411   -0.2503   -0.5672 O   0  0  0  0  0  0  0  0  0  0  0  0
    6.0909    0.3267    0.0060 C   0  0  0  0  0  0  0  0  0  0  0  0
    6.1704    1.3278    0.6735 O   0  0  0  0  0  0  0  0  0  0  0  0
    4.8209   -0.4233   -0.2915 C   0  0  0  0  0  0  0  0  0  0  0  0
    3.5912    0.1667    0.3791 C   0  0  0  0  0  0  0  0  0  0  0  0
    2.3374   -0.6365    0.0592 C   0  0  0  0  0  0  0  0  0  0  0  0
    1.0924   -0.0484    0.7121 C   0  0  0  0  0  0  0  0  0  0  0  0
   -0.1489   -0.8969    0.5092 C   0  0  2  0  0  0  0  0  0  0  0  0
   -0.6547   -1.0277   -1.2359 S   0  0  0  0  0  0  0  0  0  0  0  0
   -2.2053   -1.7822   -0.6876 C   0  0  0  0  0  0  0  0  0  0  0  0
   -2.6551   -0.9937    0.5469 C   0  0  1  0  0  0  0  0  0  0  0  0
   -1.4023   -0.3851    1.2301 C   0  0  2  0  0  0  0  0  0  0  0  0
   -1.6174    1.0251    1.0650 N   0  0  0  0  0  0  0  0  0  0  0  0
   -2.7829    1.3761    0.4948 C   0  0  0  0  0  0  0  0  0  0  0  0
   -3.1754    2.4996    0.2773 O   0  0  0  0  0  0  0  0  0  0  0  0
   -3.4535    0.1764    0.2109 N   0  0  0  0  0  0  0  0  0  0  0  0
   -4.7508    0.0094   -0.2036 C   0  0  0  0  0  0  0  0  0  0  0  0
   -5.2449   -1.0873   -0.3286 O   0  0  0  0  0  0  0  0  0  0  0  0
   -5.3747    1.1456   -0.4384 O   0  0  0  0  0  0  0  0  0  0  0  0
   -6.7331    1.0548   -0.8694 C   0  0  0  0  0  0  0  0  0  0  0  0
    8.6951    0.3921    0.6736 H   0  0  0  0  0  0  0  0  0  0  0  0
    9.1271   -0.2532   -0.9216 H   0  0  0  0  0  0  0  0  0  0  0  0
    8.4360    1.3751   -0.7836 H   0  0  0  0  0  0  0  0  0  0  0  0
    4.6905   -0.4479   -1.3782 H   0  0  0  0  0  0  0  0  0  0  0  0
    4.9592   -1.4665    0.0093 H   0  0  0  0  0  0  0  0  0  0  0  0
    3.7372    0.1938    1.4621 H   0  0  0  0  0  0  0  0  0  0  0  0
    3.4522    1.2024    0.0582 H   0  0  0  0  0  0  0  0  0  0  0  0
    2.2000   -0.6776   -1.0261 H   0  0  0  0  0  0  0  0  0  0  0  0
    2.4686   -1.6718    0.3905 H   0  0  0  0  0  0  0  0  0  0  0  0
    1.2617    0.0471    1.7900 H   0  0  0  0  0  0  0  0  0  0  0  0
    0.9234    0.9619    0.3298 H   0  0  0  0  0  0  0  0  0  0  0  0
    0.0467   -1.9109    0.8743 H   0  0  0  0  0  0  0  0  0  0  0  0
   -2.9383   -1.7688   -1.4909 H   0  0  0  0  0  0  0  0  0  0  0  0
   -2.0281   -2.8227   -0.4110 H   0  0  0  0  0  0  0  0  0  0  0  0
   -3.2057   -1.6418    1.2283 H   0  0  0  0  0  0  0  0  0  0  0  0
   -1.3456   -0.6507    2.2890 H   0  0  0  0  0  0  0  0  0  0  0  0
   -0.9983    1.7267    1.4363 H   0  0  0  0  0  0  0  0  0  0  0  0
   -6.8196    0.5059   -1.8063 H   0  0  0  0  0  0  0  0  0  0  0  0
   -7.3612    0.5835   -0.1144 H   0  0  0  0  0  0  0  0  0  0  0  0
   -7.0605    2.0791   -1.0200 H   0  0  0  0  0  0  0  0  0  0  0  0
  1  2  1  0
  2  3  1  0
  3  4  2  0
  3  5  1  0
  6  5  1  0
  6  7  1  0
  7  8  1  0
  8  9  1  0
  9 10  1  0
  9 13  1  0
 10 11  1  0
 13 14  1  0
 13 12  1  0
 11 12  1  0
 14 15  1  0
 12 17  1  0
 15 17  1  0
 15 16  2  0
 17 18  1  0
 18 19  2  0
 18 20  1  0
 21 20  1  0
  1 22  1  0
  1 23  1  0
  1 24  1  0
  5 25  1  0
  5 26  1  0
  6 27  1  0
  6 28  1  0
  7 29  1  0
  7 30  1  0
  8 31  1  0
  8 32  1  0
  9 33  1  1
 11 34  1  0
 11 35  1  0
 12 36  1  1
 13 37  1  1
 14 38  1  0
 21 39  1  0
 21 40  1  0
 21 41  1  0
M  END
