
     RDKit          3D

 43 45  0  0  0  0  0  0  0  0999 V2000
    2.2577   -0.8371    0.4961 N   0  0  0  0  0  0  0  0  0  0  0  0
    3.5862   -0.5436    0.2490 C   0  0  0  0  0  0  0  0  0  0  0  0
    4.5194   -1.4934    0.6912 C   0  0  0  0  0  0  0  0  0  0  0  0
    5.8694   -1.3032    0.5034 C   0  0  0  0  0  0  0  0  0  0  0  0
    6.3267   -0.1487   -0.1358 C   0  0  0  0  0  0  0  0  0  0  0  0
    7.7209    0.0579   -0.3335 C   0  0  0  0  0  0  0  0  0  0  0  0
    8.8514    0.2306   -0.4833 N   0  0  0  0  0  0  0  0  0  0  0  0
    5.4054    0.7998   -0.5764 C   0  0  0  0  0  0  0  0  0  0  0  0
    4.0490    0.6125   -0.3898 C   0  0  0  0  0  0  0  0  0  0  0  0
   -0.0003   -0.7989    0.5566 N   0  0  0  0  0  0  0  0  0  0  0  0
   -1.1347   -0.1934    0.2108 C   0  0  0  0  0  0  0  0  0  0  0  0
   -0.0340    1.4385   -0.8373 C   0  0  0  0  0  0  0  0  0  0  0  0
   -1.2043    0.9439   -0.5001 N   0  0  0  0  0  0  0  0  0  0  0  0
    1.1569    0.9327   -0.5556 N   0  0  0  0  0  0  0  0  0  0  0  0
    1.1094   -0.1989    0.1466 C   0  0  0  0  0  0  0  0  0  0  0  0
   -3.5749   -0.2889    0.2991 C   0  0  0  0  0  0  0  0  0  0  0  0
   -4.3276   -0.9562   -0.6706 C   0  0  0  0  0  0  0  0  0  0  0  0
   -3.7589   -2.1364   -1.4014 C   0  0  0  0  0  0  0  0  0  0  0  0
   -5.6118   -0.5006   -0.9442 C   0  0  0  0  0  0  0  0  0  0  0  0
   -6.1525    0.5985   -0.2837 C   0  0  0  0  0  0  0  0  0  0  0  0
   -7.5507    1.0587   -0.5788 C   0  0  0  0  0  0  0  0  0  0  0  0
   -5.3755    1.2414    0.6734 C   0  0  0  0  0  0  0  0  0  0  0  0
   -4.0886    0.8121    0.9855 C   0  0  0  0  0  0  0  0  0  0  0  0
   -3.2825    1.5302    2.0255 C   0  0  0  0  0  0  0  0  0  0  0  0
    2.0922   -1.6910    1.0100 H   0  0  0  0  0  0  0  0  0  0  0  0
    4.1757   -2.3939    1.1850 H   0  0  0  0  0  0  0  0  0  0  0  0
    6.5700   -2.0505    0.8502 H   0  0  0  0  0  0  0  0  0  0  0  0
    5.7494    1.6986   -1.0701 H   0  0  0  0  0  0  0  0  0  0  0  0
    3.3565    1.3599   -0.7386 H   0  0  0  0  0  0  0  0  0  0  0  0
   -0.0410    2.3595   -1.4111 H   0  0  0  0  0  0  0  0  0  0  0  0
   -2.1879   -1.6630    1.0700 H   0  0  0  0  0  0  0  0  0  0  0  0
   -3.5935   -2.9836   -0.7328 H   0  0  0  0  0  0  0  0  0  0  0  0
   -4.4316   -2.4688   -2.1907 H   0  0  0  0  0  0  0  0  0  0  0  0
   -2.7970   -1.9007   -1.8587 H   0  0  0  0  0  0  0  0  0  0  0  0
   -6.2029   -1.0116   -1.6962 H   0  0  0  0  0  0  0  0  0  0  0  0
   -8.2804    0.4853   -0.0034 H   0  0  0  0  0  0  0  0  0  0  0  0
   -7.6891    2.1085   -0.3232 H   0  0  0  0  0  0  0  0  0  0  0  0
   -7.7997    0.9313   -1.6323 H   0  0  0  0  0  0  0  0  0  0  0  0
   -5.7815    2.0985    1.1995 H   0  0  0  0  0  0  0  0  0  0  0  0
   -2.5336    2.1756    1.5621 H   0  0  0  0  0  0  0  0  0  0  0  0
   -3.9201    2.1559    2.6481 H   0  0  0  0  0  0  0  0  0  0  0  0
   -2.7493    0.8373    2.6763 H   0  0  0  0  0  0  0  0  0  0  0  0
   -2.2777   -0.7724    0.6021 N   0  0  0  0  0  0  0  0  0  0  0  0
 14 12  2  0
 14 15  1  0
  3  2  2  0
  3  4  1  0
  1 15  1  0
  1  2  1  0
 12 13  1  0
 15 10  2  0
  2  9  1  0
  4  5  2  0
 13 11  2  0
 10 11  1  0
  9  8  2  0
  5  8  1  0
  5  6  1  0
 11 43  1  0
  6  7  3  0
 43 16  1  0
 18 17  1  0
 16 17  2  0
 16 23  1  0
 17 19  1  0
 23 24  1  0
 23 22  2  0
 19 20  2  0
 22 20  1  0
 20 21  1  0
  1 25  1  0
  3 26  1  0
  4 27  1  0
  8 28  1  0
  9 29  1  0
 12 30  1  0
 43 31  1  0
 18 32  1  0
 18 33  1  0
 18 34  1  0
 19 35  1  0
 21 36  1  0
 21 37  1  0
 21 38  1  0
 22 39  1  0
 24 40  1  0
 24 41  1  0
 24 42  1  0
M  END
