
     RDKit          3D

 41 41  0  0  0  0  0  0  0  0999 V2000
    2.7285   -1.1032    1.7302 F   0  0  0  0  0  0  0  0  0  0  0  0
    3.4933   -0.3791    0.9039 C   0  0  0  0  0  0  0  0  0  0  0  0
    4.7486   -0.8607    0.5919 C   0  0  0  0  0  0  0  0  0  0  0  0
    5.5266   -0.0982   -0.2597 C   0  0  0  0  0  0  0  0  0  0  0  0
    6.7475   -0.5465   -0.5786 F   0  0  0  0  0  0  0  0  0  0  0  0
    5.0892    1.0994   -0.7872 C   0  0  0  0  0  0  0  0  0  0  0  0
    3.8188    1.5407   -0.4431 C   0  0  0  0  0  0  0  0  0  0  0  0
    2.9924    0.8177    0.4091 C   0  0  0  0  0  0  0  0  0  0  0  0
    1.6163    1.3013    0.7669 C   0  0  0  0  0  0  0  0  0  0  0  0
    0.6086    0.4735    0.1421 N   0  0  0  0  0  0  0  0  0  0  0  0
   -0.6657    0.4395    0.6045 C   0  0  0  0  0  0  0  0  0  0  0  0
   -1.0156    1.0008    1.6372 O   0  0  0  0  0  0  0  0  0  0  0  0
   -1.5359   -0.3055   -0.1362 N   0  0  0  0  0  0  0  0  0  0  0  0
   -2.9465   -0.2122    0.1238 C   0  0  2  0  0  0  0  0  0  0  0  0
   -3.7153   -1.1560   -0.8033 C   0  0  0  0  0  0  0  0  0  0  0  0
   -3.3583   -2.6369   -0.6533 C   0  0  1  0  0  0  0  0  0  0  0  0
   -3.6278   -3.1515    0.7565 C   0  0  0  0  0  0  0  0  0  0  0  0
   -4.1392   -3.4513   -1.6801 C   0  0  0  0  0  0  0  0  0  0  0  0
   -3.4456    1.2160   -0.1026 C   0  0  0  0  0  0  0  0  0  0  0  0
   -2.9983    1.9375   -0.9735 O   0  0  0  0  0  0  0  0  0  0  0  0
   -4.4325    1.5722    0.7358 N   0  0  0  0  0  0  0  0  0  0  0  0
   -5.1526    2.7055    0.5058 O   0  0  0  0  0  0  0  0  0  0  0  0
    5.1073   -1.7964    0.9999 H   0  0  0  0  0  0  0  0  0  0  0  0
    5.7191    1.6741   -1.4520 H   0  0  0  0  0  0  0  0  0  0  0  0
    3.4604    2.4779   -0.8493 H   0  0  0  0  0  0  0  0  0  0  0  0
    1.4731    1.2759    1.8469 H   0  0  0  0  0  0  0  0  0  0  0  0
    1.5213    2.3481    0.4618 H   0  0  0  0  0  0  0  0  0  0  0  0
    0.8033    0.1420   -0.7896 H   0  0  0  0  0  0  0  0  0  0  0  0
   -1.2655   -0.5772   -1.0686 H   0  0  0  0  0  0  0  0  0  0  0  0
   -3.1388   -0.5000    1.1609 H   0  0  0  0  0  0  0  0  0  0  0  0
   -4.7851   -1.0293   -0.6104 H   0  0  0  0  0  0  0  0  0  0  0  0
   -3.5507   -0.8419   -1.8399 H   0  0  0  0  0  0  0  0  0  0  0  0
   -2.2915   -2.7625   -0.8666 H   0  0  0  0  0  0  0  0  0  0  0  0
   -4.6744   -3.0013    1.0342 H   0  0  0  0  0  0  0  0  0  0  0  0
   -3.4182   -4.2199    0.8258 H   0  0  0  0  0  0  0  0  0  0  0  0
   -3.0116   -2.6553    1.5074 H   0  0  0  0  0  0  0  0  0  0  0  0
   -3.9147   -3.1321   -2.6991 H   0  0  0  0  0  0  0  0  0  0  0  0
   -3.8986   -4.5128   -1.6046 H   0  0  0  0  0  0  0  0  0  0  0  0
   -5.2160   -3.3446   -1.5273 H   0  0  0  0  0  0  0  0  0  0  0  0
   -4.8559    0.9257    1.3861 H   0  0  0  0  0  0  0  0  0  0  0  0
   -4.7675    3.3872    1.0713 H   0  0  0  0  0  0  0  0  0  0  0  0
 22 21  1  0
 21 19  1  0
 20 19  2  0
 19 14  1  0
 12 11  2  0
  9 10  1  0
  9  8  1  0
 14 13  1  0
 14 15  1  0
 11 10  1  0
 11 13  1  0
  7  8  1  0
  7  6  2  0
  8  2  2  0
 15 16  1  0
 16 17  1  0
 16 18  1  0
  6  4  1  0
  2  1  1  0
  2  3  1  0
  4  3  2  0
  4  5  1  0
  3 23  1  0
  6 24  1  0
  7 25  1  0
  9 26  1  0
  9 27  1  0
 10 28  1  0
 13 29  1  0
 14 30  1  1
 15 31  1  0
 15 32  1  0
 16 33  1  6
 17 34  1  0
 17 35  1  0
 17 36  1  0
 18 37  1  0
 18 38  1  0
 18 39  1  0
 21 40  1  0
 22 41  1  0
M  END
