
     RDKit          3D

 30 32  0  0  0  0  0  0  0  0999 V2000
    4.3111    2.7738    0.0685 Cl  0  0  0  0  0  0  0  0  0  0  0  0
    3.3974    1.3096    0.0679 C   0  0  0  0  0  0  0  0  0  0  0  0
    2.0167    1.3955    0.0471 C   0  0  0  0  0  0  0  0  0  0  0  0
    4.0843    0.1039    0.0882 C   0  0  0  0  0  0  0  0  0  0  0  0
    3.3592   -1.0804    0.0874 C   0  0  0  0  0  0  0  0  0  0  0  0
    4.0046   -2.2388    0.1066 O   0  0  0  0  0  0  0  0  0  0  0  0
    1.9480   -1.0401    0.0657 C   0  0  0  0  0  0  0  0  0  0  0  0
    1.1504   -2.2543    0.0559 C   0  0  0  0  0  0  0  0  0  0  0  0
    1.6784   -3.3763    0.0710 O   0  0  0  0  0  0  0  0  0  0  0  0
    1.3156    0.2003    0.0464 C   0  0  0  0  0  0  0  0  0  0  0  0
   -0.0291    0.2845    0.0294 O   0  0  0  0  0  0  0  0  0  0  0  0
   -0.8046   -0.8084    0.0137 C   0  0  0  0  0  0  0  0  0  0  0  0
   -0.2687   -2.0541    0.0192 C   0  0  0  0  0  0  0  0  0  0  0  0
   -2.2292   -0.4865   -0.0143 C   0  0  0  0  0  0  0  0  0  0  0  0
   -2.6574    0.8305   -0.2278 C   0  0  0  0  0  0  0  0  0  0  0  0
   -4.0023    1.1381   -0.2589 C   0  0  0  0  0  0  0  0  0  0  0  0
   -4.4906    2.3797   -0.4608 O   0  0  0  0  0  0  0  0  0  0  0  0
   -4.9607    0.1289   -0.0732 C   0  0  0  0  0  0  0  0  0  0  0  0
   -6.2741    0.3930   -0.0972 O   0  0  0  0  0  0  0  0  0  0  0  0
   -4.5358   -1.1742    0.1432 C   0  0  0  0  0  0  0  0  0  0  0  0
   -3.1874   -1.4812    0.1736 C   0  0  0  0  0  0  0  0  0  0  0  0
    1.5006    2.3451    0.0317 H   0  0  0  0  0  0  0  0  0  0  0  0
    5.1653    0.0780    0.1034 H   0  0  0  0  0  0  0  0  0  0  0  0
    3.3263   -2.9580    0.1008 H   0  0  0  0  0  0  0  0  0  0  0  0
   -0.9104   -2.9220   -0.0122 H   0  0  0  0  0  0  0  0  0  0  0  0
   -1.9424    1.6297   -0.3772 H   0  0  0  0  0  0  0  0  0  0  0  0
   -3.7808    3.0197   -0.5859 H   0  0  0  0  0  0  0  0  0  0  0  0
   -6.4339    1.3317   -0.2558 H   0  0  0  0  0  0  0  0  0  0  0  0
   -5.2738   -1.9517    0.2926 H   0  0  0  0  0  0  0  0  0  0  0  0
   -2.8997   -2.5058    0.3607 H   0  0  0  0  0  0  0  0  0  0  0  0
 19 18  1  0
 17 16  1  0
 18 16  1  0
 18 20  2  0
 16 15  2  0
 20 21  1  0
 15 14  1  0
 21 14  2  0
 14 12  1  0
 12 13  2  0
 12 11  1  0
 13  8  1  0
 11 10  1  0
  8  9  2  0
  8  7  1  0
 10  3  1  0
 10  7  2  0
  3  2  2  0
  7  5  1  0
  2  4  1  0
  2  1  1  0
  5  4  2  0
  5  6  1  0
  3 22  1  0
  4 23  1  0
  6 24  1  0
 13 25  1  0
 15 26  1  0
 17 27  1  0
 19 28  1  0
 20 29  1  0
 21 30  1  0
M  END
