
     RDKit          3D

 64 66  0  0  0  0  0  0  0  0999 V2000
   -3.6219    1.6416    0.3676 C   0  0  0  0  0  0  0  0  0  0  0  0
   -3.5146   -0.8363    0.3480 C   0  0  0  0  0  0  0  0  0  0  0  0
   -6.7471   -1.9876    1.9819 C   0  0  0  0  0  0  0  0  0  0  0  0
   -4.9421   -1.2801    0.5347 C   0  0  0  0  0  0  0  0  0  0  0  0
   -5.7847   -1.4252   -0.5643 C   0  0  0  0  0  0  0  0  0  0  0  0
   -7.0960   -1.8429   -0.4062 C   0  0  0  0  0  0  0  0  0  0  0  0
   -7.5538   -2.1164    0.8704 C   0  0  0  0  0  0  0  0  0  0  0  0
   -5.4358   -1.5650    1.8009 C   0  0  0  0  0  0  0  0  0  0  0  0
   -5.1747    3.2768    1.4040 C   0  0  0  0  0  0  0  0  0  0  0  0
   -5.7026    2.3566   -0.8771 C   0  0  0  0  0  0  0  0  0  0  0  0
   -5.0865    2.0641    0.4835 C   0  0  1  0  0  0  0  0  0  0  0  0
   -3.4212    0.4127   -0.4001 N   0  0  0  0  0  0  0  0  0  0  0  0
   -8.8261   -2.5182    1.0302 F   0  0  0  0  0  0  0  0  0  0  0  0
   -2.4477    0.4672   -1.7288 S   0  0  1  0  0  0  0  0  0  0  0  0
   -2.5861   -0.8157   -2.4034 O   0  0  0  0  0  0  0  0  0  0  0  0
   -2.7688    1.6902   -2.4469 O   0  0  0  0  0  0  0  0  0  0  0  0
   -0.7909    0.6070   -1.1673 C   0  0  0  0  0  0  0  0  0  0  0  0
   -0.0580   -0.5215   -0.7902 C   0  0  0  0  0  0  0  0  0  0  0  0
    1.2183   -0.3667   -0.3144 C   0  0  0  0  0  0  0  0  0  0  0  0
    1.7535    0.9380   -0.2214 C   0  0  0  0  0  0  0  0  0  0  0  0
    1.0473    2.0129   -0.5999 N   0  0  0  0  0  0  0  0  0  0  0  0
   -0.1797    1.8487   -1.0532 C   0  0  0  0  0  0  0  0  0  0  0  0
    2.9856    1.1865    0.2542 N   0  0  0  0  0  0  0  0  0  0  0  0
    3.9700    0.1962    0.6251 C   0  0  1  0  0  0  0  0  0  0  0  0
    4.6674   -0.4232   -0.5878 C   0  0  0  0  0  0  0  0  0  0  0  0
    5.7504   -1.4018   -0.1539 C   0  0  0  0  0  0  0  0  0  0  0  0
    6.7027   -0.8025    0.7795 N   0  0  0  0  0  0  0  0  0  0  0  0
    6.0785   -0.1694    1.9393 C   0  0  0  0  0  0  0  0  0  0  0  0
    4.9990    0.8329    1.5533 C   0  0  0  0  0  0  0  0  0  0  0  0
    8.1618   -0.2697    0.2406 S   0  0  1  0  0  0  0  0  0  0  0  0
    8.9795   -0.0016    1.4150 O   0  0  0  0  0  0  0  0  0  0  0  0
    8.6338   -1.2349   -0.7422 O   0  0  0  0  0  0  0  0  0  0  0  0
    7.9127    1.2780   -0.6048 C   0  0  0  0  0  0  0  0  0  0  0  0
   -3.0617    2.4616   -0.0870 H   0  0  0  0  0  0  0  0  0  0  0  0
   -3.1963    1.4958    1.3658 H   0  0  0  0  0  0  0  0  0  0  0  0
   -3.0301   -0.7166    1.3218 H   0  0  0  0  0  0  0  0  0  0  0  0
   -2.9710   -1.6229   -0.1744 H   0  0  0  0  0  0  0  0  0  0  0  0
   -5.4176   -1.2011   -1.5580 H   0  0  0  0  0  0  0  0  0  0  0  0
   -7.7520   -1.9532   -1.2598 H   0  0  0  0  0  0  0  0  0  0  0  0
   -4.7956   -1.4483    2.6668 H   0  0  0  0  0  0  0  0  0  0  0  0
   -4.6284    4.1282    0.9907 H   0  0  0  0  0  0  0  0  0  0  0  0
   -6.2112    3.5869    1.5408 H   0  0  0  0  0  0  0  0  0  0  0  0
   -4.7607    3.0636    2.3913 H   0  0  0  0  0  0  0  0  0  0  0  0
   -5.6440    1.4933   -1.5386 H   0  0  0  0  0  0  0  0  0  0  0  0
   -6.7547    2.6255   -0.7725 H   0  0  0  0  0  0  0  0  0  0  0  0
   -5.1918    3.1884   -1.3674 H   0  0  0  0  0  0  0  0  0  0  0  0
   -5.6478    1.2486    0.9480 H   0  0  0  0  0  0  0  0  0  0  0  0
   -0.4701   -1.5176   -0.8834 H   0  0  0  0  0  0  0  0  0  0  0  0
    1.7930   -1.2367   -0.0321 H   0  0  0  0  0  0  0  0  0  0  0  0
   -0.6991    2.7516   -1.3531 H   0  0  0  0  0  0  0  0  0  0  0  0
    3.2867    2.1480    0.1968 H   0  0  0  0  0  0  0  0  0  0  0  0
    3.4657   -0.5984    1.1873 H   0  0  0  0  0  0  0  0  0  0  0  0
    3.9506   -0.9552   -1.2172 H   0  0  0  0  0  0  0  0  0  0  0  0
    5.0956    0.3729   -1.2035 H   0  0  0  0  0  0  0  0  0  0  0  0
    5.2977   -2.2555    0.3584 H   0  0  0  0  0  0  0  0  0  0  0  0
    6.2778   -1.8021   -1.0163 H   0  0  0  0  0  0  0  0  0  0  0  0
    5.6382   -0.9694    2.5413 H   0  0  0  0  0  0  0  0  0  0  0  0
    6.8367    0.3031    2.5596 H   0  0  0  0  0  0  0  0  0  0  0  0
    5.4479    1.7042    1.0649 H   0  0  0  0  0  0  0  0  0  0  0  0
    4.5117    1.1918    2.4619 H   0  0  0  0  0  0  0  0  0  0  0  0
    7.5083    2.0124    0.0880 H   0  0  0  0  0  0  0  0  0  0  0  0
    8.8795    1.6175   -0.9732 H   0  0  0  0  0  0  0  0  0  0  0  0
    7.2298    1.1334   -1.4388 H   0  0  0  0  0  0  0  0  0  0  0  0
   -7.1311   -2.2034    2.9701 H   0  0  0  0  0  0  0  0  0  0  0  0
  9 11  1  0
 13  7  1  0
 11  1  1  0
 11 10  1  0
  7  6  1  0
  7  3  2  0
  6  5  2  0
  3  8  1  0
  1 12  1  0
  5  4  1  0
  8  4  2  0
  4  2  1  0
 12  2  1  0
 14 12  1  1
 16 14  2  0
 14 15  2  0
 14 17  1  0
 22 17  1  0
 22 21  2  0
 17 18  2  0
 21 20  1  0
 18 19  1  0
 20 19  2  0
 20 23  1  0
 25 26  1  0
 25 24  1  0
 26 27  1  0
 24 23  1  0
 24 29  1  0
 32 30  2  0
 27 30  1  0
 27 28  1  0
 29 28  1  0
 30 33  1  6
 30 31  2  0
  1 34  1  0
  1 35  1  0
  2 36  1  0
  2 37  1  0
  3 64  1  0
  5 38  1  0
  6 39  1  0
  8 40  1  0
  9 41  1  0
  9 42  1  0
  9 43  1  0
 10 44  1  0
 10 45  1  0
 10 46  1  0
 11 47  1  1
 18 48  1  0
 19 49  1  0
 22 50  1  0
 23 51  1  0
 24 52  1  1
 25 53  1  0
 25 54  1  0
 26 55  1  0
 26 56  1  0
 28 57  1  0
 28 58  1  0
 29 59  1  0
 29 60  1  0
 33 61  1  0
 33 62  1  0
 33 63  1  0
M  END
