
     RDKit          3D

 35 37  0  0  0  0  0  0  0  0999 V2000
   -0.4471    3.1571    0.0492 C   0  0  0  0  0  0  0  0  0  0  0  0
   -3.7860    0.5302    0.4290 C   0  0  0  0  0  0  0  0  0  0  0  0
    3.4610   -1.5279   -0.4655 C   0  0  0  0  0  0  0  0  0  0  0  0
    4.6488   -0.8668   -0.1632 C   0  0  0  0  0  0  0  0  0  0  0  0
    4.6074    0.4709    0.2006 C   0  0  0  0  0  0  0  0  0  0  0  0
    3.4054    1.1575    0.2598 C   0  0  0  0  0  0  0  0  0  0  0  0
    2.2121    0.5011   -0.0497 C   0  0  0  0  0  0  0  0  0  0  0  0
    2.2510   -0.8452   -0.4048 C   0  0  0  0  0  0  0  0  0  0  0  0
    0.9075    1.2058   -0.0000 C   0  0  0  0  0  0  0  0  0  0  0  0
    0.8211    2.5920   -0.0195 C   0  0  0  0  0  0  0  0  0  0  0  0
   -1.5692    2.3609    0.1173 C   0  0  0  0  0  0  0  0  0  0  0  0
   -1.3917    0.9623    0.0964 C   0  0  0  0  0  0  0  0  0  0  0  0
   -0.1737    0.4327    0.0540 N   0  0  0  0  0  0  0  0  0  0  0  0
   -2.4466    0.0841    0.0968 N   0  0  0  0  0  0  0  0  0  0  0  0
   -4.8163   -0.4335   -0.1330 C   0  0  0  0  0  0  0  0  0  0  0  0
   -4.5853   -1.7594    0.2777 O   0  0  0  0  0  0  0  0  0  0  0  0
   -3.3094   -2.1826   -0.1465 C   0  0  0  0  0  0  0  0  0  0  0  0
   -2.2069   -1.3132    0.4227 C   0  0  0  0  0  0  0  0  0  0  0  0
   -0.5586    4.2338    0.0500 H   0  0  0  0  0  0  0  0  0  0  0  0
   -3.9104    0.6275    1.5164 H   0  0  0  0  0  0  0  0  0  0  0  0
   -3.9900    1.5042   -0.0124 H   0  0  0  0  0  0  0  0  0  0  0  0
    4.3180   -3.1927   -0.8448 H   0  0  0  0  0  0  0  0  0  0  0  0
    5.5969   -1.3906   -0.2093 H   0  0  0  0  0  0  0  0  0  0  0  0
    5.5295    0.9816    0.4457 H   0  0  0  0  0  0  0  0  0  0  0  0
    3.4052    2.1948    0.5646 H   0  0  0  0  0  0  0  0  0  0  0  0
    1.3308   -1.3646   -0.6392 H   0  0  0  0  0  0  0  0  0  0  0  0
    1.6959    3.2213   -0.0902 H   0  0  0  0  0  0  0  0  0  0  0  0
   -2.5441    2.8184    0.1857 H   0  0  0  0  0  0  0  0  0  0  0  0
   -5.8085   -0.1449    0.2157 H   0  0  0  0  0  0  0  0  0  0  0  0
   -4.8091   -0.3641   -1.2300 H   0  0  0  0  0  0  0  0  0  0  0  0
   -3.1728   -3.2111    0.1906 H   0  0  0  0  0  0  0  0  0  0  0  0
   -3.2498   -2.1756   -1.2441 H   0  0  0  0  0  0  0  0  0  0  0  0
   -1.2559   -1.6298    0.0027 H   0  0  0  0  0  0  0  0  0  0  0  0
   -2.1463   -1.4486    1.5115 H   0  0  0  0  0  0  0  0  0  0  0  0
    3.4263   -2.8280   -0.8229 O   0  0  0  0  0  0  0  0  0  0  0  0
  5  6  2  0
  5  4  1  0
  6  7  1  0
 10  1  2  0
 10  9  1  0
  1 11  1  0
  4  3  2  0
  7  9  1  0
  7  8  2  0
  9 13  2  0
 11 12  2  0
 13 12  1  0
 12 14  1  0
  3  8  1  0
  3 35  1  0
 14 18  1  0
 14  2  1  0
 18 17  1  0
  2 15  1  0
 17 16  1  0
 16 15  1  0
  1 19  1  0
  2 20  1  0
  2 21  1  0
 35 22  1  0
  4 23  1  0
  5 24  1  0
  6 25  1  0
  8 26  1  0
 10 27  1  0
 11 28  1  0
 15 29  1  0
 15 30  1  0
 17 31  1  0
 17 32  1  0
 18 33  1  0
 18 34  1  0
M  END
