
     RDKit          3D

 28 28  0  0  0  0  0  0  0  0999 V2000
    2.8434    1.6167    0.1344 C   0  0  0  0  0  0  0  0  0  0  0  0
    3.4664    2.4170   -0.7199 O   0  0  0  0  0  0  0  0  0  0  0  0
    2.8954    0.1785   -0.3162 C   0  0  0  0  0  0  0  0  0  0  0  0
    1.7753   -0.6479    0.2956 C   0  0  2  0  0  0  0  0  0  0  0  0
    1.9127   -2.1357    0.0916 C   0  0  0  0  0  0  0  0  0  0  0  0
    1.5604   -2.9527    0.9057 O   0  0  0  0  0  0  0  0  0  0  0  0
    2.4154   -2.4450   -1.0936 O   0  0  0  0  0  0  0  0  0  0  0  0
    0.1932   -0.1412   -0.4677 S   0  0  0  0  0  0  0  0  0  0  0  0
   -0.9947   -0.6134    0.8326 C   0  0  0  0  0  0  0  0  0  0  0  0
   -2.3499   -0.1470    0.3934 C   0  0  0  0  0  0  0  0  0  0  0  0
   -3.1870   -0.9881   -0.3347 C   0  0  0  0  0  0  0  0  0  0  0  0
   -4.4308   -0.5454   -0.7641 C   0  0  0  0  0  0  0  0  0  0  0  0
   -4.8485    0.7468   -0.4736 C   0  0  0  0  0  0  0  0  0  0  0  0
   -4.0166    1.5940    0.2478 C   0  0  0  0  0  0  0  0  0  0  0  0
   -2.7733    1.1497    0.6749 C   0  0  0  0  0  0  0  0  0  0  0  0
    2.8931    0.1243   -1.4056 H   0  0  0  0  0  0  0  0  0  0  0  0
    1.7064   -0.4591    1.3677 H   0  0  0  0  0  0  0  0  0  0  0  0
    2.4423   -3.4072   -1.2067 H   0  0  0  0  0  0  0  0  0  0  0  0
   -0.9764   -1.6936    0.9723 H   0  0  0  0  0  0  0  0  0  0  0  0
   -0.6951   -0.1366    1.7666 H   0  0  0  0  0  0  0  0  0  0  0  0
   -2.8668   -1.9978   -0.5633 H   0  0  0  0  0  0  0  0  0  0  0  0
   -5.0738   -1.2105   -1.3257 H   0  0  0  0  0  0  0  0  0  0  0  0
   -5.8185    1.0912   -0.8076 H   0  0  0  0  0  0  0  0  0  0  0  0
   -4.3356    2.6019    0.4794 H   0  0  0  0  0  0  0  0  0  0  0  0
   -2.1283    1.8131    1.2389 H   0  0  0  0  0  0  0  0  0  0  0  0
    2.3393    1.9990    1.1590 O   0  0  0  0  0  0  0  0  0  0  0  0
    3.4652    3.3263   -0.3841 H   0  0  0  0  0  0  0  0  0  0  0  0
    3.8648   -0.2179    0.0064 H   0  0  0  0  0  0  0  0  0  0  0  0
 13 14  2  0
 13 12  1  0
 14 15  1  0
 12 11  2  0
 15 10  2  0
  6  5  2  0
 11 10  1  0
 10  9  1  0
  5  4  1  0
  5  7  1  0
  4  8  1  0
  4  3  1  0
  9  8  1  0
  3  1  1  0
  2  1  1  0
  3 16  1  0
  4 17  1  1
  7 18  1  0
  9 19  1  0
  9 20  1  0
 11 21  1  0
 12 22  1  0
 13 23  1  0
 14 24  1  0
 15 25  1  0
  1 26  2  0
  2 27  1  0
  3 28  1  0
M  END
