
     RDKit          3D

 56 59  0  0  0  0  0  0  0  0999 V2000
   -1.5504    3.6816    1.3670 C   0  0  0  0  0  0  0  0  0  0  0  0
   -7.3480   -0.5712   -0.3550 F   0  0  0  0  0  0  0  0  0  0  0  0
   -3.4935    0.1413    0.3018 N   0  0  0  0  0  0  0  0  0  0  0  0
    5.4714   -0.6319    1.6439 S   0  0  1  0  0  0  0  0  0  0  0  0
   -1.4352    2.5560    2.1734 C   0  0  0  0  0  0  0  0  0  0  0  0
   -6.9560   -2.1422    1.0616 F   0  0  0  0  0  0  0  0  0  0  0  0
    4.2915    0.4403    2.0169 N   0  0  0  0  0  0  0  0  0  0  0  0
   -2.0915    1.3912    1.8182 C   0  0  0  0  0  0  0  0  0  0  0  0
   -6.6951   -2.5132   -1.0388 F   0  0  0  0  0  0  0  0  0  0  0  0
   -5.1303    2.9602   -1.1689 N   0  0  0  0  0  0  0  0  0  0  0  0
   -1.1175   -2.5235    0.2558 O   0  0  0  0  0  0  0  0  0  0  0  0
   -2.8438    1.3599    0.6502 C   0  0  0  0  0  0  0  0  0  0  0  0
    0.5568    1.9040   -0.8742 F   0  0  0  0  0  0  0  0  0  0  0  0
    6.6449   -0.3937    2.4719 O   0  0  0  0  0  0  0  0  0  0  0  0
   -2.9660    2.4698   -0.1830 C   0  0  0  0  0  0  0  0  0  0  0  0
   -0.6821   -0.4174   -0.4982 N   0  0  0  0  0  0  0  0  0  0  0  0
    4.8784   -1.9600    1.6391 O   0  0  0  0  0  0  0  0  0  0  0  0
   -2.3147    3.6361    0.2130 C   0  0  0  0  0  0  0  0  0  0  0  0
   -4.8130    0.0916    0.2840 N   0  0  0  0  0  0  0  0  0  0  0  0
    0.7106   -0.4205   -0.5946 C   0  0  0  0  0  0  0  0  0  0  0  0
   -3.7918    2.4565   -1.4428 C   0  0  0  0  0  0  0  0  0  0  0  0
   -5.1143   -1.1598    0.0016 C   0  0  0  0  0  0  0  0  0  0  0  0
   -6.5347   -1.5911   -0.0842 C   0  0  1  0  0  0  0  0  0  0  0  0
   -3.9718   -1.9505   -0.1465 C   0  0  0  0  0  0  0  0  0  0  0  0
   -2.9323   -1.0717    0.0450 C   0  0  0  0  0  0  0  0  0  0  0  0
    2.6947    0.9471   -0.9266 C   0  0  0  0  0  0  0  0  0  0  0  0
    5.4188    0.3097   -2.3038 C   0  0  0  0  0  0  0  0  0  0  0  0
    3.5049   -0.1816   -0.8360 C   0  0  0  0  0  0  0  0  0  0  0  0
    4.9671   -0.0359   -1.0326 C   0  0  0  0  0  0  0  0  0  0  0  0
    2.9061   -1.4192   -0.6444 C   0  0  0  0  0  0  0  0  0  0  0  0
    5.9239   -0.1989   -0.0247 C   0  0  0  0  0  0  0  0  0  0  0  0
    1.5286   -1.5456   -0.5299 C   0  0  0  0  0  0  0  0  0  0  0  0
    6.7699    0.4685   -2.5746 C   0  0  0  0  0  0  0  0  0  0  0  0
    7.2786   -0.0384   -0.2877 C   0  0  0  0  0  0  0  0  0  0  0  0
    7.7027    0.2887   -1.5663 C   0  0  0  0  0  0  0  0  0  0  0  0
    1.3351    0.8104   -0.7972 C   0  0  0  0  0  0  0  0  0  0  0  0
   -1.0432    4.5974    1.6404 H   0  0  0  0  0  0  0  0  0  0  0  0
   -0.8437    2.5862    3.0783 H   0  0  0  0  0  0  0  0  0  0  0  0
    3.4477    0.0185    2.3820 H   0  0  0  0  0  0  0  0  0  0  0  0
    4.6031    1.2410    2.5520 H   0  0  0  0  0  0  0  0  0  0  0  0
   -2.0302    0.5108    2.4452 H   0  0  0  0  0  0  0  0  0  0  0  0
   -5.6327    3.0494   -2.0434 H   0  0  0  0  0  0  0  0  0  0  0  0
   -1.1216    0.4502   -0.7669 H   0  0  0  0  0  0  0  0  0  0  0  0
   -2.3966    4.5174   -0.4112 H   0  0  0  0  0  0  0  0  0  0  0  0
   -3.7741    1.4578   -1.8969 H   0  0  0  0  0  0  0  0  0  0  0  0
   -3.9029   -2.9992   -0.3823 H   0  0  0  0  0  0  0  0  0  0  0  0
    3.1185    1.9313   -1.0807 H   0  0  0  0  0  0  0  0  0  0  0  0
    4.6924    0.4462   -3.0944 H   0  0  0  0  0  0  0  0  0  0  0  0
    3.5127   -2.3120   -0.6075 H   0  0  0  0  0  0  0  0  0  0  0  0
    1.1019   -2.5258   -0.3987 H   0  0  0  0  0  0  0  0  0  0  0  0
    7.0899    0.7320   -3.5737 H   0  0  0  0  0  0  0  0  0  0  0  0
    8.0089   -0.1584    0.4995 H   0  0  0  0  0  0  0  0  0  0  0  0
    8.7587    0.4094   -1.7658 H   0  0  0  0  0  0  0  0  0  0  0  0
   -5.6331    2.2698   -0.6246 H   0  0  0  0  0  0  0  0  0  0  0  0
   -3.3181    3.1241   -2.1643 H   0  0  0  0  0  0  0  0  0  0  0  0
   -1.4865   -1.4049   -0.0417 C   0  0  0  0  0  0  0  0  0  0  0  0
  1 18  2  0
  1 37  1  0
 23  2  1  6
  3 12  1  0
  3 19  1  0
  4 31  1  0
  4 14  2  0
  5  1  1  0
  5 38  1  0
  4  7  1  1
  7 39  1  0
  7 40  1  0
  8  5  2  0
  8 12  1  0
  8 41  1  0
 10 42  1  0
 11 56  2  0
 12 15  2  0
 13 36  1  0
 15 18  1  0
 15 21  1  0
 16 56  1  0
 16 43  1  0
 17  4  2  0
 18 44  1  0
 20 16  1  0
 20 32  1  0
 56 25  1  0
 21 10  1  0
 21 45  1  0
 22 19  2  0
 22 23  1  0
 23  6  1  0
 23  9  1  0
 24 22  1  0
 24 46  1  0
 25  3  1  0
 25 24  2  0
 26 28  2  0
 26 36  1  0
 26 47  1  0
 27 48  1  0
 28 30  1  0
 29 27  2  0
 29 28  1  0
 30 32  2  0
 30 49  1  0
 31 29  1  0
 32 50  1  0
 33 27  1  0
 33 51  1  0
 34 31  2  0
 34 35  1  0
 34 52  1  0
 35 33  2  0
 35 53  1  0
 36 20  2  0
 10 54  1  0
 21 55  1  0
M  END
