
     RDKit          3D

 60 62  0  0  0  0  0  0  0  0999 V2000
    2.2956   -0.7790   -0.5133 O   0  0  0  0  0  0  0  0  0  0  0  0
    3.0370    0.1361   -0.1864 C   0  0  0  0  0  0  0  0  0  0  0  0
    4.3513   -0.0343    0.0702 N   0  0  0  0  0  0  0  0  0  0  0  0
    5.0120   -1.3095   -0.1199 C   0  0  0  0  0  0  0  0  0  0  0  0
    6.4176   -1.2418    0.4604 C   0  0  0  0  0  0  0  0  0  0  0  0
    7.2707   -2.5072    0.2826 C   0  0  1  0  0  0  0  0  0  0  0  0
    7.5226   -2.7962   -1.1987 C   0  0  0  0  0  0  0  0  0  0  0  0
    8.6142   -2.2604    0.9723 C   0  0  0  0  0  0  0  0  0  0  0  0
    6.5954   -3.7160    0.9330 C   0  0  0  0  0  0  0  0  0  0  0  0
    2.6040    1.4342   -0.0229 N   0  0  0  0  0  0  0  0  0  0  0  0
    1.3118    1.8904   -0.2696 C   0  0  0  0  0  0  0  0  0  0  0  0
    0.1565    1.1553   -0.0090 C   0  0  0  0  0  0  0  0  0  0  0  0
    1.1307    3.1785   -0.7620 C   0  0  0  0  0  0  0  0  0  0  0  0
    2.2247    3.9220   -1.0105 F   0  0  0  0  0  0  0  0  0  0  0  0
   -0.1119    3.7253   -0.9908 C   0  0  0  0  0  0  0  0  0  0  0  0
   -1.2603    2.9799   -0.7465 C   0  0  0  0  0  0  0  0  0  0  0  0
   -2.6166    3.5639   -1.0114 C   0  0  0  0  0  0  0  0  0  0  0  0
   -1.1073    1.6809   -0.2522 C   0  0  0  0  0  0  0  0  0  0  0  0
   -2.2998    0.8450    0.0331 C   0  0  0  0  0  0  0  0  0  0  0  0
   -2.8535    0.0480   -0.9319 C   0  0  0  0  0  0  0  0  0  0  0  0
   -3.9855   -0.7197   -0.6225 C   0  0  0  0  0  0  0  0  0  0  0  0
   -4.6534   -1.5740   -1.5215 C   0  0  0  0  0  0  0  0  0  0  0  0
   -2.9119    0.8543    1.3208 C   0  0  0  0  0  0  0  0  0  0  0  0
   -2.3326    1.7109    2.4033 C   0  0  0  0  0  0  0  0  0  0  0  0
   -3.9702    0.1390    1.6246 N   0  0  0  0  0  0  0  0  0  0  0  0
   -4.5246   -0.6480    0.6801 C   0  0  0  0  0  0  0  0  0  0  0  0
   -5.6067   -1.3550    1.0234 N   0  0  0  0  0  0  0  0  0  0  0  0
   -6.1511   -2.1193    0.0893 C   0  0  0  0  0  0  0  0  0  0  0  0
   -5.7070   -2.2607   -1.1912 N   0  0  0  0  0  0  0  0  0  0  0  0
   -7.2408   -2.8251    0.4142 N   0  0  0  0  0  0  0  0  0  0  0  0
   -7.9539   -3.6945   -0.4878 C   0  0  0  0  0  0  0  0  0  0  0  0
    4.9352    0.7707    0.2326 H   0  0  0  0  0  0  0  0  0  0  0  0
    4.4335   -2.0873    0.3810 H   0  0  0  0  0  0  0  0  0  0  0  0
    5.0471   -1.5712   -1.1817 H   0  0  0  0  0  0  0  0  0  0  0  0
    6.9503   -0.3996    0.0034 H   0  0  0  0  0  0  0  0  0  0  0  0
    6.3419   -1.0158    1.5293 H   0  0  0  0  0  0  0  0  0  0  0  0
    7.9662   -1.9338   -1.7014 H   0  0  0  0  0  0  0  0  0  0  0  0
    8.2116   -3.6357   -1.3137 H   0  0  0  0  0  0  0  0  0  0  0  0
    6.6060   -3.0564   -1.7306 H   0  0  0  0  0  0  0  0  0  0  0  0
    9.1368   -1.4076    0.5327 H   0  0  0  0  0  0  0  0  0  0  0  0
    8.4813   -2.0543    2.0368 H   0  0  0  0  0  0  0  0  0  0  0  0
    9.2648   -3.1323    0.8811 H   0  0  0  0  0  0  0  0  0  0  0  0
    7.2563   -4.5852    0.9073 H   0  0  0  0  0  0  0  0  0  0  0  0
    6.3496   -3.5197    1.9792 H   0  0  0  0  0  0  0  0  0  0  0  0
    5.6731   -3.9963    0.4212 H   0  0  0  0  0  0  0  0  0  0  0  0
    3.3066    2.1439    0.1144 H   0  0  0  0  0  0  0  0  0  0  0  0
    0.2383    0.1580    0.3959 H   0  0  0  0  0  0  0  0  0  0  0  0
   -0.1807    4.7369   -1.3724 H   0  0  0  0  0  0  0  0  0  0  0  0
   -3.1207    3.0448   -1.8285 H   0  0  0  0  0  0  0  0  0  0  0  0
   -3.2690    3.4872   -0.1401 H   0  0  0  0  0  0  0  0  0  0  0  0
   -2.5447    4.6160   -1.2816 H   0  0  0  0  0  0  0  0  0  0  0  0
   -2.4294    0.0077   -1.9289 H   0  0  0  0  0  0  0  0  0  0  0  0
   -4.2893   -1.6772   -2.5401 H   0  0  0  0  0  0  0  0  0  0  0  0
   -2.2297    2.7471    2.0772 H   0  0  0  0  0  0  0  0  0  0  0  0
   -2.9610    1.6830    3.2901 H   0  0  0  0  0  0  0  0  0  0  0  0
   -1.3316    1.3684    2.6721 H   0  0  0  0  0  0  0  0  0  0  0  0
   -7.5701   -2.7353    1.3603 H   0  0  0  0  0  0  0  0  0  0  0  0
   -8.3015   -3.1639   -1.3744 H   0  0  0  0  0  0  0  0  0  0  0  0
   -7.3460   -4.5396   -0.8140 H   0  0  0  0  0  0  0  0  0  0  0  0
   -8.8207   -4.0832    0.0391 H   0  0  0  0  0  0  0  0  0  0  0  0
  6  9  1  1
  8  6  1  0
  6  7  1  0
  6  5  1  0
  5  4  1  0
  4  3  1  0
  3  2  1  0
  1  2  2  0
  2 10  1  0
 10 11  1  0
 11 12  2  0
 11 13  1  0
 12 18  1  0
 14 13  1  0
 13 15  2  0
 18 19  1  0
 18 16  2  0
 24 23  1  0
 19 23  1  0
 19 20  2  0
 23 25  2  0
 20 21  1  0
 25 26  1  0
 21 26  2  0
 21 22  1  0
 26 27  1  0
 15 16  1  0
 22 29  2  0
 27 28  2  0
 16 17  1  0
 29 28  1  0
 28 30  1  0
 30 31  1  0
  3 32  1  0
  4 33  1  0
  4 34  1  0
  5 35  1  0
  5 36  1  0
  7 37  1  0
  7 38  1  0
  7 39  1  0
  8 40  1  0
  8 41  1  0
  8 42  1  0
  9 43  1  0
  9 44  1  0
  9 45  1  0
 10 46  1  0
 12 47  1  0
 15 48  1  0
 17 49  1  0
 17 50  1  0
 17 51  1  0
 20 52  1  0
 22 53  1  0
 24 54  1  0
 24 55  1  0
 24 56  1  0
 30 57  1  0
 31 58  1  0
 31 59  1  0
 31 60  1  0
M  END
