
     RDKit          3D

 35 36  0  0  0  0  0  0  0  0999 V2000
    6.0359    2.2828   -1.4677 C   0  0  0  0  0  0  0  0  0  0  0  0
    5.2416    1.4133   -0.5571 C   0  0  0  0  0  0  0  0  0  0  0  0
    4.0761    0.9289   -0.8327 N   0  0  0  0  0  0  0  0  0  0  0  0
    3.5794    0.1618    0.1860 C   0  0  0  0  0  0  0  0  0  0  0  0
    4.3994    0.0643    1.2733 C   0  0  0  0  0  0  0  0  0  0  0  0
    5.8282    0.9569    1.0045 S   0  0  0  0  0  0  0  0  0  0  0  0
    2.2608   -0.4637    0.0395 C   0  0  0  0  0  0  0  0  0  0  0  0
    1.7500   -1.3180    1.0209 C   0  0  0  0  0  0  0  0  0  0  0  0
    0.5062   -1.9010    0.8784 C   0  0  0  0  0  0  0  0  0  0  0  0
   -0.2452   -1.6336   -0.2607 C   0  0  0  0  0  0  0  0  0  0  0  0
    0.2414   -0.7922   -1.2504 C   0  0  0  0  0  0  0  0  0  0  0  0
    1.4903   -0.2132   -1.0963 C   0  0  0  0  0  0  0  0  0  0  0  0
   -1.8606   -2.3381   -0.4146 S   0  0  1  0  0  0  0  0  0  0  0  0
   -2.2575   -2.2446   -1.8090 O   0  0  0  0  0  0  0  0  0  0  0  0
   -1.8709   -3.6230    0.2631 O   0  0  0  0  0  0  0  0  0  0  0  0
   -2.8822   -1.3697    0.4445 N   0  0  0  0  0  0  0  0  0  0  0  0
   -3.0038    0.0333    0.0672 C   0  0  0  0  0  0  0  0  0  0  0  0
   -4.2725    0.5889    0.7024 C   0  0  0  0  0  0  0  0  0  0  0  0
   -4.4969    2.0407    0.3798 C   0  0  1  0  0  0  0  0  0  0  0  0
   -4.6149    2.2566   -0.9399 F   0  0  0  0  0  0  0  0  0  0  0  0
   -5.6168    2.5050    0.9505 F   0  0  0  0  0  0  0  0  0  0  0  0
   -3.4926    2.8229    0.8053 F   0  0  0  0  0  0  0  0  0  0  0  0
    6.9949    2.5557   -1.0336 H   0  0  0  0  0  0  0  0  0  0  0  0
    6.2228    1.7703   -2.4111 H   0  0  0  0  0  0  0  0  0  0  0  0
    5.4892    3.1994   -1.6886 H   0  0  0  0  0  0  0  0  0  0  0  0
    4.2429   -0.4695    2.1971 H   0  0  0  0  0  0  0  0  0  0  0  0
    2.3257   -1.5456    1.9081 H   0  0  0  0  0  0  0  0  0  0  0  0
    0.1371   -2.5628    1.6506 H   0  0  0  0  0  0  0  0  0  0  0  0
   -0.3347   -0.5858   -2.1421 H   0  0  0  0  0  0  0  0  0  0  0  0
    1.8695    0.4388   -1.8705 H   0  0  0  0  0  0  0  0  0  0  0  0
   -2.7818   -1.5177    1.4440 H   0  0  0  0  0  0  0  0  0  0  0  0
   -2.1266    0.6084    0.3782 H   0  0  0  0  0  0  0  0  0  0  0  0
   -3.0763    0.0919   -1.0178 H   0  0  0  0  0  0  0  0  0  0  0  0
   -5.1372    0.0211    0.3546 H   0  0  0  0  0  0  0  0  0  0  0  0
   -4.2292    0.4874    1.7891 H   0  0  0  0  0  0  0  0  0  0  0  0
 19 21  1  1
 15 13  2  0
 22 19  1  0
 19 20  1  0
 19 18  1  0
  9  8  2  0
  9 10  1  0
 13 14  2  0
 13 16  1  1
 13 10  1  0
 18 17  1  0
  8  7  1  0
 16 17  1  0
 10 11  2  0
  1  2  1  0
  3  2  2  0
  3  4  1  0
  7  4  1  0
  7 12  2  0
 11 12  1  0
  2  6  1  0
  4  5  2  0
  5  6  1  0
  1 23  1  0
  1 24  1  0
  1 25  1  0
  5 26  1  0
  8 27  1  0
  9 28  1  0
 11 29  1  0
 12 30  1  0
 16 31  1  0
 17 32  1  0
 17 33  1  0
 18 34  1  0
 18 35  1  0
M  END
