
     RDKit          3D

 51 53  0  0  0  0  0  0  0  0999 V2000
    4.2515   -1.3891   -0.2573 N   0  0  0  0  0  0  0  0  0  0  0  0
    5.3804   -2.0533   -0.4789 C   0  0  0  0  0  0  0  0  0  0  0  0
    5.2993   -3.1790   -1.2475 N   0  0  0  0  0  0  0  0  0  0  0  0
    6.6220   -1.6092    0.0101 C   0  0  0  0  0  0  0  0  0  0  0  0
    6.6745   -0.4444    0.7469 C   0  0  0  0  0  0  0  0  0  0  0  0
    5.4790    0.2496    0.9688 C   0  0  0  0  0  0  0  0  0  0  0  0
    4.3020   -0.2586    0.4507 C   0  0  0  0  0  0  0  0  0  0  0  0
    7.9656    0.0630    1.3122 C   0  0  0  0  0  0  0  0  0  0  0  0
    2.9983    0.4658    0.6304 C   0  0  0  0  0  0  0  0  0  0  0  0
    2.4979    1.0644   -0.6909 C   0  0  0  0  0  0  0  0  0  0  0  0
    0.0206    3.7931    0.0451 N   0  0  0  0  0  0  0  0  0  0  0  0
    1.1446    3.1193   -0.1544 C   0  0  0  0  0  0  0  0  0  0  0  0
    1.1889    1.7757   -0.5174 C   0  0  0  0  0  0  0  0  0  0  0  0
   -0.0276    1.1242   -0.6720 C   0  0  0  0  0  0  0  0  0  0  0  0
   -1.2216    1.8081   -0.4713 C   0  0  0  0  0  0  0  0  0  0  0  0
   -1.1287    3.1477   -0.1098 C   0  0  0  0  0  0  0  0  0  0  0  0
   -2.5523    1.1302   -0.6102 C   0  0  0  0  0  0  0  0  0  0  0  0
   -2.8870    0.2603    0.6091 C   0  0  0  0  0  0  0  0  0  0  0  0
   -5.2881    0.4056    0.4917 N   0  0  0  0  0  0  0  0  0  0  0  0
   -6.4959   -0.1203    0.3235 C   0  0  0  0  0  0  0  0  0  0  0  0
   -7.5616    0.7290    0.4126 N   0  0  0  0  0  0  0  0  0  0  0  0
   -6.6930   -1.4962    0.1083 C   0  0  0  0  0  0  0  0  0  0  0  0
   -5.5974   -2.3333    0.0755 C   0  0  0  0  0  0  0  0  0  0  0  0
   -4.3298   -1.7671    0.2576 C   0  0  0  0  0  0  0  0  0  0  0  0
   -4.2265   -0.4033    0.4585 C   0  0  0  0  0  0  0  0  0  0  0  0
    4.3874   -3.5985   -1.3275 H   0  0  0  0  0  0  0  0  0  0  0  0
    6.0513   -3.8437   -1.1776 H   0  0  0  0  0  0  0  0  0  0  0  0
    7.5211   -2.1800   -0.1900 H   0  0  0  0  0  0  0  0  0  0  0  0
    5.4728    1.1697    1.5400 H   0  0  0  0  0  0  0  0  0  0  0  0
    8.0841    1.1303    1.1241 H   0  0  0  0  0  0  0  0  0  0  0  0
    7.9902   -0.0746    2.3948 H   0  0  0  0  0  0  0  0  0  0  0  0
    8.8240   -0.4572    0.8907 H   0  0  0  0  0  0  0  0  0  0  0  0
    2.2462   -0.2270    1.0175 H   0  0  0  0  0  0  0  0  0  0  0  0
    3.1114    1.2593    1.3721 H   0  0  0  0  0  0  0  0  0  0  0  0
    3.2485    1.7575   -1.0791 H   0  0  0  0  0  0  0  0  0  0  0  0
    2.3927    0.2664   -1.4288 H   0  0  0  0  0  0  0  0  0  0  0  0
    2.0703    3.6735   -0.0271 H   0  0  0  0  0  0  0  0  0  0  0  0
   -0.0463    0.0781   -0.9621 H   0  0  0  0  0  0  0  0  0  0  0  0
   -2.0347    3.7242    0.0536 H   0  0  0  0  0  0  0  0  0  0  0  0
   -3.3372    1.8780   -0.7401 H   0  0  0  0  0  0  0  0  0  0  0  0
   -2.5562    0.5056   -1.5074 H   0  0  0  0  0  0  0  0  0  0  0  0
   -2.1109   -0.4963    0.7441 H   0  0  0  0  0  0  0  0  0  0  0  0
   -2.8873    0.8853    1.5062 H   0  0  0  0  0  0  0  0  0  0  0  0
   -7.3577    1.7073    0.2889 H   0  0  0  0  0  0  0  0  0  0  0  0
   -8.4260    0.4356   -0.0109 H   0  0  0  0  0  0  0  0  0  0  0  0
   -7.6944   -1.8851   -0.0327 H   0  0  0  0  0  0  0  0  0  0  0  0
   -3.4413   -2.3856    0.2338 H   0  0  0  0  0  0  0  0  0  0  0  0
   -5.1018   -4.1523   -0.9494 H   0  0  0  0  0  0  0  0  0  0  0  0
   -5.4584   -4.3596    0.7548 H   0  0  0  0  0  0  0  0  0  0  0  0
   -6.7735   -4.0779   -0.3860 H   0  0  0  0  0  0  0  0  0  0  0  0
   -5.7478   -3.8077   -0.1411 C   0  0  0  0  0  0  0  0  0  0  0  0
  1  7  2  0
  1  2  1  0
  3  2  1  0
  2  4  2  0
  3 26  1  0
  3 27  1  0
  4  5  1  0
  4 28  1  0
  6  5  2  0
  5  8  1  0
  7  6  1  0
  6 29  1  0
  9  7  1  0
  8 30  1  0
  8 31  1  0
  8 32  1  0
  9 10  1  0
  9 33  1  0
  9 34  1  0
 13 10  1  0
 10 35  1  0
 10 36  1  0
 16 11  2  0
 11 12  1  0
 12 13  2  0
 12 37  1  0
 14 13  1  0
 15 14  2  0
 14 38  1  0
 17 15  1  0
 16 15  1  0
 16 39  1  0
 17 18  1  0
 17 40  1  0
 17 41  1  0
 25 18  1  0
 18 42  1  0
 18 43  1  0
 20 19  2  0
 25 19  1  0
 22 20  1  0
 20 21  1  0
 21 44  1  0
 21 45  1  0
 23 22  2  0
 22 46  1  0
 51 23  1  0
 23 24  1  0
 24 25  2  0
 24 47  1  0
 51 48  1  0
 51 49  1  0
 51 50  1  0
M  END
