
     RDKit          3D

 18 19  0  0  0  0  0  0  0  0999 V2000
   -5.2569    1.5590    5.2372 O   0  0  0  0  0  0  0  0  0  0  0  0
   -4.2758    1.6540    4.5227 C   0  0  0  0  0  0  0  0  0  0  0  0
   -3.8764    0.6862    3.5338 C   0  0  0  0  0  0  0  0  0  0  0  0
   -4.5358   -0.4922    3.2439 C   0  0  0  0  0  0  0  0  0  0  0  0
   -3.8836   -1.1460    2.2693 N   0  0  0  0  0  0  0  0  0  0  0  0
   -2.7756   -0.4318    1.8788 C   0  0  0  0  0  0  0  0  0  0  0  0
   -2.7350    0.7398    2.6582 C   0  0  0  0  0  0  0  0  0  0  0  0
   -1.6942    1.6513    2.4563 C   0  0  0  0  0  0  0  0  0  0  0  0
   -0.7406    1.3679    1.4972 C   0  0  0  0  0  0  0  0  0  0  0  0
   -0.8017    0.1925    0.7327 C   0  0  0  0  0  0  0  0  0  0  0  0
   -1.8199   -0.7247    0.9112 C   0  0  0  0  0  0  0  0  0  0  0  0
   -3.6107    2.5319    4.6035 H   0  0  0  0  0  0  0  0  0  0  0  0
   -5.4330   -0.9002    3.6812 H   0  0  0  0  0  0  0  0  0  0  0  0
   -4.1700   -2.0328    1.8854 H   0  0  0  0  0  0  0  0  0  0  0  0
   -1.6305    2.5642    3.0351 H   0  0  0  0  0  0  0  0  0  0  0  0
    0.0697    2.0656    1.3305 H   0  0  0  0  0  0  0  0  0  0  0  0
   -0.0379    0.0017   -0.0096 H   0  0  0  0  0  0  0  0  0  0  0  0
   -1.8705   -1.6312    0.3222 H   0  0  0  0  0  0  0  0  0  0  0  0
  1  2  2  0
  2  3  1  0
  2 12  1  0
  3  4  2  0
  3  7  1  0
  4  5  1  0
  4 13  1  0
  5  6  1  0
  5 14  1  0
  6  7  2  0
  6 11  1  0
  7  8  1  0
  8  9  2  0
  8 15  1  0
  9 10  1  0
  9 16  1  0
 10 11  2  0
 10 17  1  0
 11 18  1  0
M  END
