
     RDKit          3D

 18 19  0  0  0  0  0  0  0  0999 V2000
    1.1280   -1.0693   -0.0609 N   0  0  0  0  0  0  0  0  0  0  0  0
   -1.3747   -1.4318   -0.0729 C   0  0  0  0  0  0  0  0  0  0  0  0
   -2.5536   -0.7051   -0.0421 C   0  0  0  0  0  0  0  0  0  0  0  0
   -2.5488    0.6962    0.0162 C   0  0  0  0  0  0  0  0  0  0  0  0
   -1.3643    1.4122    0.0446 C   0  0  0  0  0  0  0  0  0  0  0  0
   -0.1665    0.6995    0.0139 C   0  0  0  0  0  0  0  0  0  0  0  0
    1.8719    0.0685   -0.0148 C   0  0  0  0  0  0  0  0  0  0  0  0
   -0.1913   -0.7043   -0.0444 C   0  0  0  0  0  0  0  0  0  0  0  0
    1.1348    1.1460    0.0311 N   0  0  0  0  0  0  0  0  0  0  0  0
    1.4891   -2.0092   -0.1038 H   0  0  0  0  0  0  0  0  0  0  0  0
   -1.3804   -2.5131   -0.1167 H   0  0  0  0  0  0  0  0  0  0  0  0
   -3.4993   -1.2310   -0.0642 H   0  0  0  0  0  0  0  0  0  0  0  0
   -3.4923    1.2262    0.0390 H   0  0  0  0  0  0  0  0  0  0  0  0
   -1.3654    2.4939    0.0889 H   0  0  0  0  0  0  0  0  0  0  0  0
    3.7333   -0.4179   -0.9393 H   0  0  0  0  0  0  0  0  0  0  0  0
    3.7482    1.0461    0.0519 H   0  0  0  0  0  0  0  0  0  0  0  0
    3.7400   -0.5487    0.8152 H   0  0  0  0  0  0  0  0  0  0  0  0
    3.3557    0.0354   -0.0218 C   0  0  0  0  0  0  0  0  0  0  0  0
  5  6  1  0
  5  4  2  0
  9  6  1  0
  9  7  2  0
  6  8  2  0
  4  3  1  0
 18  7  1  0
  7  1  1  0
  8  1  1  0
  8  2  1  0
  3  2  2  0
  1 10  1  0
  2 11  1  0
  3 12  1  0
  4 13  1  0
  5 14  1  0
 18 15  1  0
 18 16  1  0
 18 17  1  0
M  END
