
     RDKit          3D

 20 21  0  0  0  0  0  0  0  0999 V2000
   -3.2583   -0.0165   -0.0198 C   0  0  0  0  0  0  0  0  0  0  0  0
   -0.8126   -0.3558    0.3008 C   0  0  0  0  0  0  0  0  0  0  0  0
    4.9514   -0.5307    0.0154 C   0  0  0  0  0  0  0  0  0  0  0  0
    3.5420   -0.2993   -0.4225 C   0  0  0  0  0  0  0  0  0  0  0  0
    1.4415    0.3527    0.3715 C   0  0  0  0  0  0  0  0  0  0  0  0
    1.0619    1.6461    0.0407 C   0  0  0  0  0  0  0  0  0  0  0  0
   -0.2764    1.9535   -0.1622 C   0  0  0  0  0  0  0  0  0  0  0  0
   -1.1949    0.9351   -0.0287 C   0  0  0  0  0  0  0  0  0  0  0  0
    0.5176   -0.6716    0.5061 C   0  0  0  0  0  0  0  0  0  0  0  0
    3.1064   -0.4199   -1.5324 O   0  0  0  0  0  0  0  0  0  0  0  0
    2.7700    0.0852    0.6205 O   0  0  0  0  0  0  0  0  0  0  0  0
   -2.5348    1.1046   -0.2011 O   0  0  0  0  0  0  0  0  0  0  0  0
   -4.4432   -0.0456   -0.1316 O   0  0  0  0  0  0  0  0  0  0  0  0
   -2.2161   -1.3859    0.3935 S   0  0  0  0  0  0  0  0  0  0  0  0
    5.5504   -0.8895   -0.8163 H   0  0  0  0  0  0  0  0  0  0  0  0
    5.3836    0.3971    0.3919 H   0  0  0  0  0  0  0  0  0  0  0  0
    4.9854   -1.2580    0.8263 H   0  0  0  0  0  0  0  0  0  0  0  0
    1.8102    2.4217   -0.0495 H   0  0  0  0  0  0  0  0  0  0  0  0
   -0.5859    2.9575   -0.4171 H   0  0  0  0  0  0  0  0  0  0  0  0
    0.8270   -1.6740    0.7695 H   0  0  0  0  0  0  0  0  0  0  0  0
 12  8  1  0
 12  1  1  0
  7  8  2  0
  7  6  1  0
 13  1  2  0
  8  2  1  0
  1 14  1  0
  6  5  2  0
  2 14  1  0
  2  9  2  0
  5  9  1  0
  5 11  1  0
 11  4  1  0
  4 10  2  0
  4  3  1  0
  3 15  1  0
  3 16  1  0
  3 17  1  0
  6 18  1  0
  7 19  1  0
  9 20  1  0
M  END
