
     RDKit          3D

 25 25  0  0  0  0  0  0  0  0999 V2000
    1.0112   -0.5324    0.2115 C   0  0  0  0  0  0  0  0  0  0  0  0
    2.4171   -0.0350    0.1108 C   0  0  0  0  0  0  0  0  0  0  0  0
    3.4456   -0.8736    0.5352 C   0  0  0  0  0  0  0  0  0  0  0  0
    4.7651   -0.4553    0.4623 C   0  0  0  0  0  0  0  0  0  0  0  0
    5.0684    0.8140   -0.0145 C   0  0  0  0  0  0  0  0  0  0  0  0
    4.0469    1.6628   -0.4182 C   0  0  0  0  0  0  0  0  0  0  0  0
    2.7266    1.2400   -0.3589 C   0  0  0  0  0  0  0  0  0  0  0  0
    0.1379   -0.0185   -0.6720 N   0  0  0  0  0  0  0  0  0  0  0  0
   -1.2609   -0.3723   -0.6814 C   0  0  0  0  0  0  0  0  0  0  0  0
   -3.7871   -1.1640    0.5802 F   0  0  0  0  0  0  0  0  0  0  0  0
   -3.5203    0.1302    0.3392 C   0  0  1  0  0  0  0  0  0  0  0  0
   -4.0817    0.4186   -0.8465 F   0  0  0  0  0  0  0  0  0  0  0  0
   -4.1864    0.8392    1.2623 F   0  0  0  0  0  0  0  0  0  0  0  0
   -2.0466    0.4241    0.3626 C   0  0  0  0  0  0  0  0  0  0  0  0
    0.6896   -1.3697    1.0437 O   0  0  0  0  0  0  0  0  0  0  0  0
    3.2117   -1.8598    0.9135 H   0  0  0  0  0  0  0  0  0  0  0  0
    5.5585   -1.1196    0.7792 H   0  0  0  0  0  0  0  0  0  0  0  0
    6.0982    1.1422   -0.0672 H   0  0  0  0  0  0  0  0  0  0  0  0
    4.2768    2.6577   -0.7755 H   0  0  0  0  0  0  0  0  0  0  0  0
    1.9443    1.9265   -0.6587 H   0  0  0  0  0  0  0  0  0  0  0  0
    0.4616    0.6125   -1.3857 H   0  0  0  0  0  0  0  0  0  0  0  0
   -1.6366   -0.1683   -1.6824 H   0  0  0  0  0  0  0  0  0  0  0  0
   -1.3631   -1.4432   -0.5054 H   0  0  0  0  0  0  0  0  0  0  0  0
   -1.6717    0.1989    1.3628 H   0  0  0  0  0  0  0  0  0  0  0  0
   -1.9089    1.4937    0.1930 H   0  0  0  0  0  0  0  0  0  0  0  0
 11 10  1  1
 15  1  2  0
 11 12  1  0
 11 13  1  0
 11 14  1  0
  9 14  1  0
  9  8  1  0
  1  8  1  0
  1  2  1  0
  7  2  2  0
  7  6  1  0
  2  3  1  0
  6  5  2  0
  3  4  2  0
  5  4  1  0
  3 16  1  0
  4 17  1  0
  5 18  1  0
  6 19  1  0
  7 20  1  0
  8 21  1  0
  9 22  1  0
  9 23  1  0
 14 24  1  0
 14 25  1  0
M  END
