
     RDKit          3D

 50 53  0  0  0  0  0  0  0  0999 V2000
   -4.7154   -3.2781    0.2335 C   0  0  0  0  0  0  0  0  0  0  0  0
   -3.5418   -2.5984   -0.1703 O   0  0  0  0  0  0  0  0  0  0  0  0
   -3.4465   -1.2742    0.0395 C   0  0  0  0  0  0  0  0  0  0  0  0
   -2.2871   -0.6616   -0.3825 C   0  0  0  0  0  0  0  0  0  0  0  0
   -2.0923    0.7232   -0.2111 C   0  0  0  0  0  0  0  0  0  0  0  0
   -4.4618   -0.5092    0.6569 C   0  0  0  0  0  0  0  0  0  0  0  0
   -4.2933    0.8381    0.8229 C   0  0  0  0  0  0  0  0  0  0  0  0
   -3.1191    1.4921    0.3969 C   0  0  0  0  0  0  0  0  0  0  0  0
   -3.0283    2.8307    0.5869 N   0  0  0  0  0  0  0  0  0  0  0  0
   -1.9457    3.4278    0.1754 C   0  0  0  0  0  0  0  0  0  0  0  0
   -0.8663    2.7618   -0.4414 C   0  0  0  0  0  0  0  0  0  0  0  0
   -0.9124    1.4081   -0.6297 C   0  0  0  0  0  0  0  0  0  0  0  0
    0.2515    0.6522   -1.2376 C   0  0  1  0  0  0  0  0  0  0  0  0
    1.0595    1.4768   -2.0377 O   0  0  0  0  0  0  0  0  0  0  0  0
    1.0061   -0.0958   -0.1236 C   0  0  2  0  0  0  0  0  0  0  0  0
    1.7546    0.8162    0.8767 C   0  0  0  0  0  0  0  0  0  0  0  0
    3.0647    0.1178    1.2485 C   0  0  1  0  0  0  0  0  0  0  0  0
    2.7450   -1.3127    1.6897 C   0  0  0  0  0  0  0  0  0  0  0  0
    2.1613   -2.0641    0.4702 C   0  0  0  0  0  0  0  0  0  0  0  0
    1.8893   -1.1453   -0.6350 N   0  0  0  0  0  0  0  0  0  0  0  0
    3.1721   -0.6305   -1.1138 C   0  0  0  0  0  0  0  0  0  0  0  0
    3.9606    0.1061    0.0028 C   0  0  2  0  0  0  0  0  0  0  0  0
    5.3405   -0.4961    0.2539 C   0  0  0  0  0  0  0  0  0  0  0  0
    6.2904   -0.3138   -0.9227 C   0  0  0  0  0  0  0  0  0  0  0  0
   -4.8792   -3.2083    1.3114 H   0  0  0  0  0  0  0  0  0  0  0  0
   -5.6028   -2.9081   -0.2860 H   0  0  0  0  0  0  0  0  0  0  0  0
   -4.5689   -4.3227   -0.0293 H   0  0  0  0  0  0  0  0  0  0  0  0
   -1.5321   -1.2722   -0.8610 H   0  0  0  0  0  0  0  0  0  0  0  0
   -5.3773   -0.9697    1.0018 H   0  0  0  0  0  0  0  0  0  0  0  0
   -5.0711    1.4291    1.2892 H   0  0  0  0  0  0  0  0  0  0  0  0
   -1.8871    4.5007    0.3264 H   0  0  0  0  0  0  0  0  0  0  0  0
   -0.0160    3.3511   -0.7572 H   0  0  0  0  0  0  0  0  0  0  0  0
   -0.1447   -0.1063   -1.9192 H   0  0  0  0  0  0  0  0  0  0  0  0
    1.6344    2.0117   -1.4805 H   0  0  0  0  0  0  0  0  0  0  0  0
    0.2322   -0.6274    0.4373 H   0  0  0  0  0  0  0  0  0  0  0  0
    1.9851    1.8091    0.4727 H   0  0  0  0  0  0  0  0  0  0  0  0
    1.1379    0.9937    1.7601 H   0  0  0  0  0  0  0  0  0  0  0  0
    3.5610    0.6629    2.0552 H   0  0  0  0  0  0  0  0  0  0  0  0
    3.6359   -1.8166    2.0679 H   0  0  0  0  0  0  0  0  0  0  0  0
    2.0300   -1.2893    2.5167 H   0  0  0  0  0  0  0  0  0  0  0  0
    2.8594   -2.8242    0.1098 H   0  0  0  0  0  0  0  0  0  0  0  0
    1.2375   -2.5845    0.7341 H   0  0  0  0  0  0  0  0  0  0  0  0
    3.7429   -1.4914   -1.4746 H   0  0  0  0  0  0  0  0  0  0  0  0
    3.0116    0.0073   -1.9806 H   0  0  0  0  0  0  0  0  0  0  0  0
    4.1154    1.1504   -0.2969 H   0  0  0  0  0  0  0  0  0  0  0  0
    5.7786   -0.0326    1.1436 H   0  0  0  0  0  0  0  0  0  0  0  0
    5.2460   -1.5626    0.4808 H   0  0  0  0  0  0  0  0  0  0  0  0
    7.2678   -0.7502   -0.7134 H   0  0  0  0  0  0  0  0  0  0  0  0
    5.9098   -0.7900   -1.8284 H   0  0  0  0  0  0  0  0  0  0  0  0
    6.4413    0.7440   -1.1463 H   0  0  0  0  0  0  0  0  0  0  0  0
 11 10  2  0
 11 12  1  0
 10  9  1  0
 14 13  1  0
 13 12  1  0
 13 15  1  0
 12  5  2  0
  9  8  2  0
  5  8  1  0
  5  4  1  0
  8  7  1  0
  4  3  2  0
  7  6  2  0
  3  6  1  0
  3  2  1  0
  2  1  1  0
 15 20  1  0
 15 16  1  0
 20 21  1  0
 20 19  1  0
 21 22  1  0
 16 17  1  0
 19 18  1  0
 22 17  1  0
 22 23  1  0
 17 18  1  0
 23 24  1  0
  1 25  1  0
  1 26  1  0
  1 27  1  0
  4 28  1  0
  6 29  1  0
  7 30  1  0
 10 31  1  0
 11 32  1  0
 13 33  1  6
 14 34  1  0
 15 35  1  1
 16 36  1  0
 16 37  1  0
 17 38  1  1
 18 39  1  0
 18 40  1  0
 19 41  1  0
 19 42  1  0
 21 43  1  0
 21 44  1  0
 22 45  1  6
 23 46  1  0
 23 47  1  0
 24 48  1  0
 24 49  1  0
 24 50  1  0
M  END
