
     RDKit          3D

 27 26  0  0  0  0  0  0  0  0999 V2000
    0.3126    0.1449   -4.6248 O   0  0  0  0  0  0  0  0  0  0  0  0
   -0.4978   -0.0864   -3.4909 C   0  0  0  0  0  0  0  0  0  0  0  0
    0.3264    0.1142   -2.2348 C   0  0  0  0  0  0  0  0  0  0  0  0
   -0.4909   -0.1314   -0.9730 C   0  0  0  0  0  0  0  0  0  0  0  0
    0.2878    0.1302    0.3108 C   0  0  0  0  0  0  0  0  0  0  0  0
   -0.5186   -0.2116    1.5600 C   0  0  0  0  0  0  0  0  0  0  0  0
    0.0554    0.3325    2.8682 C   0  0  1  0  0  0  0  0  0  0  0  0
   -0.8558   -0.0238    4.0385 C   0  0  0  0  0  0  0  0  0  0  0  0
    1.4762   -0.1576    3.1286 C   0  0  0  0  0  0  0  0  0  0  0  0
   -0.2310    0.0290   -5.4088 H   0  0  0  0  0  0  0  0  0  0  0  0
   -0.9081   -1.1057   -3.4947 H   0  0  0  0  0  0  0  0  0  0  0  0
   -1.3575    0.5972   -3.4709 H   0  0  0  0  0  0  0  0  0  0  0  0
    0.7265    1.1334   -2.2220 H   0  0  0  0  0  0  0  0  0  0  0  0
    1.1862   -0.5632   -2.2520 H   0  0  0  0  0  0  0  0  0  0  0  0
   -0.8592   -1.1630   -0.9719 H   0  0  0  0  0  0  0  0  0  0  0  0
   -1.3803    0.5080   -0.9845 H   0  0  0  0  0  0  0  0  0  0  0  0
    0.5878    1.1837    0.3412 H   0  0  0  0  0  0  0  0  0  0  0  0
    1.2150   -0.4502    0.2959 H   0  0  0  0  0  0  0  0  0  0  0  0
   -0.6195   -1.3010    1.6363 H   0  0  0  0  0  0  0  0  0  0  0  0
   -1.5370    0.1753    1.4422 H   0  0  0  0  0  0  0  0  0  0  0  0
    0.0859    1.4257    2.7851 H   0  0  0  0  0  0  0  0  0  0  0  0
   -0.4947    0.4113    4.9720 H   0  0  0  0  0  0  0  0  0  0  0  0
   -1.8744    0.3347    3.8769 H   0  0  0  0  0  0  0  0  0  0  0  0
   -0.9054   -1.1067    4.1781 H   0  0  0  0  0  0  0  0  0  0  0  0
    1.5089   -1.2487    3.1887 H   0  0  0  0  0  0  0  0  0  0  0  0
    2.1669    0.1518    2.3433 H   0  0  0  0  0  0  0  0  0  0  0  0
    1.8593    0.2353    4.0724 H   0  0  0  0  0  0  0  0  0  0  0  0
  1  2  1  0
  1 10  1  0
  2  3  1  0
  2 11  1  0
  2 12  1  0
  3  4  1  0
  3 13  1  0
  3 14  1  0
  4  5  1  0
  4 15  1  0
  4 16  1  0
  5  6  1  0
  5 17  1  0
  5 18  1  0
  6  7  1  0
  6 19  1  0
  6 20  1  0
  7  8  1  0
  7  9  1  0
  7 21  1  6
  8 22  1  0
  8 23  1  0
  8 24  1  0
  9 25  1  0
  9 26  1  0
  9 27  1  0
M  END
