
     RDKit          3D

 26 27  0  0  0  0  0  0  0  0999 V2000
   -1.4897   -0.1512    1.0404 C   0  0  0  0  0  0  0  0  0  0  0  0
   -2.7383   -0.7158    1.2495 C   0  0  0  0  0  0  0  0  0  0  0  0
   -3.5450   -1.0533    0.1684 C   0  0  0  0  0  0  0  0  0  0  0  0
   -3.0956   -0.8220   -1.1227 C   0  0  0  0  0  0  0  0  0  0  0  0
   -1.8424   -0.2580   -1.3297 C   0  0  0  0  0  0  0  0  0  0  0  0
   -1.0308    0.0802   -0.2541 C   0  0  0  0  0  0  0  0  0  0  0  0
    0.3470    0.6382   -0.5183 C   0  0  1  0  0  0  0  0  0  0  0  0
    0.5658    1.9965    0.1397 C   0  0  0  0  0  0  0  0  0  0  0  0
   -0.3370    2.7131    0.4801 O   0  0  0  0  0  0  0  0  0  0  0  0
    1.8446    2.3144    0.2167 O   0  0  0  0  0  0  0  0  0  0  0  0
    1.3973   -0.3079   -0.2173 N   0  0  0  0  0  0  0  0  0  0  0  0
    1.9744   -1.1211   -1.1502 C   0  0  0  0  0  0  0  0  0  0  0  0
    2.8208   -1.9834   -0.5054 C   0  0  0  0  0  0  0  0  0  0  0  0
    2.7446   -1.6825    0.8798 C   0  0  0  0  0  0  0  0  0  0  0  0
    1.8549   -0.6504    1.0230 C   0  0  0  0  0  0  0  0  0  0  0  0
   -0.8813    0.1072    1.8984 H   0  0  0  0  0  0  0  0  0  0  0  0
   -3.0855   -0.8898    2.2594 H   0  0  0  0  0  0  0  0  0  0  0  0
   -4.5191   -1.4941    0.3363 H   0  0  0  0  0  0  0  0  0  0  0  0
   -3.7162   -1.0787   -1.9714 H   0  0  0  0  0  0  0  0  0  0  0  0
   -1.4960   -0.0805   -2.3411 H   0  0  0  0  0  0  0  0  0  0  0  0
    0.4254    0.8458   -1.5916 H   0  0  0  0  0  0  0  0  0  0  0  0
    1.9440    3.2059    0.5850 H   0  0  0  0  0  0  0  0  0  0  0  0
    1.7370   -1.0179   -2.1972 H   0  0  0  0  0  0  0  0  0  0  0  0
    3.4314   -2.7382   -0.9753 H   0  0  0  0  0  0  0  0  0  0  0  0
    3.2905   -2.1582    1.6793 H   0  0  0  0  0  0  0  0  0  0  0  0
    1.5341   -0.1322    1.9127 H   0  0  0  0  0  0  0  0  0  0  0  0
 14 15  2  0
 14 13  1  0
 15 11  1  0
 13 12  2  0
 11 12  1  0
 11  7  1  0
  7  8  1  0
  7  6  1  0
  8  9  2  0
  8 10  1  0
  5  6  1  0
  5  4  2  0
  6  1  2  0
  4  3  1  0
  1  2  1  0
  3  2  2  0
  1 16  1  0
  2 17  1  0
  3 18  1  0
  4 19  1  0
  5 20  1  0
  7 21  1  6
 10 22  1  0
 12 23  1  0
 13 24  1  0
 14 25  1  0
 15 26  1  0
M  END
