
     RDKit          3D

 57 59  0  0  0  0  0  0  0  0999 V2000
    2.3762   -2.4783   -1.5712 C   0  0  0  0  0  0  0  0  0  0  0  0
    1.1981   -1.9692   -2.0991 C   0  0  0  0  0  0  0  0  0  0  0  0
    1.1214   -0.6357   -2.4977 C   0  0  0  0  0  0  0  0  0  0  0  0
    2.2225    0.1943   -2.3725 C   0  0  0  0  0  0  0  0  0  0  0  0
    3.4082   -0.2871   -1.8170 C   0  0  0  0  0  0  0  0  0  0  0  0
    3.4671   -1.6190   -1.4287 C   0  0  0  0  0  0  0  0  0  0  0  0
    0.5444   -0.5939    1.3433 C   0  0  0  0  0  0  0  0  0  0  0  0
    0.9298   -0.8655    2.6416 C   0  0  0  0  0  0  0  0  0  0  0  0
    0.4781   -0.0588    3.6763 C   0  0  0  0  0  0  0  0  0  0  0  0
   -0.3690    1.0207    3.3976 C   0  0  0  0  0  0  0  0  0  0  0  0
   -0.7571    1.3145    2.0892 C   0  0  0  0  0  0  0  0  0  0  0  0
   -0.2790    0.4949    1.0629 C   0  0  0  0  0  0  0  0  0  0  0  0
    0.8784   -0.3482    4.9324 O   0  0  0  0  0  0  0  0  0  0  0  0
    0.6389    0.6729    5.8909 C   0  0  0  0  0  0  0  0  0  0  0  0
   -0.7373    1.2548    5.6902 C   0  0  0  0  0  0  0  0  0  0  0  0
   -0.8393    1.8135    4.3896 O   0  0  0  0  0  0  0  0  0  0  0  0
    2.4801   -3.9141   -1.1468 C   0  0  0  0  0  0  0  0  0  0  0  0
    4.5910    0.6234   -1.6575 C   0  0  0  0  0  0  0  0  0  0  0  0
   -0.1225   -0.1190   -3.1515 C   0  0  0  0  0  0  0  0  0  0  0  0
   -0.5749    0.8019   -0.3638 C   0  0  0  0  0  0  0  0  0  0  0  0
   -1.2638   -0.2037   -2.4053 N   0  0  0  0  0  0  0  0  0  0  0  0
   -1.0887   -0.2517   -1.0497 N   0  0  0  0  0  0  0  0  0  0  0  0
   -0.0937    0.3043   -4.2910 O   0  0  0  0  0  0  0  0  0  0  0  0
   -0.3459    1.8772   -0.8832 O   0  0  0  0  0  0  0  0  0  0  0  0
   -2.6262    0.0919   -2.9355 C   0  0  1  0  0  0  0  0  0  0  0  0
   -3.6524   -0.3093   -1.8758 C   0  0  0  0  0  0  0  0  0  0  0  0
   -2.7923    1.5770   -3.2546 C   0  0  0  0  0  0  0  0  0  0  0  0
   -2.8781   -0.7632   -4.1799 C   0  0  0  0  0  0  0  0  0  0  0  0
    0.3354   -2.6179   -2.2051 H   0  0  0  0  0  0  0  0  0  0  0  0
    2.1578    1.2295   -2.6865 H   0  0  0  0  0  0  0  0  0  0  0  0
    4.3883   -2.0039   -1.0039 H   0  0  0  0  0  0  0  0  0  0  0  0
    0.9238   -1.2112    0.5381 H   0  0  0  0  0  0  0  0  0  0  0  0
    1.5872   -1.6966    2.8627 H   0  0  0  0  0  0  0  0  0  0  0  0
    1.4009    1.4537    5.8028 H   0  0  0  0  0  0  0  0  0  0  0  0
    0.7235    0.2159    6.8756 H   0  0  0  0  0  0  0  0  0  0  0  0
   -0.9196    2.0590    6.4010 H   0  0  0  0  0  0  0  0  0  0  0  0
   -1.5046    0.4862    5.8321 H   0  0  0  0  0  0  0  0  0  0  0  0
    2.6903   -3.9962   -0.0791 H   0  0  0  0  0  0  0  0  0  0  0  0
    1.5591   -4.4592   -1.3483 H   0  0  0  0  0  0  0  0  0  0  0  0
    3.2906   -4.4222   -1.6712 H   0  0  0  0  0  0  0  0  0  0  0  0
    4.9786    0.9384   -2.6277 H   0  0  0  0  0  0  0  0  0  0  0  0
    4.3200    1.5282   -1.1121 H   0  0  0  0  0  0  0  0  0  0  0  0
    5.4019    0.1368   -1.1176 H   0  0  0  0  0  0  0  0  0  0  0  0
   -1.1313    3.4208    1.8518 H   0  0  0  0  0  0  0  0  0  0  0  0
   -2.1942    2.4045    0.8960 H   0  0  0  0  0  0  0  0  0  0  0  0
   -2.4372    2.5422    2.6279 H   0  0  0  0  0  0  0  0  0  0  0  0
   -1.2811   -1.1235   -0.5794 H   0  0  0  0  0  0  0  0  0  0  0  0
   -3.5537   -1.3554   -1.5807 H   0  0  0  0  0  0  0  0  0  0  0  0
   -3.5983    0.3105   -0.9805 H   0  0  0  0  0  0  0  0  0  0  0  0
   -4.6488   -0.1803   -2.2980 H   0  0  0  0  0  0  0  0  0  0  0  0
   -2.0927    1.9088   -4.0188 H   0  0  0  0  0  0  0  0  0  0  0  0
   -3.8028    1.7559   -3.6257 H   0  0  0  0  0  0  0  0  0  0  0  0
   -2.6523    2.1909   -2.3659 H   0  0  0  0  0  0  0  0  0  0  0  0
   -3.9256   -0.6723   -4.4690 H   0  0  0  0  0  0  0  0  0  0  0  0
   -2.2766   -0.4560   -5.0310 H   0  0  0  0  0  0  0  0  0  0  0  0
   -2.6786   -1.8166   -3.9765 H   0  0  0  0  0  0  0  0  0  0  0  0
   -1.6784    2.4762    1.8501 C   0  0  0  0  0  0  0  0  0  0  0  0
  1  2  2  0
  1  6  1  0
  1 17  1  0
  2  3  1  0
  2 29  1  0
  3  4  2  0
  3 19  1  0
  4  5  1  0
  4 30  1  0
  5  6  2  0
  5 18  1  0
  6 31  1  0
  7  8  2  0
  7 12  1  0
  7 32  1  0
  8  9  1  0
  8 33  1  0
  9 10  2  0
  9 13  1  0
 10 11  1  0
 10 16  1  0
 11 12  2  0
 11 57  1  0
 12 20  1  0
 13 14  1  0
 14 15  1  0
 14 34  1  0
 14 35  1  0
 15 16  1  0
 15 36  1  0
 15 37  1  0
 17 38  1  0
 17 39  1  0
 17 40  1  0
 18 41  1  0
 18 42  1  0
 18 43  1  0
 57 44  1  0
 57 45  1  0
 57 46  1  0
 19 21  1  0
 19 23  2  0
 20 22  1  0
 20 24  2  0
 21 22  1  0
 25 21  1  1
 22 47  1  0
 25 26  1  0
 25 27  1  0
 25 28  1  0
 26 48  1  0
 26 49  1  0
 26 50  1  0
 27 51  1  0
 27 52  1  0
 27 53  1  0
 28 54  1  0
 28 55  1  0
 28 56  1  0
M  END
