
     RDKit          3D

 54 57  0  0  0  0  0  0  0  0999 V2000
   -1.8211    2.3815    0.3134 C   0  0  0  0  0  0  0  0  0  0  0  0
   -8.1780    0.3196    0.5363 N   0  0  0  0  0  0  0  0  0  0  0  0
    0.5221   -0.4674   -0.0935 O   0  0  0  0  0  0  0  0  0  0  0  0
   -1.0999    1.0925    0.1304 C   0  0  0  0  0  0  0  0  0  0  0  0
   -3.9858    0.2671   -0.0210 O   0  0  0  0  0  0  0  0  0  0  0  0
    0.2413    0.8568    0.0942 C   0  0  0  0  0  0  0  0  0  0  0  0
    1.2739    2.9488    0.4519 O   0  0  0  0  0  0  0  0  0  0  0  0
   -0.6533   -1.1074   -0.1779 C   0  0  0  0  0  0  0  0  0  0  0  0
   -0.8259   -2.4711   -0.3684 C   0  0  0  0  0  0  0  0  0  0  0  0
   -2.1379   -2.8977   -0.4288 C   0  0  0  0  0  0  0  0  0  0  0  0
   -3.2276   -2.0225   -0.3099 C   0  0  0  0  0  0  0  0  0  0  0  0
   -3.0297   -0.6613   -0.1235 C   0  0  0  0  0  0  0  0  0  0  0  0
   -5.3642   -0.0823   -0.1474 C   0  0  2  0  0  0  0  0  0  0  0  0
   -6.1087    1.1688   -0.5814 C   0  0  0  0  0  0  0  0  0  0  0  0
   -7.6053    0.8658   -0.6821 C   0  0  0  0  0  0  0  0  0  0  0  0
   -7.4445   -0.8478    0.9957 C   0  0  0  0  0  0  0  0  0  0  0  0
   -5.9398   -0.6113    1.1588 C   0  0  0  0  0  0  0  0  0  0  0  0
   -1.7020   -0.1991   -0.0496 C   0  0  0  0  0  0  0  0  0  0  0  0
    1.3775    1.7685    0.2126 C   0  0  0  0  0  0  0  0  0  0  0  0
    8.1694   -2.1433    1.1593 C   0  0  0  0  0  0  0  0  0  0  0  0
    3.7289    1.9316    0.1242 C   0  0  0  0  0  0  0  0  0  0  0  0
    4.8732    1.0351   -0.2375 C   0  0  0  0  0  0  0  0  0  0  0  0
    5.3062    0.9525   -1.5597 C   0  0  0  0  0  0  0  0  0  0  0  0
    6.3546    0.1085   -1.8827 C   0  0  0  0  0  0  0  0  0  0  0  0
    6.9824   -0.6604   -0.9091 C   0  0  0  0  0  0  0  0  0  0  0  0
    6.5479   -0.5812    0.4121 C   0  0  0  0  0  0  0  0  0  0  0  0
    5.4915    0.2710    0.7393 C   0  0  0  0  0  0  0  0  0  0  0  0
    7.0840   -1.2789    1.4308 O   0  0  0  0  0  0  0  0  0  0  0  0
    2.5299    1.1442    0.0235 O   0  0  0  0  0  0  0  0  0  0  0  0
   -2.5268    2.5433   -0.5005 H   0  0  0  0  0  0  0  0  0  0  0  0
   -2.4022    2.3627    1.2361 H   0  0  0  0  0  0  0  0  0  0  0  0
   -1.1406    3.2248    0.3554 H   0  0  0  0  0  0  0  0  0  0  0  0
   -8.1497    1.0296    1.2594 H   0  0  0  0  0  0  0  0  0  0  0  0
    0.0075   -3.1528   -0.4625 H   0  0  0  0  0  0  0  0  0  0  0  0
   -2.3434   -3.9503   -0.5724 H   0  0  0  0  0  0  0  0  0  0  0  0
   -4.2235   -2.4381   -0.3697 H   0  0  0  0  0  0  0  0  0  0  0  0
   -5.4793   -0.8381   -0.9351 H   0  0  0  0  0  0  0  0  0  0  0  0
   -5.9453    1.9664    0.1510 H   0  0  0  0  0  0  0  0  0  0  0  0
   -5.7313    1.5209   -1.5447 H   0  0  0  0  0  0  0  0  0  0  0  0
   -7.7726    0.1447   -1.4898 H   0  0  0  0  0  0  0  0  0  0  0  0
   -8.1491    1.7711   -0.9564 H   0  0  0  0  0  0  0  0  0  0  0  0
   -7.8706   -1.1846    1.9418 H   0  0  0  0  0  0  0  0  0  0  0  0
   -7.6053   -1.6572    0.2753 H   0  0  0  0  0  0  0  0  0  0  0  0
   -5.4503   -1.5386    1.4658 H   0  0  0  0  0  0  0  0  0  0  0  0
   -5.7684    0.1260    1.9501 H   0  0  0  0  0  0  0  0  0  0  0  0
    7.9001   -2.9279    0.4472 H   0  0  0  0  0  0  0  0  0  0  0  0
    9.0368   -1.6007    0.7742 H   0  0  0  0  0  0  0  0  0  0  0  0
    8.4386   -2.6070    2.1048 H   0  0  0  0  0  0  0  0  0  0  0  0
    3.8303    2.3142    1.1415 H   0  0  0  0  0  0  0  0  0  0  0  0
    3.6732    2.7816   -0.5581 H   0  0  0  0  0  0  0  0  0  0  0  0
    4.8302    1.5515   -2.3256 H   0  0  0  0  0  0  0  0  0  0  0  0
    6.7006    0.0441   -2.9061 H   0  0  0  0  0  0  0  0  0  0  0  0
    7.8040   -1.3031   -1.1951 H   0  0  0  0  0  0  0  0  0  0  0  0
    5.1633    0.3328    1.7708 H   0  0  0  0  0  0  0  0  0  0  0  0
  1  4  1  0
  2 15  1  0
  2 16  1  0
  3  6  1  0
  3  8  1  0
  4  6  2  0
  4 18  1  0
  5 12  1  0
  5 13  1  0
  6 19  1  0
  7 19  2  0
  8  9  2  0
  8 18  1  0
  9 10  1  0
 10 11  2  0
 11 12  1  0
 12 18  2  0
 13 14  1  0
 13 17  1  0
 14 15  1  0
 16 17  1  0
 19 29  1  0
 20 28  1  0
 21 22  1  0
 21 29  1  0
 22 23  2  0
 22 27  1  0
 23 24  1  0
 24 25  2  0
 25 26  1  0
 26 27  2  0
 26 28  1  0
  1 30  1  0
  1 31  1  0
  1 32  1  0
  2 33  1  0
  9 34  1  0
 10 35  1  0
 11 36  1  0
 13 37  1  6
 14 38  1  0
 14 39  1  0
 15 40  1  0
 15 41  1  0
 16 42  1  0
 16 43  1  0
 17 44  1  0
 17 45  1  0
 20 46  1  0
 20 47  1  0
 20 48  1  0
 21 49  1  0
 21 50  1  0
 23 51  1  0
 24 52  1  0
 25 53  1  0
 27 54  1  0
M  END
