
     RDKit          3D

 22 24  0  0  0  0  0  0  0  0999 V2000
   -0.4650   -0.0225    0.0059 C   0  0  0  0  0  0  0  0  0  0  0  0
    0.2301   -1.2520   -0.0042 C   0  0  0  0  0  0  0  0  0  0  0  0
   -0.4627   -2.4399   -0.0141 C   0  0  0  0  0  0  0  0  0  0  0  0
   -1.8663   -2.4452   -0.0142 C   0  0  0  0  0  0  0  0  0  0  0  0
   -2.5602   -1.2635   -0.0038 C   0  0  0  0  0  0  0  0  0  0  0  0
   -1.8793   -0.0260    0.0066 C   0  0  0  0  0  0  0  0  0  0  0  0
   -2.5664    1.2080    0.0173 C   0  0  0  0  0  0  0  0  0  0  0  0
   -1.8783    2.3931    0.0267 C   0  0  0  0  0  0  0  0  0  0  0  0
   -0.4747    2.3949    0.0256 C   0  0  0  0  0  0  0  0  0  0  0  0
    0.2240    1.2104    0.0155 C   0  0  0  0  0  0  0  0  0  0  0  0
    1.6960    1.2216    0.0138 C   0  0  0  0  0  0  0  0  0  0  0  0
    2.3652    2.2339    0.0214 O   0  0  0  0  0  0  0  0  0  0  0  0
    2.3015   -0.0156    0.0032 N   0  0  0  0  0  0  0  0  0  0  0  0
    1.7022   -1.2559   -0.0045 C   0  0  0  0  0  0  0  0  0  0  0  0
    2.3763   -2.2647   -0.0111 O   0  0  0  0  0  0  0  0  0  0  0  0
    0.0760   -3.3782   -0.0221 H   0  0  0  0  0  0  0  0  0  0  0  0
   -2.3963   -3.3876   -0.0225 H   0  0  0  0  0  0  0  0  0  0  0  0
   -3.6431   -1.2665   -0.0036 H   0  0  0  0  0  0  0  0  0  0  0  0
   -3.6493    1.2055    0.0184 H   0  0  0  0  0  0  0  0  0  0  0  0
   -2.4130    3.3328    0.0351 H   0  0  0  0  0  0  0  0  0  0  0  0
    0.0593    3.3358    0.0333 H   0  0  0  0  0  0  0  0  0  0  0  0
    3.3151   -0.0130    0.0009 H   0  0  0  0  0  0  0  0  0  0  0  0
  2  1  1  0
  1  6  2  0
  1 10  1  0
  3  2  2  0
 14  2  1  0
  3  4  1  0
  3 16  1  0
  4  5  2  0
  4 17  1  0
  5  6  1  0
  5 18  1  0
  6  7  1  0
  7  8  2  0
  7 19  1  0
  9  8  1  0
  8 20  1  0
 10  9  2  0
  9 21  1  0
 11 10  1  0
 13 11  1  0
 11 12  2  0
 14 13  1  0
 13 22  1  0
 15 14  2  0
M  END
