
     RDKit          3D

 31 34  0  0  0  0  0  0  0  0999 V2000
    4.6450   -0.1937   -0.0461 C   0  0  0  0  0  0  0  0  0  0  0  0
    5.9898   -0.1680   -0.0603 O   0  0  0  0  0  0  0  0  0  0  0  0
    4.0375   -1.4679   -0.0169 C   0  0  0  0  0  0  0  0  0  0  0  0
    2.6750   -1.5784   -0.0012 C   0  0  0  0  0  0  0  0  0  0  0  0
    1.8532   -0.4323   -0.0141 C   0  0  0  0  0  0  0  0  0  0  0  0
    2.4603    0.8498   -0.0431 C   0  0  0  0  0  0  0  0  0  0  0  0
    3.8669    0.9398   -0.0581 C   0  0  0  0  0  0  0  0  0  0  0  0
    0.4394   -0.4670   -0.0021 C   0  0  0  0  0  0  0  0  0  0  0  0
   -0.3416    0.6892   -0.0172 C   0  0  0  0  0  0  0  0  0  0  0  0
    0.2883    1.9539   -0.0448 C   0  0  0  0  0  0  0  0  0  0  0  0
    1.6507    2.0223   -0.0574 C   0  0  0  0  0  0  0  0  0  0  0  0
   -0.3809   -1.5652    0.0228 N   0  0  0  0  0  0  0  0  0  0  0  0
   -1.6796   -1.1630    0.0239 C   0  0  0  0  0  0  0  0  0  0  0  0
   -1.7072    0.2456   -0.0007 C   0  0  0  0  0  0  0  0  0  0  0  0
   -2.8468   -1.9297    0.0425 C   0  0  0  0  0  0  0  0  0  0  0  0
   -2.8213   -3.4239    0.0652 C   0  0  0  0  0  0  0  0  0  0  0  0
   -4.0164   -1.1950    0.0360 C   0  0  0  0  0  0  0  0  0  0  0  0
   -4.0809    0.1454    0.0131 N   0  0  0  0  0  0  0  0  0  0  0  0
   -2.9708    0.8261   -0.0046 C   0  0  0  0  0  0  0  0  0  0  0  0
   -3.1150    2.5574   -0.0352 Cl  0  0  0  0  0  0  0  0  0  0  0  0
    6.3086    0.7416   -0.0865 H   0  0  0  0  0  0  0  0  0  0  0  0
    4.6605   -2.3530   -0.0069 H   0  0  0  0  0  0  0  0  0  0  0  0
    2.2359   -2.5680    0.0210 H   0  0  0  0  0  0  0  0  0  0  0  0
    4.3296    1.9210   -0.0814 H   0  0  0  0  0  0  0  0  0  0  0  0
   -0.2993    2.8612   -0.0568 H   0  0  0  0  0  0  0  0  0  0  0  0
    2.1408    2.9877   -0.0800 H   0  0  0  0  0  0  0  0  0  0  0  0
   -2.2852   -3.7985    0.9392 H   0  0  0  0  0  0  0  0  0  0  0  0
   -3.8304   -3.8306    0.0927 H   0  0  0  0  0  0  0  0  0  0  0  0
   -2.3221   -3.8248   -0.8189 H   0  0  0  0  0  0  0  0  0  0  0  0
   -4.9704   -1.7108    0.0503 H   0  0  0  0  0  0  0  0  0  0  0  0
   -0.0791   -2.5260    0.0400 H   0  0  0  0  0  0  0  0  0  0  0  0
  2  1  1  0
  7  1  2  0
  1  3  1  0
  2 21  1  0
  3  4  2  0
  3 22  1  0
  5  4  1  0
  4 23  1  0
  6  5  2  0
  5  8  1  0
  7  6  1  0
 11  6  1  0
  7 24  1  0
  9  8  2  0
  8 12  1  0
 10  9  1  0
  9 14  1  0
 11 10  2  0
 10 25  1  0
 11 26  1  0
 12 13  1  0
 14 13  2  0
 13 15  1  0
 14 19  1  0
 15 17  2  0
 15 16  1  0
 16 27  1  0
 16 28  1  0
 16 29  1  0
 18 17  1  0
 17 30  1  0
 19 18  2  0
 20 19  1  0
 12 31  1  0
M  END
