
     RDKit          3D

 50 52  0  0  0  0  0  0  0  0999 V2000
    6.1363   -0.9076   -0.6956 C   0  0  0  0  0  0  0  0  0  0  0  0
    6.9039   -2.1852   -1.0196 C   0  0  0  0  0  0  0  0  0  0  0  0
    7.0770   -3.0592    0.2178 C   0  0  0  0  0  0  0  0  0  0  0  0
    5.7287   -3.3799    0.8532 C   0  0  0  0  0  0  0  0  0  0  0  0
    4.9503   -2.1092    1.1776 C   0  0  0  0  0  0  0  0  0  0  0  0
    4.7802   -1.2293   -0.0708 C   0  0  1  0  0  0  0  0  0  0  0  0
    4.0251    0.0258    0.3072 C   0  0  0  0  0  0  0  0  0  0  0  0
    4.5697    1.0305    0.7444 O   0  0  0  0  0  0  0  0  0  0  0  0
    2.6866   -0.0384    0.1809 N   0  0  0  0  0  0  0  0  0  0  0  0
    1.8518    1.0455    0.6259 C   0  0  1  0  0  0  0  0  0  0  0  0
    2.1964    2.3252   -0.1487 C   0  0  0  0  0  0  0  0  0  0  0  0
    2.4329    2.3257   -1.3383 O   0  0  0  0  0  0  0  0  0  0  0  0
    2.0965    3.4284    0.6119 N   0  0  0  0  0  0  0  0  0  0  0  0
    2.4484    4.6375    0.0923 O   0  0  0  0  0  0  0  0  0  0  0  0
    0.3927    0.7307    0.4057 C   0  0  0  0  0  0  0  0  0  0  0  0
   -0.5073    0.8432    1.4583 C   0  0  0  0  0  0  0  0  0  0  0  0
   -1.8549    0.5825    1.2686 C   0  0  0  0  0  0  0  0  0  0  0  0
   -0.0830    0.3507   -0.8472 C   0  0  0  0  0  0  0  0  0  0  0  0
   -1.4287    0.0860   -1.0356 C   0  0  0  0  0  0  0  0  0  0  0  0
   -2.3367    0.1996    0.0181 C   0  0  0  0  0  0  0  0  0  0  0  0
   -3.7713   -0.0781   -0.1859 C   0  0  0  0  0  0  0  0  0  0  0  0
   -4.7360    0.6754    0.4826 C   0  0  0  0  0  0  0  0  0  0  0  0
   -6.0725    0.4059    0.2823 C   0  0  0  0  0  0  0  0  0  0  0  0
   -7.0055    1.1246    0.9076 F   0  0  0  0  0  0  0  0  0  0  0  0
   -6.4838   -0.5991   -0.5742 C   0  0  0  0  0  0  0  0  0  0  0  0
   -7.7786   -0.8454   -0.7606 F   0  0  0  0  0  0  0  0  0  0  0  0
   -5.5205   -1.3399   -1.2339 C   0  0  0  0  0  0  0  0  0  0  0  0
   -5.9208   -2.3119   -2.0540 F   0  0  0  0  0  0  0  0  0  0  0  0
   -4.1768   -1.0945   -1.0501 C   0  0  0  0  0  0  0  0  0  0  0  0
    6.7221   -0.3003    0.0005 H   0  0  0  0  0  0  0  0  0  0  0  0
    6.0016   -0.3101   -1.6009 H   0  0  0  0  0  0  0  0  0  0  0  0
    6.3647   -2.7491   -1.7888 H   0  0  0  0  0  0  0  0  0  0  0  0
    7.8776   -1.9322   -1.4454 H   0  0  0  0  0  0  0  0  0  0  0  0
    7.6025   -3.9817   -0.0406 H   0  0  0  0  0  0  0  0  0  0  0  0
    7.7045   -2.5345    0.9468 H   0  0  0  0  0  0  0  0  0  0  0  0
    5.1409   -3.9974    0.1654 H   0  0  0  0  0  0  0  0  0  0  0  0
    5.8650   -3.9689    1.7631 H   0  0  0  0  0  0  0  0  0  0  0  0
    3.9715   -2.3638    1.5920 H   0  0  0  0  0  0  0  0  0  0  0  0
    5.4824   -1.5390    1.9464 H   0  0  0  0  0  0  0  0  0  0  0  0
    4.1868   -1.7958   -0.7991 H   0  0  0  0  0  0  0  0  0  0  0  0
    2.2528   -0.8853   -0.1489 H   0  0  0  0  0  0  0  0  0  0  0  0
    2.0074    1.2168    1.6966 H   0  0  0  0  0  0  0  0  0  0  0  0
    2.1152    3.3856    1.6209 H   0  0  0  0  0  0  0  0  0  0  0  0
    1.6219    5.0712   -0.1557 H   0  0  0  0  0  0  0  0  0  0  0  0
   -0.1549    1.1268    2.4422 H   0  0  0  0  0  0  0  0  0  0  0  0
   -2.5285    0.6535    2.1128 H   0  0  0  0  0  0  0  0  0  0  0  0
    0.5923    0.2755   -1.6900 H   0  0  0  0  0  0  0  0  0  0  0  0
   -1.7760   -0.1868   -2.0239 H   0  0  0  0  0  0  0  0  0  0  0  0
   -4.4586    1.4887    1.1404 H   0  0  0  0  0  0  0  0  0  0  0  0
   -3.4562   -1.7129   -1.5689 H   0  0  0  0  0  0  0  0  0  0  0  0
  3  2  1  0
  3  4  1  0
  2  1  1  0
  4  5  1  0
 14 13  1  0
  1  6  1  0
 13 11  1  0
 12 11  2  0
  5  6  1  0
  6  7  1  0
 11 10  1  0
  7  9  1  0
  7  8  2  0
  9 10  1  0
 10 15  1  0
 15 16  2  0
 15 18  1  0
 16 17  1  0
 18 19  2  0
 17 20  2  0
 19 20  1  0
 20 21  1  0
 21 29  1  0
 21 22  2  0
 29 27  2  0
 22 23  1  0
 27 28  1  0
 27 25  1  0
 23 25  2  0
 23 24  1  0
 25 26  1  0
  1 30  1  0
  1 31  1  0
  2 32  1  0
  2 33  1  0
  3 34  1  0
  3 35  1  0
  4 36  1  0
  4 37  1  0
  5 38  1  0
  5 39  1  0
  6 40  1  6
  9 41  1  0
 10 42  1  1
 13 43  1  0
 14 44  1  0
 16 45  1  0
 17 46  1  0
 18 47  1  0
 19 48  1  0
 22 49  1  0
 29 50  1  0
M  END
