
     RDKit          3D

 43 43  0  0  0  0  0  0  0  0999 V2000
   -1.8205   -0.8797    1.8770 C   0  0  2  0  0  0  0  0  0  0  0  0
    1.4351    0.4963   -1.4457 C   0  0  2  0  0  0  0  0  0  0  0  0
   -1.0944   -2.3489    3.8942 N   0  0  0  0  0  0  0  0  0  0  0  0
   -2.2903   -1.3296   -0.9744 O   0  0  0  0  0  0  0  0  0  0  0  0
    1.8000    2.9426    1.2346 O   0  0  0  0  0  0  0  0  0  0  0  0
    3.3248    1.2105   -2.6429 C   0  0  0  0  0  0  0  0  0  0  0  0
   -3.2890   -0.6052    2.0648 C   0  0  0  0  0  0  0  0  0  0  0  0
    0.6636    0.7588   -0.1590 C   0  0  1  0  0  0  0  0  0  0  0  0
   -1.1472   -1.0361    3.2504 C   0  0  0  0  0  0  0  0  0  0  0  0
   -0.4478   -0.2121    0.0343 C   0  0  2  0  0  0  0  0  0  0  0  0
   -1.3511   -0.2806   -1.1653 C   0  0  1  0  0  0  0  0  0  0  0  0
   -0.5749   -0.5412   -2.4542 C   0  0  1  0  0  0  0  0  0  0  0  0
   -1.5215   -0.4410   -3.6230 C   0  0  0  0  0  0  0  0  0  0  0  0
    2.1300    1.8800    1.6422 C   0  0  0  0  0  0  0  0  0  0  0  0
    3.1443    1.7800    2.7988 C   0  0  0  0  0  0  0  0  0  0  0  0
    1.6128    0.6561    1.0090 N   0  0  0  0  0  0  0  0  0  0  0  0
   -0.6599   -0.0951    3.7821 O   0  0  0  0  0  0  0  0  0  0  0  0
    2.3351    1.4967   -1.6333 O   0  0  0  0  0  0  0  0  0  0  0  0
   -1.2295    0.1922    1.1854 O   0  0  0  0  0  0  0  0  0  0  0  0
   -0.7865   -0.4649   -4.8282 O   0  0  0  0  0  0  0  0  0  0  0  0
    0.5287    0.4256   -2.6447 O   0  0  0  0  0  0  0  0  0  0  0  0
   -1.6944   -1.7967    1.3028 H   0  0  0  0  0  0  0  0  0  0  0  0
   -3.5294    0.3639    1.6511 H   0  0  0  0  0  0  0  0  0  0  0  0
   -3.8650   -1.3649    1.5580 H   0  0  0  0  0  0  0  0  0  0  0  0
   -3.5239   -0.6161    3.1100 H   0  0  0  0  0  0  0  0  0  0  0  0
    1.9649   -0.4483   -1.3507 H   0  0  0  0  0  0  0  0  0  0  0  0
    0.2524    1.7560   -0.1963 H   0  0  0  0  0  0  0  0  0  0  0  0
   -0.7109   -2.4401    4.8145 H   0  0  0  0  0  0  0  0  0  0  0  0
   -1.4373   -3.1570    3.4122 H   0  0  0  0  0  0  0  0  0  0  0  0
   -3.1476   -1.0452   -1.2724 H   0  0  0  0  0  0  0  0  0  0  0  0
   -1.8838    0.6652   -1.2611 H   0  0  0  0  0  0  0  0  0  0  0  0
    3.6043    0.1652   -2.5881 H   0  0  0  0  0  0  0  0  0  0  0  0
    4.2094    1.8342   -2.4741 H   0  0  0  0  0  0  0  0  0  0  0  0
    2.9149    1.4229   -3.6215 H   0  0  0  0  0  0  0  0  0  0  0  0
   -0.0282   -1.1934    0.2131 H   0  0  0  0  0  0  0  0  0  0  0  0
    1.7954   -0.2342    1.4249 H   0  0  0  0  0  0  0  0  0  0  0  0
   -0.1610   -1.5390   -2.4156 H   0  0  0  0  0  0  0  0  0  0  0  0
   -2.2092   -1.2761   -3.6032 H   0  0  0  0  0  0  0  0  0  0  0  0
   -2.0811    0.4904   -3.5573 H   0  0  0  0  0  0  0  0  0  0  0  0
   -1.3825   -0.4500   -5.5615 H   0  0  0  0  0  0  0  0  0  0  0  0
    4.0684    1.3164    2.4361 H   0  0  0  0  0  0  0  0  0  0  0  0
    2.7216    1.1704    3.6025 H   0  0  0  0  0  0  0  0  0  0  0  0
    3.3613    2.7717    3.1745 H   0  0  0  0  0  0  0  0  0  0  0  0
  1  7  1  0
  1  9  1  0
  1 19  1  0
  2  8  1  0
  2 18  1  0
  2 21  1  0
  3  9  1  0
  4 11  1  0
  5 14  2  0
  6 18  1  0
  8 10  1  0
  8 16  1  0
  9 17  2  0
 10 11  1  0
 10 19  1  0
 11 12  1  0
 12 13  1  0
 12 21  1  0
 13 20  1  0
 14 15  1  0
 14 16  1  0
  1 22  1  6
  7 23  1  0
  7 24  1  0
  7 25  1  0
  2 26  1  1
  8 27  1  6
  3 28  1  0
  3 29  1  0
  4 30  1  0
 11 31  1  6
  6 32  1  0
  6 33  1  0
  6 34  1  0
 10 35  1  1
 16 36  1  0
 12 37  1  1
 13 38  1  0
 13 39  1  0
 20 40  1  0
 15 41  1  0
 15 42  1  0
 15 43  1  0
M  END
