
     RDKit          3D

 55 58  0  0  0  0  0  0  0  0999 V2000
    4.4471    0.0370    0.3209 C   0  0  0  0  0  0  0  0  0  0  0  0
    0.5519   -2.3349   -1.7087 O   0  0  0  0  0  0  0  0  0  0  0  0
    0.1275    0.0061   -0.7468 N   0  0  0  0  0  0  0  0  0  0  0  0
   -1.7743   -0.6854    0.7139 C   0  0  0  0  0  0  0  0  0  0  0  0
   -2.4103   -1.6729   -0.0269 C   0  0  0  0  0  0  0  0  0  0  0  0
   -4.4903   -1.0765    0.9177 C   0  0  0  0  0  0  0  0  0  0  0  0
   -6.0503    0.0719    1.9960 C   0  0  0  0  0  0  0  0  0  0  0  0
   -4.7819    0.5242    2.4515 O   0  0  0  0  0  0  0  0  0  0  0  0
    6.5630   -2.3420    2.0708 C   0  0  0  0  0  0  0  0  0  0  0  0
    6.0411   -1.1384    1.5350 O   0  0  0  0  0  0  0  0  0  0  0  0
    4.9055   -1.1848    0.8318 C   0  0  0  0  0  0  0  0  0  0  0  0
    4.1771   -2.3490    0.5906 C   0  0  0  0  0  0  0  0  0  0  0  0
    3.0077   -2.2910   -0.1541 C   0  0  0  0  0  0  0  0  0  0  0  0
    2.5655   -1.0784   -0.6547 C   0  0  0  0  0  0  0  0  0  0  0  0
    3.2883    0.0895   -0.4180 C   0  0  0  0  0  0  0  0  0  0  0  0
    1.1024   -0.9881   -1.6343 S   0  0  1  0  0  0  0  0  0  0  0  0
    1.4075   -0.2879   -2.8733 O   0  0  0  0  0  0  0  0  0  0  0  0
   -0.2914   -0.4491    0.5769 C   0  0  0  0  0  0  0  0  0  0  0  0
   -3.7876   -1.8869    0.0603 C   0  0  0  0  0  0  0  0  0  0  0  0
   -5.8153   -1.0827    1.2006 O   0  0  0  0  0  0  0  0  0  0  0  0
   -3.8638   -0.1015    1.6740 C   0  0  0  0  0  0  0  0  0  0  0  0
   -2.5107    0.1168    1.5993 C   0  0  0  0  0  0  0  0  0  0  0  0
   -0.5234    1.1445   -1.3675 C   0  0  2  0  0  0  0  0  0  0  0  0
   -0.5368    2.3693   -0.4445 C   0  0  0  0  0  0  0  0  0  0  0  0
    0.8483    2.8469   -0.1406 C   0  0  0  0  0  0  0  0  0  0  0  0
    1.7237    3.4555   -0.9928 C   0  0  0  0  0  0  0  0  0  0  0  0
    2.9676    3.7732   -0.3821 C   0  0  0  0  0  0  0  0  0  0  0  0
    3.0172    3.4045    0.9279 C   0  0  0  0  0  0  0  0  0  0  0  0
    1.5520    2.6687    1.4192 S   0  0  0  0  0  0  0  0  0  0  0  0
   -1.8621    0.7121   -1.9894 C   0  0  0  0  0  0  0  0  0  0  0  0
   -1.8750   -0.1565   -2.8388 O   0  0  0  0  0  0  0  0  0  0  0  0
   -2.9466    1.4020   -1.6011 N   0  0  0  0  0  0  0  0  0  0  0  0
   -4.1778    1.0018   -2.0251 O   0  0  0  0  0  0  0  0  0  0  0  0
    5.0099    0.9420    0.5103 H   0  0  0  0  0  0  0  0  0  0  0  0
   -1.8299   -2.2830   -0.7053 H   0  0  0  0  0  0  0  0  0  0  0  0
   -6.6780   -0.1878    2.8478 H   0  0  0  0  0  0  0  0  0  0  0  0
   -6.5269    0.8503    1.3897 H   0  0  0  0  0  0  0  0  0  0  0  0
    5.8746   -2.7986    2.7856 H   0  0  0  0  0  0  0  0  0  0  0  0
    6.7951   -3.0658    1.2862 H   0  0  0  0  0  0  0  0  0  0  0  0
    7.4813   -2.0754    2.5871 H   0  0  0  0  0  0  0  0  0  0  0  0
    4.5006   -3.3082    0.9692 H   0  0  0  0  0  0  0  0  0  0  0  0
    2.4536   -3.2021   -0.3321 H   0  0  0  0  0  0  0  0  0  0  0  0
    2.9450    1.0427   -0.7993 H   0  0  0  0  0  0  0  0  0  0  0  0
    0.2554   -1.3618    0.8198 H   0  0  0  0  0  0  0  0  0  0  0  0
    0.0341    0.2814    1.3201 H   0  0  0  0  0  0  0  0  0  0  0  0
   -4.2741   -2.6571   -0.5225 H   0  0  0  0  0  0  0  0  0  0  0  0
   -2.0346    0.8803    2.2027 H   0  0  0  0  0  0  0  0  0  0  0  0
    0.0772    1.4315   -2.2321 H   0  0  0  0  0  0  0  0  0  0  0  0
   -1.0705    3.1705   -0.9602 H   0  0  0  0  0  0  0  0  0  0  0  0
   -1.0889    2.1805    0.4778 H   0  0  0  0  0  0  0  0  0  0  0  0
    1.4856    3.6758   -2.0249 H   0  0  0  0  0  0  0  0  0  0  0  0
    3.7856    4.2585   -0.8948 H   0  0  0  0  0  0  0  0  0  0  0  0
    3.8286    3.5281    1.6280 H   0  0  0  0  0  0  0  0  0  0  0  0
   -2.9663    1.9480   -0.7524 H   0  0  0  0  0  0  0  0  0  0  0  0
   -4.4179    1.6051   -2.7403 H   0  0  0  0  0  0  0  0  0  0  0  0
  9 10  1  0
 10 11  1  0
 12 11  1  0
 12 13  2  0
 11  1  2  0
 13 14  1  0
  1 15  1  0
 14 15  2  0
 14 16  1  0
 18  4  1  0
 18  3  1  0
 22 21  2  0
 22  4  1  0
  8 21  1  0
  8  7  1  0
 21  6  1  0
  4  5  2  0
  2 16  2  0
 31 30  2  0
  7 20  1  0
 16  3  1  1
 16 17  2  0
  6 20  1  0
  6 19  2  0
  5 19  1  0
  3 23  1  0
 30 23  1  0
 30 32  1  0
 33 32  1  0
 23 24  1  0
 24 25  1  0
 29 25  1  0
 29 28  1  0
 25 26  2  0
 28 27  2  0
 26 27  1  0
  1 34  1  0
  5 35  1  0
  7 36  1  0
  7 37  1  0
  9 38  1  0
  9 39  1  0
  9 40  1  0
 12 41  1  0
 13 42  1  0
 15 43  1  0
 18 44  1  0
 18 45  1  0
 19 46  1  0
 22 47  1  0
 23 48  1  6
 24 49  1  0
 24 50  1  0
 26 51  1  0
 27 52  1  0
 28 53  1  0
 32 54  1  0
 33 55  1  0
M  END
