
     RDKit          3D

 44 47  0  0  0  0  0  0  0  0999 V2000
    2.3786   -1.2617    1.6109 O   0  0  0  0  0  0  0  0  0  0  0  0
    2.1691   -0.7785    0.5218 C   0  0  0  0  0  0  0  0  0  0  0  0
    3.0951   -0.1393   -0.2390 N   0  0  0  0  0  0  0  0  0  0  0  0
    4.4335    0.1029    0.0391 C   0  0  0  0  0  0  0  0  0  0  0  0
    5.1604    0.8360   -0.9011 C   0  0  0  0  0  0  0  0  0  0  0  0
    6.4969    1.0921   -0.6673 C   0  0  0  0  0  0  0  0  0  0  0  0
    7.1524    0.6800    0.4136 N   0  0  0  0  0  0  0  0  0  0  0  0
    6.4528   -0.0146    1.3017 C   0  0  0  0  0  0  0  0  0  0  0  0
    5.1090   -0.3330    1.1786 C   0  0  0  0  0  0  0  0  0  0  0  0
    0.7877   -0.8176   -0.1442 C   0  0  1  0  0  0  0  0  0  0  0  0
   -0.0886   -1.6255    0.6842 N   0  0  0  0  0  0  0  0  0  0  0  0
   -1.3767   -2.3961    0.0141 S   0  0  2  0  0  0  0  0  0  0  0  0
   -2.0580   -3.0541    1.1115 O   0  0  0  0  0  0  0  0  0  0  0  0
   -0.8848   -3.1652   -1.1146 O   0  0  0  0  0  0  0  0  0  0  0  0
   -2.4312   -1.1333   -0.6307 C   0  0  0  0  0  0  0  0  0  0  0  0
   -2.7563   -1.0859   -1.9517 C   0  0  0  0  0  0  0  0  0  0  0  0
   -3.5499   -0.0273   -2.4783 C   0  0  0  0  0  0  0  0  0  0  0  0
   -3.9894    0.9973   -1.6983 C   0  0  0  0  0  0  0  0  0  0  0  0
   -3.6583    0.9765   -0.3196 C   0  0  0  0  0  0  0  0  0  0  0  0
   -3.9890    1.8805    0.5926 N   0  0  0  0  0  0  0  0  0  0  0  0
   -3.3751    1.3897    1.9974 S   0  0  0  0  0  0  0  0  0  0  0  0
   -2.6733    0.0138    1.5283 N   0  0  0  0  0  0  0  0  0  0  0  0
   -2.8942   -0.1040    0.2293 C   0  0  0  0  0  0  0  0  0  0  0  0
    0.2654    0.5815   -0.3984 C   0  0  0  0  0  0  0  0  0  0  0  0
   -0.1187    0.9665   -1.6769 C   0  0  0  0  0  0  0  0  0  0  0  0
   -0.6811    2.2176   -1.8939 C   0  0  0  0  0  0  0  0  0  0  0  0
   -0.8531    3.0944   -0.8336 C   0  0  0  0  0  0  0  0  0  0  0  0
   -0.4517    2.7228    0.4442 C   0  0  0  0  0  0  0  0  0  0  0  0
    0.1045    1.4720    0.6608 C   0  0  0  0  0  0  0  0  0  0  0  0
    2.7731    0.2379   -1.1197 H   0  0  0  0  0  0  0  0  0  0  0  0
    4.6901    1.2053   -1.8036 H   0  0  0  0  0  0  0  0  0  0  0  0
    7.0643    1.6614   -1.3950 H   0  0  0  0  0  0  0  0  0  0  0  0
    6.9886   -0.3514    2.1824 H   0  0  0  0  0  0  0  0  0  0  0  0
    4.6275   -0.9026    1.9549 H   0  0  0  0  0  0  0  0  0  0  0  0
    0.9089   -1.3314   -1.1030 H   0  0  0  0  0  0  0  0  0  0  0  0
   -0.3000   -1.2482    1.6029 H   0  0  0  0  0  0  0  0  0  0  0  0
   -2.3976   -1.8482   -2.6300 H   0  0  0  0  0  0  0  0  0  0  0  0
   -3.7843   -0.0420   -3.5334 H   0  0  0  0  0  0  0  0  0  0  0  0
   -4.5707    1.8128   -2.1054 H   0  0  0  0  0  0  0  0  0  0  0  0
    0.0008    0.2800   -2.5067 H   0  0  0  0  0  0  0  0  0  0  0  0
   -0.9929    2.5006   -2.8903 H   0  0  0  0  0  0  0  0  0  0  0  0
   -1.2978    4.0667   -1.0005 H   0  0  0  0  0  0  0  0  0  0  0  0
   -0.5728    3.4080    1.2729 H   0  0  0  0  0  0  0  0  0  0  0  0
    0.4020    1.1903    1.6647 H   0  0  0  0  0  0  0  0  0  0  0  0
  1  2  2  0
  2  3  1  0
  2 10  1  0
  3  4  1  0
  3 30  1  0
  4  5  2  0
  4  9  1  0
  5  6  1  0
  5 31  1  0
  6  7  2  0
  6 32  1  0
  7  8  1  0
  8  9  2  0
  8 33  1  0
  9 34  1  0
 10 11  1  0
 10 24  1  0
 10 35  1  6
 12 11  1  1
 11 36  1  0
 12 13  2  0
 12 14  2  0
 12 15  1  0
 15 16  2  0
 15 23  1  0
 16 17  1  0
 16 37  1  0
 17 18  2  0
 17 38  1  0
 18 19  1  0
 18 39  1  0
 19 20  2  0
 19 23  1  0
 20 21  1  0
 21 22  1  0
 22 23  2  0
 24 25  2  0
 24 29  1  0
 25 26  1  0
 25 40  1  0
 26 27  2  0
 26 41  1  0
 27 28  1  0
 27 42  1  0
 28 29  2  0
 28 43  1  0
 29 44  1  0
M  END
