
     RDKit          3D

 43 46  0  0  0  0  0  0  0  0999 V2000
    3.3081    0.3835    0.7265 C   0  0  0  0  0  0  0  0  0  0  0  0
    3.4607    1.6979    0.3189 C   0  0  0  0  0  0  0  0  0  0  0  0
    2.5645    2.2650   -0.6092 C   0  0  0  0  0  0  0  0  0  0  0  0
    1.5201    1.5301   -1.1409 C   0  0  0  0  0  0  0  0  0  0  0  0
    1.3749    0.2054   -0.7440 C   0  0  0  0  0  0  0  0  0  0  0  0
    2.2542   -0.3667    0.1993 C   0  0  0  0  0  0  0  0  0  0  0  0
    0.7107   -1.8899   -0.4010 C   0  0  0  0  0  0  0  0  0  0  0  0
    1.7989   -1.6946    0.4104 C   0  0  0  0  0  0  0  0  0  0  0  0
    0.0892   -3.2169   -0.4778 C   0  0  0  0  0  0  0  0  0  0  0  0
    1.1414   -3.7258    1.5674 C   0  0  0  0  0  0  0  0  0  0  0  0
    2.3174   -2.8099    1.2467 C   0  0  0  0  0  0  0  0  0  0  0  0
   -0.7882   -3.6146   -1.6269 C   0  0  0  0  0  0  0  0  0  0  0  0
   -1.7817    0.2895   -1.0710 C   0  0  0  0  0  0  0  0  0  0  0  0
   -2.1988    1.5783   -1.3790 C   0  0  0  0  0  0  0  0  0  0  0  0
   -3.1745    2.2174   -0.6254 C   0  0  0  0  0  0  0  0  0  0  0  0
   -3.7342    1.5509    0.4511 C   0  0  0  0  0  0  0  0  0  0  0  0
   -3.3373    0.2629    0.7808 C   0  0  0  0  0  0  0  0  0  0  0  0
   -2.3642   -0.3585    0.0158 C   0  0  0  0  0  0  0  0  0  0  0  0
    4.6960    3.7264    0.4918 C   0  0  0  0  0  0  0  0  0  0  0  0
    0.4544   -0.7403   -1.1256 N   0  0  0  0  0  0  0  0  0  0  0  0
    0.3243   -4.0889    0.4232 N   0  0  0  0  0  0  0  0  0  0  0  0
    4.4968    2.3793    0.8627 O   0  0  0  0  0  0  0  0  0  0  0  0
   -4.9512    2.3355    1.4037 Cl  0  0  0  0  0  0  0  0  0  0  0  0
    3.9932   -0.0477    1.4472 H   0  0  0  0  0  0  0  0  0  0  0  0
    2.6768    3.2923   -0.9271 H   0  0  0  0  0  0  0  0  0  0  0  0
    0.8507    1.9976   -1.8508 H   0  0  0  0  0  0  0  0  0  0  0  0
    1.4909   -4.6440    2.0407 H   0  0  0  0  0  0  0  0  0  0  0  0
    0.4930   -3.2269    2.2994 H   0  0  0  0  0  0  0  0  0  0  0  0
    3.1060   -3.3572    0.7170 H   0  0  0  0  0  0  0  0  0  0  0  0
    2.7605   -2.4471    2.1762 H   0  0  0  0  0  0  0  0  0  0  0  0
   -0.3475   -3.3466   -2.5880 H   0  0  0  0  0  0  0  0  0  0  0  0
   -0.9468   -4.6905   -1.6030 H   0  0  0  0  0  0  0  0  0  0  0  0
   -1.7684   -3.1369   -1.5657 H   0  0  0  0  0  0  0  0  0  0  0  0
   -1.1164   -1.2841   -2.3738 H   0  0  0  0  0  0  0  0  0  0  0  0
   -0.4054    0.2603   -2.7141 H   0  0  0  0  0  0  0  0  0  0  0  0
   -1.7625    2.1022   -2.2209 H   0  0  0  0  0  0  0  0  0  0  0  0
   -3.4867    3.2221   -0.8756 H   0  0  0  0  0  0  0  0  0  0  0  0
   -3.7825   -0.2533    1.6204 H   0  0  0  0  0  0  0  0  0  0  0  0
   -2.0657   -1.3658    0.2801 H   0  0  0  0  0  0  0  0  0  0  0  0
    4.8845    3.8370   -0.5797 H   0  0  0  0  0  0  0  0  0  0  0  0
    3.8480    4.3604    0.7658 H   0  0  0  0  0  0  0  0  0  0  0  0
    5.5733    4.0692    1.0354 H   0  0  0  0  0  0  0  0  0  0  0  0
   -0.7193   -0.3919   -1.8976 C   0  0  0  0  0  0  0  0  0  0  0  0
 23 16  1  0
 16 15  1  0
 16 17  2  0
 15 14  2  0
 17 18  1  0
 14 13  1  0
  3  4  2  0
  3  2  1  0
 22  2  1  0
 22 19  1  0
  4  5  1  0
 18 13  2  0
 13 43  1  0
  2  1  2  0
  5 20  1  0
  5  6  2  0
 43 20  1  0
  1  6  1  0
 20  7  1  0
  6  8  1  0
  7  8  2  0
  7  9  1  0
  8 11  1  0
  9 12  1  0
  9 21  2  0
 11 10  1  0
 21 10  1  0
  1 24  1  0
  3 25  1  0
  4 26  1  0
 10 27  1  0
 10 28  1  0
 11 29  1  0
 11 30  1  0
 12 31  1  0
 12 32  1  0
 12 33  1  0
 43 34  1  0
 43 35  1  0
 14 36  1  0
 15 37  1  0
 17 38  1  0
 18 39  1  0
 19 40  1  0
 19 41  1  0
 19 42  1  0
M  END
