
     RDKit          3D

 26 26  0  0  0  0  0  0  0  0999 V2000
    1.5802   -2.3281   -0.9389 C   0  0  0  0  0  0  0  0  0  0  0  0
    1.4525   -1.4105    0.1622 N   0  0  0  0  0  0  0  0  0  0  0  0
    1.1898   -0.0360   -0.2363 C   0  0  2  0  0  0  0  0  0  0  0  0
    2.5132    0.7144   -0.3261 C   0  0  0  0  0  0  0  0  0  0  0  0
    3.0576    1.1556   -1.3407 O   0  0  0  0  0  0  0  0  0  0  0  0
    0.2320    0.7023    0.7143 C   0  0  0  0  0  0  0  0  0  0  0  0
   -1.1904    0.4585    0.3554 C   0  0  0  0  0  0  0  0  0  0  0  0
   -1.9258   -0.5351    1.0130 C   0  0  0  0  0  0  0  0  0  0  0  0
   -3.2592   -0.7618    0.6751 C   0  0  0  0  0  0  0  0  0  0  0  0
   -3.8688    0.0013   -0.3210 C   0  0  0  0  0  0  0  0  0  0  0  0
   -3.1412    0.9930   -0.9794 C   0  0  0  0  0  0  0  0  0  0  0  0
   -1.8077    1.2215   -0.6433 C   0  0  0  0  0  0  0  0  0  0  0  0
    3.1560    0.9126    0.8559 O   0  0  0  0  0  0  0  0  0  0  0  0
    2.3834   -1.9584   -1.6328 H   0  0  0  0  0  0  0  0  0  0  0  0
    1.8836   -3.3266   -0.5266 H   0  0  0  0  0  0  0  0  0  0  0  0
    0.6329   -2.4570   -1.5318 H   0  0  0  0  0  0  0  0  0  0  0  0
    0.7585   -1.7149    0.8207 H   0  0  0  0  0  0  0  0  0  0  0  0
    0.7517    0.0174   -1.2841 H   0  0  0  0  0  0  0  0  0  0  0  0
    0.4341    0.3837    1.7720 H   0  0  0  0  0  0  0  0  0  0  0  0
    0.4641    1.7991    0.6496 H   0  0  0  0  0  0  0  0  0  0  0  0
   -1.4477   -1.1392    1.7995 H   0  0  0  0  0  0  0  0  0  0  0  0
   -3.8304   -1.5444    1.1960 H   0  0  0  0  0  0  0  0  0  0  0  0
   -4.9210   -0.1783   -0.5868 H   0  0  0  0  0  0  0  0  0  0  0  0
   -3.6194    1.5961   -1.7652 H   0  0  0  0  0  0  0  0  0  0  0  0
   -1.2356    2.0038   -1.1636 H   0  0  0  0  0  0  0  0  0  0  0  0
    3.9843    1.3960    0.6979 H   0  0  0  0  0  0  0  0  0  0  0  0
  1  2  1  0
  1 14  1  0
  1 15  1  0
  1 16  1  0
  2  3  1  0
  2 17  1  0
  3  4  1  0
  3  6  1  0
  3 18  1  6
  4  5  2  0
  4 13  1  0
  6  7  1  0
  6 19  1  0
  6 20  1  0
  7  8  2  0
  7 12  1  0
  8  9  1  0
  8 21  1  0
  9 10  2  0
  9 22  1  0
 10 11  1  0
 10 23  1  0
 11 12  2  0
 11 24  1  0
 12 25  1  0
 13 26  1  0
M  END
