
     RDKit          3D

 61 64  0  0  0  0  0  0  0  0999 V2000
    2.8115    0.5341   -0.2171 C   0  0  0  0  0  0  0  0  0  0  0  0
    3.1989   -1.6394   -0.3136 C   0  0  0  0  0  0  0  0  0  0  0  0
    2.0977   -1.8706   -1.1250 C   0  0  0  0  0  0  0  0  0  0  0  0
    1.3401   -0.7335   -1.4656 C   0  0  0  0  0  0  0  0  0  0  0  0
    2.9901   -3.7569   -0.8154 C   0  0  0  0  0  0  0  0  0  0  0  0
    5.9968   -3.8861   -0.1688 C   0  0  0  0  0  0  0  0  0  0  0  0
    2.3709    2.9664    0.0545 C   0  0  1  0  0  0  0  0  0  0  0  0
    1.2800    3.0716    1.1125 C   0  0  0  0  0  0  0  0  0  0  0  0
    3.2902    4.1873    0.0386 C   0  0  0  0  0  0  0  0  0  0  0  0
    3.1649    1.7672    0.2113 N   0  0  0  0  0  0  0  0  0  0  0  0
    1.7195    0.4489   -0.9929 N   0  0  0  0  0  0  0  0  0  0  0  0
    3.7675   -2.8633   -0.1265 N   0  0  0  0  0  0  0  0  0  0  0  0
    1.9837   -3.2053   -1.4269 N   0  0  0  0  0  0  0  0  0  0  0  0
    3.6025   -0.4705    0.1705 N   0  0  0  0  0  0  0  0  0  0  0  0
    0.2597   -0.8243   -2.2557 N   0  0  0  0  0  0  0  0  0  0  0  0
   -0.6037    0.2772   -2.6092 C   0  0  0  0  0  0  0  0  0  0  0  0
   -1.8702    0.3192   -1.7911 C   0  0  0  0  0  0  0  0  0  0  0  0
   -3.1155    0.2114   -2.3987 C   0  0  0  0  0  0  0  0  0  0  0  0
   -4.2823    0.2400   -1.6494 C   0  0  0  0  0  0  0  0  0  0  0  0
   -4.2359    0.3674   -0.2622 C   0  0  0  0  0  0  0  0  0  0  0  0
   -2.9835    0.4839    0.3460 C   0  0  0  0  0  0  0  0  0  0  0  0
   -1.8220    0.4604   -0.4058 C   0  0  0  0  0  0  0  0  0  0  0  0
   -5.4864    0.3793    0.5279 C   0  0  0  0  0  0  0  0  0  0  0  0
   -6.6046    0.6980   -0.1243 N   0  0  0  0  0  0  0  0  0  0  0  0
   -7.7523    0.7154    0.5374 C   0  0  0  0  0  0  0  0  0  0  0  0
   -7.8620    0.4200    1.8880 C   0  0  0  0  0  0  0  0  0  0  0  0
   -6.7044    0.0803    2.5709 C   0  0  0  0  0  0  0  0  0  0  0  0
   -5.5017    0.0546    1.8855 C   0  0  0  0  0  0  0  0  0  0  0  0
    3.2207   -4.8120   -0.8311 H   0  0  0  0  0  0  0  0  0  0  0  0
    5.3559   -2.1796    0.9504 H   0  0  0  0  0  0  0  0  0  0  0  0
    6.2432   -3.3283   -1.0721 H   0  0  0  0  0  0  0  0  0  0  0  0
    6.9110   -4.0136    0.4102 H   0  0  0  0  0  0  0  0  0  0  0  0
    5.6517   -4.8791   -0.4612 H   0  0  0  0  0  0  0  0  0  0  0  0
    1.8621    2.9056   -0.9102 H   0  0  0  0  0  0  0  0  0  0  0  0
    3.7388    4.1527   -2.0837 H   0  0  0  0  0  0  0  0  0  0  0  0
    4.8817    5.0867   -1.1230 H   0  0  0  0  0  0  0  0  0  0  0  0
    4.9362    3.3271   -1.0905 H   0  0  0  0  0  0  0  0  0  0  0  0
    1.1737    3.1524    3.0462 H   0  0  0  0  0  0  0  0  0  0  0  0
    0.6676    3.9581    0.8978 H   0  0  0  0  0  0  0  0  0  0  0  0
    0.6202    2.1996    1.0248 H   0  0  0  0  0  0  0  0  0  0  0  0
    2.6624    5.0808   -0.0092 H   0  0  0  0  0  0  0  0  0  0  0  0
    3.8385    4.2514    0.9826 H   0  0  0  0  0  0  0  0  0  0  0  0
    3.9041    1.7878    0.8955 H   0  0  0  0  0  0  0  0  0  0  0  0
    4.1811   -4.9050    1.6943 H   0  0  0  0  0  0  0  0  0  0  0  0
    5.4750   -4.0669    2.5474 H   0  0  0  0  0  0  0  0  0  0  0  0
    3.8513   -3.3764    2.5212 H   0  0  0  0  0  0  0  0  0  0  0  0
   -0.0280   -1.7484   -2.5346 H   0  0  0  0  0  0  0  0  0  0  0  0
   -0.0402    1.2009   -2.4842 H   0  0  0  0  0  0  0  0  0  0  0  0
   -0.8552    0.1936   -3.6678 H   0  0  0  0  0  0  0  0  0  0  0  0
   -3.1792    0.0997   -3.4749 H   0  0  0  0  0  0  0  0  0  0  0  0
   -5.2389    0.1490   -2.1460 H   0  0  0  0  0  0  0  0  0  0  0  0
   -2.9018    0.6155    1.4173 H   0  0  0  0  0  0  0  0  0  0  0  0
   -0.8662    0.5653    0.0929 H   0  0  0  0  0  0  0  0  0  0  0  0
   -8.6337    0.9806   -0.0362 H   0  0  0  0  0  0  0  0  0  0  0  0
   -8.8237    0.4504    2.3810 H   0  0  0  0  0  0  0  0  0  0  0  0
   -6.7362   -0.1687    3.6235 H   0  0  0  0  0  0  0  0  0  0  0  0
   -4.5946   -0.2299    2.4003 H   0  0  0  0  0  0  0  0  0  0  0  0
    4.9568   -3.1546    0.6673 C   0  0  1  0  0  0  0  0  0  0  0  0
    4.2669    4.1864   -1.1289 C   0  0  0  0  0  0  0  0  0  0  0  0
    1.8740    3.1417    2.3884 O   0  0  0  0  0  0  0  0  0  0  0  0
    4.5884   -3.9204    1.9306 C   0  0  0  0  0  0  0  0  0  0  0  0
 10  1  1  0
 14  1  2  0
  1 11  1  0
 14  2  1  0
 12  2  1  0
  2  3  2  0
  3  4  1  0
  3 13  1  0
 11  4  2  0
  4 15  1  0
 12  5  1  0
  5 13  2  0
  5 29  1  0
  6 58  1  0
 58 12  1  0
 58 61  1  0
 58 30  1  1
  6 31  1  0
  6 32  1  0
  6 33  1  0
  9  7  1  0
  7  8  1  0
  7 10  1  0
  7 34  1  6
 59  9  1  0
 59 35  1  0
 59 36  1  0
 59 37  1  0
  8 60  1  0
 60 38  1  0
  8 39  1  0
  8 40  1  0
  9 41  1  0
  9 42  1  0
 10 43  1  0
 61 44  1  0
 61 45  1  0
 61 46  1  0
 16 15  1  0
 15 47  1  0
 16 17  1  0
 16 48  1  0
 16 49  1  0
 18 17  2  0
 17 22  1  0
 18 19  1  0
 18 50  1  0
 19 20  2  0
 19 51  1  0
 20 21  1  0
 20 23  1  0
 22 21  2  0
 21 52  1  0
 22 53  1  0
 28 23  1  0
 23 24  2  0
 24 25  1  0
 26 25  2  0
 25 54  1  0
 27 26  1  0
 26 55  1  0
 28 27  2  0
 27 56  1  0
 28 57  1  0
M  END
