
     RDKit          3D

 37 37  0  0  0  0  0  0  0  0999 V2000
    0.7430    0.1960    0.2274 C   0  0  0  0  0  0  0  0  0  0  0  0
   -0.6632    0.6145    0.5835 C   0  0  1  0  0  0  0  0  0  0  0  0
   -2.9355   -0.1480    0.2960 C   0  0  0  0  0  0  0  0  0  0  0  0
   -0.9211    1.9952   -0.0359 C   0  0  0  0  0  0  0  0  0  0  0  0
   -5.0868   -1.2601    0.0017 C   0  0  1  0  0  0  0  0  0  0  0  0
   -5.5128   -1.1632    1.4623 C   0  0  0  0  0  0  0  0  0  0  0  0
   -5.4172   -2.6451   -0.5390 C   0  0  0  0  0  0  0  0  0  0  0  0
   -5.7551   -0.1960   -0.8597 C   0  0  0  0  0  0  0  0  0  0  0  0
    1.0982   -0.0785   -1.0909 C   0  0  0  0  0  0  0  0  0  0  0  0
    2.3952   -0.4460   -1.4128 C   0  0  0  0  0  0  0  0  0  0  0  0
   -1.6142   -0.3397    0.0821 N   0  0  0  0  0  0  0  0  0  0  0  0
   -0.7324    2.9934    0.8364 N   0  0  0  0  0  0  0  0  0  0  0  0
    1.7098    0.0987    1.2199 C   0  0  0  0  0  0  0  0  0  0  0  0
    5.1127   -1.0335   -0.8357 Br  0  0  0  0  0  0  0  0  0  0  0  0
    3.3444   -0.5345   -0.4040 C   0  0  0  0  0  0  0  0  0  0  0  0
    3.0141   -0.2644    0.9145 C   0  0  0  0  0  0  0  0  0  0  0  0
   -3.6389   -1.1902   -0.1292 O   0  0  0  0  0  0  0  0  0  0  0  0
   -3.3777    0.8616    0.8061 O   0  0  0  0  0  0  0  0  0  0  0  0
   -1.2071    2.1462   -1.2061 O   0  0  0  0  0  0  0  0  0  0  0  0
   -0.7170    4.2853    0.4142 O   0  0  0  0  0  0  0  0  0  0  0  0
   -0.7329    0.6858    1.6752 H   0  0  0  0  0  0  0  0  0  0  0  0
   -6.5723   -1.4096    1.5399 H   0  0  0  0  0  0  0  0  0  0  0  0
   -4.9639   -1.8778    2.0778 H   0  0  0  0  0  0  0  0  0  0  0  0
   -5.3719   -0.1671    1.8748 H   0  0  0  0  0  0  0  0  0  0  0  0
   -5.1022   -2.7535   -1.5778 H   0  0  0  0  0  0  0  0  0  0  0  0
   -4.9393   -3.4289    0.0504 H   0  0  0  0  0  0  0  0  0  0  0  0
   -6.4944   -2.8054   -0.4994 H   0  0  0  0  0  0  0  0  0  0  0  0
   -5.4515   -0.2906   -1.9036 H   0  0  0  0  0  0  0  0  0  0  0  0
   -6.8369   -0.3294   -0.8180 H   0  0  0  0  0  0  0  0  0  0  0  0
   -5.5313    0.8134   -0.5219 H   0  0  0  0  0  0  0  0  0  0  0  0
    0.3656   -0.0028   -1.8835 H   0  0  0  0  0  0  0  0  0  0  0  0
    2.6535   -0.6542   -2.4421 H   0  0  0  0  0  0  0  0  0  0  0  0
   -1.2832   -1.2390   -0.2293 H   0  0  0  0  0  0  0  0  0  0  0  0
   -0.4912    2.8503    1.8062 H   0  0  0  0  0  0  0  0  0  0  0  0
    1.4497    0.3015    2.2514 H   0  0  0  0  0  0  0  0  0  0  0  0
    3.7503   -0.3366    1.7033 H   0  0  0  0  0  0  0  0  0  0  0  0
   -1.6188    4.6180    0.5177 H   0  0  0  0  0  0  0  0  0  0  0  0
  7  5  1  0
  6  5  1  0
  5  8  1  0
  5 17  1  1
 20 12  1  0
 17  3  1  0
 12  4  1  0
 19  4  2  0
 18  3  2  0
  4  2  1  0
  3 11  1  0
 11  2  1  0
  2  1  1  0
  1 13  2  0
  1  9  1  0
 13 16  1  0
  9 10  2  0
 16 15  2  0
 10 15  1  0
 15 14  1  0
  2 21  1  1
  6 22  1  0
  6 23  1  0
  6 24  1  0
  7 25  1  0
  7 26  1  0
  7 27  1  0
  8 28  1  0
  8 29  1  0
  8 30  1  0
  9 31  1  0
 10 32  1  0
 11 33  1  0
 12 34  1  0
 13 35  1  0
 16 36  1  0
 20 37  1  0
M  END
