
     RDKit          3D

 54 57  0  0  0  0  0  0  0  0999 V2000
    4.2091   -0.6754    0.4190 N   0  0  0  0  0  0  0  0  0  0  0  0
   -1.2286   -1.3240   -2.1977 N   0  0  0  0  0  0  0  0  0  0  0  0
    3.4803   -1.1067   -0.6279 C   0  0  0  0  0  0  0  0  0  0  0  0
    2.0146   -1.2645   -0.3919 C   0  0  0  0  0  0  0  0  0  0  0  0
    1.4927   -1.5201    0.8900 C   0  0  0  0  0  0  0  0  0  0  0  0
    0.1388   -1.6968    1.1048 C   0  0  0  0  0  0  0  0  0  0  0  0
   -0.6884   -1.6076   -0.0065 C   0  0  0  0  0  0  0  0  0  0  0  0
    6.0340    0.7350   -0.4493 C   0  0  0  0  0  0  0  0  0  0  0  0
    7.1421    0.6927   -1.2888 C   0  0  0  0  0  0  0  0  0  0  0  0
    7.5529    1.8242   -1.9813 C   0  0  0  0  0  0  0  0  0  0  0  0
    5.7468    3.0674   -1.0052 C   0  0  0  0  0  0  0  0  0  0  0  0
    3.9848   -1.3628   -1.7125 O   0  0  0  0  0  0  0  0  0  0  0  0
    6.2210   -0.4341    1.7599 C   0  0  0  0  0  0  0  0  0  0  0  0
   -2.0426   -1.7340   -0.1669 N   0  0  0  0  0  0  0  0  0  0  0  0
    5.6435   -0.4933    0.3437 C   0  0  1  0  0  0  0  0  0  0  0  0
   -3.0133   -1.9717    0.8720 C   0  0  0  0  0  0  0  0  0  0  0  0
   -2.3056   -1.5487   -1.4987 C   0  0  0  0  0  0  0  0  0  0  0  0
   -0.1922   -1.3553   -1.2950 C   0  0  0  0  0  0  0  0  0  0  0  0
    1.1724   -1.1932   -1.4945 C   0  0  0  0  0  0  0  0  0  0  0  0
    6.8542    3.0162   -1.8426 C   0  0  0  0  0  0  0  0  0  0  0  0
    5.3413    1.9343   -0.3130 C   0  0  0  0  0  0  0  0  0  0  0  0
   -3.7793   -0.7347    1.2713 C   0  0  0  0  0  0  0  0  0  0  0  0
   -5.2351    1.5006    2.0837 C   0  0  0  0  0  0  0  0  0  0  0  0
   -5.0617   -0.8793    1.7832 C   0  0  0  0  0  0  0  0  0  0  0  0
   -6.1247    2.8910    2.5721 Cl  0  0  0  0  0  0  0  0  0  0  0  0
   -3.2318    0.5386    1.1700 C   0  0  0  0  0  0  0  0  0  0  0  0
   -3.9558    1.6492    1.5714 C   0  0  0  0  0  0  0  0  0  0  0  0
   -5.7871    0.2291    2.1911 C   0  0  0  0  0  0  0  0  0  0  0  0
    3.7344   -0.3209    1.2337 H   0  0  0  0  0  0  0  0  0  0  0  0
    2.1565   -1.6187    1.7389 H   0  0  0  0  0  0  0  0  0  0  0  0
   -0.2409   -1.9073    2.0958 H   0  0  0  0  0  0  0  0  0  0  0  0
   -4.1633   -2.5628   -1.7986 H   0  0  0  0  0  0  0  0  0  0  0  0
   -4.3114   -0.8188   -1.6223 H   0  0  0  0  0  0  0  0  0  0  0  0
   -3.6623   -1.4989   -3.1174 H   0  0  0  0  0  0  0  0  0  0  0  0
    7.6877   -0.2371   -1.4049 H   0  0  0  0  0  0  0  0  0  0  0  0
    8.4142    1.7727   -2.6350 H   0  0  0  0  0  0  0  0  0  0  0  0
    5.1964    3.9926   -0.8903 H   0  0  0  0  0  0  0  0  0  0  0  0
    4.9523   -1.9302    2.7153 H   0  0  0  0  0  0  0  0  0  0  0  0
    6.4483   -2.5710    2.0421 H   0  0  0  0  0  0  0  0  0  0  0  0
    6.4787   -1.6382    3.5360 H   0  0  0  0  0  0  0  0  0  0  0  0
    5.7874    0.4211    2.2887 H   0  0  0  0  0  0  0  0  0  0  0  0
    7.2891   -0.2256    1.6749 H   0  0  0  0  0  0  0  0  0  0  0  0
    6.0650   -1.3685   -0.1589 H   0  0  0  0  0  0  0  0  0  0  0  0
   -3.7031   -2.7530    0.5505 H   0  0  0  0  0  0  0  0  0  0  0  0
   -2.4854   -2.3756    1.7372 H   0  0  0  0  0  0  0  0  0  0  0  0
    1.5668   -1.0077   -2.4850 H   0  0  0  0  0  0  0  0  0  0  0  0
    7.1676    3.8981   -2.3864 H   0  0  0  0  0  0  0  0  0  0  0  0
    4.4739    1.9889    0.3341 H   0  0  0  0  0  0  0  0  0  0  0  0
   -5.5072   -1.8628    1.8658 H   0  0  0  0  0  0  0  0  0  0  0  0
   -2.2350    0.6876    0.7752 H   0  0  0  0  0  0  0  0  0  0  0  0
   -3.5249    2.6371    1.4843 H   0  0  0  0  0  0  0  0  0  0  0  0
   -3.6859   -1.6112   -2.0368 C   0  0  0  0  0  0  0  0  0  0  0  0
    6.0091   -1.7142    2.5553 C   0  0  0  0  0  0  0  0  0  0  0  0
   -7.3754    0.0128    2.8193 Cl  0  0  0  0  0  0  0  0  0  0  0  0
  1  3  1  0
  1 15  1  0
  2 17  2  0
  2 18  1  0
  3  4  1  0
  3 12  2  0
  4  5  1  0
  4 19  2  0
  5  6  2  0
  6  7  1  0
  7 14  1  0
  7 18  2  0
 52 17  1  0
  8  9  2  0
  8 15  1  0
  8 21  1  0
  9 10  1  0
 10 20  2  0
 11 20  1  0
 11 21  2  0
 53 13  1  0
 13 15  1  0
 14 16  1  0
 14 17  1  0
 16 22  1  0
 18 19  1  0
 22 24  1  0
 22 26  2  0
 23 25  1  0
 23 27  2  0
 23 28  1  0
 24 28  2  0
 54 28  1  0
 26 27  1  0
  1 29  1  0
  5 30  1  0
  6 31  1  0
 52 32  1  0
 52 33  1  0
 52 34  1  0
  9 35  1  0
 10 36  1  0
 11 37  1  0
 53 38  1  0
 53 39  1  0
 53 40  1  0
 13 41  1  0
 13 42  1  0
 15 43  1  6
 16 44  1  0
 16 45  1  0
 19 46  1  0
 20 47  1  0
 21 48  1  0
 24 49  1  0
 26 50  1  0
 27 51  1  0
M  END
