
     RDKit          3D

 25 26  0  0  0  0  0  0  0  0999 V2000
   -3.2078   -1.3468    1.8479 C   0  0  0  0  0  0  0  0  0  0  0  0
   -2.5788   -0.7347    0.7510 O   0  0  0  0  0  0  0  0  0  0  0  0
   -2.0732   -1.6628   -0.1665 C   0  0  0  0  0  0  0  0  0  0  0  0
   -1.3341   -0.9269   -1.2661 C   0  0  0  0  0  0  0  0  0  0  0  0
   -0.2697   -0.0786   -0.7381 N   0  0  0  0  0  0  0  0  0  0  0  0
    0.8886   -0.6758   -0.3064 C   0  0  0  0  0  0  0  0  0  0  0  0
    1.9172    0.0281    0.2668 C   0  0  0  0  0  0  0  0  0  0  0  0
    1.8601    1.4372    0.4547 C   0  0  0  0  0  0  0  0  0  0  0  0
    2.6965    2.1682    0.9459 O   0  0  0  0  0  0  0  0  0  0  0  0
    0.6470    1.9255   -0.0274 N   0  0  0  0  0  0  0  0  0  0  0  0
   -0.4019    1.2641   -0.6055 C   0  0  0  0  0  0  0  0  0  0  0  0
   -1.7225    2.1446   -1.1192 S   0  0  0  0  0  0  0  0  0  0  0  0
    2.8708   -0.9102    0.5437 N   0  0  0  0  0  0  0  0  0  0  0  0
    2.3834   -2.0875    0.1377 C   0  0  0  0  0  0  0  0  0  0  0  0
    1.1767   -1.9871   -0.3876 N   0  0  0  0  0  0  0  0  0  0  0  0
   -3.5690   -0.5598    2.5088 H   0  0  0  0  0  0  0  0  0  0  0  0
   -4.0631   -1.9622    1.5441 H   0  0  0  0  0  0  0  0  0  0  0  0
   -2.5190   -1.9850    2.4143 H   0  0  0  0  0  0  0  0  0  0  0  0
   -1.4033   -2.3802    0.3258 H   0  0  0  0  0  0  0  0  0  0  0  0
   -2.8745   -2.2494   -0.6383 H   0  0  0  0  0  0  0  0  0  0  0  0
   -0.8889   -1.6503   -1.9474 H   0  0  0  0  0  0  0  0  0  0  0  0
   -2.0090   -0.2929   -1.8339 H   0  0  0  0  0  0  0  0  0  0  0  0
    3.7681   -0.7533    0.9779 H   0  0  0  0  0  0  0  0  0  0  0  0
    0.5140    2.9261    0.0515 H   0  0  0  0  0  0  0  0  0  0  0  0
    2.9386   -3.0061    0.2414 H   0  0  0  0  0  0  0  0  0  0  0  0
  1  2  1  0
  2  3  1  0
  3  4  1  0
  4  5  1  0
  5  6  1  0
  5 11  1  0
  6  7  2  0
  6 15  1  0
  7  8  1  0
  7 13  1  0
  8  9  2  0
  8 10  1  0
 10 11  1  0
 11 12  2  0
 13 14  1  0
 14 15  2  0
  1 16  1  0
  1 17  1  0
  1 18  1  0
  3 19  1  0
  3 20  1  0
  4 21  1  0
  4 22  1  0
 13 23  1  0
 10 24  1  0
 14 25  1  0
M  END
