
     RDKit          3D

 25 26  0  0  0  0  0  0  0  0999 V2000
   -3.2094   -0.3941    0.0485 N   0  0  0  0  0  0  0  0  0  0  0  0
   -2.3446   -1.4084    0.0647 C   0  0  0  0  0  0  0  0  0  0  0  0
   -2.8413   -2.6442    0.0760 N   0  0  0  0  0  0  0  0  0  0  0  0
   -1.0079   -1.2858    0.0736 N   0  0  0  0  0  0  0  0  0  0  0  0
   -0.5583   -0.0448    0.0641 C   0  0  0  0  0  0  0  0  0  0  0  0
    0.8970    0.1727    0.0717 C   0  0  0  0  0  0  0  0  0  0  0  0
    1.4520    1.4651    0.0615 C   0  0  0  0  0  0  0  0  0  0  0  0
    0.7228    2.5865    0.0440 O   0  0  0  0  0  0  0  0  0  0  0  0
    2.8444    1.5955    0.0691 C   0  0  0  0  0  0  0  0  0  0  0  0
    3.6668    0.4895    0.0856 C   0  0  0  0  0  0  0  0  0  0  0  0
    3.1209   -0.7964    0.0957 C   0  0  0  0  0  0  0  0  0  0  0  0
    3.9793   -1.8440    0.1114 O   0  0  0  0  0  0  0  0  0  0  0  0
    1.7489   -0.9405    0.0891 C   0  0  0  0  0  0  0  0  0  0  0  0
   -1.3323    1.0399    0.0479 N   0  0  0  0  0  0  0  0  0  0  0  0
   -2.6575    0.8133    0.0407 C   0  0  0  0  0  0  0  0  0  0  0  0
   -3.4603    1.8755    0.0196 N   0  0  0  0  0  0  0  0  0  0  0  0
   -3.8344   -2.7949    0.0497 H   0  0  0  0  0  0  0  0  0  0  0  0
   -2.2288   -3.4405    0.0643 H   0  0  0  0  0  0  0  0  0  0  0  0
   -0.2305    2.3118    0.0409 H   0  0  0  0  0  0  0  0  0  0  0  0
    3.2766    2.5884    0.0604 H   0  0  0  0  0  0  0  0  0  0  0  0
    4.7423    0.6176    0.0902 H   0  0  0  0  0  0  0  0  0  0  0  0
    3.4906   -2.6740    0.1032 H   0  0  0  0  0  0  0  0  0  0  0  0
    1.3012   -1.9273    0.0975 H   0  0  0  0  0  0  0  0  0  0  0  0
   -3.0844    2.8071    0.0395 H   0  0  0  0  0  0  0  0  0  0  0  0
   -4.4577    1.7564    0.0414 H   0  0  0  0  0  0  0  0  0  0  0  0
  9 10  1  0
  9  7  2  0
 10 11  2  0
  8  7  1  0
  7  6  1  0
 11 12  1  0
 11 13  1  0
  6 13  2  0
  6  5  1  0
 14  5  2  0
 14 15  1  0
  5  4  1  0
 16 15  1  0
 15  1  2  0
  4  2  2  0
  1  2  1  0
  2  3  1  0
  3 17  1  0
  3 18  1  0
  8 19  1  0
  9 20  1  0
 10 21  1  0
 12 22  1  0
 13 23  1  0
 16 24  1  0
 16 25  1  0
M  END
