
     RDKit          3D

 27 28  0  0  0  0  0  0  0  0999 V2000
    1.8616   -0.4959   -0.1491 N   0  0  0  0  0  0  0  0  0  0  0  0
    1.0876   -0.2746   -1.3173 C   0  0  0  0  0  0  0  0  0  0  0  0
    0.5217    0.9738   -1.5514 C   0  0  0  0  0  0  0  0  0  0  0  0
    0.9160   -1.2972   -2.2428 C   0  0  0  0  0  0  0  0  0  0  0  0
   -0.2062    1.2084   -2.7067 C   0  0  0  0  0  0  0  0  0  0  0  0
    0.1711   -1.0762   -3.3900 C   0  0  0  0  0  0  0  0  0  0  0  0
   -0.3820    0.1755   -3.6137 C   0  0  0  0  0  0  0  0  0  0  0  0
   -1.3006    0.4548   -5.0549 Cl  0  0  0  0  0  0  0  0  0  0  0  0
    1.2020   -1.3934    1.0784 S   0  0  2  0  0  0  0  0  0  0  0  0
   -0.2929   -0.5714    1.5683 C   0  0  0  0  0  0  0  0  0  0  0  0
    2.1508   -1.3644    2.1706 O   0  0  0  0  0  0  0  0  0  0  0  0
    0.7854   -2.6624    0.5146 O   0  0  0  0  0  0  0  0  0  0  0  0
   -0.3855    0.6628    2.1696 C   0  0  0  0  0  0  0  0  0  0  0  0
   -1.5446   -1.2053    1.4063 C   0  0  0  0  0  0  0  0  0  0  0  0
   -2.0155    1.0300    2.5411 S   0  0  0  0  0  0  0  0  0  0  0  0
    0.6727    1.6400    2.4564 C   0  0  0  0  0  0  0  0  0  0  0  0
   -2.5645   -0.4392    1.8908 C   0  0  0  0  0  0  0  0  0  0  0  0
    0.2434    2.5869    3.2689 O   0  0  0  0  0  0  0  0  0  0  0  0
    1.7845    1.5888    1.9895 O   0  0  0  0  0  0  0  0  0  0  0  0
    2.2991    0.3414    0.2267 H   0  0  0  0  0  0  0  0  0  0  0  0
    0.6520    1.7741   -0.8335 H   0  0  0  0  0  0  0  0  0  0  0  0
    1.3738   -2.2629   -2.0822 H   0  0  0  0  0  0  0  0  0  0  0  0
   -0.6369    2.1835   -2.8878 H   0  0  0  0  0  0  0  0  0  0  0  0
    0.0366   -1.8723   -4.1092 H   0  0  0  0  0  0  0  0  0  0  0  0
   -1.6881   -2.1771    0.9608 H   0  0  0  0  0  0  0  0  0  0  0  0
   -3.6169   -0.6780    1.8938 H   0  0  0  0  0  0  0  0  0  0  0  0
    0.9324    3.2529    3.4189 H   0  0  0  0  0  0  0  0  0  0  0  0
  1  2  1  0
  9  1  1  6
  1 20  1  0
  2  3  2  0
  2  4  1  0
  3  5  1  0
  3 21  1  0
  4  6  2  0
  4 22  1  0
  5  7  2  0
  5 23  1  0
  6  7  1  0
  6 24  1  0
  7  8  1  0
  9 10  1  0
  9 11  2  0
  9 12  2  0
 10 13  2  0
 10 14  1  0
 13 15  1  0
 13 16  1  0
 14 17  2  0
 14 25  1  0
 15 17  1  0
 16 18  1  0
 16 19  2  0
 17 26  1  0
 18 27  1  0
M  END
