
     RDKit          3D

 46 48  0  0  0  0  0  0  0  0999 V2000
   -3.1766   -0.6699    0.2214 C   0  0  0  0  0  0  0  0  0  0  0  0
   -5.3205   -0.7093    0.5940 N   0  0  0  0  0  0  0  0  0  0  0  0
   -4.2702   -1.5019    0.3937 C   0  0  0  0  0  0  0  0  0  0  0  0
   -5.0129    0.5854    0.5644 N   0  0  0  0  0  0  0  0  0  0  0  0
   -3.7138    0.6430    0.3436 C   0  0  0  0  0  0  0  0  0  0  0  0
    0.7640   -1.9013   -0.5391 N   0  0  0  0  0  0  0  0  0  0  0  0
    0.4177   -0.6619   -0.1804 C   0  0  0  0  0  0  0  0  0  0  0  0
   -0.8282   -0.2444    0.0810 N   0  0  0  0  0  0  0  0  0  0  0  0
   -1.8168   -1.1171   -0.0524 C   0  0  0  0  0  0  0  0  0  0  0  0
    1.3859    0.2684   -0.0786 N   0  0  0  0  0  0  0  0  0  0  0  0
   -1.5586   -2.4357   -0.4517 C   0  0  0  0  0  0  0  0  0  0  0  0
    5.5862    0.5142    0.4084 N   0  0  0  0  0  0  0  0  0  0  0  0
   -0.2373   -2.7613   -0.6701 C   0  0  0  0  0  0  0  0  0  0  0  0
   -3.0320    1.9720    0.1877 C   0  0  1  0  0  0  0  0  0  0  0  0
   -3.1131    2.4212   -1.2736 C   0  0  0  0  0  0  0  0  0  0  0  0
   -3.6217    3.0258    1.1206 C   0  0  0  0  0  0  0  0  0  0  0  0
    2.7992    0.0130   -0.2326 C   0  0  1  0  0  0  0  0  0  0  0  0
    3.5161    1.2822   -0.6754 C   0  0  0  0  0  0  0  0  0  0  0  0
    5.0070    1.0203   -0.8217 C   0  0  0  0  0  0  0  0  0  0  0  0
    4.9441   -0.7175    0.8299 C   0  0  0  0  0  0  0  0  0  0  0  0
    3.4512   -0.5208    1.0406 C   0  0  0  0  0  0  0  0  0  0  0  0
   -4.3634   -2.5757    0.3894 H   0  0  0  0  0  0  0  0  0  0  0  0
    1.0978    1.1702    0.2668 H   0  0  0  0  0  0  0  0  0  0  0  0
   -2.3400   -3.1694   -0.5814 H   0  0  0  0  0  0  0  0  0  0  0  0
    0.0331   -3.7683   -0.9704 H   0  0  0  0  0  0  0  0  0  0  0  0
   -1.9807    1.8264    0.4311 H   0  0  0  0  0  0  0  0  0  0  0  0
   -2.6372    3.3940   -1.4086 H   0  0  0  0  0  0  0  0  0  0  0  0
   -2.6114    1.7125   -1.9342 H   0  0  0  0  0  0  0  0  0  0  0  0
   -4.1516    2.5060   -1.5997 H   0  0  0  0  0  0  0  0  0  0  0  0
   -3.5299    2.7302    2.1665 H   0  0  0  0  0  0  0  0  0  0  0  0
   -3.0963    3.9740    0.9967 H   0  0  0  0  0  0  0  0  0  0  0  0
   -4.6781    3.1983    0.9122 H   0  0  0  0  0  0  0  0  0  0  0  0
    2.9212   -0.7355   -1.0203 H   0  0  0  0  0  0  0  0  0  0  0  0
    3.1150    1.6267   -1.6311 H   0  0  0  0  0  0  0  0  0  0  0  0
    3.3531    2.0788    0.0582 H   0  0  0  0  0  0  0  0  0  0  0  0
    5.5158    1.9491   -1.0902 H   0  0  0  0  0  0  0  0  0  0  0  0
    5.1661    0.3175   -1.6602 H   0  0  0  0  0  0  0  0  0  0  0  0
    5.1043   -1.5277    0.0944 H   0  0  0  0  0  0  0  0  0  0  0  0
    5.4064   -1.0484    1.7630 H   0  0  0  0  0  0  0  0  0  0  0  0
    3.2858    0.1891    1.8569 H   0  0  0  0  0  0  0  0  0  0  0  0
    2.9936   -1.4697    1.3279 H   0  0  0  0  0  0  0  0  0  0  0  0
    7.4862    1.2840   -0.0001 H   0  0  0  0  0  0  0  0  0  0  0  0
    7.4454    0.0207    1.2278 H   0  0  0  0  0  0  0  0  0  0  0  0
    7.2922   -0.4080   -0.4827 H   0  0  0  0  0  0  0  0  0  0  0  0
   -6.2693   -0.9961    0.7747 H   0  0  0  0  0  0  0  0  0  0  0  0
    7.0145    0.3398    0.2773 C   0  0  0  0  0  0  0  0  0  0  0  0
  1  3  2  0
  9  1  1  0
  1  5  1  0
  2  3  1  0
  4  2  1  0
  3 22  1  0
  5  4  2  0
 14  5  1  0
  6  7  2  0
  6 13  1  0
 10  7  1  0
  7  8  1  0
  8  9  2  0
  9 11  1  0
 17 10  1  0
 10 23  1  0
 13 11  2  0
 11 24  1  0
 46 12  1  0
 19 12  1  0
 20 12  1  0
 13 25  1  0
 16 14  1  0
 14 15  1  0
 14 26  1  1
 15 27  1  0
 15 28  1  0
 15 29  1  0
 16 30  1  0
 16 31  1  0
 16 32  1  0
 17 18  1  0
 17 21  1  0
 17 33  1  6
 19 18  1  0
 18 34  1  0
 18 35  1  0
 19 36  1  0
 19 37  1  0
 20 21  1  0
 20 38  1  0
 20 39  1  0
 21 40  1  0
 21 41  1  0
 46 42  1  0
 46 43  1  0
 46 44  1  0
  2 45  1  0
M  END
