
     RDKit          3D

 25 26  0  0  0  0  0  0  0  0999 V2000
    0.2976    0.0110    0.0152 C   0  0  0  0  0  0  0  0  0  0  0  0
    0.9919    0.5788   -1.0422 C   0  0  0  0  0  0  0  0  0  0  0  0
    2.3781    0.5652   -1.0387 C   0  0  0  0  0  0  0  0  0  0  0  0
   -1.8861   -1.0692   -0.3635 C   0  0  0  0  0  0  0  0  0  0  0  0
   -3.3362   -0.6939   -0.2081 C   0  0  0  0  0  0  0  0  0  0  0  0
   -1.8723    1.1196    0.3927 C   0  0  0  0  0  0  0  0  0  0  0  0
   -1.1209    0.0201    0.0153 N   0  0  0  0  0  0  0  0  0  0  0  0
   -1.4266   -2.1172   -0.7394 O   0  0  0  0  0  0  0  0  0  0  0  0
    3.0906   -0.0131    0.0103 C   0  0  0  0  0  0  0  0  0  0  0  0
    2.3721   -0.5817    1.0603 C   0  0  0  0  0  0  0  0  0  0  0  0
    0.9856   -0.5699    1.0694 C   0  0  0  0  0  0  0  0  0  0  0  0
   -3.3270    0.7636    0.2343 C   0  0  0  0  0  0  0  0  0  0  0  0
   -1.3997    2.1614    0.7694 O   0  0  0  0  0  0  0  0  0  0  0  0
    0.4529    1.0231   -1.8690 H   0  0  0  0  0  0  0  0  0  0  0  0
    2.9123    1.0089   -1.8697 H   0  0  0  0  0  0  0  0  0  0  0  0
   -3.8581   -0.8572   -1.1508 H   0  0  0  0  0  0  0  0  0  0  0  0
    4.9678    0.9089    0.4905 H   0  0  0  0  0  0  0  0  0  0  0  0
    4.9952   -0.8462    0.5742 H   0  0  0  0  0  0  0  0  0  0  0  0
    4.9957   -0.0328   -0.9922 H   0  0  0  0  0  0  0  0  0  0  0  0
    2.9014   -1.0417    1.8857 H   0  0  0  0  0  0  0  0  0  0  0  0
    0.4419   -1.0113    1.8946 H   0  0  0  0  0  0  0  0  0  0  0  0
   -3.7722    1.4307   -0.5050 H   0  0  0  0  0  0  0  0  0  0  0  0
   -3.7917   -1.3551    0.5303 H   0  0  0  0  0  0  0  0  0  0  0  0
   -3.8486    0.9336    1.1759 H   0  0  0  0  0  0  0  0  0  0  0  0
    4.5909   -0.0008    0.0188 C   0  0  0  0  0  0  0  0  0  0  0  0
 13  6  2  0
 12  6  1  0
 12  5  1  0
  6  7  1  0
  5  4  1  0
  2  3  2  0
  2  1  1  0
  7  4  1  0
  7  1  1  0
  3  9  1  0
  4  8  2  0
  1 11  2  0
  9 25  1  0
  9 10  2  0
 11 10  1  0
  2 14  1  0
  3 15  1  0
  5 16  1  0
 25 17  1  0
 25 18  1  0
 25 19  1  0
 10 20  1  0
 11 21  1  0
 12 22  1  0
  5 23  1  0
 12 24  1  0
M  END
