
     RDKit          3D

 81 85  0  0  0  0  0  0  0  0999 V2000
   -5.9575    1.1192   -0.2262 C   0  0  0  0  0  0  0  0  0  0  0  0
   -4.6110    1.0819   -0.5536 C   0  0  0  0  0  0  0  0  0  0  0  0
   -4.1866    0.3703   -1.6752 C   0  0  0  0  0  0  0  0  0  0  0  0
   -5.1033   -0.3250   -2.4346 C   0  0  0  0  0  0  0  0  0  0  0  0
   -4.7853   -0.0499    2.9169 C   0  0  1  0  0  0  0  0  0  0  0  0
   -5.1746   -0.2282    4.3806 C   0  0  0  0  0  0  0  0  0  0  0  0
   -0.4232    0.2543    1.2406 C   0  0  1  0  0  0  0  0  0  0  0  0
    2.7313   -0.1409   -0.4700 C   0  0  0  0  0  0  0  0  0  0  0  0
    5.0052    0.1518   -1.0412 C   0  0  1  0  0  0  0  0  0  0  0  0
    0.5498   -0.6736    0.5029 C   0  0  1  0  0  0  0  0  0  0  0  0
   -3.4205    0.6346    2.8565 C   0  0  0  0  0  0  0  0  0  0  0  0
   -4.8147   -1.3808    2.1767 C   0  0  0  0  0  0  0  0  0  0  0  0
   -1.8718   -0.1823    1.0393 C   0  0  0  0  0  0  0  0  0  0  0  0
   -6.8835    0.4263   -0.9887 C   0  0  0  0  0  0  0  0  0  0  0  0
   -6.4601   -0.3125   -2.0938 C   0  0  0  0  0  0  0  0  0  0  0  0
   -7.2738   -1.0230   -2.8814 O   0  0  0  0  0  0  0  0  0  0  0  0
   -8.6593   -1.0520   -2.5847 C   0  0  0  0  0  0  0  0  0  0  0  0
   -3.4248    1.9010    0.4700 S   0  0  1  0  0  0  0  0  0  0  0  0
   -2.3292    2.2940   -0.4058 O   0  0  0  0  0  0  0  0  0  0  0  0
   -4.1241    2.9105    1.2501 O   0  0  0  0  0  0  0  0  0  0  0  0
   -2.8330    0.7975    1.5276 N   0  0  0  0  0  0  0  0  0  0  0  0
   -0.0921    0.4145    2.6011 O   0  0  0  0  0  0  0  0  0  0  0  0
    1.8827   -0.1235    0.5792 N   0  0  0  0  0  0  0  0  0  0  0  0
    2.4245   -0.3686   -1.6203 O   0  0  0  0  0  0  0  0  0  0  0  0
    3.9722    0.1639   -0.0703 O   0  0  0  0  0  0  0  0  0  0  0  0
    0.5222   -2.1282    1.0099 C   0  0  0  0  0  0  0  0  0  0  0  0
    2.8217   -3.1110    0.7301 C   0  0  0  0  0  0  0  0  0  0  0  0
    3.7618   -3.8296    0.0039 C   0  0  0  0  0  0  0  0  0  0  0  0
    3.4000   -4.4440   -1.1871 C   0  0  0  0  0  0  0  0  0  0  0  0
    2.0922   -4.3379   -1.6435 C   0  0  0  0  0  0  0  0  0  0  0  0
    1.1588   -3.6111   -0.9184 C   0  0  0  0  0  0  0  0  0  0  0  0
    1.5119   -2.9844    0.2736 C   0  0  0  0  0  0  0  0  0  0  0  0
    5.0794    1.4237   -1.9003 C   0  0  2  0  0  0  0  0  0  0  0  0
    6.5307    1.3981   -2.3625 C   0  0  0  0  0  0  0  0  0  0  0  0
    7.2169    1.1248   -1.0373 C   0  0  1  0  0  0  0  0  0  0  0  0
    7.0280    2.2325   -0.0001 C   0  0  2  0  0  0  0  0  0  0  0  0
    7.2026    1.5847    1.2160 O   0  0  0  0  0  0  0  0  0  0  0  0
    6.5511    0.3143    1.1264 C   0  0  0  0  0  0  0  0  0  0  0  0
    6.4000    0.0096   -0.3705 C   0  0  1  0  0  0  0  0  0  0  0  0
    4.8798    2.6986   -1.1025 C   0  0  0  0  0  0  0  0  0  0  0  0
    5.7352    2.7954    0.0196 O   0  0  0  0  0  0  0  0  0  0  0  0
   -6.3075    1.6914    0.6218 H   0  0  0  0  0  0  0  0  0  0  0  0
   -3.1472    0.3631   -1.9748 H   0  0  0  0  0  0  0  0  0  0  0  0
   -4.7769   -0.8772   -3.3064 H   0  0  0  0  0  0  0  0  0  0  0  0
   -5.5245    0.6145    2.4597 H   0  0  0  0  0  0  0  0  0  0  0  0
   -4.4875   -0.9091    4.8886 H   0  0  0  0  0  0  0  0  0  0  0  0
   -5.1626    0.7207    4.9200 H   0  0  0  0  0  0  0  0  0  0  0  0
   -6.1783   -0.6449    4.4691 H   0  0  0  0  0  0  0  0  0  0  0  0
   -0.3067    1.2448    0.7968 H   0  0  0  0  0  0  0  0  0  0  0  0
    4.8609   -0.7020   -1.7074 H   0  0  0  0  0  0  0  0  0  0  0  0
    0.2579   -0.6703   -0.5487 H   0  0  0  0  0  0  0  0  0  0  0  0
   -3.4724    1.6044    3.3520 H   0  0  0  0  0  0  0  0  0  0  0  0
   -2.6995    0.0471    3.4266 H   0  0  0  0  0  0  0  0  0  0  0  0
   -4.1060   -2.0917    2.6094 H   0  0  0  0  0  0  0  0  0  0  0  0
   -5.8073   -1.8291    2.2380 H   0  0  0  0  0  0  0  0  0  0  0  0
   -4.5768   -1.2683    1.1180 H   0  0  0  0  0  0  0  0  0  0  0  0
   -2.0391   -0.3999   -0.0184 H   0  0  0  0  0  0  0  0  0  0  0  0
   -2.0759   -1.1236    1.5543 H   0  0  0  0  0  0  0  0  0  0  0  0
   -7.9258    0.4785   -0.7074 H   0  0  0  0  0  0  0  0  0  0  0  0
   -9.1075   -0.0577   -2.6464 H   0  0  0  0  0  0  0  0  0  0  0  0
   -9.1190   -1.6925   -3.3324 H   0  0  0  0  0  0  0  0  0  0  0  0
   -8.8524   -1.4702   -1.5941 H   0  0  0  0  0  0  0  0  0  0  0  0
   -0.2492   -0.4108    3.0718 H   0  0  0  0  0  0  0  0  0  0  0  0
    2.2760    0.0031    1.5000 H   0  0  0  0  0  0  0  0  0  0  0  0
    0.7457   -2.1539    2.0808 H   0  0  0  0  0  0  0  0  0  0  0  0
   -0.4849   -2.5316    0.8853 H   0  0  0  0  0  0  0  0  0  0  0  0
    3.1106   -2.6421    1.6634 H   0  0  0  0  0  0  0  0  0  0  0  0
    4.7771   -3.9110    0.3707 H   0  0  0  0  0  0  0  0  0  0  0  0
    4.1301   -5.0084   -1.7528 H   0  0  0  0  0  0  0  0  0  0  0  0
    1.7992   -4.8201   -2.5674 H   0  0  0  0  0  0  0  0  0  0  0  0
    0.1420   -3.5274   -1.2852 H   0  0  0  0  0  0  0  0  0  0  0  0
    4.3586    1.4095   -2.7200 H   0  0  0  0  0  0  0  0  0  0  0  0
    6.7219    0.5890   -3.0715 H   0  0  0  0  0  0  0  0  0  0  0  0
    6.8430    2.3313   -2.8364 H   0  0  0  0  0  0  0  0  0  0  0  0
    8.2804    0.8961   -1.1203 H   0  0  0  0  0  0  0  0  0  0  0  0
    7.7764    3.0285   -0.0730 H   0  0  0  0  0  0  0  0  0  0  0  0
    7.1953   -0.4227    1.6083 H   0  0  0  0  0  0  0  0  0  0  0  0
    5.6030    0.3265    1.6670 H   0  0  0  0  0  0  0  0  0  0  0  0
    6.7995   -0.9802   -0.5907 H   0  0  0  0  0  0  0  0  0  0  0  0
    5.0246    3.5509   -1.7790 H   0  0  0  0  0  0  0  0  0  0  0  0
    3.8615    2.7745   -0.7150 H   0  0  0  0  0  0  0  0  0  0  0  0
 29 30  2  0
 29 28  1  0
 30 31  1  0
 28 27  2  0
 31 32  2  0
 27 32  1  0
  4 15  2  0
  4  3  1  0
 16 15  1  0
 16 17  1  0
 32 26  1  0
 19 18  2  0
 15 14  1  0
  3  2  2  0
 14  1  2  0
  2  1  1  0
  2 18  1  0
 26 10  1  0
 18 20  2  0
 18 21  1  1
 10 23  1  0
 10  7  1  0
 39 38  1  0
 39 35  1  0
 39  9  1  0
 38 37  1  0
 24  8  2  0
 21 13  1  0
 21 11  1  0
 13  7  1  0
 23  8  1  0
 35 36  1  0
 35 34  1  0
  8 25  1  0
  9 25  1  0
  9 33  1  0
  7 22  1  0
 37 36  1  0
 11  5  1  0
 36 41  1  0
 34 33  1  0
 33 40  1  0
  5 12  1  0
  5  6  1  0
 41 40  1  0
  1 42  1  0
  3 43  1  0
  4 44  1  0
  5 45  1  6
  6 46  1  0
  6 47  1  0
  6 48  1  0
  7 49  1  6
  9 50  1  6
 10 51  1  6
 11 52  1  0
 11 53  1  0
 12 54  1  0
 12 55  1  0
 12 56  1  0
 13 57  1  0
 13 58  1  0
 14 59  1  0
 17 60  1  0
 17 61  1  0
 17 62  1  0
 22 63  1  0
 23 64  1  0
 26 65  1  0
 26 66  1  0
 27 67  1  0
 28 68  1  0
 29 69  1  0
 30 70  1  0
 31 71  1  0
 33 72  1  6
 34 73  1  0
 34 74  1  0
 35 75  1  6
 36 76  1  6
 38 77  1  0
 38 78  1  0
 39 79  1  1
 40 80  1  0
 40 81  1  0
M  END
