
     RDKit          3D

 40 42  0  0  0  0  0  0  0  0999 V2000
    6.9352    0.6381    0.0748 C   0  0  0  0  0  0  0  0  0  0  0  0
    5.9636    1.6254    0.1690 C   0  0  0  0  0  0  0  0  0  0  0  0
    6.5500   -0.6917   -0.0427 C   0  0  0  0  0  0  0  0  0  0  0  0
    4.6190    1.2867    0.1539 C   0  0  0  0  0  0  0  0  0  0  0  0
    5.2071   -1.0328   -0.0702 C   0  0  0  0  0  0  0  0  0  0  0  0
    2.2278   -1.5856    0.4253 C   0  0  0  0  0  0  0  0  0  0  0  0
    4.2218   -0.0471    0.0348 C   0  0  0  0  0  0  0  0  0  0  0  0
    2.8112   -0.4211    0.0326 C   0  0  0  0  0  0  0  0  0  0  0  0
    0.3867   -0.5695   -0.1627 C   0  0  0  0  0  0  0  0  0  0  0  0
   -2.0248   -1.0419   -0.0076 C   0  0  0  0  0  0  0  0  0  0  0  0
   -4.5054   -1.3560   -0.3482 C   0  0  0  0  0  0  0  0  0  0  0  0
   -3.6309    0.7290    0.7129 C   0  0  0  0  0  0  0  0  0  0  0  0
   -5.8145   -0.6205   -0.5894 C   0  0  0  0  0  0  0  0  0  0  0  0
   -4.9766    1.3771    0.4315 C   0  0  0  0  0  0  0  0  0  0  0  0
   -3.3452   -0.3704   -0.3202 C   0  0  1  0  0  0  0  0  0  0  0  0
    0.8712   -1.6676    0.3118 N   0  0  0  0  0  0  0  0  0  0  0  0
   -6.0458    0.3991    0.4163 N   0  0  0  0  0  0  0  0  0  0  0  0
   -0.9378   -0.2916   -0.3993 N   0  0  0  0  0  0  0  0  0  0  0  0
   -1.9234   -2.1046    0.5599 O   0  0  0  0  0  0  0  0  0  0  0  0
    1.5667    0.6576   -0.5146 S   0  0  0  0  0  0  0  0  0  0  0  0
    7.9844    0.9019    0.0897 H   0  0  0  0  0  0  0  0  0  0  0  0
    6.2500    2.6647    0.2629 H   0  0  0  0  0  0  0  0  0  0  0  0
    7.2988   -1.4683   -0.1255 H   0  0  0  0  0  0  0  0  0  0  0  0
    3.8770    2.0702    0.2518 H   0  0  0  0  0  0  0  0  0  0  0  0
    4.9240   -2.0708   -0.1899 H   0  0  0  0  0  0  0  0  0  0  0  0
    2.7709   -2.4289    0.8292 H   0  0  0  0  0  0  0  0  0  0  0  0
   -4.5598   -1.8975    0.5986 H   0  0  0  0  0  0  0  0  0  0  0  0
   -4.3611   -2.0961   -1.1377 H   0  0  0  0  0  0  0  0  0  0  0  0
   -2.8567    1.4988    0.6943 H   0  0  0  0  0  0  0  0  0  0  0  0
   -3.6359    0.2962    1.7171 H   0  0  0  0  0  0  0  0  0  0  0  0
   -5.8078   -0.1891   -1.6073 H   0  0  0  0  0  0  0  0  0  0  0  0
   -6.6413   -1.3339   -0.5595 H   0  0  0  0  0  0  0  0  0  0  0  0
   -5.1874    2.1160    1.2085 H   0  0  0  0  0  0  0  0  0  0  0  0
   -4.9193    1.9311   -0.5236 H   0  0  0  0  0  0  0  0  0  0  0  0
   -3.2701    0.1097   -1.3045 H   0  0  0  0  0  0  0  0  0  0  0  0
   -8.1295    0.2923    0.2858 H   0  0  0  0  0  0  0  0  0  0  0  0
   -7.5042    1.7640    1.0285 H   0  0  0  0  0  0  0  0  0  0  0  0
   -7.4226    1.5607   -0.7281 H   0  0  0  0  0  0  0  0  0  0  0  0
   -1.1390    0.5710   -0.8832 H   0  0  0  0  0  0  0  0  0  0  0  0
   -7.3312    1.0343    0.2355 C   0  0  0  0  0  0  0  0  0  0  0  0
  2  1  2  0
  2  4  1  0
  1  3  1  0
  4  7  2  0
  3  5  2  0
  7  5  1  0
  7  8  1  0
  8  6  2  0
  8 20  1  0
  6 16  1  0
 20  9  1  0
 16  9  2  0
  9 18  1  0
 18 10  1  0
 19 10  2  0
 10 15  1  0
 15 11  1  0
 15 12  1  0
 11 13  1  0
 12 14  1  0
 13 17  1  0
 14 17  1  0
 17 40  1  0
  1 21  1  0
  2 22  1  0
  3 23  1  0
  4 24  1  0
  5 25  1  0
  6 26  1  0
 11 27  1  0
 11 28  1  0
 12 29  1  0
 12 30  1  0
 13 31  1  0
 13 32  1  0
 14 33  1  0
 14 34  1  0
 15 35  1  6
 40 36  1  0
 40 37  1  0
 40 38  1  0
 18 39  1  0
M  END
