
     RDKit          3D

 44 48  0  0  0  0  0  0  0  0999 V2000
   -3.3659    0.7015   -0.8134 C   0  0  0  0  0  0  0  0  0  0  0  0
   -4.2722   -0.1714   -0.1733 C   0  0  0  0  0  0  0  0  0  0  0  0
   -5.5974    0.2001    0.1432 C   0  0  0  0  0  0  0  0  0  0  0  0
   -6.4101   -0.7039    0.7650 C   0  0  0  0  0  0  0  0  0  0  0  0
   -5.8932   -1.9813    1.0688 C   0  0  0  0  0  0  0  0  0  0  0  0
   -4.6746   -2.3622    0.7922 N   0  0  0  0  0  0  0  0  0  0  0  0
   -3.8536   -1.4787    0.1758 C   0  0  0  0  0  0  0  0  0  0  0  0
   -2.5334   -1.8760   -0.1355 C   0  0  0  0  0  0  0  0  0  0  0  0
   -1.6785   -1.0113   -0.7600 C   0  0  0  0  0  0  0  0  0  0  0  0
   -2.0904    0.2971   -1.1058 C   0  0  0  0  0  0  0  0  0  0  0  0
   -1.1247    1.2473   -1.7608 C   0  0  0  0  0  0  0  0  0  0  0  0
   -0.3038    1.9294   -0.7688 N   0  0  0  0  0  0  0  0  0  0  0  0
    0.8618    1.5595   -0.2013 C   0  0  0  0  0  0  0  0  0  0  0  0
    1.7886    0.4765   -0.5417 C   0  0  0  0  0  0  0  0  0  0  0  0
    1.6832   -0.2180   -1.5394 O   0  0  0  0  0  0  0  0  0  0  0  0
   -0.7506    3.0279   -0.2009 N   0  0  0  0  0  0  0  0  0  0  0  0
    0.0926    3.4070    0.7073 N   0  0  0  0  0  0  0  0  0  0  0  0
    1.1010    2.5226    0.7419 C   0  0  0  0  0  0  0  0  0  0  0  0
    2.3304    2.4936    1.5703 C   0  0  0  0  0  0  0  0  0  0  0  0
    2.7725    1.0380    1.6652 C   0  0  0  0  0  0  0  0  0  0  0  0
    2.8031    0.3701    0.3547 N   0  0  0  0  0  0  0  0  0  0  0  0
    3.7798   -0.6435    0.1511 C   0  0  0  0  0  0  0  0  0  0  0  0
    4.7842   -0.4565   -0.7899 C   0  0  0  0  0  0  0  0  0  0  0  0
    5.7469   -1.4384   -0.9750 C   0  0  0  0  0  0  0  0  0  0  0  0
    5.7132   -2.6017   -0.2166 C   0  0  0  0  0  0  0  0  0  0  0  0
    4.7113   -2.7824    0.7274 C   0  0  0  0  0  0  0  0  0  0  0  0
    3.7402   -1.8072    0.9087 C   0  0  0  0  0  0  0  0  0  0  0  0
   -3.6984    1.6998   -1.0748 H   0  0  0  0  0  0  0  0  0  0  0  0
   -5.9525    1.1919   -0.1092 H   0  0  0  0  0  0  0  0  0  0  0  0
   -7.4306   -0.4623    1.0267 H   0  0  0  0  0  0  0  0  0  0  0  0
   -6.5304   -2.7079    1.5620 H   0  0  0  0  0  0  0  0  0  0  0  0
   -2.2183   -2.8778    0.1267 H   0  0  0  0  0  0  0  0  0  0  0  0
   -0.6733   -1.3333   -1.0018 H   0  0  0  0  0  0  0  0  0  0  0  0
   -0.4576    0.7332   -2.4483 H   0  0  0  0  0  0  0  0  0  0  0  0
   -1.6521    2.0204   -2.3157 H   0  0  0  0  0  0  0  0  0  0  0  0
    3.1120    3.1072    1.1140 H   0  0  0  0  0  0  0  0  0  0  0  0
    2.1543    2.8803    2.5741 H   0  0  0  0  0  0  0  0  0  0  0  0
    3.7746    0.9795    2.0833 H   0  0  0  0  0  0  0  0  0  0  0  0
    2.1002    0.4982    2.3386 H   0  0  0  0  0  0  0  0  0  0  0  0
    4.8137    0.4569   -1.3700 H   0  0  0  0  0  0  0  0  0  0  0  0
    6.5272   -1.2918   -1.7101 H   0  0  0  0  0  0  0  0  0  0  0  0
    6.4664   -3.3649   -0.3609 H   0  0  0  0  0  0  0  0  0  0  0  0
    4.6791   -3.6873    1.3199 H   0  0  0  0  0  0  0  0  0  0  0  0
    2.9528   -1.9529    1.6378 H   0  0  0  0  0  0  0  0  0  0  0  0
 11 12  1  0
 11 10  1  0
 16 12  1  0
 16 17  2  0
 12 13  1  0
 10  1  2  0
 10  9  1  0
 17 18  1  0
  1  2  1  0
  9  8  2  0
 13 18  2  0
 13 14  1  0
 15 14  2  0
 18 19  1  0
  2  3  2  0
  2  7  1  0
 14 21  1  0
  8  7  1  0
  3  4  1  0
  7  6  2  0
 19 20  1  0
 21 20  1  0
 21 22  1  0
  4  5  2  0
  6  5  1  0
 22 27  1  0
 22 23  2  0
 27 26  2  0
 23 24  1  0
 26 25  1  0
 24 25  2  0
  1 28  1  0
  3 29  1  0
  4 30  1  0
  5 31  1  0
  8 32  1  0
  9 33  1  0
 11 34  1  0
 11 35  1  0
 19 36  1  0
 19 37  1  0
 20 38  1  0
 20 39  1  0
 23 40  1  0
 24 41  1  0
 25 42  1  0
 26 43  1  0
 27 44  1  0
M  END
