
     RDKit          3D

 69 73  0  0  0  0  0  0  0  0999 V2000
   -0.0936   -6.3738   -0.2027 C   0  0  0  0  0  0  0  0  0  0  0  0
    0.2780   -5.1289    0.3886 O   0  0  0  0  0  0  0  0  0  0  0  0
   -0.6200   -4.1522    0.3838 C   0  0  0  0  0  0  0  0  0  0  0  0
   -1.7254   -4.2754   -0.0827 O   0  0  0  0  0  0  0  0  0  0  0  0
   -0.0758   -2.8950    1.0206 C   0  0  2  0  0  0  0  0  0  0  0  0
   -1.1476   -1.8216    1.1390 C   0  0  0  0  0  0  0  0  0  0  0  0
   -0.5969   -0.5401    1.7624 C   0  0  0  0  0  0  0  0  0  0  0  0
    1.1143   -2.3405    0.2296 C   0  0  0  0  0  0  0  0  0  0  0  0
    1.6775   -1.1085    0.9204 C   0  0  0  0  0  0  0  0  0  0  0  0
    0.6593    0.0251    1.1024 C   0  0  1  0  0  0  0  0  0  0  0  0
    0.4258    0.7695   -0.1508 N   0  0  0  0  0  0  0  0  0  0  0  0
   -0.7087    0.9556   -0.9280 C   0  0  0  0  0  0  0  0  0  0  0  0
   -2.0577    0.6431   -0.7803 C   0  0  0  0  0  0  0  0  0  0  0  0
   -2.9377    1.0046   -1.7894 C   0  0  0  0  0  0  0  0  0  0  0  0
   -4.3893    0.5969   -1.6837 C   0  0  0  0  0  0  0  0  0  0  0  0
   -4.8603    0.5639   -0.3190 N   0  0  0  0  0  0  0  0  0  0  0  0
   -6.0081   -0.3026   -0.1319 C   0  0  0  0  0  0  0  0  0  0  0  0
   -6.3458   -0.4394    1.3453 C   0  0  0  0  0  0  0  0  0  0  0  0
   -6.5928    0.9273    1.9709 C   0  0  0  0  0  0  0  0  0  0  0  0
   -5.4101    1.8475    1.6970 C   0  0  0  0  0  0  0  0  0  0  0  0
   -5.0963    1.8943    0.2095 C   0  0  0  0  0  0  0  0  0  0  0  0
   -2.4814    1.6977   -2.9190 C   0  0  0  0  0  0  0  0  0  0  0  0
   -1.1520    2.0475   -3.0572 C   0  0  0  0  0  0  0  0  0  0  0  0
   -0.2648    1.6825   -2.0479 C   0  0  0  0  0  0  0  0  0  0  0  0
    1.0661    1.9871   -1.9308 N   0  0  0  0  0  0  0  0  0  0  0  0
    1.4229    1.4485   -0.8069 C   0  0  0  0  0  0  0  0  0  0  0  0
    2.6756    1.5684   -0.2324 N   0  0  0  0  0  0  0  0  0  0  0  0
    3.8572    1.6417   -0.9196 C   0  0  0  0  0  0  0  0  0  0  0  0
    3.9281    1.6059   -2.1288 O   0  0  0  0  0  0  0  0  0  0  0  0
    5.0704    1.7620   -0.0606 C   0  0  0  0  0  0  0  0  0  0  0  0
    5.1524    1.1907    1.2082 C   0  0  0  0  0  0  0  0  0  0  0  0
    6.3222    1.2938    1.9464 C   0  0  0  0  0  0  0  0  0  0  0  0
    7.4139    1.9764    1.4283 C   0  0  0  0  0  0  0  0  0  0  0  0
    7.3385    2.5452    0.1626 C   0  0  0  0  0  0  0  0  0  0  0  0
    6.1773    2.4281   -0.5838 C   0  0  0  0  0  0  0  0  0  0  0  0
   -0.9403   -6.8237    0.3153 H   0  0  0  0  0  0  0  0  0  0  0  0
   -0.3395   -6.2575   -1.2579 H   0  0  0  0  0  0  0  0  0  0  0  0
    0.7725   -7.0215   -0.1046 H   0  0  0  0  0  0  0  0  0  0  0  0
    0.2846   -3.1684    2.0203 H   0  0  0  0  0  0  0  0  0  0  0  0
   -1.5539   -1.6341    0.1446 H   0  0  0  0  0  0  0  0  0  0  0  0
   -1.9808   -2.1721    1.7517 H   0  0  0  0  0  0  0  0  0  0  0  0
   -1.3708    0.2234    1.8507 H   0  0  0  0  0  0  0  0  0  0  0  0
   -0.3017   -0.7609    2.7918 H   0  0  0  0  0  0  0  0  0  0  0  0
    1.9052   -3.0861    0.1430 H   0  0  0  0  0  0  0  0  0  0  0  0
    0.7969   -2.0958   -0.7893 H   0  0  0  0  0  0  0  0  0  0  0  0
    2.0179   -1.3867    1.9226 H   0  0  0  0  0  0  0  0  0  0  0  0
    2.5658   -0.7702    0.3886 H   0  0  0  0  0  0  0  0  0  0  0  0
    1.0750    0.7494    1.8089 H   0  0  0  0  0  0  0  0  0  0  0  0
   -2.4703    0.1627    0.0913 H   0  0  0  0  0  0  0  0  0  0  0  0
   -5.0026    1.2509   -2.3266 H   0  0  0  0  0  0  0  0  0  0  0  0
   -4.4935   -0.4105   -2.0991 H   0  0  0  0  0  0  0  0  0  0  0  0
   -6.8968    0.0695   -0.6744 H   0  0  0  0  0  0  0  0  0  0  0  0
   -5.7738   -1.2846   -0.5503 H   0  0  0  0  0  0  0  0  0  0  0  0
   -7.2205   -1.0838    1.4587 H   0  0  0  0  0  0  0  0  0  0  0  0
   -5.5129   -0.9336    1.8547 H   0  0  0  0  0  0  0  0  0  0  0  0
   -7.4989    1.3646    1.5370 H   0  0  0  0  0  0  0  0  0  0  0  0
   -6.7724    0.8355    3.0444 H   0  0  0  0  0  0  0  0  0  0  0  0
   -5.6144    2.8589    2.0556 H   0  0  0  0  0  0  0  0  0  0  0  0
   -4.5271    1.4882    2.2349 H   0  0  0  0  0  0  0  0  0  0  0  0
   -4.2069    2.5061    0.0423 H   0  0  0  0  0  0  0  0  0  0  0  0
   -5.9259    2.3915   -0.3270 H   0  0  0  0  0  0  0  0  0  0  0  0
   -3.1906    1.9795   -3.6882 H   0  0  0  0  0  0  0  0  0  0  0  0
   -0.8049    2.6081   -3.9158 H   0  0  0  0  0  0  0  0  0  0  0  0
    2.7018    1.7166    0.7654 H   0  0  0  0  0  0  0  0  0  0  0  0
    4.3246    0.6322    1.6283 H   0  0  0  0  0  0  0  0  0  0  0  0
    6.3810    0.8345    2.9239 H   0  0  0  0  0  0  0  0  0  0  0  0
    8.3243    2.0593    2.0073 H   0  0  0  0  0  0  0  0  0  0  0  0
    8.1874    3.0780   -0.2445 H   0  0  0  0  0  0  0  0  0  0  0  0
    6.1260    2.8659   -1.5719 H   0  0  0  0  0  0  0  0  0  0  0  0
 19 18  1  0
 19 20  1  0
 18 17  1  0
 20 21  1  0
 17 16  1  0
 21 16  1  0
 16 15  1  0
 15 14  1  0
  8  9  1  0
  8  5  1  0
 14 13  2  0
 14 22  1  0
 13 12  1  0
  9 10  1  0
  5  6  1  0
  5  3  1  0
 10 11  1  0
 10  7  1  0
 22 23  2  0
 12 11  1  0
 12 24  2  0
 11 26  1  0
  6  7  1  0
  4  3  2  0
 23 24  1  0
 24 25  1  0
  3  2  1  0
 26 25  2  0
 26 27  1  0
 27 28  1  0
  2  1  1  0
 28 29  2  0
 28 30  1  0
 31 30  2  0
 31 32  1  0
 30 35  1  0
 32 33  2  0
 35 34  2  0
 33 34  1  0
  1 36  1  0
  1 37  1  0
  1 38  1  0
  5 39  1  1
  6 40  1  0
  6 41  1  0
  7 42  1  0
  7 43  1  0
  8 44  1  0
  8 45  1  0
  9 46  1  0
  9 47  1  0
 10 48  1  1
 13 49  1  0
 15 50  1  0
 15 51  1  0
 17 52  1  0
 17 53  1  0
 18 54  1  0
 18 55  1  0
 19 56  1  0
 19 57  1  0
 20 58  1  0
 20 59  1  0
 21 60  1  0
 21 61  1  0
 22 62  1  0
 23 63  1  0
 27 64  1  0
 31 65  1  0
 32 66  1  0
 33 67  1  0
 34 68  1  0
 35 69  1  0
M  END
