
     RDKit          3D

 44 47  0  0  0  0  0  0  0  0999 V2000
    2.6295    0.4084    0.0384 C   0  0  0  0  0  0  0  0  0  0  0  0
    2.5889   -1.0035    0.0926 C   0  0  0  0  0  0  0  0  0  0  0  0
    3.8226   -1.6639    0.1566 C   0  0  0  0  0  0  0  0  0  0  0  0
    4.9657   -1.0350    0.1634 N   0  0  0  0  0  0  0  0  0  0  0  0
    3.8040    1.0576    0.0390 N   0  0  0  0  0  0  0  0  0  0  0  0
   -1.6628   -1.5974   -1.5698 C   0  0  0  0  0  0  0  0  0  0  0  0
   -2.8234   -2.2970   -1.8555 C   0  0  0  0  0  0  0  0  0  0  0  0
   -3.4288   -3.0342   -0.8509 C   0  0  0  0  0  0  0  0  0  0  0  0
   -2.8836   -3.0677    0.4224 C   0  0  0  0  0  0  0  0  0  0  0  0
   -1.7241   -2.3542    0.6778 C   0  0  0  0  0  0  0  0  0  0  0  0
   -1.0876   -2.3653    2.2868 Cl  0  0  0  0  0  0  0  0  0  0  0  0
   -1.0820   -1.5967   -0.3013 C   0  0  0  0  0  0  0  0  0  0  0  0
    0.1907   -0.8876   -0.0509 C   0  0  0  0  0  0  0  0  0  0  0  0
    1.3326   -1.6289    0.0259 C   0  0  0  0  0  0  0  0  0  0  0  0
    4.9014    0.3231    0.0991 C   0  0  0  0  0  0  0  0  0  0  0  0
    6.0855    0.9522    0.0804 N   0  0  0  0  0  0  0  0  0  0  0  0
    1.5148    1.1418   -0.0018 N   0  0  0  0  0  0  0  0  0  0  0  0
    0.3262    0.5507   -0.0064 C   0  0  0  0  0  0  0  0  0  0  0  0
   -0.7319    1.3789    0.0128 N   0  0  0  0  0  0  0  0  0  0  0  0
   -0.5391    2.8223   -0.0797 C   0  0  0  0  0  0  0  0  0  0  0  0
   -2.1120    1.0433    0.3582 C   0  0  0  0  0  0  0  0  0  0  0  0
   -2.7037    2.3806    0.7831 C   0  0  0  0  0  0  0  0  0  0  0  0
   -1.9554    3.3837   -0.0884 C   0  0  1  0  0  0  0  0  0  0  0  0
   -2.0233    4.8238    0.3862 C   0  0  0  0  0  0  0  0  0  0  0  0
   -3.3792    5.3420    0.2922 N   0  0  0  0  0  0  0  0  0  0  0  0
    3.8528   -2.7495    0.2007 H   0  0  0  0  0  0  0  0  0  0  0  0
   -3.2455   -2.2718   -2.8504 H   0  0  0  0  0  0  0  0  0  0  0  0
   -4.3351   -3.5855   -1.0608 H   0  0  0  0  0  0  0  0  0  0  0  0
   -3.3563   -3.6402    1.2080 H   0  0  0  0  0  0  0  0  0  0  0  0
    1.2773   -2.7111   -0.0091 H   0  0  0  0  0  0  0  0  0  0  0  0
    6.1247    1.9548    0.1278 H   0  0  0  0  0  0  0  0  0  0  0  0
    6.9322    0.4331    0.2301 H   0  0  0  0  0  0  0  0  0  0  0  0
    0.0255    3.1961    0.7820 H   0  0  0  0  0  0  0  0  0  0  0  0
    0.0233    3.0864   -0.9759 H   0  0  0  0  0  0  0  0  0  0  0  0
   -2.6570    0.6454   -0.5011 H   0  0  0  0  0  0  0  0  0  0  0  0
   -2.1563    0.3098    1.1624 H   0  0  0  0  0  0  0  0  0  0  0  0
   -3.7849    2.4024    0.6480 H   0  0  0  0  0  0  0  0  0  0  0  0
   -2.4911    2.5680    1.8401 H   0  0  0  0  0  0  0  0  0  0  0  0
   -2.3523    3.3332   -1.1082 H   0  0  0  0  0  0  0  0  0  0  0  0
   -1.5972    4.8782    1.3999 H   0  0  0  0  0  0  0  0  0  0  0  0
   -1.3808    5.4378   -0.2505 H   0  0  0  0  0  0  0  0  0  0  0  0
   -3.9614    4.9033    0.9952 H   0  0  0  0  0  0  0  0  0  0  0  0
   -3.3788    6.3276    0.5205 H   0  0  0  0  0  0  0  0  0  0  0  0
   -0.9169   -0.6793   -2.8313 Cl  0  0  0  0  0  0  0  0  0  0  0  0
 22 23  1  0
 22 21  1  0
 23 20  1  0
 23 24  1  0
 20 19  1  0
 25 24  1  0
 21 19  1  0
 19 18  1  0
 11 10  1  0
 17 18  2  0
 17  1  1  0
 18 13  1  0
  5  1  2  0
  5 15  1  0
 10  9  2  0
 10 12  1  0
  1  2  1  0
  9  8  1  0
 13 12  1  0
 13 14  2  0
 16 15  1  0
 12  6  2  0
 15  4  2  0
  2 14  1  0
  2  3  2  0
  8  7  2  0
  6  7  1  0
  6 44  1  0
  4  3  1  0
  3 26  1  0
  7 27  1  0
  8 28  1  0
  9 29  1  0
 14 30  1  0
 16 31  1  0
 16 32  1  0
 20 33  1  0
 20 34  1  0
 21 35  1  0
 21 36  1  0
 22 37  1  0
 22 38  1  0
 23 39  1  6
 24 40  1  0
 24 41  1  0
 25 42  1  0
 25 43  1  0
M  END
