
     RDKit          3D

 30 32  0  0  0  0  0  0  0  0999 V2000
   -4.5111   -0.7544   -0.7178 Br  0  0  0  0  0  0  0  0  0  0  0  0
   -3.1223    0.4412   -0.2580 C   0  0  0  0  0  0  0  0  0  0  0  0
   -3.4392    1.7487    0.0846 C   0  0  0  0  0  0  0  0  0  0  0  0
   -2.4074    2.6133    0.4169 C   0  0  0  0  0  0  0  0  0  0  0  0
   -1.0893    2.1835    0.4018 C   0  0  0  0  0  0  0  0  0  0  0  0
   -1.8142   -0.0077   -0.2733 C   0  0  0  0  0  0  0  0  0  0  0  0
   -0.7790    0.8696    0.0554 C   0  0  0  0  0  0  0  0  0  0  0  0
    0.6162    0.3762    0.0395 C   0  0  0  0  0  0  0  0  0  0  0  0
    1.7071    1.2728   -0.0654 C   0  0  0  0  0  0  0  0  0  0  0  0
    0.7947   -0.9160    0.1135 N   0  0  0  0  0  0  0  0  0  0  0  0
    2.0439   -1.4242    0.1000 C   0  0  0  0  0  0  0  0  0  0  0  0
    3.2074   -0.6110    0.0326 C   0  0  0  0  0  0  0  0  0  0  0  0
    2.9878    0.7921   -0.0520 C   0  0  0  0  0  0  0  0  0  0  0  0
    4.1206    1.7652   -0.0697 C   0  0  0  0  0  0  0  0  0  0  0  0
    3.8561    2.8238   -0.8157 O   0  0  0  0  0  0  0  0  0  0  0  0
    5.1451    1.6152    0.5461 O   0  0  0  0  0  0  0  0  0  0  0  0
    4.4722   -1.2443    0.0072 C   0  0  0  0  0  0  0  0  0  0  0  0
    4.5666   -2.6092    0.0593 C   0  0  0  0  0  0  0  0  0  0  0  0
    3.4114   -3.4115    0.1405 C   0  0  0  0  0  0  0  0  0  0  0  0
    2.1749   -2.8307    0.1593 C   0  0  0  0  0  0  0  0  0  0  0  0
   -4.4643    2.0931    0.0974 H   0  0  0  0  0  0  0  0  0  0  0  0
   -2.6379    3.6328    0.6950 H   0  0  0  0  0  0  0  0  0  0  0  0
   -0.3128    2.8817    0.6836 H   0  0  0  0  0  0  0  0  0  0  0  0
   -1.5794   -1.0286   -0.5413 H   0  0  0  0  0  0  0  0  0  0  0  0
    1.5275    2.3345   -0.1500 H   0  0  0  0  0  0  0  0  0  0  0  0
    4.5840    3.4623   -0.7601 H   0  0  0  0  0  0  0  0  0  0  0  0
    5.3748   -0.6567   -0.0576 H   0  0  0  0  0  0  0  0  0  0  0  0
    5.5414   -3.0780    0.0360 H   0  0  0  0  0  0  0  0  0  0  0  0
    3.5079   -4.4881    0.1822 H   0  0  0  0  0  0  0  0  0  0  0  0
    1.2736   -3.4270    0.2139 H   0  0  0  0  0  0  0  0  0  0  0  0
 19 18  2  0
 19 20  1  0
 18 17  1  0
 20 11  2  0
 17 12  2  0
 11 12  1  0
 11 10  1  0
 12 13  1  0
 10  8  2  0
 13 14  1  0
 13  9  2  0
 16 14  2  0
 14 15  1  0
  8  9  1  0
  8  7  1  0
  6  7  1  0
  6  2  2  0
  7  5  2  0
  1  2  1  0
  2  3  1  0
  5  4  1  0
  3  4  2  0
  3 21  1  0
  4 22  1  0
  5 23  1  0
  6 24  1  0
  9 25  1  0
 15 26  1  0
 17 27  1  0
 18 28  1  0
 19 29  1  0
 20 30  1  0
M  END
