
     RDKit          3D

 24 25  0  0  0  0  0  0  0  0999 V2000
   -0.3221    0.8312    0.0541 C   0  0  0  0  0  0  0  0  0  0  0  0
    0.5604   -0.2429   -0.0433 C   0  0  0  0  0  0  0  0  0  0  0  0
    0.1164   -1.5560   -0.1067 C   0  0  0  0  0  0  0  0  0  0  0  0
   -1.2491   -1.8148   -0.0669 C   0  0  0  0  0  0  0  0  0  0  0  0
   -1.6754    0.5597    0.0882 C   0  0  0  0  0  0  0  0  0  0  0  0
   -2.1371   -0.7570    0.0286 C   0  0  0  0  0  0  0  0  0  0  0  0
   -3.6371   -0.7848    0.0972 C   0  0  0  0  0  0  0  0  0  0  0  0
   -4.0269    0.6621   -0.2464 C   0  0  0  0  0  0  0  0  0  0  0  0
   -2.8289    1.5171    0.1989 C   0  0  0  0  0  0  0  0  0  0  0  0
    2.2937    0.0951   -0.1035 S   0  0  1  0  0  0  0  0  0  0  0  0
    2.9868   -1.1319   -0.4766 O   0  0  0  0  0  0  0  0  0  0  0  0
    2.5366    1.2875   -0.9043 O   0  0  0  0  0  0  0  0  0  0  0  0
    2.5801    0.5442    1.4619 N   0  0  0  0  0  0  0  0  0  0  0  0
    0.0412    1.8507    0.0980 H   0  0  0  0  0  0  0  0  0  0  0  0
    0.8182   -2.3742   -0.1894 H   0  0  0  0  0  0  0  0  0  0  0  0
   -1.6030   -2.8367   -0.1183 H   0  0  0  0  0  0  0  0  0  0  0  0
   -4.0821   -1.5208   -0.5732 H   0  0  0  0  0  0  0  0  0  0  0  0
   -3.9520   -1.0484    1.1119 H   0  0  0  0  0  0  0  0  0  0  0  0
   -4.1560    0.7559   -1.3264 H   0  0  0  0  0  0  0  0  0  0  0  0
   -4.9607    0.9700    0.2221 H   0  0  0  0  0  0  0  0  0  0  0  0
   -2.9421    1.8445    1.2370 H   0  0  0  0  0  0  0  0  0  0  0  0
   -2.6985    2.4151   -0.4061 H   0  0  0  0  0  0  0  0  0  0  0  0
    2.5264   -0.2379    2.1066 H   0  0  0  0  0  0  0  0  0  0  0  0
    3.4794    1.0080    1.5515 H   0  0  0  0  0  0  0  0  0  0  0  0
  7  8  1  0
  7  6  1  0
  8  9  1  0
  6  4  2  0
  6  5  1  0
  4  3  1  0
  9  5  1  0
  5  1  2  0
  3  2  2  0
  1  2  1  0
  2 10  1  0
 12 10  2  0
 10 11  2  0
 10 13  1  1
  1 14  1  0
  3 15  1  0
  4 16  1  0
  7 17  1  0
  7 18  1  0
  8 19  1  0
  8 20  1  0
  9 21  1  0
  9 22  1  0
 13 23  1  0
 13 24  1  0
M  END
