
     RDKit          3D

120126  0  0  0  0  0  0  0  0999 V2000
    8.0820    1.1647   -1.4481 C   0  0  0  0  0  0  0  0  0  0  0  0
   10.4623    1.0460   -1.6605 C   0  0  0  0  0  0  0  0  0  0  0  0
    1.1562   -1.9376    1.7180 C   0  0  0  0  0  0  0  0  0  0  0  0
    1.5672   -3.2146   -0.2525 C   0  0  0  0  0  0  0  0  0  0  0  0
    2.4748   -1.5483    1.7529 C   0  0  0  0  0  0  0  0  0  0  0  0
   -4.6856   -0.9358   -1.4507 C   0  0  0  0  0  0  0  0  0  0  0  0
   -3.9498   -2.0870   -1.5057 C   0  0  0  0  0  0  0  0  0  0  0  0
   10.3410    0.7699   -3.0153 C   0  0  0  0  0  0  0  0  0  0  0  0
    9.3407    1.2375   -0.8559 C   0  0  0  0  0  0  0  0  0  0  0  0
   -5.3272   -0.5102   -0.2610 C   0  0  0  0  0  0  0  0  0  0  0  0
  -10.3368    1.1287   -1.7906 C   0  0  0  0  0  0  0  0  0  0  0  0
   -3.8026   -2.8934   -0.3723 C   0  0  0  0  0  0  0  0  0  0  0  0
    9.0750    0.6964   -3.5726 C   0  0  0  0  0  0  0  0  0  0  0  0
    9.3283    0.6301    1.5387 C   0  0  0  0  0  0  0  0  0  0  0  0
    9.9376    2.9611    0.8884 C   0  0  0  0  0  0  0  0  0  0  0  0
  -13.0067    1.9141   -2.0487 C   0  0  0  0  0  0  0  0  0  0  0  0
  -12.0127    2.8587   -1.8446 C   0  0  0  0  0  0  0  0  0  0  0  0
  -12.6600    0.5696   -2.1241 C   0  0  0  0  0  0  0  0  0  0  0  0
    2.8938   -2.8368   -0.2270 C   0  0  0  0  0  0  0  0  0  0  0  0
  -10.6826    2.4756   -1.7162 C   0  0  0  0  0  0  0  0  0  0  0  0
  -11.3385    0.1762   -1.9949 C   0  0  0  0  0  0  0  0  0  0  0  0
    7.9409    0.8956   -2.8013 C   0  0  0  0  0  0  0  0  0  0  0  0
   -4.3926   -2.5236    0.8127 C   0  0  0  0  0  0  0  0  0  0  0  0
    0.6636   -2.7778    0.7153 C   0  0  0  0  0  0  0  0  0  0  0  0
    3.4004   -1.9974    0.7854 C   0  0  0  0  0  0  0  0  0  0  0  0
   -5.1396   -1.3513    0.8771 C   0  0  0  0  0  0  0  0  0  0  0  0
    9.5106    1.5501    0.5855 C   0  0  0  0  0  0  0  0  0  0  0  0
    9.5974    0.9205    2.9910 C   0  0  0  0  0  0  0  0  0  0  0  0
    9.8429    3.3018    2.3678 C   0  0  0  0  0  0  0  0  0  0  0  0
    5.1337   -0.3846    1.4256 C   0  0  0  0  0  0  0  0  0  0  0  0
    5.6518   -2.1283   -0.1647 C   0  0  0  0  0  0  0  0  0  0  0  0
    6.5670   -0.4307    1.9155 C   0  0  0  0  0  0  0  0  0  0  0  0
    7.0761   -2.1307    0.3587 C   0  0  0  0  0  0  0  0  0  0  0  0
   -3.0542    4.6360   -1.9057 C   0  0  0  0  0  0  0  0  0  0  0  0
   -1.6609    3.2664   -0.5580 C   0  0  0  0  0  0  0  0  0  0  0  0
   -2.1803    5.8242   -1.5533 C   0  0  0  0  0  0  0  0  0  0  0  0
   -0.8212    4.4860   -0.2310 C   0  0  0  0  0  0  0  0  0  0  0  0
   10.4108    2.1916    3.2532 C   0  0  2  0  0  0  0  0  0  0  0  0
   11.8861    1.9459    2.9340 C   0  0  0  0  0  0  0  0  0  0  0  0
   10.2738    2.5800    4.7231 C   0  0  0  0  0  0  0  0  0  0  0  0
   -5.3548    2.8263   -1.0323 C   0  0  0  0  0  0  0  0  0  0  0  0
   -3.8676    2.5063   -1.1084 C   0  0  0  0  0  0  0  0  0  0  0  0
   -7.7021    1.9978   -1.3397 C   0  0  0  0  0  0  0  0  0  0  0  0
   -6.2321    1.5969   -1.2742 C   0  0  2  0  0  0  0  0  0  0  0  0
   -4.4067    0.1167    3.1564 C   0  0  1  0  0  0  0  0  0  0  0  0
    4.7256   -1.6566    0.8486 N   0  0  0  0  0  0  0  0  0  0  0  0
   -1.2523   -3.8139   -0.3488 N   0  0  0  0  0  0  0  0  0  0  0  0
    7.4534   -0.8275    0.8486 N   0  0  0  0  0  0  0  0  0  0  0  0
   -3.0323    3.6582   -0.8320 N   0  0  0  0  0  0  0  0  0  0  0  0
   -1.4784   -2.9326    1.7118 O   0  0  0  0  0  0  0  0  0  0  0  0
   -6.9219   -0.0869    2.3785 O   0  0  0  0  0  0  0  0  0  0  0  0
   -5.7756   -2.1271    3.3164 O   0  0  0  0  0  0  0  0  0  0  0  0
   -0.8543    5.4345   -1.2740 O   0  0  0  0  0  0  0  0  0  0  0  0
   -4.2259    1.1670    2.3704 F   0  0  0  0  0  0  0  0  0  0  0  0
   -3.2843   -0.5736    3.2309 F   0  0  0  0  0  0  0  0  0  0  0  0
   -4.7641    0.5218    4.3610 F   0  0  0  0  0  0  0  0  0  0  0  0
   -5.7540   -0.9528    2.4663 S   0  0  1  0  0  0  0  0  0  0  0  0
   -2.8342   -4.3494   -0.4610 S   0  0  1  0  0  0  0  0  0  0  0  0
    8.9058    0.3536   -5.2666 Cl  0  0  0  0  0  0  0  0  0  0  0  0
    7.1990    1.3080   -0.8424 H   0  0  0  0  0  0  0  0  0  0  0  0
   11.4529    1.1023   -1.2252 H   0  0  0  0  0  0  0  0  0  0  0  0
    0.4908   -1.5767    2.4911 H   0  0  0  0  0  0  0  0  0  0  0  0
    1.2646   -3.8700   -1.0599 H   0  0  0  0  0  0  0  0  0  0  0  0
    2.7849   -0.9058    2.5639 H   0  0  0  0  0  0  0  0  0  0  0  0
   -4.7761   -0.3527   -2.3539 H   0  0  0  0  0  0  0  0  0  0  0  0
   -3.4907   -2.3636   -2.4455 H   0  0  0  0  0  0  0  0  0  0  0  0
   11.2221    0.6127   -3.6226 H   0  0  0  0  0  0  0  0  0  0  0  0
   10.9577    3.1170    0.5166 H   0  0  0  0  0  0  0  0  0  0  0  0
    9.3168    3.6523    0.3099 H   0  0  0  0  0  0  0  0  0  0  0  0
  -14.0401    2.2182   -2.1485 H   0  0  0  0  0  0  0  0  0  0  0  0
  -12.2645    3.9097   -1.7844 H   0  0  0  0  0  0  0  0  0  0  0  0
  -13.4232   -0.1813   -2.2826 H   0  0  0  0  0  0  0  0  0  0  0  0
    3.5286   -3.2020   -1.0198 H   0  0  0  0  0  0  0  0  0  0  0  0
   -9.9323    3.2384   -1.5637 H   0  0  0  0  0  0  0  0  0  0  0  0
  -11.0853   -0.8759   -2.0521 H   0  0  0  0  0  0  0  0  0  0  0  0
    6.9563    0.8396   -3.2461 H   0  0  0  0  0  0  0  0  0  0  0  0
   -4.2823   -3.1438    1.6908 H   0  0  0  0  0  0  0  0  0  0  0  0
    8.6439    0.9799    3.5326 H   0  0  0  0  0  0  0  0  0  0  0  0
   10.1171    0.0613    3.4310 H   0  0  0  0  0  0  0  0  0  0  0  0
   10.3574    4.2468    2.5657 H   0  0  0  0  0  0  0  0  0  0  0  0
    8.7916    3.4575    2.6341 H   0  0  0  0  0  0  0  0  0  0  0  0
    4.5011   -0.1197    2.2675 H   0  0  0  0  0  0  0  0  0  0  0  0
    5.0325    0.4116    0.6758 H   0  0  0  0  0  0  0  0  0  0  0  0
    5.5957   -1.5036   -1.0665 H   0  0  0  0  0  0  0  0  0  0  0  0
    5.4067   -3.1497   -0.4486 H   0  0  0  0  0  0  0  0  0  0  0  0
    6.8293    0.5707    2.2615 H   0  0  0  0  0  0  0  0  0  0  0  0
    6.6331   -1.1084    2.7856 H   0  0  0  0  0  0  0  0  0  0  0  0
    7.1767   -2.9099    1.1349 H   0  0  0  0  0  0  0  0  0  0  0  0
    7.7368   -2.4121   -0.4648 H   0  0  0  0  0  0  0  0  0  0  0  0
   -4.0709    4.9996   -2.0653 H   0  0  0  0  0  0  0  0  0  0  0  0
   -2.7152    4.1956   -2.8600 H   0  0  0  0  0  0  0  0  0  0  0  0
   -1.2088    2.7289   -1.4096 H   0  0  0  0  0  0  0  0  0  0  0  0
   -1.6400    2.5876    0.2984 H   0  0  0  0  0  0  0  0  0  0  0  0
   -2.1472    6.5220   -2.3911 H   0  0  0  0  0  0  0  0  0  0  0  0
   -2.6158    6.3511   -0.6923 H   0  0  0  0  0  0  0  0  0  0  0  0
   -1.1796    4.9328    0.7073 H   0  0  0  0  0  0  0  0  0  0  0  0
    0.2200    4.1937   -0.0866 H   0  0  0  0  0  0  0  0  0  0  0  0
   12.0365    1.5926    1.9127 H   0  0  0  0  0  0  0  0  0  0  0  0
   12.4724    2.8590    3.0580 H   0  0  0  0  0  0  0  0  0  0  0  0
   12.3032    1.1901    3.6031 H   0  0  0  0  0  0  0  0  0  0  0  0
   10.6034    1.7696    5.3777 H   0  0  0  0  0  0  0  0  0  0  0  0
   10.8764    3.4598    4.9599 H   0  0  0  0  0  0  0  0  0  0  0  0
    9.2351    2.8086    4.9729 H   0  0  0  0  0  0  0  0  0  0  0  0
    9.4247   -1.1473    0.3465 H   0  0  0  0  0  0  0  0  0  0  0  0
    9.0902   -1.4403    2.0469 H   0  0  0  0  0  0  0  0  0  0  0  0
   -5.5880    3.2509   -0.0522 H   0  0  0  0  0  0  0  0  0  0  0  0
   -5.6250    3.5766   -1.7787 H   0  0  0  0  0  0  0  0  0  0  0  0
   -3.6294    1.7442   -0.3628 H   0  0  0  0  0  0  0  0  0  0  0  0
   -3.6310    2.0648   -2.0923 H   0  0  0  0  0  0  0  0  0  0  0  0
   -8.0137    2.4727   -0.4065 H   0  0  0  0  0  0  0  0  0  0  0  0
   -7.8371    2.7126   -2.1511 H   0  0  0  0  0  0  0  0  0  0  0  0
   -5.9694    1.1572   -2.2362 H   0  0  0  0  0  0  0  0  0  0  0  0
   -6.5525    0.8173    0.6342 H   0  0  0  0  0  0  0  0  0  0  0  0
   -0.7189   -3.8873   -1.2050 H   0  0  0  0  0  0  0  0  0  0  0  0
    8.8596   -0.7673    1.2027 C   0  0  0  0  0  0  0  0  0  0  0  0
   -0.7552   -3.1636    0.7633 C   0  0  0  0  0  0  0  0  0  0  0  0
   -6.0607    0.6083   -0.2230 N   0  0  0  0  0  0  0  0  0  0  0  0
   -3.1335   -5.1870    0.6804 O   0  0  0  0  0  0  0  0  0  0  0  0
   -2.9141   -4.8880   -1.8064 O   0  0  0  0  0  0  0  0  0  0  0  0
   -8.6941    0.5125   -1.6413 S   0  0  0  0  0  0  0  0  0  0  0  0
119 58  2  0
 50116  2  0
 58118  2  0
 58 47  1  1
 58 12  1  0
  7  6  2  0
  7 12  1  0
116 47  1  0
116 24  1  0
  6 10  1  0
 12 23  2  0
  3 24  2  0
  3  5  1  0
 24  4  1  0
  5 25  2  0
  4 19  2  0
 35 49  1  0
 35 37  1  0
 42 49  1  0
 42 41  1  0
 44 43  1  0
 44 41  1  0
 44117  1  0
 10 26  2  0
 10117  1  0
 43120  1  0
 23 26  1  0
 31 46  1  0
 31 33  1  0
 25 19  1  0
 25 46  1  0
 49 34  1  0
 37 53  1  0
 57 26  1  6
 20 17  1  0
 20 11  2  0
 17 16  2  0
 46 30  1  0
 45 55  1  1
 33 48  1  0
 56 45  1  0
 30 32  1  0
 48 32  1  0
 48115  1  0
 53 36  1  0
 34 36  1  0
120 11  1  0
 45 57  1  0
 45 54  1  0
 11 21  1  0
 38 39  1  6
 16 18  1  0
 57 52  2  0
 57 51  2  0
 28 38  1  0
 28 14  1  0
115 14  1  0
 38 40  1  0
 38 29  1  0
 21 18  2  0
 14 27  2  0
 29 15  1  0
 27 15  1  0
 27  9  1  0
  9  1  2  0
  9  2  1  0
  1 22  1  0
  2  8  2  0
 22 13  2  0
  8 13  1  0
 13 59  1  0
  1 60  1  0
  2 61  1  0
  3 62  1  0
  4 63  1  0
  5 64  1  0
  6 65  1  0
  7 66  1  0
  8 67  1  0
 15 68  1  0
 15 69  1  0
 16 70  1  0
 17 71  1  0
 18 72  1  0
 19 73  1  0
 20 74  1  0
 21 75  1  0
 22 76  1  0
 23 77  1  0
 28 78  1  0
 28 79  1  0
 29 80  1  0
 29 81  1  0
 30 82  1  0
 30 83  1  0
 31 84  1  0
 31 85  1  0
 32 86  1  0
 32 87  1  0
 33 88  1  0
 33 89  1  0
 34 90  1  0
 34 91  1  0
 35 92  1  0
 35 93  1  0
 36 94  1  0
 36 95  1  0
 37 96  1  0
 37 97  1  0
 39 98  1  0
 39 99  1  0
 39100  1  0
 40101  1  0
 40102  1  0
 40103  1  0
115104  1  0
115105  1  0
 41106  1  0
 41107  1  0
 42108  1  0
 42109  1  0
 43110  1  0
 43111  1  0
 44112  1  6
117113  1  0
 47114  1  0
M  END
