
     RDKit          3D

 29 31  0  0  0  0  0  0  0  0999 V2000
   -5.0071   -1.0411    0.0819 Cl  0  0  0  0  0  0  0  0  0  0  0  0
   -3.5317   -0.1182    0.0039 C   0  0  0  0  0  0  0  0  0  0  0  0
   -2.3230   -0.7815    0.0369 C   0  0  0  0  0  0  0  0  0  0  0  0
   -1.1553   -0.0158   -0.0240 C   0  0  0  0  0  0  0  0  0  0  0  0
   -3.6244    1.2763   -0.0874 C   0  0  0  0  0  0  0  0  0  0  0  0
   -2.4777    2.0460   -0.1488 C   0  0  0  0  0  0  0  0  0  0  0  0
   -1.2504    1.3926   -0.1177 C   0  0  0  0  0  0  0  0  0  0  0  0
    0.0213    1.8864   -0.1635 N   0  0  0  0  0  0  0  0  0  0  0  0
    0.9101    0.8473   -0.1025 C   0  0  0  0  0  0  0  0  0  0  0  0
    0.2362   -0.3375   -0.0188 C   0  0  0  0  0  0  0  0  0  0  0  0
    0.9261   -1.6575    0.0599 C   0  0  0  0  0  0  0  0  0  0  0  0
    2.3898   -1.5149   -0.3580 C   0  0  0  0  0  0  0  0  0  0  0  0
    2.3874    1.0116   -0.1340 C   0  0  0  0  0  0  0  0  0  0  0  0
    3.0448   -0.3079    0.3114 C   0  0  2  0  0  0  0  0  0  0  0  0
    4.5331   -0.2637    0.0567 C   0  0  0  0  0  0  0  0  0  0  0  0
    5.1482   -1.0550   -0.6128 O   0  0  0  0  0  0  0  0  0  0  0  0
    5.1103    0.7673    0.6658 O   0  0  0  0  0  0  0  0  0  0  0  0
   -2.2799   -1.8607    0.1071 H   0  0  0  0  0  0  0  0  0  0  0  0
   -4.5949    1.7529   -0.1102 H   0  0  0  0  0  0  0  0  0  0  0  0
   -2.5458    3.1239   -0.2188 H   0  0  0  0  0  0  0  0  0  0  0  0
    0.2676    2.8604   -0.2238 H   0  0  0  0  0  0  0  0  0  0  0  0
    0.8692   -2.0594    1.0774 H   0  0  0  0  0  0  0  0  0  0  0  0
    0.4338   -2.3935   -0.5810 H   0  0  0  0  0  0  0  0  0  0  0  0
    2.9303   -2.4259   -0.0996 H   0  0  0  0  0  0  0  0  0  0  0  0
    2.4528   -1.4045   -1.4442 H   0  0  0  0  0  0  0  0  0  0  0  0
    2.7106    1.2739   -1.1474 H   0  0  0  0  0  0  0  0  0  0  0  0
    2.6958    1.8339    0.5149 H   0  0  0  0  0  0  0  0  0  0  0  0
    2.9126   -0.3945    1.3974 H   0  0  0  0  0  0  0  0  0  0  0  0
    6.0604    0.7732    0.4765 H   0  0  0  0  0  0  0  0  0  0  0  0
 16 15  2  0
 17 15  1  0
 15 14  1  0
 12 14  1  0
 12 11  1  0
 14 13  1  0
 11 10  1  0
 13  9  1  0
 10  9  2  0
 10  4  1  0
  9  8  1  0
  4  3  1  0
  4  7  2  0
  3  2  2  0
  8  7  1  0
  7  6  1  0
  2  1  1  0
  2  5  1  0
  6  5  2  0
  3 18  1  0
  5 19  1  0
  6 20  1  0
  8 21  1  0
 11 22  1  0
 11 23  1  0
 12 24  1  0
 12 25  1  0
 13 26  1  0
 13 27  1  0
 14 28  1  1
 17 29  1  0
M  END
