
     RDKit          3D

 45 47  0  0  0  0  0  0  0  0999 V2000
    8.8537   -0.2380    0.8954 C   0  0  0  0  0  0  0  0  0  0  0  0
    7.3318   -0.2398    0.9471 C   0  0  0  0  0  0  0  0  0  0  0  0
    6.6688   -0.5996   -0.3901 C   0  0  1  0  0  0  0  0  0  0  0  0
    7.0157   -2.0164   -0.8488 C   0  0  0  0  0  0  0  0  0  0  0  0
    5.1742   -0.4047   -0.3092 C   0  0  0  0  0  0  0  0  0  0  0  0
    4.5410    0.5814   -1.0595 C   0  0  0  0  0  0  0  0  0  0  0  0
    3.1702    0.7801   -0.9781 C   0  0  0  0  0  0  0  0  0  0  0  0
    4.3843   -1.1995    0.5229 C   0  0  0  0  0  0  0  0  0  0  0  0
    3.0140   -1.0160    0.5969 C   0  0  0  0  0  0  0  0  0  0  0  0
    2.3881   -0.0140   -0.1446 C   0  0  0  0  0  0  0  0  0  0  0  0
    0.9159    0.1341   -0.0814 C   0  0  0  0  0  0  0  0  0  0  0  0
    0.2368   -0.9766   -0.1989 N   0  0  0  0  0  0  0  0  0  0  0  0
   -1.1097   -0.9495   -0.1814 C   0  0  0  0  0  0  0  0  0  0  0  0
   -1.8065   -2.1701   -0.3235 C   0  0  0  0  0  0  0  0  0  0  0  0
   -3.1719   -2.1983   -0.3412 C   0  0  0  0  0  0  0  0  0  0  0  0
   -3.8849   -0.9893   -0.2163 C   0  0  0  0  0  0  0  0  0  0  0  0
   -5.7692   -1.0484   -0.2538 Br  0  0  0  0  0  0  0  0  0  0  0  0
   -3.2505    0.2133   -0.0685 C   0  0  0  0  0  0  0  0  0  0  0  0
   -1.8375    0.2532   -0.0434 C   0  0  0  0  0  0  0  0  0  0  0  0
   -1.0794    1.4417    0.1110 C   0  0  0  0  0  0  0  0  0  0  0  0
   -1.7995    2.7333    0.3390 C   0  0  0  0  0  0  0  0  0  0  0  0
   -2.4578    2.9589    1.3211 O   0  0  0  0  0  0  0  0  0  0  0  0
   -1.6304    3.5733   -0.6647 O   0  0  0  0  0  0  0  0  0  0  0  0
    0.2932    1.4090    0.1140 C   0  0  0  0  0  0  0  0  0  0  0  0
    1.1085    2.6431    0.3775 C   0  0  0  0  0  0  0  0  0  0  0  0
    9.2745    0.0890    1.8466 H   0  0  0  0  0  0  0  0  0  0  0  0
    9.2595   -1.2275    0.6838 H   0  0  0  0  0  0  0  0  0  0  0  0
    9.2183    0.4406    0.1216 H   0  0  0  0  0  0  0  0  0  0  0  0
    6.9896   -0.9353    1.7201 H   0  0  0  0  0  0  0  0  0  0  0  0
    6.9851    0.7511    1.2529 H   0  0  0  0  0  0  0  0  0  0  0  0
    7.0503    0.0980   -1.1439 H   0  0  0  0  0  0  0  0  0  0  0  0
    8.0873   -2.1282   -1.0150 H   0  0  0  0  0  0  0  0  0  0  0  0
    6.7194   -2.7589   -0.1052 H   0  0  0  0  0  0  0  0  0  0  0  0
    6.5111   -2.2611   -1.7840 H   0  0  0  0  0  0  0  0  0  0  0  0
    5.1273    1.2054   -1.7237 H   0  0  0  0  0  0  0  0  0  0  0  0
    2.7127    1.5475   -1.5897 H   0  0  0  0  0  0  0  0  0  0  0  0
    4.8392   -1.9791    1.1232 H   0  0  0  0  0  0  0  0  0  0  0  0
    2.4217   -1.6502    1.2441 H   0  0  0  0  0  0  0  0  0  0  0  0
   -1.2347   -3.0830   -0.4265 H   0  0  0  0  0  0  0  0  0  0  0  0
   -3.6952   -3.1378   -0.4559 H   0  0  0  0  0  0  0  0  0  0  0  0
   -3.8285    1.1220    0.0280 H   0  0  0  0  0  0  0  0  0  0  0  0
   -2.0900    4.4100   -0.4879 H   0  0  0  0  0  0  0  0  0  0  0  0
    1.3552    3.1709   -0.5445 H   0  0  0  0  0  0  0  0  0  0  0  0
    0.5849    3.3452    1.0247 H   0  0  0  0  0  0  0  0  0  0  0  0
    2.0444    2.3929    0.8719 H   0  0  0  0  0  0  0  0  0  0  0  0
  1  2  1  0
 14 15  2  0
 14 13  1  0
 15 16  1  0
  2  3  1  0
  8  9  1  0
  8  5  2  0
  9 10  2  0
  3  5  1  0
  3  4  1  0
 12 13  2  0
 12 11  1  0
 13 19  1  0
 16 17  1  0
 16 18  2  0
  5  6  1  0
 10 11  1  0
 10  7  1  0
 11 24  2  0
  6  7  2  0
 19 18  1  0
 19 20  2  0
 24 20  1  0
 24 25  1  0
 20 21  1  0
 21 22  2  0
 21 23  1  0
  1 26  1  0
  1 27  1  0
  1 28  1  0
  2 29  1  0
  2 30  1  0
  3 31  1  6
  4 32  1  0
  4 33  1  0
  4 34  1  0
  6 35  1  0
  7 36  1  0
  8 37  1  0
  9 38  1  0
 14 39  1  0
 15 40  1  0
 18 41  1  0
 23 42  1  0
 25 43  1  0
 25 44  1  0
 25 45  1  0
M  END
