
     RDKit          3D

 22 21  0  0  0  0  0  0  0  0999 V2000
    1.9304   -0.0819   -2.0681 N   0  0  0  0  0  0  0  0  0  0  0  0
    0.5630   -0.4119   -1.7330 C   0  0  1  0  0  0  0  0  0  0  0  0
   -0.0052    0.2139   -0.4458 C   0  0  0  0  0  0  0  0  0  0  0  0
    0.5987   -0.4043    0.7926 C   0  0  0  0  0  0  0  0  0  0  0  0
   -0.1780    0.1514    2.2196 S   0  0  2  0  0  0  0  0  0  0  0  0
    0.4806   -0.9538    3.3124 C   0  0  0  0  0  0  0  0  0  0  0  0
   -0.3695   -0.0044   -2.8634 C   0  0  0  0  0  0  0  0  0  0  0  0
   -0.3489    1.0161   -3.5534 O   0  0  0  0  0  0  0  0  0  0  0  0
   -1.3438   -0.9180   -3.1144 O   0  0  0  0  0  0  0  0  0  0  0  0
   -1.5580   -0.0496    2.1214 O   0  0  0  0  0  0  0  0  0  0  0  0
    0.2776    1.4389    2.5183 O   0  0  0  0  0  0  0  0  0  0  0  0
    2.5602   -0.7013   -1.5995 H   0  0  0  0  0  0  0  0  0  0  0  0
    2.1458    0.8667   -1.8277 H   0  0  0  0  0  0  0  0  0  0  0  0
    0.5123   -1.5391   -1.6299 H   0  0  0  0  0  0  0  0  0  0  0  0
   -1.1178    0.0474   -0.4409 H   0  0  0  0  0  0  0  0  0  0  0  0
    0.1793    1.3216   -0.4499 H   0  0  0  0  0  0  0  0  0  0  0  0
    1.6938   -0.1630    0.8303 H   0  0  0  0  0  0  0  0  0  0  0  0
    0.5365   -1.5207    0.6995 H   0  0  0  0  0  0  0  0  0  0  0  0
    0.2947   -0.6352    4.3710 H   0  0  0  0  0  0  0  0  0  0  0  0
    0.0388   -1.9765    3.2185 H   0  0  0  0  0  0  0  0  0  0  0  0
    1.5875   -1.0737    3.2231 H   0  0  0  0  0  0  0  0  0  0  0  0
   -1.9060   -0.6046   -3.8428 H   0  0  0  0  0  0  0  0  0  0  0  0
  1  2  1  0
  1 12  1  0
  1 13  1  0
  2  3  1  0
  2  7  1  0
  2 14  1  1
  3  4  1  0
  3 15  1  0
  3 16  1  0
  5  4  1  6
  4 17  1  0
  4 18  1  0
  5  6  1  0
  5 10  2  0
  5 11  2  0
  6 19  1  0
  6 20  1  0
  6 21  1  0
  7  8  2  0
  7  9  1  0
  9 22  1  0
M  END
