
     RDKit          3D

 24 25  0  0  0  0  0  0  0  0999 V2000
    0.7342   -0.0522   -0.0718 C   0  0  0  0  0  0  0  0  0  0  0  0
    1.4554   -1.1661    0.3641 C   0  0  0  0  0  0  0  0  0  0  0  0
    2.8393   -1.1754    0.3805 C   0  0  0  0  0  0  0  0  0  0  0  0
    3.5492   -0.0539   -0.0430 C   0  0  0  0  0  0  0  0  0  0  0  0
    4.8957   -0.1085   -0.0106 O   0  0  0  0  0  0  0  0  0  0  0  0
    2.8491    1.0675   -0.4793 C   0  0  0  0  0  0  0  0  0  0  0  0
    1.4631    1.0605   -0.4912 C   0  0  0  0  0  0  0  0  0  0  0  0
   -0.7409   -0.0544   -0.0878 C   0  0  0  0  0  0  0  0  0  0  0  0
   -1.4721    1.0870    0.2409 C   0  0  0  0  0  0  0  0  0  0  0  0
   -2.8582    1.0902    0.2285 C   0  0  0  0  0  0  0  0  0  0  0  0
   -3.5559   -0.0641   -0.1160 C   0  0  0  0  0  0  0  0  0  0  0  0
   -2.8438   -1.2146   -0.4477 C   0  0  0  0  0  0  0  0  0  0  0  0
   -1.4599   -1.2013   -0.4323 C   0  0  0  0  0  0  0  0  0  0  0  0
   -4.9023   -0.1234   -0.1444 O   0  0  0  0  0  0  0  0  0  0  0  0
    0.9278   -2.0432    0.7181 H   0  0  0  0  0  0  0  0  0  0  0  0
    0.9446    1.9381   -0.8567 H   0  0  0  0  0  0  0  0  0  0  0  0
    3.3728   -2.0498    0.7320 H   0  0  0  0  0  0  0  0  0  0  0  0
    5.2738    0.7174   -0.3323 H   0  0  0  0  0  0  0  0  0  0  0  0
    3.3827    1.9469   -0.8223 H   0  0  0  0  0  0  0  0  0  0  0  0
   -0.9558    1.9925    0.5351 H   0  0  0  0  0  0  0  0  0  0  0  0
   -0.9309   -2.1034   -0.7144 H   0  0  0  0  0  0  0  0  0  0  0  0
   -3.3937    1.9930    0.5001 H   0  0  0  0  0  0  0  0  0  0  0  0
   -3.3757   -2.1155   -0.7276 H   0  0  0  0  0  0  0  0  0  0  0  0
   -5.2814    0.7216    0.1213 H   0  0  0  0  0  0  0  0  0  0  0  0
  1  2  2  0
  1  7  1  0
  1  8  1  0
  2  3  1  0
  3  4  2  0
  4  5  1  0
  4  6  1  0
  6  7  2  0
  8  9  2  0
  8 13  1  0
  9 10  1  0
 10 11  2  0
 11 12  1  0
 11 14  1  0
 12 13  2  0
  2 15  1  0
  7 16  1  0
  3 17  1  0
  5 18  1  0
  6 19  1  0
  9 20  1  0
 13 21  1  0
 10 22  1  0
 12 23  1  0
 14 24  1  0
M  END
