
     RDKit          3D

 59 58  0  0  0  0  0  0  0  0999 V2000
   -1.9465   -2.5605    1.7314 O   0  0  0  0  0  0  0  0  0  0  0  0
   -2.0844   -1.9365    0.6859 C   0  0  0  0  0  0  0  0  0  0  0  0
   -3.4834   -1.5770    0.1892 C   0  0  2  0  0  0  0  0  0  0  0  0
   -3.6690   -0.0540    0.2160 C   0  0  1  0  0  0  0  0  0  0  0  0
   -5.0688    0.3425   -0.2623 C   0  0  0  0  0  0  0  0  0  0  0  0
   -5.2221    1.8440   -0.4719 C   0  0  0  0  0  0  0  0  0  0  0  0
   -6.6288    2.2491   -0.8943 C   0  0  0  0  0  0  0  0  0  0  0  0
   -6.7689    3.7476   -1.1210 C   0  0  0  0  0  0  0  0  0  0  0  0
   -3.3112    0.4362    1.5383 N   0  0  0  0  0  0  0  0  0  0  0  0
   -4.4271   -2.2255    0.9949 O   0  0  0  0  0  0  0  0  0  0  0  0
   -1.0662   -1.5332   -0.0778 N   0  0  0  0  0  0  0  0  0  0  0  0
    0.3140   -1.7151    0.2897 C   0  0  1  0  0  0  0  0  0  0  0  0
    0.8801   -3.0393   -0.2153 C   0  0  0  0  0  0  0  0  0  0  0  0
    0.8333   -3.0305   -1.6169 O   0  0  0  0  0  0  0  0  0  0  0  0
    1.1242   -0.5500   -0.2702 C   0  0  0  0  0  0  0  0  0  0  0  0
    0.7353    0.1236   -1.2097 O   0  0  0  0  0  0  0  0  0  0  0  0
    2.2911   -0.3372    0.3560 N   0  0  0  0  0  0  0  0  0  0  0  0
    3.2648    0.6037   -0.1266 C   0  0  1  0  0  0  0  0  0  0  0  0
    4.2850    0.9202    0.9721 C   0  0  0  0  0  0  0  0  0  0  0  0
    3.6883    1.5864    2.2151 C   0  0  1  0  0  0  0  0  0  0  0  0
    4.7760    1.7365    3.2739 C   0  0  0  0  0  0  0  0  0  0  0  0
    3.0563    2.9351    1.8894 C   0  0  0  0  0  0  0  0  0  0  0  0
    3.9699    0.0476   -1.3567 C   0  0  0  0  0  0  0  0  0  0  0  0
    3.9766   -1.1120   -1.6749 O   0  0  0  0  0  0  0  0  0  0  0  0
    4.5935    1.0095   -2.0164 O   0  0  0  0  0  0  0  0  0  0  0  0
    5.3507    0.6400   -3.1704 C   0  0  0  0  0  0  0  0  0  0  0  0
   -3.5911   -1.9223   -0.8482 H   0  0  0  0  0  0  0  0  0  0  0  0
   -2.9480    0.3714   -0.4918 H   0  0  0  0  0  0  0  0  0  0  0  0
   -5.8104   -0.0058    0.4636 H   0  0  0  0  0  0  0  0  0  0  0  0
   -5.2937   -0.1702   -1.2041 H   0  0  0  0  0  0  0  0  0  0  0  0
   -4.5044    2.1788   -1.2294 H   0  0  0  0  0  0  0  0  0  0  0  0
   -4.9619    2.3795    0.4474 H   0  0  0  0  0  0  0  0  0  0  0  0
   -7.3408    1.9245   -0.1293 H   0  0  0  0  0  0  0  0  0  0  0  0
   -6.9023    1.7125   -1.8080 H   0  0  0  0  0  0  0  0  0  0  0  0
   -6.0992    4.0913   -1.9117 H   0  0  0  0  0  0  0  0  0  0  0  0
   -7.7855    4.0163   -1.4096 H   0  0  0  0  0  0  0  0  0  0  0  0
   -6.5223    4.3082   -0.2172 H   0  0  0  0  0  0  0  0  0  0  0  0
   -3.2805    1.4470    1.5372 H   0  0  0  0  0  0  0  0  0  0  0  0
   -4.0322    0.1796    2.2033 H   0  0  0  0  0  0  0  0  0  0  0  0
   -3.9373   -2.5885    1.7480 H   0  0  0  0  0  0  0  0  0  0  0  0
   -1.2531   -1.0562   -0.9470 H   0  0  0  0  0  0  0  0  0  0  0  0
    0.3925   -1.7176    1.3796 H   0  0  0  0  0  0  0  0  0  0  0  0
    1.9017   -3.1583    0.1660 H   0  0  0  0  0  0  0  0  0  0  0  0
    0.2826   -3.8510    0.2166 H   0  0  0  0  0  0  0  0  0  0  0  0
    1.2102   -3.8543   -1.9386 H   0  0  0  0  0  0  0  0  0  0  0  0
    2.5737   -0.9701    1.0885 H   0  0  0  0  0  0  0  0  0  0  0  0
    2.7570    1.5244   -0.4235 H   0  0  0  0  0  0  0  0  0  0  0  0
    4.7903   -0.0076    1.2617 H   0  0  0  0  0  0  0  0  0  0  0  0
    5.0540    1.5753    0.5554 H   0  0  0  0  0  0  0  0  0  0  0  0
    2.9107    0.9343    2.6263 H   0  0  0  0  0  0  0  0  0  0  0  0
    5.5900    2.3711    2.9147 H   0  0  0  0  0  0  0  0  0  0  0  0
    4.3810    2.1904    4.1836 H   0  0  0  0  0  0  0  0  0  0  0  0
    5.2036    0.7696    3.5443 H   0  0  0  0  0  0  0  0  0  0  0  0
    2.6933    3.4228    2.7951 H   0  0  0  0  0  0  0  0  0  0  0  0
    3.7831    3.6027    1.4198 H   0  0  0  0  0  0  0  0  0  0  0  0
    2.2040    2.8433    1.2147 H   0  0  0  0  0  0  0  0  0  0  0  0
    6.1529   -0.0512   -2.9138 H   0  0  0  0  0  0  0  0  0  0  0  0
    4.7155    0.1896   -3.9325 H   0  0  0  0  0  0  0  0  0  0  0  0
    5.7775    1.5614   -3.5547 H   0  0  0  0  0  0  0  0  0  0  0  0
  1  2  2  0
  2  3  1  0
  2 11  1  0
  3  4  1  0
  3 10  1  0
  3 27  1  6
  4  5  1  0
  4  9  1  0
  4 28  1  6
  5  6  1  0
  5 29  1  0
  5 30  1  0
  6  7  1  0
  6 31  1  0
  6 32  1  0
  7  8  1  0
  7 33  1  0
  7 34  1  0
  8 35  1  0
  8 36  1  0
  8 37  1  0
  9 38  1  0
  9 39  1  0
 10 40  1  0
 11 12  1  0
 11 41  1  0
 12 13  1  0
 12 15  1  0
 12 42  1  1
 13 14  1  0
 13 43  1  0
 13 44  1  0
 14 45  1  0
 15 16  2  0
 15 17  1  0
 17 18  1  0
 17 46  1  0
 18 19  1  0
 18 23  1  0
 18 47  1  6
 19 20  1  0
 19 48  1  0
 19 49  1  0
 20 21  1  0
 20 22  1  0
 20 50  1  1
 21 51  1  0
 21 52  1  0
 21 53  1  0
 22 54  1  0
 22 55  1  0
 22 56  1  0
 23 24  2  0
 23 25  1  0
 25 26  1  0
 26 57  1  0
 26 58  1  0
 26 59  1  0
M  END
