
     RDKit          3D

 34 35  0  0  0  0  0  0  0  0999 V2000
   -4.1739   -1.0934   -1.1439 N   0  0  0  0  0  0  0  0  0  0  0  0
    0.6482    1.9139    0.8579 C   0  0  0  0  0  0  0  0  0  0  0  0
   -0.4230    0.8787    1.1686 C   0  0  0  0  0  0  0  0  0  0  0  0
   -0.0385   -0.2113   -0.9863 C   0  0  0  0  0  0  0  0  0  0  0  0
    1.0259    0.8187   -1.3357 C   0  0  0  0  0  0  0  0  0  0  0  0
   -2.3188   -0.0297   -0.0757 C   0  0  0  0  0  0  0  0  0  0  0  0
   -4.9457   -0.6534   -0.1504 C   0  0  0  0  0  0  0  0  0  0  0  0
    2.6381    0.3899    0.5916 C   0  0  0  0  0  0  0  0  0  0  0  0
    3.3632   -0.2974   -0.2768 O   0  0  0  0  0  0  0  0  0  0  0  0
    4.3196   -1.2420    0.2291 C   0  0  0  0  0  0  0  0  0  0  0  0
    4.9949   -1.8915   -0.9537 C   0  0  0  0  0  0  0  0  0  0  0  0
    1.7143    1.3806   -0.0923 C   0  0  2  0  0  0  0  0  0  0  0  0
   -1.0055    0.3282   -0.0472 N   0  0  0  0  0  0  0  0  0  0  0  0
   -3.1020    0.3823    0.9210 N   0  0  0  0  0  0  0  0  0  0  0  0
   -4.3912    0.0797    0.8788 C   0  0  0  0  0  0  0  0  0  0  0  0
   -2.8935   -0.8019   -1.1202 C   0  0  0  0  0  0  0  0  0  0  0  0
    0.1794    2.7835    0.3912 H   0  0  0  0  0  0  0  0  0  0  0  0
    1.0875    2.2572    1.7946 H   0  0  0  0  0  0  0  0  0  0  0  0
   -0.0020    0.0664    1.7743 H   0  0  0  0  0  0  0  0  0  0  0  0
   -1.2095    1.3376    1.7592 H   0  0  0  0  0  0  0  0  0  0  0  0
   -0.5274   -0.5052   -1.9105 H   0  0  0  0  0  0  0  0  0  0  0  0
    0.4252   -1.1182   -0.5737 H   0  0  0  0  0  0  0  0  0  0  0  0
    1.7388    0.3696   -2.0260 H   0  0  0  0  0  0  0  0  0  0  0  0
    0.5524    1.6473   -1.8673 H   0  0  0  0  0  0  0  0  0  0  0  0
   -5.9999   -0.8974   -0.1746 H   0  0  0  0  0  0  0  0  0  0  0  0
    5.0461   -0.7263    0.8600 H   0  0  0  0  0  0  0  0  0  0  0  0
    3.8097   -1.9860    0.8441 H   0  0  0  0  0  0  0  0  0  0  0  0
    5.5224   -1.1612   -1.5671 H   0  0  0  0  0  0  0  0  0  0  0  0
    5.7256   -2.6150   -0.5935 H   0  0  0  0  0  0  0  0  0  0  0  0
    4.2798   -2.4223   -1.5820 H   0  0  0  0  0  0  0  0  0  0  0  0
    2.3590    2.2118   -0.4026 H   0  0  0  0  0  0  0  0  0  0  0  0
   -5.0037    0.4331    1.7009 H   0  0  0  0  0  0  0  0  0  0  0  0
   -2.3045   -1.1902   -1.9400 H   0  0  0  0  0  0  0  0  0  0  0  0
    2.7428    0.2609    1.7873 O   0  0  0  0  0  0  0  0  0  0  0  0
 11 10  1  0
 10  9  1  0
  9  8  1  0
 34  8  2  0
  8 12  1  0
  2 12  1  0
  2  3  1  0
 12  5  1  0
  3 13  1  0
  5  4  1  0
  4 13  1  0
 14 15  2  0
 14  6  1  0
 13  6  1  0
 15  7  1  0
  6 16  2  0
  7  1  2  0
 16  1  1  0
  2 17  1  0
  2 18  1  0
  3 19  1  0
  3 20  1  0
  4 21  1  0
  4 22  1  0
  5 23  1  0
  5 24  1  0
  7 25  1  0
 10 26  1  0
 10 27  1  0
 11 28  1  0
 11 29  1  0
 11 30  1  0
 12 31  1  6
 15 32  1  0
 16 33  1  0
M  END
