
     RDKit          3D

 51 54  0  0  0  0  0  0  0  0999 V2000
    2.7508   -2.9379    0.5811 O   0  0  0  0  0  0  0  0  0  0  0  0
    2.8740   -1.7565    0.3142 C   0  0  0  0  0  0  0  0  0  0  0  0
    4.1181   -0.9855    0.2793 C   0  0  0  0  0  0  0  0  0  0  0  0
    5.4178   -1.4042    0.5328 C   0  0  0  0  0  0  0  0  0  0  0  0
    6.4540   -0.4938    0.4356 C   0  0  0  0  0  0  0  0  0  0  0  0
    6.1837    0.8386    0.0832 C   0  0  0  0  0  0  0  0  0  0  0  0
    7.1271    1.7801   -0.0326 O   0  0  0  0  0  0  0  0  0  0  0  0
    8.4803    1.4415    0.2144 C   0  0  0  0  0  0  0  0  0  0  0  0
    4.8727    1.2574   -0.1703 C   0  0  0  0  0  0  0  0  0  0  0  0
    3.8512    0.3383   -0.0692 C   0  0  0  0  0  0  0  0  0  0  0  0
    2.3810    0.5569   -0.2935 C   0  0  0  0  0  0  0  0  0  0  0  0
    1.7866   -0.8064   -0.0429 C   0  0  0  0  0  0  0  0  0  0  0  0
    0.5050   -1.1670   -0.1144 C   0  0  0  0  0  0  0  0  0  0  0  0
   -0.6332   -0.2702   -0.4605 C   0  0  1  0  0  0  0  0  0  0  0  0
   -1.3375   -0.7378   -1.7382 C   0  0  0  0  0  0  0  0  0  0  0  0
   -2.5511    0.1288   -2.0335 C   0  0  0  0  0  0  0  0  0  0  0  0
   -1.6572   -0.2204    0.6771 C   0  0  0  0  0  0  0  0  0  0  0  0
   -2.8607    0.6229    0.2890 C   0  0  0  0  0  0  0  0  0  0  0  0
   -3.4846    0.1241   -0.9228 N   0  0  0  0  0  0  0  0  0  0  0  0
   -4.6989    0.8435   -1.2410 C   0  0  0  0  0  0  0  0  0  0  0  0
   -5.8043    0.5977   -0.2456 C   0  0  0  0  0  0  0  0  0  0  0  0
   -6.6197    1.6415    0.1784 C   0  0  0  0  0  0  0  0  0  0  0  0
   -7.6687    1.4134    1.0614 C   0  0  0  0  0  0  0  0  0  0  0  0
   -7.9087    0.1331    1.5398 C   0  0  0  0  0  0  0  0  0  0  0  0
   -7.0939   -0.9154    1.1276 C   0  0  0  0  0  0  0  0  0  0  0  0
   -6.0521   -0.6847    0.2412 C   0  0  0  0  0  0  0  0  0  0  0  0
    5.6273   -2.4314    0.8038 H   0  0  0  0  0  0  0  0  0  0  0  0
    7.4641   -0.8238    0.6339 H   0  0  0  0  0  0  0  0  0  0  0  0
    9.0565    2.3486    0.0521 H   0  0  0  0  0  0  0  0  0  0  0  0
    8.6331    1.1042    1.2420 H   0  0  0  0  0  0  0  0  0  0  0  0
    8.8376    0.6697   -0.4708 H   0  0  0  0  0  0  0  0  0  0  0  0
    4.6815    2.2896   -0.4390 H   0  0  0  0  0  0  0  0  0  0  0  0
    1.9849    1.3151    0.3869 H   0  0  0  0  0  0  0  0  0  0  0  0
    0.2536   -2.2041    0.1002 H   0  0  0  0  0  0  0  0  0  0  0  0
   -0.2596    0.7459   -0.6309 H   0  0  0  0  0  0  0  0  0  0  0  0
   -0.6507   -0.6991   -2.5863 H   0  0  0  0  0  0  0  0  0  0  0  0
   -1.6539   -1.7794   -1.6246 H   0  0  0  0  0  0  0  0  0  0  0  0
   -2.2136    1.1521   -2.2768 H   0  0  0  0  0  0  0  0  0  0  0  0
   -3.0616   -0.2523   -2.9213 H   0  0  0  0  0  0  0  0  0  0  0  0
   -1.9897   -1.2353    0.9160 H   0  0  0  0  0  0  0  0  0  0  0  0
   -1.2024    0.1922    1.5803 H   0  0  0  0  0  0  0  0  0  0  0  0
   -3.5905    0.6009    1.1007 H   0  0  0  0  0  0  0  0  0  0  0  0
   -2.5479    1.6764    0.1717 H   0  0  0  0  0  0  0  0  0  0  0  0
   -4.5286    1.9300   -1.3325 H   0  0  0  0  0  0  0  0  0  0  0  0
   -5.0394    0.5090   -2.2268 H   0  0  0  0  0  0  0  0  0  0  0  0
   -6.4319    2.6464   -0.1823 H   0  0  0  0  0  0  0  0  0  0  0  0
   -8.2939    2.2382    1.3792 H   0  0  0  0  0  0  0  0  0  0  0  0
   -8.7223   -0.0465    2.2308 H   0  0  0  0  0  0  0  0  0  0  0  0
   -7.2717   -1.9169    1.4988 H   0  0  0  0  0  0  0  0  0  0  0  0
   -5.4139   -1.5024   -0.0698 H   0  0  0  0  0  0  0  0  0  0  0  0
    2.1834    0.9136   -1.3077 H   0  0  0  0  0  0  0  0  0  0  0  0
 24 23  1  0
 24 25  2  0
 23 22  2  0
 25 26  1  0
 22 21  1  0
 26 21  2  0
 21 20  1  0
 20 19  1  0
 19 16  1  0
 19 18  1  0
 16 15  1  0
 15 14  1  0
 18 17  1  0
 17 14  1  0
 14 13  1  0
 13 12  2  0
 12 11  1  0
 12  2  1  0
 11 10  1  0
  1  2  2  0
  2  3  1  0
 10  3  2  0
 10  9  1  0
  3  4  1  0
  9  6  2  0
  4  5  2  0
  6  5  1  0
  6  7  1  0
  7  8  1  0
  4 27  1  0
  5 28  1  0
  8 29  1  0
  8 30  1  0
  8 31  1  0
  9 32  1  0
 11 33  1  0
 13 34  1  0
 14 35  1  6
 15 36  1  0
 15 37  1  0
 16 38  1  0
 16 39  1  0
 17 40  1  0
 17 41  1  0
 18 42  1  0
 18 43  1  0
 20 44  1  0
 20 45  1  0
 22 46  1  0
 23 47  1  0
 24 48  1  0
 25 49  1  0
 26 50  1  0
 11 51  1  0
M  END
