
     RDKit          3D

 77 80  0  0  0  0  0  0  0  0999 V2000
    3.8624    2.7887   -2.7364 C   0  0  0  0  0  0  0  0  0  0  0  0
    3.0224    1.5730   -3.1113 C   0  0  1  0  0  0  0  0  0  0  0  0
    1.5943    1.9593   -3.4774 C   0  0  0  0  0  0  0  0  0  0  0  0
    3.6723    0.8454   -4.2822 C   0  0  0  0  0  0  0  0  0  0  0  0
    2.5604    0.8101   -0.8352 C   0  0  0  0  0  0  0  0  0  0  0  0
    2.2600   -0.3788    1.3119 C   0  0  2  0  0  0  0  0  0  0  0  0
    0.7801   -0.0559    1.5034 C   0  0  0  0  0  0  0  0  0  0  0  0
   -1.8609   -0.5485    0.9064 C   0  0  0  0  0  0  0  0  0  0  0  0
   -2.9033   -0.9369   -0.1381 C   0  0  2  0  0  0  0  0  0  0  0  0
   -3.6021   -2.9318   -1.3846 C   0  0  0  0  0  0  0  0  0  0  0  0
   -3.7517   -4.3254   -1.3788 C   0  0  0  0  0  0  0  0  0  0  0  0
   -4.5093   -4.9610   -2.3459 C   0  0  0  0  0  0  0  0  0  0  0  0
   -5.1392   -4.2320   -3.3495 C   0  0  0  0  0  0  0  0  0  0  0  0
   -4.9940   -2.8530   -3.3607 C   0  0  0  0  0  0  0  0  0  0  0  0
   -4.2394   -2.2015   -2.3934 C   0  0  0  0  0  0  0  0  0  0  0  0
   -4.2877   -0.5494    0.4043 C   0  0  0  0  0  0  0  0  0  0  0  0
   -5.8852    1.3124    0.6075 C   0  0  0  0  0  0  0  0  0  0  0  0
   -5.6177    2.1669    1.8174 C   0  0  0  0  0  0  0  0  0  0  0  0
   -5.7231    3.5505    1.7508 C   0  0  0  0  0  0  0  0  0  0  0  0
   -5.1154    3.8210    3.9242 C   0  0  0  0  0  0  0  0  0  0  0  0
   -4.9813    2.4510    4.1070 C   0  0  0  0  0  0  0  0  0  0  0  0
   -5.2380    1.6123    3.0363 C   0  0  0  0  0  0  0  0  0  0  0  0
    3.1270    0.4535    2.2693 C   0  0  0  0  0  0  0  0  0  0  0  0
    4.5737    0.0892    2.2019 C   0  0  0  0  0  0  0  0  0  0  0  0
    5.1841   -0.9360    2.8696 C   0  0  0  0  0  0  0  0  0  0  0  0
    6.7931   -0.0094    1.6409 C   0  0  0  0  0  0  0  0  0  0  0  0
    5.5942    0.7008    1.4025 C   0  0  0  0  0  0  0  0  0  0  0  0
    5.6182    1.7888    0.5215 C   0  0  0  0  0  0  0  0  0  0  0  0
    6.8076    2.1313   -0.0909 C   0  0  0  0  0  0  0  0  0  0  0  0
    7.9861    1.4067    0.1561 C   0  0  0  0  0  0  0  0  0  0  0  0
    7.9961    0.3310    1.0227 C   0  0  0  0  0  0  0  0  0  0  0  0
    2.6840   -0.2932   -0.0707 N   0  0  0  0  0  0  0  0  0  0  0  0
   -2.8018   -2.3383   -0.4258 N   0  0  0  0  0  0  0  0  0  0  0  0
   -4.6819    0.6939    0.0923 N   0  0  0  0  0  0  0  0  0  0  0  0
   -5.4815    4.3656    2.7716 N   0  0  0  0  0  0  0  0  0  0  0  0
    6.5073   -0.9992    2.5337 N   0  0  0  0  0  0  0  0  0  0  0  0
    3.0373    0.5751   -2.0584 O   0  0  0  0  0  0  0  0  0  0  0  0
    2.0802    1.8600   -0.4553 O   0  0  0  0  0  0  0  0  0  0  0  0
   -4.9348   -1.3235    1.0899 O   0  0  0  0  0  0  0  0  0  0  0  0
   -0.2087   -0.9865    0.2993 S   0  0  0  0  0  0  0  0  0  0  0  0
    3.4143    3.3785   -1.9400 H   0  0  0  0  0  0  0  0  0  0  0  0
    4.8643    2.4882   -2.4255 H   0  0  0  0  0  0  0  0  0  0  0  0
    3.9662    3.4336   -3.6102 H   0  0  0  0  0  0  0  0  0  0  0  0
    1.6127    2.5992   -4.3607 H   0  0  0  0  0  0  0  0  0  0  0  0
    1.0028    1.0760   -3.7245 H   0  0  0  0  0  0  0  0  0  0  0  0
    1.0916    2.5043   -2.6821 H   0  0  0  0  0  0  0  0  0  0  0  0
    4.6902    0.5351   -4.0416 H   0  0  0  0  0  0  0  0  0  0  0  0
    3.1013   -0.0395   -4.5674 H   0  0  0  0  0  0  0  0  0  0  0  0
    3.7199    1.5052   -5.1484 H   0  0  0  0  0  0  0  0  0  0  0  0
    2.3986   -1.4287    1.5784 H   0  0  0  0  0  0  0  0  0  0  0  0
    0.4888   -0.3512    2.5130 H   0  0  0  0  0  0  0  0  0  0  0  0
    0.5857    1.0101    1.3919 H   0  0  0  0  0  0  0  0  0  0  0  0
   -1.9029    0.5281    1.0801 H   0  0  0  0  0  0  0  0  0  0  0  0
   -2.0645   -1.0491    1.8566 H   0  0  0  0  0  0  0  0  0  0  0  0
   -2.6859   -0.3655   -1.0463 H   0  0  0  0  0  0  0  0  0  0  0  0
   -3.2662   -4.9088   -0.6046 H   0  0  0  0  0  0  0  0  0  0  0  0
   -4.6103   -6.0386   -2.3129 H   0  0  0  0  0  0  0  0  0  0  0  0
   -5.7303   -4.7313   -4.1055 H   0  0  0  0  0  0  0  0  0  0  0  0
   -5.4756   -2.2642   -4.1313 H   0  0  0  0  0  0  0  0  0  0  0  0
   -4.1528   -1.1237   -2.4426 H   0  0  0  0  0  0  0  0  0  0  0  0
   -6.6013    0.5266    0.8448 H   0  0  0  0  0  0  0  0  0  0  0  0
   -6.3257    1.9164   -0.1860 H   0  0  0  0  0  0  0  0  0  0  0  0
   -6.0224    4.0216    0.8188 H   0  0  0  0  0  0  0  0  0  0  0  0
   -4.9199    4.5032    4.7441 H   0  0  0  0  0  0  0  0  0  0  0  0
   -4.6847    2.0560    5.0688 H   0  0  0  0  0  0  0  0  0  0  0  0
   -5.1507    0.5386    3.1485 H   0  0  0  0  0  0  0  0  0  0  0  0
    2.9884    1.5162    2.0606 H   0  0  0  0  0  0  0  0  0  0  0  0
    2.7509    0.2866    3.2820 H   0  0  0  0  0  0  0  0  0  0  0  0
    4.7646   -1.6371    3.5751 H   0  0  0  0  0  0  0  0  0  0  0  0
    4.7184    2.3570    0.3212 H   0  0  0  0  0  0  0  0  0  0  0  0
    6.8367    2.9714   -0.7733 H   0  0  0  0  0  0  0  0  0  0  0  0
    8.9026    1.6969   -0.3414 H   0  0  0  0  0  0  0  0  0  0  0  0
    8.9048   -0.2258    1.2146 H   0  0  0  0  0  0  0  0  0  0  0  0
    3.1448   -1.0953   -0.4663 H   0  0  0  0  0  0  0  0  0  0  0  0
   -2.6605   -2.9113    0.3931 H   0  0  0  0  0  0  0  0  0  0  0  0
   -4.0688    1.2711   -0.4615 H   0  0  0  0  0  0  0  0  0  0  0  0
    7.1653   -1.6627    2.9058 H   0  0  0  0  0  0  0  0  0  0  0  0
 36 25  1  0
 36 26  1  0
 25 24  2  0
 20 21  2  0
 20 35  1  0
 26 31  2  0
 26 27  1  0
 31 30  1  0
 21 22  1  0
 24 27  1  0
 24 23  1  0
 35 19  2  0
 27 28  2  0
 23  6  1  0
 30 29  2  0
 22 18  2  0
  6 32  1  0
  6  7  1  0
 19 18  1  0
 28 29  1  0
  1  2  1  0
 32  5  1  0
 18 17  1  0
  7 40  1  0
  4  2  1  0
  2 37  1  1
 37  5  1  0
  2  3  1  0
  5 38  2  0
 17 34  1  0
 34 16  1  0
  8 40  1  0
  8  9  1  0
 33  9  1  0
 33 10  1  0
 16  9  1  0
 16 39  2  0
 15 10  1  0
 15 14  2  0
 10 11  2  0
 14 13  1  0
 11 12  1  0
 13 12  2  0
  1 41  1  0
  1 42  1  0
  1 43  1  0
  3 44  1  0
  3 45  1  0
  3 46  1  0
  4 47  1  0
  4 48  1  0
  4 49  1  0
  6 50  1  1
  7 51  1  0
  7 52  1  0
  8 53  1  0
  8 54  1  0
  9 55  1  6
 11 56  1  0
 12 57  1  0
 13 58  1  0
 14 59  1  0
 15 60  1  0
 17 61  1  0
 17 62  1  0
 19 63  1  0
 20 64  1  0
 21 65  1  0
 22 66  1  0
 23 67  1  0
 23 68  1  0
 25 69  1  0
 28 70  1  0
 29 71  1  0
 30 72  1  0
 31 73  1  0
 32 74  1  0
 33 75  1  0
 34 76  1  0
 36 77  1  0
M  END
