
     RDKit          3D

 49 51  0  0  0  0  0  0  0  0999 V2000
   -7.3023   -0.5060   -1.0862 N   0  0  0  0  0  0  0  0  0  0  0  0
   -7.5153    0.7164    3.0917 O   0  0  0  0  0  0  0  0  0  0  0  0
   -6.3441    0.2245    1.0839 C   0  0  0  0  0  0  0  0  0  0  0  0
   -0.8733   -0.1528    0.4740 C   0  0  0  0  0  0  0  0  0  0  0  0
    3.2681    0.4692   -0.8980 C   0  0  0  0  0  0  0  0  0  0  0  0
    3.5390    1.0644    0.3316 C   0  0  0  0  0  0  0  0  0  0  0  0
    4.7245    0.8086    1.0019 C   0  0  0  0  0  0  0  0  0  0  0  0
    5.6464   -0.0542    0.4320 C   0  0  0  0  0  0  0  0  0  0  0  0
    7.8952    0.3835    0.9008 C   0  0  1  0  0  0  0  0  0  0  0  0
    5.4027   -0.6675   -0.7828 C   0  0  0  0  0  0  0  0  0  0  0  0
    4.2075   -0.4015   -1.4382 C   0  0  0  0  0  0  0  0  0  0  0  0
   -6.1913   -0.0093   -0.2868 C   0  0  0  0  0  0  0  0  0  0  0  0
   -5.0043    0.1942   -0.9690 C   0  0  0  0  0  0  0  0  0  0  0  0
   -5.1972    0.6769    1.7304 C   0  0  0  0  0  0  0  0  0  0  0  0
   -3.9892    0.8679    1.0822 C   0  0  0  0  0  0  0  0  0  0  0  0
   -3.8635    0.6348   -0.2927 C   0  0  0  0  0  0  0  0  0  0  0  0
   -1.4385    1.0555   -0.3211 C   0  0  1  0  0  0  0  0  0  0  0  0
   -0.3467    1.3622   -1.3522 C   0  0  0  0  0  0  0  0  0  0  0  0
    0.4512   -0.4660   -0.2144 C   0  0  0  0  0  0  0  0  0  0  0  0
    7.6996    1.6796    1.1542 F   0  0  0  0  0  0  0  0  0  0  0  0
    8.3195    0.3008   -0.3624 F   0  0  0  0  0  0  0  0  0  0  0  0
    8.8618   -0.0541    1.6927 F   0  0  0  0  0  0  0  0  0  0  0  0
   -2.7021    0.8446   -0.9835 N   0  0  0  0  0  0  0  0  0  0  0  0
    0.8526    0.8218   -0.7520 N   0  0  0  0  0  0  0  0  0  0  0  0
   -7.3308   -0.2315   -2.2631 O   0  0  0  0  0  0  0  0  0  0  0  0
   -8.1410   -1.1827   -0.5361 O   0  0  0  0  0  0  0  0  0  0  0  0
    6.8097   -0.3608    1.1343 O   0  0  0  0  0  0  0  0  0  0  0  0
   -7.8087   -1.0257    2.0147 H   0  0  0  0  0  0  0  0  0  0  0  0
   -8.4760    0.4273    1.2856 H   0  0  0  0  0  0  0  0  0  0  0  0
   -8.2006    0.3771    3.6735 H   0  0  0  0  0  0  0  0  0  0  0  0
   -0.7064    0.1227    1.5160 H   0  0  0  0  0  0  0  0  0  0  0  0
   -1.5560   -1.0026    0.4652 H   0  0  0  0  0  0  0  0  0  0  0  0
    2.0901    1.7598   -2.1120 H   0  0  0  0  0  0  0  0  0  0  0  0
    1.8567    0.0510   -2.4526 H   0  0  0  0  0  0  0  0  0  0  0  0
    2.8088    1.7274    0.7769 H   0  0  0  0  0  0  0  0  0  0  0  0
    4.9195    1.2637    1.9641 H   0  0  0  0  0  0  0  0  0  0  0  0
    6.1172   -1.3599   -1.2078 H   0  0  0  0  0  0  0  0  0  0  0  0
    4.0062   -0.8866   -2.3856 H   0  0  0  0  0  0  0  0  0  0  0  0
   -4.9486   -0.0010   -2.0318 H   0  0  0  0  0  0  0  0  0  0  0  0
   -5.2405    0.8850    2.7893 H   0  0  0  0  0  0  0  0  0  0  0  0
   -3.1417    1.2021    1.6659 H   0  0  0  0  0  0  0  0  0  0  0  0
   -1.5459    1.9138    0.3460 H   0  0  0  0  0  0  0  0  0  0  0  0
   -0.5907    0.8644   -2.3082 H   0  0  0  0  0  0  0  0  0  0  0  0
   -0.2436    2.4290   -1.5578 H   0  0  0  0  0  0  0  0  0  0  0  0
    1.2029   -0.8663    0.4673 H   0  0  0  0  0  0  0  0  0  0  0  0
    0.3061   -1.2088   -1.0174 H   0  0  0  0  0  0  0  0  0  0  0  0
   -2.6510    0.3926   -1.8836 H   0  0  0  0  0  0  0  0  0  0  0  0
   -7.6265    0.0435    1.8618 C   0  0  0  0  0  0  0  0  0  0  0  0
    1.9907    0.7794   -1.6353 C   0  0  0  0  0  0  0  0  0  0  0  0
 25  1  1  0
 26  1  2  0
  1 12  1  0
 12 13  1  0
 12  3  2  0
 13 16  2  0
 48  3  1  0
 48  2  1  0
  3 14  1  0
 23 16  1  0
 23 17  1  0
 16 15  1  0
  4 17  1  0
  4 19  1  0
 14 15  2  0
 17 18  1  0
 19 24  1  0
 18 24  1  0
 24 49  1  0
 49  5  1  0
  6  5  2  0
  6  7  1  0
  5 11  1  0
  7  8  2  0
 11 10  2  0
  8 10  1  0
  8 27  1  0
 27  9  1  0
  9 22  1  1
  9 20  1  0
  9 21  1  0
 48 28  1  0
 48 29  1  0
  2 30  1  0
  4 31  1  0
  4 32  1  0
 49 33  1  0
 49 34  1  0
  6 35  1  0
  7 36  1  0
 10 37  1  0
 11 38  1  0
 13 39  1  0
 14 40  1  0
 15 41  1  0
 17 42  1  1
 18 43  1  0
 18 44  1  0
 19 45  1  0
 19 46  1  0
 23 47  1  0
M  CHG  2   1   1  25  -1
M  END
