
     RDKit          3D

 36 37  0  0  0  0  0  0  0  0999 V2000
    1.8486    2.2279    0.8285 N   0  0  0  0  0  0  0  0  0  0  0  0
    1.0159    1.8306   -1.3418 N   0  0  0  0  0  0  0  0  0  0  0  0
    1.1369   -1.4036    0.5671 C   0  0  0  0  0  0  0  0  0  0  0  0
    1.2829   -3.8049    0.5579 C   0  0  0  0  0  0  0  0  0  0  0  0
    2.5969   -2.5365   -1.0881 C   0  0  0  0  0  0  0  0  0  0  0  0
    0.6014    0.4920   -1.0116 C   0  0  2  0  0  0  0  0  0  0  0  0
   -0.8503    0.4265   -0.5781 C   0  0  0  0  0  0  0  0  0  0  0  0
   -2.8127    1.3860    0.4828 C   0  0  0  0  0  0  0  0  0  0  0  0
   -1.6212   -0.6900   -0.8632 C   0  0  0  0  0  0  0  0  0  0  0  0
    2.1579    0.5666    2.4985 C   0  0  0  0  0  0  0  0  0  0  0  0
    1.8299    0.9829    1.1060 C   0  0  0  0  0  0  0  0  0  0  0  0
    1.5991   -0.0561    0.0304 C   0  0  1  0  0  0  0  0  0  0  0  0
    1.6817   -2.5104    0.0378 N   0  0  0  0  0  0  0  0  0  0  0  0
    0.2786   -1.4417    1.4387 O   0  0  0  0  0  0  0  0  0  0  0  0
   -1.4826    1.4639    0.0969 C   0  0  0  0  0  0  0  0  0  0  0  0
   -3.5215    0.2438    0.1696 C   0  0  0  0  0  0  0  0  0  0  0  0
   -4.8076    0.1519    0.5290 F   0  0  0  0  0  0  0  0  0  0  0  0
   -2.9488   -0.8141   -0.5088 C   0  0  0  0  0  0  0  0  0  0  0  0
   -1.0524   -1.7147   -1.5168 F   0  0  0  0  0  0  0  0  0  0  0  0
    1.6297    2.6708   -0.4863 C   0  0  0  0  0  0  0  0  0  0  0  0
    1.9866    3.7908   -0.8054 O   0  0  0  0  0  0  0  0  0  0  0  0
    0.7849    2.1847   -2.2580 H   0  0  0  0  0  0  0  0  0  0  0  0
    0.4195   -4.2002    0.0187 H   0  0  0  0  0  0  0  0  0  0  0  0
    2.1100   -4.5020    0.4418 H   0  0  0  0  0  0  0  0  0  0  0  0
    1.0347   -3.7402    1.6130 H   0  0  0  0  0  0  0  0  0  0  0  0
    3.6388   -2.5490   -0.7631 H   0  0  0  0  0  0  0  0  0  0  0  0
    2.4131   -3.4364   -1.6717 H   0  0  0  0  0  0  0  0  0  0  0  0
    2.4508   -1.6968   -1.7617 H   0  0  0  0  0  0  0  0  0  0  0  0
    0.7167   -0.1055   -1.9170 H   0  0  0  0  0  0  0  0  0  0  0  0
   -3.2859    2.2034    1.0092 H   0  0  0  0  0  0  0  0  0  0  0  0
    2.5845    1.4020    3.0474 H   0  0  0  0  0  0  0  0  0  0  0  0
    1.2626    0.2221    3.0144 H   0  0  0  0  0  0  0  0  0  0  0  0
    2.8640   -0.2655    2.4995 H   0  0  0  0  0  0  0  0  0  0  0  0
    2.5691   -0.1383   -0.4706 H   0  0  0  0  0  0  0  0  0  0  0  0
   -0.9394    2.3679    0.3349 H   0  0  0  0  0  0  0  0  0  0  0  0
   -3.5127   -1.7040   -0.7563 H   0  0  0  0  0  0  0  0  0  0  0  0
 10 11  1  0
  1 11  2  0
  1 20  1  0
 11 12  1  0
 14  3  2  0
 21 20  2  0
 20  2  1  0
 12  3  1  0
 12  6  1  0
  3 13  1  0
  2  6  1  0
 13  4  1  0
 13  5  1  0
  6  7  1  0
 15  7  1  0
 15  8  2  0
  7  9  2  0
  8 16  1  0
  9 19  1  0
  9 18  1  0
 16 18  2  0
 16 17  1  0
  2 22  1  0
  4 23  1  0
  4 24  1  0
  4 25  1  0
  5 26  1  0
  5 27  1  0
  5 28  1  0
  6 29  1  6
  8 30  1  0
 10 31  1  0
 10 32  1  0
 10 33  1  0
 12 34  1  6
 15 35  1  0
 18 36  1  0
M  END
