
     RDKit          3D

 39 41  0  0  0  0  0  0  0  0999 V2000
    0.5375   -0.1902    0.8390 O   0  0  0  0  0  0  0  0  0  0  0  0
   -3.4315    0.1860    2.6660 Cl  0  0  0  0  0  0  0  0  0  0  0  0
   -4.7845    2.5320   -1.9470 Cl  0  0  0  0  0  0  0  0  0  0  0  0
    6.6712    1.4765   -0.8345 Cl  0  0  0  0  0  0  0  0  0  0  0  0
   -0.7371   -0.4979    1.3416 C   0  0  1  0  0  0  0  0  0  0  0  0
   -1.7418    0.2877    0.5387 C   0  0  0  0  0  0  0  0  0  0  0  0
   -3.6191    1.6699   -1.0010 C   0  0  0  0  0  0  0  0  0  0  0  0
    1.6108   -0.6091    1.6500 C   0  0  0  0  0  0  0  0  0  0  0  0
   -1.0462   -2.0054    1.2650 C   0  0  0  0  0  0  0  0  0  0  0  0
   -2.9931    0.6245    1.0442 C   0  0  0  0  0  0  0  0  0  0  0  0
   -2.1448   -2.8170   -0.8290 N   0  0  0  0  0  0  0  0  0  0  0  0
   -1.4671    0.6646   -0.7736 C   0  0  0  0  0  0  0  0  0  0  0  0
    3.0739    1.2753    0.8685 C   0  0  0  0  0  0  0  0  0  0  0  0
    3.8741   -0.9666    0.6143 C   0  0  0  0  0  0  0  0  0  0  0  0
    0.0903   -2.7881   -0.9093 C   0  0  0  0  0  0  0  0  0  0  0  0
   -3.9373    1.3132    0.2974 C   0  0  0  0  0  0  0  0  0  0  0  0
   -2.3879    1.3499   -1.5479 C   0  0  0  0  0  0  0  0  0  0  0  0
   -0.4062   -3.2228   -2.1031 N   0  0  0  0  0  0  0  0  0  0  0  0
    4.2357    1.7643    0.2948 C   0  0  0  0  0  0  0  0  0  0  0  0
    5.0477   -0.4953    0.0398 C   0  0  0  0  0  0  0  0  0  0  0  0
   -1.7490   -3.2232   -2.0085 C   0  0  0  0  0  0  0  0  0  0  0  0
    2.8798   -0.0939    1.0374 C   0  0  0  0  0  0  0  0  0  0  0  0
   -1.0039   -2.5400   -0.1250 C   0  0  0  0  0  0  0  0  0  0  0  0
    5.2146    0.8698   -0.1158 C   0  0  0  0  0  0  0  0  0  0  0  0
   -0.8011   -0.1972    2.3971 H   0  0  0  0  0  0  0  0  0  0  0  0
    1.4918   -0.2194    2.6705 H   0  0  0  0  0  0  0  0  0  0  0  0
    1.6622   -1.7011    1.7309 H   0  0  0  0  0  0  0  0  0  0  0  0
   -0.3510   -2.5427    1.9151 H   0  0  0  0  0  0  0  0  0  0  0  0
   -2.0395   -2.1768    1.6829 H   0  0  0  0  0  0  0  0  0  0  0  0
   -0.5091    0.4147   -1.2057 H   0  0  0  0  0  0  0  0  0  0  0  0
    2.3136    1.9757    1.1913 H   0  0  0  0  0  0  0  0  0  0  0  0
    3.7404   -2.0353    0.7324 H   0  0  0  0  0  0  0  0  0  0  0  0
    1.1477   -2.7018   -0.7245 H   0  0  0  0  0  0  0  0  0  0  0  0
   -4.8981    1.5653    0.7240 H   0  0  0  0  0  0  0  0  0  0  0  0
   -2.1456    1.6294   -2.5638 H   0  0  0  0  0  0  0  0  0  0  0  0
    0.1338   -3.5005   -2.9068 H   0  0  0  0  0  0  0  0  0  0  0  0
    4.3786    2.8291    0.1701 H   0  0  0  0  0  0  0  0  0  0  0  0
    5.8138   -1.1865   -0.2844 H   0  0  0  0  0  0  0  0  0  0  0  0
   -2.3864   -3.5323   -2.8225 H   0  0  0  0  0  0  0  0  0  0  0  0
  1  5  1  0
  1  8  1  0
  2 10  1  0
  3  7  1  0
  4 24  1  0
  5  6  1  0
  5  9  1  0
  6 10  2  0
  6 12  1  0
  7 16  2  0
  7 17  1  0
  8 22  1  0
  9 23  1  0
 10 16  1  0
 11 21  2  0
 11 23  1  0
 12 17  2  0
 13 19  2  0
 13 22  1  0
 14 20  1  0
 14 22  2  0
 15 18  1  0
 15 23  2  0
 18 21  1  0
 19 24  1  0
 20 24  2  0
  5 25  1  1
  8 26  1  0
  8 27  1  0
  9 28  1  0
  9 29  1  0
 12 30  1  0
 13 31  1  0
 14 32  1  0
 15 33  1  0
 16 34  1  0
 17 35  1  0
 18 36  1  0
 19 37  1  0
 20 38  1  0
 21 39  1  0
M  END
