
     RDKit          3D

 51 53  0  0  0  0  0  0  0  0999 V2000
   -4.0803    0.0685    0.5443 C   0  0  0  0  0  0  0  0  0  0  0  0
   -2.8427    0.1203   -0.0942 C   0  0  0  0  0  0  0  0  0  0  0  0
   -2.6237    1.2365   -0.9428 C   0  0  0  0  0  0  0  0  0  0  0  0
   -3.5473    2.1728   -1.1074 N   0  0  0  0  0  0  0  0  0  0  0  0
   -5.0043    1.0050    0.3730 N   0  0  0  0  0  0  0  0  0  0  0  0
   -3.9588   -0.6744    2.9224 C   0  0  0  0  0  0  0  0  0  0  0  0
   -4.4040   -1.0348    1.5051 C   0  0  0  0  0  0  0  0  0  0  0  0
   -4.6936    2.0175   -0.4443 C   0  0  0  0  0  0  0  0  0  0  0  0
   -5.6380    2.9542   -0.6367 N   0  0  0  0  0  0  0  0  0  0  0  0
   -1.4508    1.3943   -1.5838 N   0  0  0  0  0  0  0  0  0  0  0  0
   -1.8256   -0.8482    0.0872 C   0  0  0  0  0  0  0  0  0  0  0  0
   -0.9141   -1.6304    0.2088 C   0  0  0  0  0  0  0  0  0  0  0  0
    0.2063   -2.5554    0.3534 C   0  0  2  0  0  0  0  0  0  0  0  0
    0.2812   -3.0954    1.7904 C   0  0  0  0  0  0  0  0  0  0  0  0
    1.5145   -1.8974   -0.0471 C   0  0  0  0  0  0  0  0  0  0  0  0
    1.7114   -0.5367    0.1048 C   0  0  0  0  0  0  0  0  0  0  0  0
    2.5741   -2.6785   -0.5359 C   0  0  0  0  0  0  0  0  0  0  0  0
    2.3420   -3.9962   -0.6482 O   0  0  0  0  0  0  0  0  0  0  0  0
    3.3693   -4.8370   -1.1375 C   0  0  0  0  0  0  0  0  0  0  0  0
    3.7822   -2.0727   -0.8736 C   0  0  0  0  0  0  0  0  0  0  0  0
    3.9463   -0.7055   -0.7151 C   0  0  0  0  0  0  0  0  0  0  0  0
    2.9168    0.0879   -0.2210 C   0  0  0  0  0  0  0  0  0  0  0  0
    3.0818    1.5410   -0.0534 C   0  0  0  0  0  0  0  0  0  0  0  0
    2.0128    2.4243   -0.2081 C   0  0  0  0  0  0  0  0  0  0  0  0
    2.2223    3.7827   -0.0385 C   0  0  0  0  0  0  0  0  0  0  0  0
    3.3999    4.3165    0.2667 N   0  0  0  0  0  0  0  0  0  0  0  0
    4.4202    3.4784    0.4134 C   0  0  0  0  0  0  0  0  0  0  0  0
    4.3163    2.1051    0.2684 C   0  0  0  0  0  0  0  0  0  0  0  0
   -4.2164   -1.4727    3.6182 H   0  0  0  0  0  0  0  0  0  0  0  0
   -2.8801   -0.5228    2.9713 H   0  0  0  0  0  0  0  0  0  0  0  0
   -4.4462    0.2387    3.2648 H   0  0  0  0  0  0  0  0  0  0  0  0
   -5.4812   -1.2061    1.4904 H   0  0  0  0  0  0  0  0  0  0  0  0
   -3.9183   -1.9606    1.1936 H   0  0  0  0  0  0  0  0  0  0  0  0
   -5.4067    3.8005   -1.1262 H   0  0  0  0  0  0  0  0  0  0  0  0
   -6.4586    2.9542   -0.0575 H   0  0  0  0  0  0  0  0  0  0  0  0
   -0.8320    0.6065   -1.6806 H   0  0  0  0  0  0  0  0  0  0  0  0
   -1.3951    2.0951   -2.3039 H   0  0  0  0  0  0  0  0  0  0  0  0
    0.0232   -3.4023   -0.3141 H   0  0  0  0  0  0  0  0  0  0  0  0
    0.4566   -2.2843    2.4969 H   0  0  0  0  0  0  0  0  0  0  0  0
   -0.6491   -3.5934    2.0628 H   0  0  0  0  0  0  0  0  0  0  0  0
    1.0921   -3.8169    1.8853 H   0  0  0  0  0  0  0  0  0  0  0  0
    0.9005    0.0549    0.5133 H   0  0  0  0  0  0  0  0  0  0  0  0
    2.9646   -5.8457   -1.1401 H   0  0  0  0  0  0  0  0  0  0  0  0
    3.6621   -4.5713   -2.1560 H   0  0  0  0  0  0  0  0  0  0  0  0
    4.2540   -4.8129   -0.4964 H   0  0  0  0  0  0  0  0  0  0  0  0
    4.6061   -2.6494   -1.2707 H   0  0  0  0  0  0  0  0  0  0  0  0
    4.8891   -0.2612   -1.0079 H   0  0  0  0  0  0  0  0  0  0  0  0
    1.0254    2.0734   -0.4798 H   0  0  0  0  0  0  0  0  0  0  0  0
    1.3950    4.4726   -0.1633 H   0  0  0  0  0  0  0  0  0  0  0  0
    5.3774    3.9196    0.6686 H   0  0  0  0  0  0  0  0  0  0  0  0
    5.1899    1.4866    0.4266 H   0  0  0  0  0  0  0  0  0  0  0  0
 10  3  1  0
  4  3  2  0
  4  8  1  0
  3  2  1  0
 14 13  1  0
  9  8  1  0
  8  5  2  0
  2 11  1  0
  2  1  2  0
 11 12  3  0
 12 13  1  0
 13 15  1  0
  5  1  1  0
  1  7  1  0
 18 17  1  0
 18 19  1  0
 15 17  1  0
 15 16  2  0
 17 20  2  0
 16 22  1  0
  7  6  1  0
 24 25  2  0
 24 23  1  0
 20 21  1  0
 22 21  2  0
 22 23  1  0
 25 26  1  0
 23 28  2  0
 26 27  2  0
 28 27  1  0
  6 29  1  0
  6 30  1  0
  6 31  1  0
  7 32  1  0
  7 33  1  0
  9 34  1  0
  9 35  1  0
 10 36  1  0
 10 37  1  0
 13 38  1  6
 14 39  1  0
 14 40  1  0
 14 41  1  0
 16 42  1  0
 19 43  1  0
 19 44  1  0
 19 45  1  0
 20 46  1  0
 21 47  1  0
 24 48  1  0
 25 49  1  0
 27 50  1  0
 28 51  1  0
M  END
