
     RDKit          3D

 31 30  0  0  0  0  0  0  0  0999 V2000
    4.4877    4.2859   -1.2517 N   0  0  0  0  0  0  0  0  0  0  0  0
    4.8724    2.8963   -1.2693 C   0  0  1  0  0  0  0  0  0  0  0  0
    3.8025    2.0278   -1.9680 C   0  0  0  0  0  0  0  0  0  0  0  0
    4.1860    0.6772   -1.7993 O   0  0  0  0  0  0  0  0  0  0  0  0
    6.2031    2.6512   -1.9751 C   0  0  0  0  0  0  0  0  0  0  0  0
    6.5156    2.9334   -3.1350 O   0  0  0  0  0  0  0  0  0  0  0  0
    0.6831   -0.6191   -1.1024 C   0  0  0  0  0  0  0  0  0  0  0  0
   -0.2849    0.5407   -1.1861 C   0  0  0  0  0  0  0  0  0  0  0  0
    2.7636   -0.2511   -4.6792 C   0  0  0  0  0  0  0  0  0  0  0  0
    1.6644   -1.0533   -5.3406 C   0  0  0  0  0  0  0  0  0  0  0  0
    2.0045   -0.1384   -0.9441 O   0  0  0  0  0  0  0  0  0  0  0  0
    2.3466    0.1814   -3.3975 O   0  0  0  0  0  0  0  0  0  0  0  0
    3.5081   -1.8071   -2.2183 O   0  0  0  0  0  0  0  0  0  0  0  0
    3.0688   -0.4246   -2.1042 P   0  0  1  0  0  0  0  0  0  0  0  0
    7.1401    2.0451   -1.2030 O   0  0  0  0  0  0  0  0  0  0  0  0
    4.5667    4.7000   -2.1596 H   0  0  0  0  0  0  0  0  0  0  0  0
    5.0365    4.7994   -0.5920 H   0  0  0  0  0  0  0  0  0  0  0  0
    4.9746    2.5359   -0.2011 H   0  0  0  0  0  0  0  0  0  0  0  0
    3.7548    2.2508   -3.0676 H   0  0  0  0  0  0  0  0  0  0  0  0
    2.7973    2.1805   -1.4892 H   0  0  0  0  0  0  0  0  0  0  0  0
    0.6256   -1.2695   -2.0198 H   0  0  0  0  0  0  0  0  0  0  0  0
    0.4558   -1.2364   -0.1873 H   0  0  0  0  0  0  0  0  0  0  0  0
   -1.3291    0.1474   -1.1726 H   0  0  0  0  0  0  0  0  0  0  0  0
   -0.1408    1.2268   -0.3177 H   0  0  0  0  0  0  0  0  0  0  0  0
   -0.1336    1.1264   -2.1239 H   0  0  0  0  0  0  0  0  0  0  0  0
    2.9659    0.6809   -5.2796 H   0  0  0  0  0  0  0  0  0  0  0  0
    3.7114   -0.8516   -4.5859 H   0  0  0  0  0  0  0  0  0  0  0  0
    1.9538   -1.2684   -6.3967 H   0  0  0  0  0  0  0  0  0  0  0  0
    1.4946   -2.0205   -4.8105 H   0  0  0  0  0  0  0  0  0  0  0  0
    0.7085   -0.4773   -5.3331 H   0  0  0  0  0  0  0  0  0  0  0  0
    7.9583    1.9203   -1.7127 H   0  0  0  0  0  0  0  0  0  0  0  0
  1  2  1  0
  1 16  1  0
  1 17  1  0
  2  3  1  0
  2  5  1  0
  2 18  1  1
  3  4  1  0
  3 19  1  0
  3 20  1  0
 14  4  1  1
  5  6  2  0
  5 15  1  0
  7  8  1  0
  7 11  1  0
  7 21  1  0
  7 22  1  0
  8 23  1  0
  8 24  1  0
  8 25  1  0
  9 10  1  0
  9 12  1  0
  9 26  1  0
  9 27  1  0
 10 28  1  0
 10 29  1  0
 10 30  1  0
 11 14  1  0
 12 14  1  0
 13 14  2  0
 15 31  1  0
M  END
