
     RDKit          3D

 42 42  0  0  0  0  0  0  0  0999 V2000
    0.9320   -3.6185    0.4819 N   0  0  0  0  0  0  0  0  0  0  0  0
   -0.3689   -3.7543    0.2827 C   0  0  0  0  0  0  0  0  0  0  0  0
   -1.0070   -5.0662    0.6313 C   0  0  0  0  0  0  0  0  0  0  0  0
   -1.1340   -2.7003   -0.2357 C   0  0  0  0  0  0  0  0  0  0  0  0
   -2.4579   -2.8096   -0.4430 O   0  0  0  0  0  0  0  0  0  0  0  0
   -0.5201   -1.4937   -0.5590 C   0  0  0  0  0  0  0  0  0  0  0  0
   -1.3429   -0.3448   -1.0741 C   0  0  0  0  0  0  0  0  0  0  0  0
    0.8520   -1.3749   -0.3287 C   0  0  0  0  0  0  0  0  0  0  0  0
    1.5528   -0.0838   -0.6547 C   0  0  0  0  0  0  0  0  0  0  0  0
    1.5290   -2.4698    0.1884 C   0  0  0  0  0  0  0  0  0  0  0  0
    3.7360    1.1819    0.0226 P   0  0  1  0  0  0  0  0  0  0  0  0
    3.6435    2.2253   -1.0141 O   0  0  0  0  0  0  0  0  0  0  0  0
    5.1473    0.4854    0.2647 O   0  0  0  0  0  0  0  0  0  0  0  0
    3.2258    1.7631    1.4197 O   0  0  0  0  0  0  0  0  0  0  0  0
    2.9128   -0.1621   -0.2424 O   0  0  0  0  0  0  0  0  0  0  0  0
   -2.0187    0.3071    0.0374 N   0  0  0  0  0  0  0  0  0  0  0  0
   -2.7780    1.4731   -0.3352 C   0  0  1  0  0  0  0  0  0  0  0  0
   -3.9413    1.6998    0.6539 C   0  0  2  0  0  0  0  0  0  0  0  0
   -3.4401    1.9201    1.9551 O   0  0  0  0  0  0  0  0  0  0  0  0
   -1.9155    2.7244   -0.4302 C   0  0  0  0  0  0  0  0  0  0  0  0
   -2.5766    3.7466   -0.9565 O   0  0  0  0  0  0  0  0  0  0  0  0
   -0.7687    2.7939   -0.0638 O   0  0  0  0  0  0  0  0  0  0  0  0
   -4.9328    0.5505    0.6017 C   0  0  0  0  0  0  0  0  0  0  0  0
   -1.7999   -4.9520    1.3744 H   0  0  0  0  0  0  0  0  0  0  0  0
   -1.4440   -5.5568   -0.2424 H   0  0  0  0  0  0  0  0  0  0  0  0
   -0.2610   -5.7393    1.0468 H   0  0  0  0  0  0  0  0  0  0  0  0
   -2.7768   -3.6894   -0.2138 H   0  0  0  0  0  0  0  0  0  0  0  0
   -0.7121    0.3396   -1.6559 H   0  0  0  0  0  0  0  0  0  0  0  0
   -2.0993   -0.7145   -1.7684 H   0  0  0  0  0  0  0  0  0  0  0  0
    1.5168    0.1073   -1.7305 H   0  0  0  0  0  0  0  0  0  0  0  0
    1.0403    0.7497   -0.1629 H   0  0  0  0  0  0  0  0  0  0  0  0
    2.5925   -2.4271    0.3834 H   0  0  0  0  0  0  0  0  0  0  0  0
    5.8874    1.1043    0.3254 H   0  0  0  0  0  0  0  0  0  0  0  0
    3.3006    1.1660    2.1766 H   0  0  0  0  0  0  0  0  0  0  0  0
   -1.3414    0.5440    0.7525 H   0  0  0  0  0  0  0  0  0  0  0  0
   -3.2211    1.3045   -1.3227 H   0  0  0  0  0  0  0  0  0  0  0  0
   -4.4591    2.6200    0.3743 H   0  0  0  0  0  0  0  0  0  0  0  0
   -3.1352    1.0760    2.3060 H   0  0  0  0  0  0  0  0  0  0  0  0
   -2.0150    4.5363   -0.9777 H   0  0  0  0  0  0  0  0  0  0  0  0
   -4.4434   -0.4013    0.8114 H   0  0  0  0  0  0  0  0  0  0  0  0
   -5.7318    0.7055    1.3272 H   0  0  0  0  0  0  0  0  0  0  0  0
   -5.3892    0.4807   -0.3864 H   0  0  0  0  0  0  0  0  0  0  0  0
 22 20  2  0
 12 11  2  0
 20 21  1  0
 20 17  1  0
 11 13  1  1
 11 15  1  0
 11 14  1  0
 17 16  1  0
 17 18  1  0
 16  7  1  0
 15  9  1  0
  7  6  1  0
  5  4  1  0
 18 23  1  0
 18 19  1  0
  6  4  2  0
  6  8  1  0
  4  2  1  0
  9  8  1  0
  8 10  2  0
  2  3  1  0
  2  1  2  0
 10  1  1  0
  3 24  1  0
  3 25  1  0
  3 26  1  0
  5 27  1  0
  7 28  1  0
  7 29  1  0
  9 30  1  0
  9 31  1  0
 10 32  1  0
 13 33  1  0
 14 34  1  0
 16 35  1  0
 17 36  1  6
 18 37  1  6
 19 38  1  0
 21 39  1  0
 23 40  1  0
 23 41  1  0
 23 42  1  0
M  END
