
     RDKit          3D

 58 60  0  0  0  0  0  0  0  0999 V2000
   -5.5438   -2.7154    0.2812 C   0  0  0  0  0  0  0  0  0  0  0  0
   -6.0401   -1.6789   -0.7280 C   0  0  1  0  0  0  0  0  0  0  0  0
   -5.5757   -2.0371   -2.1414 C   0  0  0  0  0  0  0  0  0  0  0  0
   -7.5726   -1.6818   -0.7145 C   0  0  0  0  0  0  0  0  0  0  0  0
   -5.6050   -0.2615   -0.3278 C   0  0  0  0  0  0  0  0  0  0  0  0
   -4.1234    0.0265   -0.2095 C   0  0  0  0  0  0  0  0  0  0  0  0
   -3.2369   -0.7438   -0.5593 O   0  0  0  0  0  0  0  0  0  0  0  0
   -3.8055    1.2263    0.3152 N   0  0  0  0  0  0  0  0  0  0  0  0
   -4.7223    2.2807    0.7179 C   0  0  0  0  0  0  0  0  0  0  0  0
   -3.8391    3.5241    0.7045 C   0  0  2  0  0  0  0  0  0  0  0  0
   -3.6497    4.0277   -0.5978 O   0  0  0  0  0  0  0  0  0  0  0  0
   -2.5092    2.9670    1.1847 C   0  0  0  0  0  0  0  0  0  0  0  0
   -2.4161    1.5992    0.4940 C   0  0  1  0  0  0  0  0  0  0  0  0
   -1.6852    0.5953    1.3764 C   0  0  0  0  0  0  0  0  0  0  0  0
   -2.1941    0.1391    2.3882 O   0  0  0  0  0  0  0  0  0  0  0  0
   -0.4292    0.3230    1.0021 N   0  0  0  0  0  0  0  0  0  0  0  0
    0.4180   -0.5875    1.7501 C   0  0  0  0  0  0  0  0  0  0  0  0
    1.7718   -0.6718    1.1047 C   0  0  0  0  0  0  0  0  0  0  0  0
    2.7784    0.2197    1.4570 C   0  0  0  0  0  0  0  0  0  0  0  0
    4.0369    0.1945    0.8643 C   0  0  0  0  0  0  0  0  0  0  0  0
    5.0833    1.1705    1.3178 C   0  0  0  0  0  0  0  0  0  0  0  0
    2.0334   -1.6191    0.1228 C   0  0  0  0  0  0  0  0  0  0  0  0
    3.2758   -1.6600   -0.4868 C   0  0  0  0  0  0  0  0  0  0  0  0
    4.2851   -0.7648   -0.1297 C   0  0  0  0  0  0  0  0  0  0  0  0
    5.5883   -0.9016   -0.7896 C   0  0  0  0  0  0  0  0  0  0  0  0
    6.4157    0.3863   -1.5855 S   0  0  0  0  0  0  0  0  0  0  0  0
    7.6547   -0.7071   -2.0454 C   0  0  0  0  0  0  0  0  0  0  0  0
    7.4790   -1.9263   -1.6498 N   0  0  0  0  0  0  0  0  0  0  0  0
    6.3190   -2.0437   -0.9465 C   0  0  0  0  0  0  0  0  0  0  0  0
   -5.9379   -3.7041    0.0356 H   0  0  0  0  0  0  0  0  0  0  0  0
   -4.4575   -2.7842    0.2959 H   0  0  0  0  0  0  0  0  0  0  0  0
   -5.8787   -2.4707    1.2921 H   0  0  0  0  0  0  0  0  0  0  0  0
   -5.9927   -3.0006   -2.4423 H   0  0  0  0  0  0  0  0  0  0  0  0
   -5.9192   -1.2928   -2.8640 H   0  0  0  0  0  0  0  0  0  0  0  0
   -4.4925   -2.1034   -2.2150 H   0  0  0  0  0  0  0  0  0  0  0  0
   -7.9657   -1.4343    0.2744 H   0  0  0  0  0  0  0  0  0  0  0  0
   -7.9774   -0.9567   -1.4247 H   0  0  0  0  0  0  0  0  0  0  0  0
   -7.9611   -2.6656   -0.9866 H   0  0  0  0  0  0  0  0  0  0  0  0
   -6.0246    0.4510   -1.0489 H   0  0  0  0  0  0  0  0  0  0  0  0
   -6.0787   -0.0092    0.6268 H   0  0  0  0  0  0  0  0  0  0  0  0
   -5.5676    2.3682    0.0344 H   0  0  0  0  0  0  0  0  0  0  0  0
   -5.1195    2.1065    1.7228 H   0  0  0  0  0  0  0  0  0  0  0  0
   -4.2331    4.2913    1.3801 H   0  0  0  0  0  0  0  0  0  0  0  0
   -4.4987    4.3246   -0.9398 H   0  0  0  0  0  0  0  0  0  0  0  0
   -1.6645    3.6137    0.9500 H   0  0  0  0  0  0  0  0  0  0  0  0
   -2.5496    2.8423    2.2681 H   0  0  0  0  0  0  0  0  0  0  0  0
   -1.9132    1.6895   -0.4745 H   0  0  0  0  0  0  0  0  0  0  0  0
   -0.0995    0.6612    0.1127 H   0  0  0  0  0  0  0  0  0  0  0  0
    0.5139   -0.2359    2.7795 H   0  0  0  0  0  0  0  0  0  0  0  0
   -0.0401   -1.5794    1.7921 H   0  0  0  0  0  0  0  0  0  0  0  0
    2.5870    0.9508    2.2349 H   0  0  0  0  0  0  0  0  0  0  0  0
    6.0527    0.6931    1.4622 H   0  0  0  0  0  0  0  0  0  0  0  0
    5.2234    1.9784    0.5974 H   0  0  0  0  0  0  0  0  0  0  0  0
    4.7939    1.6303    2.2616 H   0  0  0  0  0  0  0  0  0  0  0  0
    1.2678   -2.3275   -0.1697 H   0  0  0  0  0  0  0  0  0  0  0  0
    3.4644   -2.3916   -1.2622 H   0  0  0  0  0  0  0  0  0  0  0  0
    8.5065   -0.3703   -2.6201 H   0  0  0  0  0  0  0  0  0  0  0  0
    6.0322   -3.0028   -0.5373 H   0  0  0  0  0  0  0  0  0  0  0  0
 28 27  2  0
 28 29  1  0
 27 26  1  0
 29 25  2  0
 26 25  1  0
 25 24  1  0
 24 20  1  0
 24 23  2  0
 21 20  1  0
 20 19  2  0
 23 22  1  0
 19 18  1  0
 22 18  2  0
 18 17  1  0
 17 16  1  0
 16 14  1  0
 12 13  1  0
 12 10  1  0
 14 15  2  0
 14 13  1  0
 13  8  1  0
 10 11  1  0
 10  9  1  0
  8  9  1  0
  8  6  1  0
  7  6  2  0
  6  5  1  0
  2  3  1  6
  5  2  1  0
  2  1  1  0
  2  4  1  0
  1 30  1  0
  1 31  1  0
  1 32  1  0
  3 33  1  0
  3 34  1  0
  3 35  1  0
  4 36  1  0
  4 37  1  0
  4 38  1  0
  5 39  1  0
  5 40  1  0
  9 41  1  0
  9 42  1  0
 10 43  1  1
 11 44  1  0
 12 45  1  0
 12 46  1  0
 13 47  1  6
 16 48  1  0
 17 49  1  0
 17 50  1  0
 19 51  1  0
 21 52  1  0
 21 53  1  0
 21 54  1  0
 22 55  1  0
 23 56  1  0
 27 57  1  0
 29 58  1  0
M  END
