
     RDKit          3D

 16 16  0  0  0  0  0  0  0  0999 V2000
   -0.0068   -0.0091   -0.3266 C   0  0  0  0  0  0  0  0  0  0  0  0
    1.2239   -0.0378    0.3280 C   0  0  0  0  0  0  0  0  0  0  0  0
    1.2899    0.0193    1.7053 C   0  0  0  0  0  0  0  0  0  0  0  0
    0.1160    0.1063    2.4560 C   0  0  0  0  0  0  0  0  0  0  0  0
   -1.1145    0.1350    1.8055 C   0  0  0  0  0  0  0  0  0  0  0  0
   -1.1721    0.0779    0.4224 C   0  0  0  0  0  0  0  0  0  0  0  0
   -0.0335   -0.0628   -1.8160 C   0  0  1  0  0  0  0  0  0  0  0  0
    0.2330    0.1590    3.7910 O   0  0  0  0  0  0  0  0  0  0  0  0
   -1.2752   -0.0827   -2.3110 F   0  0  0  0  0  0  0  0  0  0  0  0
    0.5881    0.9926   -2.3690 F   0  0  0  0  0  0  0  0  0  0  0  0
    0.5937   -1.1509   -2.2924 F   0  0  0  0  0  0  0  0  0  0  0  0
    2.1476   -0.1060   -0.2331 H   0  0  0  0  0  0  0  0  0  0  0  0
    2.2492   -0.0031    2.2061 H   0  0  0  0  0  0  0  0  0  0  0  0
   -2.0332    0.2030    2.3763 H   0  0  0  0  0  0  0  0  0  0  0  0
   -2.1428    0.1035   -0.0538 H   0  0  0  0  0  0  0  0  0  0  0  0
   -0.6340    0.2330    4.2065 H   0  0  0  0  0  0  0  0  0  0  0  0
  1  2  2  0
  1  6  1  0
  1  7  1  0
  2  3  1  0
  2 12  1  0
  3  4  2  0
  3 13  1  0
  4  5  1  0
  4  8  1  0
  5  6  2  0
  5 14  1  0
  6 15  1  0
  7  9  1  6
  7 10  1  0
  7 11  1  0
  8 16  1  0
M  END
