
     RDKit          3D

 43 44  0  0  0  0  0  0  0  0999 V2000
    4.1947   -1.0920   -0.5580 C   0  0  0  0  0  0  0  0  0  0  0  0
    0.0546    0.0192    0.1199 C   0  0  0  0  0  0  0  0  0  0  0  0
    0.8613   -0.4431   -0.8877 C   0  0  0  0  0  0  0  0  0  0  0  0
   -1.1579    0.8755    0.0390 C   0  0  0  0  0  0  0  0  0  0  0  0
   -3.5800    0.5873    0.0499 C   0  0  0  0  0  0  0  0  0  0  0  0
   -4.7326   -0.4282    0.0450 C   0  0  1  0  0  0  0  0  0  0  0  0
    5.1166   -1.5305    0.3845 C   0  0  0  0  0  0  0  0  0  0  0  0
   -4.7074   -1.2757   -1.2278 C   0  0  0  0  0  0  0  0  0  0  0  0
   -4.7006   -1.2901    1.3081 C   0  0  0  0  0  0  0  0  0  0  0  0
    6.2745   -0.8115    0.6311 C   0  0  0  0  0  0  0  0  0  0  0  0
    6.4942    0.3580   -0.0789 C   0  0  0  0  0  0  0  0  0  0  0  0
    5.5893    0.8189   -1.0251 C   0  0  0  0  0  0  0  0  0  0  0  0
    4.4409    0.0852   -1.2588 C   0  0  0  0  0  0  0  0  0  0  0  0
    2.9325   -1.8732   -0.8073 C   0  0  0  0  0  0  0  0  0  0  0  0
    7.7077    1.1225    0.1716 N   0  0  0  0  0  0  0  0  0  0  0  0
    1.5677   -1.1935    1.0515 N   0  0  0  0  0  0  0  0  0  0  0  0
    0.5298   -0.4720    1.2862 N   0  0  0  0  0  0  0  0  0  0  0  0
   -2.3568    0.0506    0.0371 N   0  0  0  0  0  0  0  0  0  0  0  0
    1.7776   -1.1914   -0.2539 N   0  0  0  0  0  0  0  0  0  0  0  0
   -6.3962    1.3243   -1.1902 O   0  0  0  0  0  0  0  0  0  0  0  0
   -3.7778    1.7905    0.0682 O   0  0  0  0  0  0  0  0  0  0  0  0
    8.4708    0.7156    1.0153 O   0  0  0  0  0  0  0  0  0  0  0  0
   -7.2947   -0.6263    0.0477 O   0  0  0  0  0  0  0  0  0  0  0  0
    7.8901    2.1256   -0.4765 O   0  0  0  0  0  0  0  0  0  0  0  0
   -6.2505    0.5957    0.0546 S   0  0  1  0  0  0  0  0  0  0  0  0
    0.8436   -0.3049   -1.9555 H   0  0  0  0  0  0  0  0  0  0  0  0
   -1.1844    1.5576    0.8905 H   0  0  0  0  0  0  0  0  0  0  0  0
   -1.1206    1.4851   -0.8655 H   0  0  0  0  0  0  0  0  0  0  0  0
    4.9363   -2.4460    0.9324 H   0  0  0  0  0  0  0  0  0  0  0  0
   -3.8028   -1.8825   -1.2409 H   0  0  0  0  0  0  0  0  0  0  0  0
   -5.5496   -1.9633   -1.2630 H   0  0  0  0  0  0  0  0  0  0  0  0
   -4.7097   -0.6640   -2.1282 H   0  0  0  0  0  0  0  0  0  0  0  0
   -4.7003   -0.6883    2.2152 H   0  0  0  0  0  0  0  0  0  0  0  0
   -5.5421   -1.9787    1.3388 H   0  0  0  0  0  0  0  0  0  0  0  0
   -3.7947   -1.8950    1.3102 H   0  0  0  0  0  0  0  0  0  0  0  0
    6.9826   -1.1676    1.3647 H   0  0  0  0  0  0  0  0  0  0  0  0
    5.7673    1.7300   -1.5768 H   0  0  0  0  0  0  0  0  0  0  0  0
    3.7363    0.4399   -2.0005 H   0  0  0  0  0  0  0  0  0  0  0  0
    2.7572   -2.0027   -1.8740 H   0  0  0  0  0  0  0  0  0  0  0  0
    2.9896   -2.8632   -0.3586 H   0  0  0  0  0  0  0  0  0  0  0  0
   -2.2369   -0.9485    0.0041 H   0  0  0  0  0  0  0  0  0  0  0  0
   -8.2116   -0.3048    0.0896 H   0  0  0  0  0  0  0  0  0  0  0  0
   -6.3946    1.3079    1.3096 O   0  0  0  0  0  0  0  0  0  0  0  0
 24 15  2  0
 22 15  1  0
 15 11  1  0
 11 10  1  0
 11 12  2  0
 10  7  2  0
 12 13  1  0
  7  1  1  0
 13  1  2  0
  1 14  1  0
 14 19  1  0
 19  3  1  0
 19 16  1  0
 21  5  2  0
  3  2  2  0
 16 17  2  0
  2 17  1  0
  2  4  1  0
  4 18  1  0
  5 18  1  0
  6  5  1  6
  9  6  1  0
  6  8  1  0
  6 25  1  0
 25 23  1  6
 25 20  2  0
  3 26  1  0
  4 27  1  0
  4 28  1  0
  7 29  1  0
  8 30  1  0
  8 31  1  0
  8 32  1  0
  9 33  1  0
  9 34  1  0
  9 35  1  0
 10 36  1  0
 12 37  1  0
 13 38  1  0
 14 39  1  0
 14 40  1  0
 18 41  1  0
 23 42  1  0
 25 43  2  0
M  CHG  2  15   1  22  -1
M  END
