
     RDKit          3D

 39 40  0  0  0  0  0  0  0  0999 V2000
   -3.4614   -3.0621    0.3418 O   0  0  0  0  0  0  0  0  0  0  0  0
   -2.5000   -2.2171    0.0177 C   0  0  0  0  0  0  0  0  0  0  0  0
   -1.3853   -2.5350   -0.2958 O   0  0  0  0  0  0  0  0  0  0  0  0
   -2.9827   -0.7994    0.0766 C   0  0  0  0  0  0  0  0  0  0  0  0
   -4.3322   -0.6393   -0.1136 N   0  0  0  0  0  0  0  0  0  0  0  0
   -4.9668    0.5681   -0.1277 C   0  0  0  0  0  0  0  0  0  0  0  0
   -6.1587    0.6920   -0.3138 O   0  0  0  0  0  0  0  0  0  0  0  0
   -4.1266    1.6291    0.0870 N   0  0  0  0  0  0  0  0  0  0  0  0
   -2.7661    1.5862    0.3033 C   0  0  0  0  0  0  0  0  0  0  0  0
   -2.1397    2.6128    0.4798 O   0  0  0  0  0  0  0  0  0  0  0  0
   -2.1617    0.2502    0.2986 C   0  0  0  0  0  0  0  0  0  0  0  0
   -0.6837    0.1888    0.5317 C   0  0  0  0  0  0  0  0  0  0  0  0
    0.1161    0.4028   -0.7627 C   0  0  0  0  0  0  0  0  0  0  0  0
    1.5949    0.3094   -0.5117 C   0  0  0  0  0  0  0  0  0  0  0  0
    2.3567    1.4605   -0.3657 C   0  0  0  0  0  0  0  0  0  0  0  0
    2.1934   -0.9394   -0.3876 C   0  0  0  0  0  0  0  0  0  0  0  0
    3.5555   -1.0340   -0.1189 C   0  0  0  0  0  0  0  0  0  0  0  0
    4.0556   -2.2806   -0.0163 O   0  0  0  0  0  0  0  0  0  0  0  0
    5.4347   -2.4464    0.2453 C   0  0  0  0  0  0  0  0  0  0  0  0
    4.3315    0.1167    0.0272 C   0  0  0  0  0  0  0  0  0  0  0  0
    3.7211    1.3636   -0.0982 C   0  0  0  0  0  0  0  0  0  0  0  0
    4.3849    2.5288    0.0257 O   0  0  0  0  0  0  0  0  0  0  0  0
    5.7772    2.5006    0.2664 C   0  0  0  0  0  0  0  0  0  0  0  0
   -3.1536   -3.9789    0.2656 H   0  0  0  0  0  0  0  0  0  0  0  0
   -4.5572    2.5460    0.0798 H   0  0  0  0  0  0  0  0  0  0  0  0
   -0.4161    0.9687    1.2462 H   0  0  0  0  0  0  0  0  0  0  0  0
   -0.3986   -0.7580    0.9842 H   0  0  0  0  0  0  0  0  0  0  0  0
   -0.1836   -0.3477   -1.4958 H   0  0  0  0  0  0  0  0  0  0  0  0
   -0.1285    1.3796   -1.1837 H   0  0  0  0  0  0  0  0  0  0  0  0
    1.8998    2.4380   -0.4664 H   0  0  0  0  0  0  0  0  0  0  0  0
    1.6041   -1.8420   -0.5006 H   0  0  0  0  0  0  0  0  0  0  0  0
    6.0557   -2.0263   -0.5503 H   0  0  0  0  0  0  0  0  0  0  0  0
    5.7279   -1.9950    1.1966 H   0  0  0  0  0  0  0  0  0  0  0  0
    5.6123   -3.5177    0.2973 H   0  0  0  0  0  0  0  0  0  0  0  0
    5.3891    0.0415    0.2336 H   0  0  0  0  0  0  0  0  0  0  0  0
    6.3222    2.0022   -0.5398 H   0  0  0  0  0  0  0  0  0  0  0  0
    6.1021    3.5368    0.3177 H   0  0  0  0  0  0  0  0  0  0  0  0
    6.0210    2.0098    1.2123 H   0  0  0  0  0  0  0  0  0  0  0  0
   -4.9137   -1.4486   -0.2805 H   0  0  0  0  0  0  0  0  0  0  0  0
  7  6  2  0
  5  6  1  0
  5  4  1  0
  6  8  1  0
  3  2  2  0
  2  4  1  0
  2  1  1  0
  4 11  2  0
  8  9  1  0
 11  9  1  0
 11 12  1  0
  9 10  2  0
 23 22  1  0
 12 13  1  0
 22 21  1  0
 21 15  2  0
 21 20  1  0
 15 14  1  0
 20 17  2  0
 14 13  1  0
 14 16  2  0
 17 16  1  0
 17 18  1  0
 18 19  1  0
  1 24  1  0
  8 25  1  0
 12 26  1  0
 12 27  1  0
 13 28  1  0
 13 29  1  0
 15 30  1  0
 16 31  1  0
 19 32  1  0
 19 33  1  0
 19 34  1  0
 20 35  1  0
 23 36  1  0
 23 37  1  0
 23 38  1  0
  5 39  1  0
M  END
