
     RDKit          3D

 31 33  0  0  0  0  0  0  0  0999 V2000
   -5.4054    0.5414    0.8302 O   0  0  0  0  0  0  0  0  0  0  0  0
   -4.1951    1.0525    0.7664 C   0  0  0  0  0  0  0  0  0  0  0  0
   -3.9086    2.1805    1.0944 O   0  0  0  0  0  0  0  0  0  0  0  0
   -3.1767    0.1168    0.2471 C   0  0  0  0  0  0  0  0  0  0  0  0
   -1.9185    0.6591    0.1765 N   0  0  0  0  0  0  0  0  0  0  0  0
   -3.3620   -1.1758   -0.1445 C   0  0  0  0  0  0  0  0  0  0  0  0
   -4.5290   -1.7979   -0.1234 O   0  0  0  0  0  0  0  0  0  0  0  0
   -2.2343   -1.9792   -0.6318 C   0  0  0  0  0  0  0  0  0  0  0  0
   -2.4674   -3.1481   -0.9725 O   0  0  0  0  0  0  0  0  0  0  0  0
   -0.9810   -1.3179   -0.6777 C   0  0  0  0  0  0  0  0  0  0  0  0
   -0.8510   -0.0144   -0.2664 C   0  0  0  0  0  0  0  0  0  0  0  0
    0.4335    0.7064   -0.3084 C   0  0  0  0  0  0  0  0  0  0  0  0
    1.6021    0.0488    0.0544 C   0  0  0  0  0  0  0  0  0  0  0  0
    0.4929    2.0383   -0.7177 C   0  0  0  0  0  0  0  0  0  0  0  0
    1.7110    2.6969   -0.7623 C   0  0  0  0  0  0  0  0  0  0  0  0
    2.8758    2.0412   -0.3995 C   0  0  0  0  0  0  0  0  0  0  0  0
    2.8252    0.7114    0.0122 C   0  0  0  0  0  0  0  0  0  0  0  0
    4.0269   -0.0097    0.4108 C   0  0  0  0  0  0  0  0  0  0  0  0
    5.2710    0.4736    0.4605 N   0  0  0  0  0  0  0  0  0  0  0  0
    6.0901   -0.4791    0.8671 N   0  0  0  0  0  0  0  0  0  0  0  0
    5.3709   -1.5128    1.0616 N   0  0  0  0  0  0  0  0  0  0  0  0
    4.0927   -1.2663    0.7914 N   0  0  0  0  0  0  0  0  0  0  0  0
   -6.0237    1.2058    1.1714 H   0  0  0  0  0  0  0  0  0  0  0  0
   -1.8089    1.5994    0.5354 H   0  0  0  0  0  0  0  0  0  0  0  0
   -4.3519   -2.6996   -0.4540 H   0  0  0  0  0  0  0  0  0  0  0  0
   -0.1195   -1.8438   -1.0658 H   0  0  0  0  0  0  0  0  0  0  0  0
    1.5615   -0.9795    0.3887 H   0  0  0  0  0  0  0  0  0  0  0  0
   -0.4030    2.5599   -1.0298 H   0  0  0  0  0  0  0  0  0  0  0  0
    1.7550    3.7264   -1.0894 H   0  0  0  0  0  0  0  0  0  0  0  0
    3.8134    2.5793   -0.4489 H   0  0  0  0  0  0  0  0  0  0  0  0
    5.6302    1.3932    0.2450 H   0  0  0  0  0  0  0  0  0  0  0  0
  9  8  2  0
  7  6  1  0
  8  6  1  0
  8 10  1  0
  6  4  2  0
 10 11  2  0
  3  2  2  0
  4  2  1  0
  4  5  1  0
 20 19  1  0
 20 21  2  0
 19 18  1  0
  2  1  1  0
 11  5  1  0
 11 12  1  0
 13 12  2  0
 13 17  1  0
 21 22  1  0
 12 14  1  0
 18 17  1  0
 18 22  2  0
 17 16  2  0
 14 15  2  0
 16 15  1  0
  1 23  1  0
  5 24  1  0
  7 25  1  0
 10 26  1  0
 13 27  1  0
 14 28  1  0
 15 29  1  0
 16 30  1  0
 19 31  1  0
M  END
