
     RDKit          3D

 24 24  0  0  0  0  0  0  0  0999 V2000
    1.1192    1.2876    3.1756 N   0  0  0  0  0  0  0  0  0  0  0  0
   -0.0371    0.4337    3.3328 C   0  0  2  0  0  0  0  0  0  0  0  0
   -0.2583    0.1014    4.7995 C   0  0  0  0  0  0  0  0  0  0  0  0
    0.5748   -0.1747    5.6655 O   0  0  0  0  0  0  0  0  0  0  0  0
   -0.0007   -0.9129    2.5763 C   0  0  0  0  0  0  0  0  0  0  0  0
    0.0041   -0.7049    1.1049 C   0  0  0  0  0  0  0  0  0  0  0  0
    1.2075   -0.6833    0.3976 C   0  0  0  0  0  0  0  0  0  0  0  0
    1.2179   -0.4883   -0.9846 C   0  0  0  0  0  0  0  0  0  0  0  0
   -1.2007   -0.5287    0.4160 C   0  0  0  0  0  0  0  0  0  0  0  0
   -1.2204   -0.3321   -0.9640 C   0  0  0  0  0  0  0  0  0  0  0  0
    0.0009   -0.3112   -1.6743 C   0  0  0  0  0  0  0  0  0  0  0  0
   -0.0692   -0.1150   -3.0274 O   0  0  0  0  0  0  0  0  0  0  0  0
    2.8694   -0.4704   -1.8722 Br  0  0  0  0  0  0  0  0  0  0  0  0
   -2.8812   -0.1053   -1.7996 Br  0  0  0  0  0  0  0  0  0  0  0  0
   -1.5671    0.1216    5.1686 O   0  0  0  0  0  0  0  0  0  0  0  0
    1.9532    0.7489    3.0403 H   0  0  0  0  0  0  0  0  0  0  0  0
    0.9842    1.9051    2.3981 H   0  0  0  0  0  0  0  0  0  0  0  0
   -0.9339    1.0195    2.9635 H   0  0  0  0  0  0  0  0  0  0  0  0
    0.9066   -1.4956    2.8902 H   0  0  0  0  0  0  0  0  0  0  0  0
   -0.9055   -1.5070    2.8754 H   0  0  0  0  0  0  0  0  0  0  0  0
    2.1577   -0.8221    0.9402 H   0  0  0  0  0  0  0  0  0  0  0  0
   -2.1485   -0.5470    0.9818 H   0  0  0  0  0  0  0  0  0  0  0  0
    0.2340    0.7876   -3.2276 H   0  0  0  0  0  0  0  0  0  0  0  0
   -1.6440   -0.0977    6.1124 H   0  0  0  0  0  0  0  0  0  0  0  0
  1  2  1  0
  1 16  1  0
  1 17  1  0
  2  3  1  0
  2  5  1  0
  2 18  1  6
  3  4  2  0
  3 15  1  0
  5  6  1  0
  5 19  1  0
  5 20  1  0
  6  7  2  0
  6  9  1  0
  7  8  1  0
  7 21  1  0
  8 11  2  0
  8 13  1  0
  9 10  2  0
  9 22  1  0
 10 11  1  0
 10 14  1  0
 11 12  1  0
 12 23  1  0
 15 24  1  0
M  END
