
     RDKit          3D

 39 41  0  0  0  0  0  0  0  0999 V2000
    4.7397   -1.9624    0.8965 C   0  0  0  0  0  0  0  0  0  0  0  0
    2.3678    0.5418   -0.4080 C   0  0  0  0  0  0  0  0  0  0  0  0
    0.0294    1.2297   -0.3112 C   0  0  0  0  0  0  0  0  0  0  0  0
   -1.3531    0.6886   -0.2272 C   0  0  0  0  0  0  0  0  0  0  0  0
   -2.3629    1.5318    0.2363 C   0  0  0  0  0  0  0  0  0  0  0  0
   -3.6666    1.0840    0.3183 C   0  0  0  0  0  0  0  0  0  0  0  0
   -4.0243   -0.2111   -0.0726 C   0  0  0  0  0  0  0  0  0  0  0  0
   -3.0108   -1.0364   -0.5511 C   0  0  0  0  0  0  0  0  0  0  0  0
   -1.6955   -0.5986   -0.6268 C   0  0  0  0  0  0  0  0  0  0  0  0
   -5.4778   -0.6541    0.0278 C   0  0  1  0  0  0  0  0  0  0  0  0
   -5.6803   -2.1042   -0.4104 C   0  0  0  0  0  0  0  0  0  0  0  0
    5.8358   -0.8544   -0.0790 S   0  0  0  0  0  0  0  0  0  0  0  0
    3.3209   -1.7720    0.3572 C   0  0  0  0  0  0  0  0  0  0  0  0
    3.2926   -0.3873   -0.0683 N   0  0  0  0  0  0  0  0  0  0  0  0
    4.4772    0.1966   -0.3618 C   0  0  0  0  0  0  0  0  0  0  0  0
    4.3106    1.3937   -0.8190 N   0  0  0  0  0  0  0  0  0  0  0  0
    2.9562    1.6169   -0.8540 N   0  0  0  0  0  0  0  0  0  0  0  0
    1.0242    0.2872   -0.2712 N   0  0  0  0  0  0  0  0  0  0  0  0
    0.2579    2.4173   -0.3962 O   0  0  0  0  0  0  0  0  0  0  0  0
   -5.9438   -0.5155    1.4837 C   0  0  0  0  0  0  0  0  0  0  0  0
   -6.3361    0.2487   -0.8692 C   0  0  0  0  0  0  0  0  0  0  0  0
    5.0817   -2.9874    0.7813 H   0  0  0  0  0  0  0  0  0  0  0  0
    4.8046   -1.6777    1.9449 H   0  0  0  0  0  0  0  0  0  0  0  0
   -2.1251    2.5409    0.5457 H   0  0  0  0  0  0  0  0  0  0  0  0
   -4.4214    1.7639    0.6942 H   0  0  0  0  0  0  0  0  0  0  0  0
   -3.2310   -2.0404   -0.8844 H   0  0  0  0  0  0  0  0  0  0  0  0
   -0.9559   -1.2771   -1.0341 H   0  0  0  0  0  0  0  0  0  0  0  0
   -5.4066   -2.2599   -1.4552 H   0  0  0  0  0  0  0  0  0  0  0  0
   -5.1036   -2.8039    0.1973 H   0  0  0  0  0  0  0  0  0  0  0  0
   -6.7328   -2.3733   -0.3065 H   0  0  0  0  0  0  0  0  0  0  0  0
    3.1205   -2.4250   -0.4927 H   0  0  0  0  0  0  0  0  0  0  0  0
    2.5848   -1.9603    1.1364 H   0  0  0  0  0  0  0  0  0  0  0  0
    0.7680   -0.6647   -0.0580 H   0  0  0  0  0  0  0  0  0  0  0  0
   -6.9880   -0.8202    1.5764 H   0  0  0  0  0  0  0  0  0  0  0  0
   -5.3502   -1.1426    2.1509 H   0  0  0  0  0  0  0  0  0  0  0  0
   -5.8706    0.5129    1.8400 H   0  0  0  0  0  0  0  0  0  0  0  0
   -6.0425    0.1590   -1.9165 H   0  0  0  0  0  0  0  0  0  0  0  0
   -7.3877   -0.0337   -0.7908 H   0  0  0  0  0  0  0  0  0  0  0  0
   -6.2545    1.2993   -0.5880 H   0  0  0  0  0  0  0  0  0  0  0  0
 10 11  1  6
  1 13  1  0
  1 12  1  0
 10 21  1  0
 10  7  1  0
 10 20  1  0
  8  7  2  0
  8  9  1  0
  7  6  1  0
 13 14  1  0
  9  4  2  0
  6  5  2  0
  4  5  1  0
  4  3  1  0
 18  3  1  0
 18  2  1  0
 14  2  1  0
 14 15  1  0
 12 15  1  0
  3 19  2  0
  2 17  2  0
 15 16  2  0
 17 16  1  0
  1 22  1  0
  1 23  1  0
  5 24  1  0
  6 25  1  0
  8 26  1  0
  9 27  1  0
 11 28  1  0
 11 29  1  0
 11 30  1  0
 13 31  1  0
 13 32  1  0
 18 33  1  0
 20 34  1  0
 20 35  1  0
 20 36  1  0
 21 37  1  0
 21 38  1  0
 21 39  1  0
M  END
