
     RDKit          3D

 19 20  0  0  0  0  0  0  0  0999 V2000
   -2.8088   -1.3111   -0.1081 O   0  0  0  0  0  0  0  0  0  0  0  0
   -1.9489   -0.4562   -0.0592 C   0  0  0  0  0  0  0  0  0  0  0  0
   -2.3181    0.9724   -0.0303 C   0  0  0  0  0  0  0  0  0  0  0  0
   -1.4000    1.9370    0.0281 C   0  0  0  0  0  0  0  0  0  0  0  0
    0.0407    1.6353    0.0649 C   0  0  0  0  0  0  0  0  0  0  0  0
    0.8527    2.5548    0.1143 O   0  0  0  0  0  0  0  0  0  0  0  0
    0.4564    0.2351    0.0392 C   0  0  0  0  0  0  0  0  0  0  0  0
   -0.5030   -0.7932   -0.0234 C   0  0  0  0  0  0  0  0  0  0  0  0
   -0.1132   -2.1165   -0.0508 C   0  0  0  0  0  0  0  0  0  0  0  0
    1.2462   -2.4308   -0.0148 C   0  0  0  0  0  0  0  0  0  0  0  0
    2.2027   -1.4424    0.0475 C   0  0  0  0  0  0  0  0  0  0  0  0
    1.8220   -0.0944    0.0746 C   0  0  0  0  0  0  0  0  0  0  0  0
    2.7819    0.8203    0.1318 O   0  0  0  0  0  0  0  0  0  0  0  0
   -3.3756    1.2033   -0.0576 H   0  0  0  0  0  0  0  0  0  0  0  0
   -1.6786    2.9832    0.0503 H   0  0  0  0  0  0  0  0  0  0  0  0
   -0.8509   -2.9046   -0.0992 H   0  0  0  0  0  0  0  0  0  0  0  0
    1.5551   -3.4673   -0.0364 H   0  0  0  0  0  0  0  0  0  0  0  0
    3.2558   -1.6911    0.0751 H   0  0  0  0  0  0  0  0  0  0  0  0
    2.3645    1.7081    0.1417 H   0  0  0  0  0  0  0  0  0  0  0  0
  1  2  2  0
  9 10  2  0
  9  8  1  0
  2  8  1  0
  2  3  1  0
 10 11  1  0
  8  7  2  0
  3  4  2  0
 11 12  2  0
  7 12  1  0
  7  5  1  0
  4  5  1  0
 12 13  1  0
  5  6  2  0
  3 14  1  0
  4 15  1  0
  9 16  1  0
 10 17  1  0
 11 18  1  0
 13 19  1  0
M  END
