
     RDKit          3D

 39 41  0  0  0  0  0  0  0  0999 V2000
    0.0990    0.2396   -0.3922 O   0  0  0  0  0  0  0  0  0  0  0  0
   -1.3752    1.7246   -1.4776 C   0  0  0  0  0  0  0  0  0  0  0  0
   -0.3351    2.6858   -1.7479 N   0  0  0  0  0  0  0  0  0  0  0  0
    0.7514    2.4945   -2.5262 C   0  0  0  0  0  0  0  0  0  0  0  0
    1.5588    3.5226   -2.5012 N   0  0  0  0  0  0  0  0  0  0  0  0
    0.9729    4.4212   -1.6535 C   0  0  0  0  0  0  0  0  0  0  0  0
   -0.2013    3.9193   -1.1721 C   0  0  0  0  0  0  0  0  0  0  0  0
   -3.4766    2.0391    1.4203 Cl  0  0  0  0  0  0  0  0  0  0  0  0
    2.2626   -1.2516    3.1431 Cl  0  0  0  0  0  0  0  0  0  0  0  0
   -5.7441   -2.7724    0.8220 Cl  0  0  0  0  0  0  0  0  0  0  0  0
    6.2791   -2.2094   -0.2749 Cl  0  0  0  0  0  0  0  0  0  0  0  0
   -2.2629    0.0107    0.0855 C   0  0  0  0  0  0  0  0  0  0  0  0
    2.0834   -0.7114    0.4988 C   0  0  0  0  0  0  0  0  0  0  0  0
   -3.3832    0.4219    0.8003 C   0  0  0  0  0  0  0  0  0  0  0  0
    2.8831   -1.2080    1.5250 C   0  0  0  0  0  0  0  0  0  0  0  0
   -4.4593   -0.4197    1.0361 C   0  0  0  0  0  0  0  0  0  0  0  0
    4.1699   -1.6711    1.3086 C   0  0  0  0  0  0  0  0  0  0  0  0
   -4.4118   -1.7091    0.5348 C   0  0  0  0  0  0  0  0  0  0  0  0
    4.6727   -1.6383    0.0184 C   0  0  0  0  0  0  0  0  0  0  0  0
   -3.3199   -2.1558   -0.1913 C   0  0  0  0  0  0  0  0  0  0  0  0
    3.9111   -1.1561   -1.0315 C   0  0  0  0  0  0  0  0  0  0  0  0
   -2.2611   -1.2905   -0.4085 C   0  0  0  0  0  0  0  0  0  0  0  0
    2.6265   -0.6975   -0.7813 C   0  0  0  0  0  0  0  0  0  0  0  0
   -1.1001    0.9354   -0.1989 C   0  0  1  0  0  0  0  0  0  0  0  0
    0.6979   -0.2123    0.7933 C   0  0  0  0  0  0  0  0  0  0  0  0
   -2.3276    2.2475   -1.3940 H   0  0  0  0  0  0  0  0  0  0  0  0
   -1.4538    1.0428   -2.3257 H   0  0  0  0  0  0  0  0  0  0  0  0
    0.8917    1.5894   -3.0980 H   0  0  0  0  0  0  0  0  0  0  0  0
    1.4178    5.3811   -1.4402 H   0  0  0  0  0  0  0  0  0  0  0  0
   -0.9390    4.3250   -0.4993 H   0  0  0  0  0  0  0  0  0  0  0  0
   -5.3148   -0.0731    1.5988 H   0  0  0  0  0  0  0  0  0  0  0  0
    4.7646   -2.0471    2.1295 H   0  0  0  0  0  0  0  0  0  0  0  0
   -3.2910   -3.1624   -0.5844 H   0  0  0  0  0  0  0  0  0  0  0  0
    4.3082   -1.1338   -2.0368 H   0  0  0  0  0  0  0  0  0  0  0  0
   -1.4079   -1.6438   -0.9725 H   0  0  0  0  0  0  0  0  0  0  0  0
    2.0423   -0.3213   -1.6086 H   0  0  0  0  0  0  0  0  0  0  0  0
   -0.9854    1.6434    0.6336 H   0  0  0  0  0  0  0  0  0  0  0  0
    0.7500    0.6001    1.5312 H   0  0  0  0  0  0  0  0  0  0  0  0
    0.1087   -1.0158    1.2548 H   0  0  0  0  0  0  0  0  0  0  0  0
  1 24  1  0
  1 25  1  0
  3  2  1  0
  2 24  1  0
  2 26  1  0
  2 27  1  0
  4  3  1  0
  7  3  1  0
  5  4  2  0
  4 28  1  0
  5  6  1  0
  6  7  2  0
  6 29  1  0
  7 30  1  0
 14  8  1  0
 15  9  1  0
 18 10  1  0
 19 11  1  0
 24 12  1  0
 22 12  1  0
 12 14  2  0
 23 13  1  0
 13 25  1  0
 13 15  2  0
 14 16  1  0
 17 15  1  0
 18 16  2  0
 16 31  1  0
 19 17  2  0
 17 32  1  0
 20 18  1  0
 21 19  1  0
 22 20  2  0
 20 33  1  0
 21 23  2  0
 21 34  1  0
 22 35  1  0
 23 36  1  0
 24 37  1  1
 25 38  1  0
 25 39  1  0
M  END
