
     RDKit          3D

 29 30  0  0  0  0  0  0  0  0999 V2000
    0.4924   -0.6990   -0.6090 N   0  0  0  0  0  0  0  0  0  0  0  0
    1.0219    0.2149    0.1965 N   0  0  0  0  0  0  0  0  0  0  0  0
    2.2943    0.1789   -0.1168 C   0  0  0  0  0  0  0  0  0  0  0  0
    4.5372    0.9035    0.0944 N   0  0  0  0  0  0  0  0  0  0  0  0
    2.9552    1.8513    1.4162 O   0  0  0  0  0  0  0  0  0  0  0  0
    2.6058   -0.7116   -1.0848 N   0  0  0  0  0  0  0  0  0  0  0  0
    1.4466   -1.2443   -1.3763 C   0  0  0  0  0  0  0  0  0  0  0  0
    3.2901    1.0642    0.5462 C   0  0  0  0  0  0  0  0  0  0  0  0
   -0.9306   -0.9622   -0.6427 C   0  0  1  0  0  0  0  0  0  0  0  0
   -1.5146   -1.2505    0.7430 C   0  0  2  0  0  0  0  0  0  0  0  0
   -1.4620   -2.6224    1.0042 O   0  0  0  0  0  0  0  0  0  0  0  0
   -2.9281   -0.6789    0.6005 C   0  0  2  0  0  0  0  0  0  0  0  0
   -3.7574   -1.5663   -0.1025 O   0  0  0  0  0  0  0  0  0  0  0  0
   -2.6668    0.5376   -0.2732 C   0  0  2  0  0  0  0  0  0  0  0  0
   -1.6044    0.1461   -1.1479 O   0  0  0  0  0  0  0  0  0  0  0  0
   -2.3010    1.7729    0.5240 C   0  0  0  0  0  0  0  0  0  0  0  0
   -2.0310    2.8138   -0.3809 O   0  0  0  0  0  0  0  0  0  0  0  0
    4.7492    0.2457   -0.6373 H   0  0  0  0  0  0  0  0  0  0  0  0
    5.2864    1.4721    0.4531 H   0  0  0  0  0  0  0  0  0  0  0  0
    1.2512   -2.0076   -2.1133 H   0  0  0  0  0  0  0  0  0  0  0  0
   -1.0489   -1.8285   -1.3018 H   0  0  0  0  0  0  0  0  0  0  0  0
   -0.9694   -0.6749    1.4992 H   0  0  0  0  0  0  0  0  0  0  0  0
   -1.5285   -2.7592    1.9546 H   0  0  0  0  0  0  0  0  0  0  0  0
   -3.3558   -0.4048    1.5735 H   0  0  0  0  0  0  0  0  0  0  0  0
   -3.6106   -2.4516    0.2507 H   0  0  0  0  0  0  0  0  0  0  0  0
   -3.5390    0.7644   -0.8937 H   0  0  0  0  0  0  0  0  0  0  0  0
   -3.1502    2.0084    1.1794 H   0  0  0  0  0  0  0  0  0  0  0  0
   -1.4410    1.5705    1.1743 H   0  0  0  0  0  0  0  0  0  0  0  0
   -1.7287    3.5749    0.1220 H   0  0  0  0  0  0  0  0  0  0  0  0
  1  2  1  0
  1  7  1  0
  1  9  1  0
  2  3  2  0
  3  6  1  0
  3  8  1  0
  4  8  1  0
  5  8  2  0
  6  7  2  0
  9 10  1  0
  9 15  1  0
 10 11  1  0
 10 12  1  0
 12 13  1  0
 12 14  1  0
 14 15  1  0
 14 16  1  0
 16 17  1  0
  4 18  1  0
  4 19  1  0
  7 20  1  0
  9 21  1  6
 10 22  1  1
 11 23  1  0
 12 24  1  1
 13 25  1  0
 14 26  1  6
 16 27  1  0
 16 28  1  0
 17 29  1  0
M  END
