
     RDKit          3D

 29 30  0  0  0  0  0  0  0  0999 V2000
   -2.1703   -0.4832   -0.6581 N   0  0  0  0  0  0  0  0  0  0  0  0
    3.2037   -1.3382    1.4728 C   0  0  0  0  0  0  0  0  0  0  0  0
    1.9520   -1.6199    0.9548 C   0  0  0  0  0  0  0  0  0  0  0  0
    1.4858   -0.9087   -0.1496 C   0  0  0  0  0  0  0  0  0  0  0  0
    0.1272   -1.1911   -0.7161 C   0  0  0  0  0  0  0  0  0  0  0  0
   -0.9684   -0.4114   -0.0157 C   0  0  0  0  0  0  0  0  0  0  0  0
   -3.6376    0.8474    0.9291 C   0  0  0  0  0  0  0  0  0  0  0  0
    5.5266    1.6568   -0.3333 C   0  0  0  0  0  0  0  0  0  0  0  0
    3.5458    0.3582   -0.1916 C   0  0  0  0  0  0  0  0  0  0  0  0
    4.0097   -0.3530    0.9117 C   0  0  0  0  0  0  0  0  0  0  0  0
   -3.3532    0.0790   -0.2337 C   0  0  0  0  0  0  0  0  0  0  0  0
   -4.9560    1.1051    0.7936 C   0  0  0  0  0  0  0  0  0  0  0  0
   -5.4266    0.5595   -0.3229 O   0  0  0  0  0  0  0  0  0  0  0  0
   -4.4180   -0.0870   -0.9716 N   0  0  0  0  0  0  0  0  0  0  0  0
   -0.8049    0.2000    1.0172 O   0  0  0  0  0  0  0  0  0  0  0  0
    2.2824    0.0735   -0.7149 C   0  0  0  0  0  0  0  0  0  0  0  0
   -2.2175   -1.0059   -1.5214 H   0  0  0  0  0  0  0  0  0  0  0  0
    3.5707   -1.8908    2.3282 H   0  0  0  0  0  0  0  0  0  0  0  0
    1.3381   -2.3924    1.4006 H   0  0  0  0  0  0  0  0  0  0  0  0
    0.0954   -0.9717   -1.7863 H   0  0  0  0  0  0  0  0  0  0  0  0
   -0.1142   -2.2546   -0.6192 H   0  0  0  0  0  0  0  0  0  0  0  0
   -2.9818    1.1534    1.7215 H   0  0  0  0  0  0  0  0  0  0  0  0
    5.9081    2.4448   -0.9778 H   0  0  0  0  0  0  0  0  0  0  0  0
    5.4947    2.0282    0.6943 H   0  0  0  0  0  0  0  0  0  0  0  0
    6.2094    0.8044   -0.3775 H   0  0  0  0  0  0  0  0  0  0  0  0
    4.9840   -0.1618    1.3402 H   0  0  0  0  0  0  0  0  0  0  0  0
   -5.6581    1.6500    1.4055 H   0  0  0  0  0  0  0  0  0  0  0  0
    1.9317    0.6305   -1.5765 H   0  0  0  0  0  0  0  0  0  0  0  0
    4.2394    1.3292   -0.8168 O   0  0  0  0  0  0  0  0  0  0  0  0
 15  6  2  0
  7 12  2  0
  7 11  1  0
 12 13  1  0
  6  5  1  0
  6  1  1  0
  5  4  1  0
 11  1  1  0
 11 14  2  0
 13 14  1  0
  3  4  1  0
  3  2  2  0
  4 16  2  0
  2 10  1  0
 16  9  1  0
 10  9  2  0
  9 29  1  0
 29  8  1  0
  1 17  1  0
  2 18  1  0
  3 19  1  0
  5 20  1  0
  5 21  1  0
  7 22  1  0
  8 23  1  0
  8 24  1  0
  8 25  1  0
 10 26  1  0
 12 27  1  0
 16 28  1  0
M  END
