
     RDKit          3D

 50 53  0  0  0  0  0  0  0  0999 V2000
    2.4511    0.7258   -0.9170 N   0  0  0  0  0  0  0  0  0  0  0  0
    2.1852    2.0522   -1.4678 C   0  0  0  0  0  0  0  0  0  0  0  0
    1.8566    3.0638   -0.3809 C   0  0  0  0  0  0  0  0  0  0  0  0
    2.9375    3.1539    0.6993 C   0  0  1  0  0  0  0  0  0  0  0  0
    3.2128    1.7311    1.1921 C   0  0  0  0  0  0  0  0  0  0  0  0
    3.5334    0.7681    0.0627 C   0  0  0  0  0  0  0  0  0  0  0  0
    2.0597   -4.6598    0.1128 N   0  0  0  0  0  0  0  0  0  0  0  0
    0.9704   -4.3399    0.7315 C   0  0  0  0  0  0  0  0  0  0  0  0
    0.3540   -3.1423    0.7814 N   0  0  0  0  0  0  0  0  0  0  0  0
    0.9020   -2.1473    0.1181 C   0  0  0  0  0  0  0  0  0  0  0  0
    2.0780   -2.3671   -0.6636 C   0  0  0  0  0  0  0  0  0  0  0  0
    2.8949   -1.6313   -1.5188 C   0  0  0  0  0  0  0  0  0  0  0  0
    3.9170   -2.5021   -1.9273 C   0  0  0  0  0  0  0  0  0  0  0  0
    3.7113   -3.7379   -1.3446 C   0  0  0  0  0  0  0  0  0  0  0  0
    2.7327   -0.2203   -1.9911 C   0  0  0  0  0  0  0  0  0  0  0  0
    2.6025   -3.6460   -0.5882 N   0  0  0  0  0  0  0  0  0  0  0  0
   -0.7908   -0.4375    0.7137 C   0  0  0  0  0  0  0  0  0  0  0  0
   -1.5503   -1.1347    1.6480 C   0  0  0  0  0  0  0  0  0  0  0  0
   -2.7065   -0.5548    2.1655 C   0  0  0  0  0  0  0  0  0  0  0  0
   -3.1176    0.7163    1.7744 C   0  0  0  0  0  0  0  0  0  0  0  0
   -2.3415    1.3862    0.8416 C   0  0  0  0  0  0  0  0  0  0  0  0
   -1.1983    0.8383    0.2981 C   0  0  0  0  0  0  0  0  0  0  0  0
   -3.3960   -1.2802    3.0626 O   0  0  0  0  0  0  0  0  0  0  0  0
    4.2129    3.7956    0.1407 C   0  0  0  0  0  0  0  0  0  0  0  0
    2.3928    3.9203    1.8176 N   0  0  0  0  0  0  0  0  0  0  0  0
   -2.8741    3.1101    0.2849 Br  0  0  0  0  0  0  0  0  0  0  0  0
    3.0443    2.4019   -2.0597 H   0  0  0  0  0  0  0  0  0  0  0  0
    1.3450    1.9739   -2.1620 H   0  0  0  0  0  0  0  0  0  0  0  0
    1.7005    4.0406   -0.8484 H   0  0  0  0  0  0  0  0  0  0  0  0
    0.9145    2.7937    0.1039 H   0  0  0  0  0  0  0  0  0  0  0  0
    4.0427    1.7297    1.9048 H   0  0  0  0  0  0  0  0  0  0  0  0
    2.3307    1.3701    1.7290 H   0  0  0  0  0  0  0  0  0  0  0  0
    4.4816    1.0432   -0.4231 H   0  0  0  0  0  0  0  0  0  0  0  0
    3.6769   -0.2324    0.4739 H   0  0  0  0  0  0  0  0  0  0  0  0
    0.5059   -5.1423    1.2912 H   0  0  0  0  0  0  0  0  0  0  0  0
    4.7300   -2.2543   -2.5922 H   0  0  0  0  0  0  0  0  0  0  0  0
    4.2615   -4.6609   -1.4179 H   0  0  0  0  0  0  0  0  0  0  0  0
    1.0095   -0.1729   -0.2629 H   0  0  0  0  0  0  0  0  0  0  0  0
    3.6404    0.0653   -2.5420 H   0  0  0  0  0  0  0  0  0  0  0  0
    1.9059   -0.1598   -2.7060 H   0  0  0  0  0  0  0  0  0  0  0  0
   -1.2568   -2.1191    1.9745 H   0  0  0  0  0  0  0  0  0  0  0  0
   -4.0147    1.1608    2.1871 H   0  0  0  0  0  0  0  0  0  0  0  0
   -0.6292    1.3702   -0.4522 H   0  0  0  0  0  0  0  0  0  0  0  0
   -4.1733   -0.7986    3.3669 H   0  0  0  0  0  0  0  0  0  0  0  0
    4.0143    4.8210   -0.1792 H   0  0  0  0  0  0  0  0  0  0  0  0
    4.6242    3.2634   -0.7177 H   0  0  0  0  0  0  0  0  0  0  0  0
    4.9917    3.8300    0.9060 H   0  0  0  0  0  0  0  0  0  0  0  0
    2.2070    4.8698    1.5120 H   0  0  0  0  0  0  0  0  0  0  0  0
    3.1013    4.0086    2.5388 H   0  0  0  0  0  0  0  0  0  0  0  0
    0.3888   -0.9026    0.1406 N   0  0  0  0  0  0  0  0  0  0  0  0
 26 21  1  0
 20 21  2  0
 20 19  1  0
 21 22  1  0
 23 19  1  0
 19 18  2  0
 22 17  2  0
 18 17  1  0
 17 50  1  0
 50 10  1  0
  9 10  2  0
  9  8  1  0
 10 11  1  0
  8  7  2  0
 11 16  1  0
 11 12  2  0
  7 16  1  0
  5  6  1  0
  5  4  1  0
  6  1  1  0
  1 15  1  0
  1  2  1  0
 15 12  1  0
 16 14  1  0
 12 13  1  0
  4 25  1  1
  4  3  1  0
  4 24  1  0
 14 13  2  0
  3  2  1  0
  2 27  1  0
  2 28  1  0
  3 29  1  0
  3 30  1  0
  5 31  1  0
  5 32  1  0
  6 34  1  0
  6 33  1  0
  8 35  1  0
 13 36  1  0
 14 37  1  0
 50 38  1  0
 15 40  1  0
 15 39  1  0
 18 41  1  0
 20 42  1  0
 22 43  1  0
 23 44  1  0
 24 45  1  0
 24 47  1  0
 24 46  1  0
 25 49  1  0
 25 48  1  0
M  END
