
     RDKit          3D

 33 35  0  0  0  0  0  0  0  0999 V2000
    0.1759   -2.5019    1.9903 C   0  0  0  0  0  0  0  0  0  0  0  0
    0.0276   -2.2103    0.4968 C   0  0  0  0  0  0  0  0  0  0  0  0
    0.4975   -0.8491    0.1174 C   0  0  0  0  0  0  0  0  0  0  0  0
    1.8008   -0.3811   -0.0335 C   0  0  0  0  0  0  0  0  0  0  0  0
    3.0769   -0.9661    0.1249 C   0  0  0  0  0  0  0  0  0  0  0  0
    4.1705   -0.1839   -0.1340 C   0  0  0  0  0  0  0  0  0  0  0  0
    5.4043   -0.7220    0.0114 O   0  0  0  0  0  0  0  0  0  0  0  0
    4.0242    1.1746   -0.5497 C   0  0  0  0  0  0  0  0  0  0  0  0
    2.7985    1.7531   -0.7096 C   0  0  0  0  0  0  0  0  0  0  0  0
    1.6535    0.9662   -0.4503 C   0  0  0  0  0  0  0  0  0  0  0  0
    0.3680    1.3099   -0.5428 N   0  0  0  0  0  0  0  0  0  0  0  0
   -0.2918    0.2055   -0.1925 N   0  0  0  0  0  0  0  0  0  0  0  0
   -1.7082    0.2342   -0.2129 C   0  0  0  0  0  0  0  0  0  0  0  0
   -2.4422   -0.1491    0.9019 C   0  0  0  0  0  0  0  0  0  0  0  0
   -3.8252   -0.1187    0.8704 C   0  0  0  0  0  0  0  0  0  0  0  0
   -4.4885    0.3152   -0.2756 C   0  0  0  0  0  0  0  0  0  0  0  0
   -5.8323    0.3329   -0.2545 O   0  0  0  0  0  0  0  0  0  0  0  0
   -3.7480    0.7144   -1.3870 C   0  0  0  0  0  0  0  0  0  0  0  0
   -2.3650    0.6704   -1.3551 C   0  0  0  0  0  0  0  0  0  0  0  0
   -0.4326   -1.8281    2.5937 H   0  0  0  0  0  0  0  0  0  0  0  0
   -0.1365   -3.5223    2.2107 H   0  0  0  0  0  0  0  0  0  0  0  0
    1.2113   -2.3912    2.3135 H   0  0  0  0  0  0  0  0  0  0  0  0
    0.6169   -2.9371   -0.0674 H   0  0  0  0  0  0  0  0  0  0  0  0
   -1.0085   -2.3570    0.1873 H   0  0  0  0  0  0  0  0  0  0  0  0
    3.1947   -1.9956    0.4411 H   0  0  0  0  0  0  0  0  0  0  0  0
    6.0824   -0.0650   -0.1773 H   0  0  0  0  0  0  0  0  0  0  0  0
    4.9170    1.7591   -0.7440 H   0  0  0  0  0  0  0  0  0  0  0  0
    2.7082    2.7839   -1.0266 H   0  0  0  0  0  0  0  0  0  0  0  0
   -1.9415   -0.4606    1.8090 H   0  0  0  0  0  0  0  0  0  0  0  0
   -4.3925   -0.4194    1.7418 H   0  0  0  0  0  0  0  0  0  0  0  0
   -6.1808    0.6580   -1.0923 H   0  0  0  0  0  0  0  0  0  0  0  0
   -4.2494    1.0570   -2.2844 H   0  0  0  0  0  0  0  0  0  0  0  0
   -1.7992    0.9757   -2.2250 H   0  0  0  0  0  0  0  0  0  0  0  0
  1  2  1  0
  1 20  1  0
  1 21  1  0
  1 22  1  0
  2  3  1  0
  2 23  1  0
  2 24  1  0
  3 12  1  0
  3  4  2  0
  4 10  1  0
  4  5  1  0
  5  6  2  0
  5 25  1  0
  6  8  1  0
  6  7  1  0
  7 26  1  0
  8  9  2  0
  8 27  1  0
  9 10  1  0
  9 28  1  0
 10 11  2  0
 11 12  1  0
 12 13  1  0
 13 14  2  0
 13 19  1  0
 14 15  1  0
 14 29  1  0
 15 16  2  0
 15 30  1  0
 16 17  1  0
 16 18  1  0
 17 31  1  0
 18 19  2  0
 18 32  1  0
 19 33  1  0
M  END
