
     RDKit          3D

 53 56  0  0  0  0  0  0  0  0999 V2000
    6.4439    0.6889   -0.1138 C   0  0  0  0  0  0  0  0  0  0  0  0
    5.1252    1.0999    0.1072 C   0  0  0  0  0  0  0  0  0  0  0  0
    4.9698    2.4514    0.4965 C   0  0  0  0  0  0  0  0  0  0  0  0
    6.0510    3.2341    0.5396 N   0  0  0  0  0  0  0  0  0  0  0  0
    7.5328    1.4626   -0.0566 N   0  0  0  0  0  0  0  0  0  0  0  0
    7.6247   -2.5860    0.4242 C   0  0  0  0  0  0  0  0  0  0  0  0
    7.3850   -2.1237   -2.0504 C   0  0  0  0  0  0  0  0  0  0  0  0
    6.4006   -0.6282   -0.3785 N   0  0  0  0  0  0  0  0  0  0  0  0
    5.1441   -1.0895   -0.3530 N   0  0  0  0  0  0  0  0  0  0  0  0
    7.2413    2.7070    0.2573 C   0  0  0  0  0  0  0  0  0  0  0  0
    3.7967    2.9971    0.8252 N   0  0  0  0  0  0  0  0  0  0  0  0
    4.3508   -0.0812   -0.0707 C   0  0  0  0  0  0  0  0  0  0  0  0
    2.9030   -0.2824    0.0206 C   0  0  0  0  0  0  0  0  0  0  0  0
    2.0050    0.6361   -0.5187 C   0  0  0  0  0  0  0  0  0  0  0  0
    0.6336    0.4461   -0.4466 C   0  0  0  0  0  0  0  0  0  0  0  0
    2.3827   -1.4302    0.6178 C   0  0  0  0  0  0  0  0  0  0  0  0
    1.0186   -1.6291    0.6992 C   0  0  0  0  0  0  0  0  0  0  0  0
    0.1229   -0.6919    0.1776 C   0  0  0  0  0  0  0  0  0  0  0  0
   -1.2368   -0.9844    0.2765 N   0  0  0  0  0  0  0  0  0  0  0  0
   -2.2723   -0.0883    0.2862 C   0  0  0  0  0  0  0  0  0  0  0  0
   -2.1279    1.1161    0.1998 O   0  0  0  0  0  0  0  0  0  0  0  0
   -3.4896   -0.7070    0.4087 N   0  0  0  0  0  0  0  0  0  0  0  0
   -4.7427   -0.0983    0.4440 C   0  0  0  0  0  0  0  0  0  0  0  0
   -5.8369   -0.8852    0.0812 C   0  0  0  0  0  0  0  0  0  0  0  0
   -4.9625    1.2167    0.8568 C   0  0  0  0  0  0  0  0  0  0  0  0
   -6.2543    1.7189    0.8901 C   0  0  0  0  0  0  0  0  0  0  0  0
   -7.3438    0.9423    0.5305 C   0  0  0  0  0  0  0  0  0  0  0  0
   -7.1218   -0.3684    0.1269 C   0  0  0  0  0  0  0  0  0  0  0  0
   -8.2828   -1.2496   -0.2149 C   0  0  1  0  0  0  0  0  0  0  0  0
   -8.7604   -1.8782    0.8708 F   0  0  0  0  0  0  0  0  0  0  0  0
   -9.3032   -0.5606   -0.7379 F   0  0  0  0  0  0  0  0  0  0  0  0
   -7.9595   -2.2015   -1.0977 F   0  0  0  0  0  0  0  0  0  0  0  0
    6.7559   -3.2440    0.4138 H   0  0  0  0  0  0  0  0  0  0  0  0
    8.5124   -3.1956    0.2576 H   0  0  0  0  0  0  0  0  0  0  0  0
    7.7059   -2.1363    1.4138 H   0  0  0  0  0  0  0  0  0  0  0  0
    8.4005   -0.8848   -0.6260 H   0  0  0  0  0  0  0  0  0  0  0  0
    6.5063   -2.7656   -2.1204 H   0  0  0  0  0  0  0  0  0  0  0  0
    7.3096   -1.3478   -2.8122 H   0  0  0  0  0  0  0  0  0  0  0  0
    8.2629   -2.7302   -2.2719 H   0  0  0  0  0  0  0  0  0  0  0  0
    8.0769    3.3975    0.3067 H   0  0  0  0  0  0  0  0  0  0  0  0
    2.9752    2.4354    0.9653 H   0  0  0  0  0  0  0  0  0  0  0  0
    3.7826    3.9336    1.1938 H   0  0  0  0  0  0  0  0  0  0  0  0
    2.3724    1.5113   -1.0415 H   0  0  0  0  0  0  0  0  0  0  0  0
   -0.0179    1.1770   -0.8979 H   0  0  0  0  0  0  0  0  0  0  0  0
    3.0498   -2.1692    1.0427 H   0  0  0  0  0  0  0  0  0  0  0  0
    0.6409   -2.5228    1.1817 H   0  0  0  0  0  0  0  0  0  0  0  0
   -1.4474   -1.9415    0.5146 H   0  0  0  0  0  0  0  0  0  0  0  0
   -3.5095   -1.7108    0.3086 H   0  0  0  0  0  0  0  0  0  0  0  0
   -5.6661   -1.9059   -0.2394 H   0  0  0  0  0  0  0  0  0  0  0  0
   -4.1442    1.8493    1.1587 H   0  0  0  0  0  0  0  0  0  0  0  0
   -6.4115    2.7394    1.2124 H   0  0  0  0  0  0  0  0  0  0  0  0
   -8.3404    1.3596    0.5720 H   0  0  0  0  0  0  0  0  0  0  0  0
    7.5155   -1.5220   -0.6588 C   0  0  1  0  0  0  0  0  0  0  0  0
  8  1  1  0
  5  1  2  0
  1  2  1  0
 12  2  1  0
  2  3  2  0
  4  3  1  0
  3 11  1  0
 10  4  2  0
  5 10  1  0
 53  6  1  0
  6 33  1  0
  6 34  1  0
  6 35  1  0
  7 53  1  0
 53  8  1  0
 53 36  1  6
  7 37  1  0
  7 38  1  0
  7 39  1  0
  8  9  1  0
  9 12  2  0
 10 40  1  0
 11 41  1  0
 11 42  1  0
 12 13  1  0
 16 13  1  0
 13 14  2  0
 14 15  1  0
 14 43  1  0
 18 15  2  0
 15 44  1  0
 16 17  2  0
 16 45  1  0
 17 18  1  0
 17 46  1  0
 18 19  1  0
 20 19  1  0
 19 47  1  0
 21 20  2  0
 20 22  1  0
 23 22  1  0
 22 48  1  0
 24 23  2  0
 23 25  1  0
 28 24  1  0
 24 49  1  0
 26 25  2  0
 25 50  1  0
 27 26  1  0
 26 51  1  0
 28 27  2  0
 27 52  1  0
 29 28  1  0
 29 31  1  6
 32 29  1  0
 29 30  1  0
M  END
