
     RDKit          3D

 40 39  0  0  0  0  0  0  0  0999 V2000
    2.0131   -0.0925   -0.2097 C   0  0  0  0  0  0  0  0  0  0  0  0
    0.8601    0.4535    0.6217 C   0  0  0  0  0  0  0  0  0  0  0  0
    5.7926    0.4241   -0.0705 N   0  0  0  0  0  0  0  0  0  0  0  0
    3.3588    0.4505    0.2538 C   0  0  0  0  0  0  0  0  0  0  0  0
    4.5241   -0.1092   -0.5469 C   0  0  0  0  0  0  0  0  0  0  0  0
   -0.4430   -0.0364    0.2003 N   0  0  0  0  0  0  0  0  0  0  0  0
   -0.6833   -1.4041    0.6352 C   0  0  0  0  0  0  0  0  0  0  0  0
   -1.6759   -2.1410   -0.2534 C   0  0  0  0  0  0  0  0  0  0  0  0
   -1.9721   -3.5407    0.2621 C   0  0  0  0  0  0  0  0  0  0  0  0
   -2.9141   -4.2294   -0.6092 N   0  0  0  0  0  0  0  0  0  0  0  0
   -1.5132    0.8531    0.6284 C   0  0  0  0  0  0  0  0  0  0  0  0
   -1.6831    2.0675   -0.2738 C   0  0  0  0  0  0  0  0  0  0  0  0
   -2.7648    3.0057    0.2381 C   0  0  0  0  0  0  0  0  0  0  0  0
   -2.9434    4.1377   -0.6611 N   0  0  0  0  0  0  0  0  0  0  0  0
    2.0380   -1.1854   -0.1629 H   0  0  0  0  0  0  0  0  0  0  0  0
    1.8453    0.1669   -1.2590 H   0  0  0  0  0  0  0  0  0  0  0  0
    1.0395    0.2471    1.6916 H   0  0  0  0  0  0  0  0  0  0  0  0
    0.8680    1.5419    0.5231 H   0  0  0  0  0  0  0  0  0  0  0  0
    6.5502    0.0153   -0.6024 H   0  0  0  0  0  0  0  0  0  0  0  0
    5.8309    1.4169   -0.2677 H   0  0  0  0  0  0  0  0  0  0  0  0
    3.3584    1.5439    0.1755 H   0  0  0  0  0  0  0  0  0  0  0  0
    3.5092    0.2175    1.3125 H   0  0  0  0  0  0  0  0  0  0  0  0
    4.3448    0.0789   -1.6159 H   0  0  0  0  0  0  0  0  0  0  0  0
    4.5449   -1.1965   -0.4299 H   0  0  0  0  0  0  0  0  0  0  0  0
    0.2595   -1.9545    0.6169 H   0  0  0  0  0  0  0  0  0  0  0  0
   -1.0239   -1.4368    1.6849 H   0  0  0  0  0  0  0  0  0  0  0  0
   -2.6159   -1.5871   -0.3294 H   0  0  0  0  0  0  0  0  0  0  0  0
   -1.2642   -2.1982   -1.2662 H   0  0  0  0  0  0  0  0  0  0  0  0
   -1.0235   -4.0818    0.3952 H   0  0  0  0  0  0  0  0  0  0  0  0
   -2.4203   -3.4665    1.2570 H   0  0  0  0  0  0  0  0  0  0  0  0
   -2.4674   -4.4163   -1.4987 H   0  0  0  0  0  0  0  0  0  0  0  0
   -3.1293   -5.1386   -0.2198 H   0  0  0  0  0  0  0  0  0  0  0  0
   -2.4524    0.2946    0.6237 H   0  0  0  0  0  0  0  0  0  0  0  0
   -1.3663    1.1797    1.6724 H   0  0  0  0  0  0  0  0  0  0  0  0
   -0.7407    2.6207   -0.3477 H   0  0  0  0  0  0  0  0  0  0  0  0
   -1.9333    1.7334   -1.2842 H   0  0  0  0  0  0  0  0  0  0  0  0
   -3.7126    2.4624    0.2968 H   0  0  0  0  0  0  0  0  0  0  0  0
   -2.5187    3.3023    1.2683 H   0  0  0  0  0  0  0  0  0  0  0  0
   -3.6601    4.7491   -0.2910 H   0  0  0  0  0  0  0  0  0  0  0  0
   -2.0952    4.6918   -0.6645 H   0  0  0  0  0  0  0  0  0  0  0  0
  3  5  1  0
  5  4  1  0
  4  1  1  0
  1  2  1  0
  2  6  1  0
  8  7  1  0
  8  9  1  0
  7  6  1  0
  6 11  1  0
 10  9  1  0
 11 12  1  0
 12 13  1  0
 13 14  1  0
  1 15  1  0
  1 16  1  0
  2 17  1  0
  2 18  1  0
  3 19  1  0
  3 20  1  0
  4 21  1  0
  4 22  1  0
  5 23  1  0
  5 24  1  0
  7 25  1  0
  7 26  1  0
  8 27  1  0
  8 28  1  0
  9 29  1  0
  9 30  1  0
 10 31  1  0
 10 32  1  0
 11 33  1  0
 11 34  1  0
 12 35  1  0
 12 36  1  0
 13 37  1  0
 13 38  1  0
 14 39  1  0
 14 40  1  0
M  END
