
     RDKit          3D

 47 49  0  0  0  0  0  0  0  0999 V2000
    2.0615   -1.3888    0.2182 O   0  0  0  0  0  0  0  0  0  0  0  0
    3.1392   -0.9302    0.5094 C   0  0  0  0  0  0  0  0  0  0  0  0
    4.1106   -1.5777    1.4815 C   0  0  2  0  0  0  0  0  0  0  0  0
    5.3248   -2.1046    0.6746 C   0  0  1  0  0  0  0  0  0  0  0  0
    6.2979   -2.8623    1.5601 C   0  0  0  0  0  0  0  0  0  0  0  0
    4.9043   -2.8718   -0.4330 O   0  0  0  0  0  0  0  0  0  0  0  0
    3.3935   -2.5455    2.2749 N   0  0  0  0  0  0  0  0  0  0  0  0
    3.5991    0.2410   -0.0484 N   0  0  0  0  0  0  0  0  0  0  0  0
    2.7626    1.1024   -1.2188 S   0  0  1  0  0  0  0  0  0  0  0  0
    3.6069    2.2546   -1.4719 O   0  0  0  0  0  0  0  0  0  0  0  0
    2.4028    0.2105   -2.2992 O   0  0  0  0  0  0  0  0  0  0  0  0
    1.2957    1.6377   -0.3919 C   0  0  0  0  0  0  0  0  0  0  0  0
    1.3817    2.7268    0.4652 C   0  0  0  0  0  0  0  0  0  0  0  0
    0.2325    3.1422    1.1168 C   0  0  0  0  0  0  0  0  0  0  0  0
   -0.9689    2.4819    0.9077 C   0  0  0  0  0  0  0  0  0  0  0  0
   -1.0511    1.3919    0.0415 C   0  0  0  0  0  0  0  0  0  0  0  0
    0.1029    0.9710   -0.6160 C   0  0  0  0  0  0  0  0  0  0  0  0
   -2.3311    0.6876   -0.1710 C   0  0  0  0  0  0  0  0  0  0  0  0
   -2.6768    0.2109   -1.4542 C   0  0  0  0  0  0  0  0  0  0  0  0
   -3.8626   -0.4435   -1.6599 C   0  0  0  0  0  0  0  0  0  0  0  0
   -4.7543   -0.6559   -0.5949 C   0  0  0  0  0  0  0  0  0  0  0  0
   -4.4209   -0.1889    0.6912 C   0  0  0  0  0  0  0  0  0  0  0  0
   -3.1991    0.4839    0.8783 C   0  0  0  0  0  0  0  0  0  0  0  0
   -6.0177   -1.3353   -0.7075 C   0  0  0  0  0  0  0  0  0  0  0  0
   -6.4494   -1.8190   -1.8716 N   0  0  0  0  0  0  0  0  0  0  0  0
   -6.7879   -1.5029    0.3554 N   0  0  0  0  0  0  0  0  0  0  0  0
   -6.3492   -1.0145    1.5211 C   0  0  0  0  0  0  0  0  0  0  0  0
   -5.2386   -0.3765    1.7622 N   0  0  0  0  0  0  0  0  0  0  0  0
    4.4880   -0.8017    2.1560 H   0  0  0  0  0  0  0  0  0  0  0  0
    5.8471   -1.2410    0.2519 H   0  0  0  0  0  0  0  0  0  0  0  0
    5.8585   -3.7888    1.9359 H   0  0  0  0  0  0  0  0  0  0  0  0
    7.1964   -3.1228    1.0014 H   0  0  0  0  0  0  0  0  0  0  0  0
    6.5997   -2.2632    2.4197 H   0  0  0  0  0  0  0  0  0  0  0  0
    4.6252   -3.7412   -0.1265 H   0  0  0  0  0  0  0  0  0  0  0  0
    3.0822   -3.3312    1.7181 H   0  0  0  0  0  0  0  0  0  0  0  0
    3.9913   -2.9117    3.0032 H   0  0  0  0  0  0  0  0  0  0  0  0
    4.4549    0.6733    0.2786 H   0  0  0  0  0  0  0  0  0  0  0  0
    2.3165    3.2467    0.6254 H   0  0  0  0  0  0  0  0  0  0  0  0
    0.2711    3.9925    1.7834 H   0  0  0  0  0  0  0  0  0  0  0  0
   -1.8589    2.8351    1.4126 H   0  0  0  0  0  0  0  0  0  0  0  0
    0.0707    0.1178   -1.2788 H   0  0  0  0  0  0  0  0  0  0  0  0
   -2.0136    0.3820   -2.2921 H   0  0  0  0  0  0  0  0  0  0  0  0
   -4.0958   -0.7816   -2.6611 H   0  0  0  0  0  0  0  0  0  0  0  0
   -2.9520    0.8141    1.8797 H   0  0  0  0  0  0  0  0  0  0  0  0
   -5.9469   -1.7057   -2.7328 H   0  0  0  0  0  0  0  0  0  0  0  0
   -7.3423   -2.2806   -1.9150 H   0  0  0  0  0  0  0  0  0  0  0  0
   -7.0117   -1.1752    2.3661 H   0  0  0  0  0  0  0  0  0  0  0  0
 25 24  1  0
 20 19  2  0
 20 21  1  0
 24 21  2  0
 24 26  1  0
 11  9  2  0
 19 18  1  0
 21 22  1  0
 26 27  2  0
  1  2  2  0
  7  3  1  0
  9 10  2  0
  9  8  1  1
  9 12  1  0
  2  8  1  0
  2  3  1  0
 17 12  2  0
 17 16  1  0
 18 16  1  0
 18 23  2  0
  3  4  1  0
 22 23  1  0
 22 28  2  0
 27 28  1  0
 12 13  1  0
 16 15  2  0
  4  6  1  0
  4  5  1  0
 13 14  2  0
 15 14  1  0
  3 29  1  1
  4 30  1  6
  5 31  1  0
  5 32  1  0
  5 33  1  0
  6 34  1  0
  7 35  1  0
  7 36  1  0
  8 37  1  0
 13 38  1  0
 14 39  1  0
 15 40  1  0
 17 41  1  0
 19 42  1  0
 20 43  1  0
 23 44  1  0
 25 45  1  0
 25 46  1  0
 27 47  1  0
M  END
