
     RDKit          3D

  9  8  0  0  0  0  0  0  0  0999 V2000
    2.1277   -0.1575    1.0644 O   0  0  0  0  0  0  0  0  0  0  0  0
    0.7859   -0.0595    1.4218 C   0  0  0  0  0  0  0  0  0  0  0  0
   -0.0471    0.0253    0.1528 C   0  0  1  0  0  0  0  0  0  0  0  0
   -1.7578    0.1053    0.6044 Cl  0  0  0  0  0  0  0  0  0  0  0  0
    0.3798    1.4635   -0.7813 Cl  0  0  0  0  0  0  0  0  0  0  0  0
    0.2177   -1.4105   -0.8530 Cl  0  0  0  0  0  0  0  0  0  0  0  0
    2.6570    0.3107    1.7155 H   0  0  0  0  0  0  0  0  0  0  0  0
    0.4361   -0.9331    1.9840 H   0  0  0  0  0  0  0  0  0  0  0  0
    0.5657    0.8294    2.0201 H   0  0  0  0  0  0  0  0  0  0  0  0
  3  5  1  6
  3  6  1  0
  3  4  1  0
  3  2  1  0
  1  2  1  0
  1  7  1  0
  2  8  1  0
  2  9  1  0
M  END
