
     RDKit          3D

 41 41  0  0  0  0  0  0  0  0999 V2000
    0.6653    0.6604    1.6012 O   0  0  0  0  0  0  0  0  0  0  0  0
    0.5245    0.5682    0.3904 C   0  0  0  0  0  0  0  0  0  0  0  0
    1.5796    0.4756   -0.4844 N   0  0  0  0  0  0  0  0  0  0  0  0
    2.9258    0.3756   -0.1048 C   0  0  0  0  0  0  0  0  0  0  0  0
    3.4696    1.2217    0.8595 C   0  0  0  0  0  0  0  0  0  0  0  0
    4.8082    1.1183    1.2063 C   0  0  0  0  0  0  0  0  0  0  0  0
    5.6207    0.1858    0.5783 C   0  0  0  0  0  0  0  0  0  0  0  0
    5.0804   -0.6413   -0.3959 C   0  0  0  0  0  0  0  0  0  0  0  0
    3.7360   -0.5715   -0.7478 C   0  0  0  0  0  0  0  0  0  0  0  0
    3.1683   -1.4939   -1.7873 C   0  0  0  0  0  0  0  0  0  0  0  0
   -0.6869    0.5464   -0.2132 N   0  0  0  0  0  0  0  0  0  0  0  0
   -1.9093    0.6398    0.5389 C   0  0  2  0  0  0  0  0  0  0  0  0
   -2.2945   -0.6880    1.2166 C   0  0  0  0  0  0  0  0  0  0  0  0
   -2.3415   -1.9343    0.3322 C   0  0  1  0  0  0  0  0  0  0  0  0
   -2.5319   -3.1632    1.2179 C   0  0  0  0  0  0  0  0  0  0  0  0
   -3.4248   -1.8913   -0.7417 C   0  0  0  0  0  0  0  0  0  0  0  0
   -2.9813    1.2224   -0.3825 C   0  0  0  0  0  0  0  0  0  0  0  0
   -2.7784    1.4940   -1.5520 O   0  0  0  0  0  0  0  0  0  0  0  0
   -4.1670    1.3998    0.2253 N   0  0  0  0  0  0  0  0  0  0  0  0
   -5.1533    2.0830   -0.4194 O   0  0  0  0  0  0  0  0  0  0  0  0
    1.3675    0.2405   -1.4412 H   0  0  0  0  0  0  0  0  0  0  0  0
    2.8512    1.9709    1.3313 H   0  0  0  0  0  0  0  0  0  0  0  0
    5.2163    1.7788    1.9606 H   0  0  0  0  0  0  0  0  0  0  0  0
    6.6672    0.1036    0.8410 H   0  0  0  0  0  0  0  0  0  0  0  0
    5.7127   -1.3699   -0.8891 H   0  0  0  0  0  0  0  0  0  0  0  0
    2.8212   -0.9538   -2.6722 H   0  0  0  0  0  0  0  0  0  0  0  0
    3.9167   -2.2092   -2.1238 H   0  0  0  0  0  0  0  0  0  0  0  0
    2.3163   -2.0582   -1.4025 H   0  0  0  0  0  0  0  0  0  0  0  0
   -0.7623    0.5618   -1.2191 H   0  0  0  0  0  0  0  0  0  0  0  0
   -1.7730    1.3744    1.3406 H   0  0  0  0  0  0  0  0  0  0  0  0
   -1.5517   -0.8513    1.9999 H   0  0  0  0  0  0  0  0  0  0  0  0
   -3.2500   -0.5707    1.7377 H   0  0  0  0  0  0  0  0  0  0  0  0
   -1.3714   -2.0293   -0.1668 H   0  0  0  0  0  0  0  0  0  0  0  0
   -3.4906   -3.1240    1.7413 H   0  0  0  0  0  0  0  0  0  0  0  0
   -2.5193   -4.0799    0.6261 H   0  0  0  0  0  0  0  0  0  0  0  0
   -1.7463   -3.2432    1.9714 H   0  0  0  0  0  0  0  0  0  0  0  0
   -3.2355   -1.1333   -1.5008 H   0  0  0  0  0  0  0  0  0  0  0  0
   -3.4807   -2.8493   -1.2620 H   0  0  0  0  0  0  0  0  0  0  0  0
   -4.4072   -1.6947   -0.3064 H   0  0  0  0  0  0  0  0  0  0  0  0
   -4.2694    1.3651    1.2298 H   0  0  0  0  0  0  0  0  0  0  0  0
   -5.7623    1.4143   -0.7579 H   0  0  0  0  0  0  0  0  0  0  0  0
 20 19  1  0
 19 17  1  0
 18 17  2  0
 17 12  1  0
  5  6  1  0
  5  4  2  0
  6  7  2  0
  1  2  2  0
 12 11  1  0
 12 13  1  0
  2  3  1  0
  2 11  1  0
  3  4  1  0
  4  9  1  0
  7  8  1  0
 13 14  1  0
  9  8  2  0
  9 10  1  0
 14 15  1  0
 14 16  1  0
  3 21  1  0
  5 22  1  0
  6 23  1  0
  7 24  1  0
  8 25  1  0
 10 26  1  0
 10 27  1  0
 10 28  1  0
 11 29  1  0
 12 30  1  1
 13 31  1  0
 13 32  1  0
 14 33  1  6
 15 34  1  0
 15 35  1  0
 15 36  1  0
 16 37  1  0
 16 38  1  0
 16 39  1  0
 19 40  1  0
 20 41  1  0
M  END
