
     RDKit          3D

 24 24  0  0  0  0  0  0  0  0999 V2000
    1.8460   -0.2117    0.1223 C   0  0  2  0  0  0  0  0  0  0  0  0
    0.9999   -0.8702    1.2062 C   0  0  0  0  0  0  0  0  0  0  0  0
   -0.3973   -1.2313    0.7124 C   0  0  0  0  0  0  0  0  0  0  0  0
   -1.1242   -0.0073    0.1459 C   0  0  1  0  0  0  0  0  0  0  0  0
   -0.2710    0.6530   -0.9454 C   0  0  0  0  0  0  0  0  0  0  0  0
    1.1310    1.0057   -0.4716 C   0  0  1  0  0  0  0  0  0  0  0  0
   -2.4623   -0.3878   -0.4054 C   0  0  0  0  0  0  0  0  0  0  0  0
   -3.6313    0.0748    0.0226 C   0  0  0  0  0  0  0  0  0  0  0  0
    2.1121   -1.0876   -0.9552 O   0  0  0  0  0  0  0  0  0  0  0  0
    1.0159    2.0299    0.4956 O   0  0  0  0  0  0  0  0  0  0  0  0
    2.7924    0.1302    0.5720 H   0  0  0  0  0  0  0  0  0  0  0  0
    1.5150   -1.7600    1.5819 H   0  0  0  0  0  0  0  0  0  0  0  0
    0.9254   -0.1834    2.0536 H   0  0  0  0  0  0  0  0  0  0  0  0
   -0.3326   -2.0044   -0.0603 H   0  0  0  0  0  0  0  0  0  0  0  0
   -0.9806   -1.6599    1.5307 H   0  0  0  0  0  0  0  0  0  0  0  0
   -1.2737    0.7133    0.9575 H   0  0  0  0  0  0  0  0  0  0  0  0
   -0.1911   -0.0228   -1.8016 H   0  0  0  0  0  0  0  0  0  0  0  0
   -0.7654    1.5566   -1.3127 H   0  0  0  0  0  0  0  0  0  0  0  0
    1.7149    1.3591   -1.3343 H   0  0  0  0  0  0  0  0  0  0  0  0
   -2.4452   -1.1023   -1.2265 H   0  0  0  0  0  0  0  0  0  0  0  0
   -4.5660   -0.2393   -0.4239 H   0  0  0  0  0  0  0  0  0  0  0  0
   -3.6977    0.7882    0.8365 H   0  0  0  0  0  0  0  0  0  0  0  0
    2.4980   -1.8944   -0.6001 H   0  0  0  0  0  0  0  0  0  0  0  0
    1.9010    2.2867    0.7731 H   0  0  0  0  0  0  0  0  0  0  0  0
 10  6  1  0
  6  5  1  0
  6  1  1  0
  5  4  1  0
  9  1  1  0
  1  2  1  0
  4  7  1  0
  4  3  1  0
  7  8  2  0
  2  3  1  0
  1 11  1  1
  2 12  1  0
  2 13  1  0
  3 14  1  0
  3 15  1  0
  4 16  1  1
  5 17  1  0
  5 18  1  0
  6 19  1  6
  7 20  1  0
  8 21  1  0
  8 22  1  0
  9 23  1  0
 10 24  1  0
M  END
