
     RDKit          3D

 46 48  0  0  0  0  0  0  0  0999 V2000
   -6.4148    3.2718    0.6787 O   0  0  0  0  0  0  0  0  0  0  0  0
   -5.5710    2.4116    0.5900 N   0  0  0  0  0  0  0  0  0  0  0  0
   -4.4177    2.5652    0.9403 O   0  0  0  0  0  0  0  0  0  0  0  0
   -5.9325    1.1338    0.0423 C   0  0  0  0  0  0  0  0  0  0  0  0
   -7.2388    0.9010   -0.3529 C   0  0  0  0  0  0  0  0  0  0  0  0
   -4.9795    0.1139   -0.1033 C   0  0  0  0  0  0  0  0  0  0  0  0
   -3.6584    0.0426    0.1768 N   0  0  0  0  0  0  0  0  0  0  0  0
   -3.1929   -1.2148   -0.1389 C   0  0  0  0  0  0  0  0  0  0  0  0
   -4.2152   -1.9653   -0.6409 C   0  0  0  0  0  0  0  0  0  0  0  0
   -5.3720   -1.1379   -0.6385 C   0  0  0  0  0  0  0  0  0  0  0  0
   -6.6924   -1.3507   -1.0337 C   0  0  0  0  0  0  0  0  0  0  0  0
   -7.6138   -0.3308   -0.8880 C   0  0  0  0  0  0  0  0  0  0  0  0
   -1.7956   -1.6609    0.0307 C   0  0  0  0  0  0  0  0  0  0  0  0
   -1.5366   -2.8493    0.0854 O   0  0  0  0  0  0  0  0  0  0  0  0
   -0.8736   -0.6667    0.0986 N   0  0  0  0  0  0  0  0  0  0  0  0
    0.5094   -0.7911    0.2656 C   0  0  0  0  0  0  0  0  0  0  0  0
    1.2952    0.3133   -0.0791 C   0  0  0  0  0  0  0  0  0  0  0  0
    2.6651    0.2836    0.0693 C   0  0  0  0  0  0  0  0  0  0  0  0
    3.3139   -0.8485    0.5751 C   0  0  0  0  0  0  0  0  0  0  0  0
    2.5183   -1.9374    0.9237 C   0  0  0  0  0  0  0  0  0  0  0  0
    1.1383   -1.9230    0.7758 C   0  0  0  0  0  0  0  0  0  0  0  0
    4.7840   -0.8920    0.7135 C   0  0  0  0  0  0  0  0  0  0  0  0
    5.4059   -2.0386    1.4574 C   0  0  0  0  0  0  0  0  0  0  0  0
    5.4260    0.0624    0.1558 N   0  0  0  0  0  0  0  0  0  0  0  0
    6.7598    0.0871    0.1763 N   0  0  0  0  0  0  0  0  0  0  0  0
    7.4335    1.1921   -0.2912 C   0  0  0  0  0  0  0  0  0  0  0  0
    6.8439    2.2556   -0.6511 N   0  0  0  0  0  0  0  0  0  0  0  0
    8.8092    0.9611   -0.2359 N   0  0  0  0  0  0  0  0  0  0  0  0
    9.5946    1.9388   -0.7961 O   0  0  0  0  0  0  0  0  0  0  0  0
   -7.9798    1.6800   -0.2479 H   0  0  0  0  0  0  0  0  0  0  0  0
   -8.6413   -0.4809   -1.1875 H   0  0  0  0  0  0  0  0  0  0  0  0
   -3.1485    0.7628    0.6625 H   0  0  0  0  0  0  0  0  0  0  0  0
   -4.1473   -2.9819   -0.9926 H   0  0  0  0  0  0  0  0  0  0  0  0
   -6.9910   -2.3054   -1.4464 H   0  0  0  0  0  0  0  0  0  0  0  0
   -1.1792    0.2622   -0.1502 H   0  0  0  0  0  0  0  0  0  0  0  0
    0.8237    1.2065   -0.4722 H   0  0  0  0  0  0  0  0  0  0  0  0
    0.5758   -2.7946    1.0669 H   0  0  0  0  0  0  0  0  0  0  0  0
    3.2441    1.1525   -0.2128 H   0  0  0  0  0  0  0  0  0  0  0  0
    2.9642   -2.8411    1.3160 H   0  0  0  0  0  0  0  0  0  0  0  0
    5.5039   -2.9181    0.8172 H   0  0  0  0  0  0  0  0  0  0  0  0
    6.3956   -1.8078    1.8497 H   0  0  0  0  0  0  0  0  0  0  0  0
    4.7997   -2.3261    2.3143 H   0  0  0  0  0  0  0  0  0  0  0  0
    7.2882   -0.6450    0.6316 H   0  0  0  0  0  0  0  0  0  0  0  0
    9.1019    0.0373   -0.5343 H   0  0  0  0  0  0  0  0  0  0  0  0
    9.5020    1.8810   -1.7587 H   0  0  0  0  0  0  0  0  0  0  0  0
    7.5161    2.9337   -0.9892 H   0  0  0  0  0  0  0  0  0  0  0  0
  1  2  1  0
  2  3  2  0
  2  4  1  0
  4  5  2  0
  4  6  1  0
  5 12  1  0
  6  7  1  0
  6 10  2  0
  7  8  1  0
  8  9  2  0
  8 13  1  0
  9 10  1  0
 10 11  1  0
 11 12  2  0
 13 14  2  0
 13 15  1  0
 15 16  1  0
 16 17  2  0
 16 21  1  0
 17 18  1  0
 18 19  2  0
 19 20  1  0
 19 22  1  0
 20 21  2  0
 22 23  1  0
 22 24  2  0
 24 25  1  0
 25 26  1  0
 26 27  2  0
 26 28  1  0
 28 29  1  0
  5 30  1  0
 12 31  1  0
  7 32  1  0
  9 33  1  0
 11 34  1  0
 15 35  1  0
 17 36  1  0
 21 37  1  0
 18 38  1  0
 20 39  1  0
 23 40  1  0
 23 41  1  0
 23 42  1  0
 25 43  1  0
 28 44  1  0
 29 45  1  0
 27 46  1  0
M  CHG  2   1  -1   2   1
M  END
