
     RDKit          3D

 40 41  0  0  0  0  0  0  0  0999 V2000
    2.4185    3.2460   -0.6056 C   0  0  0  0  0  0  0  0  0  0  0  0
    2.1145    3.7857    0.6378 C   0  0  0  0  0  0  0  0  0  0  0  0
    1.1771    3.1559    1.4451 C   0  0  0  0  0  0  0  0  0  0  0  0
    0.5483    1.9927    1.0184 C   0  0  0  0  0  0  0  0  0  0  0  0
    0.8533    1.4452   -0.2240 C   0  0  0  0  0  0  0  0  0  0  0  0
    1.7901    2.0846   -1.0312 C   0  0  0  0  0  0  0  0  0  0  0  0
    0.2358    0.1490   -0.6964 C   0  0  1  0  0  0  0  0  0  0  0  0
    1.1738   -1.0047   -0.3873 C   0  0  0  0  0  0  0  0  0  0  0  0
    1.9421   -1.5789   -1.3921 C   0  0  0  0  0  0  0  0  0  0  0  0
    2.8241   -2.6146   -1.1054 C   0  0  0  0  0  0  0  0  0  0  0  0
    2.9343   -3.0933    0.1919 C   0  0  0  0  0  0  0  0  0  0  0  0
    2.1620   -2.5281    1.2010 C   0  0  0  0  0  0  0  0  0  0  0  0
    1.2898   -1.4892    0.9137 C   0  0  0  0  0  0  0  0  0  0  0  0
   -1.0136   -0.0026   -0.0836 O   0  0  0  0  0  0  0  0  0  0  0  0
   -1.7673   -1.0833   -0.5855 C   0  0  0  0  0  0  0  0  0  0  0  0
   -3.0609   -1.1981    0.1909 C   0  0  0  0  0  0  0  0  0  0  0  0
   -3.9136   -0.0300    0.1156 N   0  0  0  0  0  0  0  0  0  0  0  0
   -4.4441    0.1939   -1.2105 C   0  0  0  0  0  0  0  0  0  0  0  0
   -4.9768   -0.1024    1.0929 C   0  0  0  0  0  0  0  0  0  0  0  0
    3.1427    3.7315   -1.2469 H   0  0  0  0  0  0  0  0  0  0  0  0
    2.6014    4.6927    0.9723 H   0  0  0  0  0  0  0  0  0  0  0  0
    0.9310    3.5712    2.4142 H   0  0  0  0  0  0  0  0  0  0  0  0
   -0.1827    1.5185    1.6598 H   0  0  0  0  0  0  0  0  0  0  0  0
    2.0304    1.6727   -2.0050 H   0  0  0  0  0  0  0  0  0  0  0  0
    0.1205    0.2044   -1.7907 H   0  0  0  0  0  0  0  0  0  0  0  0
    1.8526   -1.2190   -2.4107 H   0  0  0  0  0  0  0  0  0  0  0  0
    3.4187   -3.0508   -1.8977 H   0  0  0  0  0  0  0  0  0  0  0  0
    3.6147   -3.9047    0.4163 H   0  0  0  0  0  0  0  0  0  0  0  0
    2.2408   -2.8989    2.2150 H   0  0  0  0  0  0  0  0  0  0  0  0
    0.6951   -1.0559    1.7086 H   0  0  0  0  0  0  0  0  0  0  0  0
   -1.2262   -2.0316   -0.4764 H   0  0  0  0  0  0  0  0  0  0  0  0
   -1.9518   -0.9516   -1.6604 H   0  0  0  0  0  0  0  0  0  0  0  0
   -2.8135   -1.3734    1.2418 H   0  0  0  0  0  0  0  0  0  0  0  0
   -3.5721   -2.1108   -0.1630 H   0  0  0  0  0  0  0  0  0  0  0  0
   -3.6440    0.3643   -1.9314 H   0  0  0  0  0  0  0  0  0  0  0  0
   -5.0570   -0.6429   -1.5831 H   0  0  0  0  0  0  0  0  0  0  0  0
   -5.0703    1.0872   -1.2098 H   0  0  0  0  0  0  0  0  0  0  0  0
   -5.6588   -0.9535    0.9393 H   0  0  0  0  0  0  0  0  0  0  0  0
   -4.5593   -0.1897    2.0974 H   0  0  0  0  0  0  0  0  0  0  0  0
   -5.5755    0.8092    1.0604 H   0  0  0  0  0  0  0  0  0  0  0  0
  1  2  2  0
  1  6  1  0
  1 20  1  0
  2  3  1  0
  2 21  1  0
  3  4  2  0
  3 22  1  0
  4  5  1  0
  4 23  1  0
  5  6  2  0
  5  7  1  0
  6 24  1  0
  7  8  1  0
  7 14  1  0
  7 25  1  6
  8  9  2  0
  8 13  1  0
  9 10  1  0
  9 26  1  0
 10 11  2  0
 10 27  1  0
 11 12  1  0
 11 28  1  0
 12 13  2  0
 12 29  1  0
 13 30  1  0
 14 15  1  0
 15 16  1  0
 15 31  1  0
 15 32  1  0
 16 17  1  0
 16 33  1  0
 16 34  1  0
 17 18  1  0
 17 19  1  0
 18 35  1  0
 18 36  1  0
 18 37  1  0
 19 38  1  0
 19 39  1  0
 19 40  1  0
M  END
