
     RDKit          3D

 32 33  0  0  0  0  0  0  0  0999 V2000
    4.8772    1.7668   -0.6320 C   0  0  0  0  0  0  0  0  0  0  0  0
    4.1890    1.2255    0.9500 S   0  0  0  0  0  0  0  0  0  0  0  0
    3.5469    2.4261    1.5783 O   0  0  0  0  0  0  0  0  0  0  0  0
    2.8537    0.2391    0.2311 C   0  0  0  0  0  0  0  0  0  0  0  0
    1.5838    0.8072    0.1632 C   0  0  0  0  0  0  0  0  0  0  0  0
    0.5632    0.0463   -0.3517 C   0  0  0  0  0  0  0  0  0  0  0  0
    0.8108   -1.2157   -0.7586 N   0  0  0  0  0  0  0  0  0  0  0  0
    2.0300   -1.8706   -0.7038 C   0  0  0  0  0  0  0  0  0  0  0  0
    2.1523   -3.0187   -1.0892 O   0  0  0  0  0  0  0  0  0  0  0  0
    3.0938   -1.0542   -0.1627 C   0  0  0  0  0  0  0  0  0  0  0  0
    4.3758   -1.6499   -0.0640 C   0  0  0  0  0  0  0  0  0  0  0  0
    5.4220   -2.1277    0.0177 N   0  0  0  0  0  0  0  0  0  0  0  0
   -0.8131    0.5444   -0.4674 C   0  0  0  0  0  0  0  0  0  0  0  0
   -1.0415    1.8721   -0.8248 C   0  0  0  0  0  0  0  0  0  0  0  0
   -2.3374    2.3447   -0.9464 C   0  0  0  0  0  0  0  0  0  0  0  0
   -3.4180    1.5102   -0.7001 C   0  0  0  0  0  0  0  0  0  0  0  0
   -3.1759    0.1974   -0.3332 C   0  0  0  0  0  0  0  0  0  0  0  0
   -1.8923   -0.3023   -0.2196 C   0  0  0  0  0  0  0  0  0  0  0  0
   -4.2455   -0.6608   -0.1262 O   0  0  0  0  0  0  0  0  0  0  0  0
   -4.7663   -0.7235    1.1088 C   0  0  1  0  0  0  0  0  0  0  0  0
   -5.2625    0.4454    1.5158 F   0  0  0  0  0  0  0  0  0  0  0  0
   -5.7460   -1.6101    1.0849 F   0  0  0  0  0  0  0  0  0  0  0  0
   -3.8726   -1.1034    2.0222 F   0  0  0  0  0  0  0  0  0  0  0  0
    5.6976    2.4431   -0.3980 H   0  0  0  0  0  0  0  0  0  0  0  0
    5.2631    0.9119   -1.1837 H   0  0  0  0  0  0  0  0  0  0  0  0
    4.1122    2.2838   -1.2079 H   0  0  0  0  0  0  0  0  0  0  0  0
    1.3982    1.8048    0.5320 H   0  0  0  0  0  0  0  0  0  0  0  0
    0.0566   -1.7475   -1.1784 H   0  0  0  0  0  0  0  0  0  0  0  0
   -0.2105    2.5302   -1.0407 H   0  0  0  0  0  0  0  0  0  0  0  0
   -2.5109    3.3697   -1.2426 H   0  0  0  0  0  0  0  0  0  0  0  0
   -4.4303    1.8749   -0.8106 H   0  0  0  0  0  0  0  0  0  0  0  0
   -1.7439   -1.3350    0.0709 H   0  0  0  0  0  0  0  0  0  0  0  0
  2  1  1  6
  2  3  2  0
  2  4  1  0
  4  5  1  0
  4 10  2  0
  5  6  2  0
  6  7  1  0
  6 13  1  0
  7  8  1  0
  8  9  2  0
  8 10  1  0
 10 11  1  0
 11 12  3  0
 13 14  2  0
 13 18  1  0
 14 15  1  0
 15 16  2  0
 16 17  1  0
 17 18  2  0
 17 19  1  0
 19 20  1  0
 20 21  1  1
 20 22  1  0
 20 23  1  0
  1 24  1  0
  1 25  1  0
  1 26  1  0
  5 27  1  0
  7 28  1  0
 14 29  1  0
 15 30  1  0
 16 31  1  0
 18 32  1  0
M  END
