
     RDKit          3D

 35 36  0  0  0  0  0  0  0  0999 V2000
    0.2475   -0.1363   -0.0744 C   0  0  0  0  0  0  0  0  0  0  0  0
    1.4727   -0.8103   -0.1230 C   0  0  0  0  0  0  0  0  0  0  0  0
    1.4834   -2.2076   -0.2018 C   0  0  0  0  0  0  0  0  0  0  0  0
   -2.2405   -0.1018   -0.0502 C   0  0  0  0  0  0  0  0  0  0  0  0
   -2.4082    1.1090   -0.7247 C   0  0  0  0  0  0  0  0  0  0  0  0
   -4.6547    1.2619    0.0465 C   0  0  0  0  0  0  0  0  0  0  0  0
    3.7474    3.4012   -0.3108 C   0  0  0  0  0  0  0  0  0  0  0  0
    3.8359   -0.7682   -0.2412 O   0  0  0  0  0  0  0  0  0  0  0  0
    2.7871   -0.1175   -0.0936 C   0  0  0  0  0  0  0  0  0  0  0  0
    2.8075    1.1994    0.0902 N   0  0  0  0  0  0  0  0  0  0  0  0
    4.0215    1.9873    0.1505 C   0  0  0  0  0  0  0  0  0  0  0  0
    2.7642    3.9609    0.5327 O   0  0  0  0  0  0  0  0  0  0  0  0
    2.5969   -2.9397   -0.2760 O   0  0  0  0  0  0  0  0  0  0  0  0
    0.2653   -2.9105   -0.2068 C   0  0  0  0  0  0  0  0  0  0  0  0
    0.2500   -4.2552   -0.2754 O   0  0  0  0  0  0  0  0  0  0  0  0
   -0.9535   -0.8234   -0.0942 C   0  0  0  0  0  0  0  0  0  0  0  0
   -0.9275   -2.2222   -0.1583 C   0  0  0  0  0  0  0  0  0  0  0  0
   -3.3225   -0.6091    0.6705 C   0  0  0  0  0  0  0  0  0  0  0  0
   -4.5333    0.0643    0.7240 C   0  0  0  0  0  0  0  0  0  0  0  0
   -5.8226    1.9228    0.0948 F   0  0  0  0  0  0  0  0  0  0  0  0
   -3.6098    1.7990   -0.6798 C   0  0  0  0  0  0  0  0  0  0  0  0
    0.2164    0.9434   -0.0098 H   0  0  0  0  0  0  0  0  0  0  0  0
   -1.5980    1.5183   -1.3146 H   0  0  0  0  0  0  0  0  0  0  0  0
    4.6880    3.9632   -0.2735 H   0  0  0  0  0  0  0  0  0  0  0  0
    3.4192    3.3823   -1.3561 H   0  0  0  0  0  0  0  0  0  0  0  0
    1.9529    1.6870    0.3046 H   0  0  0  0  0  0  0  0  0  0  0  0
    4.7772    1.5445   -0.4959 H   0  0  0  0  0  0  0  0  0  0  0  0
    4.4240    1.9920    1.1682 H   0  0  0  0  0  0  0  0  0  0  0  0
    2.4343    4.7667    0.1256 H   0  0  0  0  0  0  0  0  0  0  0  0
    3.3498   -2.2870   -0.2996 H   0  0  0  0  0  0  0  0  0  0  0  0
    1.1493   -4.5970   -0.3535 H   0  0  0  0  0  0  0  0  0  0  0  0
   -1.8515   -2.7869   -0.1945 H   0  0  0  0  0  0  0  0  0  0  0  0
   -3.2203   -1.5361    1.2203 H   0  0  0  0  0  0  0  0  0  0  0  0
   -5.3627   -0.3334    1.2939 H   0  0  0  0  0  0  0  0  0  0  0  0
   -3.7312    2.7333   -1.2118 H   0  0  0  0  0  0  0  0  0  0  0  0
 13  3  1  0
 11 10  1  0
 11  7  1  0
 15 14  1  0
 10  9  1  0
  3 14  2  0
  3  2  1  0
 14 17  1  0
  9  2  1  0
  9  8  2  0
  2  1  2  0
 17 16  2  0
  1 16  1  0
  7 12  1  0
 16  4  1  0
  5  4  2  0
  5 21  1  0
  4 18  1  0
 21  6  2  0
 18 19  2  0
  6 19  1  0
  6 20  1  0
  1 22  1  0
  5 23  1  0
  7 24  1  0
  7 25  1  0
 10 26  1  0
 11 27  1  0
 11 28  1  0
 12 29  1  0
 13 30  1  0
 15 31  1  0
 17 32  1  0
 18 33  1  0
 19 34  1  0
 21 35  1  0
M  END
