
     RDKit          3D

 42 44  0  0  0  0  0  0  0  0999 V2000
    1.6501   -0.1849   -0.2868 C   0  0  0  0  0  0  0  0  0  0  0  0
    1.8134   -3.1879    0.2590 C   0  0  0  0  0  0  0  0  0  0  0  0
    2.1929   -2.4594   -0.9512 C   0  0  0  0  0  0  0  0  0  0  0  0
    4.3378    0.5145   -0.4890 C   0  0  0  0  0  0  0  0  0  0  0  0
    3.4156    1.5601   -0.1055 C   0  0  0  0  0  0  0  0  0  0  0  0
    2.0331    1.1335   -0.0184 C   0  0  0  0  0  0  0  0  0  0  0  0
   -3.7841    0.2754   -1.8593 C   0  0  0  0  0  0  0  0  0  0  0  0
   -4.4361   -1.2980    0.0069 C   0  0  0  0  0  0  0  0  0  0  0  0
   -3.9461   -0.2848    1.0426 C   0  0  1  0  0  0  0  0  0  0  0  0
   -3.5210   -0.9527    2.3441 C   0  0  0  0  0  0  0  0  0  0  0  0
   -0.5029    0.2661    0.1395 C   0  0  0  0  0  0  0  0  0  0  0  0
   -4.8764   -0.6231   -1.2885 C   0  0  0  0  0  0  0  0  0  0  0  0
   -3.3018    1.2858   -0.8232 C   0  0  0  0  0  0  0  0  0  0  0  0
   -2.8564    0.6161    0.4690 C   0  0  2  0  0  0  0  0  0  0  0  0
   -1.7199   -0.2300    0.2120 O   0  0  0  0  0  0  0  0  0  0  0  0
   -0.3010    1.5399    0.4113 N   0  0  0  0  0  0  0  0  0  0  0  0
    0.9525    1.9949    0.3456 C   0  0  0  0  0  0  0  0  0  0  0  0
    1.1557    3.2726    0.6291 N   0  0  0  0  0  0  0  0  0  0  0  0
    3.7881    2.7159    0.1295 O   0  0  0  0  0  0  0  0  0  0  0  0
    3.9101   -0.7373   -0.7403 C   0  0  0  0  0  0  0  0  0  0  0  0
    2.5990   -1.1005   -0.6553 N   0  0  0  0  0  0  0  0  0  0  0  0
    1.5303   -3.7804    1.2016 N   0  0  0  0  0  0  0  0  0  0  0  0
    0.4064   -0.6338   -0.2076 N   0  0  0  0  0  0  0  0  0  0  0  0
    3.0222   -2.9823   -1.4252 H   0  0  0  0  0  0  0  0  0  0  0  0
    1.3532   -2.4706   -1.6445 H   0  0  0  0  0  0  0  0  0  0  0  0
    5.3913    0.7390   -0.5782 H   0  0  0  0  0  0  0  0  0  0  0  0
   -2.9438   -0.3329   -2.2063 H   0  0  0  0  0  0  0  0  0  0  0  0
   -4.1566    0.8074   -2.7378 H   0  0  0  0  0  0  0  0  0  0  0  0
   -3.6448   -2.0265   -0.1980 H   0  0  0  0  0  0  0  0  0  0  0  0
   -5.2683   -1.8661    0.4314 H   0  0  0  0  0  0  0  0  0  0  0  0
   -4.7804    0.3908    1.2681 H   0  0  0  0  0  0  0  0  0  0  0  0
   -2.7288   -1.6847    2.1822 H   0  0  0  0  0  0  0  0  0  0  0  0
   -3.1589   -0.2200    3.0680 H   0  0  0  0  0  0  0  0  0  0  0  0
   -4.3631   -1.4755    2.7992 H   0  0  0  0  0  0  0  0  0  0  0  0
   -5.7686   -0.0188   -1.0906 H   0  0  0  0  0  0  0  0  0  0  0  0
   -5.1695   -1.3768   -2.0232 H   0  0  0  0  0  0  0  0  0  0  0  0
   -2.4940    1.9026   -1.2238 H   0  0  0  0  0  0  0  0  0  0  0  0
   -4.1164    1.9730   -0.5735 H   0  0  0  0  0  0  0  0  0  0  0  0
   -2.5823    1.3728    1.2083 H   0  0  0  0  0  0  0  0  0  0  0  0
    2.0917    3.6482    0.5954 H   0  0  0  0  0  0  0  0  0  0  0  0
    0.3780    3.8580    0.8837 H   0  0  0  0  0  0  0  0  0  0  0  0
    4.5933   -1.5238   -1.0289 H   0  0  0  0  0  0  0  0  0  0  0  0
  4 20  2  0
  4  5  1  0
 19  5  2  0
 22  2  3  0
 20 21  1  0
  5  6  1  0
  2  3  1  0
 21  3  1  0
 21  1  1  0
  6  1  2  0
  6 17  1  0
  1 23  1  0
 18 17  1  0
 17 16  2  0
 23 11  2  0
 16 11  1  0
 11 15  1  0
  7 13  1  0
  7 12  1  0
 13 14  1  0
 14 15  1  0
 14  9  1  0
 12  8  1  0
  9  8  1  0
  9 10  1  0
  3 24  1  0
  3 25  1  0
  4 26  1  0
  7 27  1  0
  7 28  1  0
  8 29  1  0
  8 30  1  0
  9 31  1  1
 10 32  1  0
 10 33  1  0
 10 34  1  0
 12 35  1  0
 12 36  1  0
 13 37  1  0
 13 38  1  0
 14 39  1  1
 18 40  1  0
 18 41  1  0
 20 42  1  0
M  END
