
     RDKit          3D

 43 46  0  0  0  0  0  0  0  0999 V2000
   -0.8544   -0.4441    0.1771 C   0  0  2  0  0  0  0  0  0  0  0  0
    0.4951   -0.5789   -0.5072 C   0  0  0  0  0  0  0  0  0  0  0  0
    2.7758   -0.1295   -0.0093 C   0  0  0  0  0  0  0  0  0  0  0  0
    3.7000    0.3609    0.9183 C   0  0  0  0  0  0  0  0  0  0  0  0
    5.0404    0.3791    0.5873 C   0  0  0  0  0  0  0  0  0  0  0  0
    6.2023    0.8697    1.4067 C   0  0  0  0  0  0  0  0  0  0  0  0
    7.4145    0.2443    0.6961 C   0  0  0  0  0  0  0  0  0  0  0  0
    6.9763    0.0649   -0.7681 C   0  0  0  0  0  0  0  0  0  0  0  0
    5.4827   -0.0765   -0.6550 C   0  0  0  0  0  0  0  0  0  0  0  0
    4.5657   -0.5554   -1.5710 C   0  0  0  0  0  0  0  0  0  0  0  0
    3.2085   -0.5862   -1.2531 C   0  0  0  0  0  0  0  0  0  0  0  0
   -1.9337   -1.0636   -0.7133 C   0  0  0  0  0  0  0  0  0  0  0  0
   -4.1515    0.0446   -0.2388 C   0  0  0  0  0  0  0  0  0  0  0  0
   -4.1496    1.2194   -0.9837 C   0  0  0  0  0  0  0  0  0  0  0  0
   -5.2717    2.0217   -0.8821 C   0  0  0  0  0  0  0  0  0  0  0  0
   -6.3569    1.6695   -0.0638 C   0  0  0  0  0  0  0  0  0  0  0  0
   -6.3513    0.4999    0.6734 C   0  0  0  0  0  0  0  0  0  0  0  0
   -5.2302   -0.3255    0.5819 C   0  0  0  0  0  0  0  0  0  0  0  0
   -3.7894   -1.8709    0.7498 C   0  0  0  0  0  0  0  0  0  0  0  0
   -3.2441   -0.9772   -0.1145 N   0  0  0  0  0  0  0  0  0  0  0  0
   -4.9671   -1.5321    1.1880 N   0  0  0  0  0  0  0  0  0  0  0  0
   -1.1567    0.8780    0.5346 O   0  0  0  0  0  0  0  0  0  0  0  0
    1.4840   -0.1288    0.3915 O   0  0  0  0  0  0  0  0  0  0  0  0
   -0.8269   -1.0090    1.1142 H   0  0  0  0  0  0  0  0  0  0  0  0
    0.6627   -1.6265   -0.7831 H   0  0  0  0  0  0  0  0  0  0  0  0
    0.5102    0.0130   -1.4324 H   0  0  0  0  0  0  0  0  0  0  0  0
    3.3545    0.7131    1.8836 H   0  0  0  0  0  0  0  0  0  0  0  0
    6.2481    1.9630    1.3702 H   0  0  0  0  0  0  0  0  0  0  0  0
    6.1343    0.5928    2.4597 H   0  0  0  0  0  0  0  0  0  0  0  0
    8.3167    0.8475    0.7949 H   0  0  0  0  0  0  0  0  0  0  0  0
    7.6250   -0.7341    1.1328 H   0  0  0  0  0  0  0  0  0  0  0  0
    7.2335    0.9469   -1.3636 H   0  0  0  0  0  0  0  0  0  0  0  0
    7.4552   -0.7905   -1.2473 H   0  0  0  0  0  0  0  0  0  0  0  0
    4.8869   -0.9184   -2.5400 H   0  0  0  0  0  0  0  0  0  0  0  0
    2.5114   -0.9751   -1.9832 H   0  0  0  0  0  0  0  0  0  0  0  0
   -1.9675   -0.5726   -1.6881 H   0  0  0  0  0  0  0  0  0  0  0  0
   -1.7073   -2.1144   -0.8973 H   0  0  0  0  0  0  0  0  0  0  0  0
   -3.3204    1.5006   -1.6203 H   0  0  0  0  0  0  0  0  0  0  0  0
   -5.3131    2.9451   -1.4448 H   0  0  0  0  0  0  0  0  0  0  0  0
   -7.2128    2.3298   -0.0135 H   0  0  0  0  0  0  0  0  0  0  0  0
   -7.1895    0.2279    1.3023 H   0  0  0  0  0  0  0  0  0  0  0  0
   -3.2638   -2.7766    1.0185 H   0  0  0  0  0  0  0  0  0  0  0  0
   -1.0932    1.4418   -0.2445 H   0  0  0  0  0  0  0  0  0  0  0  0
 16 15  1  0
 16 17  2  0
 15 14  2  0
 17 18  1  0
 14 13  1  0
 18 13  2  0
 18 21  1  0
 13 20  1  0
 21 19  2  0
 23  2  1  0
 23  3  1  0
  2  1  1  0
 20 19  1  0
 20 12  1  0
  3 11  1  0
  3  4  2  0
 11 10  2  0
  1 12  1  0
  1 22  1  0
  4  5  1  0
 10  9  1  0
  5  9  2  0
  5  6  1  0
  9  8  1  0
  6  7  1  0
  8  7  1  0
  1 24  1  1
  2 25  1  0
  2 26  1  0
  4 27  1  0
  6 28  1  0
  6 29  1  0
  7 30  1  0
  7 31  1  0
  8 32  1  0
  8 33  1  0
 10 34  1  0
 11 35  1  0
 12 36  1  0
 12 37  1  0
 14 38  1  0
 15 39  1  0
 16 40  1  0
 17 41  1  0
 19 42  1  0
 22 43  1  0
M  END
