
     RDKit          3D

 22 21  0  0  0  0  0  0  0  0999 V2000
   -0.1824    0.1574   -1.7726 C   0  0  0  0  0  0  0  0  0  0  0  0
    0.5183    0.5631   -0.4848 C   0  0  1  0  0  0  0  0  0  0  0  0
   -0.1133   -0.1552    0.7472 C   0  0  1  0  0  0  0  0  0  0  0  0
    0.2210   -1.6420    0.7491 C   0  0  0  0  0  0  0  0  0  0  0  0
    0.4063    0.5381    2.0139 C   0  0  0  0  0  0  0  0  0  0  0  0
   -0.1479   -0.0134    3.3203 C   0  0  0  0  0  0  0  0  0  0  0  0
   -1.2108    0.9323   -2.0695 O   0  0  0  0  0  0  0  0  0  0  0  0
    0.1821   -0.7664   -2.4583 O   0  0  0  0  0  0  0  0  0  0  0  0
    1.8957    0.3482   -0.5944 O   0  0  0  0  0  0  0  0  0  0  0  0
   -1.5212   -0.0660    0.6556 O   0  0  0  0  0  0  0  0  0  0  0  0
    0.3834    1.6413   -0.3476 H   0  0  0  0  0  0  0  0  0  0  0  0
    1.2872   -1.8083    0.8999 H   0  0  0  0  0  0  0  0  0  0  0  0
   -0.3001   -2.1435    1.5639 H   0  0  0  0  0  0  0  0  0  0  0  0
   -0.0748   -2.1338   -0.1780 H   0  0  0  0  0  0  0  0  0  0  0  0
    0.1668    1.6056    1.9441 H   0  0  0  0  0  0  0  0  0  0  0  0
    1.4968    0.4782    2.0251 H   0  0  0  0  0  0  0  0  0  0  0  0
    0.2252    0.5724    4.1607 H   0  0  0  0  0  0  0  0  0  0  0  0
   -1.2369    0.0305    3.3487 H   0  0  0  0  0  0  0  0  0  0  0  0
    0.1511   -1.0478    3.4901 H   0  0  0  0  0  0  0  0  0  0  0  0
   -1.6348    0.6258   -2.8861 H   0  0  0  0  0  0  0  0  0  0  0  0
    2.0494   -0.5533   -0.8997 H   0  0  0  0  0  0  0  0  0  0  0  0
   -1.7887    0.8530    0.7684 H   0  0  0  0  0  0  0  0  0  0  0  0
  1  2  1  0
  1  7  1  0
  1  8  2  0
  2  3  1  0
  2  9  1  0
  2 11  1  1
  3  4  1  0
  3  5  1  0
  3 10  1  6
  4 12  1  0
  4 13  1  0
  4 14  1  0
  5  6  1  0
  5 15  1  0
  5 16  1  0
  6 17  1  0
  6 18  1  0
  6 19  1  0
  7 20  1  0
  9 21  1  0
 10 22  1  0
M  END
