
     RDKit          3D

 33 34  0  0  0  0  0  0  0  0999 V2000
   -4.2973    1.1994    0.6541 O   0  0  0  0  0  0  0  0  0  0  0  0
   -3.2293    0.7123    0.3347 C   0  0  0  0  0  0  0  0  0  0  0  0
   -3.0357   -0.6436    0.3825 N   0  0  0  0  0  0  0  0  0  0  0  0
   -4.1365   -1.4911    0.8103 C   0  0  0  0  0  0  0  0  0  0  0  0
   -1.8328   -1.1713    0.0107 C   0  0  0  0  0  0  0  0  0  0  0  0
   -1.5001   -2.4728   -0.0100 N   0  0  0  0  0  0  0  0  0  0  0  0
   -0.2514   -2.4756   -0.4418 C   0  0  0  0  0  0  0  0  0  0  0  0
   -2.1588    1.4958   -0.0911 N   0  0  0  0  0  0  0  0  0  0  0  0
   -2.3451    2.9421   -0.1376 C   0  0  0  0  0  0  0  0  0  0  0  0
   -0.9021    1.0374   -0.4941 C   0  0  0  0  0  0  0  0  0  0  0  0
   -0.0384    1.8132   -0.8661 O   0  0  0  0  0  0  0  0  0  0  0  0
   -0.7947   -0.3786   -0.4063 C   0  0  0  0  0  0  0  0  0  0  0  0
    0.2261   -1.2538   -0.7017 N   0  0  0  0  0  0  0  0  0  0  0  0
    1.5750   -0.9376   -1.1360 C   0  0  0  0  0  0  0  0  0  0  0  0
    2.4260   -0.3691   -0.0098 C   0  0  0  0  0  0  0  0  0  0  0  0
    3.8351   -0.0969   -0.5096 C   0  0  0  0  0  0  0  0  0  0  0  0
    4.7408    0.4727    0.5468 C   0  0  0  0  0  0  0  0  0  0  0  0
    5.9826    0.6255    0.0984 O   0  0  0  0  0  0  0  0  0  0  0  0
    4.4042    0.7653    1.6668 O   0  0  0  0  0  0  0  0  0  0  0  0
   -4.4858   -1.1983    1.7977 H   0  0  0  0  0  0  0  0  0  0  0  0
   -4.9652   -1.4351    0.1069 H   0  0  0  0  0  0  0  0  0  0  0  0
   -3.7816   -2.5152    0.8529 H   0  0  0  0  0  0  0  0  0  0  0  0
    0.3479   -3.3622   -0.5844 H   0  0  0  0  0  0  0  0  0  0  0  0
   -3.3512    3.1851    0.1774 H   0  0  0  0  0  0  0  0  0  0  0  0
   -1.6403    3.4357    0.5284 H   0  0  0  0  0  0  0  0  0  0  0  0
   -2.1922    3.3117   -1.1492 H   0  0  0  0  0  0  0  0  0  0  0  0
    2.0087   -1.8633   -1.5144 H   0  0  0  0  0  0  0  0  0  0  0  0
    1.5161   -0.2412   -1.9719 H   0  0  0  0  0  0  0  0  0  0  0  0
    1.9742    0.5523    0.3592 H   0  0  0  0  0  0  0  0  0  0  0  0
    2.4483   -1.0794    0.8190 H   0  0  0  0  0  0  0  0  0  0  0  0
    4.2938   -1.0114   -0.8976 H   0  0  0  0  0  0  0  0  0  0  0  0
    3.8176    0.6032   -1.3512 H   0  0  0  0  0  0  0  0  0  0  0  0
    6.5428    0.9960    0.7965 H   0  0  0  0  0  0  0  0  0  0  0  0
 19 17  2  0
 17 18  1  0
 17 16  1  0
 16 15  1  0
  4  3  1  0
  6  7  2  0
  6  5  1  0
  3  5  1  0
  3  2  1  0
 15 14  1  0
  7 13  1  0
  5 12  2  0
  1  2  2  0
  2  8  1  0
 13 12  1  0
 13 14  1  0
 12 10  1  0
  8 10  1  0
  8  9  1  0
 10 11  2  0
  4 20  1  0
  4 21  1  0
  4 22  1  0
  7 23  1  0
  9 24  1  0
  9 25  1  0
  9 26  1  0
 14 27  1  0
 14 28  1  0
 15 29  1  0
 15 30  1  0
 16 31  1  0
 16 32  1  0
 18 33  1  0
M  END
