
     RDKit          3D

 60 63  0  0  0  0  0  0  0  0999 V2000
    3.6733   -0.5564   -0.5635 C   0  0  1  0  0  0  0  0  0  0  0  0
    2.4026    1.4107    0.2669 C   0  0  0  0  0  0  0  0  0  0  0  0
    2.3689    2.7734    0.6830 C   0  0  0  0  0  0  0  0  0  0  0  0
    3.5997    4.6428    1.5794 N   0  0  0  0  0  0  0  0  0  0  0  0
   -0.0487    2.6589    0.9582 C   0  0  0  0  0  0  0  0  0  0  0  0
    4.6268    3.2862    0.1190 O   0  0  0  0  0  0  0  0  0  0  0  0
    3.5536    0.8041   -0.0889 N   0  0  0  0  0  0  0  0  0  0  0  0
   -1.1891    0.5555    0.5576 N   0  0  0  0  0  0  0  0  0  0  0  0
    0.0013    1.3217    0.5863 C   0  0  0  0  0  0  0  0  0  0  0  0
    1.1852    0.7033    0.2458 C   0  0  0  0  0  0  0  0  0  0  0  0
   -1.1758   -0.6920    1.0446 N   0  0  0  0  0  0  0  0  0  0  0  0
    3.8180   -3.0011    0.0358 C   0  0  0  0  0  0  0  0  0  0  0  0
    5.1025   -3.1347   -0.7660 C   0  0  2  0  0  0  0  0  0  0  0  0
    5.1345   -2.1109   -1.8947 C   0  0  0  0  0  0  0  0  0  0  0  0
    4.9603   -0.6904   -1.3710 C   0  0  0  0  0  0  0  0  0  0  0  0
   -2.3864   -1.1510    0.8673 C   0  0  0  0  0  0  0  0  0  0  0  0
   -3.2162   -0.1897    0.2531 C   0  0  0  0  0  0  0  0  0  0  0  0
   -2.3936    0.9020    0.0640 C   0  0  0  0  0  0  0  0  0  0  0  0
   -5.0767    1.1231   -0.7503 C   0  0  0  0  0  0  0  0  0  0  0  0
    1.1430    3.3567    0.9927 C   0  0  0  0  0  0  0  0  0  0  0  0
   -1.6976   -3.1305    1.8928 F   0  0  0  0  0  0  0  0  0  0  0  0
   -3.7406   -2.5221    2.1899 F   0  0  0  0  0  0  0  0  0  0  0  0
   -3.1133   -3.2947    0.2810 F   0  0  0  0  0  0  0  0  0  0  0  0
    5.1843   -4.4603   -1.2497 O   0  0  0  0  0  0  0  0  0  0  0  0
    3.6195    3.5757    0.7657 C   0  0  0  0  0  0  0  0  0  0  0  0
    3.6559   -1.5824    0.5711 C   0  0  0  0  0  0  0  0  0  0  0  0
   -2.7921    2.1675   -0.5988 C   0  0  0  0  0  0  0  0  0  0  0  0
   -4.0056    1.9197   -1.5145 C   0  0  2  0  0  0  0  0  0  0  0  0
   -4.6037   -0.1974   -0.1879 C   0  0  0  0  0  0  0  0  0  0  0  0
   -4.5898    3.2670   -1.9295 C   0  0  0  0  0  0  0  0  0  0  0  0
   -2.7352   -2.5302    1.3099 C   0  0  1  0  0  0  0  0  0  0  0  0
    2.8382   -0.7712   -1.2438 H   0  0  0  0  0  0  0  0  0  0  0  0
    4.4374    5.1919    1.6838 H   0  0  0  0  0  0  0  0  0  0  0  0
    2.8668    4.8055    2.2472 H   0  0  0  0  0  0  0  0  0  0  0  0
   -0.9737    3.1381    1.2433 H   0  0  0  0  0  0  0  0  0  0  0  0
    4.3621    1.4058   -0.1518 H   0  0  0  0  0  0  0  0  0  0  0  0
    1.1634   -0.3348   -0.0506 H   0  0  0  0  0  0  0  0  0  0  0  0
    2.9651   -3.2568   -0.6032 H   0  0  0  0  0  0  0  0  0  0  0  0
    3.8170   -3.7120    0.8658 H   0  0  0  0  0  0  0  0  0  0  0  0
    5.9458   -2.9231   -0.0894 H   0  0  0  0  0  0  0  0  0  0  0  0
    6.0778   -2.1847   -2.4439 H   0  0  0  0  0  0  0  0  0  0  0  0
    4.3339   -2.3390   -2.6067 H   0  0  0  0  0  0  0  0  0  0  0  0
    4.9502    0.0143   -2.2058 H   0  0  0  0  0  0  0  0  0  0  0  0
    5.8122   -0.4185   -0.7372 H   0  0  0  0  0  0  0  0  0  0  0  0
   -5.4248    1.7160    0.1057 H   0  0  0  0  0  0  0  0  0  0  0  0
   -5.9485    0.9507   -1.3849 H   0  0  0  0  0  0  0  0  0  0  0  0
   -3.1057    0.1962   -2.5397 H   0  0  0  0  0  0  0  0  0  0  0  0
   -4.4283    0.9607   -3.4150 H   0  0  0  0  0  0  0  0  0  0  0  0
   -2.8503    1.7420   -3.3422 H   0  0  0  0  0  0  0  0  0  0  0  0
    1.1011    4.4023    1.2679 H   0  0  0  0  0  0  0  0  0  0  0  0
    6.0022   -4.5458   -1.7498 H   0  0  0  0  0  0  0  0  0  0  0  0
    4.4711   -1.3509    1.2645 H   0  0  0  0  0  0  0  0  0  0  0  0
    2.7310   -1.5080    1.1484 H   0  0  0  0  0  0  0  0  0  0  0  0
   -3.0500    2.9079    0.1660 H   0  0  0  0  0  0  0  0  0  0  0  0
   -1.9633    2.5908   -1.1718 H   0  0  0  0  0  0  0  0  0  0  0  0
   -5.4324    3.1299   -2.6091 H   0  0  0  0  0  0  0  0  0  0  0  0
   -4.9442    3.8332   -1.0661 H   0  0  0  0  0  0  0  0  0  0  0  0
   -3.8424    3.8725   -2.4460 H   0  0  0  0  0  0  0  0  0  0  0  0
   -3.5711    1.1566   -2.7682 C   0  0  0  0  0  0  0  0  0  0  0  0
   -5.3242   -1.1690   -0.0817 O   0  0  0  0  0  0  0  0  0  0  0  0
  6 25  2  0
  4 25  1  0
 25  3  1  0
 26 12  1  0
 26  1  1  0
 13 12  1  0
 13 24  1  0
 13 14  1  0
  7  1  1  0
  7  2  1  0
 15 14  1  0
 15  1  1  0
  3  2  2  0
  3 20  1  0
  2 10  1  0
 20  5  2  0
 10  9  2  0
  5  9  1  0
  9  8  1  0
  8 18  1  0
  8 11  1  0
 27 18  1  0
 27 28  1  0
 28 59  1  6
 30 28  1  0
 18 17  2  0
 11 16  2  0
 28 19  1  0
 17 16  1  0
 17 29  1  0
 16 31  1  0
 19 29  1  0
 31 21  1  1
 29 60  2  0
 31 23  1  0
 31 22  1  0
  1 32  1  6
  4 33  1  0
  4 34  1  0
  5 35  1  0
  7 36  1  0
 10 37  1  0
 12 38  1  0
 12 39  1  0
 13 40  1  1
 14 41  1  0
 14 42  1  0
 15 43  1  0
 15 44  1  0
 19 45  1  0
 19 46  1  0
 59 47  1  0
 59 48  1  0
 59 49  1  0
 20 50  1  0
 24 51  1  0
 26 52  1  0
 26 53  1  0
 27 54  1  0
 27 55  1  0
 30 56  1  0
 30 57  1  0
 30 58  1  0
M  END
