
     RDKit          3D

 34 36  0  0  0  0  0  0  0  0999 V2000
   -1.1951   -0.4987    0.0070 C   0  0  0  0  0  0  0  0  0  0  0  0
   -0.9068    0.8594    0.2705 C   0  0  0  0  0  0  0  0  0  0  0  0
    0.4470    0.9925    0.2972 N   0  0  0  0  0  0  0  0  0  0  0  0
    1.0396   -0.2275    0.0781 C   0  0  0  0  0  0  0  0  0  0  0  0
    0.0587   -1.1680   -0.1099 C   0  0  0  0  0  0  0  0  0  0  0  0
    2.4912   -0.3801    0.0465 C   0  0  0  0  0  0  0  0  0  0  0  0
    3.0689   -1.6245    0.2987 C   0  0  0  0  0  0  0  0  0  0  0  0
    4.4467   -1.7702    0.2611 C   0  0  0  0  0  0  0  0  0  0  0  0
    5.2624   -0.6834   -0.0184 C   0  0  0  0  0  0  0  0  0  0  0  0
    4.7087    0.5706   -0.2729 C   0  0  0  0  0  0  0  0  0  0  0  0
    3.3255    0.7041   -0.2396 C   0  0  0  0  0  0  0  0  0  0  0  0
    5.5888    1.7436   -0.5934 C   0  0  0  0  0  0  0  0  0  0  0  0
   -1.9134    1.8028    0.4562 C   0  0  0  0  0  0  0  0  0  0  0  0
   -3.2200    1.3710    0.3539 C   0  0  0  0  0  0  0  0  0  0  0  0
   -3.5394    0.0251    0.0759 C   0  0  0  0  0  0  0  0  0  0  0  0
   -2.5265   -0.9068   -0.0878 C   0  0  0  0  0  0  0  0  0  0  0  0
   -4.9553   -0.4186   -0.0338 C   0  0  0  0  0  0  0  0  0  0  0  0
   -5.2468   -1.6392    0.2143 N   0  0  0  0  0  0  0  0  0  0  0  0
   -5.8520    0.5623   -0.3578 N   0  0  0  0  0  0  0  0  0  0  0  0
    0.9365    1.8367    0.5456 H   0  0  0  0  0  0  0  0  0  0  0  0
    0.2156   -2.2113   -0.3349 H   0  0  0  0  0  0  0  0  0  0  0  0
    2.4440   -2.4743    0.5417 H   0  0  0  0  0  0  0  0  0  0  0  0
    4.8879   -2.7375    0.4640 H   0  0  0  0  0  0  0  0  0  0  0  0
    6.3386   -0.8088   -0.0377 H   0  0  0  0  0  0  0  0  0  0  0  0
    2.8968    1.6747   -0.4630 H   0  0  0  0  0  0  0  0  0  0  0  0
    6.0794    1.6143   -1.5597 H   0  0  0  0  0  0  0  0  0  0  0  0
    5.0211    2.6723   -0.6326 H   0  0  0  0  0  0  0  0  0  0  0  0
    6.3760    1.8620    0.1519 H   0  0  0  0  0  0  0  0  0  0  0  0
   -1.6855    2.8377    0.6759 H   0  0  0  0  0  0  0  0  0  0  0  0
   -4.0106    2.0915    0.5164 H   0  0  0  0  0  0  0  0  0  0  0  0
   -2.7739   -1.9396   -0.2964 H   0  0  0  0  0  0  0  0  0  0  0  0
   -6.2358   -1.8167    0.0594 H   0  0  0  0  0  0  0  0  0  0  0  0
   -5.5327    1.3351   -0.9186 H   0  0  0  0  0  0  0  0  0  0  0  0
   -6.7897    0.2691   -0.5822 H   0  0  0  0  0  0  0  0  0  0  0  0
  1  2  2  0
  1  5  1  0
  1 16  1  0
  2  3  1  0
  2 13  1  0
  3  4  1  0
  3 20  1  0
  4  5  2  0
  4  6  1  0
  5 21  1  0
  6  7  2  0
  6 11  1  0
  7  8  1  0
  7 22  1  0
  8  9  2  0
  8 23  1  0
  9 10  1  0
  9 24  1  0
 10 11  2  0
 10 12  1  0
 11 25  1  0
 12 26  1  0
 12 27  1  0
 12 28  1  0
 13 14  2  0
 13 29  1  0
 14 15  1  0
 14 30  1  0
 15 16  2  0
 15 17  1  0
 16 31  1  0
 17 18  2  0
 17 19  1  0
 18 32  1  0
 19 33  1  0
 19 34  1  0
M  END
