
     RDKit          3D

 27 27  0  0  0  0  0  0  0  0999 V2000
   -0.5077   -0.3874   -1.2629 C   0  0  1  0  0  0  0  0  0  0  0  0
    1.0146   -0.3874   -1.2629 C   0  0  1  0  0  0  0  0  0  0  0  0
    1.5716   -0.3874    0.1119 C   0  0  2  0  0  0  0  0  0  0  0  0
    1.0068    0.7206    0.9471 C   0  0  1  0  0  0  0  0  0  0  0  0
   -0.5229    0.7208    0.9426 C   0  0  1  0  0  0  0  0  0  0  0  0
   -1.0106    1.9420    1.6651 C   0  0  0  0  0  0  0  0  0  0  0  0
   -2.0304   -2.1231   -1.4935 C   0  0  0  0  0  0  0  0  0  0  0  0
   -0.9487   -1.5779   -0.7752 O   0  0  0  0  0  0  0  0  0  0  0  0
    1.4798   -1.5636   -1.9532 O   0  0  0  0  0  0  0  0  0  0  0  0
    3.0154   -0.2267    0.0333 O   0  0  0  0  0  0  0  0  0  0  0  0
    1.4645    0.5643    2.2923 O   0  0  0  0  0  0  0  0  0  0  0  0
   -1.0731    0.7227   -0.4227 O   0  0  0  0  0  0  0  0  0  0  0  0
   -2.4040    2.0398    1.5308 O   0  0  0  0  0  0  0  0  0  0  0  0
   -0.8573   -0.2678   -2.2813 H   0  0  0  0  0  0  0  0  0  0  0  0
    1.3656    0.4953   -1.7838 H   0  0  0  0  0  0  0  0  0  0  0  0
    1.3421   -1.3351    0.5839 H   0  0  0  0  0  0  0  0  0  0  0  0
    1.3589    1.6681    0.5574 H   0  0  0  0  0  0  0  0  0  0  0  0
   -0.8743   -0.1637    1.4600 H   0  0  0  0  0  0  0  0  0  0  0  0
   -0.5443    2.8229    1.2408 H   0  0  0  0  0  0  0  0  0  0  0  0
   -0.7534    1.8673    2.7148 H   0  0  0  0  0  0  0  0  0  0  0  0
   -1.7024   -2.3944   -2.4896 H   0  0  0  0  0  0  0  0  0  0  0  0
   -2.8247   -1.3896   -1.5620 H   0  0  0  0  0  0  0  0  0  0  0  0
   -2.3963   -3.0047   -0.9813 H   0  0  0  0  0  0  0  0  0  0  0  0
    1.9630   -1.3071   -2.7212 H   0  0  0  0  0  0  0  0  0  0  0  0
    3.4367   -0.9910    0.3901 H   0  0  0  0  0  0  0  0  0  0  0  0
    2.1520    1.1860    2.4647 H   0  0  0  0  0  0  0  0  0  0  0  0
   -2.7207    2.7569    2.0547 H   0  0  0  0  0  0  0  0  0  0  0  0
  1  2  1  0
  1  8  1  0
  1 12  1  0
  1 14  1  6
  2  3  1  0
  2  9  1  0
  2 15  1  6
  3  4  1  0
  3 10  1  0
  3 16  1  1
  4  5  1  0
  4 11  1  0
  4 17  1  6
  5  6  1  0
  5 12  1  0
  5 18  1  1
  6 13  1  0
  6 19  1  0
  6 20  1  0
  7  8  1  0
  7 21  1  0
  7 22  1  0
  7 23  1  0
  9 24  1  0
 10 25  1  0
 11 26  1  0
 13 27  1  0
M  END
