
     RDKit          3D

 20 20  0  0  0  0  0  0  0  0999 V2000
   -2.6878   -0.7916    0.0458 O   0  0  0  0  0  0  0  0  0  0  0  0
   -1.2249   -0.8075    0.0069 C   0  0  2  0  0  0  0  0  0  0  0  0
   -0.6222   -0.8294    1.5267 C   0  0  0  0  0  0  0  0  0  0  0  0
    0.5998   -0.3255    1.4367 O   0  0  0  0  0  0  0  0  0  0  0  0
   -0.7801    0.2913   -0.5331 C   0  0  2  0  0  0  0  0  0  0  0  0
   -0.5235    0.0798   -1.9742 O   0  0  0  0  0  0  0  0  0  0  0  0
    0.5698    0.6106    0.2145 C   0  0  1  0  0  0  0  0  0  0  0  0
    0.5829    1.9517    0.6335 O   0  0  0  0  0  0  0  0  0  0  0  0
    1.6617    0.3494   -0.6221 C   0  0  0  0  0  0  0  0  0  0  0  0
    2.8593    0.4489    0.1203 O   0  0  0  0  0  0  0  0  0  0  0  0
   -3.0222   -1.6765   -0.1133 H   0  0  0  0  0  0  0  0  0  0  0  0
   -0.8661   -1.6719   -0.5514 H   0  0  0  0  0  0  0  0  0  0  0  0
   -1.2339   -0.2131    2.1809 H   0  0  0  0  0  0  0  0  0  0  0  0
   -0.5782   -1.8436    1.8934 H   0  0  0  0  0  0  0  0  0  0  0  0
   -1.4954    1.1024   -0.3840 H   0  0  0  0  0  0  0  0  0  0  0  0
   -1.0814    0.6399   -2.4771 H   0  0  0  0  0  0  0  0  0  0  0  0
    0.9953    2.0120    1.4984 H   0  0  0  0  0  0  0  0  0  0  0  0
    1.5733   -0.6463   -1.0287 H   0  0  0  0  0  0  0  0  0  0  0  0
    1.6778    1.0704   -1.4316 H   0  0  0  0  0  0  0  0  0  0  0  0
    3.5961    0.2488   -0.4417 H   0  0  0  0  0  0  0  0  0  0  0  0
  1  2  1  0
  1 11  1  0
  3  2  1  0
  2  5  1  0
  2 12  1  6
  3  4  1  0
  3 13  1  0
  3 14  1  0
  4  7  1  0
  5  6  1  0
  5  7  1  0
  5 15  1  6
  6 16  1  0
  7  8  1  1
  7  9  1  0
  8 17  1  0
  9 10  1  0
  9 18  1  0
  9 19  1  0
 10 20  1  0
M  END
