
     RDKit          3D

 73 77  0  0  0  0  0  0  0  0999 V2000
   -4.2383   -3.0210    2.0999 C   0  0  0  0  0  0  0  0  0  0  0  0
   -5.0131   -2.0448    1.4951 C   0  0  0  0  0  0  0  0  0  0  0  0
   -4.4736   -1.2401    0.4974 C   0  0  0  0  0  0  0  0  0  0  0  0
   -5.2292   -0.1475   -0.1838 C   0  0  0  0  0  0  0  0  0  0  0  0
   -6.5776   -0.3074   -0.2035 N   0  0  0  0  0  0  0  0  0  0  0  0
   -7.5598    0.5602   -0.6843 C   0  0  0  0  0  0  0  0  0  0  0  0
   -7.3059    1.8110   -1.2529 C   0  0  0  0  0  0  0  0  0  0  0  0
   -8.3648    2.5919   -1.6872 C   0  0  0  0  0  0  0  0  0  0  0  0
   -9.6790    2.1654   -1.5747 C   0  0  0  0  0  0  0  0  0  0  0  0
   -9.9262    0.9223   -1.0099 C   0  0  0  0  0  0  0  0  0  0  0  0
   -8.8797    0.1266   -0.5684 C   0  0  0  0  0  0  0  0  0  0  0  0
  -11.3208    0.3967   -0.8627 C   0  0  1  0  0  0  0  0  0  0  0  0
  -12.2450    1.2699   -1.2693 F   0  0  0  0  0  0  0  0  0  0  0  0
  -11.5035   -0.7270   -1.5720 F   0  0  0  0  0  0  0  0  0  0  0  0
  -11.6041    0.0901    0.4113 F   0  0  0  0  0  0  0  0  0  0  0  0
   -3.1405   -1.4245    0.1451 C   0  0  0  0  0  0  0  0  0  0  0  0
   -2.3700   -2.4152    0.7394 C   0  0  0  0  0  0  0  0  0  0  0  0
   -2.9149   -3.2428    1.7320 C   0  0  0  0  0  0  0  0  0  0  0  0
   -2.1292   -4.3189    2.4209 C   0  0  0  0  0  0  0  0  0  0  0  0
    2.8339   -1.9566   -1.7441 N   0  0  0  0  0  0  0  0  0  0  0  0
    1.5752   -2.0433   -1.3724 C   0  0  0  0  0  0  0  0  0  0  0  0
    1.0885   -1.3960   -0.2372 C   0  0  0  0  0  0  0  0  0  0  0  0
    2.0149   -0.6431    0.4637 C   0  0  0  0  0  0  0  0  0  0  0  0
    3.2794   -0.5285    0.0912 N   0  0  0  0  0  0  0  0  0  0  0  0
    3.6472   -1.1966   -0.9974 C   0  0  0  0  0  0  0  0  0  0  0  0
   -0.2499   -1.4573    0.1727 N   0  0  0  0  0  0  0  0  0  0  0  0
   -0.9633   -2.6066    0.2717 C   0  0  0  0  0  0  0  0  0  0  0  0
   -0.5077   -3.6995   -0.0103 O   0  0  0  0  0  0  0  0  0  0  0  0
    4.9283   -1.1405   -1.4393 N   0  0  0  0  0  0  0  0  0  0  0  0
    8.3648    0.1240   -1.3745 C   0  0  0  0  0  0  0  0  0  0  0  0
    8.4119    0.9533   -0.2442 C   0  0  0  0  0  0  0  0  0  0  0  0
    7.2376    1.0565    0.5028 C   0  0  0  0  0  0  0  0  0  0  0  0
    6.0686    0.3934    0.1438 C   0  0  0  0  0  0  0  0  0  0  0  0
    6.0358   -0.4262   -0.9804 C   0  0  0  0  0  0  0  0  0  0  0  0
    7.2139   -0.5479   -1.7267 C   0  0  0  0  0  0  0  0  0  0  0  0
   12.0130    1.8534    0.0493 C   0  0  0  0  0  0  0  0  0  0  0  0
   11.9622    2.7696    1.1689 N   0  0  0  0  0  0  0  0  0  0  0  0
   10.7298    3.5274    1.1226 C   0  0  0  0  0  0  0  0  0  0  0  0
    9.5207    2.6105    1.1556 C   0  0  0  0  0  0  0  0  0  0  0  0
    9.5776    1.6596    0.0649 N   0  0  0  0  0  0  0  0  0  0  0  0
   10.8264    0.9108    0.0747 C   0  0  0  0  0  0  0  0  0  0  0  0
   -4.6504    0.7998   -0.6856 O   0  0  0  0  0  0  0  0  0  0  0  0
   -4.6740   -3.6217    2.8881 H   0  0  0  0  0  0  0  0  0  0  0  0
   -6.0289   -1.9100    1.8449 H   0  0  0  0  0  0  0  0  0  0  0  0
   -6.9334   -1.1814    0.1512 H   0  0  0  0  0  0  0  0  0  0  0  0
   -6.2997    2.1779   -1.3625 H   0  0  0  0  0  0  0  0  0  0  0  0
   -8.1537    3.5579   -2.1255 H   0  0  0  0  0  0  0  0  0  0  0  0
  -10.4813    2.8000   -1.9231 H   0  0  0  0  0  0  0  0  0  0  0  0
   -9.0800   -0.8423   -0.1254 H   0  0  0  0  0  0  0  0  0  0  0  0
   -2.7090   -0.7990   -0.6261 H   0  0  0  0  0  0  0  0  0  0  0  0
   -1.9835   -5.1802    1.7696 H   0  0  0  0  0  0  0  0  0  0  0  0
   -1.1414   -3.9746    2.7253 H   0  0  0  0  0  0  0  0  0  0  0  0
   -2.6547   -4.6573    3.3119 H   0  0  0  0  0  0  0  0  0  0  0  0
    0.9242   -2.6396   -2.0002 H   0  0  0  0  0  0  0  0  0  0  0  0
    1.7199   -0.1024    1.3579 H   0  0  0  0  0  0  0  0  0  0  0  0
   -0.6512   -0.6142    0.5545 H   0  0  0  0  0  0  0  0  0  0  0  0
    5.0825   -1.6825   -2.2761 H   0  0  0  0  0  0  0  0  0  0  0  0
    9.2342    0.0135   -2.0092 H   0  0  0  0  0  0  0  0  0  0  0  0
    7.2032    1.6644    1.3962 H   0  0  0  0  0  0  0  0  0  0  0  0
    5.1907    0.5168    0.7562 H   0  0  0  0  0  0  0  0  0  0  0  0
    7.2264   -1.1720   -2.6131 H   0  0  0  0  0  0  0  0  0  0  0  0
   12.0282    2.3894   -0.9163 H   0  0  0  0  0  0  0  0  0  0  0  0
   12.9312    1.2640    0.1060 H   0  0  0  0  0  0  0  0  0  0  0  0
   10.6830    4.1957    1.9858 H   0  0  0  0  0  0  0  0  0  0  0  0
   10.6764    4.1594    0.2185 H   0  0  0  0  0  0  0  0  0  0  0  0
    9.4701    2.1089    2.1346 H   0  0  0  0  0  0  0  0  0  0  0  0
    8.6269    3.2278    1.0573 H   0  0  0  0  0  0  0  0  0  0  0  0
   10.8857    0.2605   -0.7959 H   0  0  0  0  0  0  0  0  0  0  0  0
   10.8884    0.2694    0.9665 H   0  0  0  0  0  0  0  0  0  0  0  0
   13.2036    4.2860    0.3247 H   0  0  0  0  0  0  0  0  0  0  0  0
   13.0795    4.2728    2.0916 H   0  0  0  0  0  0  0  0  0  0  0  0
   14.0304    3.0364    1.2681 H   0  0  0  0  0  0  0  0  0  0  0  0
   13.1193    3.6337    1.2082 C   0  0  0  0  0  0  0  0  0  0  0  0
  1  2  2  0
  1 18  1  0
  2  3  1  0
  3  4  1  0
  3 16  2  0
  4  5  1  0
  4 42  2  0
  5  6  1  0
  6  7  2  0
  6 11  1  0
  7  8  1  0
  8  9  2  0
  9 10  1  0
 10 11  2  0
 10 12  1  0
 12 13  1  6
 12 14  1  0
 12 15  1  0
 16 17  1  0
 17 18  2  0
 17 27  1  0
 18 19  1  0
 20 21  2  0
 20 25  1  0
 21 22  1  0
 22 23  2  0
 22 26  1  0
 23 24  1  0
 24 25  2  0
 25 29  1  0
 26 27  1  0
 27 28  2  0
 29 34  1  0
 30 31  2  0
 30 35  1  0
 31 32  1  0
 31 40  1  0
 32 33  2  0
 33 34  1  0
 34 35  2  0
 36 37  1  0
 36 41  1  0
 37 38  1  0
 37 73  1  0
 38 39  1  0
 39 40  1  0
 40 41  1  0
  1 43  1  0
  2 44  1  0
  5 45  1  0
  7 46  1  0
  8 47  1  0
  9 48  1  0
 11 49  1  0
 16 50  1  0
 19 51  1  0
 19 52  1  0
 19 53  1  0
 21 54  1  0
 23 55  1  0
 26 56  1  0
 29 57  1  0
 30 58  1  0
 32 59  1  0
 33 60  1  0
 35 61  1  0
 36 62  1  0
 36 63  1  0
 38 64  1  0
 38 65  1  0
 39 66  1  0
 39 67  1  0
 41 68  1  0
 41 69  1  0
 73 70  1  0
 73 71  1  0
 73 72  1  0
M  END
