
     RDKit          3D

 26 27  0  0  0  0  0  0  0  0999 V2000
   -4.9816    2.3694    0.0507 Cl  0  0  0  0  0  0  0  0  0  0  0  0
   -3.5444    1.4039    0.0368 C   0  0  0  0  0  0  0  0  0  0  0  0
   -3.3320    0.4841    1.0516 C   0  0  0  0  0  0  0  0  0  0  0  0
   -2.1820   -0.2893    1.0323 C   0  0  0  0  0  0  0  0  0  0  0  0
   -1.2445   -0.1474    0.0125 C   0  0  0  0  0  0  0  0  0  0  0  0
    0.0088   -0.9353   -0.0061 C   0  0  0  0  0  0  0  0  0  0  0  0
    1.2657   -0.1532   -0.0295 C   0  0  0  0  0  0  0  0  0  0  0  0
    1.4992    0.7955    0.9640 C   0  0  0  0  0  0  0  0  0  0  0  0
    2.6532    1.5616    0.9588 C   0  0  0  0  0  0  0  0  0  0  0  0
    3.5725    1.3875   -0.0647 C   0  0  0  0  0  0  0  0  0  0  0  0
    5.0138    2.3466   -0.0855 Cl  0  0  0  0  0  0  0  0  0  0  0  0
    3.3540    0.4646   -1.0754 C   0  0  0  0  0  0  0  0  0  0  0  0
    2.2005   -0.3036   -1.0507 C   0  0  0  0  0  0  0  0  0  0  0  0
    0.0061   -2.2703   -0.0021 C   0  0  0  0  0  0  0  0  0  0  0  0
    1.4356   -3.2204    0.0887 Cl  0  0  0  0  0  0  0  0  0  0  0  0
   -1.4269   -3.2154   -0.0881 Cl  0  0  0  0  0  0  0  0  0  0  0  0
   -1.4717    0.7988   -0.9850 C   0  0  0  0  0  0  0  0  0  0  0  0
   -2.6222    1.5701   -0.9853 C   0  0  0  0  0  0  0  0  0  0  0  0
   -4.0498    0.3714    1.8523 H   0  0  0  0  0  0  0  0  0  0  0  0
   -2.0129   -0.9990    1.8312 H   0  0  0  0  0  0  0  0  0  0  0  0
    0.7769    0.9363    1.7578 H   0  0  0  0  0  0  0  0  0  0  0  0
    2.8295    2.2868    1.7411 H   0  0  0  0  0  0  0  0  0  0  0  0
    4.0697    0.3455   -1.8771 H   0  0  0  0  0  0  0  0  0  0  0  0
    2.0268   -1.0159   -1.8461 H   0  0  0  0  0  0  0  0  0  0  0  0
   -0.7474    0.9335   -1.7782 H   0  0  0  0  0  0  0  0  0  0  0  0
   -2.7932    2.2935   -1.7706 H   0  0  0  0  0  0  0  0  0  0  0  0
 15 14  1  0
 16 14  1  0
 14  6  2  0
  6  5  1  0
  6  7  1  0
  5  4  2  0
  5 17  1  0
  4  3  1  0
  8  7  2  0
  8  9  1  0
 17 18  2  0
  3  2  2  0
  7 13  1  0
 18  2  1  0
  2  1  1  0
  9 10  2  0
 13 12  2  0
 10 12  1  0
 10 11  1  0
  3 19  1  0
  4 20  1  0
  8 21  1  0
  9 22  1  0
 12 23  1  0
 13 24  1  0
 17 25  1  0
 18 26  1  0
M  END
