
     RDKit          3D

 32 32  0  0  0  0  0  0  0  0999 V2000
    1.2043   -0.5327   -0.1682 N   0  0  0  0  0  0  0  0  0  0  0  0
    2.8378    1.3188   -0.0148 C   0  0  0  0  0  0  0  0  0  0  0  0
    0.0307    0.0085    0.2363 C   0  0  0  0  0  0  0  0  0  0  0  0
   -2.4004   -0.2117   -0.2274 C   0  0  0  0  0  0  0  0  0  0  0  0
   -3.3266   -1.1829   -0.6199 C   0  0  0  0  0  0  0  0  0  0  0  0
   -4.6864   -0.9713   -0.4657 C   0  0  0  0  0  0  0  0  0  0  0  0
   -4.2375    1.1780    0.4785 C   0  0  0  0  0  0  0  0  0  0  0  0
    2.6805   -0.3767    1.8063 C   0  0  0  0  0  0  0  0  0  0  0  0
    2.5312   -0.1459    0.3032 C   0  0  1  0  0  0  0  0  0  0  0  0
    3.4807   -1.0862   -0.4566 C   0  0  0  0  0  0  0  0  0  0  0  0
    4.8088   -0.7711   -0.1327 O   0  0  0  0  0  0  0  0  0  0  0  0
    2.6892    1.5395   -1.3971 O   0  0  0  0  0  0  0  0  0  0  0  0
   -0.0751    0.8399    1.1252 O   0  0  0  0  0  0  0  0  0  0  0  0
   -1.0527   -0.4883   -0.4566 N   0  0  0  0  0  0  0  0  0  0  0  0
   -5.1547    0.2111    0.0922 C   0  0  0  0  0  0  0  0  0  0  0  0
   -2.8717    0.9840    0.3197 C   0  0  0  0  0  0  0  0  0  0  0  0
    1.1827   -1.1034   -0.9987 H   0  0  0  0  0  0  0  0  0  0  0  0
    2.1639    1.9551    0.5679 H   0  0  0  0  0  0  0  0  0  0  0  0
    3.8557    1.5390    0.3271 H   0  0  0  0  0  0  0  0  0  0  0  0
   -2.9746   -2.1148   -1.0472 H   0  0  0  0  0  0  0  0  0  0  0  0
   -5.3809   -1.7408   -0.7779 H   0  0  0  0  0  0  0  0  0  0  0  0
   -4.5846    2.1101    0.9058 H   0  0  0  0  0  0  0  0  0  0  0  0
    2.4372   -1.4100    2.0571 H   0  0  0  0  0  0  0  0  0  0  0  0
    3.7053   -0.1858    2.1232 H   0  0  0  0  0  0  0  0  0  0  0  0
    2.0262    0.2756    2.3796 H   0  0  0  0  0  0  0  0  0  0  0  0
    3.2289   -2.1174   -0.1752 H   0  0  0  0  0  0  0  0  0  0  0  0
    3.2997   -0.9937   -1.5360 H   0  0  0  0  0  0  0  0  0  0  0  0
    5.3785   -1.4365   -0.5278 H   0  0  0  0  0  0  0  0  0  0  0  0
    2.8905    2.4622   -1.5747 H   0  0  0  0  0  0  0  0  0  0  0  0
   -0.8876   -1.2872   -1.0498 H   0  0  0  0  0  0  0  0  0  0  0  0
   -6.2160    0.3778    0.2194 H   0  0  0  0  0  0  0  0  0  0  0  0
   -2.1886    1.7635    0.6154 H   0  0  0  0  0  0  0  0  0  0  0  0
  6 15  2  0
  6  5  1  0
 15  7  1  0
  5  4  2  0
  7 16  2  0
  4 16  1  0
  4 14  1  0
 14  3  1  0
 12  2  1  0
  1  3  1  0
  9  1  1  6
  3 13  2  0
 11 10  1  0
  2  9  1  0
  9 10  1  0
  9  8  1  0
  1 17  1  0
  2 18  1  0
  2 19  1  0
  5 20  1  0
  6 21  1  0
  7 22  1  0
  8 23  1  0
  8 24  1  0
  8 25  1  0
 10 26  1  0
 10 27  1  0
 11 28  1  0
 12 29  1  0
 14 30  1  0
 15 31  1  0
 16 32  1  0
M  END
