
     RDKit          3D

 30 31  0  0  0  0  0  0  0  0999 V2000
   -2.3679    0.2350    0.0611 N   0  0  0  0  0  0  0  0  0  0  0  0
   -1.7392   -0.9368    0.1586 C   0  0  0  0  0  0  0  0  0  0  0  0
   -0.2340   -0.8386    0.1348 C   0  0  0  0  0  0  0  0  0  0  0  0
    0.5316   -2.0133    0.2888 C   0  0  0  0  0  0  0  0  0  0  0  0
    1.8931   -1.9096    0.2564 C   0  0  0  0  0  0  0  0  0  0  0  0
    2.4929   -0.6465    0.0682 C   0  0  0  0  0  0  0  0  0  0  0  0
    4.4092    0.7971   -0.1673 C   0  0  0  0  0  0  0  0  0  0  0  0
    1.6337    0.4723   -0.0753 C   0  0  0  0  0  0  0  0  0  0  0  0
   -4.2261    1.5434    0.9263 C   0  0  0  0  0  0  0  0  0  0  0  0
   -3.8085    0.4036    0.0073 C   0  0  1  0  0  0  0  0  0  0  0  0
   -4.2694    0.6376   -1.4274 C   0  0  0  0  0  0  0  0  0  0  0  0
   -2.2890   -2.0262    0.2642 O   0  0  0  0  0  0  0  0  0  0  0  0
    3.8917   -0.4556    0.0180 C   0  0  0  0  0  0  0  0  0  0  0  0
    3.5528    1.9109   -0.3101 C   0  0  0  0  0  0  0  0  0  0  0  0
    2.1947    1.7561   -0.2655 C   0  0  0  0  0  0  0  0  0  0  0  0
    0.2907    0.3458   -0.0369 N   0  0  0  0  0  0  0  0  0  0  0  0
   -1.7831    1.0517   -0.0527 H   0  0  0  0  0  0  0  0  0  0  0  0
    0.0450   -2.9670    0.4317 H   0  0  0  0  0  0  0  0  0  0  0  0
    2.5182   -2.7863    0.3738 H   0  0  0  0  0  0  0  0  0  0  0  0
    5.4808    0.9408   -0.2053 H   0  0  0  0  0  0  0  0  0  0  0  0
   -3.7860    2.4898    0.6045 H   0  0  0  0  0  0  0  0  0  0  0  0
   -5.3096    1.6615    0.9130 H   0  0  0  0  0  0  0  0  0  0  0  0
   -3.9180    1.3561    1.9549 H   0  0  0  0  0  0  0  0  0  0  0  0
   -4.2513   -0.5234    0.3730 H   0  0  0  0  0  0  0  0  0  0  0  0
   -3.9863   -0.1937   -2.0732 H   0  0  0  0  0  0  0  0  0  0  0  0
   -5.3542    0.7427   -1.4686 H   0  0  0  0  0  0  0  0  0  0  0  0
   -3.8293    1.5504   -1.8341 H   0  0  0  0  0  0  0  0  0  0  0  0
    4.5453   -1.3121    0.1266 H   0  0  0  0  0  0  0  0  0  0  0  0
    3.9795    2.8942   -0.4579 H   0  0  0  0  0  0  0  0  0  0  0  0
    1.5278    2.6015   -0.3749 H   0  0  0  0  0  0  0  0  0  0  0  0
  7 13  2  0
  7 14  1  0
 13  6  1  0
 14 15  2  0
  6  5  2  0
  6  8  1  0
 15  8  1  0
  5  4  1  0
  8 16  2  0
  4  3  2  0
 16  3  1  0
  3  2  1  0
  2 12  2  0
  2  1  1  0
  1 10  1  0
 10  9  1  0
 10 11  1  0
  1 17  1  0
  4 18  1  0
  5 19  1  0
  7 20  1  0
  9 21  1  0
  9 22  1  0
  9 23  1  0
 10 24  1  1
 11 25  1  0
 11 26  1  0
 11 27  1  0
 13 28  1  0
 14 29  1  0
 15 30  1  0
M  END
