
     RDKit          3D

 18 18  0  0  0  0  0  0  0  0999 V2000
    0.2556    2.5901   -0.0054 C   0  0  0  0  0  0  0  0  0  0  0  0
   -0.4328    1.2576   -0.0144 C   0  0  0  0  0  0  0  0  0  0  0  0
   -1.8185    1.2439    0.0086 C   0  0  0  0  0  0  0  0  0  0  0  0
   -2.4837    0.0282    0.0138 C   0  0  0  0  0  0  0  0  0  0  0  0
   -1.8860   -1.1435    0.0360 N   0  0  0  0  0  0  0  0  0  0  0  0
   -0.5470   -1.1932    0.0509 C   0  0  0  0  0  0  0  0  0  0  0  0
   -0.0316   -2.4274    0.0688 N   0  0  0  0  0  0  0  0  0  0  0  0
    0.2133    0.0109   -0.0070 C   0  0  0  0  0  0  0  0  0  0  0  0
    1.6445   -0.0554   -0.0807 N   0  0  0  0  0  0  0  0  0  0  0  0
    2.2112   -1.0057    0.4270 O   0  0  0  0  0  0  0  0  0  0  0  0
    2.2424    0.8279   -0.6523 O   0  0  0  0  0  0  0  0  0  0  0  0
    0.6557    2.8349   -0.9881 H   0  0  0  0  0  0  0  0  0  0  0  0
   -0.4644    3.3603    0.2630 H   0  0  0  0  0  0  0  0  0  0  0  0
    1.0794    2.6346    0.7047 H   0  0  0  0  0  0  0  0  0  0  0  0
   -2.3763    2.1691    0.0262 H   0  0  0  0  0  0  0  0  0  0  0  0
   -3.5682    0.0091    0.0128 H   0  0  0  0  0  0  0  0  0  0  0  0
   -0.6772   -3.1978    0.1038 H   0  0  0  0  0  0  0  0  0  0  0  0
    0.9403   -2.6086    0.2339 H   0  0  0  0  0  0  0  0  0  0  0  0
  4  3  1  0
  4  5  2  0
  3  2  2  0
  5  6  1  0
  2  1  1  0
  2  8  1  0
  6  8  2  0
  6  7  1  0
  8  9  1  0
  9 10  1  0
  9 11  2  0
  1 12  1  0
  1 13  1  0
  1 14  1  0
  3 15  1  0
  4 16  1  0
  7 17  1  0
  7 18  1  0
M  CHG  2   9   1  10  -1
M  END
