
     RDKit          3D

 24 26  0  0  0  0  0  0  0  0999 V2000
    4.1697    0.7661    0.0170 C   0  0  0  0  0  0  0  0  0  0  0  0
    4.2061   -0.6375   -0.0218 C   0  0  0  0  0  0  0  0  0  0  0  0
    3.0469   -1.3923   -0.0445 C   0  0  0  0  0  0  0  0  0  0  0  0
   -0.2299    0.0328   -0.0056 C   0  0  0  0  0  0  0  0  0  0  0  0
   -1.6894    0.0131   -0.0028 C   0  0  0  0  0  0  0  0  0  0  0  0
   -2.3996    1.2126   -0.0328 C   0  0  0  0  0  0  0  0  0  0  0  0
   -3.7805    1.1748   -0.0274 C   0  0  0  0  0  0  0  0  0  0  0  0
   -4.4114   -0.0614    0.0068 C   0  0  0  0  0  0  0  0  0  0  0  0
   -2.4250   -1.1703    0.0324 C   0  0  0  0  0  0  0  0  0  0  0  0
   -3.7492   -1.2113    0.0365 N   0  0  0  0  0  0  0  0  0  0  0  0
    0.5392   -1.0896   -0.0381 N   0  0  0  0  0  0  0  0  0  0  0  0
    1.8471   -0.6900   -0.0269 C   0  0  0  0  0  0  0  0  0  0  0  0
    0.4847    1.1278    0.0256 N   0  0  0  0  0  0  0  0  0  0  0  0
    1.7907    0.7134    0.0124 C   0  0  0  0  0  0  0  0  0  0  0  0
    2.9722    1.4563    0.0343 C   0  0  0  0  0  0  0  0  0  0  0  0
    5.1017    1.3159    0.0338 H   0  0  0  0  0  0  0  0  0  0  0  0
    5.1642   -1.1406   -0.0341 H   0  0  0  0  0  0  0  0  0  0  0  0
    3.0773   -2.4734   -0.0733 H   0  0  0  0  0  0  0  0  0  0  0  0
   -1.8691    2.1550   -0.0609 H   0  0  0  0  0  0  0  0  0  0  0  0
   -4.3642    2.0843   -0.0510 H   0  0  0  0  0  0  0  0  0  0  0  0
   -5.4935   -0.1242    0.0108 H   0  0  0  0  0  0  0  0  0  0  0  0
   -1.9309   -2.1359    0.0615 H   0  0  0  0  0  0  0  0  0  0  0  0
    0.2217   -2.0450   -0.0732 H   0  0  0  0  0  0  0  0  0  0  0  0
    2.9473    2.5379    0.0637 H   0  0  0  0  0  0  0  0  0  0  0  0
  7  6  2  0
  7  8  1  0
  6  5  1  0
 13 14  1  0
 13  4  2  0
 15 14  1  0
 15  1  2  0
  8 10  2  0
 14 12  2  0
  5  4  1  0
  5  9  2  0
  4 11  1  0
  1  2  1  0
 10  9  1  0
 12 11  1  0
 12  3  1  0
  2  3  2  0
  1 16  1  0
  2 17  1  0
  3 18  1  0
  6 19  1  0
  7 20  1  0
  8 21  1  0
  9 22  1  0
 11 23  1  0
 15 24  1  0
M  END
