
     RDKit          3D

 39 41  0  0  0  0  0  0  0  0999 V2000
   -7.2144   -1.6997    0.0210 C   0  0  0  0  0  0  0  0  0  0  0  0
   -0.4600    1.1636    0.1444 N   0  0  0  0  0  0  0  0  0  0  0  0
    6.7105    1.0374   -0.5258 O   0  0  0  0  0  0  0  0  0  0  0  0
   -2.1997   -0.7101   -0.2336 S   0  0  0  0  0  0  0  0  0  0  0  0
   -7.2878   -0.5484   -0.7545 C   0  0  0  0  0  0  0  0  0  0  0  0
   -1.7265    3.0450    0.5873 N   0  0  0  0  0  0  0  0  0  0  0  0
    6.9314   -1.4424   -0.7501 O   0  0  0  0  0  0  0  0  0  0  0  0
    6.3280   -0.2962   -0.0823 S   0  0  1  0  0  0  0  0  0  0  0  0
   -6.2910    0.4113   -0.6710 C   0  0  0  0  0  0  0  0  0  0  0  0
    0.4458   -0.9450   -0.3754 N   0  0  0  0  0  0  0  0  0  0  0  0
   -4.4945    2.4526    0.4053 O   0  0  0  0  0  0  0  0  0  0  0  0
   -5.1290   -0.9391    0.9469 C   0  0  0  0  0  0  0  0  0  0  0  0
    6.5678   -0.3058    1.5533 N   0  0  0  0  0  0  0  0  0  0  0  0
   -6.1395   -1.8889    0.8782 C   0  0  0  0  0  0  0  0  0  0  0  0
   -5.1951    0.2138    0.1675 C   0  0  0  0  0  0  0  0  0  0  0  0
   -4.1498    1.2764    0.2626 C   0  0  0  0  0  0  0  0  0  0  0  0
   -2.7818    0.8962    0.1701 C   0  0  0  0  0  0  0  0  0  0  0  0
   -1.6760    1.7448    0.3122 C   0  0  0  0  0  0  0  0  0  0  0  0
   -0.5791   -0.0978   -0.1471 C   0  0  0  0  0  0  0  0  0  0  0  0
    1.8136   -0.7198   -0.2974 C   0  0  0  0  0  0  0  0  0  0  0  0
    2.3918    0.4969    0.0787 C   0  0  0  0  0  0  0  0  0  0  0  0
    3.7680    0.6099    0.1406 C   0  0  0  0  0  0  0  0  0  0  0  0
    4.5771   -0.4738   -0.1722 C   0  0  0  0  0  0  0  0  0  0  0  0
    4.0142   -1.6834   -0.5556 C   0  0  0  0  0  0  0  0  0  0  0  0
    2.6406   -1.8023   -0.6147 C   0  0  0  0  0  0  0  0  0  0  0  0
   -7.9972   -2.4444   -0.0395 H   0  0  0  0  0  0  0  0  0  0  0  0
   -8.1263   -0.3967   -1.4216 H   0  0  0  0  0  0  0  0  0  0  0  0
   -0.8764    3.5586    0.7412 H   0  0  0  0  0  0  0  0  0  0  0  0
   -2.6134    3.4951    0.7367 H   0  0  0  0  0  0  0  0  0  0  0  0
   -6.3554    1.3106   -1.2704 H   0  0  0  0  0  0  0  0  0  0  0  0
    0.1895   -1.8887   -0.6268 H   0  0  0  0  0  0  0  0  0  0  0  0
   -4.3069   -1.0880    1.6363 H   0  0  0  0  0  0  0  0  0  0  0  0
    7.4828    0.0639    1.7952 H   0  0  0  0  0  0  0  0  0  0  0  0
    6.4457   -1.2279    1.9595 H   0  0  0  0  0  0  0  0  0  0  0  0
   -6.0874   -2.7742    1.4981 H   0  0  0  0  0  0  0  0  0  0  0  0
    1.7777    1.3486    0.3197 H   0  0  0  0  0  0  0  0  0  0  0  0
    4.1988    1.5565    0.4385 H   0  0  0  0  0  0  0  0  0  0  0  0
    4.6310   -2.5343   -0.8087 H   0  0  0  0  0  0  0  0  0  0  0  0
    2.2039   -2.7467   -0.9150 H   0  0  0  0  0  0  0  0  0  0  0  0
  5  1  2  0
 14  1  1  0
  1 26  1  0
 18  2  1  0
  2 19  2  0
  3  8  2  0
 17  4  1  0
 19  4  1  0
  9  5  1  0
  5 27  1  0
  6 18  1  0
  6 28  1  0
  6 29  1  0
  8  7  2  0
 23  8  1  0
  8 13  1  1
 15  9  2  0
  9 30  1  0
 19 10  1  0
 10 20  1  0
 10 31  1  0
 11 16  2  0
 15 12  1  0
 12 14  2  0
 12 32  1  0
 13 33  1  0
 13 34  1  0
 14 35  1  0
 16 15  1  0
 16 17  1  0
 18 17  2  0
 20 25  1  0
 20 21  2  0
 21 22  1  0
 21 36  1  0
 22 23  2  0
 22 37  1  0
 24 23  1  0
 25 24  2  0
 24 38  1  0
 25 39  1  0
M  END
