
     RDKit          3D

 57 59  0  0  0  0  0  0  0  0999 V2000
   -8.0828   -0.3084   -0.9540 N   0  0  0  0  0  0  0  0  0  0  0  0
    0.8452   -4.3318   -0.1762 N   0  0  0  0  0  0  0  0  0  0  0  0
   -3.0929    0.6592   -0.3876 C   0  0  0  0  0  0  0  0  0  0  0  0
   -3.8023    1.7147   -0.9497 C   0  0  0  0  0  0  0  0  0  0  0  0
   -5.1795    1.7856   -0.8163 C   0  0  0  0  0  0  0  0  0  0  0  0
   -1.6050    0.6501   -0.5449 C   0  0  0  0  0  0  0  0  0  0  0  0
    0.4239   -0.6984   -0.5919 C   0  0  1  0  0  0  0  0  0  0  0  0
    2.0992    1.0369    0.1428 C   0  0  0  0  0  0  0  0  0  0  0  0
    1.6324    0.4681    2.8153 C   0  0  0  0  0  0  0  0  0  0  0  0
    0.7594   -2.1536   -0.5148 C   0  0  0  0  0  0  0  0  0  0  0  0
   -7.5999    0.8722    0.0905 S   0  0  1  0  0  0  0  0  0  0  0  0
   -8.0300    2.2014   -0.3187 O   0  0  0  0  0  0  0  0  0  0  0  0
   -7.9566    0.4025    1.4204 O   0  0  0  0  0  0  0  0  0  0  0  0
   -5.8379    0.7950   -0.1046 C   0  0  0  0  0  0  0  0  0  0  0  0
   -5.1465   -0.2568    0.4801 C   0  0  0  0  0  0  0  0  0  0  0  0
   -3.7719   -0.3204    0.3350 C   0  0  0  0  0  0  0  0  0  0  0  0
   -0.9812    1.6793   -0.7291 O   0  0  0  0  0  0  0  0  0  0  0  0
   -1.0128   -0.5607   -0.4545 N   0  0  0  0  0  0  0  0  0  0  0  0
    1.1670    0.0696    0.4874 C   0  0  0  0  0  0  0  0  0  0  0  0
    2.8034    1.7151    1.1291 C   0  0  0  0  0  0  0  0  0  0  0  0
    2.5714    1.4322    2.4670 C   0  0  0  0  0  0  0  0  0  0  0  0
    0.9364   -0.2126    1.8291 C   0  0  0  0  0  0  0  0  0  0  0  0
    0.0731   -3.2357   -0.0248 C   0  0  0  0  0  0  0  0  0  0  0  0
    1.9574   -3.9903   -0.7181 N   0  0  0  0  0  0  0  0  0  0  0  0
    1.9228   -2.6846   -0.9392 N   0  0  0  0  0  0  0  0  0  0  0  0
    3.0917   -2.0149   -1.4369 C   0  0  0  0  0  0  0  0  0  0  0  0
    6.6821    0.9749   -0.3115 C   0  0  0  0  0  0  0  0  0  0  0  0
    7.5845    1.6483    0.7095 C   0  0  0  0  0  0  0  0  0  0  0  0
    3.9942   -1.5779   -0.2828 C   0  0  0  0  0  0  0  0  0  0  0  0
    3.8997   -2.0795    0.8212 O   0  0  0  0  0  0  0  0  0  0  0  0
    4.8950   -0.6494   -0.6156 N   0  0  0  0  0  0  0  0  0  0  0  0
    5.8207   -0.0906    0.3474 C   0  0  0  0  0  0  0  0  0  0  0  0
    8.6360    2.8693   -0.1438 S   0  0  0  0  0  0  0  0  0  0  0  0
   -8.0587   -0.0152   -1.9253 H   0  0  0  0  0  0  0  0  0  0  0  0
   -9.0004   -0.6718   -0.7145 H   0  0  0  0  0  0  0  0  0  0  0  0
   -3.2811    2.4874   -1.4974 H   0  0  0  0  0  0  0  0  0  0  0  0
   -5.7205    2.6091   -1.2605 H   0  0  0  0  0  0  0  0  0  0  0  0
    0.7376   -0.3108   -1.5697 H   0  0  0  0  0  0  0  0  0  0  0  0
    2.2744    1.2718   -0.9003 H   0  0  0  0  0  0  0  0  0  0  0  0
    1.4450    0.2446    3.8576 H   0  0  0  0  0  0  0  0  0  0  0  0
   -5.6625   -1.0190    1.0481 H   0  0  0  0  0  0  0  0  0  0  0  0
   -3.2389   -1.1292    0.8167 H   0  0  0  0  0  0  0  0  0  0  0  0
   -1.5818   -1.3773   -0.6149 H   0  0  0  0  0  0  0  0  0  0  0  0
    3.5262    2.4718    0.8514 H   0  0  0  0  0  0  0  0  0  0  0  0
    3.1176    1.9625    3.2363 H   0  0  0  0  0  0  0  0  0  0  0  0
    0.2096   -0.9669    2.1081 H   0  0  0  0  0  0  0  0  0  0  0  0
   -0.9069   -3.2880    0.4218 H   0  0  0  0  0  0  0  0  0  0  0  0
    3.6348   -2.7140   -2.0741 H   0  0  0  0  0  0  0  0  0  0  0  0
    2.7951   -1.1751   -2.0651 H   0  0  0  0  0  0  0  0  0  0  0  0
    6.0418    1.7256   -0.7851 H   0  0  0  0  0  0  0  0  0  0  0  0
    7.2860    0.5215   -1.1023 H   0  0  0  0  0  0  0  0  0  0  0  0
    6.9874    2.1539    1.4687 H   0  0  0  0  0  0  0  0  0  0  0  0
    8.2178    0.9140    1.2073 H   0  0  0  0  0  0  0  0  0  0  0  0
    4.8725   -0.2538   -1.5423 H   0  0  0  0  0  0  0  0  0  0  0  0
    6.4535   -0.8808    0.7592 H   0  0  0  0  0  0  0  0  0  0  0  0
    5.2600    0.3420    1.1810 H   0  0  0  0  0  0  0  0  0  0  0  0
    9.3218    3.2898    0.9244 H   0  0  0  0  0  0  0  0  0  0  0  0
 11  1  1  6
  2 23  1  0
  2 24  2  0
  3  4  2  0
  3  6  1  0
  3 16  1  0
  4  5  1  0
  5 14  2  0
  6 17  2  0
  6 18  1  0
  7 10  1  0
  7 18  1  0
  7 19  1  0
  8 19  2  0
  8 20  1  0
  9 21  1  0
  9 22  2  0
 10 23  2  0
 10 25  1  0
 11 12  2  0
 11 13  2  0
 11 14  1  0
 14 15  1  0
 15 16  2  0
 19 22  1  0
 20 21  2  0
 24 25  1  0
 25 26  1  0
 26 29  1  0
 27 28  1  0
 27 32  1  0
 28 33  1  0
 29 30  2  0
 29 31  1  0
 31 32  1  0
  1 34  1  0
  1 35  1  0
  4 36  1  0
  5 37  1  0
  7 38  1  6
  8 39  1  0
  9 40  1  0
 15 41  1  0
 16 42  1  0
 18 43  1  0
 20 44  1  0
 21 45  1  0
 22 46  1  0
 23 47  1  0
 26 48  1  0
 26 49  1  0
 27 50  1  0
 27 51  1  0
 28 52  1  0
 28 53  1  0
 31 54  1  0
 32 55  1  0
 32 56  1  0
 33 57  1  0
M  END
