
     RDKit          3D

 43 45  0  0  0  0  0  0  0  0999 V2000
   -1.4366   -0.0919   -4.0139 N   0  0  0  0  0  0  0  0  0  0  0  0
   -0.4258   -0.5478   -4.7243 C   0  0  0  0  0  0  0  0  0  0  0  0
   -0.6616   -0.9108   -6.0013 N   0  0  0  0  0  0  0  0  0  0  0  0
    0.8288   -0.7488   -4.2859 N   0  0  0  0  0  0  0  0  0  0  0  0
    1.1231   -0.3928   -3.0540 C   0  0  0  0  0  0  0  0  0  0  0  0
    2.3637   -0.6940   -2.6390 N   0  0  0  0  0  0  0  0  0  0  0  0
    0.1521    0.2710   -2.2115 C   0  0  0  0  0  0  0  0  0  0  0  0
    0.3832    0.8529   -0.9399 C   0  0  0  0  0  0  0  0  0  0  0  0
    1.7623    1.0582   -0.3836 C   0  0  0  0  0  0  0  0  0  0  0  0
   -0.7190    1.3017   -0.2264 C   0  0  0  0  0  0  0  0  0  0  0  0
   -1.9736    1.2187   -0.8448 C   0  0  0  0  0  0  0  0  0  0  0  0
   -2.2004    0.7782   -2.0559 N   0  0  0  0  0  0  0  0  0  0  0  0
   -1.1557    0.3099   -2.7621 C   0  0  0  0  0  0  0  0  0  0  0  0
   -0.6374    1.8719    1.1683 C   0  0  0  0  0  0  0  0  0  0  0  0
   -0.2478    0.8557    2.2135 C   0  0  0  0  0  0  0  0  0  0  0  0
   -1.0838   -0.2409    2.4847 C   0  0  0  0  0  0  0  0  0  0  0  0
   -2.2366   -0.2955    1.7836 O   0  0  0  0  0  0  0  0  0  0  0  0
   -3.1036   -1.3875    1.9939 C   0  0  0  0  0  0  0  0  0  0  0  0
   -0.7027   -1.1746    3.4349 C   0  0  0  0  0  0  0  0  0  0  0  0
    0.4937   -1.0341    4.1382 C   0  0  0  0  0  0  0  0  0  0  0  0
    1.3140    0.0550    3.8933 C   0  0  0  0  0  0  0  0  0  0  0  0
    2.4870    0.2962    4.5228 O   0  0  0  0  0  0  0  0  0  0  0  0
    2.9190   -0.6286    5.4973 C   0  0  0  0  0  0  0  0  0  0  0  0
    0.9275    0.9888    2.9284 C   0  0  0  0  0  0  0  0  0  0  0  0
    0.1196   -1.0944   -6.6060 H   0  0  0  0  0  0  0  0  0  0  0  0
   -1.5224   -0.6262   -6.4347 H   0  0  0  0  0  0  0  0  0  0  0  0
    2.9142   -1.2776   -3.2480 H   0  0  0  0  0  0  0  0  0  0  0  0
    2.5949   -0.7445   -1.6642 H   0  0  0  0  0  0  0  0  0  0  0  0
    2.1273    0.1796    0.1546 H   0  0  0  0  0  0  0  0  0  0  0  0
    2.4786    1.3038   -1.1648 H   0  0  0  0  0  0  0  0  0  0  0  0
    1.7781    1.8812    0.3255 H   0  0  0  0  0  0  0  0  0  0  0  0
   -2.8427    1.5737   -0.2984 H   0  0  0  0  0  0  0  0  0  0  0  0
   -1.6106    2.2998    1.4220 H   0  0  0  0  0  0  0  0  0  0  0  0
    0.0676    2.7058    1.2049 H   0  0  0  0  0  0  0  0  0  0  0  0
   -3.9508   -1.2424    1.3278 H   0  0  0  0  0  0  0  0  0  0  0  0
   -2.6271   -2.3425    1.7546 H   0  0  0  0  0  0  0  0  0  0  0  0
   -3.4702   -1.4282    3.0237 H   0  0  0  0  0  0  0  0  0  0  0  0
   -1.3265   -2.0301    3.6576 H   0  0  0  0  0  0  0  0  0  0  0  0
    0.7499   -1.7893    4.8686 H   0  0  0  0  0  0  0  0  0  0  0  0
    3.8673   -0.2584    5.8795 H   0  0  0  0  0  0  0  0  0  0  0  0
    2.2137   -0.7097    6.3292 H   0  0  0  0  0  0  0  0  0  0  0  0
    3.0768   -1.6258    5.0764 H   0  0  0  0  0  0  0  0  0  0  0  0
    1.5752    1.8373    2.7376 H   0  0  0  0  0  0  0  0  0  0  0  0
  1  2  2  0
  1 13  1  0
  2  3  1  0
  2  4  1  0
  3 25  1  0
  3 26  1  0
  4  5  2  0
  5  6  1  0
  5  7  1  0
  6 27  1  0
  6 28  1  0
  7  8  1  0
  7 13  2  0
  8  9  1  0
  8 10  2  0
  9 29  1  0
  9 30  1  0
  9 31  1  0
 10 11  1  0
 10 14  1  0
 11 12  2  0
 11 32  1  0
 12 13  1  0
 14 15  1  0
 14 33  1  0
 14 34  1  0
 15 16  2  0
 15 24  1  0
 16 17  1  0
 16 19  1  0
 17 18  1  0
 18 35  1  0
 18 36  1  0
 18 37  1  0
 19 20  2  0
 19 38  1  0
 20 21  1  0
 20 39  1  0
 21 22  1  0
 21 24  2  0
 22 23  1  0
 23 40  1  0
 23 41  1  0
 23 42  1  0
 24 43  1  0
M  END
