
     RDKit          3D

 41 42  0  0  0  0  0  0  0  0999 V2000
   -2.5770    0.5995   -0.4233 C   0  0  0  0  0  0  0  0  0  0  0  0
   -1.8335    1.0039   -1.5289 C   0  0  0  0  0  0  0  0  0  0  0  0
   -0.5350    0.5386   -1.6844 C   0  0  0  0  0  0  0  0  0  0  0  0
    0.0460   -0.3191   -0.7571 C   0  0  0  0  0  0  0  0  0  0  0  0
   -0.6991   -0.7070    0.3620 C   0  0  0  0  0  0  0  0  0  0  0  0
   -2.0065   -0.2490    0.5233 C   0  0  0  0  0  0  0  0  0  0  0  0
    3.1472   -1.2187    0.9240 C   0  0  0  0  0  0  0  0  0  0  0  0
    2.3569   -0.3410    0.1854 C   0  0  0  0  0  0  0  0  0  0  0  0
    2.4281    1.0225    0.4702 C   0  0  0  0  0  0  0  0  0  0  0  0
    3.2704    1.4943    1.4648 C   0  0  0  0  0  0  0  0  0  0  0  0
    4.0533    0.6091    2.1985 C   0  0  0  0  0  0  0  0  0  0  0  0
    3.9898   -0.7488    1.9259 C   0  0  0  0  0  0  0  0  0  0  0  0
   -2.7246   -0.6102    1.6174 O   0  0  0  0  0  0  0  0  0  0  0  0
   -3.5045   -1.7863    1.4440 C   0  0  0  0  0  0  0  0  0  0  0  0
   -3.8622    1.0354   -0.3016 O   0  0  0  0  0  0  0  0  0  0  0  0
   -4.0383    2.1161    0.6119 C   0  0  0  0  0  0  0  0  0  0  0  0
   -2.3483    1.8330   -2.4638 O   0  0  0  0  0  0  0  0  0  0  0  0
   -0.2259   -1.5555    1.3095 O   0  0  0  0  0  0  0  0  0  0  0  0
    1.4548   -0.8538   -0.9212 C   0  0  2  0  0  0  0  0  0  0  0  0
    2.0723   -0.5811   -2.2983 C   0  0  0  0  0  0  0  0  0  0  0  0
    3.4217   -1.2591   -2.4834 C   0  0  0  0  0  0  0  0  0  0  0  0
    0.0204    0.8579   -2.5565 H   0  0  0  0  0  0  0  0  0  0  0  0
    3.1092   -2.2812    0.7090 H   0  0  0  0  0  0  0  0  0  0  0  0
    1.8156    1.7209   -0.0883 H   0  0  0  0  0  0  0  0  0  0  0  0
    3.3135    2.5555    1.6741 H   0  0  0  0  0  0  0  0  0  0  0  0
    4.7051    0.9789    2.9795 H   0  0  0  0  0  0  0  0  0  0  0  0
    4.5952   -1.4461    2.4903 H   0  0  0  0  0  0  0  0  0  0  0  0
   -4.2106   -1.6840    0.6171 H   0  0  0  0  0  0  0  0  0  0  0  0
   -2.8785   -2.6643    1.2663 H   0  0  0  0  0  0  0  0  0  0  0  0
   -4.0640   -1.9376    2.3652 H   0  0  0  0  0  0  0  0  0  0  0  0
   -3.8105    1.8176    1.6360 H   0  0  0  0  0  0  0  0  0  0  0  0
   -3.4140    2.9719    0.3435 H   0  0  0  0  0  0  0  0  0  0  0  0
   -5.0834    2.4136    0.5552 H   0  0  0  0  0  0  0  0  0  0  0  0
   -3.2822    1.9903   -2.2770 H   0  0  0  0  0  0  0  0  0  0  0  0
    0.7254   -1.4383    1.4254 H   0  0  0  0  0  0  0  0  0  0  0  0
    1.4044   -1.9454   -0.8195 H   0  0  0  0  0  0  0  0  0  0  0  0
    1.3817   -0.9417   -3.0651 H   0  0  0  0  0  0  0  0  0  0  0  0
    2.1808    0.4957   -2.4544 H   0  0  0  0  0  0  0  0  0  0  0  0
    3.7780   -1.1296   -3.5054 H   0  0  0  0  0  0  0  0  0  0  0  0
    4.1781   -0.8460   -1.8159 H   0  0  0  0  0  0  0  0  0  0  0  0
    3.3556   -2.3309   -2.2864 H   0  0  0  0  0  0  0  0  0  0  0  0
 17  2  1  0
 15 16  1  0
 15  1  1  0
  2  1  2  0
  2  3  1  0
  1  6  1  0
  3  4  2  0
 14 13  1  0
  6 13  1  0
  6  5  2  0
 21 20  1  0
  4  5  1  0
  4 19  1  0
 20 19  1  0
  5 18  1  0
  9 10  2  0
  9  8  1  0
 19  8  1  0
 10 11  1  0
  8  7  2  0
 11 12  2  0
  7 12  1  0
  3 22  1  0
  7 23  1  0
  9 24  1  0
 10 25  1  0
 11 26  1  0
 12 27  1  0
 14 28  1  0
 14 29  1  0
 14 30  1  0
 16 31  1  0
 16 32  1  0
 16 33  1  0
 17 34  1  0
 18 35  1  0
 19 36  1  1
 20 37  1  0
 20 38  1  0
 21 39  1  0
 21 40  1  0
 21 41  1  0
M  END
