
     RDKit          3D

 56 60  0  0  0  0  0  0  0  0999 V2000
   -8.3356   -2.5296   -1.1990 O   0  0  0  0  0  0  0  0  0  0  0  0
   -7.0035   -2.7731   -0.8030 C   0  0  0  0  0  0  0  0  0  0  0  0
   -6.4177   -1.5173   -0.1859 C   0  0  1  0  0  0  0  0  0  0  0  0
   -5.0035   -1.7802    0.3212 C   0  0  0  0  0  0  0  0  0  0  0  0
   -4.3937   -0.5237    0.9158 C   0  0  0  0  0  0  0  0  0  0  0  0
   -6.3832   -0.3387   -1.1543 C   0  0  0  0  0  0  0  0  0  0  0  0
   -5.7375    0.8842   -0.5206 C   0  0  0  0  0  0  0  0  0  0  0  0
   -4.3938    0.5688   -0.0581 N   0  0  0  0  0  0  0  0  0  0  0  0
   -3.5925    1.6609    0.2646 C   0  0  0  0  0  0  0  0  0  0  0  0
   -4.1595    2.8365    0.4708 N   0  0  0  0  0  0  0  0  0  0  0  0
   -3.4118    3.8981    0.7651 C   0  0  0  0  0  0  0  0  0  0  0  0
   -2.0417    3.8337    0.8915 C   0  0  0  0  0  0  0  0  0  0  0  0
   -1.4157    2.6119    0.6560 C   0  0  0  0  0  0  0  0  0  0  0  0
   -2.1858    1.5192    0.3149 C   0  0  0  0  0  0  0  0  0  0  0  0
   -1.6748    0.3061   -0.0240 O   0  0  0  0  0  0  0  0  0  0  0  0
   -0.3523    0.0500    0.2550 C   0  0  0  0  0  0  0  0  0  0  0  0
    0.0275   -0.3299    1.5345 C   0  0  0  0  0  0  0  0  0  0  0  0
    1.3537   -0.6124    1.7989 C   0  0  0  0  0  0  0  0  0  0  0  0
    0.5934    0.1428   -0.7494 C   0  0  0  0  0  0  0  0  0  0  0  0
    1.9274   -0.1430   -0.4905 C   0  0  0  0  0  0  0  0  0  0  0  0
    2.3231   -0.5184    0.7941 C   0  0  0  0  0  0  0  0  0  0  0  0
    3.6310   -0.8241    1.1509 N   0  0  0  0  0  0  0  0  0  0  0  0
    4.7657   -0.6875    0.4200 C   0  0  0  0  0  0  0  0  0  0  0  0
    5.9642   -1.0306    0.9724 N   0  0  0  0  0  0  0  0  0  0  0  0
    6.9285   -0.7835    0.0247 C   0  0  0  0  0  0  0  0  0  0  0  0
    8.3054   -0.9340    0.0267 C   0  0  0  0  0  0  0  0  0  0  0  0
    8.9765   -0.5696   -1.1340 C   0  0  0  0  0  0  0  0  0  0  0  0
    8.2880   -0.0760   -2.2463 C   0  0  0  0  0  0  0  0  0  0  0  0
    6.9074    0.0698   -2.2368 C   0  0  0  0  0  0  0  0  0  0  0  0
    6.2188   -0.2894   -1.0830 C   0  0  0  0  0  0  0  0  0  0  0  0
    4.8710   -0.2428   -0.8048 N   0  0  0  0  0  0  0  0  0  0  0  0
   -8.6914   -3.3408   -1.5722 H   0  0  0  0  0  0  0  0  0  0  0  0
   -6.9508   -3.5893   -0.0695 H   0  0  0  0  0  0  0  0  0  0  0  0
   -6.3798   -3.0741   -1.6575 H   0  0  0  0  0  0  0  0  0  0  0  0
   -7.0353   -1.2372    0.6782 H   0  0  0  0  0  0  0  0  0  0  0  0
   -5.0065   -2.5628    1.0841 H   0  0  0  0  0  0  0  0  0  0  0  0
   -4.3719   -2.1329   -0.5014 H   0  0  0  0  0  0  0  0  0  0  0  0
   -4.9652   -0.2289    1.8091 H   0  0  0  0  0  0  0  0  0  0  0  0
   -3.3789   -0.7328    1.2452 H   0  0  0  0  0  0  0  0  0  0  0  0
   -5.8239   -0.6243   -2.0522 H   0  0  0  0  0  0  0  0  0  0  0  0
   -7.3901   -0.0683   -1.4768 H   0  0  0  0  0  0  0  0  0  0  0  0
   -5.6773    1.6906   -1.2512 H   0  0  0  0  0  0  0  0  0  0  0  0
   -6.3713    1.2481    0.3009 H   0  0  0  0  0  0  0  0  0  0  0  0
   -3.9397    4.8332    0.9143 H   0  0  0  0  0  0  0  0  0  0  0  0
   -1.4643    4.7094    1.1527 H   0  0  0  0  0  0  0  0  0  0  0  0
   -0.3374    2.5392    0.7096 H   0  0  0  0  0  0  0  0  0  0  0  0
   -0.7075   -0.4061    2.3262 H   0  0  0  0  0  0  0  0  0  0  0  0
    1.6426   -0.9078    2.8006 H   0  0  0  0  0  0  0  0  0  0  0  0
    0.2952    0.4361   -1.7480 H   0  0  0  0  0  0  0  0  0  0  0  0
    2.6535   -0.0662   -1.2840 H   0  0  0  0  0  0  0  0  0  0  0  0
    3.7571   -1.1300    2.1029 H   0  0  0  0  0  0  0  0  0  0  0  0
    6.1135   -1.4110    1.8937 H   0  0  0  0  0  0  0  0  0  0  0  0
    8.8366   -1.3150    0.8892 H   0  0  0  0  0  0  0  0  0  0  0  0
   10.0532   -0.6692   -1.1762 H   0  0  0  0  0  0  0  0  0  0  0  0
    8.8446    0.2003   -3.1325 H   0  0  0  0  0  0  0  0  0  0  0  0
    6.3801    0.4541   -3.1005 H   0  0  0  0  0  0  0  0  0  0  0  0
  2  1  1  0
  2  3  1  0
  6  3  1  0
  6  7  1  0
  3  4  1  0
  7  8  1  0
  4  5  1  0
  8  5  1  0
  8  9  1  0
 10  9  2  0
 10 11  1  0
  9 14  1  0
 11 12  2  0
 14 15  1  0
 14 13  2  0
 15 16  1  0
 12 13  1  0
 16 17  2  0
 16 19  1  0
 17 18  1  0
 19 20  2  0
 18 21  2  0
 20 21  1  0
 21 22  1  0
 24 23  1  0
 24 25  1  0
 22 23  1  0
 23 31  2  0
 26 25  2  0
 26 27  1  0
 25 30  1  0
 27 28  2  0
 31 30  1  0
 30 29  2  0
 28 29  1  0
  1 32  1  0
  2 33  1  0
  2 34  1  0
  3 35  1  1
  4 36  1  0
  4 37  1  0
  5 38  1  0
  5 39  1  0
  6 40  1  0
  6 41  1  0
  7 42  1  0
  7 43  1  0
 11 44  1  0
 12 45  1  0
 13 46  1  0
 17 47  1  0
 18 48  1  0
 19 49  1  0
 20 50  1  0
 22 51  1  0
 24 52  1  0
 26 53  1  0
 27 54  1  0
 28 55  1  0
 29 56  1  0
M  END
