
     RDKit          3D

 81 82  0  0  0  0  0  0  0  0999 V2000
   -3.9690   -0.3665   -0.1492 O   0  0  0  0  0  0  0  0  0  0  0  0
   -9.2182    1.1753   -0.3088 O   0  0  0  0  0  0  0  0  0  0  0  0
    6.4695    1.9470   -0.1204 C   0  0  0  0  0  0  0  0  0  0  0  0
   -7.6322   -0.5269    0.0080 C   0  0  0  0  0  0  0  0  0  0  0  0
   -6.2979   -0.9495    0.0401 C   0  0  0  0  0  0  0  0  0  0  0  0
   -5.2830   -0.0264   -0.1808 C   0  0  0  0  0  0  0  0  0  0  0  0
   -5.5570    1.3169   -0.4742 C   0  0  0  0  0  0  0  0  0  0  0  0
   -6.8875    1.7385   -0.5145 C   0  0  0  0  0  0  0  0  0  0  0  0
   -7.9082    0.8064   -0.2719 C   0  0  0  0  0  0  0  0  0  0  0  0
   -8.7326   -1.5160    0.2711 C   0  0  0  0  0  0  0  0  0  0  0  0
   -3.5857   -1.5780    0.5074 C   0  0  2  0  0  0  0  0  0  0  0  0
   -5.9620   -2.3893    0.3195 C   0  0  0  0  0  0  0  0  0  0  0  0
   -4.5016   -2.6981    0.0238 C   0  0  0  0  0  0  0  0  0  0  0  0
   -4.3918    2.2372   -0.7201 C   0  0  0  0  0  0  0  0  0  0  0  0
   -7.2912    3.1630   -0.7916 C   0  0  0  0  0  0  0  0  0  0  0  0
   -3.6760   -1.3932    2.0198 C   0  0  0  0  0  0  0  0  0  0  0  0
   -2.1480   -1.8471    0.0617 C   0  0  0  0  0  0  0  0  0  0  0  0
   -1.1366   -0.7550    0.3946 C   0  0  0  0  0  0  0  0  0  0  0  0
    0.2303   -1.0350   -0.2207 C   0  0  0  0  0  0  0  0  0  0  0  0
    1.3266   -0.0460    0.1837 C   0  0  2  0  0  0  0  0  0  0  0  0
    0.9743    1.3817   -0.2257 C   0  0  0  0  0  0  0  0  0  0  0  0
    2.6751   -0.4868   -0.3942 C   0  0  0  0  0  0  0  0  0  0  0  0
    3.8771    0.2740    0.1545 C   0  0  0  0  0  0  0  0  0  0  0  0
    5.2030   -0.2248   -0.4080 C   0  0  0  0  0  0  0  0  0  0  0  0
    6.4465    0.4500    0.1786 C   0  0  1  0  0  0  0  0  0  0  0  0
    7.7089   -0.2480   -0.3354 C   0  0  0  0  0  0  0  0  0  0  0  0
    9.0134    0.2431    0.2823 C   0  0  0  0  0  0  0  0  0  0  0  0
   10.2254   -0.5506   -0.1918 C   0  0  0  0  0  0  0  0  0  0  0  0
   11.5577   -0.1134    0.4219 C   0  0  1  0  0  0  0  0  0  0  0  0
   12.6701   -1.0783    0.0229 C   0  0  0  0  0  0  0  0  0  0  0  0
   11.9331    1.3144    0.0362 C   0  0  0  0  0  0  0  0  0  0  0  0
   -9.3046    2.1276   -0.4151 H   0  0  0  0  0  0  0  0  0  0  0  0
    7.3311    2.4395    0.3310 H   0  0  0  0  0  0  0  0  0  0  0  0
    6.5138    2.1240   -1.1984 H   0  0  0  0  0  0  0  0  0  0  0  0
   -8.5479   -2.0772    1.1886 H   0  0  0  0  0  0  0  0  0  0  0  0
   -9.7050   -1.0412    0.3687 H   0  0  0  0  0  0  0  0  0  0  0  0
   -8.8088   -2.2515   -0.5338 H   0  0  0  0  0  0  0  0  0  0  0  0
   -6.5971   -3.0443   -0.2819 H   0  0  0  0  0  0  0  0  0  0  0  0
   -6.2022   -2.6311    1.3602 H   0  0  0  0  0  0  0  0  0  0  0  0
   -4.3597   -2.8202   -1.0545 H   0  0  0  0  0  0  0  0  0  0  0  0
   -4.2103   -3.6425    0.4879 H   0  0  0  0  0  0  0  0  0  0  0  0
   -3.9081    2.5263    0.2160 H   0  0  0  0  0  0  0  0  0  0  0  0
   -3.6286    1.7595   -1.3326 H   0  0  0  0  0  0  0  0  0  0  0  0
   -4.6815    3.1513   -1.2303 H   0  0  0  0  0  0  0  0  0  0  0  0
   -7.8795    3.5838    0.0293 H   0  0  0  0  0  0  0  0  0  0  0  0
   -6.4420    3.8260   -0.9189 H   0  0  0  0  0  0  0  0  0  0  0  0
   -7.8936    3.2460   -1.7004 H   0  0  0  0  0  0  0  0  0  0  0  0
   -3.0488   -0.5681    2.3573 H   0  0  0  0  0  0  0  0  0  0  0  0
   -4.6935   -1.1856    2.3533 H   0  0  0  0  0  0  0  0  0  0  0  0
   -3.3423   -2.2988    2.5289 H   0  0  0  0  0  0  0  0  0  0  0  0
   -2.1512   -2.0171   -1.0209 H   0  0  0  0  0  0  0  0  0  0  0  0
   -1.8277   -2.7911    0.5135 H   0  0  0  0  0  0  0  0  0  0  0  0
   -1.0236   -0.6647    1.4792 H   0  0  0  0  0  0  0  0  0  0  0  0
   -1.5156    0.2065    0.0421 H   0  0  0  0  0  0  0  0  0  0  0  0
    0.1409   -1.0438   -1.3138 H   0  0  0  0  0  0  0  0  0  0  0  0
    0.5485   -2.0440    0.0652 H   0  0  0  0  0  0  0  0  0  0  0  0
    1.4139   -0.0756    1.2782 H   0  0  0  0  0  0  0  0  0  0  0  0
    0.0675    1.7336    0.2668 H   0  0  0  0  0  0  0  0  0  0  0  0
    1.7660    2.0857    0.0316 H   0  0  0  0  0  0  0  0  0  0  0  0
    0.8120    1.4473   -1.3051 H   0  0  0  0  0  0  0  0  0  0  0  0
    2.6488   -0.3912   -1.4867 H   0  0  0  0  0  0  0  0  0  0  0  0
    2.8123   -1.5547   -0.1896 H   0  0  0  0  0  0  0  0  0  0  0  0
    3.8905    0.1829    1.2471 H   0  0  0  0  0  0  0  0  0  0  0  0
    3.7655    1.3399   -0.0581 H   0  0  0  0  0  0  0  0  0  0  0  0
    5.2071   -0.0968   -1.4976 H   0  0  0  0  0  0  0  0  0  0  0  0
    5.2767   -1.3043   -0.2334 H   0  0  0  0  0  0  0  0  0  0  0  0
    6.4121    0.3195    1.2688 H   0  0  0  0  0  0  0  0  0  0  0  0
    7.7598   -0.1344   -1.4254 H   0  0  0  0  0  0  0  0  0  0  0  0
    7.6130   -1.3239   -0.1503 H   0  0  0  0  0  0  0  0  0  0  0  0
    8.9440    0.1787    1.3745 H   0  0  0  0  0  0  0  0  0  0  0  0
    9.1543    1.3012    0.0490 H   0  0  0  0  0  0  0  0  0  0  0  0
   10.2989   -0.4861   -1.2846 H   0  0  0  0  0  0  0  0  0  0  0  0
   10.0659   -1.6105    0.0364 H   0  0  0  0  0  0  0  0  0  0  0  0
   11.4509   -0.1543    1.5130 H   0  0  0  0  0  0  0  0  0  0  0  0
   13.6230   -0.7965    0.4748 H   0  0  0  0  0  0  0  0  0  0  0  0
   12.4445   -2.1003    0.3332 H   0  0  0  0  0  0  0  0  0  0  0  0
   12.8096   -1.0844   -1.0612 H   0  0  0  0  0  0  0  0  0  0  0  0
   11.1895    2.0411    0.3649 H   0  0  0  0  0  0  0  0  0  0  0  0
   12.8868    1.6022    0.4820 H   0  0  0  0  0  0  0  0  0  0  0  0
   12.0337    1.4102   -1.0482 H   0  0  0  0  0  0  0  0  0  0  0  0
    5.5820    2.4530    0.2605 H   0  0  0  0  0  0  0  0  0  0  0  0
  1  6  1  0
  1 11  1  0
  2  9  1  0
  2 32  1  0
  3 25  1  0
  3 81  1  0
  3 33  1  0
  3 34  1  0
  4  5  2  0
  4  9  1  0
  4 10  1  0
  5  6  1  0
  5 12  1  0
  6  7  2  0
  7  8  1  0
  7 14  1  0
  8  9  2  0
  8 15  1  0
 10 35  1  0
 10 36  1  0
 10 37  1  0
 11 13  1  0
 11 16  1  1
 11 17  1  0
 12 13  1  0
 12 38  1  0
 12 39  1  0
 13 40  1  0
 13 41  1  0
 14 42  1  0
 14 43  1  0
 14 44  1  0
 15 45  1  0
 15 46  1  0
 15 47  1  0
 16 48  1  0
 16 49  1  0
 16 50  1  0
 17 18  1  0
 17 51  1  0
 17 52  1  0
 18 19  1  0
 18 53  1  0
 18 54  1  0
 19 20  1  0
 19 55  1  0
 19 56  1  0
 20 21  1  0
 20 22  1  0
 20 57  1  1
 21 58  1  0
 21 59  1  0
 21 60  1  0
 22 23  1  0
 22 61  1  0
 22 62  1  0
 23 24  1  0
 23 63  1  0
 23 64  1  0
 24 25  1  0
 24 65  1  0
 24 66  1  0
 25 26  1  0
 25 67  1  1
 26 27  1  0
 26 68  1  0
 26 69  1  0
 27 28  1  0
 27 70  1  0
 27 71  1  0
 28 29  1  0
 28 72  1  0
 28 73  1  0
 29 30  1  0
 29 31  1  0
 29 74  1  1
 30 75  1  0
 30 76  1  0
 30 77  1  0
 31 78  1  0
 31 79  1  0
 31 80  1  0
M  END
