
     RDKit          3D

 16 17  0  0  0  0  0  0  0  0999 V2000
    3.3104   -1.0863    0.0051 C   0  0  0  0  0  0  0  0  0  0  0  0
    1.9489   -1.4753    0.0176 C   0  0  0  0  0  0  0  0  0  0  0  0
    1.0963   -0.4051   -0.0261 C   0  0  0  0  0  0  0  0  0  0  0  0
    1.9688    1.0806   -0.0868 S   0  0  0  0  0  0  0  0  0  0  0  0
    3.4722    0.2659   -0.0468 C   0  0  0  0  0  0  0  0  0  0  0  0
   -0.3485   -0.4361   -0.0364 C   0  0  0  0  0  0  0  0  0  0  0  0
   -1.0535   -1.5034   -0.1983 N   0  0  0  0  0  0  0  0  0  0  0  0
   -2.3832   -1.3006   -0.1643 N   0  0  0  0  0  0  0  0  0  0  0  0
   -2.7017   -0.0526    0.0256 C   0  0  0  0  0  0  0  0  0  0  0  0
   -1.3224    0.9932    0.1914 S   0  0  0  0  0  0  0  0  0  0  0  0
   -3.9605    0.4046    0.1470 N   0  0  0  0  0  0  0  0  0  0  0  0
    4.1349   -1.7830    0.0390 H   0  0  0  0  0  0  0  0  0  0  0  0
    1.6112   -2.5003    0.0661 H   0  0  0  0  0  0  0  0  0  0  0  0
    4.3924    0.8287   -0.0646 H   0  0  0  0  0  0  0  0  0  0  0  0
   -4.6935   -0.2184   -0.1536 H   0  0  0  0  0  0  0  0  0  0  0  0
   -4.1470    1.3809   -0.0082 H   0  0  0  0  0  0  0  0  0  0  0  0
  1  2  1  0
  1  5  2  0
  2  3  2  0
  3  4  1  0
  3  6  1  0
  4  5  1  0
  6  7  2  0
  6 10  1  0
  7  8  1  0
  8  9  2  0
  9 10  1  0
  9 11  1  0
  1 12  1  0
  2 13  1  0
  5 14  1  0
 11 15  1  0
 11 16  1  0
M  END
