
     RDKit          3D

 36 36  0  0  0  0  0  0  0  0999 V2000
   -2.1909    0.9510   -0.0836 C   0  0  0  0  0  0  0  0  0  0  0  0
   -1.7372   -0.2798    0.3850 C   0  0  0  0  0  0  0  0  0  0  0  0
   -2.6047   -1.3625    0.4565 C   0  0  0  0  0  0  0  0  0  0  0  0
   -3.9232   -1.2238    0.0649 C   0  0  0  0  0  0  0  0  0  0  0  0
   -4.3898   -0.0038   -0.4028 C   0  0  0  0  0  0  0  0  0  0  0  0
   -3.5265    1.0734   -0.4731 C   0  0  0  0  0  0  0  0  0  0  0  0
    0.3549    3.5492   -0.2340 C   0  0  0  0  0  0  0  0  0  0  0  0
    4.9658   -1.3783   -0.4417 C   0  0  0  0  0  0  0  0  0  0  0  0
    3.9630   -0.4824    0.2679 C   0  0  0  0  0  0  0  0  0  0  0  0
    2.7428   -0.2487   -0.6096 C   0  0  0  0  0  0  0  0  0  0  0  0
    0.7397    1.1457   -0.5698 C   0  0  0  0  0  0  0  0  0  0  0  0
   -0.1045    2.1644    0.2220 C   0  0  1  0  0  0  0  0  0  0  0  0
   -0.0096    2.0762    1.7430 C   0  0  0  0  0  0  0  0  0  0  0  0
    1.8022    0.6294    0.0581 N   0  0  0  0  0  0  0  0  0  0  0  0
    0.4662    0.8916   -1.7315 O   0  0  0  0  0  0  0  0  0  0  0  0
   -1.4560    2.0732   -0.2102 O   0  0  0  0  0  0  0  0  0  0  0  0
    6.4146   -1.6173    0.6382 S   0  0  0  0  0  0  0  0  0  0  0  0
   -5.0004   -2.5812    0.1580 Cl  0  0  0  0  0  0  0  0  0  0  0  0
   -0.7178   -0.4416    0.7047 H   0  0  0  0  0  0  0  0  0  0  0  0
   -2.2355   -2.3110    0.8217 H   0  0  0  0  0  0  0  0  0  0  0  0
   -5.4202    0.1129   -0.7105 H   0  0  0  0  0  0  0  0  0  0  0  0
   -3.8879    2.0261   -0.8385 H   0  0  0  0  0  0  0  0  0  0  0  0
    0.2314    3.6714   -1.3095 H   0  0  0  0  0  0  0  0  0  0  0  0
   -0.2199    4.3236    0.2748 H   0  0  0  0  0  0  0  0  0  0  0  0
    1.4066    3.6959    0.0094 H   0  0  0  0  0  0  0  0  0  0  0  0
    4.5185   -2.3467   -0.6666 H   0  0  0  0  0  0  0  0  0  0  0  0
    5.2847   -0.9228   -1.3790 H   0  0  0  0  0  0  0  0  0  0  0  0
    3.6582   -0.9450    1.2107 H   0  0  0  0  0  0  0  0  0  0  0  0
    4.4290    0.4761    0.5118 H   0  0  0  0  0  0  0  0  0  0  0  0
    3.0452    0.2024   -1.5572 H   0  0  0  0  0  0  0  0  0  0  0  0
    2.2651   -1.2037   -0.8470 H   0  0  0  0  0  0  0  0  0  0  0  0
    0.9882    2.3464    2.0899 H   0  0  0  0  0  0  0  0  0  0  0  0
   -0.6968    2.7995    2.1820 H   0  0  0  0  0  0  0  0  0  0  0  0
   -0.2528    1.0956    2.1490 H   0  0  0  0  0  0  0  0  0  0  0  0
    1.9602    0.8331    1.0311 H   0  0  0  0  0  0  0  0  0  0  0  0
    7.1153   -2.4145   -0.1750 H   0  0  0  0  0  0  0  0  0  0  0  0
 13 12  1  0
 14 10  1  0
 14 11  1  0
 10  9  1  0
 12 16  1  1
 16  1  1  0
  8  9  1  0
  8 17  1  0
 12 11  1  0
 12  7  1  0
 11 15  2  0
  2  1  2  0
  2  3  1  0
  1  6  1  0
  3  4  2  0
  6  5  2  0
  4  5  1  0
  4 18  1  0
  2 19  1  0
  3 20  1  0
  5 21  1  0
  6 22  1  0
  7 23  1  0
  7 24  1  0
  7 25  1  0
  8 26  1  0
  8 27  1  0
  9 28  1  0
  9 29  1  0
 10 30  1  0
 10 31  1  0
 13 32  1  0
 13 33  1  0
 13 34  1  0
 14 35  1  0
 17 36  1  0
M  END
