
     RDKit          3D

  7  6  0  0  0  0  0  0  0  0999 V2000
    1.2369   -0.1815    0.0024 C   0  0  0  0  0  0  0  0  0  0  0  0
   -0.1282    0.4346    0.0550 C   0  0  0  0  0  0  0  0  0  0  0  0
   -1.1529   -0.2025    0.0727 O   0  0  0  0  0  0  0  0  0  0  0  0
    1.4011   -0.7990    0.8879 H   0  0  0  0  0  0  0  0  0  0  0  0
    1.3216   -0.8371   -0.8660 H   0  0  0  0  0  0  0  0  0  0  0  0
    2.0159    0.5758   -0.0460 H   0  0  0  0  0  0  0  0  0  0  0  0
   -0.1575    1.5377    0.0808 H   0  0  0  0  0  0  0  0  0  0  0  0
  1  2  1  0
  1  4  1  0
  1  5  1  0
  1  6  1  0
  2  3  2  0
  2  7  1  0
M  END
