
     RDKit          3D

 95 98  0  0  0  0  0  0  0  0999 V2000
   11.6469   -1.3309    1.2428 C   0  0  0  0  0  0  0  0  0  0  0  0
   10.4905   -2.1024    0.9656 O   0  0  0  0  0  0  0  0  0  0  0  0
    9.2880   -1.5382    1.1117 C   0  0  0  0  0  0  0  0  0  0  0  0
    9.0820   -0.2291    1.5440 C   0  0  0  0  0  0  0  0  0  0  0  0
    7.7899    0.2635    1.6590 C   0  0  0  0  0  0  0  0  0  0  0  0
    6.7097   -0.5413    1.3401 C   0  0  0  0  0  0  0  0  0  0  0  0
    6.9082   -1.8536    0.9146 C   0  0  0  0  0  0  0  0  0  0  0  0
    8.1868   -2.3484    0.8032 C   0  0  0  0  0  0  0  0  0  0  0  0
    5.0642    0.0776    1.4415 S   0  0  1  0  0  0  0  0  0  0  0  0
    4.1952   -0.9700    1.9639 O   0  0  0  0  0  0  0  0  0  0  0  0
    5.1127    1.3515    2.1499 O   0  0  0  0  0  0  0  0  0  0  0  0
    4.6443    0.2881   -0.1374 N   0  0  0  0  0  0  0  0  0  0  0  0
    5.3344    1.3456   -0.8754 C   0  0  0  0  0  0  0  0  0  0  0  0
    5.7557    0.9238   -2.2818 C   0  0  1  0  0  0  0  0  0  0  0  0
    6.4677    2.0973   -2.9468 C   0  0  0  0  0  0  0  0  0  0  0  0
    6.6351   -0.3188   -2.2558 C   0  0  0  0  0  0  0  0  0  0  0  0
    3.3244   -0.1472   -0.5708 C   0  0  0  0  0  0  0  0  0  0  0  0
    2.1564    0.6794   -0.0346 C   0  0  1  0  0  0  0  0  0  0  0  0
    2.1909    2.0207   -0.4706 O   0  0  0  0  0  0  0  0  0  0  0  0
    0.8081    0.0107   -0.3405 C   0  0  1  0  0  0  0  0  0  0  0  0
   -0.2487    0.8232    0.2178 N   0  0  0  0  0  0  0  0  0  0  0  0
   -1.3643    0.3013    0.7699 C   0  0  0  0  0  0  0  0  0  0  0  0
   -1.4875   -0.8779    1.0607 O   0  0  0  0  0  0  0  0  0  0  0  0
   -2.4740    1.2733    0.9865 C   0  0  0  0  0  0  0  0  0  0  0  0
   -2.2717    2.5854    1.4011 C   0  0  0  0  0  0  0  0  0  0  0  0
   -3.3552    3.4273    1.5613 C   0  0  0  0  0  0  0  0  0  0  0  0
   -4.6532    2.9912    1.2852 C   0  0  0  0  0  0  0  0  0  0  0  0
   -4.8712    1.6729    0.8639 C   0  0  0  0  0  0  0  0  0  0  0  0
   -3.7685    0.8364    0.7427 C   0  0  0  0  0  0  0  0  0  0  0  0
   -5.9175    4.1852    1.5435 S   0  0  0  0  0  0  0  0  0  0  0  0
   -7.3723    3.3652    0.8466 C   0  0  0  0  0  0  0  0  0  0  0  0
   -7.3923    1.8859    1.1656 C   0  0  0  0  0  0  0  0  0  0  0  0
   -6.2455    1.1460    0.4817 C   0  0  2  0  0  0  0  0  0  0  0  0
   -6.3439   -0.2716    0.7261 N   0  0  0  0  0  0  0  0  0  0  0  0
   -6.7574   -1.1595   -0.2069 C   0  0  0  0  0  0  0  0  0  0  0  0
   -7.0068   -0.8778   -1.3616 O   0  0  0  0  0  0  0  0  0  0  0  0
   -6.8363   -2.3745    0.3325 O   0  0  0  0  0  0  0  0  0  0  0  0
   -7.3273   -3.5331   -0.3948 C   0  0  1  0  0  0  0  0  0  0  0  0
   -6.3998   -3.8886   -1.5496 C   0  0  0  0  0  0  0  0  0  0  0  0
   -7.2893   -4.6342    0.6582 C   0  0  0  0  0  0  0  0  0  0  0  0
   -8.7619   -3.3175   -0.8621 C   0  0  0  0  0  0  0  0  0  0  0  0
    0.5738   -0.2334   -1.8471 C   0  0  0  0  0  0  0  0  0  0  0  0
   -1.8269    0.2512   -2.4134 C   0  0  0  0  0  0  0  0  0  0  0  0
   -3.1468   -0.1447   -2.5799 C   0  0  0  0  0  0  0  0  0  0  0  0
   -3.4886   -1.4855   -2.4768 C   0  0  0  0  0  0  0  0  0  0  0  0
   -2.5000   -2.4267   -2.2181 C   0  0  0  0  0  0  0  0  0  0  0  0
   -1.1835   -2.0247   -2.0447 C   0  0  0  0  0  0  0  0  0  0  0  0
   -0.8309   -0.6808   -2.1329 C   0  0  0  0  0  0  0  0  0  0  0  0
   11.7082   -0.4499    0.5999 H   0  0  0  0  0  0  0  0  0  0  0  0
   11.6802   -1.0125    2.2872 H   0  0  0  0  0  0  0  0  0  0  0  0
   12.4993   -1.9744    1.0430 H   0  0  0  0  0  0  0  0  0  0  0  0
    9.9082    0.4202    1.7976 H   0  0  0  0  0  0  0  0  0  0  0  0
    7.6435    1.2811    1.9953 H   0  0  0  0  0  0  0  0  0  0  0  0
    6.0699   -2.4911    0.6658 H   0  0  0  0  0  0  0  0  0  0  0  0
    8.3512   -3.3669    0.4756 H   0  0  0  0  0  0  0  0  0  0  0  0
    4.7210    2.2486   -0.9136 H   0  0  0  0  0  0  0  0  0  0  0  0
    6.2407    1.6189   -0.3288 H   0  0  0  0  0  0  0  0  0  0  0  0
    4.8611    0.7030   -2.8747 H   0  0  0  0  0  0  0  0  0  0  0  0
    7.3771    2.3638   -2.4030 H   0  0  0  0  0  0  0  0  0  0  0  0
    6.7544    1.8491   -3.9690 H   0  0  0  0  0  0  0  0  0  0  0  0
    5.8325    2.9838   -2.9874 H   0  0  0  0  0  0  0  0  0  0  0  0
    7.5186   -0.1612   -1.6315 H   0  0  0  0  0  0  0  0  0  0  0  0
    6.1012   -1.1817   -1.8570 H   0  0  0  0  0  0  0  0  0  0  0  0
    6.9744   -0.5748   -3.2603 H   0  0  0  0  0  0  0  0  0  0  0  0
    3.3416   -0.1227   -1.6625 H   0  0  0  0  0  0  0  0  0  0  0  0
    3.1812   -1.1948   -0.3046 H   0  0  0  0  0  0  0  0  0  0  0  0
    2.2331    0.7288    1.0549 H   0  0  0  0  0  0  0  0  0  0  0  0
    2.2278    2.0469   -1.4327 H   0  0  0  0  0  0  0  0  0  0  0  0
    0.7916   -0.9493    0.1766 H   0  0  0  0  0  0  0  0  0  0  0  0
   -0.2815    1.7809   -0.0968 H   0  0  0  0  0  0  0  0  0  0  0  0
   -1.2790    2.9580    1.6218 H   0  0  0  0  0  0  0  0  0  0  0  0
   -3.1911    4.4437    1.8982 H   0  0  0  0  0  0  0  0  0  0  0  0
   -3.9186   -0.1858    0.4229 H   0  0  0  0  0  0  0  0  0  0  0  0
   -8.2295    3.8725    1.2882 H   0  0  0  0  0  0  0  0  0  0  0  0
   -7.4060    3.5340   -0.2306 H   0  0  0  0  0  0  0  0  0  0  0  0
   -7.3580    1.7293    2.2469 H   0  0  0  0  0  0  0  0  0  0  0  0
   -8.3330    1.4647    0.8054 H   0  0  0  0  0  0  0  0  0  0  0  0
   -6.3578    1.2841   -0.5968 H   0  0  0  0  0  0  0  0  0  0  0  0
   -6.2250   -0.5949    1.6745 H   0  0  0  0  0  0  0  0  0  0  0  0
   -5.3662   -3.9718   -1.2084 H   0  0  0  0  0  0  0  0  0  0  0  0
   -6.6899   -4.8574   -1.9583 H   0  0  0  0  0  0  0  0  0  0  0  0
   -6.4440   -3.1621   -2.3580 H   0  0  0  0  0  0  0  0  0  0  0  0
   -7.9300   -4.3909    1.5071 H   0  0  0  0  0  0  0  0  0  0  0  0
   -7.6447   -5.5703    0.2287 H   0  0  0  0  0  0  0  0  0  0  0  0
   -6.2757   -4.7991    1.0266 H   0  0  0  0  0  0  0  0  0  0  0  0
   -8.8368   -2.5860   -1.6634 H   0  0  0  0  0  0  0  0  0  0  0  0
   -9.1622   -4.2607   -1.2354 H   0  0  0  0  0  0  0  0  0  0  0  0
   -9.3964   -2.9955   -0.0344 H   0  0  0  0  0  0  0  0  0  0  0  0
    0.7820    0.6829   -2.4078 H   0  0  0  0  0  0  0  0  0  0  0  0
    1.2833   -0.9866   -2.1970 H   0  0  0  0  0  0  0  0  0  0  0  0
   -3.9108    0.5958   -2.7810 H   0  0  0  0  0  0  0  0  0  0  0  0
   -4.5193   -1.7907   -2.5979 H   0  0  0  0  0  0  0  0  0  0  0  0
   -2.7556   -3.4767   -2.1456 H   0  0  0  0  0  0  0  0  0  0  0  0
   -0.4200   -2.7639   -1.8309 H   0  0  0  0  0  0  0  0  0  0  0  0
   -1.5706    1.3011   -2.4961 H   0  0  0  0  0  0  0  0  0  0  0  0
 41 38  1  0
 39 38  1  0
 40 38  1  0
 38 37  1  1
 46 45  2  0
 46 47  1  0
 45 44  1  0
 37 35  1  0
 44 43  2  0
 47 48  2  0
 36 35  2  0
  2  3  1  0
  2  1  1  0
  4  5  1  0
  4  3  2  0
 35 34  1  0
 43 48  1  0
 48 42  1  0
  5  6  2  0
  3  8  1  0
 10  9  2  0
  8  7  2  0
  6  7  1  0
  6  9  1  0
 42 20  1  0
 34 33  1  0
  9 11  2  0
  9 12  1  6
 20 21  1  0
 20 18  1  0
 33 32  1  0
 33 28  1  0
 12 17  1  0
 12 13  1  0
 17 18  1  0
 32 31  1  0
 29 28  2  0
 29 24  1  0
 21 22  1  0
 18 19  1  0
 23 22  2  0
 22 24  1  0
 28 27  1  0
 24 25  2  0
 13 14  1  0
 31 30  1  0
 27 30  1  0
 27 26  2  0
 15 14  1  0
 25 26  1  0
 14 16  1  0
  1 49  1  0
  1 50  1  0
  1 51  1  0
  4 52  1  0
  5 53  1  0
  7 54  1  0
  8 55  1  0
 13 56  1  0
 13 57  1  0
 14 58  1  6
 15 59  1  0
 15 60  1  0
 15 61  1  0
 16 62  1  0
 16 63  1  0
 16 64  1  0
 17 65  1  0
 17 66  1  0
 18 67  1  1
 19 68  1  0
 20 69  1  1
 21 70  1  0
 25 71  1  0
 26 72  1  0
 29 73  1  0
 31 74  1  0
 31 75  1  0
 32 76  1  0
 32 77  1  0
 33 78  1  6
 34 79  1  0
 39 80  1  0
 39 81  1  0
 39 82  1  0
 40 83  1  0
 40 84  1  0
 40 85  1  0
 41 86  1  0
 41 87  1  0
 41 88  1  0
 42 89  1  0
 42 90  1  0
 43 95  1  0
 44 91  1  0
 45 92  1  0
 46 93  1  0
 47 94  1  0
M  END
