
     RDKit          3D

 22 22  0  0  0  0  0  0  0  0999 V2000
    3.0547    0.0625   -0.4848 O   0  0  0  0  0  0  0  0  0  0  0  0
    1.6630    0.2048    0.3088 P   0  0  1  0  0  0  0  0  0  0  0  0
    1.6286   -0.3794    1.6715 O   0  0  0  0  0  0  0  0  0  0  0  0
    1.3347    1.7774    0.3885 O   0  0  0  0  0  0  0  0  0  0  0  0
    0.5009   -0.5702   -0.8781 C   0  0  1  0  0  0  0  0  0  0  0  0
    0.7472   -1.9952   -1.0139 N   0  0  0  0  0  0  0  0  0  0  0  0
   -0.9070   -0.2586   -0.4342 C   0  0  0  0  0  0  0  0  0  0  0  0
   -1.5565   -1.0469    0.5123 C   0  0  0  0  0  0  0  0  0  0  0  0
   -2.8448   -0.7345    0.9242 C   0  0  0  0  0  0  0  0  0  0  0  0
   -3.4989    0.3731    0.4012 C   0  0  0  0  0  0  0  0  0  0  0  0
   -2.8567    1.1664   -0.5399 C   0  0  0  0  0  0  0  0  0  0  0  0
   -1.5690    0.8515   -0.9509 C   0  0  0  0  0  0  0  0  0  0  0  0
    3.8400    0.1915    0.0648 H   0  0  0  0  0  0  0  0  0  0  0  0
    1.4493    2.2755   -0.4310 H   0  0  0  0  0  0  0  0  0  0  0  0
    0.6652   -0.1086   -1.8558 H   0  0  0  0  0  0  0  0  0  0  0  0
    1.6112   -2.1536   -1.5157 H   0  0  0  0  0  0  0  0  0  0  0  0
    0.8587   -2.4405   -0.1116 H   0  0  0  0  0  0  0  0  0  0  0  0
   -1.0705   -1.9177    0.9325 H   0  0  0  0  0  0  0  0  0  0  0  0
   -3.3392   -1.3592    1.6569 H   0  0  0  0  0  0  0  0  0  0  0  0
   -4.5041    0.6130    0.7221 H   0  0  0  0  0  0  0  0  0  0  0  0
   -3.3596    2.0281   -0.9595 H   0  0  0  0  0  0  0  0  0  0  0  0
   -1.0804    1.4728   -1.6928 H   0  0  0  0  0  0  0  0  0  0  0  0
  3  2  2  0
  9  8  1  0
  9 10  2  0
  8  7  2  0
 10 11  1  0
  2  1  1  6
  2  4  1  0
  2  5  1  0
  7  5  1  0
  7 12  1  0
 11 12  2  0
  5  6  1  0
  1 13  1  0
  4 14  1  0
  5 15  1  6
  6 16  1  0
  6 17  1  0
  8 18  1  0
  9 19  1  0
 10 20  1  0
 11 21  1  0
 12 22  1  0
M  END
