
     RDKit          3D

 15 15  0  0  0  0  0  0  0  0999 V2000
    0.6560   -2.1469   -4.0887 C   0  0  0  0  0  0  0  0  0  0  0  0
    0.4444   -1.7062   -2.7280 C   0  0  0  0  0  0  0  0  0  0  0  0
   -0.1447   -2.5703   -1.8669 O   0  0  0  0  0  0  0  0  0  0  0  0
   -0.2489   -1.9561   -0.6820 C   0  0  0  0  0  0  0  0  0  0  0  0
    0.2698   -0.6971   -0.7585 C   0  0  0  0  0  0  0  0  0  0  0  0
    0.7233   -0.5341   -2.0873 C   0  0  0  0  0  0  0  0  0  0  0  0
   -0.8519   -2.7139    0.4424 C   0  0  0  0  0  0  0  0  0  0  0  0
   -2.1675   -3.0770    0.0944 O   0  0  0  0  0  0  0  0  0  0  0  0
    1.1827   -1.4579   -4.9360 O   0  0  0  0  0  0  0  0  0  0  0  0
    0.3013   -3.1678   -4.3070 H   0  0  0  0  0  0  0  0  0  0  0  0
    0.3132    0.0216    0.0433 H   0  0  0  0  0  0  0  0  0  0  0  0
    1.1909    0.3352   -2.5203 H   0  0  0  0  0  0  0  0  0  0  0  0
   -0.2326   -3.5937    0.6573 H   0  0  0  0  0  0  0  0  0  0  0  0
   -0.8120   -2.0749    1.3313 H   0  0  0  0  0  0  0  0  0  0  0  0
   -2.4639   -3.7448    0.7200 H   0  0  0  0  0  0  0  0  0  0  0  0
  1  2  1  0
  1  9  2  0
  1 10  1  0
  2  3  1  0
  2  6  2  0
  3  4  1  0
  4  5  2  0
  4  7  1  0
  5  6  1  0
  5 11  1  0
  6 12  1  0
  7  8  1  0
  7 13  1  0
  7 14  1  0
  8 15  1  0
M  END
