
     RDKit          3D

 74 76  0  0  0  0  0  0  0  0999 V2000
   -5.6662    2.3525   -2.8958 F   0  0  0  0  0  0  0  0  0  0  0  0
   -4.7183    2.8828   -2.1222 C   0  0  1  0  0  0  0  0  0  0  0  0
   -3.5413    2.5607   -2.6741 F   0  0  0  0  0  0  0  0  0  0  0  0
   -4.8376    4.2135   -2.1938 F   0  0  0  0  0  0  0  0  0  0  0  0
   -4.7853    2.4058   -0.6787 C   0  0  2  0  0  0  0  0  0  0  0  0
   -4.7653    0.9959   -0.7586 O   0  0  0  0  0  0  0  0  0  0  0  0
   -4.1971    0.3267    0.2923 C   0  0  0  0  0  0  0  0  0  0  0  0
   -5.0541   -0.3969    1.1320 C   0  0  0  0  0  0  0  0  0  0  0  0
   -4.4259   -1.1242    2.1403 C   0  0  0  0  0  0  0  0  0  0  0  0
   -3.0626   -1.1411    2.3347 C   0  0  0  0  0  0  0  0  0  0  0  0
   -2.2331   -0.3982    1.5003 C   0  0  0  0  0  0  0  0  0  0  0  0
   -2.8242    0.3346    0.4765 C   0  0  0  0  0  0  0  0  0  0  0  0
   -0.7402   -0.4133    1.6833 C   0  0  0  0  0  0  0  0  0  0  0  0
    0.0227   -0.9593    0.4652 C   0  0  1  0  0  0  0  0  0  0  0  0
    1.5262   -0.9989    0.7316 C   0  0  1  0  0  0  0  0  0  0  0  0
    2.3221   -1.4513   -0.5011 C   0  0  2  0  0  0  0  0  0  0  0  0
    1.9637   -2.8738   -0.9115 C   0  0  0  0  0  0  0  0  0  0  0  0
    0.2290   -3.0024   -1.4272 S   0  0  0  0  0  0  0  0  0  0  0  0
   -0.4859   -2.3482    0.1061 C   0  0  0  0  0  0  0  0  0  0  0  0
    0.0218   -1.9451   -2.4904 O   0  0  0  0  0  0  0  0  0  0  0  0
    3.7334   -1.2607   -0.2163 N   0  0  0  0  0  0  0  0  0  0  0  0
    4.5913   -1.1261   -1.3811 C   0  0  0  0  0  0  0  0  0  0  0  0
    6.0025   -0.7765   -0.9856 C   0  0  0  0  0  0  0  0  0  0  0  0
    6.2475    0.2420   -0.0715 C   0  0  0  0  0  0  0  0  0  0  0  0
    7.5390    0.6059    0.3105 C   0  0  0  0  0  0  0  0  0  0  0  0
    8.6022   -0.0881   -0.2650 C   0  0  0  0  0  0  0  0  0  0  0  0
    8.3753   -1.1088   -1.1795 C   0  0  0  0  0  0  0  0  0  0  0  0
    7.0825   -1.4583   -1.5371 C   0  0  0  0  0  0  0  0  0  0  0  0
    7.7329    1.7218    1.3327 C   0  0  1  0  0  0  0  0  0  0  0  0
    7.1049    3.0167    0.7997 C   0  0  0  0  0  0  0  0  0  0  0  0
    7.0482    1.3242    2.6479 C   0  0  0  0  0  0  0  0  0  0  0  0
    9.2086    1.9928    1.6251 C   0  0  0  0  0  0  0  0  0  0  0  0
    1.9729    0.2733    1.1177 O   0  0  0  0  0  0  0  0  0  0  0  0
   -5.2144   -1.8466    2.9621 F   0  0  0  0  0  0  0  0  0  0  0  0
   -6.4253   -0.3551    1.0070 N   0  0  0  0  0  0  0  0  0  0  0  0
   -5.9843    2.9186    0.0969 C   0  0  0  0  0  0  0  0  0  0  0  0
   -7.1678    2.4649   -0.4903 O   0  0  0  0  0  0  0  0  0  0  0  0
   -8.3016    2.7605    0.2890 C   0  0  0  0  0  0  0  0  0  0  0  0
   -3.8886    2.7900   -0.1757 H   0  0  0  0  0  0  0  0  0  0  0  0
   -2.6490   -1.7344    3.1412 H   0  0  0  0  0  0  0  0  0  0  0  0
   -2.2088    0.9051   -0.2105 H   0  0  0  0  0  0  0  0  0  0  0  0
   -0.3891    0.5999    1.8884 H   0  0  0  0  0  0  0  0  0  0  0  0
   -0.4906   -1.0143    2.5626 H   0  0  0  0  0  0  0  0  0  0  0  0
   -0.1575   -0.2939   -0.3865 H   0  0  0  0  0  0  0  0  0  0  0  0
    1.7040   -1.7371    1.5363 H   0  0  0  0  0  0  0  0  0  0  0  0
    2.0728   -0.7798   -1.3298 H   0  0  0  0  0  0  0  0  0  0  0  0
    2.5538   -3.2118   -1.7654 H   0  0  0  0  0  0  0  0  0  0  0  0
    2.1095   -3.5897   -0.0977 H   0  0  0  0  0  0  0  0  0  0  0  0
   -0.2729   -3.0809    0.8899 H   0  0  0  0  0  0  0  0  0  0  0  0
   -1.5644   -2.3491   -0.0599 H   0  0  0  0  0  0  0  0  0  0  0  0
    4.0815   -1.9965    0.3887 H   0  0  0  0  0  0  0  0  0  0  0  0
    4.6100   -2.0240   -2.0128 H   0  0  0  0  0  0  0  0  0  0  0  0
    4.1761   -0.3267   -2.0016 H   0  0  0  0  0  0  0  0  0  0  0  0
    5.3962    0.7605    0.3540 H   0  0  0  0  0  0  0  0  0  0  0  0
    9.6230    0.1557   -0.0043 H   0  0  0  0  0  0  0  0  0  0  0  0
    9.2159   -1.6405   -1.6073 H   0  0  0  0  0  0  0  0  0  0  0  0
    6.9128   -2.2625   -2.2433 H   0  0  0  0  0  0  0  0  0  0  0  0
    6.0403    2.9021    0.5924 H   0  0  0  0  0  0  0  0  0  0  0  0
    7.2131    3.8193    1.5322 H   0  0  0  0  0  0  0  0  0  0  0  0
    7.5930    3.3359   -0.1227 H   0  0  0  0  0  0  0  0  0  0  0  0
    7.4896    0.4155    3.0615 H   0  0  0  0  0  0  0  0  0  0  0  0
    7.1592    2.1189    3.3883 H   0  0  0  0  0  0  0  0  0  0  0  0
    5.9803    1.1452    2.5172 H   0  0  0  0  0  0  0  0  0  0  0  0
    9.7508    2.3131    0.7332 H   0  0  0  0  0  0  0  0  0  0  0  0
    9.2962    2.7917    2.3633 H   0  0  0  0  0  0  0  0  0  0  0  0
    9.7158    1.1162    2.0320 H   0  0  0  0  0  0  0  0  0  0  0  0
    2.9255    0.2553    0.9304 H   0  0  0  0  0  0  0  0  0  0  0  0
   -6.7618   -0.0056    0.1243 H   0  0  0  0  0  0  0  0  0  0  0  0
   -6.9202   -1.1832    1.2968 H   0  0  0  0  0  0  0  0  0  0  0  0
   -5.8869    2.5620    1.1324 H   0  0  0  0  0  0  0  0  0  0  0  0
   -5.9429    4.0150    0.1493 H   0  0  0  0  0  0  0  0  0  0  0  0
   -8.2302    2.3187    1.2892 H   0  0  0  0  0  0  0  0  0  0  0  0
   -8.4513    3.8402    0.4018 H   0  0  0  0  0  0  0  0  0  0  0  0
   -9.1709    2.3415   -0.2150 H   0  0  0  0  0  0  0  0  0  0  0  0
  2  1  1  6
  3  2  1  0
  2  4  1  0
  2  5  1  0
 33 15  1  0
 21 22  1  0
 21 16  1  0
 15 16  1  0
 15 14  1  0
  5  6  1  0
  5 36  1  0
 13 14  1  0
 13 11  1  0
 22 23  1  0
 12 11  1  0
 12  7  2  0
 16 17  1  0
 14 19  1  0
  6  7  1  0
 18 17  1  1
 19 18  1  0
 36 37  1  0
 11 10  2  0
  7  8  1  0
 29 30  1  6
 24 23  2  0
 24 25  1  0
 23 28  1  0
 18 20  2  0
 32 29  1  0
 37 38  1  0
 10  9  1  0
 29 25  1  0
 29 31  1  0
  8  9  2  0
  8 35  1  0
 25 26  2  0
 28 27  2  0
  9 34  1  0
 26 27  1  0
  5 39  1  1
 10 40  1  0
 12 41  1  0
 13 42  1  0
 13 43  1  0
 14 44  1  6
 15 45  1  1
 16 46  1  6
 17 47  1  0
 17 48  1  0
 19 49  1  0
 19 50  1  0
 21 51  1  0
 22 52  1  0
 22 53  1  0
 24 54  1  0
 26 55  1  0
 27 56  1  0
 28 57  1  0
 30 58  1  0
 30 59  1  0
 30 60  1  0
 31 61  1  0
 31 62  1  0
 31 63  1  0
 32 64  1  0
 32 65  1  0
 32 66  1  0
 33 67  1  0
 35 68  1  0
 35 69  1  0
 36 70  1  0
 36 71  1  0
 38 72  1  0
 38 73  1  0
 38 74  1  0
M  END
