
     RDKit          3D

 22 22  0  0  0  0  0  0  0  0999 V2000
   -2.0988    0.2413    0.2835 C   0  0  0  0  0  0  0  0  0  0  0  0
   -0.6336    0.0214    0.1213 C   0  0  0  0  0  0  0  0  0  0  0  0
    0.2213    1.1039    0.3053 C   0  0  0  0  0  0  0  0  0  0  0  0
    1.5927    0.9523    0.1734 C   0  0  0  0  0  0  0  0  0  0  0  0
    2.1467   -0.2894   -0.1242 C   0  0  0  0  0  0  0  0  0  0  0  0
    3.6324   -0.4848   -0.2914 C   0  0  0  0  0  0  0  0  0  0  0  0
    1.2882   -1.3760   -0.2814 C   0  0  0  0  0  0  0  0  0  0  0  0
   -0.0835   -1.2273   -0.1676 C   0  0  0  0  0  0  0  0  0  0  0  0
    4.4090    0.6061    0.2628 N   0  0  0  0  0  0  0  0  0  0  0  0
   -2.8687   -0.6244   -0.4160 N   0  0  0  0  0  0  0  0  0  0  0  0
   -2.5542    1.1131    1.0014 O   0  0  0  0  0  0  0  0  0  0  0  0
   -4.2151   -0.4128   -0.4590 O   0  0  0  0  0  0  0  0  0  0  0  0
   -0.1866    2.0770    0.5459 H   0  0  0  0  0  0  0  0  0  0  0  0
    2.2429    1.8059    0.3089 H   0  0  0  0  0  0  0  0  0  0  0  0
    3.8961   -1.4709    0.1146 H   0  0  0  0  0  0  0  0  0  0  0  0
    3.8458   -0.5424   -1.3631 H   0  0  0  0  0  0  0  0  0  0  0  0
    1.6974   -2.3578   -0.4888 H   0  0  0  0  0  0  0  0  0  0  0  0
   -0.7138   -2.1010   -0.2749 H   0  0  0  0  0  0  0  0  0  0  0  0
    4.3885    0.5602    1.2739 H   0  0  0  0  0  0  0  0  0  0  0  0
   -2.5068   -1.1070   -1.2269 H   0  0  0  0  0  0  0  0  0  0  0  0
   -4.6044   -1.0717    0.1298 H   0  0  0  0  0  0  0  0  0  0  0  0
    5.3782    0.4935   -0.0026 H   0  0  0  0  0  0  0  0  0  0  0  0
  1 10  1  0
  1  2  1  0
  1 11  2  0
  2  3  2  0
  2  8  1  0
  3  4  1  0
  4  5  2  0
  5  6  1  0
  5  7  1  0
  6  9  1  0
  7  8  2  0
 10 12  1  0
  3 13  1  0
  4 14  1  0
  6 15  1  0
  6 16  1  0
  7 17  1  0
  8 18  1  0
  9 19  1  0
 10 20  1  0
 12 21  1  0
  9 22  1  0
M  END
