
     RDKit          3D

 78 80  0  0  0  0  0  0  0  0999 V2000
    5.8775    2.8185   -0.8041 C   0  0  0  0  0  0  0  0  0  0  0  0
    6.3361    3.6671   -1.8003 C   0  0  0  0  0  0  0  0  0  0  0  0
    7.6184    4.2002   -1.7293 C   0  0  0  0  0  0  0  0  0  0  0  0
    8.4373    3.8787   -0.6568 C   0  0  0  0  0  0  0  0  0  0  0  0
    7.9763    3.0248    0.3383 C   0  0  0  0  0  0  0  0  0  0  0  0
    6.6956    2.4896    0.2742 C   0  0  0  0  0  0  0  0  0  0  0  0
    6.1969    1.5752    1.3660 C   0  0  0  0  0  0  0  0  0  0  0  0
    5.6975    0.3191    0.8486 N   0  0  0  0  0  0  0  0  0  0  0  0
    4.3963   -0.0279    0.7452 C   0  0  0  0  0  0  0  0  0  0  0  0
    6.4737   -0.6671    0.2823 C   0  0  0  0  0  0  0  0  0  0  0  0
    6.1681   -2.8057   -0.8038 C   0  0  0  0  0  0  0  0  0  0  0  0
    5.6144   -1.6779   -0.1897 C   0  0  0  0  0  0  0  0  0  0  0  0
    4.2798   -1.2472    0.1186 C   0  0  0  0  0  0  0  0  0  0  0  0
    7.8584   -0.7426    0.1615 C   0  0  0  0  0  0  0  0  0  0  0  0
    8.3794   -1.8677   -0.4487 C   0  0  0  0  0  0  0  0  0  0  0  0
    7.5422   -2.8869   -0.9256 C   0  0  0  0  0  0  0  0  0  0  0  0
    3.0454   -1.9365   -0.2093 C   0  0  0  0  0  0  0  0  0  0  0  0
    2.9856   -2.9619   -0.8529 O   0  0  0  0  0  0  0  0  0  0  0  0
    1.9739   -1.3076    0.2669 O   0  0  0  0  0  0  0  0  0  0  0  0
    0.6829   -1.7897   -0.1130 C   0  0  0  0  0  0  0  0  0  0  0  0
   -0.3806   -0.9166    0.5328 C   0  0  1  0  0  0  0  0  0  0  0  0
   -0.2148    0.5524    0.1543 C   0  0  0  0  0  0  0  0  0  0  0  0
   -1.7435   -1.4649    0.0994 C   0  0  0  0  0  0  0  0  0  0  0  0
   -2.9523   -0.7815    0.7485 C   0  0  2  0  0  0  0  0  0  0  0  0
   -2.9613   -0.8435    2.2029 N   0  0  0  0  0  0  0  0  0  0  0  0
   -4.2718   -1.3694    0.2166 C   0  0  2  0  0  0  0  0  0  0  0  0
   -4.2839   -1.4282   -1.1957 O   0  0  0  0  0  0  0  0  0  0  0  0
   -5.4823   -0.6057    0.7499 C   0  0  0  0  0  0  0  0  0  0  0  0
   -6.8280   -1.1287    0.2298 C   0  0  1  0  0  0  0  0  0  0  0  0
   -7.1401   -2.5401    0.7150 C   0  0  0  0  0  0  0  0  0  0  0  0
   -7.9180   -0.1687    0.6760 C   0  0  0  0  0  0  0  0  0  0  0  0
   -8.3140   -0.1321    1.8349 O   0  0  0  0  0  0  0  0  0  0  0  0
   -8.3774    0.6518   -0.2827 N   0  0  0  0  0  0  0  0  0  0  0  0
   -9.4177    1.6371   -0.0918 C   0  0  0  0  0  0  0  0  0  0  0  0
  -10.7941    1.1404   -0.5180 C   0  0  0  0  0  0  0  0  0  0  0  0
  -11.8623    2.2194   -0.3938 C   0  0  0  0  0  0  0  0  0  0  0  0
  -13.2353    1.7409   -0.8441 C   0  0  0  0  0  0  0  0  0  0  0  0
    4.8747    2.4129   -0.8722 H   0  0  0  0  0  0  0  0  0  0  0  0
    5.6901    3.9167   -2.6320 H   0  0  0  0  0  0  0  0  0  0  0  0
    7.9759    4.8605   -2.5087 H   0  0  0  0  0  0  0  0  0  0  0  0
    9.4380    4.2857   -0.5944 H   0  0  0  0  0  0  0  0  0  0  0  0
    8.6238    2.7691    1.1690 H   0  0  0  0  0  0  0  0  0  0  0  0
    6.9919    1.3754    2.0869 H   0  0  0  0  0  0  0  0  0  0  0  0
    5.3829    2.0452    1.9190 H   0  0  0  0  0  0  0  0  0  0  0  0
    3.6262    0.6253    1.1260 H   0  0  0  0  0  0  0  0  0  0  0  0
    8.5076    0.0424    0.5271 H   0  0  0  0  0  0  0  0  0  0  0  0
    5.5373   -3.5997   -1.1776 H   0  0  0  0  0  0  0  0  0  0  0  0
    7.9843   -3.7543   -1.3980 H   0  0  0  0  0  0  0  0  0  0  0  0
    9.4514   -1.9630   -0.5612 H   0  0  0  0  0  0  0  0  0  0  0  0
    0.5859   -1.7580   -1.2033 H   0  0  0  0  0  0  0  0  0  0  0  0
    0.5614   -2.8288    0.2042 H   0  0  0  0  0  0  0  0  0  0  0  0
   -0.2808   -1.0209    1.6198 H   0  0  0  0  0  0  0  0  0  0  0  0
   -0.3419    0.6904   -0.9223 H   0  0  0  0  0  0  0  0  0  0  0  0
   -0.9528    1.1798    0.6547 H   0  0  0  0  0  0  0  0  0  0  0  0
    0.7672    0.9371    0.4281 H   0  0  0  0  0  0  0  0  0  0  0  0
   -1.8165   -1.3802   -0.9883 H   0  0  0  0  0  0  0  0  0  0  0  0
   -1.7913   -2.5374    0.3270 H   0  0  0  0  0  0  0  0  0  0  0  0
   -2.9450    0.2821    0.4781 H   0  0  0  0  0  0  0  0  0  0  0  0
   -2.8103   -1.7995    2.5070 H   0  0  0  0  0  0  0  0  0  0  0  0
   -2.1893   -0.3089    2.5801 H   0  0  0  0  0  0  0  0  0  0  0  0
   -4.2765   -0.5259   -1.5339 H   0  0  0  0  0  0  0  0  0  0  0  0
   -5.4699   -0.6376    1.8400 H   0  0  0  0  0  0  0  0  0  0  0  0
   -5.3722    0.4505    0.4717 H   0  0  0  0  0  0  0  0  0  0  0  0
   -6.7947   -1.1384   -0.8630 H   0  0  0  0  0  0  0  0  0  0  0  0
   -8.1087   -2.8801    0.3460 H   0  0  0  0  0  0  0  0  0  0  0  0
   -6.3925   -3.2485    0.3590 H   0  0  0  0  0  0  0  0  0  0  0  0
   -7.1571   -2.5903    1.8039 H   0  0  0  0  0  0  0  0  0  0  0  0
   -8.0321    0.5260   -1.2200 H   0  0  0  0  0  0  0  0  0  0  0  0
   -9.4292    1.9339    0.9568 H   0  0  0  0  0  0  0  0  0  0  0  0
   -9.1496    2.5247   -0.6695 H   0  0  0  0  0  0  0  0  0  0  0  0
  -10.7448    0.7926   -1.5547 H   0  0  0  0  0  0  0  0  0  0  0  0
  -11.0710    0.2724    0.0883 H   0  0  0  0  0  0  0  0  0  0  0  0
  -11.9155    2.5612    0.6442 H   0  0  0  0  0  0  0  0  0  0  0  0
  -11.5649    3.0913   -0.9846 H   0  0  0  0  0  0  0  0  0  0  0  0
  -13.2204    1.4273   -1.8894 H   0  0  0  0  0  0  0  0  0  0  0  0
  -13.5701    0.8885   -0.2503 H   0  0  0  0  0  0  0  0  0  0  0  0
  -13.9847    2.5266   -0.7449 H   0  0  0  0  0  0  0  0  0  0  0  0
   -4.3299   -2.4139    0.5457 H   0  0  0  0  0  0  0  0  0  0  0  0
  1 38  1  0
  1  2  2  0
  1  6  1  0
  2 39  1  0
  2  3  1  0
  3 40  1  0
  3  4  2  0
  4 41  1  0
  4  5  1  0
  5 42  1  0
  5  6  2  0
  6  7  1  0
  7 43  1  0
  7 44  1  0
  7  8  1  0
  8  9  1  0
  8 10  1  0
  9 45  1  0
  9 13  2  0
 10 12  2  0
 10 14  1  0
 11 47  1  0
 11 12  1  0
 11 16  2  0
 12 13  1  0
 13 17  1  0
 14 46  1  0
 14 15  2  0
 15 49  1  0
 15 16  1  0
 16 48  1  0
 17 18  2  0
 17 19  1  0
 19 20  1  0
 20 50  1  0
 20 51  1  0
 20 21  1  0
 21 52  1  1
 21 22  1  0
 21 23  1  0
 22 53  1  0
 22 54  1  0
 22 55  1  0
 23 56  1  0
 23 57  1  0
 23 24  1  0
 24 58  1  1
 24 25  1  0
 24 26  1  0
 25 59  1  0
 25 60  1  0
 26 78  1  1
 26 27  1  0
 26 28  1  0
 27 61  1  0
 28 62  1  0
 28 63  1  0
 28 29  1  0
 29 30  1  0
 29 31  1  0
 29 64  1  6
 30 65  1  0
 30 66  1  0
 30 67  1  0
 31 32  2  0
 31 33  1  0
 33 34  1  0
 33 68  1  0
 34 35  1  0
 34 69  1  0
 34 70  1  0
 35 36  1  0
 35 71  1  0
 35 72  1  0
 36 37  1  0
 36 73  1  0
 36 74  1  0
 37 75  1  0
 37 76  1  0
 37 77  1  0
M  END
