
     RDKit          3D

 15 14  0  0  0  0  0  0  0  0999 V2000
    0.5829    1.6622   -0.3539 N   0  0  0  0  0  0  0  0  0  0  0  0
    0.2854    0.2528   -0.3959 C   0  0  2  0  0  0  0  0  0  0  0  0
   -1.1492   -0.0838   -0.0072 C   0  0  0  0  0  0  0  0  0  0  0  0
   -1.9000    0.5330    0.7551 O   0  0  0  0  0  0  0  0  0  0  0  0
    1.2182   -0.5811    0.5257 C   0  0  0  0  0  0  0  0  0  0  0  0
    2.5432   -0.7356   -0.0165 N   0  0  0  0  0  0  0  0  0  0  0  0
   -1.6441   -1.2099   -0.5849 O   0  0  0  0  0  0  0  0  0  0  0  0
   -0.0158    2.1713   -0.9739 H   0  0  0  0  0  0  0  0  0  0  0  0
    0.4838    2.0271    0.5740 H   0  0  0  0  0  0  0  0  0  0  0  0
    0.4230   -0.1032   -1.4627 H   0  0  0  0  0  0  0  0  0  0  0  0
    1.2103   -0.1110    1.5533 H   0  0  0  0  0  0  0  0  0  0  0  0
    0.7640   -1.6106    0.6178 H   0  0  0  0  0  0  0  0  0  0  0  0
    2.9157    0.1321   -0.3459 H   0  0  0  0  0  0  0  0  0  0  0  0
    3.1550   -1.1205    0.6746 H   0  0  0  0  0  0  0  0  0  0  0  0
   -2.5584   -1.3557   -0.2887 H   0  0  0  0  0  0  0  0  0  0  0  0
  1  2  1  0
  1  8  1  0
  1  9  1  0
  2  3  1  0
  2  5  1  0
  2 10  1  6
  3  4  2  0
  3  7  1  0
  5  6  1  0
  5 11  1  0
  5 12  1  0
  6 13  1  0
  6 14  1  0
  7 15  1  0
M  END
