
     RDKit          3D

 54 58  0  0  0  0  0  0  0  0999 V2000
   -3.4483    3.7790    1.5934 C   0  0  0  0  0  0  0  0  0  0  0  0
   -2.5165    2.8791    2.0899 C   0  0  0  0  0  0  0  0  0  0  0  0
   -2.4512    1.5886    1.5914 C   0  0  0  0  0  0  0  0  0  0  0  0
   -3.3204    1.2174    0.5773 C   0  0  0  0  0  0  0  0  0  0  0  0
   -4.2629    2.0998    0.0795 C   0  0  0  0  0  0  0  0  0  0  0  0
   -4.3360    3.3906    0.5927 C   0  0  0  0  0  0  0  0  0  0  0  0
   -5.3827    4.3218    0.0804 C   0  0  0  0  0  0  0  0  0  0  0  0
   -6.5633    3.9625   -0.2505 N   0  0  0  0  0  0  0  0  0  0  0  0
   -5.0115    5.6299    0.0326 N   0  0  0  0  0  0  0  0  0  0  0  0
   -3.2847   -0.1032    0.0598 N   0  0  0  0  0  0  0  0  0  0  0  0
   -4.4049   -0.8014    0.0153 N   0  0  0  0  0  0  0  0  0  0  0  0
    0.1278   -1.1657   -0.3506 N   0  0  0  0  0  0  0  0  0  0  0  0
    1.4930   -0.9047   -0.5094 C   0  0  0  0  0  0  0  0  0  0  0  0
    2.3910   -1.4260    0.4163 C   0  0  0  0  0  0  0  0  0  0  0  0
    3.7521   -1.2482    0.3167 C   0  0  0  0  0  0  0  0  0  0  0  0
    4.2446   -0.4842   -0.7337 C   0  0  0  0  0  0  0  0  0  0  0  0
    5.6309   -0.2777   -0.8571 N   0  0  0  0  0  0  0  0  0  0  0  0
    3.3751    0.0607   -1.6687 C   0  0  0  0  0  0  0  0  0  0  0  0
    2.0124   -0.1645   -1.5663 C   0  0  0  0  0  0  0  0  0  0  0  0
    6.5101    0.1460    0.1182 C   0  0  0  0  0  0  0  0  0  0  0  0
    6.3725   -0.4662   -1.9890 C   0  0  0  0  0  0  0  0  0  0  0  0
    7.7599    0.1817   -0.5187 C   0  0  0  0  0  0  0  0  0  0  0  0
    7.6339   -0.2096   -1.8334 N   0  0  0  0  0  0  0  0  0  0  0  0
   -2.2147   -0.8281   -0.3578 C   0  0  0  0  0  0  0  0  0  0  0  0
   -2.6898   -2.0734   -0.6937 C   0  0  0  0  0  0  0  0  0  0  0  0
   -0.8598   -0.2571   -0.5447 C   0  0  0  0  0  0  0  0  0  0  0  0
   -4.0640   -1.9860   -0.4452 C   0  0  0  0  0  0  0  0  0  0  0  0
   -0.6861    0.8997   -0.8637 O   0  0  0  0  0  0  0  0  0  0  0  0
   -5.0799   -3.0582   -0.6136 C   0  0  1  0  0  0  0  0  0  0  0  0
   -6.3192   -2.5730   -0.6283 F   0  0  0  0  0  0  0  0  0  0  0  0
   -4.8832   -3.7272   -1.7551 F   0  0  0  0  0  0  0  0  0  0  0  0
   -5.0140   -3.9594    0.3758 F   0  0  0  0  0  0  0  0  0  0  0  0
    8.8904    0.5874    0.1893 C   0  0  0  0  0  0  0  0  0  0  0  0
    8.7286    0.9529    1.5132 C   0  0  0  0  0  0  0  0  0  0  0  0
    7.4681    0.9256    2.1289 C   0  0  0  0  0  0  0  0  0  0  0  0
    6.3338    0.5243    1.4443 C   0  0  0  0  0  0  0  0  0  0  0  0
    1.9056   -2.1516    1.4310 F   0  0  0  0  0  0  0  0  0  0  0  0
   -3.4983    4.7772    2.0076 H   0  0  0  0  0  0  0  0  0  0  0  0
   -1.8478    3.1790    2.8850 H   0  0  0  0  0  0  0  0  0  0  0  0
   -1.7438    0.8820    2.0051 H   0  0  0  0  0  0  0  0  0  0  0  0
   -4.9218    1.7852   -0.7198 H   0  0  0  0  0  0  0  0  0  0  0  0
   -6.7076    2.9789   -0.0549 H   0  0  0  0  0  0  0  0  0  0  0  0
   -5.6591    6.2636   -0.4085 H   0  0  0  0  0  0  0  0  0  0  0  0
   -4.0417    5.8520   -0.1177 H   0  0  0  0  0  0  0  0  0  0  0  0
   -0.1283   -2.0527    0.0577 H   0  0  0  0  0  0  0  0  0  0  0  0
    4.4083   -1.7105    1.0424 H   0  0  0  0  0  0  0  0  0  0  0  0
    3.7561    0.6608   -2.4842 H   0  0  0  0  0  0  0  0  0  0  0  0
    1.3556    0.2455   -2.3186 H   0  0  0  0  0  0  0  0  0  0  0  0
    5.9121   -0.8155   -2.9019 H   0  0  0  0  0  0  0  0  0  0  0  0
   -2.1333   -2.9034   -1.0978 H   0  0  0  0  0  0  0  0  0  0  0  0
    9.8615    0.6163   -0.2878 H   0  0  0  0  0  0  0  0  0  0  0  0
    9.5892    1.2703    2.0873 H   0  0  0  0  0  0  0  0  0  0  0  0
    7.3781    1.2265    3.1643 H   0  0  0  0  0  0  0  0  0  0  0  0
    5.3645    0.5161    1.9250 H   0  0  0  0  0  0  0  0  0  0  0  0
  1  2  2  0
  1  6  1  0
  1 38  1  0
  2  3  1  0
  2 39  1  0
  3  4  2  0
  3 40  1  0
  4  5  1  0
  4 10  1  0
  5  6  2  0
  5 41  1  0
  6  7  1  0
  7  8  2  0
  7  9  1  0
  8 42  1  0
  9 43  1  0
  9 44  1  0
 10 11  1  0
 10 24  1  0
 11 27  2  0
 12 13  1  0
 12 26  1  0
 12 45  1  0
 13 14  2  0
 13 19  1  0
 14 15  1  0
 14 37  1  0
 15 16  2  0
 15 46  1  0
 16 17  1  0
 16 18  1  0
 17 20  1  0
 17 21  1  0
 18 19  2  0
 18 47  1  0
 19 48  1  0
 20 22  2  0
 20 36  1  0
 21 23  2  0
 21 49  1  0
 22 23  1  0
 22 33  1  0
 24 25  2  0
 24 26  1  0
 25 27  1  0
 25 50  1  0
 26 28  2  0
 27 29  1  0
 29 30  1  6
 29 31  1  0
 29 32  1  0
 33 34  2  0
 33 51  1  0
 34 35  1  0
 34 52  1  0
 35 36  2  0
 35 53  1  0
 36 54  1  0
M  END
