
     RDKit          3D

 52 55  0  0  0  0  0  0  0  0999 V2000
    2.5218   -4.3224   -3.1933 O   0  0  0  0  0  0  0  0  0  0  0  0
    1.3865   -4.2272   -2.7515 C   0  0  0  0  0  0  0  0  0  0  0  0
    0.3242   -4.7930   -3.3586 N   0  0  0  0  0  0  0  0  0  0  0  0
    0.5012   -5.6671   -4.5084 C   0  0  0  0  0  0  0  0  0  0  0  0
    0.0252   -7.0652   -4.1506 C   0  0  0  0  0  0  0  0  0  0  0  0
   -1.3105   -7.0605   -3.6938 O   0  0  0  0  0  0  0  0  0  0  0  0
   -1.4822   -6.2125   -2.5859 C   0  0  0  0  0  0  0  0  0  0  0  0
   -1.0549   -4.7885   -2.9008 C   0  0  0  0  0  0  0  0  0  0  0  0
    1.1370   -3.4630   -1.4440 C   0  0  2  0  0  0  0  0  0  0  0  0
    2.3033   -2.5519   -1.0950 C   0  0  0  0  0  0  0  0  0  0  0  0
    0.8788   -4.4212   -0.3844 N   0  0  0  0  0  0  0  0  0  0  0  0
    1.7359   -5.5718   -0.1504 C   0  0  0  0  0  0  0  0  0  0  0  0
    1.3669   -6.0031    1.2697 C   0  0  0  0  0  0  0  0  0  0  0  0
   -0.1072   -4.2696    0.5194 C   0  0  0  0  0  0  0  0  0  0  0  0
   -0.9360   -3.3781    0.5360 O   0  0  0  0  0  0  0  0  0  0  0  0
   -0.0363   -5.4489    1.4937 C   0  0  1  0  0  0  0  0  0  0  0  0
   -1.0641   -6.4369    1.1997 N   0  0  0  0  0  0  0  0  0  0  0  0
   -2.5560   -6.4050    1.8615 S   0  0  2  0  0  0  0  0  0  0  0  0
   -2.4188   -6.1433    3.2786 O   0  0  0  0  0  0  0  0  0  0  0  0
   -3.2343   -7.5862    1.3693 O   0  0  0  0  0  0  0  0  0  0  0  0
   -3.3776   -5.0059    1.1704 C   0  0  0  0  0  0  0  0  0  0  0  0
   -3.7125   -3.9706    1.8918 N   0  0  0  0  0  0  0  0  0  0  0  0
   -4.2289   -3.1581    0.9791 N   0  0  0  0  0  0  0  0  0  0  0  0
   -3.6464   -4.9192   -0.1394 N   0  0  0  0  0  0  0  0  0  0  0  0
   -4.1855   -3.7211   -0.2386 C   0  0  0  0  0  0  0  0  0  0  0  0
   -4.6596   -3.1159   -1.4564 C   0  0  0  0  0  0  0  0  0  0  0  0
   -5.0783   -1.8351   -1.6818 C   0  0  0  0  0  0  0  0  0  0  0  0
   -5.4677   -1.6105   -3.0233 C   0  0  0  0  0  0  0  0  0  0  0  0
   -5.3309   -2.7340   -3.7787 C   0  0  0  0  0  0  0  0  0  0  0  0
   -4.7368   -4.0749   -2.8870 S   0  0  0  0  0  0  0  0  0  0  0  0
   -5.6828   -2.9016   -5.4359 Cl  0  0  0  0  0  0  0  0  0  0  0  0
    0.2443   -2.8424   -1.5409 H   0  0  0  0  0  0  0  0  0  0  0  0
    1.5464   -5.6917   -4.8042 H   0  0  0  0  0  0  0  0  0  0  0  0
   -0.0786   -5.2714   -5.3475 H   0  0  0  0  0  0  0  0  0  0  0  0
   -1.6822   -4.3840   -3.7008 H   0  0  0  0  0  0  0  0  0  0  0  0
   -1.2040   -4.1530   -2.0333 H   0  0  0  0  0  0  0  0  0  0  0  0
    0.0669   -7.7112   -5.0280 H   0  0  0  0  0  0  0  0  0  0  0  0
    0.6914   -7.4893   -3.3854 H   0  0  0  0  0  0  0  0  0  0  0  0
   -0.8923   -6.5759   -1.7299 H   0  0  0  0  0  0  0  0  0  0  0  0
   -2.5333   -6.2390   -2.3002 H   0  0  0  0  0  0  0  0  0  0  0  0
    3.2343   -3.1007   -0.9652 H   0  0  0  0  0  0  0  0  0  0  0  0
    2.4544   -1.8075   -1.8759 H   0  0  0  0  0  0  0  0  0  0  0  0
    2.0827   -2.0237   -0.1681 H   0  0  0  0  0  0  0  0  0  0  0  0
    2.7877   -5.2981   -0.2291 H   0  0  0  0  0  0  0  0  0  0  0  0
    1.5454   -6.3560   -0.8897 H   0  0  0  0  0  0  0  0  0  0  0  0
    1.4238   -7.0802    1.4126 H   0  0  0  0  0  0  0  0  0  0  0  0
    2.0456   -5.5341    1.9813 H   0  0  0  0  0  0  0  0  0  0  0  0
   -0.1810   -5.1022    2.5160 H   0  0  0  0  0  0  0  0  0  0  0  0
   -1.0173   -6.9217    0.3114 H   0  0  0  0  0  0  0  0  0  0  0  0
   -4.5971   -2.2582    1.2529 H   0  0  0  0  0  0  0  0  0  0  0  0
   -5.1040   -1.0648   -0.9241 H   0  0  0  0  0  0  0  0  0  0  0  0
   -5.8257   -0.6665   -3.4049 H   0  0  0  0  0  0  0  0  0  0  0  0
  1  2  2  0
  2  3  1  0
  2  9  1  0
  3  4  1  0
  3  8  1  0
  4 33  1  0
  4 34  1  0
  4  5  1  0
  5 37  1  0
  5 38  1  0
  5  6  1  0
  6  7  1  0
  7 39  1  0
  7 40  1  0
  7  8  1  0
  8 35  1  0
  8 36  1  0
  9 32  1  6
  9 10  1  0
  9 11  1  0
 10 41  1  0
 10 42  1  0
 10 43  1  0
 11 12  1  0
 11 14  1  0
 12 44  1  0
 12 45  1  0
 12 13  1  0
 13 46  1  0
 13 47  1  0
 13 16  1  0
 14 15  2  0
 14 16  1  0
 16 17  1  0
 16 48  1  1
 18 17  1  6
 17 49  1  0
 18 20  2  0
 18 21  1  0
 18 19  2  0
 21 22  2  0
 21 24  1  0
 22 23  1  0
 23 25  1  0
 23 50  1  0
 24 25  2  0
 25 26  1  0
 26 27  2  0
 26 30  1  0
 27 28  1  0
 27 51  1  0
 28 29  2  0
 28 52  1  0
 29 30  1  0
 29 31  1  0
M  END
