
     RDKit          3D

 38 39  0  0  0  0  0  0  0  0999 V2000
   -0.3846   -0.2202    0.0117 C   0  0  0  0  0  0  0  0  0  0  0  0
    1.8251   -0.0970    0.0418 C   0  0  0  0  0  0  0  0  0  0  0  0
    0.6373    1.7761   -0.0965 C   0  0  0  0  0  0  0  0  0  0  0  0
    5.2381   -0.9883    0.1516 N   0  0  0  0  0  0  0  0  0  0  0  0
    4.5518   -2.1593    0.2086 C   0  0  0  0  0  0  0  0  0  0  0  0
    0.5620    3.0996   -0.1778 N   0  0  0  0  0  0  0  0  0  0  0  0
   -2.8566   -0.5002    0.0106 C   0  0  1  0  0  0  0  0  0  0  0  0
   -3.7597   -1.7103    0.3288 C   0  0  0  0  0  0  0  0  0  0  0  0
   -5.2492   -1.4140    0.3205 C   0  0  0  0  0  0  0  0  0  0  0  0
   -3.2108    0.1602   -1.3376 C   0  0  0  0  0  0  0  0  0  0  0  0
   -3.1429   -0.8013   -2.5142 C   0  0  0  0  0  0  0  0  0  0  0  0
   -3.2770    1.2427    1.9308 N   0  0  0  0  0  0  0  0  0  0  0  0
   -3.0581    0.4948    1.0850 C   0  0  0  0  0  0  0  0  0  0  0  0
   -1.4902   -0.9810    0.0518 N   0  0  0  0  0  0  0  0  0  0  0  0
   -0.5116    1.0906   -0.0750 N   0  0  0  0  0  0  0  0  0  0  0  0
    1.7063    3.9777   -0.2188 C   0  0  0  0  0  0  0  0  0  0  0  0
    1.8538    1.2145   -0.0406 N   0  0  0  0  0  0  0  0  0  0  0  0
    0.7845   -0.8878    0.0749 N   0  0  0  0  0  0  0  0  0  0  0  0
    3.0877   -0.7054    0.1000 N   0  0  0  0  0  0  0  0  0  0  0  0
    3.2540   -2.0335    0.1803 N   0  0  0  0  0  0  0  0  0  0  0  0
    4.2916   -0.0941    0.0840 C   0  0  0  0  0  0  0  0  0  0  0  0
    5.0309   -3.1242    0.2724 H   0  0  0  0  0  0  0  0  0  0  0  0
   -0.3612    3.4974   -0.2292 H   0  0  0  0  0  0  0  0  0  0  0  0
   -3.5344   -2.4871   -0.4059 H   0  0  0  0  0  0  0  0  0  0  0  0
   -3.4645   -2.1083    1.3025 H   0  0  0  0  0  0  0  0  0  0  0  0
   -5.6054   -1.1180   -0.6658 H   0  0  0  0  0  0  0  0  0  0  0  0
   -5.7990   -2.3088    0.6095 H   0  0  0  0  0  0  0  0  0  0  0  0
   -5.5148   -0.6260    1.0260 H   0  0  0  0  0  0  0  0  0  0  0  0
   -4.2122    0.5885   -1.2599 H   0  0  0  0  0  0  0  0  0  0  0  0
   -2.5303    0.9953   -1.4952 H   0  0  0  0  0  0  0  0  0  0  0  0
   -3.2633   -0.2499   -3.4461 H   0  0  0  0  0  0  0  0  0  0  0  0
   -2.1828   -1.3159   -2.5606 H   0  0  0  0  0  0  0  0  0  0  0  0
   -3.9291   -1.5556   -2.4790 H   0  0  0  0  0  0  0  0  0  0  0  0
   -1.3469   -1.9714    0.1756 H   0  0  0  0  0  0  0  0  0  0  0  0
    1.3428    5.0005   -0.2456 H   0  0  0  0  0  0  0  0  0  0  0  0
    2.3366    3.8587    0.6620 H   0  0  0  0  0  0  0  0  0  0  0  0
    2.3190    3.8064   -1.1043 H   0  0  0  0  0  0  0  0  0  0  0  0
    4.4081    0.9756    0.0242 H   0  0  0  0  0  0  0  0  0  0  0  0
  4  5  1  0
  4 21  2  0
  5 20  2  0
 21 19  1  0
 20 19  1  0
 19  2  1  0
 12 13  3  0
  2 18  1  0
  2 17  2  0
 10 11  1  0
 10  7  1  0
  7 13  1  1
 18  1  2  0
 17  3  1  0
  7 14  1  0
  7  8  1  0
  9  8  1  0
  1 14  1  0
  1 15  1  0
  3 15  2  0
  3  6  1  0
 16  6  1  0
  5 22  1  0
  6 23  1  0
  8 24  1  0
  8 25  1  0
  9 26  1  0
  9 27  1  0
  9 28  1  0
 10 29  1  0
 10 30  1  0
 11 31  1  0
 11 32  1  0
 11 33  1  0
 14 34  1  0
 16 35  1  0
 16 36  1  0
 16 37  1  0
 21 38  1  0
M  END
