
     RDKit          3D

 43 46  0  0  0  0  0  0  0  0999 V2000
    2.1536   -4.2675    0.1408 O   0  0  0  0  0  0  0  0  0  0  0  0
    2.8148   -3.2358    0.0945 C   0  0  0  0  0  0  0  0  0  0  0  0
    4.3236   -3.2864    0.0550 C   0  0  0  0  0  0  0  0  0  0  0  0
    2.2231   -1.9242    0.0623 C   0  0  0  0  0  0  0  0  0  0  0  0
    0.8526   -1.6586    0.0705 N   0  0  0  0  0  0  0  0  0  0  0  0
    0.6421   -0.2962    0.0322 C   0  0  0  0  0  0  0  0  0  0  0  0
    1.9118    0.3321   -0.0051 C   0  0  0  0  0  0  0  0  0  0  0  0
    2.1899    1.7600   -0.0506 C   0  0  0  0  0  0  0  0  0  0  0  0
    1.1528    2.5999   -0.1077 N   0  0  0  0  0  0  0  0  0  0  0  0
    1.3817    3.9063   -0.1507 C   0  0  0  0  0  0  0  0  0  0  0  0
    2.6470    4.4669   -0.1418 C   0  0  0  0  0  0  0  0  0  0  0  0
    3.7329    3.6008   -0.0823 C   0  0  0  0  0  0  0  0  0  0  0  0
    3.5076    2.2398   -0.0353 C   0  0  0  0  0  0  0  0  0  0  0  0
    2.8566   -0.6942    0.0154 C   0  0  0  0  0  0  0  0  0  0  0  0
   -0.2008   -2.5167    0.1016 C   0  0  0  0  0  0  0  0  0  0  0  0
   -1.4735   -2.0538    0.1048 C   0  0  0  0  0  0  0  0  0  0  0  0
   -1.7548   -0.6551    0.0797 C   0  0  0  0  0  0  0  0  0  0  0  0
   -0.6657    0.2010    0.0281 C   0  0  0  0  0  0  0  0  0  0  0  0
   -3.0496   -0.2018    0.1380 N   0  0  0  0  0  0  0  0  0  0  0  0
   -3.2867    1.2293    0.0647 C   0  0  0  0  0  0  0  0  0  0  0  0
   -4.6886    1.5667    0.5378 C   0  0  0  0  0  0  0  0  0  0  0  0
   -5.6742    0.8408   -0.1559 O   0  0  0  0  0  0  0  0  0  0  0  0
   -5.4707   -0.5393    0.0329 C   0  0  0  0  0  0  0  0  0  0  0  0
   -4.1147   -0.9829   -0.4792 C   0  0  0  0  0  0  0  0  0  0  0  0
    4.6936   -2.9571   -0.9175 H   0  0  0  0  0  0  0  0  0  0  0  0
    4.7722   -2.6393    0.8084 H   0  0  0  0  0  0  0  0  0  0  0  0
    4.6631   -4.3060    0.2250 H   0  0  0  0  0  0  0  0  0  0  0  0
    0.5042    4.5425   -0.1962 H   0  0  0  0  0  0  0  0  0  0  0  0
    2.7758    5.5395   -0.1791 H   0  0  0  0  0  0  0  0  0  0  0  0
    4.7452    3.9837   -0.0714 H   0  0  0  0  0  0  0  0  0  0  0  0
    4.3445    1.5567    0.0150 H   0  0  0  0  0  0  0  0  0  0  0  0
    3.9283   -0.5710   -0.0037 H   0  0  0  0  0  0  0  0  0  0  0  0
    0.0261   -3.5683    0.1293 H   0  0  0  0  0  0  0  0  0  0  0  0
   -2.2575   -2.7933    0.1446 H   0  0  0  0  0  0  0  0  0  0  0  0
   -0.7634    1.2720   -0.0263 H   0  0  0  0  0  0  0  0  0  0  0  0
   -2.5924    1.7542    0.7209 H   0  0  0  0  0  0  0  0  0  0  0  0
   -3.1262    1.6033   -0.9562 H   0  0  0  0  0  0  0  0  0  0  0  0
   -4.7610    1.3741    1.6173 H   0  0  0  0  0  0  0  0  0  0  0  0
   -4.8754    2.6283    0.3726 H   0  0  0  0  0  0  0  0  0  0  0  0
   -5.5622   -0.7985    1.0969 H   0  0  0  0  0  0  0  0  0  0  0  0
   -6.2522   -1.0701   -0.5117 H   0  0  0  0  0  0  0  0  0  0  0  0
   -4.0753   -0.8847   -1.5723 H   0  0  0  0  0  0  0  0  0  0  0  0
   -4.0076   -2.0388   -0.2436 H   0  0  0  0  0  0  0  0  0  0  0  0
 12 13  2  0
 12 11  1  0
 13  8  1  0
 11 10  2  0
  3  2  1  0
  8  7  1  0
  8  9  2  0
 14  7  1  0
 14  4  2  0
  7  6  2  0
  4  2  1  0
  4  5  1  0
  2  1  2  0
  6  5  1  0
  6 18  1  0
 10  9  1  0
  5 15  1  0
 23 22  1  0
 23 24  1  0
 18 17  2  0
 21 22  1  0
 21 20  1  0
 15 16  2  0
 17 16  1  0
 17 19  1  0
 19 24  1  0
 19 20  1  0
  3 25  1  0
  3 26  1  0
  3 27  1  0
 10 28  1  0
 11 29  1  0
 12 30  1  0
 13 31  1  0
 14 32  1  0
 15 33  1  0
 16 34  1  0
 18 35  1  0
 20 36  1  0
 20 37  1  0
 21 38  1  0
 21 39  1  0
 23 40  1  0
 23 41  1  0
 24 42  1  0
 24 43  1  0
M  END
