
     RDKit          3D

 39 42  0  0  0  0  0  0  0  0999 V2000
    6.8600    0.6459    0.7059 C   0  0  0  0  0  0  0  0  0  0  0  0
    0.5366   -0.0377   -0.0416 N   0  0  0  0  0  0  0  0  0  0  0  0
    5.9416    1.1741   -0.2317 O   0  0  0  0  0  0  0  0  0  0  0  0
    4.6471    0.8291   -0.1323 C   0  0  0  0  0  0  0  0  0  0  0  0
    0.6471   -2.4264   -0.1708 N   0  0  0  0  0  0  0  0  0  0  0  0
    3.7798    1.4036   -1.0649 C   0  0  0  0  0  0  0  0  0  0  0  0
   -1.4592   -3.4367   -0.1167 N   0  0  0  0  0  0  0  0  0  0  0  0
    2.4317    1.1048   -1.0410 C   0  0  0  0  0  0  0  0  0  0  0  0
    1.9239    0.2412   -0.0759 C   0  0  0  0  0  0  0  0  0  0  0  0
    2.7782   -0.3272    0.8544 C   0  0  0  0  0  0  0  0  0  0  0  0
    4.1368   -0.0444    0.8265 C   0  0  0  0  0  0  0  0  0  0  0  0
   -0.4596    0.9073    0.0218 C   0  0  0  0  0  0  0  0  0  0  0  0
   -1.6864    0.2995    0.0148 C   0  0  0  0  0  0  0  0  0  0  0  0
   -1.4219   -1.1042   -0.0597 C   0  0  0  0  0  0  0  0  0  0  0  0
   -0.0389   -1.2661   -0.0937 C   0  0  0  0  0  0  0  0  0  0  0  0
   -0.1097   -3.4711   -0.1832 C   0  0  0  0  0  0  0  0  0  0  0  0
   -2.2386   -2.2814   -0.0344 C   0  0  0  0  0  0  0  0  0  0  0  0
   -2.9683    1.0098    0.0724 C   0  0  0  0  0  0  0  0  0  0  0  0
   -3.1245    2.1005    0.9308 C   0  0  0  0  0  0  0  0  0  0  0  0
   -4.3162    2.8101    0.9710 C   0  0  0  0  0  0  0  0  0  0  0  0
   -5.3786    2.4363    0.1592 C   0  0  0  0  0  0  0  0  0  0  0  0
   -5.2346    1.3521   -0.6977 C   0  0  0  0  0  0  0  0  0  0  0  0
   -4.0421    0.6454   -0.7420 C   0  0  0  0  0  0  0  0  0  0  0  0
    6.6049    0.9273    1.7305 H   0  0  0  0  0  0  0  0  0  0  0  0
    6.9255   -0.4434    0.6446 H   0  0  0  0  0  0  0  0  0  0  0  0
    7.8302    1.0685    0.4576 H   0  0  0  0  0  0  0  0  0  0  0  0
    4.1726    2.0776   -1.8156 H   0  0  0  0  0  0  0  0  0  0  0  0
   -1.9526   -4.3201   -0.1123 H   0  0  0  0  0  0  0  0  0  0  0  0
    1.7736    1.5445   -1.7798 H   0  0  0  0  0  0  0  0  0  0  0  0
    2.3912   -0.9896    1.6170 H   0  0  0  0  0  0  0  0  0  0  0  0
    4.7744   -0.5066    1.5669 H   0  0  0  0  0  0  0  0  0  0  0  0
   -0.2137    1.9567    0.0600 H   0  0  0  0  0  0  0  0  0  0  0  0
    0.3292   -4.4581   -0.2475 H   0  0  0  0  0  0  0  0  0  0  0  0
   -2.3105    2.3870    1.5852 H   0  0  0  0  0  0  0  0  0  0  0  0
   -4.4153    3.6508    1.6456 H   0  0  0  0  0  0  0  0  0  0  0  0
   -6.3110    2.9847    0.1939 H   0  0  0  0  0  0  0  0  0  0  0  0
   -6.0542    1.0571   -1.3405 H   0  0  0  0  0  0  0  0  0  0  0  0
   -3.9411   -0.1847   -1.4271 H   0  0  0  0  0  0  0  0  0  0  0  0
   -3.4535   -2.3615    0.0516 O   0  0  0  0  0  0  0  0  0  0  0  0
  1  3  1  0
  2  9  1  0
  2 12  1  0
  2 15  1  0
  3  4  1  0
  4  6  2  0
  4 11  1  0
  5 15  1  0
  5 16  2  0
 39 17  2  0
  6  8  1  0
  7 16  1  0
  7 17  1  0
  8  9  2  0
  9 10  1  0
 10 11  2  0
 12 13  2  0
 13 14  1  0
 13 18  1  0
 14 15  2  0
 14 17  1  0
 18 19  2  0
 18 23  1  0
 19 20  1  0
 20 21  2  0
 21 22  1  0
 22 23  2  0
  1 24  1  0
  1 25  1  0
  1 26  1  0
  6 27  1  0
  7 28  1  0
  8 29  1  0
 10 30  1  0
 11 31  1  0
 12 32  1  0
 16 33  1  0
 19 34  1  0
 20 35  1  0
 21 36  1  0
 22 37  1  0
 23 38  1  0
M  END
