
     RDKit          3D

 31 32  0  0  0  0  0  0  0  0999 V2000
   -5.0074   -1.3165   -0.8674 O   0  0  0  0  0  0  0  0  0  0  0  0
   -4.6914   -0.1284   -0.0874 S   0  0  1  0  0  0  0  0  0  0  0  0
   -5.2781    1.1411   -0.4952 O   0  0  0  0  0  0  0  0  0  0  0  0
   -5.0240   -0.5193    1.4821 N   0  0  0  0  0  0  0  0  0  0  0  0
   -2.9373    0.0803   -0.0229 C   0  0  0  0  0  0  0  0  0  0  0  0
   -2.1294   -1.0495    0.0865 C   0  0  0  0  0  0  0  0  0  0  0  0
   -0.7583   -0.9054    0.1107 C   0  0  0  0  0  0  0  0  0  0  0  0
   -0.1854    0.3694    0.0254 C   0  0  0  0  0  0  0  0  0  0  0  0
   -1.0093    1.4871   -0.0742 C   0  0  0  0  0  0  0  0  0  0  0  0
   -2.3879    1.3497   -0.1042 C   0  0  0  0  0  0  0  0  0  0  0  0
    1.1931    0.6307    0.0338 N   0  0  0  0  0  0  0  0  0  0  0  0
    1.9130   -0.3861    0.0307 N   0  0  0  0  0  0  0  0  0  0  0  0
    3.2808   -0.1779    0.0368 C   0  0  0  0  0  0  0  0  0  0  0  0
    4.0786   -1.3262    0.0092 C   0  0  0  0  0  0  0  0  0  0  0  0
    5.4525   -1.2438   -0.0009 C   0  0  0  0  0  0  0  0  0  0  0  0
    6.0878    0.0110    0.0180 C   0  0  0  0  0  0  0  0  0  0  0  0
    7.4363    0.1114    0.0374 N   0  0  0  0  0  0  0  0  0  0  0  0
    5.2810    1.1702    0.0514 C   0  0  0  0  0  0  0  0  0  0  0  0
    3.9123    1.0765    0.0594 C   0  0  0  0  0  0  0  0  0  0  0  0
   -4.9513    0.2760    2.1082 H   0  0  0  0  0  0  0  0  0  0  0  0
   -5.9378   -0.9545    1.5711 H   0  0  0  0  0  0  0  0  0  0  0  0
   -2.5645   -2.0381    0.1528 H   0  0  0  0  0  0  0  0  0  0  0  0
   -0.1269   -1.7785    0.1936 H   0  0  0  0  0  0  0  0  0  0  0  0
   -0.5596    2.4693   -0.1362 H   0  0  0  0  0  0  0  0  0  0  0  0
   -3.0150    2.2258   -0.1916 H   0  0  0  0  0  0  0  0  0  0  0  0
    3.5958   -2.2955   -0.0098 H   0  0  0  0  0  0  0  0  0  0  0  0
    6.0512   -2.1460   -0.0272 H   0  0  0  0  0  0  0  0  0  0  0  0
    7.9904   -0.6938   -0.1996 H   0  0  0  0  0  0  0  0  0  0  0  0
    7.8648    0.9984   -0.1659 H   0  0  0  0  0  0  0  0  0  0  0  0
    5.7547    2.1444    0.0669 H   0  0  0  0  0  0  0  0  0  0  0  0
    3.3154    1.9786    0.0803 H   0  0  0  0  0  0  0  0  0  0  0  0
 18 19  2  0
 18 16  1  0
 19 13  1  0
 17 16  1  0
 16 15  2  0
 12 13  1  0
 12 11  2  0
 13 14  2  0
 11  8  1  0
 15 14  1  0
  8  9  2  0
  8  7  1  0
  9 10  1  0
  7  6  2  0
 10  5  2  0
  6  5  1  0
  5  2  1  0
  2  4  1  1
  1  2  2  0
  2  3  2  0
  4 20  1  0
  4 21  1  0
  6 22  1  0
  7 23  1  0
  9 24  1  0
 10 25  1  0
 14 26  1  0
 15 27  1  0
 17 28  1  0
 17 29  1  0
 18 30  1  0
 19 31  1  0
M  END
