
     RDKit          3D

 35 34  0  0  0  0  0  0  0  0999 V2000
    1.2895    2.2332   -2.2287 N   0  0  0  0  0  0  0  0  0  0  0  0
   -0.0651    2.1619   -1.7216 C   0  0  2  0  0  0  0  0  0  0  0  0
   -0.2324    2.0060   -0.2045 C   0  0  0  0  0  0  0  0  0  0  0  0
    0.4602    0.7912    0.3761 C   0  0  0  0  0  0  0  0  0  0  0  0
    0.7157    0.9430    1.8750 C   0  0  0  0  0  0  0  0  0  0  0  0
    1.7212    1.9211    2.2399 N   0  0  0  0  0  0  0  0  0  0  0  0
    3.1081    1.7838    2.0974 C   0  0  0  0  0  0  0  0  0  0  0  0
    3.9174    2.8318    2.5040 N   0  0  0  0  0  0  0  0  0  0  0  0
    3.7032    0.6594    1.5750 N   0  0  0  0  0  0  0  0  0  0  0  0
    2.1631    3.2777   -2.0874 C   0  0  0  0  0  0  0  0  0  0  0  0
    1.8869    4.3377   -1.4809 O   0  0  0  0  0  0  0  0  0  0  0  0
    3.5440    3.1127   -2.7154 C   0  0  0  0  0  0  0  0  0  0  0  0
    4.5513    2.6909   -1.6930 C   0  0  0  0  0  0  0  0  0  0  0  0
    4.6687    3.0573   -0.5142 O   0  0  0  0  0  0  0  0  0  0  0  0
    5.4399    1.7832   -2.1558 O   0  0  0  0  0  0  0  0  0  0  0  0
   -0.8523    1.0501   -2.4181 C   0  0  0  0  0  0  0  0  0  0  0  0
   -2.0593    0.8238   -2.3485 O   0  0  0  0  0  0  0  0  0  0  0  0
   -0.0949    0.2351   -3.1984 O   0  0  0  0  0  0  0  0  0  0  0  0
    1.5904    1.4212   -2.7288 H   0  0  0  0  0  0  0  0  0  0  0  0
   -0.5934    3.1276   -2.0142 H   0  0  0  0  0  0  0  0  0  0  0  0
   -1.3371    1.9213   -0.0097 H   0  0  0  0  0  0  0  0  0  0  0  0
    0.1222    2.9519    0.2838 H   0  0  0  0  0  0  0  0  0  0  0  0
    1.4262    0.5923   -0.1566 H   0  0  0  0  0  0  0  0  0  0  0  0
   -0.1940   -0.1124    0.2226 H   0  0  0  0  0  0  0  0  0  0  0  0
   -0.2377    1.2779    2.3828 H   0  0  0  0  0  0  0  0  0  0  0  0
    0.9900   -0.0580    2.3141 H   0  0  0  0  0  0  0  0  0  0  0  0
    1.3835    2.7823    2.6328 H   0  0  0  0  0  0  0  0  0  0  0  0
    4.9123    2.7754    2.4205 H   0  0  0  0  0  0  0  0  0  0  0  0
    3.5169    3.6636    2.8883 H   0  0  0  0  0  0  0  0  0  0  0  0
    3.1762   -0.1232    1.2671 H   0  0  0  0  0  0  0  0  0  0  0  0
    4.6964    0.6181    1.4982 H   0  0  0  0  0  0  0  0  0  0  0  0
    3.5503    2.3880   -3.5745 H   0  0  0  0  0  0  0  0  0  0  0  0
    3.8584    4.1179   -3.1165 H   0  0  0  0  0  0  0  0  0  0  0  0
    6.0753    1.5377   -1.4582 H   0  0  0  0  0  0  0  0  0  0  0  0
   -0.6542   -0.4474   -3.6107 H   0  0  0  0  0  0  0  0  0  0  0  0
  1  2  1  0
  1 10  1  0
  1 19  1  0
  2  3  1  0
  2 16  1  0
  2 20  1  6
  3  4  1  0
  3 21  1  0
  3 22  1  0
  4  5  1  0
  4 23  1  0
  4 24  1  0
  5  6  1  0
  5 25  1  0
  5 26  1  0
  6  7  1  0
  6 27  1  0
  7  8  1  0
  7  9  2  0
  8 28  1  0
  8 29  1  0
  9 30  1  0
  9 31  1  0
 10 11  2  0
 10 12  1  0
 12 13  1  0
 12 32  1  0
 12 33  1  0
 13 14  2  0
 13 15  1  0
 15 34  1  0
 16 17  2  0
 16 18  1  0
 18 35  1  0
M  CHG  1   9   1
M  END
