
     RDKit          3D

 52 51  0  0  0  0  0  0  0  0999 V2000
   -7.8615    4.8351    0.7419 C   0  0  0  0  0  0  0  0  0  0  0  0
   -7.5924    3.6325   -0.1519 C   0  0  0  0  0  0  0  0  0  0  0  0
   -6.7858    2.5462    0.5491 C   0  0  0  0  0  0  0  0  0  0  0  0
   -6.4837    1.3512   -0.3450 C   0  0  0  0  0  0  0  0  0  0  0  0
   -5.7061    0.2520    0.3796 C   0  0  0  0  0  0  0  0  0  0  0  0
   -5.4098   -0.9126   -0.5116 C   0  0  0  0  0  0  0  0  0  0  0  0
   -4.2225   -1.4496   -0.7876 C   0  0  0  0  0  0  0  0  0  0  0  0
   -2.8905   -1.0389   -0.2287 C   0  0  0  0  0  0  0  0  0  0  0  0
   -2.4013   -2.0504    0.7690 C   0  0  0  0  0  0  0  0  0  0  0  0
   -1.2195   -2.6613    0.7988 C   0  0  0  0  0  0  0  0  0  0  0  0
   -0.0724   -2.4665   -0.1507 C   0  0  1  0  0  0  0  0  0  0  0  0
    1.0502   -1.7038    0.5445 C   0  0  0  0  0  0  0  0  0  0  0  0
    2.2032   -1.3138   -0.3503 C   0  0  0  0  0  0  0  0  0  0  0  0
    2.0841   -1.2191   -1.5507 O   0  0  0  0  0  0  0  0  0  0  0  0
    3.4955   -1.0129    0.3619 C   0  0  0  0  0  0  0  0  0  0  0  0
    4.5200   -0.2438   -0.4546 C   0  0  0  0  0  0  0  0  0  0  0  0
    5.7869    0.0308    0.3470 C   0  0  0  0  0  0  0  0  0  0  0  0
    6.7904    0.8371   -0.4596 C   0  0  0  0  0  0  0  0  0  0  0  0
    8.0603    1.1474    0.2822 C   0  0  0  0  0  0  0  0  0  0  0  0
    8.3129    0.7992    1.4089 O   0  0  0  0  0  0  0  0  0  0  0  0
    8.8999    1.8684   -0.4565 O   0  0  0  0  0  0  0  0  0  0  0  0
    0.3863   -3.7025   -0.6635 O   0  0  0  0  0  0  0  0  0  0  0  0
   -8.4412    5.6002    0.2244 H   0  0  0  0  0  0  0  0  0  0  0  0
   -8.4206    4.5446    1.6336 H   0  0  0  0  0  0  0  0  0  0  0  0
   -6.9289    5.2946    1.0751 H   0  0  0  0  0  0  0  0  0  0  0  0
   -8.5418    3.2107   -0.4961 H   0  0  0  0  0  0  0  0  0  0  0  0
   -7.0598    3.9530   -1.0525 H   0  0  0  0  0  0  0  0  0  0  0  0
   -5.8447    2.9721    0.9147 H   0  0  0  0  0  0  0  0  0  0  0  0
   -7.3303    2.2100    1.4387 H   0  0  0  0  0  0  0  0  0  0  0  0
   -7.4206    0.9371   -0.7331 H   0  0  0  0  0  0  0  0  0  0  0  0
   -5.9126    1.6821   -1.2186 H   0  0  0  0  0  0  0  0  0  0  0  0
   -4.7906    0.6718    0.8030 H   0  0  0  0  0  0  0  0  0  0  0  0
   -6.3029   -0.0927    1.2319 H   0  0  0  0  0  0  0  0  0  0  0  0
   -6.2798   -1.3540   -0.9920 H   0  0  0  0  0  0  0  0  0  0  0  0
   -4.1938   -2.2998   -1.4626 H   0  0  0  0  0  0  0  0  0  0  0  0
   -2.1740   -0.9190   -1.0445 H   0  0  0  0  0  0  0  0  0  0  0  0
   -2.9600   -0.0657    0.2635 H   0  0  0  0  0  0  0  0  0  0  0  0
   -3.1134   -2.2912    1.5532 H   0  0  0  0  0  0  0  0  0  0  0  0
   -1.0308   -3.3615    1.6103 H   0  0  0  0  0  0  0  0  0  0  0  0
   -0.3959   -1.8924   -1.0204 H   0  0  0  0  0  0  0  0  0  0  0  0
    0.6595   -0.7667    0.9590 H   0  0  0  0  0  0  0  0  0  0  0  0
    1.4203   -2.2632    1.4107 H   0  0  0  0  0  0  0  0  0  0  0  0
    3.2624   -0.4846    1.2926 H   0  0  0  0  0  0  0  0  0  0  0  0
    3.9058   -1.9780    0.6859 H   0  0  0  0  0  0  0  0  0  0  0  0
    4.7735   -0.8002   -1.3603 H   0  0  0  0  0  0  0  0  0  0  0  0
    4.0868    0.7041   -0.7872 H   0  0  0  0  0  0  0  0  0  0  0  0
    5.5289    0.5694    1.2627 H   0  0  0  0  0  0  0  0  0  0  0  0
    6.2336   -0.9164    0.6608 H   0  0  0  0  0  0  0  0  0  0  0  0
    7.0553    0.3096   -1.3817 H   0  0  0  0  0  0  0  0  0  0  0  0
    6.3474    1.7839   -0.7850 H   0  0  0  0  0  0  0  0  0  0  0  0
    9.7075    2.0524    0.0457 H   0  0  0  0  0  0  0  0  0  0  0  0
    0.6814   -4.2475    0.0743 H   0  0  0  0  0  0  0  0  0  0  0  0
  1  2  1  0
  2  3  1  0
  3  4  1  0
  4  5  1  0
  5  6  1  0
  6  7  2  0
  7  8  1  0
  8  9  1  0
  9 10  2  0
 10 11  1  0
 11 12  1  0
 12 13  1  0
 13 14  2  0
 13 15  1  0
 15 16  1  0
 16 17  1  0
 17 18  1  0
 18 19  1  0
 19 20  2  0
 19 21  1  0
  1 23  1  0
  1 24  1  0
  1 25  1  0
  2 26  1  0
  2 27  1  0
  3 28  1  0
  3 29  1  0
  4 30  1  0
  4 31  1  0
  5 32  1  0
  5 33  1  0
  6 34  1  0
  7 35  1  0
  8 36  1  0
  8 37  1  0
  9 38  1  0
 10 39  1  0
 11 40  1  6
 12 41  1  0
 12 42  1  0
 15 43  1  0
 15 44  1  0
 16 45  1  0
 16 46  1  0
 17 47  1  0
 17 48  1  0
 18 49  1  0
 18 50  1  0
 21 51  1  0
 22 52  1  0
 22 11  1  0
M  END
