
     RDKit          3D

 28 29  0  0  0  0  0  0  0  0999 V2000
    1.9067   -0.1712   -0.7092 C   0  0  0  0  0  0  0  0  0  0  0  0
    1.5874   -0.6812    0.5457 C   0  0  0  0  0  0  0  0  0  0  0  0
    3.1388    0.4489   -0.9074 C   0  0  0  0  0  0  0  0  0  0  0  0
    0.9325   -0.2535   -1.8537 C   0  0  0  0  0  0  0  0  0  0  0  0
    2.5154   -0.5630    1.5783 C   0  0  0  0  0  0  0  0  0  0  0  0
    0.2865   -1.3919    0.8121 C   0  0  0  0  0  0  0  0  0  0  0  0
    3.7383    0.0494    1.3859 C   0  0  0  0  0  0  0  0  0  0  0  0
    4.0563    0.5617    0.1281 C   0  0  0  0  0  0  0  0  0  0  0  0
   -0.1733   -1.2613   -1.6007 C   0  0  0  0  0  0  0  0  0  0  0  0
   -2.1332    1.1510    0.2499 C   0  0  1  0  0  0  0  0  0  0  0  0
   -1.8134    1.6937   -0.9160 F   0  0  0  0  0  0  0  0  0  0  0  0
   -1.2211    1.4907    1.1490 F   0  0  0  0  0  0  0  0  0  0  0  0
   -3.3152    1.6070    0.6321 F   0  0  0  0  0  0  0  0  0  0  0  0
   -0.6852   -1.1150   -0.2395 N   0  0  0  0  0  0  0  0  0  0  0  0
    5.2593    1.1507   -0.0243 O   0  0  0  0  0  0  0  0  0  0  0  0
   -2.5665   -1.1435    1.4135 O   0  0  0  0  0  0  0  0  0  0  0  0
   -3.0412   -0.9248   -1.0595 O   0  0  0  0  0  0  0  0  0  0  0  0
   -2.1980   -0.6861    0.0910 S   0  0  1  0  0  0  0  0  0  0  0  0
    3.3810    0.8425   -1.8901 H   0  0  0  0  0  0  0  0  0  0  0  0
    0.5022    0.7343   -2.0372 H   0  0  0  0  0  0  0  0  0  0  0  0
    1.4538   -0.5321   -2.7715 H   0  0  0  0  0  0  0  0  0  0  0  0
    2.2734   -0.9553    2.5595 H   0  0  0  0  0  0  0  0  0  0  0  0
    0.4454   -2.4739    0.8564 H   0  0  0  0  0  0  0  0  0  0  0  0
   -0.1104   -1.0971    1.7818 H   0  0  0  0  0  0  0  0  0  0  0  0
    4.4446    0.1376    2.2017 H   0  0  0  0  0  0  0  0  0  0  0  0
   -0.9759   -1.1487   -2.3243 H   0  0  0  0  0  0  0  0  0  0  0  0
    0.2038   -2.2823   -1.6973 H   0  0  0  0  0  0  0  0  0  0  0  0
    5.3671    1.4655   -0.9286 H   0  0  0  0  0  0  0  0  0  0  0  0
  1  2  1  0
  1  3  2  0
  1  4  1  0
  2  5  2  0
  2  6  1  0
  3  8  1  0
  4  9  1  0
  5  7  1  0
  6 14  1  0
  7  8  2  0
  8 15  1  0
  9 14  1  0
 10 11  1  6
 10 12  1  0
 10 13  1  0
 10 18  1  0
 18 14  1  6
 16 18  2  0
 17 18  2  0
  3 19  1  0
  4 20  1  0
  4 21  1  0
  5 22  1  0
  6 23  1  0
  6 24  1  0
  7 25  1  0
  9 26  1  0
  9 27  1  0
 15 28  1  0
M  END
