
     RDKit          3D

 21 21  0  0  0  0  0  0  0  0999 V2000
   -3.9934    0.8427    0.5419 Cl  0  0  0  0  0  0  0  0  0  0  0  0
   -2.3413    0.6474    0.0992 C   0  0  0  0  0  0  0  0  0  0  0  0
   -1.5427    1.7667   -0.0806 C   0  0  0  0  0  0  0  0  0  0  0  0
   -0.2131    1.6191   -0.4371 C   0  0  0  0  0  0  0  0  0  0  0  0
    0.3352    0.3550   -0.6258 C   0  0  0  0  0  0  0  0  0  0  0  0
    1.7809    0.1904   -0.9863 C   0  0  0  0  0  0  0  0  0  0  0  0
    2.6907   -0.0552    0.5680 S   0  0  0  0  0  0  0  0  0  0  0  0
    4.3636   -0.1790   -0.0172 C   0  0  0  0  0  0  0  0  0  0  0  0
    4.6069   -0.1165   -1.2619 N   0  0  0  0  0  0  0  0  0  0  0  0
    5.2367   -0.3950    1.0060 N   0  0  0  0  0  0  0  0  0  0  0  0
   -0.4695   -0.7630   -0.4421 C   0  0  0  0  0  0  0  0  0  0  0  0
   -1.8005   -0.6207   -0.0840 C   0  0  0  0  0  0  0  0  0  0  0  0
   -2.7716   -2.0270    0.1303 Cl  0  0  0  0  0  0  0  0  0  0  0  0
   -1.9634    2.7530    0.0592 H   0  0  0  0  0  0  0  0  0  0  0  0
    0.3985    2.5015   -0.5747 H   0  0  0  0  0  0  0  0  0  0  0  0
    1.9391   -0.6710   -1.6329 H   0  0  0  0  0  0  0  0  0  0  0  0
    2.1680    1.0746   -1.4893 H   0  0  0  0  0  0  0  0  0  0  0  0
   -0.0615   -1.7556   -0.5843 H   0  0  0  0  0  0  0  0  0  0  0  0
    5.6030   -0.2016   -1.4471 H   0  0  0  0  0  0  0  0  0  0  0  0
    4.9716   -0.1328    1.9419 H   0  0  0  0  0  0  0  0  0  0  0  0
    6.2157   -0.2563    0.8096 H   0  0  0  0  0  0  0  0  0  0  0  0
  1  2  1  0
  2  3  2  0
  2 12  1  0
  3  4  1  0
  4  5  2  0
  5  6  1  0
  5 11  1  0
  6  7  1  0
  7  8  1  0
  8  9  2  0
  8 10  1  0
 11 12  2  0
 12 13  1  0
  3 14  1  0
  4 15  1  0
  6 16  1  0
  6 17  1  0
 11 18  1  0
  9 19  1  0
 10 20  1  0
 10 21  1  0
M  END
