
     RDKit          3D

 39 40  0  0  0  0  0  0  0  0999 V2000
   -4.7439   -0.8008   -0.0353 N   0  0  2  0  0  0  0  0  0  0  0  0
    2.4990    0.3361   -0.0281 C   0  0  0  0  0  0  0  0  0  0  0  0
    3.5736    1.1684   -0.3414 C   0  0  0  0  0  0  0  0  0  0  0  0
    4.8597    0.6623   -0.3668 C   0  0  0  0  0  0  0  0  0  0  0  0
    0.1656    0.1381    0.2912 C   0  0  0  0  0  0  0  0  0  0  0  0
   -1.0524    1.0473    0.2073 C   0  0  0  0  0  0  0  0  0  0  0  0
   -3.4723   -1.5785    0.0082 C   0  0  0  0  0  0  0  0  0  0  0  0
   -5.7507   -1.4503   -0.9081 C   0  0  0  0  0  0  0  0  0  0  0  0
   -2.2454    0.4727    0.4885 N   0  0  0  0  0  0  0  0  0  0  0  0
    1.2787    0.9211   -0.0281 O   0  0  0  0  0  0  0  0  0  0  0  0
    5.1234   -0.6798   -0.0862 C   0  0  0  0  0  0  0  0  0  0  0  0
   -4.4858    0.6103   -0.4467 C   0  0  0  0  0  0  0  0  0  0  0  0
   -3.4659    1.2498    0.4710 C   0  0  0  0  0  0  0  0  0  0  0  0
    4.0412   -1.4910    0.2282 C   0  0  0  0  0  0  0  0  0  0  0  0
    2.7380   -1.0024    0.2610 C   0  0  0  0  0  0  0  0  0  0  0  0
   -2.4539   -0.8975    0.9026 C   0  0  0  0  0  0  0  0  0  0  0  0
   -0.9424    2.2190   -0.0950 O   0  0  0  0  0  0  0  0  0  0  0  0
   -5.1322   -0.7820    0.9107 H   0  0  0  0  0  0  0  0  0  0  0  0
    3.3930    2.2141   -0.5580 H   0  0  0  0  0  0  0  0  0  0  0  0
    5.6788    1.3298   -0.6084 H   0  0  0  0  0  0  0  0  0  0  0  0
    0.2485   -0.2801    1.3024 H   0  0  0  0  0  0  0  0  0  0  0  0
    0.0527   -0.7026   -0.4051 H   0  0  0  0  0  0  0  0  0  0  0  0
   -3.7038   -2.5730    0.3833 H   0  0  0  0  0  0  0  0  0  0  0  0
   -3.1123   -1.6582   -1.0171 H   0  0  0  0  0  0  0  0  0  0  0  0
   -5.9435   -2.4517   -0.5355 H   0  0  0  0  0  0  0  0  0  0  0  0
   -6.6632   -0.8619   -0.8862 H   0  0  0  0  0  0  0  0  0  0  0  0
   -5.3596   -1.4945   -1.9204 H   0  0  0  0  0  0  0  0  0  0  0  0
    6.7920   -1.5063   -1.1675 H   0  0  0  0  0  0  0  0  0  0  0  0
    7.2524   -0.4843    0.1828 H   0  0  0  0  0  0  0  0  0  0  0  0
    6.6360   -2.1093    0.4755 H   0  0  0  0  0  0  0  0  0  0  0  0
   -4.1354    0.5838   -1.4782 H   0  0  0  0  0  0  0  0  0  0  0  0
   -5.4318    1.1455   -0.4042 H   0  0  0  0  0  0  0  0  0  0  0  0
   -3.8682    1.3298    1.4863 H   0  0  0  0  0  0  0  0  0  0  0  0
   -3.2661    2.2577    0.1182 H   0  0  0  0  0  0  0  0  0  0  0  0
    4.2049   -2.5375    0.4577 H   0  0  0  0  0  0  0  0  0  0  0  0
    1.9357   -1.6822    0.5161 H   0  0  0  0  0  0  0  0  0  0  0  0
   -2.7952   -0.9211    1.9425 H   0  0  0  0  0  0  0  0  0  0  0  0
   -1.5417   -1.4861    0.8601 H   0  0  0  0  0  0  0  0  0  0  0  0
    6.5220   -1.2231   -0.1479 C   0  0  0  0  0  0  0  0  0  0  0  0
 39 11  1  0
 11 14  2  0
 11  4  1  0
 14 15  1  0
  4  3  2  0
 15  2  2  0
  3  2  1  0
  2 10  1  0
 10  5  1  0
 17  6  2  0
  5  6  1  0
  6  9  1  0
  9 13  1  0
  9 16  1  0
 12 13  1  0
 12  1  1  0
  7 16  1  0
  7  1  1  0
  8  1  1  0
  1 18  1  1
  3 19  1  0
  4 20  1  0
  5 21  1  0
  5 22  1  0
  7 23  1  0
  7 24  1  0
  8 25  1  0
  8 26  1  0
  8 27  1  0
 39 28  1  0
 39 29  1  0
 39 30  1  0
 12 31  1  0
 12 32  1  0
 13 33  1  0
 13 34  1  0
 14 35  1  0
 15 36  1  0
 16 37  1  0
 16 38  1  0
M  CHG  1   1   1
M  END
