
     RDKit          3D

 26 26  0  0  0  0  0  0  0  0999 V2000
    0.3620    0.6478   -0.3330 N   0  0  0  0  0  0  0  0  0  0  0  0
   -0.9247    0.1656    0.1400 C   0  0  1  0  0  0  0  0  0  0  0  0
   -1.9360    1.3074    0.1362 C   0  0  0  0  0  0  0  0  0  0  0  0
   -3.2998    0.8319    0.6276 C   0  0  0  0  0  0  0  0  0  0  0  0
    1.5328    0.1387    0.0587 C   0  0  0  0  0  0  0  0  0  0  0  0
    2.7396    0.7985   -0.6065 C   0  0  0  0  0  0  0  0  0  0  0  0
   -3.8079   -0.3540   -0.1859 C   0  0  0  0  0  0  0  0  0  0  0  0
   -2.7901   -1.4897   -0.1931 C   0  0  0  0  0  0  0  0  0  0  0  0
   -1.4293   -1.0130   -0.6920 C   0  0  0  0  0  0  0  0  0  0  0  0
    1.6672   -0.7558    0.8753 O   0  0  0  0  0  0  0  0  0  0  0  0
    3.9778    0.1872   -0.1662 C   0  0  0  0  0  0  0  0  0  0  0  0
    4.9706   -0.2848    0.1694 N   0  0  0  0  0  0  0  0  0  0  0  0
    0.3574    1.3536   -1.0536 H   0  0  0  0  0  0  0  0  0  0  0  0
   -0.7849   -0.1683    1.1721 H   0  0  0  0  0  0  0  0  0  0  0  0
   -1.5706    2.1278    0.7590 H   0  0  0  0  0  0  0  0  0  0  0  0
   -2.0331    1.7005   -0.8831 H   0  0  0  0  0  0  0  0  0  0  0  0
   -3.2229    0.5413    1.6806 H   0  0  0  0  0  0  0  0  0  0  0  0
   -4.0137    1.6572    0.5859 H   0  0  0  0  0  0  0  0  0  0  0  0
    2.6723    0.7182   -1.6944 H   0  0  0  0  0  0  0  0  0  0  0  0
    2.7684    1.8655   -0.3718 H   0  0  0  0  0  0  0  0  0  0  0  0
   -4.7627   -0.7022    0.2147 H   0  0  0  0  0  0  0  0  0  0  0  0
   -4.0015   -0.0321   -1.2147 H   0  0  0  0  0  0  0  0  0  0  0  0
   -2.6845   -1.8883    0.8220 H   0  0  0  0  0  0  0  0  0  0  0  0
   -3.1438   -2.3165   -0.8132 H   0  0  0  0  0  0  0  0  0  0  0  0
   -1.5087   -0.6981   -1.7381 H   0  0  0  0  0  0  0  0  0  0  0  0
   -0.7019   -1.8273   -0.6589 H   0  0  0  0  0  0  0  0  0  0  0  0
 12 11  3  0
 11  6  1  0
 10  5  2  0
  6  5  1  0
  5  1  1  0
  1  2  1  0
  9  2  1  0
  9  8  1  0
  2  3  1  0
  8  7  1  0
  3  4  1  0
  7  4  1  0
  1 13  1  0
  2 14  1  1
  3 15  1  0
  3 16  1  0
  4 17  1  0
  4 18  1  0
  6 19  1  0
  6 20  1  0
  7 21  1  0
  7 22  1  0
  8 23  1  0
  8 24  1  0
  9 25  1  0
  9 26  1  0
M  END
