
     RDKit          3D

 28 27  0  0  0  0  0  0  0  0999 V2000
   -4.4896   -0.3306   -0.0870 C   0  0  0  0  0  0  0  0  0  0  0  0
   -3.3173    1.8563   -0.0519 N   0  0  0  0  0  0  0  0  0  0  0  0
    2.9407   -0.1292    0.0693 C   0  0  0  0  0  0  0  0  0  0  0  0
    4.0595    0.8765   -0.1510 C   0  0  0  0  0  0  0  0  0  0  0  0
    5.7141    0.1692   -0.3179 S   0  0  0  0  0  0  0  0  0  0  0  0
   -3.2547    0.4759   -0.4663 C   0  0  1  0  0  0  0  0  0  0  0  0
   -2.0122   -0.2095    0.1196 C   0  0  0  0  0  0  0  0  0  0  0  0
    0.4980   -0.2661    0.2475 C   0  0  0  0  0  0  0  0  0  0  0  0
    1.7139    0.4199   -0.1234 N   0  0  0  0  0  0  0  0  0  0  0  0
   -0.7143    0.4378   -0.3412 C   0  0  0  0  0  0  0  0  0  0  0  0
    3.0775   -1.3504    0.4057 N   0  0  0  0  0  0  0  0  0  0  0  0
   -4.5828   -1.4609   -0.7791 O   0  0  0  0  0  0  0  0  0  0  0  0
   -5.2903   -0.0027    0.7530 O   0  0  0  0  0  0  0  0  0  0  0  0
   -4.0993    2.3236   -0.4923 H   0  0  0  0  0  0  0  0  0  0  0  0
   -3.4773    1.9150    0.9465 H   0  0  0  0  0  0  0  0  0  0  0  0
    3.8412    1.5063   -1.0134 H   0  0  0  0  0  0  0  0  0  0  0  0
    4.1096    1.5394    0.7158 H   0  0  0  0  0  0  0  0  0  0  0  0
    5.5523   -0.3643   -1.5341 H   0  0  0  0  0  0  0  0  0  0  0  0
   -3.1701    0.4490   -1.5574 H   0  0  0  0  0  0  0  0  0  0  0  0
   -2.0727   -0.1808    1.2131 H   0  0  0  0  0  0  0  0  0  0  0  0
   -2.0107   -1.2653   -0.1610 H   0  0  0  0  0  0  0  0  0  0  0  0
    0.5549   -1.2919   -0.1193 H   0  0  0  0  0  0  0  0  0  0  0  0
    0.3979   -0.3315    1.3389 H   0  0  0  0  0  0  0  0  0  0  0  0
    1.6608    1.4256   -0.1644 H   0  0  0  0  0  0  0  0  0  0  0  0
   -0.6563    0.4104   -1.4334 H   0  0  0  0  0  0  0  0  0  0  0  0
   -0.7102    1.4918   -0.0527 H   0  0  0  0  0  0  0  0  0  0  0  0
    4.0647   -1.5820    0.4570 H   0  0  0  0  0  0  0  0  0  0  0  0
   -5.3562   -1.9666   -0.4875 H   0  0  0  0  0  0  0  0  0  0  0  0
 13  1  2  0
  6  1  1  0
  1 12  1  0
  2  6  1  0
  2 14  1  0
  2 15  1  0
 11  3  2  0
  3  9  1  0
  3  4  1  0
  4  5  1  0
  4 16  1  0
  4 17  1  0
  5 18  1  0
  6  7  1  0
  6 19  1  6
 10  7  1  0
  7 20  1  0
  7 21  1  0
  8 10  1  0
  8  9  1  0
  8 22  1  0
  8 23  1  0
  9 24  1  0
 10 25  1  0
 10 26  1  0
 11 27  1  0
 12 28  1  0
M  END
