
     RDKit          3D

 67 72  0  0  0  0  0  0  0  0999 V2000
   -6.1804    0.6985   -0.7654 C   0  0  2  0  0  0  0  0  0  0  0  0
   -6.8020    1.2212    0.5276 C   0  0  0  0  0  0  0  0  0  0  0  0
   -7.4918    0.0784    1.2416 C   0  0  0  0  0  0  0  0  0  0  0  0
   -7.7216   -0.9469    0.3614 N   0  0  0  0  0  0  0  0  0  0  0  0
   -7.3567   -0.6054   -1.2430 S   0  0  1  0  0  0  0  0  0  0  0  0
   -8.5060   -0.0108   -1.9014 O   0  0  0  0  0  0  0  0  0  0  0  0
   -6.7356   -1.7674   -1.8441 O   0  0  0  0  0  0  0  0  0  0  0  0
   -7.8051    0.0581    2.4058 O   0  0  0  0  0  0  0  0  0  0  0  0
   -4.7974    0.1295   -0.6539 C   0  0  0  0  0  0  0  0  0  0  0  0
   -3.9828    0.1166   -1.7816 C   0  0  0  0  0  0  0  0  0  0  0  0
   -2.6986   -0.4007   -1.7217 C   0  0  0  0  0  0  0  0  0  0  0  0
   -2.1980   -0.9252   -0.5351 C   0  0  0  0  0  0  0  0  0  0  0  0
   -3.0185   -0.9185    0.5888 C   0  0  0  0  0  0  0  0  0  0  0  0
   -4.3017   -0.3990    0.5339 C   0  0  0  0  0  0  0  0  0  0  0  0
   -0.7954   -1.4508   -0.4404 C   0  0  0  0  0  0  0  0  0  0  0  0
    0.1460   -0.4353    0.2294 C   0  0  2  0  0  0  0  0  0  0  0  0
    0.2030    0.7553   -0.5978 N   0  0  0  0  0  0  0  0  0  0  0  0
    0.8039    2.1847   -0.0236 S   0  0  1  0  0  0  0  0  0  0  0  0
    0.5880    3.1414   -1.0974 O   0  0  0  0  0  0  0  0  0  0  0  0
    0.1877    2.3904    1.2776 O   0  0  0  0  0  0  0  0  0  0  0  0
    5.6331   -2.7407    0.6739 C   0  0  0  0  0  0  0  0  0  0  0  0
    4.7951   -2.1382   -0.2473 C   0  0  0  0  0  0  0  0  0  0  0  0
    3.5254   -1.7942    0.1982 C   0  0  0  0  0  0  0  0  0  0  0  0
    3.0915   -2.0358    1.5115 C   0  0  0  0  0  0  0  0  0  0  0  0
    3.9492   -2.6483    2.4241 C   0  0  0  0  0  0  0  0  0  0  0  0
    5.2168   -2.9935    1.9901 C   0  0  0  0  0  0  0  0  0  0  0  0
    2.4615   -1.1845   -0.4109 N   0  0  0  0  0  0  0  0  0  0  0  0
    1.4823   -1.0575    0.5198 C   0  0  0  0  0  0  0  0  0  0  0  0
    1.8103   -1.5630    1.6756 N   0  0  0  0  0  0  0  0  0  0  0  0
    6.6882    1.1309   -1.8317 C   0  0  0  0  0  0  0  0  0  0  0  0
    5.5073    1.9171   -1.8485 O   0  0  0  0  0  0  0  0  0  0  0  0
    4.7118    1.7684   -0.7622 C   0  0  0  0  0  0  0  0  0  0  0  0
    5.2352    1.3074    0.4733 C   0  0  0  0  0  0  0  0  0  0  0  0
    6.5459    0.9684    0.5669 N   0  0  0  0  0  0  0  0  0  0  0  0
    7.4269    1.3071   -0.5255 C   0  0  0  0  0  0  0  0  0  0  0  0
    3.3773    2.0762   -0.8936 C   0  0  0  0  0  0  0  0  0  0  0  0
    2.5270    1.9711    0.2072 C   0  0  0  0  0  0  0  0  0  0  0  0
    3.0155    1.5472    1.4329 C   0  0  0  0  0  0  0  0  0  0  0  0
    4.3533    1.2250    1.5602 C   0  0  0  0  0  0  0  0  0  0  0  0
   -6.2276    1.4419   -1.5627 H   0  0  0  0  0  0  0  0  0  0  0  0
   -6.0616    1.6880    1.1753 H   0  0  0  0  0  0  0  0  0  0  0  0
   -7.5586    1.9788    0.3090 H   0  0  0  0  0  0  0  0  0  0  0  0
   -8.2566   -1.7726    0.6111 H   0  0  0  0  0  0  0  0  0  0  0  0
   -4.3489    0.5229   -2.7167 H   0  0  0  0  0  0  0  0  0  0  0  0
   -2.0810   -0.3963   -2.6117 H   0  0  0  0  0  0  0  0  0  0  0  0
   -2.6529   -1.3230    1.5252 H   0  0  0  0  0  0  0  0  0  0  0  0
   -4.8971   -0.4089    1.4380 H   0  0  0  0  0  0  0  0  0  0  0  0
   -0.4112   -1.7056   -1.4316 H   0  0  0  0  0  0  0  0  0  0  0  0
   -0.7739   -2.3660    0.1541 H   0  0  0  0  0  0  0  0  0  0  0  0
   -0.2842   -0.1599    1.1943 H   0  0  0  0  0  0  0  0  0  0  0  0
    0.3676    0.6175   -1.5884 H   0  0  0  0  0  0  0  0  0  0  0  0
    6.6347   -3.0203    0.3749 H   0  0  0  0  0  0  0  0  0  0  0  0
    5.1192   -1.9416   -1.2610 H   0  0  0  0  0  0  0  0  0  0  0  0
    3.6323   -2.8416    3.4411 H   0  0  0  0  0  0  0  0  0  0  0  0
    5.9051   -3.4684    2.6771 H   0  0  0  0  0  0  0  0  0  0  0  0
    2.4408   -0.8407   -1.3573 H   0  0  0  0  0  0  0  0  0  0  0  0
    7.2997    1.4628   -2.6688 H   0  0  0  0  0  0  0  0  0  0  0  0
    6.4400    0.0751   -1.9818 H   0  0  0  0  0  0  0  0  0  0  0  0
    7.8102    2.3309   -0.4394 H   0  0  0  0  0  0  0  0  0  0  0  0
    8.2856    0.6350   -0.5164 H   0  0  0  0  0  0  0  0  0  0  0  0
    3.0115    2.4020   -1.8596 H   0  0  0  0  0  0  0  0  0  0  0  0
    2.3659    1.4624    2.2924 H   0  0  0  0  0  0  0  0  0  0  0  0
    4.7116    0.8971    2.5248 H   0  0  0  0  0  0  0  0  0  0  0  0
    7.0938    1.2644    2.5930 H   0  0  0  0  0  0  0  0  0  0  0  0
    6.5496   -0.3714    2.1750 H   0  0  0  0  0  0  0  0  0  0  0  0
    8.1295    0.1926    1.6466 H   0  0  0  0  0  0  0  0  0  0  0  0
    7.0994    0.4987    1.8112 C   0  0  0  0  0  0  0  0  0  0  0  0
  1  2  1  0
  1  5  1  0
  1  9  1  0
  1 40  1  6
  2  3  1  0
  2 41  1  0
  2 42  1  0
  3  4  1  0
  3  8  2  0
  5  4  1  1
  4 43  1  0
  5  6  2  0
  5  7  2  0
  9 10  2  0
  9 14  1  0
 10 11  1  0
 10 44  1  0
 11 12  2  0
 11 45  1  0
 12 13  1  0
 12 15  1  0
 13 14  2  0
 13 46  1  0
 14 47  1  0
 15 16  1  0
 15 48  1  0
 15 49  1  0
 16 17  1  0
 16 28  1  0
 16 50  1  1
 18 17  1  6
 17 51  1  0
 18 19  2  0
 18 20  2  0
 18 37  1  0
 21 22  2  0
 21 26  1  0
 21 52  1  0
 22 23  1  0
 22 53  1  0
 23 24  2  0
 23 27  1  0
 24 25  1  0
 24 29  1  0
 25 26  2  0
 25 54  1  0
 26 55  1  0
 27 28  1  0
 27 56  1  0
 28 29  2  0
 30 31  1  0
 30 35  1  0
 30 57  1  0
 30 58  1  0
 31 32  1  0
 32 33  2  0
 32 36  1  0
 33 34  1  0
 33 39  1  0
 34 35  1  0
 34 67  1  0
 35 59  1  0
 35 60  1  0
 36 37  2  0
 36 61  1  0
 37 38  1  0
 38 39  2  0
 38 62  1  0
 39 63  1  0
 67 64  1  0
 67 65  1  0
 67 66  1  0
M  END
