
     RDKit          3D

 37 38  0  0  0  0  0  0  0  0999 V2000
   -2.9815   -1.2919   -0.2551 C   0  0  2  0  0  0  0  0  0  0  0  0
   -1.7700   -0.3921   -0.1115 C   0  0  0  0  0  0  0  0  0  0  0  0
   -3.1334    2.9383    0.2483 C   0  0  0  0  0  0  0  0  0  0  0  0
   -3.0795    1.4746    0.6180 C   0  0  1  0  0  0  0  0  0  0  0  0
   -4.3529    0.7090    0.2756 C   0  0  2  0  0  0  0  0  0  0  0  0
   -4.1353   -0.7616    0.5903 C   0  0  1  0  0  0  0  0  0  0  0  0
   -2.7206   -2.6066    0.1367 O   0  0  0  0  0  0  0  0  0  0  0  0
   -5.3209   -1.4645    0.3475 O   0  0  0  0  0  0  0  0  0  0  0  0
   -4.7132    0.8316   -1.0758 O   0  0  0  0  0  0  0  0  0  0  0  0
   -1.9245    0.9219   -0.0511 O   0  0  0  0  0  0  0  0  0  0  0  0
   -0.6334   -0.9567   -0.1641 N   0  0  0  0  0  0  0  0  0  0  0  0
    0.3924   -0.0370   -0.0646 O   0  0  0  0  0  0  0  0  0  0  0  0
    1.6159   -0.6015   -0.1770 C   0  0  0  0  0  0  0  0  0  0  0  0
    1.8187   -1.7627   -0.4165 O   0  0  0  0  0  0  0  0  0  0  0  0
    2.5382    0.3706    0.0206 N   0  0  0  0  0  0  0  0  0  0  0  0
    3.9310    0.2522   -0.0013 C   0  0  0  0  0  0  0  0  0  0  0  0
    4.6193   -0.8880   -0.4165 C   0  0  0  0  0  0  0  0  0  0  0  0
    6.0084   -0.8912   -0.4065 C   0  0  0  0  0  0  0  0  0  0  0  0
    6.7311    0.2185    0.0047 C   0  0  0  0  0  0  0  0  0  0  0  0
    6.0423    1.3537    0.4123 C   0  0  0  0  0  0  0  0  0  0  0  0
    4.6582    1.3717    0.4106 C   0  0  0  0  0  0  0  0  0  0  0  0
   -3.2793   -1.2408   -1.3128 H   0  0  0  0  0  0  0  0  0  0  0  0
   -3.2606    3.0817   -0.8247 H   0  0  0  0  0  0  0  0  0  0  0  0
   -3.9696    3.4126    0.7620 H   0  0  0  0  0  0  0  0  0  0  0  0
   -2.2229    3.4517    0.5548 H   0  0  0  0  0  0  0  0  0  0  0  0
   -2.9130    1.3800    1.6967 H   0  0  0  0  0  0  0  0  0  0  0  0
   -5.1380    1.0947    0.9397 H   0  0  0  0  0  0  0  0  0  0  0  0
   -3.8433   -0.8301    1.6497 H   0  0  0  0  0  0  0  0  0  0  0  0
   -2.0334   -2.9724   -0.4303 H   0  0  0  0  0  0  0  0  0  0  0  0
   -5.1942   -2.3787    0.6209 H   0  0  0  0  0  0  0  0  0  0  0  0
   -5.1561    1.6751   -1.2060 H   0  0  0  0  0  0  0  0  0  0  0  0
    2.1835    1.2842    0.2642 H   0  0  0  0  0  0  0  0  0  0  0  0
    4.0940   -1.7679   -0.7497 H   0  0  0  0  0  0  0  0  0  0  0  0
    6.5268   -1.7839   -0.7320 H   0  0  0  0  0  0  0  0  0  0  0  0
    7.8127    0.2012    0.0064 H   0  0  0  0  0  0  0  0  0  0  0  0
    6.5813    2.2337    0.7380 H   0  0  0  0  0  0  0  0  0  0  0  0
    4.1340    2.2630    0.7350 H   0  0  0  0  0  0  0  0  0  0  0  0
  8  6  1  0
  9  5  1  0
  7  1  1  0
  1  6  1  0
  1  2  1  0
  6  5  1  0
  5  4  1  0
  2 11  2  0
  2 10  1  0
  3  4  1  0
  4 10  1  0
 11 12  1  0
 12 13  1  0
 14 13  2  0
 13 15  1  0
 15 16  1  0
 16 17  2  0
 16 21  1  0
 17 18  1  0
 21 20  2  0
 18 19  2  0
 20 19  1  0
  1 22  1  6
  3 23  1  0
  3 24  1  0
  3 25  1  0
  4 26  1  1
  5 27  1  1
  6 28  1  1
  7 29  1  0
  8 30  1  0
  9 31  1  0
 15 32  1  0
 17 33  1  0
 18 34  1  0
 19 35  1  0
 20 36  1  0
 21 37  1  0
M  END
