
     RDKit          3D

 36 37  0  0  0  0  0  0  0  0999 V2000
   -5.1623   -1.2396    0.1326 N   0  0  0  0  0  0  0  0  0  0  0  0
   -4.2121   -2.1611    0.1573 C   0  0  0  0  0  0  0  0  0  0  0  0
   -2.9197   -1.9763    0.0905 N   0  0  0  0  0  0  0  0  0  0  0  0
   -2.4693   -0.7126   -0.0017 C   0  0  0  0  0  0  0  0  0  0  0  0
   -3.4035    0.3701   -0.0001 C   0  0  0  0  0  0  0  0  0  0  0  0
   -4.7751    0.0197    0.0535 C   0  0  0  0  0  0  0  0  0  0  0  0
   -1.1527   -0.5744   -0.0734 N   0  0  0  0  0  0  0  0  0  0  0  0
    1.1739   -1.1838   -0.0331 C   0  0  0  0  0  0  0  0  0  0  0  0
    1.8496   -1.0072    1.1714 C   0  0  0  0  0  0  0  0  0  0  0  0
    3.1403   -0.5075    1.1910 C   0  0  0  0  0  0  0  0  0  0  0  0
    3.7507   -0.1733   -0.0104 C   0  0  0  0  0  0  0  0  0  0  0  0
    3.0948   -0.3318   -1.2213 C   0  0  0  0  0  0  0  0  0  0  0  0
    1.8051   -0.8420   -1.2241 C   0  0  0  0  0  0  0  0  0  0  0  0
    5.4022    0.4658    0.0180 S   0  0  1  0  0  0  0  0  0  0  0  0
    5.6397    1.1383   -1.2517 O   0  0  0  0  0  0  0  0  0  0  0  0
    5.6083    1.2155    1.2484 O   0  0  0  0  0  0  0  0  0  0  0  0
    6.2790   -0.9237    0.1823 N   0  0  0  0  0  0  0  0  0  0  0  0
   -2.9790    1.7259   -0.0452 N   0  0  0  0  0  0  0  0  0  0  0  0
   -1.7996    1.9556   -0.2775 O   0  0  0  0  0  0  0  0  0  0  0  0
   -3.7754    2.6132    0.1509 O   0  0  0  0  0  0  0  0  0  0  0  0
   -5.6914    0.9504    0.0057 O   0  0  0  0  0  0  0  0  0  0  0  0
   -7.0677    0.5614    0.0294 C   0  0  0  0  0  0  0  0  0  0  0  0
   -0.2371   -1.7024   -0.0427 C   0  0  0  0  0  0  0  0  0  0  0  0
   -4.5478   -3.1893    0.2372 H   0  0  0  0  0  0  0  0  0  0  0  0
   -0.7851    0.3577   -0.1813 H   0  0  0  0  0  0  0  0  0  0  0  0
    1.3666   -1.2657    2.1050 H   0  0  0  0  0  0  0  0  0  0  0  0
    3.6539   -0.3781    2.1341 H   0  0  0  0  0  0  0  0  0  0  0  0
    3.5715   -0.0681   -2.1551 H   0  0  0  0  0  0  0  0  0  0  0  0
    1.2910   -0.9770   -2.1674 H   0  0  0  0  0  0  0  0  0  0  0  0
    6.3482   -1.4489   -0.6834 H   0  0  0  0  0  0  0  0  0  0  0  0
    7.2046   -0.7382    0.5573 H   0  0  0  0  0  0  0  0  0  0  0  0
   -7.3142   -0.0845   -0.8115 H   0  0  0  0  0  0  0  0  0  0  0  0
   -7.3200    0.0551    0.9597 H   0  0  0  0  0  0  0  0  0  0  0  0
   -7.6252    1.4902   -0.0452 H   0  0  0  0  0  0  0  0  0  0  0  0
   -0.4229   -2.3100    0.8438 H   0  0  0  0  0  0  0  0  0  0  0  0
   -0.3994   -2.3442   -0.9114 H   0  0  0  0  0  0  0  0  0  0  0  0
  1  2  2  0
  1  6  1  0
  2  3  1  0
  3  4  2  0
  4  5  1  0
  4  7  1  0
  5  6  2  0
  5 18  1  0
  6 21  1  0
  7 23  1  0
  8  9  2  0
  8 13  1  0
  8 23  1  0
  9 10  1  0
 10 11  2  0
 11 12  1  0
 11 14  1  0
 12 13  2  0
 14 15  2  0
 14 16  2  0
 14 17  1  1
 18 19  1  0
 18 20  2  0
 21 22  1  0
  2 24  1  0
  7 25  1  0
  9 26  1  0
 10 27  1  0
 12 28  1  0
 13 29  1  0
 17 30  1  0
 17 31  1  0
 22 32  1  0
 22 33  1  0
 22 34  1  0
 23 35  1  0
 23 36  1  0
M  CHG  2  18   1  19  -1
M  END
