
     RDKit          3D

 27 27  0  0  0  0  0  0  0  0999 V2000
   -3.2504    0.2274    0.0008 S   0  0  1  0  0  0  0  0  0  0  0  0
    3.5231    0.3365    0.0765 N   0  0  0  0  0  0  0  0  0  0  0  0
    3.1174   -1.8029   -0.5045 O   0  0  0  0  0  0  0  0  0  0  0  0
    1.2399   -0.4072   -0.1253 C   0  0  0  0  0  0  0  0  0  0  0  0
   -0.9815   -1.2661    0.2408 C   0  0  0  0  0  0  0  0  0  0  0  0
    0.3847   -1.4642    0.1832 C   0  0  0  0  0  0  0  0  0  0  0  0
   -1.4931   -0.0030   -0.0322 C   0  0  0  0  0  0  0  0  0  0  0  0
    0.7082    0.8477   -0.4001 C   0  0  0  0  0  0  0  0  0  0  0  0
   -0.6634    1.0555   -0.3593 C   0  0  0  0  0  0  0  0  0  0  0  0
    4.9691    0.2237    0.0281 C   0  0  0  0  0  0  0  0  0  0  0  0
   -3.5363    1.5594   -0.5132 O   0  0  0  0  0  0  0  0  0  0  0  0
    5.6121    1.5833    0.2212 C   0  0  0  0  0  0  0  0  0  0  0  0
   -3.8946   -0.9122   -0.6347 O   0  0  0  0  0  0  0  0  0  0  0  0
   -3.5532    0.0774    1.6148 N   0  0  0  0  0  0  0  0  0  0  0  0
    3.1335    1.1860    0.4521 H   0  0  0  0  0  0  0  0  0  0  0  0
   -1.6345   -2.0906    0.4935 H   0  0  0  0  0  0  0  0  0  0  0  0
    0.7893   -2.4463    0.3858 H   0  0  0  0  0  0  0  0  0  0  0  0
    1.3471    1.6765   -0.6764 H   0  0  0  0  0  0  0  0  0  0  0  0
   -1.0667    2.0316   -0.5893 H   0  0  0  0  0  0  0  0  0  0  0  0
    5.3174   -0.4706    0.7975 H   0  0  0  0  0  0  0  0  0  0  0  0
    5.2616   -0.1969   -0.9354 H   0  0  0  0  0  0  0  0  0  0  0  0
    5.3514    2.0146    1.1889 H   0  0  0  0  0  0  0  0  0  0  0  0
    6.6961    1.4891    0.1814 H   0  0  0  0  0  0  0  0  0  0  0  0
    5.3063    2.2815   -0.5585 H   0  0  0  0  0  0  0  0  0  0  0  0
   -4.5262   -0.1524    1.7941 H   0  0  0  0  0  0  0  0  0  0  0  0
   -3.2765    0.8956    2.1473 H   0  0  0  0  0  0  0  0  0  0  0  0
    2.7106   -0.6895   -0.2008 C   0  0  0  0  0  0  0  0  0  0  0  0
  7  1  1  0
  1 14  1  1
 11  1  2  0
  1 13  2  0
 10  2  1  0
  2 27  1  0
  2 15  1  0
  3 27  2  0
 27  4  1  0
  4  6  2  0
  4  8  1  0
  6  5  1  0
  5  7  2  0
  5 16  1  0
  6 17  1  0
  9  7  1  0
  8  9  2  0
  8 18  1  0
  9 19  1  0
 10 12  1  0
 10 20  1  0
 10 21  1  0
 12 22  1  0
 12 23  1  0
 12 24  1  0
 14 25  1  0
 14 26  1  0
M  END
