
     RDKit          3D

 23 23  0  0  0  0  0  0  0  0999 V2000
    0.1614    0.0009    3.9410 B   0  0  0  0  0  0  0  0  0  0  0  0
    1.4289   -0.0193    4.4337 O   0  0  0  0  0  0  0  0  0  0  0  0
   -0.9681    0.0272    4.6976 O   0  0  0  0  0  0  0  0  0  0  0  0
   -0.0112   -0.0036    2.3788 C   0  0  0  0  0  0  0  0  0  0  0  0
   -1.2766   -0.0175    1.7895 C   0  0  0  0  0  0  0  0  0  0  0  0
   -1.4291   -0.0212    0.4122 C   0  0  0  0  0  0  0  0  0  0  0  0
   -0.3161   -0.0085   -0.4309 C   0  0  0  0  0  0  0  0  0  0  0  0
   -0.5332   -0.0095   -1.8728 C   0  0  0  0  0  0  0  0  0  0  0  0
    0.4086    0.0211   -2.8223 C   0  0  0  0  0  0  0  0  0  0  0  0
    0.0334    0.0179   -4.2449 C   0  0  0  0  0  0  0  0  0  0  0  0
    1.1053    0.0601   -5.0310 O   0  0  0  0  0  0  0  0  0  0  0  0
   -1.0981   -0.0175   -4.6722 O   0  0  0  0  0  0  0  0  0  0  0  0
    0.9559    0.0055    0.1507 C   0  0  0  0  0  0  0  0  0  0  0  0
    1.0990    0.0070    1.5255 C   0  0  0  0  0  0  0  0  0  0  0  0
    1.5082   -0.0125    5.3927 H   0  0  0  0  0  0  0  0  0  0  0  0
   -0.8353    0.0270    5.6505 H   0  0  0  0  0  0  0  0  0  0  0  0
   -2.1638   -0.0260    2.4101 H   0  0  0  0  0  0  0  0  0  0  0  0
   -2.4240   -0.0331   -0.0171 H   0  0  0  0  0  0  0  0  0  0  0  0
   -1.5726   -0.0359   -2.1860 H   0  0  0  0  0  0  0  0  0  0  0  0
    1.4654    0.0510   -2.5876 H   0  0  0  0  0  0  0  0  0  0  0  0
    0.8334    0.0574   -5.9605 H   0  0  0  0  0  0  0  0  0  0  0  0
    1.8420    0.0147   -0.4716 H   0  0  0  0  0  0  0  0  0  0  0  0
    2.0991    0.0174    1.9402 H   0  0  0  0  0  0  0  0  0  0  0  0
  1  2  1  0
  1  3  1  0
  1  4  1  0
  2 15  1  0
  3 16  1  0
  4  5  2  0
  4 14  1  0
  5  6  1  0
  5 17  1  0
  6  7  2  0
  6 18  1  0
  7  8  1  0
  7 13  1  0
  8  9  2  0
  8 19  1  0
  9 10  1  0
  9 20  1  0
 10 11  1  0
 10 12  2  0
 11 21  1  0
 13 14  2  0
 13 22  1  0
 14 23  1  0
M  END
