
     RDKit          3D

 69 73  0  0  0  0  0  0  0  0999 V2000
   18.6829   17.1808   81.8064 C   0  0  2  0  0  0  0  0  0  0  0  0
   19.8613   17.6537   80.9605 C   0  0  0  0  0  0  0  0  0  0  0  0
   21.1151   16.9780   81.4698 C   0  0  0  0  0  0  0  0  0  0  0  0
   20.7868   15.8696   82.2081 N   0  0  0  0  0  0  0  0  0  0  0  0
   19.1526   15.4880   82.2539 S   0  0  1  0  0  0  0  0  0  0  0  0
   18.7753   15.1324   83.6074 O   0  0  0  0  0  0  0  0  0  0  0  0
   18.8238   14.5646   81.1840 O   0  0  0  0  0  0  0  0  0  0  0  0
   22.2463   17.3371   81.2589 O   0  0  0  0  0  0  0  0  0  0  0  0
   17.3154   17.2190   81.1980 C   0  0  0  0  0  0  0  0  0  0  0  0
   17.0813   16.8423   79.8786 C   0  0  0  0  0  0  0  0  0  0  0  0
   15.8016   16.8992   79.3521 C   0  0  0  0  0  0  0  0  0  0  0  0
   14.7252   17.3236   80.1269 C   0  0  0  0  0  0  0  0  0  0  0  0
   14.9606   17.6813   81.4508 C   0  0  0  0  0  0  0  0  0  0  0  0
   16.2404   17.6294   81.9807 C   0  0  0  0  0  0  0  0  0  0  0  0
   13.3572   17.4730   79.5258 C   0  0  0  0  0  0  0  0  0  0  0  0
   13.0909   18.9332   79.1250 C   0  0  2  0  0  0  0  0  0  0  0  0
   11.8095   18.9886   78.4329 N   0  0  0  0  0  0  0  0  0  0  0  0
   10.9925   20.4202   78.3519 S   0  0  1  0  0  0  0  0  0  0  0  0
    9.7877   20.1430   77.5900 O   0  0  0  0  0  0  0  0  0  0  0  0
   10.9033   20.9296   79.7093 O   0  0  0  0  0  0  0  0  0  0  0  0
   15.5119   19.8084   76.5249 C   0  0  2  0  0  0  0  0  0  0  0  0
   16.2226   20.3709   77.7810 C   0  0  0  0  0  0  0  0  0  0  0  0
   14.3078   19.1475   77.0240 N   0  0  0  0  0  0  0  0  0  0  0  0
   14.2137   19.4430   78.2585 C   0  0  0  0  0  0  0  0  0  0  0  0
   15.1670   20.2662   78.7735 N   0  0  0  0  0  0  0  0  0  0  0  0
   12.7974   22.2853   75.3131 C   0  0  0  0  0  0  0  0  0  0  0  0
   13.5753   23.2530   75.9248 C   0  0  0  0  0  0  0  0  0  0  0  0
   11.9917   21.4255   76.0267 C   0  0  0  0  0  0  0  0  0  0  0  0
   11.9849   21.5527   77.4105 C   0  0  0  0  0  0  0  0  0  0  0  0
   12.7531   22.5025   78.0632 C   0  0  0  0  0  0  0  0  0  0  0  0
   13.5459   23.3552   77.3055 C   0  0  0  0  0  0  0  0  0  0  0  0
   16.3913   18.8715   75.7143 C   0  0  0  0  0  0  0  0  0  0  0  0
   17.3045   17.8996   72.5900 C   0  0  0  0  0  0  0  0  0  0  0  0
   16.5919   17.4111   73.6827 C   0  0  0  0  0  0  0  0  0  0  0  0
   16.7730   16.0778   74.0479 C   0  0  0  0  0  0  0  0  0  0  0  0
   17.6416   15.2558   73.3431 C   0  0  0  0  0  0  0  0  0  0  0  0
   18.3469   15.7557   72.2552 C   0  0  0  0  0  0  0  0  0  0  0  0
   18.1741   17.0813   71.8799 C   0  0  0  0  0  0  0  0  0  0  0  0
   18.6862   17.7229   82.7550 H   0  0  0  0  0  0  0  0  0  0  0  0
   19.7462   17.3915   79.9065 H   0  0  0  0  0  0  0  0  0  0  0  0
   19.9673   18.7357   81.0197 H   0  0  0  0  0  0  0  0  0  0  0  0
   21.4854   15.2194   82.5546 H   0  0  0  0  0  0  0  0  0  0  0  0
   17.8905   16.5053   79.2441 H   0  0  0  0  0  0  0  0  0  0  0  0
   16.4034   17.9196   83.0115 H   0  0  0  0  0  0  0  0  0  0  0  0
   15.6383   16.6226   78.3178 H   0  0  0  0  0  0  0  0  0  0  0  0
   14.1379   18.0124   82.0738 H   0  0  0  0  0  0  0  0  0  0  0  0
   13.2682   16.8431   78.6387 H   0  0  0  0  0  0  0  0  0  0  0  0
   12.5851   17.1652   80.2327 H   0  0  0  0  0  0  0  0  0  0  0  0
   13.0216   19.5344   80.0334 H   0  0  0  0  0  0  0  0  0  0  0  0
   11.8459   18.5284   77.5263 H   0  0  0  0  0  0  0  0  0  0  0  0
   15.1996   20.6361   75.8755 H   0  0  0  0  0  0  0  0  0  0  0  0
   17.0929   19.7655   78.0616 H   0  0  0  0  0  0  0  0  0  0  0  0
   16.5556   21.4006   77.6502 H   0  0  0  0  0  0  0  0  0  0  0  0
   17.2908   19.4137   75.4068 H   0  0  0  0  0  0  0  0  0  0  0  0
   16.7300   18.0502   76.3551 H   0  0  0  0  0  0  0  0  0  0  0  0
   15.3885   20.2418   79.7565 H   0  0  0  0  0  0  0  0  0  0  0  0
   14.1913   23.9133   75.3291 H   0  0  0  0  0  0  0  0  0  0  0  0
   11.3944   20.6847   75.5116 H   0  0  0  0  0  0  0  0  0  0  0  0
   14.1456   24.1073   77.7991 H   0  0  0  0  0  0  0  0  0  0  0  0
   12.7377   22.5937   79.1395 H   0  0  0  0  0  0  0  0  0  0  0  0
   14.7995   17.7571   74.8007 H   0  0  0  0  0  0  0  0  0  0  0  0
   15.3361   19.1330   73.8569 H   0  0  0  0  0  0  0  0  0  0  0  0
   18.7153   17.4802   71.0312 H   0  0  0  0  0  0  0  0  0  0  0  0
   16.2247   15.6778   74.8937 H   0  0  0  0  0  0  0  0  0  0  0  0
   17.7663   14.2225   73.6415 H   0  0  0  0  0  0  0  0  0  0  0  0
   19.0247   15.1163   71.7047 H   0  0  0  0  0  0  0  0  0  0  0  0
   15.6875   18.3065   74.4812 C   0  0  0  0  0  0  0  0  0  0  0  0
   12.8257   22.1809   73.9781 F   0  0  0  0  0  0  0  0  0  0  0  0
   17.1759   18.9331   72.2887 H   0  0  0  0  0  0  0  0  0  0  0  0
  1  2  1  0
  1  5  1  0
  1  9  1  0
  2  3  1  0
  3  4  1  0
  3  8  2  0
  5  4  1  1
  5  6  2  0
  5  7  2  0
  9 10  2  0
  9 14  1  0
 10 11  1  0
 11 12  2  0
 12 13  1  0
 12 15  1  0
 13 14  2  0
 15 16  1  0
 16 17  1  0
 16 24  1  0
 18 17  1  1
 18 19  2  0
 18 20  2  0
 18 29  1  0
 21 22  1  0
 21 23  1  0
 21 32  1  0
 22 25  1  0
 23 24  2  0
 24 25  1  0
 68 26  1  0
 26 27  2  0
 26 28  1  0
 27 31  1  0
 28 29  2  0
 29 30  1  0
 30 31  2  0
 67 32  1  0
 67 34  1  0
 33 34  2  0
 33 38  1  0
 34 35  1  0
 35 36  2  0
 36 37  1  0
 37 38  2  0
  1 39  1  1
  2 40  1  0
  2 41  1  0
  4 42  1  0
 10 43  1  0
 14 44  1  0
 11 45  1  0
 13 46  1  0
 15 47  1  0
 15 48  1  0
 16 49  1  1
 17 50  1  0
 21 51  1  6
 22 52  1  0
 22 53  1  0
 32 54  1  0
 32 55  1  0
 25 56  1  0
 27 57  1  0
 28 58  1  0
 31 59  1  0
 30 60  1  0
 67 61  1  0
 67 62  1  0
 33 69  1  0
 38 63  1  0
 35 64  1  0
 36 65  1  0
 37 66  1  0
M  END
