
     RDKit          3D

 30 32  0  0  0  0  0  0  0  0999 V2000
   -4.2917    1.4900   -0.8945 O   0  0  0  0  0  0  0  0  0  0  0  0
   -3.5233    0.6742   -0.4179 C   0  0  0  0  0  0  0  0  0  0  0  0
   -3.9658   -0.5802    0.0158 N   0  0  0  0  0  0  0  0  0  0  0  0
   -3.1964   -1.5511    0.5586 C   0  0  0  0  0  0  0  0  0  0  0  0
   -1.9219   -1.4568    0.7541 N   0  0  0  0  0  0  0  0  0  0  0  0
   -1.4248   -0.2671    0.3560 C   0  0  0  0  0  0  0  0  0  0  0  0
   -2.1126    0.7917   -0.2059 C   0  0  0  0  0  0  0  0  0  0  0  0
   -1.2635    1.8254   -0.4703 N   0  0  0  0  0  0  0  0  0  0  0  0
   -0.0945    1.4000   -0.0800 C   0  0  0  0  0  0  0  0  0  0  0  0
   -0.1301    0.1341    0.4300 N   0  0  0  0  0  0  0  0  0  0  0  0
    0.9749   -0.6831    0.9467 C   0  0  2  0  0  0  0  0  0  0  0  0
    2.0843    0.1395    1.1393 O   0  0  0  0  0  0  0  0  0  0  0  0
    1.3965   -1.7626   -0.0383 C   0  0  0  0  0  0  0  0  0  0  0  0
    2.4748   -1.0502   -0.8488 C   0  0  2  0  0  0  0  0  0  0  0  0
    3.4291   -1.8833   -1.4436 O   0  0  0  0  0  0  0  0  0  0  0  0
    3.1346   -0.1925    0.2275 C   0  0  1  0  0  0  0  0  0  0  0  0
    3.7850    1.0591   -0.3047 C   0  0  0  0  0  0  0  0  0  0  0  0
    4.3909    1.7491    0.7605 O   0  0  0  0  0  0  0  0  0  0  0  0
   -4.9538   -0.7745   -0.0879 H   0  0  0  0  0  0  0  0  0  0  0  0
   -3.7191   -2.4567    0.8359 H   0  0  0  0  0  0  0  0  0  0  0  0
    0.8157    1.9755   -0.1293 H   0  0  0  0  0  0  0  0  0  0  0  0
    0.6364   -1.0942    1.8997 H   0  0  0  0  0  0  0  0  0  0  0  0
    1.8454   -2.5929    0.5118 H   0  0  0  0  0  0  0  0  0  0  0  0
    0.5695   -2.1530   -0.6296 H   0  0  0  0  0  0  0  0  0  0  0  0
    2.0024   -0.3982   -1.5982 H   0  0  0  0  0  0  0  0  0  0  0  0
    3.0402   -2.2788   -2.2293 H   0  0  0  0  0  0  0  0  0  0  0  0
    3.8836   -0.7991    0.7544 H   0  0  0  0  0  0  0  0  0  0  0  0
    3.0310    1.6713   -0.8172 H   0  0  0  0  0  0  0  0  0  0  0  0
    4.5157    0.7549   -1.0653 H   0  0  0  0  0  0  0  0  0  0  0  0
    4.7965    2.5472    0.4100 H   0  0  0  0  0  0  0  0  0  0  0  0
  1  2  2  0
  2  3  1  0
  2  7  1  0
  3  4  1  0
  3 19  1  0
  4  5  2  0
  4 20  1  0
  5  6  1  0
  6  7  2  0
  6 10  1  0
  7  8  1  0
  8  9  2  0
  9 10  1  0
  9 21  1  0
 10 11  1  0
 11 12  1  0
 11 13  1  0
 11 22  1  1
 12 16  1  0
 13 14  1  0
 13 23  1  0
 13 24  1  0
 14 15  1  0
 14 16  1  0
 14 25  1  6
 15 26  1  0
 16 17  1  0
 16 27  1  1
 17 18  1  0
 17 28  1  0
 17 29  1  0
 18 30  1  0
M  END
