
     RDKit          3D

 37 38  0  0  0  0  0  0  0  0999 V2000
    2.9159    0.0840    0.1052 N   0  0  0  0  0  0  0  0  0  0  0  0
    4.3287    0.1231    0.4366 C   0  0  0  0  0  0  0  0  0  0  0  0
    0.6165    0.1634    0.8917 C   0  0  0  0  0  0  0  0  0  0  0  0
    0.1199    1.2542    0.1821 C   0  0  0  0  0  0  0  0  0  0  0  0
   -1.2160    1.3135   -0.1687 C   0  0  0  0  0  0  0  0  0  0  0  0
   -1.5928   -0.7969    0.8575 C   0  0  0  0  0  0  0  0  0  0  0  0
   -2.1083    0.2880    0.1546 C   0  0  0  0  0  0  0  0  0  0  0  0
   -3.5294    0.4041   -0.2387 C   0  0  0  0  0  0  0  0  0  0  0  0
   -4.2838    1.4880    0.2056 C   0  0  0  0  0  0  0  0  0  0  0  0
   -5.6109    1.6297   -0.1775 C   0  0  0  0  0  0  0  0  0  0  0  0
   -6.1967    0.6922   -1.0168 C   0  0  0  0  0  0  0  0  0  0  0  0
   -5.4489   -0.3874   -1.4706 C   0  0  0  0  0  0  0  0  0  0  0  0
   -4.1252   -0.5324   -1.0826 C   0  0  0  0  0  0  0  0  0  0  0  0
   -0.2545   -0.8644    1.2227 C   0  0  0  0  0  0  0  0  0  0  0  0
    2.0678    0.1003    1.2810 C   0  0  0  0  0  0  0  0  0  0  0  0
    5.1592    0.0431   -0.8320 C   0  0  0  0  0  0  0  0  0  0  0  0
    6.6489    0.1614   -0.5880 C   0  0  0  0  0  0  0  0  0  0  0  0
    7.1433    0.0942    0.5285 O   0  0  0  0  0  0  0  0  0  0  0  0
    7.3836    0.3391   -1.6977 N   0  0  0  0  0  0  0  0  0  0  0  0
    2.7210   -0.7602   -0.4213 H   0  0  0  0  0  0  0  0  0  0  0  0
    4.5307    1.0664    0.9512 H   0  0  0  0  0  0  0  0  0  0  0  0
    4.6241   -0.6783    1.1281 H   0  0  0  0  0  0  0  0  0  0  0  0
    0.7830    2.0642   -0.0941 H   0  0  0  0  0  0  0  0  0  0  0  0
   -1.5870    2.1703   -0.7174 H   0  0  0  0  0  0  0  0  0  0  0  0
   -3.8325    2.2203    0.8641 H   0  0  0  0  0  0  0  0  0  0  0  0
   -6.1864    2.4722    0.1836 H   0  0  0  0  0  0  0  0  0  0  0  0
   -7.2300    0.8030   -1.3187 H   0  0  0  0  0  0  0  0  0  0  0  0
   -5.8969   -1.1175   -2.1321 H   0  0  0  0  0  0  0  0  0  0  0  0
   -3.5477   -1.3708   -1.4507 H   0  0  0  0  0  0  0  0  0  0  0  0
    0.1078   -1.7237    1.7732 H   0  0  0  0  0  0  0  0  0  0  0  0
    2.2321   -0.7595    1.9475 H   0  0  0  0  0  0  0  0  0  0  0  0
    2.3187    0.9909    1.8654 H   0  0  0  0  0  0  0  0  0  0  0  0
    4.9767   -0.9115   -1.3378 H   0  0  0  0  0  0  0  0  0  0  0  0
    4.8412    0.8186   -1.5339 H   0  0  0  0  0  0  0  0  0  0  0  0
    6.9653    0.3761   -2.6111 H   0  0  0  0  0  0  0  0  0  0  0  0
    8.3882    0.3776   -1.6451 H   0  0  0  0  0  0  0  0  0  0  0  0
   -2.6306   -2.1012    1.3431 Cl  0  0  0  0  0  0  0  0  0  0  0  0
 10  9  2  0
 10 11  1  0
  9  8  1  0
 11 12  2  0
  8  7  1  0
  8 13  2  0
 12 13  1  0
  5  7  2  0
  5  4  1  0
  7  6  1  0
  4  3  2  0
  6 37  1  0
  6 14  2  0
  3 14  1  0
  3 15  1  0
 15  1  1  0
  2  1  1  0
  2 16  1  0
 18 17  2  0
 17 16  1  0
 17 19  1  0
  1 20  1  0
  2 21  1  0
  2 22  1  0
  4 23  1  0
  5 24  1  0
  9 25  1  0
 10 26  1  0
 11 27  1  0
 12 28  1  0
 13 29  1  0
 14 30  1  0
 15 31  1  0
 15 32  1  0
 16 33  1  0
 16 34  1  0
 19 35  1  0
 19 36  1  0
M  END
