
     RDKit          3D

 34 35  0  0  0  0  0  0  0  0999 V2000
    0.5599   -3.8725    0.0027 O   0  0  0  0  0  0  0  0  0  0  0  0
    1.4342   -3.0395    0.0116 C   0  0  0  0  0  0  0  0  0  0  0  0
    1.1569   -1.5708    0.0294 C   0  0  0  0  0  0  0  0  0  0  0  0
    2.1772   -0.7572    0.0391 N   0  0  0  0  0  0  0  0  0  0  0  0
    1.9362    0.5672    0.0475 C   0  0  0  0  0  0  0  0  0  0  0  0
    3.0770    1.4351    0.0553 C   0  0  0  0  0  0  0  0  0  0  0  0
    4.3200    0.8857    0.1261 N   0  0  0  0  0  0  0  0  0  0  0  0
   -0.1870   -1.1558    0.0332 C   0  0  0  0  0  0  0  0  0  0  0  0
   -0.4526    0.1928    0.0386 C   0  0  0  0  0  0  0  0  0  0  0  0
    0.6328    1.1186    0.0394 C   0  0  0  0  0  0  0  0  0  0  0  0
    0.4517    2.5145    0.0282 C   0  0  0  0  0  0  0  0  0  0  0  0
    1.5614    3.3240    0.0200 C   0  0  0  0  0  0  0  0  0  0  0  0
    2.8605    2.8018    0.0323 C   0  0  0  0  0  0  0  0  0  0  0  0
   -1.6679    0.7289    0.0414 O   0  0  0  0  0  0  0  0  0  0  0  0
   -2.8102   -0.1230    0.0368 C   0  0  0  0  0  0  0  0  0  0  0  0
   -4.0451    0.7511    0.0320 C   0  0  0  0  0  0  0  0  0  0  0  0
   -5.3140   -0.0904    0.0274 C   0  0  0  0  0  0  0  0  0  0  0  0
    2.7230   -3.3242    0.0062 O   0  0  0  0  0  0  0  0  0  0  0  0
    4.3927   -0.0935   -0.0965 H   0  0  0  0  0  0  0  0  0  0  0  0
    5.0970    1.4487   -0.1758 H   0  0  0  0  0  0  0  0  0  0  0  0
   -0.9721   -1.8968    0.0294 H   0  0  0  0  0  0  0  0  0  0  0  0
   -0.5397    2.9433    0.0218 H   0  0  0  0  0  0  0  0  0  0  0  0
    1.4367    4.3992    0.0054 H   0  0  0  0  0  0  0  0  0  0  0  0
    3.7075    3.4769    0.0295 H   0  0  0  0  0  0  0  0  0  0  0  0
   -2.7907   -0.7673   -0.8484 H   0  0  0  0  0  0  0  0  0  0  0  0
   -2.7980   -0.7675    0.9223 H   0  0  0  0  0  0  0  0  0  0  0  0
   -4.0459    1.4020    0.9098 H   0  0  0  0  0  0  0  0  0  0  0  0
   -4.0306    1.3947   -0.8528 H   0  0  0  0  0  0  0  0  0  0  0  0
   -5.2740   -0.7965   -0.8143 H   0  0  0  0  0  0  0  0  0  0  0  0
   -5.3454   -0.6975    0.9361 H   0  0  0  0  0  0  0  0  0  0  0  0
    2.8411   -4.2860   -0.0049 H   0  0  0  0  0  0  0  0  0  0  0  0
   -6.4897    0.7668    0.0106 N   0  0  0  0  0  0  0  0  0  0  0  0
   -6.5421    1.2397   -0.8837 H   0  0  0  0  0  0  0  0  0  0  0  0
   -7.3223    0.1941    0.0626 H   0  0  0  0  0  0  0  0  0  0  0  0
  1  2  2  0
  2  3  1  0
  3  8  2  0
  3  4  1  0
  8  9  1  0
  4  5  2  0
  9 14  1  0
  9 10  2  0
 17 16  1  0
  5 10  1  0
  5  6  1  0
 15 14  1  0
 15 16  1  0
  7  6  1  0
 10 11  1  0
  6 13  2  0
 11 12  2  0
 13 12  1  0
  2 18  1  0
  7 19  1  0
  7 20  1  0
  8 21  1  0
 11 22  1  0
 12 23  1  0
 13 24  1  0
 15 25  1  0
 15 26  1  0
 16 27  1  0
 16 28  1  0
 17 29  1  0
 17 30  1  0
 18 31  1  0
 17 32  1  0
 32 33  1  0
 32 34  1  0
M  END
