
     RDKit          3D

 39 42  0  0  0  0  0  0  0  0999 V2000
   -2.1781   -1.0840   -0.0884 C   0  0  0  0  0  0  0  0  0  0  0  0
   -0.8209   -1.1561    0.0330 N   0  0  0  0  0  0  0  0  0  0  0  0
   -2.7155    0.2814   -0.0706 C   0  0  0  0  0  0  0  0  0  0  0  0
   -4.0976    0.4658   -0.1206 C   0  0  0  0  0  0  0  0  0  0  0  0
   -4.6255    1.7395   -0.0964 C   0  0  0  0  0  0  0  0  0  0  0  0
   -3.7760    2.8429   -0.0235 C   0  0  0  0  0  0  0  0  0  0  0  0
   -2.4075    2.6706    0.0213 C   0  0  0  0  0  0  0  0  0  0  0  0
   -1.8593    1.3845   -0.0058 C   0  0  0  0  0  0  0  0  0  0  0  0
   -0.4316    1.0976    0.0280 C   0  0  0  0  0  0  0  0  0  0  0  0
    0.0317   -0.1014    0.0533 N   0  0  0  0  0  0  0  0  0  0  0  0
   -0.1573   -2.4157    0.0228 C   0  0  0  0  0  0  0  0  0  0  0  0
    0.8551   -2.6369   -0.9024 C   0  0  0  0  0  0  0  0  0  0  0  0
    1.5281   -3.8497   -0.9094 C   0  0  0  0  0  0  0  0  0  0  0  0
    1.1885   -4.8433   -0.0007 C   0  0  0  0  0  0  0  0  0  0  0  0
    0.1783   -4.6131    0.9238 C   0  0  0  0  0  0  0  0  0  0  0  0
   -0.4951   -3.3998    0.9425 C   0  0  0  0  0  0  0  0  0  0  0  0
    0.4453    2.1407    0.0391 N   0  0  0  0  0  0  0  0  0  0  0  0
    1.8283    2.0868    0.0270 C   0  0  0  0  0  0  0  0  0  0  0  0
    2.7173    0.9919    0.0470 C   0  0  0  0  0  0  0  0  0  0  0  0
    3.9703    1.5719    0.0183 C   0  0  0  0  0  0  0  0  0  0  0  0
    3.7671    2.8965   -0.0130 N   0  0  0  0  0  0  0  0  0  0  0  0
    2.4760    3.2378   -0.0084 N   0  0  0  0  0  0  0  0  0  0  0  0
    5.3220    0.9536    0.0029 C   0  0  0  0  0  0  0  0  0  0  0  0
   -2.8799   -2.0794   -0.2009 O   0  0  0  0  0  0  0  0  0  0  0  0
   -4.7497   -0.3947   -0.1733 H   0  0  0  0  0  0  0  0  0  0  0  0
   -5.6969    1.8825   -0.1308 H   0  0  0  0  0  0  0  0  0  0  0  0
   -4.1879    3.8428   -0.0008 H   0  0  0  0  0  0  0  0  0  0  0  0
   -1.7853    3.5534    0.0814 H   0  0  0  0  0  0  0  0  0  0  0  0
    1.1189   -1.8616   -1.6095 H   0  0  0  0  0  0  0  0  0  0  0  0
    2.3159   -4.0170   -1.6321 H   0  0  0  0  0  0  0  0  0  0  0  0
    1.7117   -5.7904   -0.0095 H   0  0  0  0  0  0  0  0  0  0  0  0
   -0.0849   -5.3782    1.6423 H   0  0  0  0  0  0  0  0  0  0  0  0
   -1.2660   -3.2237    1.6798 H   0  0  0  0  0  0  0  0  0  0  0  0
    0.0729    3.0732   -0.0145 H   0  0  0  0  0  0  0  0  0  0  0  0
    2.4915   -0.0574    0.0774 H   0  0  0  0  0  0  0  0  0  0  0  0
    5.8059    1.0764   -0.9671 H   0  0  0  0  0  0  0  0  0  0  0  0
    5.9750    1.3965    0.7553 H   0  0  0  0  0  0  0  0  0  0  0  0
    5.2485   -0.1122    0.2061 H   0  0  0  0  0  0  0  0  0  0  0  0
    4.4678    3.6191   -0.0407 H   0  0  0  0  0  0  0  0  0  0  0  0
  2  1  1  0
  3  1  1  0
  1 24  2  0
 10  2  1  0
  2 11  1  0
  8  3  2  0
  3  4  1  0
  5  4  2  0
  4 25  1  0
  6  5  1  0
  5 26  1  0
  7  6  2  0
  6 27  1  0
  7  8  1  0
  7 28  1  0
  9  8  1  0
 17  9  1  0
  9 10  2  0
 16 11  1  0
 11 12  2  0
 12 13  1  0
 12 29  1  0
 14 13  2  0
 13 30  1  0
 15 14  1  0
 14 31  1  0
 16 15  2  0
 15 32  1  0
 16 33  1  0
 18 17  1  0
 17 34  1  0
 22 18  2  0
 18 19  1  0
 20 19  2  0
 19 35  1  0
 21 20  1  0
 23 20  1  0
 21 22  1  0
 23 36  1  0
 23 37  1  0
 23 38  1  0
 21 39  1  0
M  END
