
     RDKit          3D

 45 47  0  0  0  0  0  0  0  0999 V2000
   71.7864   47.1746    0.7753 C   0  0  0  0  0  0  0  0  0  0  0  0
   71.4004   47.7866    1.9896 O   0  0  0  0  0  0  0  0  0  0  0  0
   71.8839   47.2878    3.1434 C   0  0  0  0  0  0  0  0  0  0  0  0
   72.7231   46.1799    3.2297 C   0  0  0  0  0  0  0  0  0  0  0  0
   73.1669   45.7642    4.4803 C   0  0  0  0  0  0  0  0  0  0  0  0
   72.7916   46.4282    5.6342 C   0  0  0  0  0  0  0  0  0  0  0  0
   71.9472   47.5399    5.5538 C   0  0  0  0  0  0  0  0  0  0  0  0
   71.5020   47.9590    4.3057 C   0  0  0  0  0  0  0  0  0  0  0  0
   71.5343   48.2630    6.7751 C   0  0  0  0  0  0  0  0  0  0  0  0
   72.4307   48.4564    7.8244 C   0  0  0  0  0  0  0  0  0  0  0  0
   72.0336   49.1504    8.9569 C   0  0  0  0  0  0  0  0  0  0  0  0
   70.7437   49.6491    9.0595 C   0  0  0  0  0  0  0  0  0  0  0  0
   69.8231   49.4548    8.0306 C   0  0  0  0  0  0  0  0  0  0  0  0
   68.4109   50.0394    8.1313 C   0  0  2  0  0  0  0  0  0  0  0  0
   68.4967   51.5492    7.9069 C   0  0  0  0  0  0  0  0  0  0  0  0
   67.7978   49.7514    9.5023 C   0  0  0  0  0  0  0  0  0  0  0  0
   67.5891   48.2770    9.6846 C   0  0  0  0  0  0  0  0  0  0  0  0
   67.6938   47.7068   10.7517 O   0  0  0  0  0  0  0  0  0  0  0  0
   67.2386   47.6087    8.5381 N   0  0  0  0  0  0  0  0  0  0  0  0
   66.9963   46.1743    8.5930 C   0  0  0  0  0  0  0  0  0  0  0  0
   67.0389   48.3317    7.3533 C   0  0  0  0  0  0  0  0  0  0  0  0
   66.3172   47.6777    6.4019 N   0  0  0  0  0  0  0  0  0  0  0  0
   67.5326   49.4852    7.1214 N   0  0  0  0  0  0  0  0  0  0  0  0
   70.2384   48.7675    6.8962 C   0  0  0  0  0  0  0  0  0  0  0  0
   71.3111   47.7416   -0.0213 H   0  0  0  0  0  0  0  0  0  0  0  0
   72.8694   47.2036    0.6300 H   0  0  0  0  0  0  0  0  0  0  0  0
   71.4506   46.1361    0.7147 H   0  0  0  0  0  0  0  0  0  0  0  0
   73.0367   45.6342    2.3503 H   0  0  0  0  0  0  0  0  0  0  0  0
   70.8655   48.8315    4.2161 H   0  0  0  0  0  0  0  0  0  0  0  0
   73.8134   44.8987    4.5459 H   0  0  0  0  0  0  0  0  0  0  0  0
   73.1333   46.0715    6.5972 H   0  0  0  0  0  0  0  0  0  0  0  0
   73.4456   48.0866    7.7497 H   0  0  0  0  0  0  0  0  0  0  0  0
   69.5356   48.6073    6.0894 H   0  0  0  0  0  0  0  0  0  0  0  0
   72.7379   49.3108    9.7631 H   0  0  0  0  0  0  0  0  0  0  0  0
   70.4639   50.1961    9.9512 H   0  0  0  0  0  0  0  0  0  0  0  0
   69.1474   52.0239    8.6419 H   0  0  0  0  0  0  0  0  0  0  0  0
   68.8938   51.7612    6.9138 H   0  0  0  0  0  0  0  0  0  0  0  0
   67.5067   52.0013    7.9839 H   0  0  0  0  0  0  0  0  0  0  0  0
   68.3823   50.1344   10.3376 H   0  0  0  0  0  0  0  0  0  0  0  0
   66.8192   50.2427    9.5555 H   0  0  0  0  0  0  0  0  0  0  0  0
   67.2824   45.7171    7.6502 H   0  0  0  0  0  0  0  0  0  0  0  0
   67.6004   45.7396    9.3826 H   0  0  0  0  0  0  0  0  0  0  0  0
   65.9490   45.9474    8.7968 H   0  0  0  0  0  0  0  0  0  0  0  0
   65.5486   47.0969    6.6988 H   0  0  0  0  0  0  0  0  0  0  0  0
   66.1016   48.2398    5.5938 H   0  0  0  0  0  0  0  0  0  0  0  0
  1  2  1  0
  2  3  1  0
  3  4  2  0
  3  8  1  0
  4  5  1  0
  5  6  2  0
  6  7  1  0
  7  8  2  0
  7  9  1  0
  9 10  2  0
  9 24  1  0
 10 11  1  0
 11 12  2  0
 12 13  1  0
 13 24  2  0
 13 14  1  0
 14 15  1  6
 14 16  1  0
 14 23  1  0
 16 17  1  0
 17 18  2  0
 17 19  1  0
 19 20  1  0
 19 21  1  0
 21 23  2  0
 21 22  1  0
  1 25  1  0
  1 26  1  0
  1 27  1  0
  4 28  1  0
  8 29  1  0
  5 30  1  0
  6 31  1  0
 10 32  1  0
 24 33  1  0
 11 34  1  0
 12 35  1  0
 15 36  1  0
 15 37  1  0
 15 38  1  0
 16 39  1  0
 16 40  1  0
 20 41  1  0
 20 42  1  0
 20 43  1  0
 22 44  1  0
 22 45  1  0
M  END
