
     RDKit          3D

 43 44  0  0  0  0  0  0  0  0999 V2000
    4.3744   -0.9436    0.2468 C   0  0  0  0  0  0  0  0  0  0  0  0
    5.5510   -1.3436    0.8554 C   0  0  0  0  0  0  0  0  0  0  0  0
    5.5405   -2.7384    1.8827 Cl  0  0  0  0  0  0  0  0  0  0  0  0
    6.7447   -0.6626    0.6696 C   0  0  0  0  0  0  0  0  0  0  0  0
    6.7242    0.4484   -0.1566 C   0  0  0  0  0  0  0  0  0  0  0  0
    8.1925    1.3320   -0.4068 Cl  0  0  0  0  0  0  0  0  0  0  0  0
    5.5625    0.8758   -0.7799 C   0  0  0  0  0  0  0  0  0  0  0  0
    4.3791    0.1737   -0.5833 C   0  0  0  0  0  0  0  0  0  0  0  0
    3.1200    0.5977   -1.2945 C   0  0  0  0  0  0  0  0  0  0  0  0
    1.9485    0.4239   -0.4648 N   0  0  0  0  0  0  0  0  0  0  0  0
    0.7077    0.6599   -1.1786 C   0  0  0  0  0  0  0  0  0  0  0  0
   -0.4883    0.4530   -0.2643 C   0  0  0  0  0  0  0  0  0  0  0  0
   -1.8025    0.6635   -0.9992 C   0  0  0  0  0  0  0  0  0  0  0  0
   -2.9146    0.4481   -0.1004 N   0  0  0  0  0  0  0  0  0  0  0  0
   -4.1904    0.3660   -0.5422 C   0  0  0  0  0  0  0  0  0  0  0  0
   -4.4899    0.4108   -1.7266 O   0  0  0  0  0  0  0  0  0  0  0  0
   -5.1194    0.2257    0.4628 N   0  0  0  0  0  0  0  0  0  0  0  0
   -6.4874    0.0339    0.2226 C   0  0  0  0  0  0  0  0  0  0  0  0
   -7.2220    0.9085   -0.5696 C   0  0  0  0  0  0  0  0  0  0  0  0
   -8.5784    0.7072   -0.7846 C   0  0  0  0  0  0  0  0  0  0  0  0
   -9.2185   -0.3660   -0.1825 C   0  0  0  0  0  0  0  0  0  0  0  0
   -8.5030   -1.2378    0.6258 C   0  0  0  0  0  0  0  0  0  0  0  0
   -7.1392   -1.0528    0.8212 C   0  0  0  0  0  0  0  0  0  0  0  0
   -6.3888   -1.8770    1.5813 O   0  0  0  0  0  0  0  0  0  0  0  0
    3.4534   -1.4853    0.4135 H   0  0  0  0  0  0  0  0  0  0  0  0
    7.6554   -0.9843    1.1550 H   0  0  0  0  0  0  0  0  0  0  0  0
    5.5782    1.7524   -1.4147 H   0  0  0  0  0  0  0  0  0  0  0  0
    3.2450    1.6239   -1.6697 H   0  0  0  0  0  0  0  0  0  0  0  0
    3.0021   -0.0332   -2.1818 H   0  0  0  0  0  0  0  0  0  0  0  0
    2.0045    1.0618    0.3212 H   0  0  0  0  0  0  0  0  0  0  0  0
    0.6608    1.6655   -1.6250 H   0  0  0  0  0  0  0  0  0  0  0  0
    0.6562   -0.0483   -2.0114 H   0  0  0  0  0  0  0  0  0  0  0  0
   -0.4566   -0.5568    0.1533 H   0  0  0  0  0  0  0  0  0  0  0  0
   -0.4270    1.1505    0.5783 H   0  0  0  0  0  0  0  0  0  0  0  0
   -1.8306    1.6711   -1.4290 H   0  0  0  0  0  0  0  0  0  0  0  0
   -1.8706   -0.0384   -1.8327 H   0  0  0  0  0  0  0  0  0  0  0  0
   -2.7427    0.5694    0.8847 H   0  0  0  0  0  0  0  0  0  0  0  0
   -4.7812   -0.0439    1.3743 H   0  0  0  0  0  0  0  0  0  0  0  0
   -6.7271    1.7609   -1.0134 H   0  0  0  0  0  0  0  0  0  0  0  0
   -9.1317    1.3959   -1.4088 H   0  0  0  0  0  0  0  0  0  0  0  0
  -10.2773   -0.5288   -0.3344 H   0  0  0  0  0  0  0  0  0  0  0  0
   -9.0039   -2.0771    1.0955 H   0  0  0  0  0  0  0  0  0  0  0  0
   -6.9371   -2.5669    1.9710 H   0  0  0  0  0  0  0  0  0  0  0  0
 21 22  2  0
 21 20  1  0
 22 23  1  0
 20 19  2  0
 23 24  1  0
 23 18  2  0
 19 18  1  0
 18 17  1  0
 17 15  1  0
 15 16  2  0
 15 14  1  0
 14 13  1  0
 13 12  1  0
 12 11  1  0
 11 10  1  0
 10  9  1  0
  4  5  1  0
  4  2  2  0
  5  6  1  0
  5  7  2  0
  3  2  1  0
  8  1  2  0
  8  7  1  0
  8  9  1  0
  2  1  1  0
  1 25  1  0
  4 26  1  0
  7 27  1  0
  9 28  1  0
  9 29  1  0
 10 30  1  0
 11 31  1  0
 11 32  1  0
 12 33  1  0
 12 34  1  0
 13 35  1  0
 13 36  1  0
 14 37  1  0
 17 38  1  0
 19 39  1  0
 20 40  1  0
 21 41  1  0
 22 42  1  0
 24 43  1  0
M  END
