
     RDKit          3D

 37 39  0  0  0  0  0  0  0  0999 V2000
   -6.9742    2.0125    0.9481 O   0  0  0  0  0  0  0  0  0  0  0  0
    4.1660    2.0340    0.0261 C   0  0  0  0  0  0  0  0  0  0  0  0
    5.3160    1.2287    0.1097 C   0  0  0  0  0  0  0  0  0  0  0  0
   -6.1103    2.1819   -1.1060 O   0  0  0  0  0  0  0  0  0  0  0  0
    5.2345   -0.1371    0.1398 C   0  0  0  0  0  0  0  0  0  0  0  0
   -4.3694    0.2850   -0.6474 O   0  0  0  0  0  0  0  0  0  0  0  0
    3.9659   -0.7432    0.0857 C   0  0  0  0  0  0  0  0  0  0  0  0
    6.8633    1.9996    0.1764 Cl  0  0  0  0  0  0  0  0  0  0  0  0
    2.9278    1.4507   -0.0290 C   0  0  0  0  0  0  0  0  0  0  0  0
    2.8019    0.0496   -0.0016 C   0  0  0  0  0  0  0  0  0  0  0  0
    1.5723   -0.5213   -0.0602 N   0  0  0  0  0  0  0  0  0  0  0  0
    3.8749   -2.1001    0.1184 N   0  0  0  0  0  0  0  0  0  0  0  0
    2.6956   -2.6265    0.0604 C   0  0  0  0  0  0  0  0  0  0  0  0
    1.5254   -1.8086   -0.0330 C   0  0  0  0  0  0  0  0  0  0  0  0
   -0.8084   -1.7448   -0.2036 C   0  0  0  0  0  0  0  0  0  0  0  0
   -1.2413   -1.3165   -1.4491 C   0  0  0  0  0  0  0  0  0  0  0  0
   -2.4452   -0.6467   -1.5592 C   0  0  0  0  0  0  0  0  0  0  0  0
   -1.5668   -1.5033    0.9232 C   0  0  0  0  0  0  0  0  0  0  0  0
   -2.7806   -0.8340    0.8164 C   0  0  0  0  0  0  0  0  0  0  0  0
   -3.2236   -0.3947   -0.4276 C   0  0  0  0  0  0  0  0  0  0  0  0
   -5.2761    0.4961    0.4103 C   0  0  2  0  0  0  0  0  0  0  0  0
   -6.1115   -0.7474    0.6967 C   0  0  0  0  0  0  0  0  0  0  0  0
   -6.1513    1.6569   -0.0267 C   0  0  0  0  0  0  0  0  0  0  0  0
   -7.5380    2.7464    0.6600 H   0  0  0  0  0  0  0  0  0  0  0  0
    6.1151   -0.7623    0.2070 H   0  0  0  0  0  0  0  0  0  0  0  0
    2.0361    2.0595   -0.0951 H   0  0  0  0  0  0  0  0  0  0  0  0
    2.6037   -3.7068    0.0839 H   0  0  0  0  0  0  0  0  0  0  0  0
   -0.6493   -1.5097   -2.3344 H   0  0  0  0  0  0  0  0  0  0  0  0
   -2.7910   -0.3125   -2.5290 H   0  0  0  0  0  0  0  0  0  0  0  0
   -1.2260   -1.8395    1.8940 H   0  0  0  0  0  0  0  0  0  0  0  0
   -3.3530   -0.6729    1.7193 H   0  0  0  0  0  0  0  0  0  0  0  0
   -4.7528    0.8130    1.3206 H   0  0  0  0  0  0  0  0  0  0  0  0
   -5.4727   -1.5847    0.9757 H   0  0  0  0  0  0  0  0  0  0  0  0
   -6.7992   -0.5715    1.5213 H   0  0  0  0  0  0  0  0  0  0  0  0
   -6.6882   -1.0373   -0.1819 H   0  0  0  0  0  0  0  0  0  0  0  0
    0.3638   -2.4703   -0.0887 O   0  0  0  0  0  0  0  0  0  0  0  0
    4.2620    3.1108    0.0046 H   0  0  0  0  0  0  0  0  0  0  0  0
 12 13  2  0
 12  7  1  0
 13 14  1  0
  5  7  2  0
  5  3  1  0
  7 10  1  0
 14 36  1  0
 14 11  2  0
 36 15  1  0
  8  3  1  0
 18 15  1  0
 18 19  2  0
  3  2  2  0
 10 11  1  0
 10  9  2  0
 15 16  2  0
 19 20  1  0
  2  9  1  0
 16 17  1  0
  4 23  2  0
 20 17  2  0
 20  6  1  0
 23 21  1  0
 23  1  1  0
 21  6  1  0
 21 22  1  0
  1 24  1  0
  2 37  1  0
  5 25  1  0
  9 26  1  0
 13 27  1  0
 16 28  1  0
 17 29  1  0
 18 30  1  0
 19 31  1  0
 21 32  1  1
 22 33  1  0
 22 34  1  0
 22 35  1  0
M  END
