
     RDKit          3D

 52 54  0  0  0  0  0  0  0  0999 V2000
    4.9156   -0.8406    1.0855 C   0  0  0  0  0  0  0  0  0  0  0  0
    4.0856    0.0934    0.4613 C   0  0  0  0  0  0  0  0  0  0  0  0
    4.5099    0.6712   -0.7506 C   0  0  0  0  0  0  0  0  0  0  0  0
    2.5365    1.5421   -0.2340 C   0  0  0  0  0  0  0  0  0  0  0  0
    1.3851    2.4695   -0.3077 C   0  0  0  0  0  0  0  0  0  0  0  0
    0.2543    1.9916    0.2395 N   0  0  0  0  0  0  0  0  0  0  0  0
   -0.8854    3.6258    1.6935 C   0  0  0  0  0  0  0  0  0  0  0  0
   -4.4037    1.6541   -0.5789 C   0  0  0  0  0  0  0  0  0  0  0  0
   -4.5263    0.4880    0.1613 C   0  0  0  0  0  0  0  0  0  0  0  0
   -3.5009    0.0478    0.9872 C   0  0  0  0  0  0  0  0  0  0  0  0
    6.1199   -1.1723    0.5021 C   0  0  0  0  0  0  0  0  0  0  0  0
   -0.9341    2.8054    0.4063 C   0  0  2  0  0  0  0  0  0  0  0  0
   -2.1820    1.9595    0.3256 C   0  0  0  0  0  0  0  0  0  0  0  0
   -3.2272    2.3803   -0.4908 C   0  0  0  0  0  0  0  0  0  0  0  0
    6.5423   -0.5932   -0.7181 C   0  0  0  0  0  0  0  0  0  0  0  0
   -2.3349    0.7898    1.0695 C   0  0  0  0  0  0  0  0  0  0  0  0
   -5.5822   -1.6235   -1.2772 C   0  0  0  0  0  0  0  0  0  0  0  0
   -6.7004   -2.6068   -1.5259 C   0  0  0  0  0  0  0  0  0  0  0  0
    5.7268    0.3299   -1.3421 C   0  0  0  0  0  0  0  0  0  0  0  0
    2.8243    0.6580    0.7735 C   0  0  0  0  0  0  0  0  0  0  0  0
    3.5505    1.5497   -1.1595 N   0  0  0  0  0  0  0  0  0  0  0  0
    1.4823    3.5831   -0.8025 O   0  0  0  0  0  0  0  0  0  0  0  0
   -6.1851   -1.2269    1.2666 O   0  0  0  0  0  0  0  0  0  0  0  0
   -7.0807    0.3982   -0.4405 O   0  0  0  0  0  0  0  0  0  0  0  0
   -6.3194   -3.5201   -2.3986 O   0  0  0  0  0  0  0  0  0  0  0  0
   -7.7827   -2.5557   -1.0078 O   0  0  0  0  0  0  0  0  0  0  0  0
   -6.0097   -0.4702    0.0325 S   0  0  1  0  0  0  0  0  0  0  0  0
    4.4024   -1.5467    2.5673 Cl  0  0  0  0  0  0  0  0  0  0  0  0
    7.1490   -2.3236    1.2774 Cl  0  0  0  0  0  0  0  0  0  0  0  0
    0.2447    1.0400    0.5684 H   0  0  0  0  0  0  0  0  0  0  0  0
    4.0049    3.3230   -2.2016 H   0  0  0  0  0  0  0  0  0  0  0  0
    4.2750    1.8130   -3.0842 H   0  0  0  0  0  0  0  0  0  0  0  0
    2.6392    2.3986   -2.8427 H   0  0  0  0  0  0  0  0  0  0  0  0
   -0.0196    4.2963    1.6368 H   0  0  0  0  0  0  0  0  0  0  0  0
   -1.7822    4.2577    1.7260 H   0  0  0  0  0  0  0  0  0  0  0  0
   -5.2030    1.9990   -1.2205 H   0  0  0  0  0  0  0  0  0  0  0  0
   -3.6026   -0.8560    1.5728 H   0  0  0  0  0  0  0  0  0  0  0  0
    7.9285   -2.0400   -1.5106 H   0  0  0  0  0  0  0  0  0  0  0  0
    8.0131   -0.4510   -2.2677 H   0  0  0  0  0  0  0  0  0  0  0  0
    8.6910   -0.7062   -0.6625 H   0  0  0  0  0  0  0  0  0  0  0  0
   -0.9617    3.5230   -0.4162 H   0  0  0  0  0  0  0  0  0  0  0  0
   -3.1249    3.2872   -1.0732 H   0  0  0  0  0  0  0  0  0  0  0  0
   -1.5526    0.4427    1.7307 H   0  0  0  0  0  0  0  0  0  0  0  0
   -4.6629   -2.1390   -0.9925 H   0  0  0  0  0  0  0  0  0  0  0  0
   -5.3750   -1.0485   -2.1829 H   0  0  0  0  0  0  0  0  0  0  0  0
    6.0482    0.7801   -2.2720 H   0  0  0  0  0  0  0  0  0  0  0  0
    2.2287    0.4730    1.6534 H   0  0  0  0  0  0  0  0  0  0  0  0
   -0.7783    3.2800    3.5940 H   0  0  0  0  0  0  0  0  0  0  0  0
   -7.0411   -4.1445   -2.5727 H   0  0  0  0  0  0  0  0  0  0  0  0
    3.6193    2.3217   -2.3832 C   0  0  0  0  0  0  0  0  0  0  0  0
    7.8619   -0.9679   -1.3217 C   0  0  0  0  0  0  0  0  0  0  0  0
   -0.8040    2.7544    2.7893 O   0  0  0  0  0  0  0  0  0  0  0  0
 24 27  2  0
 27 17  1  6
 27 23  2  0
 27  9  1  0
 17 18  1  0
 10  9  1  0
 10 16  2  0
  9  8  2  0
 16 13  1  0
 26 18  2  0
 18 25  1  0
 22  5  2  0
  8 14  1  0
 13 14  2  0
 13 12  1  0
 50 21  1  0
  5  6  1  0
  5  4  1  0
 12  6  1  0
 12  7  1  0
 21  4  1  0
 21  3  1  0
  4 20  2  0
  7 52  1  0
  3 19  2  0
  3  2  1  0
 19 15  1  0
 20  2  1  0
  2  1  2  0
 15 51  1  0
 15 11  2  0
  1 11  1  0
  1 28  1  0
 11 29  1  0
  6 30  1  0
 50 31  1  0
 50 32  1  0
 50 33  1  0
  7 34  1  0
  7 35  1  0
  8 36  1  0
 10 37  1  0
 51 38  1  0
 51 39  1  0
 51 40  1  0
 12 41  1  6
 14 42  1  0
 16 43  1  0
 17 44  1  0
 17 45  1  0
 19 46  1  0
 20 47  1  0
 52 48  1  0
 25 49  1  0
M  END
