
     RDKit          3D

 47 48  0  0  0  0  0  0  0  0999 V2000
   -3.7810    2.5744   -0.1679 C   0  0  0  0  0  0  0  0  0  0  0  0
   -2.8431    1.5815    0.1014 C   0  0  0  0  0  0  0  0  0  0  0  0
   -3.1267    0.2648   -0.2868 C   0  0  0  0  0  0  0  0  0  0  0  0
   -2.1716   -0.8367   -0.0103 C   0  0  0  0  0  0  0  0  0  0  0  0
   -1.7158   -1.5762   -1.0275 C   0  0  0  0  0  0  0  0  0  0  0  0
    0.4888   -2.6549   -0.6614 C   0  0  0  0  0  0  0  0  0  0  0  0
    3.2954   -0.1461   -0.0164 C   0  0  0  0  0  0  0  0  0  0  0  0
    5.5844    0.7618    0.5571 C   0  0  0  0  0  0  0  0  0  0  0  0
    2.5965    1.1616   -0.2240 C   0  0  0  0  0  0  0  0  0  0  0  0
   -1.3405    1.3099    2.1506 C   0  0  0  0  0  0  0  0  0  0  0  0
   -1.8575   -1.1164    1.4367 C   0  0  0  0  0  0  0  0  0  0  0  0
   -0.8898   -0.1437    2.1122 C   0  0  0  0  0  0  0  0  0  0  0  0
   -1.5463    1.9445    0.7734 C   0  0  0  0  0  0  0  0  0  0  0  0
   -4.9814    2.2879   -0.8048 C   0  0  0  0  0  0  0  0  0  0  0  0
   -5.2576    0.9852   -1.1902 C   0  0  0  0  0  0  0  0  0  0  0  0
   -4.3317   -0.0155   -0.9289 C   0  0  0  0  0  0  0  0  0  0  0  0
   -0.8277   -2.7498   -0.9214 C   0  0  0  0  0  0  0  0  0  0  0  0
   -1.4856   -4.0711   -1.1740 C   0  0  0  0  0  0  0  0  0  0  0  0
    1.2125   -1.4171   -0.5008 C   0  0  0  0  0  0  0  0  0  0  0  0
    2.5194   -1.3646   -0.1811 C   0  0  0  0  0  0  0  0  0  0  0  0
    4.5971   -0.2943    0.3222 C   0  0  0  0  0  0  0  0  0  0  0  0
    6.7837    0.2282    0.8061 O   0  0  0  0  0  0  0  0  0  0  0  0
    5.4086    1.9612    0.5471 O   0  0  0  0  0  0  0  0  0  0  0  0
   -3.5616    3.5958    0.1211 H   0  0  0  0  0  0  0  0  0  0  0  0
   -2.0637   -1.3462   -2.0329 H   0  0  0  0  0  0  0  0  0  0  0  0
    1.0701   -3.5705   -0.5963 H   0  0  0  0  0  0  0  0  0  0  0  0
    1.8395    1.3050    0.5507 H   0  0  0  0  0  0  0  0  0  0  0  0
    3.2697    2.0084   -0.1923 H   0  0  0  0  0  0  0  0  0  0  0  0
    2.0765    1.1679   -1.1824 H   0  0  0  0  0  0  0  0  0  0  0  0
   -2.2597    1.4020    2.7371 H   0  0  0  0  0  0  0  0  0  0  0  0
   -0.5806    1.8867    2.6835 H   0  0  0  0  0  0  0  0  0  0  0  0
   -2.8012   -1.1097    1.9929 H   0  0  0  0  0  0  0  0  0  0  0  0
   -1.4499   -2.1245    1.5309 H   0  0  0  0  0  0  0  0  0  0  0  0
    0.0840   -0.2049    1.6191 H   0  0  0  0  0  0  0  0  0  0  0  0
   -0.7280   -0.4901    3.1362 H   0  0  0  0  0  0  0  0  0  0  0  0
   -0.7063    1.6705    0.1241 H   0  0  0  0  0  0  0  0  0  0  0  0
   -1.5028    3.0305    0.8737 H   0  0  0  0  0  0  0  0  0  0  0  0
   -5.6929    3.0801   -0.9996 H   0  0  0  0  0  0  0  0  0  0  0  0
   -6.1885    0.7437   -1.6868 H   0  0  0  0  0  0  0  0  0  0  0  0
   -4.5515   -1.0369   -1.2146 H   0  0  0  0  0  0  0  0  0  0  0  0
   -2.2652   -4.2626   -0.4330 H   0  0  0  0  0  0  0  0  0  0  0  0
   -1.9790   -4.0742   -2.1492 H   0  0  0  0  0  0  0  0  0  0  0  0
   -0.7728   -4.8945   -1.1474 H   0  0  0  0  0  0  0  0  0  0  0  0
    0.6554   -0.5015   -0.6676 H   0  0  0  0  0  0  0  0  0  0  0  0
    3.0505   -2.2985   -0.0196 H   0  0  0  0  0  0  0  0  0  0  0  0
    4.9733   -1.3042    0.4394 H   0  0  0  0  0  0  0  0  0  0  0  0
    7.4260    0.9353    0.9634 H   0  0  0  0  0  0  0  0  0  0  0  0
 18 17  1  0
  6 17  2  0
  6 19  1  0
 17  5  1  0
 20 19  2  0
 20  7  1  0
 21  7  2  0
 21  8  1  0
  7  9  1  0
 23  8  2  0
  8 22  1  0
 12 11  1  0
 12 10  1  0
  5  4  2  0
 11  4  1  0
  4  3  1  0
 10 13  1  0
  3  2  1  0
  3 16  2  0
 13  2  1  0
  2  1  2  0
 16 15  1  0
  1 14  1  0
 15 14  2  0
  1 24  1  0
  5 25  1  0
  6 26  1  0
  9 27  1  0
  9 28  1  0
  9 29  1  0
 10 30  1  0
 10 31  1  0
 11 32  1  0
 11 33  1  0
 12 34  1  0
 12 35  1  0
 13 36  1  0
 13 37  1  0
 14 38  1  0
 15 39  1  0
 16 40  1  0
 18 41  1  0
 18 42  1  0
 18 43  1  0
 19 44  1  0
 20 45  1  0
 21 46  1  0
 22 47  1  0
M  END
