
     RDKit          3D

 33 35  0  0  0  0  0  0  0  0999 V2000
   -0.8529   -0.1721   -4.0741 N   0  0  0  0  0  0  0  0  0  0  0  0
   -1.7094    0.2559   -3.1744 C   0  0  0  0  0  0  0  0  0  0  0  0
   -1.4899    0.4242   -1.8678 N   0  0  0  0  0  0  0  0  0  0  0  0
   -0.2616    0.1201   -1.4962 C   0  0  0  0  0  0  0  0  0  0  0  0
    0.7418   -0.3254   -2.3562 C   0  0  0  0  0  0  0  0  0  0  0  0
    0.3878   -0.4754   -3.6753 C   0  0  0  0  0  0  0  0  0  0  0  0
    1.2037   -0.8969   -4.6486 O   0  0  0  0  0  0  0  0  0  0  0  0
    1.8977   -0.5767   -1.6158 N   0  0  0  0  0  0  0  0  0  0  0  0
    1.6936    0.0531   -0.3057 C   0  0  0  0  0  0  0  0  0  0  0  0
    0.2374    0.1793   -0.2323 N   0  0  0  0  0  0  0  0  0  0  0  0
   -0.4189    0.9733    0.7954 C   0  0  1  0  0  0  0  0  0  0  0  0
   -1.6232    0.2287    1.3600 C   0  0  2  0  0  0  0  0  0  0  0  0
   -2.5024    1.1805    1.8977 O   0  0  0  0  0  0  0  0  0  0  0  0
   -0.9618   -0.6003    2.4641 C   0  0  2  0  0  0  0  0  0  0  0  0
   -1.8554   -0.9765    3.4771 O   0  0  0  0  0  0  0  0  0  0  0  0
    0.0996    0.3654    2.9880 C   0  0  2  0  0  0  0  0  0  0  0  0
    0.4656    1.1639    1.8643 O   0  0  0  0  0  0  0  0  0  0  0  0
    1.3023   -0.3321    3.5712 C   0  0  0  0  0  0  0  0  0  0  0  0
    2.2064    0.6291    4.0584 O   0  0  0  0  0  0  0  0  0  0  0  0
   -2.7050    0.4998   -3.5275 H   0  0  0  0  0  0  0  0  0  0  0  0
    2.0465   -1.2046   -4.2957 H   0  0  0  0  0  0  0  0  0  0  0  0
    2.7690   -0.3017   -2.0468 H   0  0  0  0  0  0  0  0  0  0  0  0
    2.1902    1.0307   -0.2421 H   0  0  0  0  0  0  0  0  0  0  0  0
    2.0814   -0.5806    0.4914 H   0  0  0  0  0  0  0  0  0  0  0  0
   -0.7031    1.9493    0.3817 H   0  0  0  0  0  0  0  0  0  0  0  0
   -2.1124   -0.3962    0.6054 H   0  0  0  0  0  0  0  0  0  0  0  0
   -3.0937    0.7243    2.5075 H   0  0  0  0  0  0  0  0  0  0  0  0
   -0.4810   -1.4742    2.0085 H   0  0  0  0  0  0  0  0  0  0  0  0
   -2.0064   -1.9238    3.4286 H   0  0  0  0  0  0  0  0  0  0  0  0
   -0.3488    1.0122    3.7531 H   0  0  0  0  0  0  0  0  0  0  0  0
    1.7607   -0.9727    2.8050 H   0  0  0  0  0  0  0  0  0  0  0  0
    0.9417   -0.9959    4.3680 H   0  0  0  0  0  0  0  0  0  0  0  0
    2.9303    0.1680    4.4917 H   0  0  0  0  0  0  0  0  0  0  0  0
  1  2  2  0
  1  6  1  0
  2  3  1  0
  2 20  1  0
  3  4  2  0
  4  5  1  0
  4 10  1  0
  5  6  2  0
  5  8  1  0
  6  7  1  0
  7 21  1  0
  8  9  1  0
  8 22  1  0
  9 10  1  0
  9 23  1  0
  9 24  1  0
 10 11  1  0
 11 12  1  0
 11 17  1  0
 11 25  1  6
 12 13  1  0
 12 14  1  0
 12 26  1  6
 13 27  1  0
 14 15  1  0
 14 16  1  0
 14 28  1  6
 15 29  1  0
 16 17  1  0
 16 18  1  0
 16 30  1  1
 18 19  1  0
 18 31  1  0
 18 32  1  0
 19 33  1  0
M  END
