
     RDKit          3D

 88 91  0  0  0  0  0  0  0  0999 V2000
    4.7204    1.6753    1.7163 C   0  0  0  0  0  0  0  0  0  0  0  0
    0.9455   -3.8306   -3.0107 F   0  0  0  0  0  0  0  0  0  0  0  0
    0.0659    0.9594    0.0184 N   0  0  0  0  0  0  0  0  0  0  0  0
   -7.1598    2.3763    1.2663 O   0  0  0  0  0  0  0  0  0  0  0  0
    4.7259    0.6351    0.7927 C   0  0  0  0  0  0  0  0  0  0  0  0
    7.0167    0.1927    0.0906 N   0  0  0  0  0  0  0  0  0  0  0  0
   -8.2890    1.0151   -0.5188 O   0  0  0  0  0  0  0  0  0  0  0  0
    3.5902    0.3692    0.0440 C   0  0  0  0  0  0  0  0  0  0  0  0
   -5.9954    1.9273   -0.8933 N   0  0  0  0  0  0  0  0  0  0  0  0
    5.8236   -1.4146    1.1418 O   0  0  0  0  0  0  0  0  0  0  0  0
    2.4486    1.1428    0.2224 C   0  0  0  0  0  0  0  0  0  0  0  0
   -3.6141    0.8482   -2.1014 N   0  0  0  0  0  0  0  0  0  0  0  0
    1.3658    0.4528   -1.7684 O   0  0  0  0  0  0  0  0  0  0  0  0
    2.4529    2.1785    1.1504 C   0  0  0  0  0  0  0  0  0  0  0  0
   -2.2943    1.8332    1.2066 O   0  0  0  0  0  0  0  0  0  0  0  0
    3.5889    2.4618    1.9046 C   0  0  0  0  0  0  0  0  0  0  0  0
    1.2489    0.8216   -0.6105 C   0  0  0  0  0  0  0  0  0  0  0  0
    5.9067   -0.2832    0.6828 C   0  0  0  0  0  0  0  0  0  0  0  0
    8.1878   -0.6665   -0.0005 C   0  0  0  0  0  0  0  0  0  0  0  0
    7.0865    1.4624   -0.6151 C   0  0  0  0  0  0  0  0  0  0  0  0
    7.8523    2.5448    0.1342 C   0  0  0  0  0  0  0  0  0  0  0  0
    7.9877    3.8058   -0.7073 C   0  0  0  0  0  0  0  0  0  0  0  0
    8.1602   -1.5976   -1.2074 C   0  0  0  0  0  0  0  0  0  0  0  0
    9.4068   -2.4691   -1.2675 C   0  0  0  0  0  0  0  0  0  0  0  0
    3.5915    3.5999    2.8826 C   0  0  0  0  0  0  0  0  0  0  0  0
   -1.1956    0.5344   -0.5443 C   0  0  2  0  0  0  0  0  0  0  0  0
   -2.2640    1.5758   -0.1820 C   0  0  1  0  0  0  0  0  0  0  0  0
   -3.6519    1.1997   -0.6943 C   0  0  1  0  0  0  0  0  0  0  0  0
   -1.5541   -0.8915   -0.0786 C   0  0  0  0  0  0  0  0  0  0  0  0
   -0.4222   -1.8437   -0.3283 C   0  0  0  0  0  0  0  0  0  0  0  0
    0.5379   -2.0635    0.6545 C   0  0  0  0  0  0  0  0  0  0  0  0
    1.6219   -2.8685    0.3644 C   0  0  0  0  0  0  0  0  0  0  0  0
    1.7946   -3.4777   -0.8628 C   0  0  0  0  0  0  0  0  0  0  0  0
    0.8142   -3.2483   -1.8098 C   0  0  0  0  0  0  0  0  0  0  0  0
   -0.2849   -2.4494   -1.5734 C   0  0  0  0  0  0  0  0  0  0  0  0
   -4.6687    2.3102   -0.4127 C   0  0  0  0  0  0  0  0  0  0  0  0
   -6.0177    1.4755   -2.2862 C   0  0  0  0  0  0  0  0  0  0  0  0
   -4.9293    0.4465   -2.5731 C   0  0  0  0  0  0  0  0  0  0  0  0
   -6.3845   -0.0855    0.9214 C   0  0  0  0  0  0  0  0  0  0  0  0
   -6.5293   -1.2955    0.2541 C   0  0  0  0  0  0  0  0  0  0  0  0
   -5.8568   -2.4115    0.7279 C   0  0  0  0  0  0  0  0  0  0  0  0
   -5.0493   -2.3144    1.8542 C   0  0  0  0  0  0  0  0  0  0  0  0
   -4.9322   -1.1054    2.5277 C   0  0  0  0  0  0  0  0  0  0  0  0
   -5.6050    0.0177    2.0672 C   0  0  0  0  0  0  0  0  0  0  0  0
    5.6072    1.8717    2.3079 H   0  0  0  0  0  0  0  0  0  0  0  0
    0.0715    1.1581    1.0071 H   0  0  0  0  0  0  0  0  0  0  0  0
    3.5874   -0.4418   -0.6730 H   0  0  0  0  0  0  0  0  0  0  0  0
   -3.2870    1.6427   -2.6435 H   0  0  0  0  0  0  0  0  0  0  0  0
    1.5710    2.7958    1.2825 H   0  0  0  0  0  0  0  0  0  0  0  0
   -2.6832    1.0794    1.6647 H   0  0  0  0  0  0  0  0  0  0  0  0
    9.0696   -0.0240   -0.0513 H   0  0  0  0  0  0  0  0  0  0  0  0
    8.2791   -1.2466    0.9182 H   0  0  0  0  0  0  0  0  0  0  0  0
    7.5677    1.2809   -1.5810 H   0  0  0  0  0  0  0  0  0  0  0  0
    6.0798    1.8109   -0.8450 H   0  0  0  0  0  0  0  0  0  0  0  0
    7.3401    2.7751    1.0714 H   0  0  0  0  0  0  0  0  0  0  0  0
    8.8446    2.1756    0.4064 H   0  0  0  0  0  0  0  0  0  0  0  0
    8.5406    4.5786   -0.1742 H   0  0  0  0  0  0  0  0  0  0  0  0
    8.5175    3.6025   -1.6396 H   0  0  0  0  0  0  0  0  0  0  0  0
    7.0103    4.2170   -0.9662 H   0  0  0  0  0  0  0  0  0  0  0  0
    7.2695   -2.2269   -1.1588 H   0  0  0  0  0  0  0  0  0  0  0  0
    8.0793   -1.0061   -2.1236 H   0  0  0  0  0  0  0  0  0  0  0  0
   10.3137   -1.8644   -1.3267 H   0  0  0  0  0  0  0  0  0  0  0  0
    9.4889   -3.1008   -0.3814 H   0  0  0  0  0  0  0  0  0  0  0  0
    9.3886   -3.1224   -2.1395 H   0  0  0  0  0  0  0  0  0  0  0  0
    3.6647    4.5577    2.3643 H   0  0  0  0  0  0  0  0  0  0  0  0
    2.6734    3.6209    3.4696 H   0  0  0  0  0  0  0  0  0  0  0  0
    4.4328    3.5323    3.5702 H   0  0  0  0  0  0  0  0  0  0  0  0
   -1.0900    0.5231   -1.6281 H   0  0  0  0  0  0  0  0  0  0  0  0
   -1.9580    2.5212   -0.6444 H   0  0  0  0  0  0  0  0  0  0  0  0
   -3.9744    0.2978   -0.1580 H   0  0  0  0  0  0  0  0  0  0  0  0
   -1.8011   -0.8944    0.9869 H   0  0  0  0  0  0  0  0  0  0  0  0
   -2.4407   -1.2241   -0.6205 H   0  0  0  0  0  0  0  0  0  0  0  0
    0.4480   -1.6100    1.6331 H   0  0  0  0  0  0  0  0  0  0  0  0
    2.6499   -4.1073   -1.0697 H   0  0  0  0  0  0  0  0  0  0  0  0
   -1.0200   -2.2878   -2.3517 H   0  0  0  0  0  0  0  0  0  0  0  0
   -4.3713    3.2195   -0.9460 H   0  0  0  0  0  0  0  0  0  0  0  0
   -4.7114    2.5735    0.6427 H   0  0  0  0  0  0  0  0  0  0  0  0
   -7.0015    1.0856   -2.5376 H   0  0  0  0  0  0  0  0  0  0  0  0
   -5.8613    2.3621   -2.9078 H   0  0  0  0  0  0  0  0  0  0  0  0
   -4.8848    0.2663   -3.6480 H   0  0  0  0  0  0  0  0  0  0  0  0
   -5.1816   -0.5070   -2.1019 H   0  0  0  0  0  0  0  0  0  0  0  0
   -7.1543   -1.3746   -0.6257 H   0  0  0  0  0  0  0  0  0  0  0  0
   -5.9641   -3.3577    0.2151 H   0  0  0  0  0  0  0  0  0  0  0  0
   -4.5183   -3.1856    2.2138 H   0  0  0  0  0  0  0  0  0  0  0  0
   -4.3188   -1.0333    3.4160 H   0  0  0  0  0  0  0  0  0  0  0  0
   -5.5187    0.9552    2.5997 H   0  0  0  0  0  0  0  0  0  0  0  0
   -7.0849    1.3804    0.2095 S   0  0  1  0  0  0  0  0  0  0  0  0
    2.5492   -3.0692    1.3098 F   0  0  0  0  0  0  0  0  0  0  0  0
  5  1  2  0
  1 16  1  0
  1 45  1  0
  2 34  1  0
 26  3  1  0
  3 17  1  0
  3 46  1  0
  4 87  2  0
 87 39  1  1
 87  9  1  0
 87  7  2  0
 18  5  1  0
  8  5  1  0
 88 32  1  0
 20  6  1  0
 19  6  1  0
  6 18  1  0
  8 11  2  0
  8 47  1  0
 36  9  1  0
  9 37  1  0
 18 10  2  0
 17 11  1  0
 11 14  1  0
 28 12  1  0
 12 38  1  0
 12 48  1  0
 13 17  2  0
 14 16  2  0
 14 49  1  0
 15 27  1  0
 15 50  1  0
 16 25  1  0
 23 19  1  0
 19 51  1  0
 19 52  1  0
 21 20  1  0
 20 53  1  0
 20 54  1  0
 21 22  1  0
 21 55  1  0
 21 56  1  0
 22 57  1  0
 22 58  1  0
 22 59  1  0
 23 24  1  0
 23 60  1  0
 23 61  1  0
 24 62  1  0
 24 63  1  0
 24 64  1  0
 25 65  1  0
 25 66  1  0
 25 67  1  0
 29 26  1  0
 26 27  1  0
 26 68  1  6
 27 28  1  0
 27 69  1  6
 36 28  1  0
 28 70  1  1
 30 29  1  0
 29 71  1  0
 29 72  1  0
 31 30  2  0
 35 30  1  0
 32 31  1  0
 31 73  1  0
 33 32  2  0
 33 34  1  0
 33 74  1  0
 34 35  2  0
 35 75  1  0
 36 76  1  0
 36 77  1  0
 37 38  1  0
 37 78  1  0
 37 79  1  0
 38 80  1  0
 38 81  1  0
 40 39  2  0
 39 44  1  0
 41 40  1  0
 40 82  1  0
 41 42  2  0
 41 83  1  0
 42 43  1  0
 42 84  1  0
 43 44  2  0
 43 85  1  0
 44 86  1  0
M  END
