
     RDKit          3D

 16 15  0  0  0  0  0  0  0  0999 V2000
   -2.2067    0.2055   -0.1613 C   0  0  0  0  0  0  0  0  0  0  0  0
   -0.7360   -1.5646    0.6193 N   0  0  0  0  0  0  0  0  0  0  0  0
   -2.8122   -0.2909   -1.1125 O   0  0  0  0  0  0  0  0  0  0  0  0
   -0.8257   -0.1467    0.3728 C   0  0  1  0  0  0  0  0  0  0  0  0
    0.1850    0.4423   -0.6258 C   0  0  0  0  0  0  0  0  0  0  0  0
    1.9970   -1.2074   -0.5187 F   0  0  0  0  0  0  0  0  0  0  0  0
    2.5800    0.8572   -0.8656 F   0  0  0  0  0  0  0  0  0  0  0  0
    1.9167    0.2256    1.1066 F   0  0  0  0  0  0  0  0  0  0  0  0
    1.6400    0.0877   -0.2301 C   0  0  1  0  0  0  0  0  0  0  0  0
   -2.8143    1.2030    0.5316 O   0  0  0  0  0  0  0  0  0  0  0  0
   -0.4535   -2.0674   -0.1989 H   0  0  0  0  0  0  0  0  0  0  0  0
   -0.1106   -1.7517    1.3781 H   0  0  0  0  0  0  0  0  0  0  0  0
   -0.6826    0.3769    1.3685 H   0  0  0  0  0  0  0  0  0  0  0  0
    0.0021    0.0495   -1.6586 H   0  0  0  0  0  0  0  0  0  0  0  0
    0.0914    1.5582   -0.6407 H   0  0  0  0  0  0  0  0  0  0  0  0
   -3.6885    1.3838    0.1471 H   0  0  0  0  0  0  0  0  0  0  0  0
  1  3  2  0
  1  4  1  0
  1 10  1  0
  2  4  1  0
  2 11  1  0
  2 12  1  0
  4  5  1  0
  4 13  1  1
  5  9  1  0
  5 14  1  0
  5 15  1  0
  9  6  1  6
  7  9  1  0
  8  9  1  0
 10 16  1  0
M  END
