
     RDKit          3D

 28 28  0  0  0  0  0  0  0  0999 V2000
   -5.6462   -0.0531   -0.7883 O   0  0  0  0  0  0  0  0  0  0  0  0
   -4.5159   -0.5062   -0.8681 N   0  0  0  0  0  0  0  0  0  0  0  0
   -3.8183   -0.4750    0.2201 N   0  0  0  0  0  0  0  0  0  0  0  0
   -4.3502    0.0805    1.4481 C   0  0  0  0  0  0  0  0  0  0  0  0
   -2.4564   -0.9644    0.1367 C   0  0  0  0  0  0  0  0  0  0  0  0
   -1.4310    0.1606    0.1426 C   0  0  0  0  0  0  0  0  0  0  0  0
   -0.0223   -0.4059    0.0731 C   0  0  0  0  0  0  0  0  0  0  0  0
    1.0536    0.6497    0.0774 C   0  0  0  0  0  0  0  0  0  0  0  0
    0.7869    1.8301    0.1365 O   0  0  0  0  0  0  0  0  0  0  0  0
    2.4771    0.2128    0.0072 C   0  0  0  0  0  0  0  0  0  0  0  0
    3.4936    1.1668    0.0133 C   0  0  0  0  0  0  0  0  0  0  0  0
    4.8083    0.7475   -0.0508 C   0  0  0  0  0  0  0  0  0  0  0  0
    5.0650   -0.6155   -0.1196 C   0  0  0  0  0  0  0  0  0  0  0  0
    4.1104   -1.5379   -0.1276 N   0  0  0  0  0  0  0  0  0  0  0  0
    2.8510   -1.1271   -0.0655 C   0  0  0  0  0  0  0  0  0  0  0  0
   -5.2438   -0.4586    1.7616 H   0  0  0  0  0  0  0  0  0  0  0  0
   -3.5961   -0.0148    2.2229 H   0  0  0  0  0  0  0  0  0  0  0  0
   -4.6022    1.1342    1.3297 H   0  0  0  0  0  0  0  0  0  0  0  0
   -2.2842   -1.6483    0.9707 H   0  0  0  0  0  0  0  0  0  0  0  0
   -2.3820   -1.5469   -0.7817 H   0  0  0  0  0  0  0  0  0  0  0  0
   -1.6161    0.8195   -0.7081 H   0  0  0  0  0  0  0  0  0  0  0  0
   -1.5430    0.7659    1.0448 H   0  0  0  0  0  0  0  0  0  0  0  0
    0.1563   -1.0887    0.9113 H   0  0  0  0  0  0  0  0  0  0  0  0
    0.0970   -1.0205   -0.8260 H   0  0  0  0  0  0  0  0  0  0  0  0
    3.2566    2.2210    0.0679 H   0  0  0  0  0  0  0  0  0  0  0  0
    5.6237    1.4569   -0.0472 H   0  0  0  0  0  0  0  0  0  0  0  0
    6.0863   -0.9756   -0.1711 H   0  0  0  0  0  0  0  0  0  0  0  0
    2.1037   -1.9118   -0.0749 H   0  0  0  0  0  0  0  0  0  0  0  0
 12 11  1  0
 12 13  2  0
 11 10  2  0
 13 14  1  0
  9  8  2  0
 10  8  1  0
 10 15  1  0
  8  7  1  0
 14 15  2  0
  7  6  1  0
  5  6  1  0
  5  3  1  0
  3  4  1  0
  3  2  1  0
  2  1  2  0
  4 16  1  0
  4 17  1  0
  4 18  1  0
  5 19  1  0
  5 20  1  0
  6 21  1  0
  6 22  1  0
  7 23  1  0
  7 24  1  0
 11 25  1  0
 12 26  1  0
 13 27  1  0
 15 28  1  0
M  END
