
     RDKit          3D

 35 36  0  0  0  0  0  0  0  0999 V2000
   16.0218   13.1419   22.1468 C   0  0  0  0  0  0  0  0  0  0  0  0
   16.4995   13.7788   23.3003 C   0  0  0  0  0  0  0  0  0  0  0  0
   15.6817   14.6811   23.9683 C   0  0  0  0  0  0  0  0  0  0  0  0
   14.4131   14.9793   23.4877 C   0  0  0  0  0  0  0  0  0  0  0  0
   13.9542   14.3732   22.3268 C   0  0  0  0  0  0  0  0  0  0  0  0
   14.7579   13.4630   21.6597 C   0  0  0  0  0  0  0  0  0  0  0  0
   18.3462   10.6021   21.5082 C   0  0  0  0  0  0  0  0  0  0  0  0
   18.2893   10.2706   20.1471 C   0  0  0  0  0  0  0  0  0  0  0  0
   19.1015    9.2947   19.6255 C   0  0  0  0  0  0  0  0  0  0  0  0
   20.0234    8.5880   20.4412 C   0  0  0  0  0  0  0  0  0  0  0  0
   20.0757    8.9351   21.8102 C   0  0  0  0  0  0  0  0  0  0  0  0
   19.2546    9.9162   22.3176 C   0  0  0  0  0  0  0  0  0  0  0  0
   17.9078   13.6209   23.7683 C   0  0  0  0  0  0  0  0  0  0  0  0
   20.7632    7.3023   18.5164 C   0  0  0  0  0  0  0  0  0  0  0  0
   21.7382    6.9047   20.7817 C   0  0  0  0  0  0  0  0  0  0  0  0
   16.7341   12.1646   21.4400 N   0  0  0  0  0  0  0  0  0  0  0  0
   17.5717   11.5618   22.1361 N   0  0  0  0  0  0  0  0  0  0  0  0
   17.9705   13.1157   24.9912 O   0  0  0  0  0  0  0  0  0  0  0  0
   18.8656   14.0016   23.1442 O   0  0  0  0  0  0  0  0  0  0  0  0
   20.8172    7.6217   19.9267 N   0  0  0  0  0  0  0  0  0  0  0  0
   14.4087   12.9714   20.7609 H   0  0  0  0  0  0  0  0  0  0  0  0
   16.0418   15.1777   24.8604 H   0  0  0  0  0  0  0  0  0  0  0  0
   13.7931   15.6918   24.0145 H   0  0  0  0  0  0  0  0  0  0  0  0
   12.9697   14.6053   21.9430 H   0  0  0  0  0  0  0  0  0  0  0  0
   17.5972   10.7850   19.4938 H   0  0  0  0  0  0  0  0  0  0  0  0
   19.3093   10.1690   23.3693 H   0  0  0  0  0  0  0  0  0  0  0  0
   19.0205    9.0705   18.5716 H   0  0  0  0  0  0  0  0  0  0  0  0
   20.7613    8.4379   22.4803 H   0  0  0  0  0  0  0  0  0  0  0  0
   18.8922   13.0905   25.2909 H   0  0  0  0  0  0  0  0  0  0  0  0
   21.0342    8.1576   17.8925 H   0  0  0  0  0  0  0  0  0  0  0  0
   21.4674    6.5034   18.3043 H   0  0  0  0  0  0  0  0  0  0  0  0
   19.7712    6.9603   18.2124 H   0  0  0  0  0  0  0  0  0  0  0  0
   22.2599    6.1558   20.1942 H   0  0  0  0  0  0  0  0  0  0  0  0
   22.4892    7.5652   21.2228 H   0  0  0  0  0  0  0  0  0  0  0  0
   21.2214    6.3895   21.5951 H   0  0  0  0  0  0  0  0  0  0  0  0
  1  2  2  0
  1  6  1  0
  1 16  1  0
  2  3  1  0
  2 13  1  0
  3  4  2  0
  4  5  1  0
  5  6  2  0
  7  8  2  0
  7 12  1  0
  7 17  1  0
  8  9  1  0
  9 10  2  0
 10 11  1  0
 10 20  1  0
 11 12  2  0
 13 18  1  0
 13 19  2  0
 14 20  1  0
 15 20  1  0
 16 17  2  0
  6 21  1  0
  3 22  1  0
  4 23  1  0
  5 24  1  0
  8 25  1  0
 12 26  1  0
  9 27  1  0
 11 28  1  0
 18 29  1  0
 14 30  1  0
 14 31  1  0
 14 32  1  0
 15 33  1  0
 15 34  1  0
 15 35  1  0
M  END
