
     RDKit          3D

 42 44  0  0  0  0  0  0  0  0999 V2000
   -4.1729   -0.1567   -0.1182 C   0  0  0  0  0  0  0  0  0  0  0  0
   -4.3775    1.2246   -0.2585 C   0  0  0  0  0  0  0  0  0  0  0  0
   -3.3208    2.1207   -0.3054 C   0  0  0  0  0  0  0  0  0  0  0  0
   -2.0250    1.6232   -0.2053 C   0  0  0  0  0  0  0  0  0  0  0  0
   -0.4693    0.0766   -0.0115 N   0  0  0  0  0  0  0  0  0  0  0  0
   -1.8357    0.2334   -0.0771 C   0  0  0  0  0  0  0  0  0  0  0  0
   -2.8756   -0.6685   -0.0415 C   0  0  0  0  0  0  0  0  0  0  0  0
   -5.1354   -2.3020   -0.4282 O   0  0  0  0  0  0  0  0  0  0  0  0
   -5.2952   -1.1399   -0.0863 C   0  0  0  0  0  0  0  0  0  0  0  0
   -6.4720   -0.6506    0.3556 N   0  0  0  0  0  0  0  0  0  0  0  0
   -7.6010   -1.4481    0.4026 N   0  0  0  0  0  0  0  0  0  0  0  0
    0.0802    1.3193   -0.1031 C   0  0  0  0  0  0  0  0  0  0  0  0
   -0.8210    2.2728   -0.2178 N   0  0  0  0  0  0  0  0  0  0  0  0
    1.4090    1.5284   -0.1083 N   0  0  0  0  0  0  0  0  0  0  0  0
    2.3772    0.5169    0.2570 C   0  0  0  0  0  0  0  0  0  0  0  0
   -5.3804    1.6176   -0.3669 H   0  0  0  0  0  0  0  0  0  0  0  0
   -3.5013    3.1808   -0.4258 H   0  0  0  0  0  0  0  0  0  0  0  0
    0.0206   -0.7959    0.1032 H   0  0  0  0  0  0  0  0  0  0  0  0
   -2.7027   -1.7325    0.0517 H   0  0  0  0  0  0  0  0  0  0  0  0
   -6.5137    0.2748    0.7557 H   0  0  0  0  0  0  0  0  0  0  0  0
   -7.9136   -1.5266    1.3618 H   0  0  0  0  0  0  0  0  0  0  0  0
   -8.3408   -1.0018   -0.1236 H   0  0  0  0  0  0  0  0  0  0  0  0
    1.6751    2.4908    0.0347 H   0  0  0  0  0  0  0  0  0  0  0  0
    2.3630    0.3023    1.3308 H   0  0  0  0  0  0  0  0  0  0  0  0
    2.1300   -0.4095   -0.2657 H   0  0  0  0  0  0  0  0  0  0  0  0
    3.7713    0.9770   -0.1470 C   0  0  0  0  0  0  0  0  0  0  0  0
    4.7784    0.0019    0.2107 N   0  0  0  0  0  0  0  0  0  0  0  0
    6.1011    0.5934    0.3149 C   0  0  0  0  0  0  0  0  0  0  0  0
    7.1031   -0.4540    0.7605 C   0  0  0  0  0  0  0  0  0  0  0  0
    7.1333   -1.5528   -0.1238 O   0  0  0  0  0  0  0  0  0  0  0  0
    5.8540   -2.1345   -0.2407 C   0  0  0  0  0  0  0  0  0  0  0  0
    4.8213   -1.1255   -0.7054 C   0  0  0  0  0  0  0  0  0  0  0  0
    3.7818    1.2164   -1.2222 H   0  0  0  0  0  0  0  0  0  0  0  0
    3.9964    1.9064    0.3839 H   0  0  0  0  0  0  0  0  0  0  0  0
    6.4311    1.0347   -0.6412 H   0  0  0  0  0  0  0  0  0  0  0  0
    6.0808    1.3985    1.0533 H   0  0  0  0  0  0  0  0  0  0  0  0
    8.1063   -0.0257    0.7864 H   0  0  0  0  0  0  0  0  0  0  0  0
    6.8500   -0.7874    1.7769 H   0  0  0  0  0  0  0  0  0  0  0  0
    5.9297   -2.9496   -0.9617 H   0  0  0  0  0  0  0  0  0  0  0  0
    5.5363   -2.5622    0.7212 H   0  0  0  0  0  0  0  0  0  0  0  0
    3.8499   -1.6234   -0.7433 H   0  0  0  0  0  0  0  0  0  0  0  0
    5.0587   -0.7992   -1.7326 H   0  0  0  0  0  0  0  0  0  0  0  0
 15 14  1  0
 14 12  1  0
 12 13  2  0
 12  5  1  0
 13  4  1  0
  5  6  1  0
  4  6  2  0
  4  3  1  0
  6  7  1  0
  3  2  2  0
  7  1  2  0
  2  1  1  0
  1  9  1  0
  9  8  2  0
  9 10  1  0
 10 11  1  0
  2 16  1  0
  3 17  1  0
  5 18  1  0
  7 19  1  0
 10 20  1  0
 11 21  1  0
 11 22  1  0
 14 23  1  0
 15 24  1  0
 15 25  1  0
 15 26  1  0
 26 27  1  0
 27 28  1  0
 28 29  1  0
 29 30  1  0
 30 31  1  0
 31 32  1  0
 32 27  1  0
 26 33  1  0
 26 34  1  0
 28 35  1  0
 28 36  1  0
 29 37  1  0
 29 38  1  0
 31 39  1  0
 31 40  1  0
 32 41  1  0
 32 42  1  0
M  END
