
     RDKit          3D

 59 63  0  0  0  0  0  0  0  0999 V2000
   -5.6048   -1.5761   -1.0576 C   0  0  0  0  0  0  0  0  0  0  0  0
   -6.1119   -2.6140   -0.0696 C   0  0  0  0  0  0  0  0  0  0  0  0
   -6.2731   -2.0441    1.2538 N   0  0  0  0  0  0  0  0  0  0  0  0
   -6.8440   -3.0001    2.1737 C   0  0  0  0  0  0  0  0  0  0  0  0
   -5.0205   -1.5116    1.7540 C   0  0  0  0  0  0  0  0  0  0  0  0
   -4.4684   -0.4312    0.8366 C   0  0  0  0  0  0  0  0  0  0  0  0
   -4.2909   -0.9634   -0.5819 C   0  0  2  0  0  0  0  0  0  0  0  0
   -3.8347    0.1109   -1.5620 C   0  0  0  0  0  0  0  0  0  0  0  0
   -2.5735    0.7124   -1.1944 N   0  0  0  0  0  0  0  0  0  0  0  0
   -1.4316    0.0179   -1.2976 N   0  0  0  0  0  0  0  0  0  0  0  0
   -2.3647    1.9191   -0.6379 C   0  0  0  0  0  0  0  0  0  0  0  0
   -3.2814    2.8584   -0.3860 N   0  0  0  0  0  0  0  0  0  0  0  0
   -2.7479    3.9442    0.1328 C   0  0  0  0  0  0  0  0  0  0  0  0
   -1.4650    4.1994    0.3862 N   0  0  0  0  0  0  0  0  0  0  0  0
   -0.5535    3.2617    0.1165 C   0  0  0  0  0  0  0  0  0  0  0  0
    0.7286    3.5566    0.3371 N   0  0  0  0  0  0  0  0  0  0  0  0
   -0.9935    2.0139   -0.3856 C   0  0  0  0  0  0  0  0  0  0  0  0
   -0.4643    0.7665   -0.8185 C   0  0  0  0  0  0  0  0  0  0  0  0
    0.9169    0.2769   -0.7943 C   0  0  0  0  0  0  0  0  0  0  0  0
    1.7118    0.4504    0.3117 C   0  0  0  0  0  0  0  0  0  0  0  0
    1.4399   -0.4150   -1.9174 C   0  0  0  0  0  0  0  0  0  0  0  0
    2.7215   -0.8824   -1.9188 C   0  0  0  0  0  0  0  0  0  0  0  0
    3.5673   -0.6963   -0.7961 C   0  0  0  0  0  0  0  0  0  0  0  0
    4.8956   -1.1581   -0.7783 C   0  0  0  0  0  0  0  0  0  0  0  0
    3.0430   -0.0225    0.3369 C   0  0  0  0  0  0  0  0  0  0  0  0
    3.8781    0.1480    1.4609 C   0  0  0  0  0  0  0  0  0  0  0  0
    5.1680   -0.3097    1.4667 C   0  0  0  0  0  0  0  0  0  0  0  0
    5.6926   -0.9697    0.3292 C   0  0  0  0  0  0  0  0  0  0  0  0
    6.9512   -1.4359    0.2599 O   0  0  0  0  0  0  0  0  0  0  0  0
    7.8284   -1.2664    1.3672 C   0  0  0  0  0  0  0  0  0  0  0  0
    9.1771   -1.8241    0.9790 C   0  0  0  0  0  0  0  0  0  0  0  0
   -5.4793   -2.0406   -2.0391 H   0  0  0  0  0  0  0  0  0  0  0  0
   -6.3577   -0.7883   -1.1688 H   0  0  0  0  0  0  0  0  0  0  0  0
   -7.0782   -3.0005   -0.4033 H   0  0  0  0  0  0  0  0  0  0  0  0
   -5.4156   -3.4731   -0.0571 H   0  0  0  0  0  0  0  0  0  0  0  0
   -6.2111   -3.8886    2.3297 H   0  0  0  0  0  0  0  0  0  0  0  0
   -7.0054   -2.5340    3.1471 H   0  0  0  0  0  0  0  0  0  0  0  0
   -7.8112   -3.3448    1.8037 H   0  0  0  0  0  0  0  0  0  0  0  0
   -5.1906   -1.0969    2.7507 H   0  0  0  0  0  0  0  0  0  0  0  0
   -4.2619   -2.3082    1.8699 H   0  0  0  0  0  0  0  0  0  0  0  0
   -5.1537    0.4229    0.8248 H   0  0  0  0  0  0  0  0  0  0  0  0
   -3.5189   -0.0760    1.2446 H   0  0  0  0  0  0  0  0  0  0  0  0
   -3.5316   -1.7556   -0.5620 H   0  0  0  0  0  0  0  0  0  0  0  0
   -3.7331   -0.3059   -2.5657 H   0  0  0  0  0  0  0  0  0  0  0  0
   -4.5683    0.9166   -1.6126 H   0  0  0  0  0  0  0  0  0  0  0  0
   -3.4370    4.7452    0.3802 H   0  0  0  0  0  0  0  0  0  0  0  0
    0.9763    4.4914    0.6150 H   0  0  0  0  0  0  0  0  0  0  0  0
    1.4694    2.9511    0.0298 H   0  0  0  0  0  0  0  0  0  0  0  0
    1.3189    0.9306    1.2015 H   0  0  0  0  0  0  0  0  0  0  0  0
    0.8113   -0.5575   -2.7867 H   0  0  0  0  0  0  0  0  0  0  0  0
    3.1084   -1.3986   -2.7891 H   0  0  0  0  0  0  0  0  0  0  0  0
    5.2960   -1.6671   -1.6473 H   0  0  0  0  0  0  0  0  0  0  0  0
    3.4886    0.6533    2.3364 H   0  0  0  0  0  0  0  0  0  0  0  0
    5.7744   -0.1581    2.3491 H   0  0  0  0  0  0  0  0  0  0  0  0
    7.9179   -0.2060    1.6240 H   0  0  0  0  0  0  0  0  0  0  0  0
    7.4361   -1.7898    2.2453 H   0  0  0  0  0  0  0  0  0  0  0  0
    9.5947   -1.2919    0.1244 H   0  0  0  0  0  0  0  0  0  0  0  0
    9.8677   -1.7110    1.8138 H   0  0  0  0  0  0  0  0  0  0  0  0
    9.1164   -2.8846    0.7347 H   0  0  0  0  0  0  0  0  0  0  0  0
 27 26  2  0
 27 28  1  0
 26 25  1  0
 29 28  1  0
 29 30  1  0
 28 24  2  0
 31 30  1  0
 25 20  2  0
 25 23  1  0
 20 19  1  0
 24 23  1  0
 23 22  2  0
 16 15  1  0
 19 18  1  0
 19 21  2  0
 15 14  1  0
 15 17  2  0
 14 13  2  0
 18 17  1  0
 18 10  2  0
 17 11  1  0
 22 21  1  0
 10  9  1  0
 13 12  1  0
 11 12  2  0
 11  9  1  0
  9  8  1  0
  8  7  1  0
  7  1  1  0
  7  6  1  0
  1  2  1  0
  6  5  1  0
  2  3  1  0
  5  3  1  0
  3  4  1  0
  1 32  1  0
  1 33  1  0
  2 34  1  0
  2 35  1  0
  4 36  1  0
  4 37  1  0
  4 38  1  0
  5 39  1  0
  5 40  1  0
  6 41  1  0
  6 42  1  0
  7 43  1  1
  8 44  1  0
  8 45  1  0
 13 46  1  0
 16 47  1  0
 16 48  1  0
 20 49  1  0
 21 50  1  0
 22 51  1  0
 24 52  1  0
 26 53  1  0
 27 54  1  0
 30 55  1  0
 30 56  1  0
 31 57  1  0
 31 58  1  0
 31 59  1  0
M  END
