
     RDKit          3D

 48 50  0  0  0  0  0  0  0  0999 V2000
   -1.2618    2.9399    0.1510 C   0  0  0  0  0  0  0  0  0  0  0  0
   -0.1311    3.5383    0.6811 C   0  0  0  0  0  0  0  0  0  0  0  0
    1.0914    2.8781    0.7097 C   0  0  0  0  0  0  0  0  0  0  0  0
    2.4822    0.8794    0.2457 C   0  0  0  0  0  0  0  0  0  0  0  0
    4.1060   -0.6657    0.2408 C   0  0  0  0  0  0  0  0  0  0  0  0
    1.8198   -1.5469    0.2144 C   0  0  0  0  0  0  0  0  0  0  0  0
    1.6147   -2.3255   -0.9144 C   0  0  0  0  0  0  0  0  0  0  0  0
    0.7368   -3.3903   -0.9054 C   0  0  0  0  0  0  0  0  0  0  0  0
    1.1473   -1.8578    1.3878 C   0  0  0  0  0  0  0  0  0  0  0  0
   -3.5642   -3.1332    1.6667 C   0  0  0  0  0  0  0  0  0  0  0  0
    1.1921    1.5516    0.2218 C   0  0  0  0  0  0  0  0  0  0  0  0
    0.0519    0.9604   -0.3053 C   0  0  0  0  0  0  0  0  0  0  0  0
   -1.1619    1.6225   -0.3363 C   0  0  0  0  0  0  0  0  0  0  0  0
   -2.3842    3.6580    0.1221 O   0  0  0  0  0  0  0  0  0  0  0  0
    2.1268    3.5524    1.1932 O   0  0  0  0  0  0  0  0  0  0  0  0
    3.5973    1.5268    0.3593 N   0  0  0  0  0  0  0  0  0  0  0  0
    4.5758    0.5967    0.3616 N   0  0  0  0  0  0  0  0  0  0  0  0
    2.7272   -0.4688    0.1675 N   0  0  0  0  0  0  0  0  0  0  0  0
    0.0591   -3.6836    0.2693 C   0  0  0  0  0  0  0  0  0  0  0  0
    0.2644   -2.9247    1.4147 C   0  0  0  0  0  0  0  0  0  0  0  0
    4.6949   -1.7255    0.2119 O   0  0  0  0  0  0  0  0  0  0  0  0
   -2.5744    0.8198   -1.0119 S   0  0  1  0  0  0  0  0  0  0  0  0
   -3.3291    1.8377   -1.7507 O   0  0  0  0  0  0  0  0  0  0  0  0
   -2.1148   -0.3624   -1.7221 O   0  0  0  0  0  0  0  0  0  0  0  0
   -3.4897    0.4418    0.2938 N   0  0  0  0  0  0  0  0  0  0  0  0
   -3.1062   -0.7220    1.0921 C   0  0  0  0  0  0  0  0  0  0  0  0
   -3.6962   -2.0444    0.6122 C   0  0  0  0  0  0  0  0  0  0  0  0
   -4.9068    0.7948    0.2917 C   0  0  0  0  0  0  0  0  0  0  0  0
    2.2750   -2.0164   -2.0323 F   0  0  0  0  0  0  0  0  0  0  0  0
   -0.1896    4.5582    1.0401 H   0  0  0  0  0  0  0  0  0  0  0  0
    0.5882   -3.9776   -1.8016 H   0  0  0  0  0  0  0  0  0  0  0  0
    1.3184   -1.2580    2.2722 H   0  0  0  0  0  0  0  0  0  0  0  0
   -3.9890   -4.0728    1.3144 H   0  0  0  0  0  0  0  0  0  0  0  0
   -2.5222   -3.3221    1.9246 H   0  0  0  0  0  0  0  0  0  0  0  0
   -4.0849   -2.8555    2.5851 H   0  0  0  0  0  0  0  0  0  0  0  0
    0.0987   -0.0352   -0.7211 H   0  0  0  0  0  0  0  0  0  0  0  0
   -3.0072    3.3004   -0.5326 H   0  0  0  0  0  0  0  0  0  0  0  0
    2.9575    3.0505    1.0563 H   0  0  0  0  0  0  0  0  0  0  0  0
    5.5427    0.8724    0.4289 H   0  0  0  0  0  0  0  0  0  0  0  0
   -0.6333   -4.5144    0.2863 H   0  0  0  0  0  0  0  0  0  0  0  0
   -0.2552   -3.1665    2.3312 H   0  0  0  0  0  0  0  0  0  0  0  0
   -2.0161   -0.7840    1.1446 H   0  0  0  0  0  0  0  0  0  0  0  0
   -3.4420   -0.5124    2.1109 H   0  0  0  0  0  0  0  0  0  0  0  0
   -3.2079   -2.3511   -0.3137 H   0  0  0  0  0  0  0  0  0  0  0  0
   -4.7545   -1.9054    0.3771 H   0  0  0  0  0  0  0  0  0  0  0  0
   -5.4985    0.2304   -0.4302 H   0  0  0  0  0  0  0  0  0  0  0  0
   -5.2847    0.5750    1.2880 H   0  0  0  0  0  0  0  0  0  0  0  0
   -5.0494    1.8568    0.1142 H   0  0  0  0  0  0  0  0  0  0  0  0
 17  5  1  0
 17 16  1  0
 21  5  2  0
  5 18  1  0
 16  4  2  0
 29  7  1  0
 18  4  1  0
 18  6  1  0
  4 11  1  0
  7  6  2  0
  7  8  1  0
 10 27  1  0
  6  9  1  0
 15  3  1  0
 11  3  2  0
 11 12  1  0
  3  2  1  0
  8 19  2  0
 12 13  2  0
 26 27  1  0
 26 25  1  0
  9 20  2  0
  2  1  2  0
 19 20  1  0
 13  1  1  0
 13 22  1  0
 25 28  1  0
 22 25  1  1
 23 22  2  0
  1 14  1  0
 22 24  2  0
  2 30  1  0
  8 31  1  0
  9 32  1  0
 10 33  1  0
 10 34  1  0
 10 35  1  0
 12 36  1  0
 14 37  1  0
 15 38  1  0
 17 39  1  0
 19 40  1  0
 20 41  1  0
 26 42  1  0
 26 43  1  0
 27 44  1  0
 27 45  1  0
 28 46  1  0
 28 47  1  0
 28 48  1  0
M  END
