
     RDKit          3D

 33 34  0  0  0  0  0  0  0  0999 V2000
    6.4062   -0.5795   -0.3179 C   0  0  0  0  0  0  0  0  0  0  0  0
    5.7611    0.1783   -1.2868 C   0  0  0  0  0  0  0  0  0  0  0  0
    5.7953   -0.7827    0.9127 C   0  0  0  0  0  0  0  0  0  0  0  0
   -5.2717   -1.1678    0.5511 C   0  0  0  0  0  0  0  0  0  0  0  0
   -6.0969   -0.2765   -0.1196 C   0  0  0  0  0  0  0  0  0  0  0  0
    4.5131    0.7272   -1.0246 C   0  0  0  0  0  0  0  0  0  0  0  0
    4.5470   -0.2318    1.1705 C   0  0  0  0  0  0  0  0  0  0  0  0
   -3.9295   -0.8633    0.6980 C   0  0  0  0  0  0  0  0  0  0  0  0
   -4.3678    1.1491   -0.5064 C   0  0  0  0  0  0  0  0  0  0  0  0
    1.4466    0.1092   -0.0048 C   0  0  0  0  0  0  0  0  0  0  0  0
   -1.0114    0.0157    0.0164 C   0  0  0  0  0  0  0  0  0  0  0  0
    3.8909    0.5295    0.2063 C   0  0  0  0  0  0  0  0  0  0  0  0
   -3.4564    0.3212    0.1431 C   0  0  0  0  0  0  0  0  0  0  0  0
   -5.6565    0.8662   -0.6301 N   0  0  0  0  0  0  0  0  0  0  0  0
    0.1322    0.6624    0.2438 N   0  0  0  0  0  0  0  0  0  0  0  0
   -2.1289    0.7477    0.2667 N   0  0  0  0  0  0  0  0  0  0  0  0
   -1.0434   -1.5618   -0.5522 S   0  0  0  0  0  0  0  0  0  0  0  0
    7.3801   -1.0063   -0.5197 H   0  0  0  0  0  0  0  0  0  0  0  0
    6.2303    0.3445   -2.2482 H   0  0  0  0  0  0  0  0  0  0  0  0
    6.2918   -1.3700    1.6744 H   0  0  0  0  0  0  0  0  0  0  0  0
   -7.1519   -0.4924   -0.2435 H   0  0  0  0  0  0  0  0  0  0  0  0
    4.0165    1.3197   -1.7846 H   0  0  0  0  0  0  0  0  0  0  0  0
    4.0793   -0.3921    2.1353 H   0  0  0  0  0  0  0  0  0  0  0  0
   -3.2690   -1.5255    1.2381 H   0  0  0  0  0  0  0  0  0  0  0  0
   -4.0280    2.0864   -0.9368 H   0  0  0  0  0  0  0  0  0  0  0  0
    1.5721   -0.0986   -1.0709 H   0  0  0  0  0  0  0  0  0  0  0  0
    1.5476   -0.8435    0.5192 H   0  0  0  0  0  0  0  0  0  0  0  0
    0.0931    1.6141    0.5792 H   0  0  0  0  0  0  0  0  0  0  0  0
   -2.0058    1.7433    0.3935 H   0  0  0  0  0  0  0  0  0  0  0  0
    2.5194    1.0846    0.4690 C   0  0  0  0  0  0  0  0  0  0  0  0
   -5.6779   -2.0792    0.9674 H   0  0  0  0  0  0  0  0  0  0  0  0
    2.3968    2.0411   -0.0460 H   0  0  0  0  0  0  0  0  0  0  0  0
    2.3900    1.2750    1.5373 H   0  0  0  0  0  0  0  0  0  0  0  0
 17 11  2  0
 15 11  1  0
 15 10  1  0
 11 16  1  0
 30 12  1  0
 30 10  1  0
  6 12  2  0
  6  2  1  0
 12  7  1  0
 16 13  1  0
  2  1  2  0
  7  3  2  0
  8 13  1  0
  8  4  2  0
 13  9  2  0
  1  3  1  0
  4  5  1  0
  9 14  1  0
  5 14  2  0
  1 18  1  0
  2 19  1  0
  3 20  1  0
  4 31  1  0
  5 21  1  0
  6 22  1  0
  7 23  1  0
  8 24  1  0
  9 25  1  0
 10 26  1  0
 10 27  1  0
 30 32  1  0
 30 33  1  0
 15 28  1  0
 16 29  1  0
M  END
