
     RDKit          3D

 19 19  0  0  0  0  0  0  0  0999 V2000
   -0.9534   -0.1523    1.3065 C   0  0  0  0  0  0  0  0  0  0  0  0
    0.3821   -0.0450    0.8661 C   0  0  0  0  0  0  0  0  0  0  0  0
    0.6433    0.1532   -0.4782 C   0  0  0  0  0  0  0  0  0  0  0  0
   -0.4133    0.2326   -1.3871 C   0  0  0  0  0  0  0  0  0  0  0  0
   -1.7205    0.1177   -0.9676 C   0  0  0  0  0  0  0  0  0  0  0  0
   -1.9834   -0.0627    0.3890 C   0  0  0  0  0  0  0  0  0  0  0  0
   -0.1639    0.4865   -2.7134 O   0  0  0  0  0  0  0  0  0  0  0  0
    0.4183   -0.6687   -3.3055 O   0  0  0  0  0  0  0  0  0  0  0  0
    1.3169   -0.1385    1.8278 O   0  0  0  0  0  0  0  0  0  0  0  0
   -1.1410   -0.3410    2.6267 O   0  0  0  0  0  0  0  0  0  0  0  0
    2.6749   -0.0390    1.4494 C   0  0  0  0  0  0  0  0  0  0  0  0
    1.6593    0.2574   -0.8369 H   0  0  0  0  0  0  0  0  0  0  0  0
   -2.5345    0.1741   -1.6780 H   0  0  0  0  0  0  0  0  0  0  0  0
   -3.0100   -0.1440    0.7274 H   0  0  0  0  0  0  0  0  0  0  0  0
    1.3141   -0.3627   -3.5081 H   0  0  0  0  0  0  0  0  0  0  0  0
   -2.0816   -0.4298    2.8162 H   0  0  0  0  0  0  0  0  0  0  0  0
    3.2590   -0.1583    2.3584 H   0  0  0  0  0  0  0  0  0  0  0  0
    2.9597   -0.8226    0.7423 H   0  0  0  0  0  0  0  0  0  0  0  0
    2.9043    0.9342    1.0072 H   0  0  0  0  0  0  0  0  0  0  0  0
  1  2  2  0
  1  6  1  0
  1 10  1  0
  2  3  1  0
  2  9  1  0
  3  4  2  0
  3 12  1  0
  4  5  1  0
  4  7  1  0
  5  6  2  0
  5 13  1  0
  6 14  1  0
  7  8  1  0
  8 15  1  0
  9 11  1  0
 10 16  1  0
 11 17  1  0
 11 18  1  0
 11 19  1  0
M  END
