
     RDKit          3D

 43 44  0  0  0  0  0  0  0  0999 V2000
    9.3177    0.2565    0.9521 C   0  0  0  0  0  0  0  0  0  0  0  0
    8.5436   -0.6430   -0.0209 C   0  0  1  0  0  0  0  0  0  0  0  0
    9.0264   -0.3766   -1.4534 C   0  0  0  0  0  0  0  0  0  0  0  0
    8.8453   -2.1002    0.3300 C   0  0  0  0  0  0  0  0  0  0  0  0
    7.0581   -0.3183    0.0639 C   0  0  0  0  0  0  0  0  0  0  0  0
    6.6180    0.9860   -0.1853 C   0  0  0  0  0  0  0  0  0  0  0  0
    5.2802    1.3240   -0.1208 C   0  0  0  0  0  0  0  0  0  0  0  0
    6.0919   -1.2703    0.3765 C   0  0  0  0  0  0  0  0  0  0  0  0
    4.7436   -0.9434    0.4293 C   0  0  0  0  0  0  0  0  0  0  0  0
    4.3201    0.3567    0.1751 C   0  0  0  0  0  0  0  0  0  0  0  0
    2.8961    0.7766    0.2434 C   0  0  0  0  0  0  0  0  0  0  0  0
    2.5591    1.9184    0.4932 O   0  0  0  0  0  0  0  0  0  0  0  0
    1.9910   -0.2106   -0.0062 N   0  0  0  0  0  0  0  0  0  0  0  0
    0.6813    0.0631    0.0695 N   0  0  0  0  0  0  0  0  0  0  0  0
   -0.1720   -0.8374   -0.2262 C   0  0  0  0  0  0  0  0  0  0  0  0
   -1.5903   -0.5475   -0.1479 C   0  0  0  0  0  0  0  0  0  0  0  0
   -2.5062   -1.5493   -0.4606 C   0  0  0  0  0  0  0  0  0  0  0  0
   -3.8623   -1.3218   -0.4042 C   0  0  0  0  0  0  0  0  0  0  0  0
   -5.0717   -2.6970   -0.8304 Br  0  0  0  0  0  0  0  0  0  0  0  0
   -4.3631   -0.0673   -0.0310 C   0  0  0  0  0  0  0  0  0  0  0  0
   -5.6813    0.0863   -0.0003 O   0  0  0  0  0  0  0  0  0  0  0  0
   -3.4451    0.9376    0.2822 C   0  0  0  0  0  0  0  0  0  0  0  0
   -4.0597    2.6405    0.7898 Br  0  0  0  0  0  0  0  0  0  0  0  0
   -2.0670    0.7231    0.2319 C   0  0  0  0  0  0  0  0  0  0  0  0
   -1.2600    1.7256    0.5417 O   0  0  0  0  0  0  0  0  0  0  0  0
    9.1696    1.3160    0.7398 H   0  0  0  0  0  0  0  0  0  0  0  0
    9.0132    0.0762    1.9844 H   0  0  0  0  0  0  0  0  0  0  0  0
   10.3878    0.0540    0.8770 H   0  0  0  0  0  0  0  0  0  0  0  0
   10.0898   -0.6074   -1.5431 H   0  0  0  0  0  0  0  0  0  0  0  0
    8.4869   -0.9943   -2.1735 H   0  0  0  0  0  0  0  0  0  0  0  0
    8.8916    0.6664   -1.7435 H   0  0  0  0  0  0  0  0  0  0  0  0
    8.5257   -2.3514    1.3427 H   0  0  0  0  0  0  0  0  0  0  0  0
    8.3688   -2.7993   -0.3594 H   0  0  0  0  0  0  0  0  0  0  0  0
    9.9214   -2.2709    0.2743 H   0  0  0  0  0  0  0  0  0  0  0  0
    7.3334    1.7612   -0.4308 H   0  0  0  0  0  0  0  0  0  0  0  0
    4.9776    2.3447   -0.3142 H   0  0  0  0  0  0  0  0  0  0  0  0
    6.3749   -2.2900    0.5955 H   0  0  0  0  0  0  0  0  0  0  0  0
    4.0396   -1.7201    0.7013 H   0  0  0  0  0  0  0  0  0  0  0  0
    2.2879   -1.1208   -0.3361 H   0  0  0  0  0  0  0  0  0  0  0  0
    0.1226   -1.8380   -0.5447 H   0  0  0  0  0  0  0  0  0  0  0  0
   -2.1330   -2.5223   -0.7542 H   0  0  0  0  0  0  0  0  0  0  0  0
   -5.9461    0.9744    0.2743 H   0  0  0  0  0  0  0  0  0  0  0  0
   -0.3227    1.4190    0.4613 H   0  0  0  0  0  0  0  0  0  0  0  0
  2  1  1  1
  2  3  1  0
  2  4  1  0
  2  5  1  0
  5  6  2  0
  5  8  1  0
  6  7  1  0
  7 10  2  0
  8  9  2  0
  9 10  1  0
 10 11  1  0
 11 12  2  0
 11 13  1  0
 13 14  1  0
 14 15  2  0
 15 16  1  0
 16 17  2  0
 16 24  1  0
 17 18  1  0
 18 19  1  0
 18 20  2  0
 20 21  1  0
 20 22  1  0
 22 23  1  0
 22 24  2  0
 24 25  1  0
  1 26  1  0
  1 27  1  0
  1 28  1  0
  3 29  1  0
  3 30  1  0
  3 31  1  0
  4 32  1  0
  4 33  1  0
  4 34  1  0
  6 35  1  0
  7 36  1  0
  8 37  1  0
  9 38  1  0
 13 39  1  0
 15 40  1  0
 17 41  1  0
 21 42  1  0
 25 43  1  0
M  END
