
     RDKit          3D

 24 25  0  0  0  0  0  0  0  0999 V2000
    0.3783   -1.9850   -0.4814 O   0  0  0  0  0  0  0  0  0  0  0  0
    0.6463   -0.8024   -0.4276 C   0  0  0  0  0  0  0  0  0  0  0  0
    1.9139   -0.1160   -0.3131 C   0  0  0  0  0  0  0  0  0  0  0  0
    3.2219   -0.8288   -0.2514 C   0  0  0  0  0  0  0  0  0  0  0  0
    3.4803   -1.4710    1.1107 C   0  0  0  0  0  0  0  0  0  0  0  0
    1.6537    1.2088   -0.2213 C   0  0  0  0  0  0  0  0  0  0  0  0
    2.5784    2.3633   -0.1439 C   0  0  0  0  0  0  0  0  0  0  0  0
    0.2925    1.4482   -0.2003 N   0  0  0  0  0  0  0  0  0  0  0  0
   -0.3125    0.2259   -0.4386 N   0  0  0  0  0  0  0  0  0  0  0  0
   -1.6299    0.0823   -0.1093 C   0  0  0  0  0  0  0  0  0  0  0  0
   -2.3520    0.9986    0.5378 N   0  0  0  0  0  0  0  0  0  0  0  0
   -3.5907    0.5353    0.6616 N   0  0  0  0  0  0  0  0  0  0  0  0
   -3.6031   -0.6113    0.1173 N   0  0  0  0  0  0  0  0  0  0  0  0
   -2.4083   -0.9340   -0.3870 N   0  0  0  0  0  0  0  0  0  0  0  0
    3.2485   -1.5970   -1.0276 H   0  0  0  0  0  0  0  0  0  0  0  0
    4.0298   -0.1327   -0.4849 H   0  0  0  0  0  0  0  0  0  0  0  0
    2.7084   -2.2003    1.3561 H   0  0  0  0  0  0  0  0  0  0  0  0
    4.4407   -1.9873    1.1179 H   0  0  0  0  0  0  0  0  0  0  0  0
    3.4962   -0.7202    1.9010 H   0  0  0  0  0  0  0  0  0  0  0  0
    2.3709    3.0844   -0.9358 H   0  0  0  0  0  0  0  0  0  0  0  0
    2.4700    2.8823    0.8089 H   0  0  0  0  0  0  0  0  0  0  0  0
    3.6106    2.0385   -0.2421 H   0  0  0  0  0  0  0  0  0  0  0  0
   -2.0868    1.8979    0.9164 H   0  0  0  0  0  0  0  0  0  0  0  0
   -0.0345    2.1754   -0.8307 H   0  0  0  0  0  0  0  0  0  0  0  0
  2  1  2  0
  3  2  1  0
  3  4  1  0
  4  5  1  0
  4 15  1  0
  4 16  1  0
  5 17  1  0
  5 18  1  0
  5 19  1  0
  6  3  2  0
  6  8  1  0
  7  6  1  0
  7 20  1  0
  7 21  1  0
  7 22  1  0
  8  9  1  0
  9  2  1  0
  9 10  1  0
 10 14  2  0
 11 10  1  0
 11 12  1  0
 11 23  1  0
 12 13  2  0
 13 14  1  0
  8 24  1  0
M  END
