
     RDKit          3D

 41 42  0  0  0  0  0  0  0  0999 V2000
    7.1665    2.4218   -0.3311 C   0  0  0  0  0  0  0  0  0  0  0  0
    6.3584    1.3116    0.2665 C   0  0  0  0  0  0  0  0  0  0  0  0
    6.0718    0.1859   -0.3991 C   0  0  0  0  0  0  0  0  0  0  0  0
    5.4327   -0.9558    0.0494 N   0  0  0  0  0  0  0  0  0  0  0  0
    4.6620   -1.6916   -0.9377 C   0  0  0  0  0  0  0  0  0  0  0  0
    3.2574   -1.1187   -1.1113 C   0  0  0  0  0  0  0  0  0  0  0  0
    4.7754   -0.9389    1.3402 C   0  0  0  0  0  0  0  0  0  0  0  0
    3.3783   -0.3264    1.2666 C   0  0  0  0  0  0  0  0  0  0  0  0
    2.5220   -1.0732    0.2350 C   0  0  1  0  0  0  0  0  0  0  0  0
    1.1741   -0.4450    0.0966 C   0  0  0  0  0  0  0  0  0  0  0  0
    0.0261   -1.1042    0.2652 C   0  0  0  0  0  0  0  0  0  0  0  0
   -1.3262   -0.5555    0.1463 C   0  0  0  0  0  0  0  0  0  0  0  0
   -1.5906    0.8054   -0.0361 C   0  0  0  0  0  0  0  0  0  0  0  0
   -2.8872    1.2740   -0.1352 C   0  0  0  0  0  0  0  0  0  0  0  0
   -3.9603    0.3911   -0.0496 C   0  0  0  0  0  0  0  0  0  0  0  0
   -5.3610    0.8894   -0.1958 C   0  0  1  0  0  0  0  0  0  0  0  0
   -5.7739    0.8540   -1.4738 F   0  0  0  0  0  0  0  0  0  0  0  0
   -6.2351    0.1571    0.5059 F   0  0  0  0  0  0  0  0  0  0  0  0
   -5.4951    2.1572    0.2122 F   0  0  0  0  0  0  0  0  0  0  0  0
   -3.7174   -0.9648    0.1297 C   0  0  0  0  0  0  0  0  0  0  0  0
   -2.4155   -1.4256    0.2280 C   0  0  0  0  0  0  0  0  0  0  0  0
    6.6091    3.3619   -0.3561 H   0  0  0  0  0  0  0  0  0  0  0  0
    8.0777    2.6188    0.2399 H   0  0  0  0  0  0  0  0  0  0  0  0
    7.4683    2.1927   -1.3543 H   0  0  0  0  0  0  0  0  0  0  0  0
    6.0207    1.4554    1.2875 H   0  0  0  0  0  0  0  0  0  0  0  0
    6.4130    0.0940   -1.4278 H   0  0  0  0  0  0  0  0  0  0  0  0
    5.1993   -1.6904   -1.8879 H   0  0  0  0  0  0  0  0  0  0  0  0
    4.5934   -2.7355   -0.6146 H   0  0  0  0  0  0  0  0  0  0  0  0
    3.3245   -0.1085   -1.5298 H   0  0  0  0  0  0  0  0  0  0  0  0
    2.6955   -1.7257   -1.8252 H   0  0  0  0  0  0  0  0  0  0  0  0
    4.6968   -1.9734    1.6907 H   0  0  0  0  0  0  0  0  0  0  0  0
    5.3975   -0.4154    2.0664 H   0  0  0  0  0  0  0  0  0  0  0  0
    2.9049   -0.3639    2.2504 H   0  0  0  0  0  0  0  0  0  0  0  0
    3.4532    0.7291    0.9856 H   0  0  0  0  0  0  0  0  0  0  0  0
    2.3893   -2.1065    0.5806 H   0  0  0  0  0  0  0  0  0  0  0  0
    1.1689    0.6114   -0.1639 H   0  0  0  0  0  0  0  0  0  0  0  0
    0.0740   -2.1625    0.5083 H   0  0  0  0  0  0  0  0  0  0  0  0
   -0.7791    1.5188   -0.0910 H   0  0  0  0  0  0  0  0  0  0  0  0
   -3.0492    2.3353   -0.2693 H   0  0  0  0  0  0  0  0  0  0  0  0
   -4.5314   -1.6740    0.1986 H   0  0  0  0  0  0  0  0  0  0  0  0
   -2.2420   -2.4850    0.3713 H   0  0  0  0  0  0  0  0  0  0  0  0
  1  2  1  0
  2  3  2  0
  3  4  1  0
  7  4  1  0
  7  8  1  0
  4  5  1  0
  8  9  1  0
  5  6  1  0
  9  6  1  0
  9 10  1  0
 10 11  2  0
 11 12  1  0
 12 21  1  0
 12 13  2  0
 21 20  2  0
 13 14  1  0
 20 15  1  0
 14 15  2  0
 15 16  1  0
 16 19  1  1
 16 17  1  0
 16 18  1  0
  1 22  1  0
  1 23  1  0
  1 24  1  0
  2 25  1  0
  3 26  1  0
  5 27  1  0
  5 28  1  0
  6 29  1  0
  6 30  1  0
  7 31  1  0
  7 32  1  0
  8 33  1  0
  8 34  1  0
  9 35  1  1
 10 36  1  0
 11 37  1  0
 13 38  1  0
 14 39  1  0
 20 40  1  0
 21 41  1  0
M  END
