
     RDKit          3D

 73 77  0  0  0  0  0  0  0  0999 V2000
    7.5498    3.2069   -1.6044 C   0  0  0  0  0  0  0  0  0  0  0  0
    6.3206    4.0632   -1.8629 C   0  0  0  0  0  0  0  0  0  0  0  0
    5.4672    4.1237   -0.6072 C   0  0  0  0  0  0  0  0  0  0  0  0
    4.9389    2.7336   -0.2838 C   0  0  0  0  0  0  0  0  0  0  0  0
    6.0155    1.6809   -0.2593 C   0  0  0  0  0  0  0  0  0  0  0  0
    7.2680    1.9155   -0.8784 C   0  0  0  0  0  0  0  0  0  0  0  0
    8.2795    1.0792   -0.8233 N   0  0  0  0  0  0  0  0  0  0  0  0
    8.1319   -0.0731   -0.1448 C   0  0  0  0  0  0  0  0  0  0  0  0
    9.2392   -0.9530   -0.0948 C   0  0  0  0  0  0  0  0  0  0  0  0
    9.1285   -2.1441    0.5613 C   0  0  0  0  0  0  0  0  0  0  0  0
   10.4819   -3.2239    0.6253 Cl  0  0  0  0  0  0  0  0  0  0  0  0
    7.9295   -2.5313    1.1864 C   0  0  0  0  0  0  0  0  0  0  0  0
    6.8541   -1.6868    1.1470 C   0  0  0  0  0  0  0  0  0  0  0  0
    6.9244   -0.4326    0.4990 C   0  0  0  0  0  0  0  0  0  0  0  0
    5.8372    0.4911    0.4353 C   0  0  0  0  0  0  0  0  0  0  0  0
    4.6520    0.2251    1.1006 N   0  0  0  0  0  0  0  0  0  0  0  0
    3.4145    0.0204    0.3534 C   0  0  0  0  0  0  0  0  0  0  0  0
    2.2158    0.0498    1.2857 C   0  0  0  0  0  0  0  0  0  0  0  0
    0.9038   -0.1675    0.5439 C   0  0  0  0  0  0  0  0  0  0  0  0
   -0.3035   -0.1750    1.4730 C   0  0  0  0  0  0  0  0  0  0  0  0
   -1.6169   -0.3734    0.7288 C   0  0  0  0  0  0  0  0  0  0  0  0
   -2.8079   -0.3921    1.6731 C   0  0  0  0  0  0  0  0  0  0  0  0
   -4.0396   -0.6014    0.9394 N   0  0  0  0  0  0  0  0  0  0  0  0
   -5.2517   -0.4822    1.4923 C   0  0  0  0  0  0  0  0  0  0  0  0
   -5.4219   -0.1876    2.6692 O   0  0  0  0  0  0  0  0  0  0  0  0
   -6.4295   -0.6789    0.5485 C   0  0  1  0  0  0  0  0  0  0  0  0
   -7.4110   -1.5172    1.2081 N   0  0  0  0  0  0  0  0  0  0  0  0
   -6.9347    0.7131    0.1081 C   0  0  0  0  0  0  0  0  0  0  0  0
   -8.0859    0.6326   -0.8381 C   0  0  0  0  0  0  0  0  0  0  0  0
   -9.4790    0.5491   -0.5076 C   0  0  0  0  0  0  0  0  0  0  0  0
  -10.1944    0.5587    0.6969 C   0  0  0  0  0  0  0  0  0  0  0  0
  -11.5717    0.4705    0.6596 C   0  0  0  0  0  0  0  0  0  0  0  0
  -12.2587    0.3703   -0.5624 C   0  0  0  0  0  0  0  0  0  0  0  0
  -11.5825    0.3603   -1.7668 C   0  0  0  0  0  0  0  0  0  0  0  0
  -10.1916    0.4521   -1.7246 C   0  0  0  0  0  0  0  0  0  0  0  0
   -9.2750    0.4723   -2.7333 N   0  0  0  0  0  0  0  0  0  0  0  0
   -8.0207    0.5821   -2.2033 C   0  0  0  0  0  0  0  0  0  0  0  0
    8.0734    2.9743   -2.5343 H   0  0  0  0  0  0  0  0  0  0  0  0
    8.2607    3.7741   -0.9941 H   0  0  0  0  0  0  0  0  0  0  0  0
    6.6300    5.0603   -2.1809 H   0  0  0  0  0  0  0  0  0  0  0  0
    5.7313    3.6404   -2.6825 H   0  0  0  0  0  0  0  0  0  0  0  0
    6.0634    4.5076    0.2266 H   0  0  0  0  0  0  0  0  0  0  0  0
    4.6269    4.8083   -0.7350 H   0  0  0  0  0  0  0  0  0  0  0  0
    4.4171    2.7290    0.6776 H   0  0  0  0  0  0  0  0  0  0  0  0
    4.1827    2.4807   -1.0352 H   0  0  0  0  0  0  0  0  0  0  0  0
   10.1571   -0.6570   -0.5853 H   0  0  0  0  0  0  0  0  0  0  0  0
    7.8579   -3.4884    1.6842 H   0  0  0  0  0  0  0  0  0  0  0  0
    5.9395   -2.0191    1.6199 H   0  0  0  0  0  0  0  0  0  0  0  0
    4.7535   -0.4925    1.8030 H   0  0  0  0  0  0  0  0  0  0  0  0
    3.3061    0.7992   -0.3995 H   0  0  0  0  0  0  0  0  0  0  0  0
    3.4406   -0.9333   -0.1899 H   0  0  0  0  0  0  0  0  0  0  0  0
    2.3324   -0.7225    2.0540 H   0  0  0  0  0  0  0  0  0  0  0  0
    2.1946    1.0108    1.8086 H   0  0  0  0  0  0  0  0  0  0  0  0
    0.7773    0.6175   -0.2090 H   0  0  0  0  0  0  0  0  0  0  0  0
    0.9428   -1.1147   -0.0049 H   0  0  0  0  0  0  0  0  0  0  0  0
   -0.1819   -0.9687    2.2175 H   0  0  0  0  0  0  0  0  0  0  0  0
   -0.3379    0.7666    2.0314 H   0  0  0  0  0  0  0  0  0  0  0  0
   -1.7481    0.4263   -0.0068 H   0  0  0  0  0  0  0  0  0  0  0  0
   -1.5814   -1.3138    0.1683 H   0  0  0  0  0  0  0  0  0  0  0  0
   -2.6752   -1.1803    2.4209 H   0  0  0  0  0  0  0  0  0  0  0  0
   -2.8654    0.5540    2.2166 H   0  0  0  0  0  0  0  0  0  0  0  0
   -3.9728   -0.9042   -0.0191 H   0  0  0  0  0  0  0  0  0  0  0  0
   -6.0928   -1.2056   -0.3500 H   0  0  0  0  0  0  0  0  0  0  0  0
   -7.7480   -1.0501    2.0413 H   0  0  0  0  0  0  0  0  0  0  0  0
   -8.2132   -1.6339    0.6017 H   0  0  0  0  0  0  0  0  0  0  0  0
   -7.2210    1.2838    0.9972 H   0  0  0  0  0  0  0  0  0  0  0  0
   -6.1090    1.2574   -0.3585 H   0  0  0  0  0  0  0  0  0  0  0  0
   -9.6781    0.6382    1.6464 H   0  0  0  0  0  0  0  0  0  0  0  0
  -12.1360    0.4770    1.5833 H   0  0  0  0  0  0  0  0  0  0  0  0
  -13.3388    0.3020   -0.5595 H   0  0  0  0  0  0  0  0  0  0  0  0
  -12.1140    0.2837   -2.7070 H   0  0  0  0  0  0  0  0  0  0  0  0
   -9.4837    0.4366   -3.7169 H   0  0  0  0  0  0  0  0  0  0  0  0
   -7.1566    0.6222   -2.8483 H   0  0  0  0  0  0  0  0  0  0  0  0
  2  3  1  0
  2  1  1  0
  3  4  1  0
  1  6  1  0
  4  5  1  0
  6  5  2  0
  6  7  1  0
  5 15  1  0
  7  8  2  0
 15 16  1  0
 15 14  2  0
  8 14  1  0
  8  9  1  0
 16 17  1  0
 17 18  1  0
 14 13  1  0
  9 10  2  0
 13 12  2  0
 18 19  1  0
 19 20  1  0
 10 12  1  0
 10 11  1  0
 21 20  1  0
 21 22  1  0
 22 23  1  0
 23 24  1  0
 27 26  1  0
 24 25  2  0
 24 26  1  0
 26 28  1  0
 28 29  1  0
 29 37  2  0
 29 30  1  0
 37 36  1  0
 31 30  2  0
 31 32  1  0
 30 35  1  0
 36 35  1  0
 35 34  2  0
 32 33  2  0
 34 33  1  0
  1 38  1  0
  1 39  1  0
  2 40  1  0
  2 41  1  0
  3 42  1  0
  3 43  1  0
  4 44  1  0
  4 45  1  0
  9 46  1  0
 12 47  1  0
 13 48  1  0
 16 49  1  0
 17 50  1  0
 17 51  1  0
 18 52  1  0
 18 53  1  0
 19 54  1  0
 19 55  1  0
 20 56  1  0
 20 57  1  0
 21 58  1  0
 21 59  1  0
 22 60  1  0
 22 61  1  0
 23 62  1  0
 26 63  1  6
 27 64  1  0
 27 65  1  0
 28 66  1  0
 28 67  1  0
 31 68  1  0
 32 69  1  0
 33 70  1  0
 34 71  1  0
 36 72  1  0
 37 73  1  0
M  END
