
     RDKit          3D

 41 43  0  0  0  0  0  0  0  0999 V2000
   -4.3999   -0.1469   -1.1586 N   0  0  0  0  0  0  0  0  0  0  0  0
   -5.5320   -0.7172   -0.8154 C   0  0  0  0  0  0  0  0  0  0  0  0
   -6.4896   -0.8681   -1.7620 N   0  0  0  0  0  0  0  0  0  0  0  0
   -5.8046   -1.1473    0.5222 C   0  0  0  0  0  0  0  0  0  0  0  0
   -4.8581   -0.9600    1.4751 C   0  0  0  0  0  0  0  0  0  0  0  0
   -3.6256   -0.3438    1.1370 C   0  0  0  0  0  0  0  0  0  0  0  0
   -2.5952   -0.1127    2.0692 C   0  0  0  0  0  0  0  0  0  0  0  0
   -1.4269    0.4894    1.6835 C   0  0  0  0  0  0  0  0  0  0  0  0
   -1.2440    0.8856    0.3410 C   0  0  0  0  0  0  0  0  0  0  0  0
   -2.2372    0.6632   -0.5801 C   0  0  0  0  0  0  0  0  0  0  0  0
   -3.4539    0.0473   -0.2108 C   0  0  0  0  0  0  0  0  0  0  0  0
    0.0401    1.5394   -0.0709 C   0  0  0  0  0  0  0  0  0  0  0  0
    1.0614    0.5564    0.0007 O   0  0  0  0  0  0  0  0  0  0  0  0
    4.6225    0.1715   -0.4798 C   0  0  0  0  0  0  0  0  0  0  0  0
    4.9947    1.4546   -0.8801 C   0  0  0  0  0  0  0  0  0  0  0  0
    4.0378    2.4490   -0.9931 C   0  0  0  0  0  0  0  0  0  0  0  0
    2.7015    2.1959   -0.7069 C   0  0  0  0  0  0  0  0  0  0  0  0
    2.3277    0.9169   -0.3007 C   0  0  0  0  0  0  0  0  0  0  0  0
    3.2908   -0.0867   -0.1881 C   0  0  0  0  0  0  0  0  0  0  0  0
    5.4393   -1.7963    0.7405 N   0  0  0  0  0  0  0  0  0  0  0  0
    6.4164   -2.8636    0.8063 C   0  0  0  0  0  0  0  0  0  0  0  0
   -6.2179   -0.7594   -2.7248 H   0  0  0  0  0  0  0  0  0  0  0  0
   -7.2464   -1.5082   -1.5937 H   0  0  0  0  0  0  0  0  0  0  0  0
   -6.7523   -1.6142    0.7572 H   0  0  0  0  0  0  0  0  0  0  0  0
   -5.0368   -1.2772    2.4953 H   0  0  0  0  0  0  0  0  0  0  0  0
   -2.7402   -0.4143    3.0999 H   0  0  0  0  0  0  0  0  0  0  0  0
   -0.6446    0.6702    2.4102 H   0  0  0  0  0  0  0  0  0  0  0  0
   -2.1046    0.9582   -1.6146 H   0  0  0  0  0  0  0  0  0  0  0  0
   -0.0447    1.9386   -1.0872 H   0  0  0  0  0  0  0  0  0  0  0  0
    0.2727    2.3763    0.5975 H   0  0  0  0  0  0  0  0  0  0  0  0
    6.0330    1.6730   -1.0977 H   0  0  0  0  0  0  0  0  0  0  0  0
    4.3296    3.4447   -1.3016 H   0  0  0  0  0  0  0  0  0  0  0  0
    1.9817    2.9970   -0.8020 H   0  0  0  0  0  0  0  0  0  0  0  0
    2.9902   -1.0758    0.1355 H   0  0  0  0  0  0  0  0  0  0  0  0
    5.5973   -1.5348   -1.3018 H   0  0  0  0  0  0  0  0  0  0  0  0
    6.6576   -0.4699   -0.4059 H   0  0  0  0  0  0  0  0  0  0  0  0
    5.4873   -1.2483    1.5905 H   0  0  0  0  0  0  0  0  0  0  0  0
    6.2982   -3.5277   -0.0521 H   0  0  0  0  0  0  0  0  0  0  0  0
    7.4595   -2.5181    0.8120 H   0  0  0  0  0  0  0  0  0  0  0  0
    6.2560   -3.4566    1.7064 H   0  0  0  0  0  0  0  0  0  0  0  0
    5.6538   -0.9233   -0.3939 C   0  0  0  0  0  0  0  0  0  0  0  0
  1  2  2  0
  1 11  1  0
  2  3  1  0
  2  4  1  0
  4  5  2  0
  5  6  1  0
  6  7  1  0
  6 11  2  0
  7  8  2  0
  8  9  1  0
  9 10  2  0
  9 12  1  0
 10 11  1  0
 12 13  1  0
 13 18  1  0
 14 15  2  0
 14 19  1  0
 14 41  1  0
 15 16  1  0
 16 17  2  0
 17 18  1  0
 18 19  2  0
 41 20  1  0
 20 21  1  0
  3 22  1  0
  3 23  1  0
  4 24  1  0
  5 25  1  0
  7 26  1  0
  8 27  1  0
 10 28  1  0
 12 29  1  0
 12 30  1  0
 15 31  1  0
 16 32  1  0
 17 33  1  0
 19 34  1  0
 41 35  1  0
 41 36  1  0
 20 37  1  0
 21 38  1  0
 21 39  1  0
 21 40  1  0
M  END
