
     RDKit          3D

 14 13  0  0  0  0  0  0  0  0999 V2000
   -0.9192    0.1641   -0.6442 C   0  0  0  0  0  0  0  0  0  0  0  0
    1.0773    1.0807    0.4322 N   0  0  0  0  0  0  0  0  0  0  0  0
   -1.6244    0.0285    0.5674 O   0  0  0  0  0  0  0  0  0  0  0  0
    0.5752    0.0055   -0.4164 C   0  0  1  0  0  0  0  0  0  0  0  0
    0.9255   -1.3394    0.2037 C   0  0  0  0  0  0  0  0  0  0  0  0
   -1.2301   -0.5895   -1.3802 H   0  0  0  0  0  0  0  0  0  0  0  0
   -1.1027    1.1456   -1.1063 H   0  0  0  0  0  0  0  0  0  0  0  0
    2.0842    0.9999    0.5058 H   0  0  0  0  0  0  0  0  0  0  0  0
    0.9132    1.9717   -0.0217 H   0  0  0  0  0  0  0  0  0  0  0  0
   -2.5636    0.0688    0.3686 H   0  0  0  0  0  0  0  0  0  0  0  0
    1.0173    0.0312   -1.4251 H   0  0  0  0  0  0  0  0  0  0  0  0
    0.5049   -1.4384    1.2042 H   0  0  0  0  0  0  0  0  0  0  0  0
    0.5501   -2.1610   -0.4079 H   0  0  0  0  0  0  0  0  0  0  0  0
    2.0076   -1.4594    0.2820 H   0  0  0  0  0  0  0  0  0  0  0  0
  1  3  1  0
  1  4  1  0
  2  4  1  0
  4  5  1  0
  1  6  1  0
  1  7  1  0
  2  8  1  0
  2  9  1  0
  3 10  1  0
  4 11  1  6
  5 12  1  0
  5 13  1  0
  5 14  1  0
M  END
