
     RDKit          3D

 25 24  0  0  0  0  0  0  0  0999 V2000
    1.3939    1.1204    0.9873 C   0  0  0  0  0  0  0  0  0  0  0  0
    1.3306    0.0446   -0.0955 C   0  0  1  0  0  0  0  0  0  0  0  0
    2.4308    0.3146   -1.1273 C   0  0  0  0  0  0  0  0  0  0  0  0
    1.5367   -1.2417    0.4781 O   0  0  0  0  0  0  0  0  0  0  0  0
   -0.0074   -0.0095   -0.8456 C   0  0  0  0  0  0  0  0  0  0  0  0
   -1.3479   -0.0560   -0.0990 C   0  0  1  0  0  0  0  0  0  0  0  0
   -2.4440   -0.3415   -1.1311 C   0  0  0  0  0  0  0  0  0  0  0  0
   -1.4137   -1.1179    0.9972 C   0  0  0  0  0  0  0  0  0  0  0  0
   -1.5579    1.2374    0.4571 O   0  0  0  0  0  0  0  0  0  0  0  0
    0.6984    0.9254    1.8008 H   0  0  0  0  0  0  0  0  0  0  0  0
    2.4021    1.1632    1.4092 H   0  0  0  0  0  0  0  0  0  0  0  0
    1.1677    2.1064    0.5824 H   0  0  0  0  0  0  0  0  0  0  0  0
    2.3131    1.2970   -1.5867 H   0  0  0  0  0  0  0  0  0  0  0  0
    3.4168    0.2929   -0.6559 H   0  0  0  0  0  0  0  0  0  0  0  0
    2.4209   -0.4333   -1.9227 H   0  0  0  0  0  0  0  0  0  0  0  0
    2.3697   -1.2218    0.9617 H   0  0  0  0  0  0  0  0  0  0  0  0
   -0.0478    0.8580   -1.5128 H   0  0  0  0  0  0  0  0  0  0  0  0
    0.0346   -0.8837   -1.5037 H   0  0  0  0  0  0  0  0  0  0  0  0
   -3.4319   -0.3151   -0.6637 H   0  0  0  0  0  0  0  0  0  0  0  0
   -2.4326    0.3954   -1.9367 H   0  0  0  0  0  0  0  0  0  0  0  0
   -2.3228   -1.3299   -1.5765 H   0  0  0  0  0  0  0  0  0  0  0  0
   -1.1832   -2.1083    0.6056 H   0  0  0  0  0  0  0  0  0  0  0  0
   -0.7225   -0.9106    1.8115 H   0  0  0  0  0  0  0  0  0  0  0  0
   -2.4238   -1.1576    1.4146 H   0  0  0  0  0  0  0  0  0  0  0  0
   -2.3921    1.2223    0.9386 H   0  0  0  0  0  0  0  0  0  0  0  0
  6  9  1  1
  2  4  1  1
  6  8  1  0
  6  7  1  0
  6  5  1  0
  2  5  1  0
  2  3  1  0
  2  1  1  0
  1 10  1  0
  1 11  1  0
  1 12  1  0
  3 13  1  0
  3 14  1  0
  3 15  1  0
  4 16  1  0
  5 17  1  0
  5 18  1  0
  7 19  1  0
  7 20  1  0
  7 21  1  0
  8 22  1  0
  8 23  1  0
  8 24  1  0
  9 25  1  0
M  END
