
     RDKit          3D

 30 29  0  0  0  0  0  0  0  0999 V2000
    1.6281   -4.0573   -2.6964 C   0  0  0  0  0  0  0  0  0  0  0  0
    2.0960   -4.4175   -1.6451 O   0  0  0  0  0  0  0  0  0  0  0  0
    1.1158   -2.6758   -2.9949 C   0  0  0  0  0  0  0  0  0  0  0  0
    1.2131   -1.7434   -1.8040 C   0  0  0  0  0  0  0  0  0  0  0  0
    0.6693    0.5696   -0.8891 C   0  0  0  0  0  0  0  0  0  0  0  0
    1.5053   -4.8610   -3.7481 O   0  0  0  0  0  0  0  0  0  0  0  0
    0.1770    1.9673   -1.2056 C   0  0  0  0  0  0  0  0  0  0  0  0
   -0.2567    4.3070   -0.2925 C   0  0  0  0  0  0  0  0  0  0  0  0
   -0.4803    5.1358    0.9574 C   0  0  0  0  0  0  0  0  0  0  0  0
   -0.8321    6.5653    0.6535 C   0  0  0  0  0  0  0  0  0  0  0  0
   -1.0573    7.2598    1.7643 O   0  0  0  0  0  0  0  0  0  0  0  0
   -0.9057    7.0472   -0.4494 O   0  0  0  0  0  0  0  0  0  0  0  0
    0.1118    2.8734   -0.0024 C   0  0  0  0  0  0  0  0  0  0  0  0
    0.6898   -0.3556   -2.0792 C   0  0  0  0  0  0  0  0  0  0  0  0
    0.3126   -0.0117   -3.1764 O   0  0  0  0  0  0  0  0  0  0  0  0
    0.3390    2.4800    1.1191 O   0  0  0  0  0  0  0  0  0  0  0  0
    1.6764   -2.2837   -3.8476 H   0  0  0  0  0  0  0  0  0  0  0  0
    0.0818   -2.7636   -3.3387 H   0  0  0  0  0  0  0  0  0  0  0  0
    2.2496   -1.6431   -1.4670 H   0  0  0  0  0  0  0  0  0  0  0  0
    0.6711   -2.1443   -0.9427 H   0  0  0  0  0  0  0  0  0  0  0  0
    1.6772    0.5946   -0.4636 H   0  0  0  0  0  0  0  0  0  0  0  0
    0.0497    0.1017   -0.1180 H   0  0  0  0  0  0  0  0  0  0  0  0
    1.8416   -5.7431   -3.5305 H   0  0  0  0  0  0  0  0  0  0  0  0
   -0.8256    1.9383   -1.6442 H   0  0  0  0  0  0  0  0  0  0  0  0
    0.8030    2.4476   -1.9634 H   0  0  0  0  0  0  0  0  0  0  0  0
    0.5454    4.7320   -0.9041 H   0  0  0  0  0  0  0  0  0  0  0  0
   -1.1411    4.3138   -0.9357 H   0  0  0  0  0  0  0  0  0  0  0  0
   -1.2798    4.7097    1.5692 H   0  0  0  0  0  0  0  0  0  0  0  0
    0.4090    5.1329    1.5931 H   0  0  0  0  0  0  0  0  0  0  0  0
   -1.2819    8.1757    1.5420 H   0  0  0  0  0  0  0  0  0  0  0  0
  1  2  2  0
  1  3  1  0
  1  6  1  0
  3  4  1  0
  3 17  1  0
  3 18  1  0
  4 14  1  0
  4 19  1  0
  4 20  1  0
  5  7  1  0
  5 14  1  0
  5 21  1  0
  5 22  1  0
  6 23  1  0
  7 13  1  0
  7 24  1  0
  7 25  1  0
  8  9  1  0
  8 13  1  0
  8 26  1  0
  8 27  1  0
  9 10  1  0
  9 28  1  0
  9 29  1  0
 10 11  1  0
 10 12  2  0
 11 30  1  0
 13 16  2  0
 14 15  2  0
M  END
