
     RDKit          3D

 37 39  0  0  0  0  0  0  0  0999 V2000
   -5.6888   -1.1251   -0.3077 O   0  0  0  0  0  0  0  0  0  0  0  0
   -4.8611    0.0362   -0.0230 S   0  0  1  0  0  0  0  0  0  0  0  0
   -4.9839    1.2039   -0.8748 O   0  0  0  0  0  0  0  0  0  0  0  0
   -5.0535    0.5285    1.5342 N   0  0  0  0  0  0  0  0  0  0  0  0
   -3.1682   -0.5502   -0.0288 C   0  0  0  0  0  0  0  0  0  0  0  0
   -2.0300    0.2681   -0.0707 C   0  0  0  0  0  0  0  0  0  0  0  0
   -2.0713    1.7754   -0.1585 C   0  0  1  0  0  0  0  0  0  0  0  0
   -0.8800    2.3121    0.1288 F   0  0  0  0  0  0  0  0  0  0  0  0
   -2.3861    2.1866   -1.3887 F   0  0  0  0  0  0  0  0  0  0  0  0
   -2.9399    2.3164    0.6947 F   0  0  0  0  0  0  0  0  0  0  0  0
   -0.7783   -0.3247   -0.0738 C   0  0  0  0  0  0  0  0  0  0  0  0
   -0.6218   -1.7123   -0.0242 C   0  0  0  0  0  0  0  0  0  0  0  0
   -1.7610   -2.5082    0.0194 C   0  0  0  0  0  0  0  0  0  0  0  0
   -3.0149   -1.9296    0.0139 C   0  0  0  0  0  0  0  0  0  0  0  0
    0.6919   -2.3174   -0.0156 C   0  0  0  0  0  0  0  0  0  0  0  0
    1.7603   -1.4979   -0.0165 O   0  0  0  0  0  0  0  0  0  0  0  0
    1.1137   -3.6184   -0.0026 C   0  0  0  0  0  0  0  0  0  0  0  0
    2.5240   -3.5814    0.0054 C   0  0  0  0  0  0  0  0  0  0  0  0
    2.8764   -2.2587   -0.0028 C   0  0  0  0  0  0  0  0  0  0  0  0
    4.1441   -1.6139    0.0063 C   0  0  0  0  0  0  0  0  0  0  0  0
    4.3643   -0.2888    0.0076 C   0  0  0  0  0  0  0  0  0  0  0  0
    3.1741    0.9927   -0.0014 S   0  0  0  0  0  0  0  0  0  0  0  0
    4.4340    2.2349    0.0155 C   0  0  0  0  0  0  0  0  0  0  0  0
    4.1274    3.4546    0.0158 N   0  0  0  0  0  0  0  0  0  0  0  0
    5.6737    1.6330    0.0268 N   0  0  0  0  0  0  0  0  0  0  0  0
    5.7373    0.2675    0.0229 C   0  0  0  0  0  0  0  0  0  0  0  0
    6.7611   -0.3769    0.0317 O   0  0  0  0  0  0  0  0  0  0  0  0
   -5.6269    1.3616    1.6110 H   0  0  0  0  0  0  0  0  0  0  0  0
   -5.3846   -0.2084    2.1466 H   0  0  0  0  0  0  0  0  0  0  0  0
   -3.8806   -2.5741    0.0446 H   0  0  0  0  0  0  0  0  0  0  0  0
    0.1004    0.3011   -0.1160 H   0  0  0  0  0  0  0  0  0  0  0  0
   -1.6834   -3.5860    0.0583 H   0  0  0  0  0  0  0  0  0  0  0  0
    0.4893   -4.4970   -0.0004 H   0  0  0  0  0  0  0  0  0  0  0  0
    3.2034   -4.4180    0.0167 H   0  0  0  0  0  0  0  0  0  0  0  0
    5.0055   -2.2706    0.0156 H   0  0  0  0  0  0  0  0  0  0  0  0
    6.5173    2.1914    0.0431 H   0  0  0  0  0  0  0  0  0  0  0  0
    4.9404    4.0623    0.0255 H   0  0  0  0  0  0  0  0  0  0  0  0
  1  2  2  0
  2  3  2  0
  2  4  1  1
  2  5  1  0
  5  6  2  0
  6  7  1  0
  7  8  1  1
  7  9  1  0
  7 10  1  0
  6 11  1  0
 11 12  2  0
 12 13  1  0
  5 14  1  0
 13 14  2  0
 12 15  1  0
 15 16  1  0
 15 17  2  0
 17 18  1  0
 16 19  1  0
 18 19  2  0
 19 20  1  0
 20 21  2  0
 21 22  1  0
 22 23  1  0
 23 24  2  0
 23 25  1  0
 21 26  1  0
 25 26  1  0
 26 27  2  0
  4 28  1  0
  4 29  1  0
 14 30  1  0
 11 31  1  0
 13 32  1  0
 17 33  1  0
 18 34  1  0
 20 35  1  0
 25 36  1  0
 24 37  1  0
M  END
