
     RDKit          3D

 68 72  0  0  0  0  0  0  0  0999 V2000
    5.3170   -1.0058    0.4265 C   0  0  1  0  0  0  0  0  0  0  0  0
    6.4737   -1.0180    1.4207 C   0  0  0  0  0  0  0  0  0  0  0  0
    7.8098   -0.7939    0.7271 C   0  0  1  0  0  0  0  0  0  0  0  0
    7.7826    0.5309   -0.0208 C   0  0  2  0  0  0  0  0  0  0  0  0
    6.6454    0.5632   -1.0382 C   0  0  1  0  0  0  0  0  0  0  0  0
    5.2993    0.3067   -0.3589 C   0  0  1  0  0  0  0  0  0  0  0  0
    4.1712    0.3518   -1.3927 C   0  0  0  0  0  0  0  0  0  0  0  0
    2.8667    0.1540   -0.7932 N   0  0  0  0  0  0  0  0  0  0  0  0
    2.2850   -1.0301   -0.7877 N   0  0  0  0  0  0  0  0  0  0  0  0
    1.1651   -0.9208   -0.1567 N   0  0  0  0  0  0  0  0  0  0  0  0
    1.0058    0.3549    0.2615 C   0  0  0  0  0  0  0  0  0  0  0  0
    2.1093    1.0595   -0.1482 C   0  0  0  0  0  0  0  0  0  0  0  0
   -0.1963    0.8252    1.0072 C   0  0  0  0  0  0  0  0  0  0  0  0
   -1.5035    0.3359    0.3885 C   0  0  0  0  0  0  0  0  0  0  0  0
   -2.7101    0.9097    1.1039 C   0  0  0  0  0  0  0  0  0  0  0  0
   -3.8762    0.3905    0.5179 O   0  0  0  0  0  0  0  0  0  0  0  0
   -5.0594    0.9096    1.0678 C   0  0  0  0  0  0  0  0  0  0  0  0
   -6.2767    0.3037    0.3868 C   0  0  2  0  0  0  0  0  0  0  0  0
   -6.3199   -1.2205    0.5714 C   0  0  0  0  0  0  0  0  0  0  0  0
   -7.5807   -1.7987   -0.0749 C   0  0  1  0  0  0  0  0  0  0  0  0
   -8.8223   -1.1806    0.5703 C   0  0  0  0  0  0  0  0  0  0  0  0
   -8.7953    0.3376    0.3776 C   0  0  2  0  0  0  0  0  0  0  0  0
   -8.7912    0.6568   -1.1191 C   0  0  0  0  0  0  0  0  0  0  0  0
   -7.5502    0.0414   -1.7678 C   0  0  1  0  0  0  0  0  0  0  0  0
   -6.2906    0.6168   -1.1166 C   0  0  0  0  0  0  0  0  0  0  0  0
   -7.5741   -1.4774   -1.5713 C   0  0  0  0  0  0  0  0  0  0  0  0
   -7.5341    0.9115    1.0243 C   0  0  0  0  0  0  0  0  0  0  0  0
    5.4159   -2.0641   -0.5033 O   0  0  0  0  0  0  0  0  0  0  0  0
    8.8840   -0.7311    1.6447 O   0  0  0  0  0  0  0  0  0  0  0  0
    8.9774    0.7600   -0.7318 O   0  0  0  0  0  0  0  0  0  0  0  0
    6.5785    1.8201   -1.6740 O   0  0  0  0  0  0  0  0  0  0  0  0
    4.3802   -1.0783    0.9944 H   0  0  0  0  0  0  0  0  0  0  0  0
    6.3108   -0.2334    2.1664 H   0  0  0  0  0  0  0  0  0  0  0  0
    6.4822   -1.9687    1.9640 H   0  0  0  0  0  0  0  0  0  0  0  0
    7.9758   -1.5977   -0.0026 H   0  0  0  0  0  0  0  0  0  0  0  0
    7.6039    1.3343    0.7140 H   0  0  0  0  0  0  0  0  0  0  0  0
    6.8266   -0.2304   -1.7789 H   0  0  0  0  0  0  0  0  0  0  0  0
    5.1329    1.1108    0.3690 H   0  0  0  0  0  0  0  0  0  0  0  0
    4.1552    1.3158   -1.8969 H   0  0  0  0  0  0  0  0  0  0  0  0
    4.2992   -0.4191   -2.1498 H   0  0  0  0  0  0  0  0  0  0  0  0
    2.3928    2.0931   -0.0421 H   0  0  0  0  0  0  0  0  0  0  0  0
   -0.1402    0.4923    2.0484 H   0  0  0  0  0  0  0  0  0  0  0  0
   -0.1809    1.9171    1.0384 H   0  0  0  0  0  0  0  0  0  0  0  0
   -1.5401    0.6175   -0.6673 H   0  0  0  0  0  0  0  0  0  0  0  0
   -1.5407   -0.7552    0.4279 H   0  0  0  0  0  0  0  0  0  0  0  0
   -2.6693    0.6631    2.1758 H   0  0  0  0  0  0  0  0  0  0  0  0
   -2.6975    2.0080    1.0363 H   0  0  0  0  0  0  0  0  0  0  0  0
   -5.1054    0.7038    2.1497 H   0  0  0  0  0  0  0  0  0  0  0  0
   -5.0848    2.0059    0.9561 H   0  0  0  0  0  0  0  0  0  0  0  0
   -5.4326   -1.6780    0.1234 H   0  0  0  0  0  0  0  0  0  0  0  0
   -6.2975   -1.4671    1.6395 H   0  0  0  0  0  0  0  0  0  0  0  0
   -7.5943   -2.8840    0.0670 H   0  0  0  0  0  0  0  0  0  0  0  0
   -9.7275   -1.5982    0.1167 H   0  0  0  0  0  0  0  0  0  0  0  0
   -8.8597   -1.4262    1.6367 H   0  0  0  0  0  0  0  0  0  0  0  0
   -9.6775    0.7837    0.8469 H   0  0  0  0  0  0  0  0  0  0  0  0
   -9.6978    0.2598   -1.5888 H   0  0  0  0  0  0  0  0  0  0  0  0
   -8.8038    1.7406   -1.2749 H   0  0  0  0  0  0  0  0  0  0  0  0
   -7.5411    0.2726   -2.8375 H   0  0  0  0  0  0  0  0  0  0  0  0
   -6.2486    1.7019   -1.2682 H   0  0  0  0  0  0  0  0  0  0  0  0
   -5.4011    0.1965   -1.5956 H   0  0  0  0  0  0  0  0  0  0  0  0
   -6.7001   -1.9322   -2.0499 H   0  0  0  0  0  0  0  0  0  0  0  0
   -8.4607   -1.9042   -2.0525 H   0  0  0  0  0  0  0  0  0  0  0  0
   -7.5396    0.7112    2.1019 H   0  0  0  0  0  0  0  0  0  0  0  0
   -7.5181    2.0013    0.9086 H   0  0  0  0  0  0  0  0  0  0  0  0
    5.3386   -2.8954   -0.0252 H   0  0  0  0  0  0  0  0  0  0  0  0
    9.1058   -1.6263    1.9171 H   0  0  0  0  0  0  0  0  0  0  0  0
    9.7081    0.7386   -0.1055 H   0  0  0  0  0  0  0  0  0  0  0  0
    7.4119    1.9668   -2.1331 H   0  0  0  0  0  0  0  0  0  0  0  0
 29  3  1  0
  2  3  1  0
  2  1  1  0
 26 20  1  0
 26 24  1  0
  3  4  1  0
  1 28  1  0
  1  6  1  0
 20 19  1  0
 20 21  1  0
 19 18  1  0
 24 25  1  0
 24 23  1  0
 25 18  1  0
  4 30  1  0
  4  5  1  0
  6  7  1  0
  6  5  1  0
 21 22  1  0
 18 17  1  1
 18 27  1  0
 17 16  1  0
 23 22  1  0
  7  8  1  0
  5 31  1  0
 22 27  1  0
 12  8  1  0
 12 11  2  0
  8  9  1  0
 16 15  1  0
 15 14  1  0
 14 13  1  0
 11 13  1  0
 11 10  1  0
  9 10  2  0
  1 32  1  1
  2 33  1  0
  2 34  1  0
  3 35  1  6
  4 36  1  1
  5 37  1  6
  6 38  1  1
  7 39  1  0
  7 40  1  0
 12 41  1  0
 13 42  1  0
 13 43  1  0
 14 44  1  0
 14 45  1  0
 15 46  1  0
 15 47  1  0
 17 48  1  0
 17 49  1  0
 19 50  1  0
 19 51  1  0
 20 52  1  6
 21 53  1  0
 21 54  1  0
 22 55  1  1
 23 56  1  0
 23 57  1  0
 24 58  1  6
 25 59  1  0
 25 60  1  0
 26 61  1  0
 26 62  1  0
 27 63  1  0
 27 64  1  0
 28 65  1  0
 29 66  1  0
 30 67  1  0
 31 68  1  0
M  END
