
     RDKit          3D

 69 71  0  0  0  0  0  0  0  0999 V2000
   -6.4712    1.2509   -1.2138 C   0  0  0  0  0  0  0  0  0  0  0  0
   -7.2678    2.4440   -1.7284 C   0  0  0  0  0  0  0  0  0  0  0  0
   -7.3040    3.3812   -0.5262 C   0  0  0  0  0  0  0  0  0  0  0  0
   -5.9164    3.2245    0.0835 C   0  0  0  0  0  0  0  0  0  0  0  0
   -5.5441    1.8529   -0.2575 N   0  0  0  0  0  0  0  0  0  0  0  0
   -4.4486    1.2913    0.2703 C   0  0  0  0  0  0  0  0  0  0  0  0
   -3.7034    1.9010    1.0266 O   0  0  0  0  0  0  0  0  0  0  0  0
   -4.1876   -0.1817   -0.0625 C   0  0  2  0  0  0  0  0  0  0  0  0
   -5.0179   -1.0825    0.8549 C   0  0  0  0  0  0  0  0  0  0  0  0
   -4.8968   -2.5615    0.5082 C   0  0  0  0  0  0  0  0  0  0  0  0
   -5.8079   -3.4365    1.3588 C   0  0  0  0  0  0  0  0  0  0  0  0
   -5.6817   -4.9126    1.0144 C   0  0  0  0  0  0  0  0  0  0  0  0
   -6.5690   -5.7211    1.8387 N   0  0  0  0  0  0  0  0  0  0  0  0
   -2.7878   -0.4816    0.0847 N   0  0  0  0  0  0  0  0  0  0  0  0
   -1.8792    0.0293   -0.7694 C   0  0  0  0  0  0  0  0  0  0  0  0
   -2.2071    0.6879   -1.7471 O   0  0  0  0  0  0  0  0  0  0  0  0
   -0.4504   -0.2617   -0.4673 C   0  0  0  0  0  0  0  0  0  0  0  0
    0.5248    0.5692   -1.0094 C   0  0  0  0  0  0  0  0  0  0  0  0
    1.8721    0.3610   -0.7630 C   0  0  0  0  0  0  0  0  0  0  0  0
    2.2609   -0.7041    0.0460 C   0  0  0  0  0  0  0  0  0  0  0  0
    1.2984   -1.5647    0.5688 C   0  0  0  0  0  0  0  0  0  0  0  0
   -0.0413   -1.3442    0.3120 C   0  0  0  0  0  0  0  0  0  0  0  0
    3.5456   -0.9862    0.3663 O   0  0  0  0  0  0  0  0  0  0  0  0
    4.5142    0.0110    0.2617 C   0  0  2  0  0  0  0  0  0  0  0  0
    4.9510    0.0511   -1.0615 O   0  0  0  0  0  0  0  0  0  0  0  0
    5.9229    1.0591   -1.2797 C   0  0  2  0  0  0  0  0  0  0  0  0
    6.1989    1.1362   -2.7647 C   0  0  0  0  0  0  0  0  0  0  0  0
    5.0390    1.6109   -3.4057 O   0  0  0  0  0  0  0  0  0  0  0  0
    7.1729    0.7875   -0.4526 C   0  0  2  0  0  0  0  0  0  0  0  0
    7.7829   -0.3880   -0.9231 O   0  0  0  0  0  0  0  0  0  0  0  0
    6.7732    0.6764    1.0176 C   0  0  2  0  0  0  0  0  0  0  0  0
    7.9240    0.3507    1.7547 O   0  0  0  0  0  0  0  0  0  0  0  0
    5.6652   -0.3561    1.1955 C   0  0  1  0  0  0  0  0  0  0  0  0
    5.2673   -0.3282    2.5429 O   0  0  0  0  0  0  0  0  0  0  0  0
   -7.1277    0.5269   -0.7213 H   0  0  0  0  0  0  0  0  0  0  0  0
   -5.9454    0.7331   -2.0162 H   0  0  0  0  0  0  0  0  0  0  0  0
   -6.7397    2.9134   -2.5609 H   0  0  0  0  0  0  0  0  0  0  0  0
   -8.2560    2.1530   -2.0812 H   0  0  0  0  0  0  0  0  0  0  0  0
   -7.5207    4.4145   -0.7936 H   0  0  0  0  0  0  0  0  0  0  0  0
   -8.0660    3.0558    0.1852 H   0  0  0  0  0  0  0  0  0  0  0  0
   -5.2046    3.9310   -0.3527 H   0  0  0  0  0  0  0  0  0  0  0  0
   -5.9110    3.3738    1.1633 H   0  0  0  0  0  0  0  0  0  0  0  0
   -4.4700   -0.3865   -1.0971 H   0  0  0  0  0  0  0  0  0  0  0  0
   -4.7219   -0.9102    1.8950 H   0  0  0  0  0  0  0  0  0  0  0  0
   -6.0661   -0.7806    0.7852 H   0  0  0  0  0  0  0  0  0  0  0  0
   -5.1389   -2.7011   -0.5504 H   0  0  0  0  0  0  0  0  0  0  0  0
   -3.8611   -2.8922    0.6310 H   0  0  0  0  0  0  0  0  0  0  0  0
   -5.5790   -3.2948    2.4195 H   0  0  0  0  0  0  0  0  0  0  0  0
   -6.8478   -3.1199    1.2192 H   0  0  0  0  0  0  0  0  0  0  0  0
   -5.8499   -5.0395   -0.0652 H   0  0  0  0  0  0  0  0  0  0  0  0
   -4.6537   -5.2357    1.2020 H   0  0  0  0  0  0  0  0  0  0  0  0
   -7.5300   -5.5148    1.5940 H   0  0  0  0  0  0  0  0  0  0  0  0
   -6.4387   -6.6993    1.6141 H   0  0  0  0  0  0  0  0  0  0  0  0
   -2.4788   -0.7923    0.9921 H   0  0  0  0  0  0  0  0  0  0  0  0
    0.2331    1.4015   -1.6361 H   0  0  0  0  0  0  0  0  0  0  0  0
    2.5961    1.0172   -1.2259 H   0  0  0  0  0  0  0  0  0  0  0  0
    1.6053   -2.4063    1.1765 H   0  0  0  0  0  0  0  0  0  0  0  0
   -0.7603   -2.0429    0.7211 H   0  0  0  0  0  0  0  0  0  0  0  0
    4.0920    0.9864    0.5632 H   0  0  0  0  0  0  0  0  0  0  0  0
    5.5290    2.0358   -0.9557 H   0  0  0  0  0  0  0  0  0  0  0  0
    7.0515    1.8113   -2.9137 H   0  0  0  0  0  0  0  0  0  0  0  0
    6.4969    0.1505   -3.1386 H   0  0  0  0  0  0  0  0  0  0  0  0
    5.1966    1.5967   -4.3538 H   0  0  0  0  0  0  0  0  0  0  0  0
    7.8402    1.6552   -0.5619 H   0  0  0  0  0  0  0  0  0  0  0  0
    8.5130   -0.6035   -0.3330 H   0  0  0  0  0  0  0  0  0  0  0  0
    6.3744    1.6565    1.3230 H   0  0  0  0  0  0  0  0  0  0  0  0
    7.6684    0.1889    2.6691 H   0  0  0  0  0  0  0  0  0  0  0  0
    6.0432   -1.3463    0.9053 H   0  0  0  0  0  0  0  0  0  0  0  0
    4.7492   -1.1171    2.7298 H   0  0  0  0  0  0  0  0  0  0  0  0
 30 29  1  0
 27 28  1  0
 27 26  1  0
 29 26  1  0
 29 31  1  0
 32 31  1  0
 26 25  1  0
 31 33  1  0
 25 24  1  0
 33 24  1  0
 33 34  1  0
 24 23  1  0
 23 20  1  0
 20 21  2  0
 20 19  1  0
 21 22  1  0
 19 18  2  0
 22 17  2  0
 18 17  1  0
 17 15  1  0
  3  2  1  0
  3  4  1  0
  2  1  1  0
 16 15  2  0
  4  5  1  0
 15 14  1  0
 14  8  1  0
  5  1  1  0
  5  6  1  0
  8  6  1  0
  8  9  1  0
  6  7  2  0
  9 10  1  0
 10 11  1  0
 11 12  1  0
 12 13  1  0
  1 35  1  0
  1 36  1  0
  2 37  1  0
  2 38  1  0
  3 39  1  0
  3 40  1  0
  4 41  1  0
  4 42  1  0
  8 43  1  6
  9 44  1  0
  9 45  1  0
 10 46  1  0
 10 47  1  0
 11 48  1  0
 11 49  1  0
 12 50  1  0
 12 51  1  0
 13 52  1  0
 13 53  1  0
 14 54  1  0
 18 55  1  0
 19 56  1  0
 21 57  1  0
 22 58  1  0
 24 59  1  1
 26 60  1  1
 27 61  1  0
 27 62  1  0
 28 63  1  0
 29 64  1  1
 30 65  1  0
 31 66  1  1
 32 67  1  0
 33 68  1  6
 34 69  1  0
M  END
