
     RDKit          3D

 31 33  0  0  0  0  0  0  0  0999 V2000
   -4.0796    0.1479    0.3121 N   0  0  0  0  0  0  0  0  0  0  0  0
    0.8434    1.0336    0.2243 N   0  0  0  0  0  0  0  0  0  0  0  0
   -1.9155    1.2384    0.6092 C   0  0  0  0  0  0  0  0  0  0  0  0
   -3.3110    1.3420    0.0303 C   0  0  0  0  0  0  0  0  0  0  0  0
    0.0847   -0.0070    0.1071 C   0  0  0  0  0  0  0  0  0  0  0  0
    2.1653    0.7039    0.0912 C   0  0  0  0  0  0  0  0  0  0  0  0
    3.2276    1.6016    0.1517 C   0  0  0  0  0  0  0  0  0  0  0  0
    4.7711   -0.2291   -0.1982 C   0  0  0  0  0  0  0  0  0  0  0  0
   -5.4517    0.2757   -0.1177 C   0  0  0  0  0  0  0  0  0  0  0  0
   -3.4327   -1.0027   -0.2744 C   0  0  0  0  0  0  0  0  0  0  0  0
   -2.0402   -1.1888    0.2999 C   0  0  0  0  0  0  0  0  0  0  0  0
   -1.2623    0.0231    0.1462 N   0  0  0  0  0  0  0  0  0  0  0  0
    4.5200    1.1268    0.0086 C   0  0  0  0  0  0  0  0  0  0  0  0
    3.7260   -1.1376   -0.2653 C   0  0  0  0  0  0  0  0  0  0  0  0
    2.4352   -0.6576   -0.1200 C   0  0  0  0  0  0  0  0  0  0  0  0
    0.9355   -1.5362   -0.1486 S   0  0  0  0  0  0  0  0  0  0  0  0
   -1.3269    2.0965    0.2961 H   0  0  0  0  0  0  0  0  0  0  0  0
   -1.9613    1.2458    1.7042 H   0  0  0  0  0  0  0  0  0  0  0  0
   -3.2433    1.5395   -1.0530 H   0  0  0  0  0  0  0  0  0  0  0  0
   -3.8033    2.2047    0.4830 H   0  0  0  0  0  0  0  0  0  0  0  0
    3.0335    2.6540    0.3107 H   0  0  0  0  0  0  0  0  0  0  0  0
    5.7888   -0.5777   -0.3093 H   0  0  0  0  0  0  0  0  0  0  0  0
   -5.5589    0.4308   -1.2024 H   0  0  0  0  0  0  0  0  0  0  0  0
   -6.0134   -0.6204    0.1496 H   0  0  0  0  0  0  0  0  0  0  0  0
   -5.9204    1.1219    0.3861 H   0  0  0  0  0  0  0  0  0  0  0  0
   -4.0169   -1.8988   -0.0520 H   0  0  0  0  0  0  0  0  0  0  0  0
   -3.3633   -0.9233   -1.3736 H   0  0  0  0  0  0  0  0  0  0  0  0
   -2.1092   -1.4728    1.3571 H   0  0  0  0  0  0  0  0  0  0  0  0
   -1.5608   -2.0104   -0.2348 H   0  0  0  0  0  0  0  0  0  0  0  0
    5.3485    1.8205    0.0572 H   0  0  0  0  0  0  0  0  0  0  0  0
    3.9180   -2.1899   -0.4268 H   0  0  0  0  0  0  0  0  0  0  0  0
 11 10  1  0
 11 12  1  0
 10  1  1  0
  1  9  1  0
  1  4  1  0
 16  5  1  0
 16 15  1  0
 12  5  1  0
 12  3  1  0
  5  2  2  0
  3  4  1  0
 15 14  1  0
 15  6  2  0
 14  8  2  0
  2  6  1  0
  6  7  1  0
  8 13  1  0
  7 13  2  0
  3 17  1  0
  3 18  1  0
  4 19  1  0
  4 20  1  0
  7 21  1  0
  8 22  1  0
  9 23  1  0
  9 24  1  0
  9 25  1  0
 10 26  1  0
 10 27  1  0
 11 28  1  0
 11 29  1  0
 13 30  1  0
 14 31  1  0
M  END
