
     RDKit          3D

 50 52  0  0  0  0  0  0  0  0999 V2000
    3.4608   -2.9006    0.3266 C   0  0  0  0  0  0  0  0  0  0  0  0
    0.9548   -0.2428   -0.1712 N   0  0  0  0  0  0  0  0  0  0  0  0
    3.0524   -4.0010   -0.4539 O   0  0  0  0  0  0  0  0  0  0  0  0
    2.8316   -1.6482   -0.2396 C   0  0  1  0  0  0  0  0  0  0  0  0
    1.3058   -1.6584   -0.2237 C   0  0  0  0  0  0  0  0  0  0  0  0
   -2.8426    0.0015    1.1638 O   0  0  0  0  0  0  0  0  0  0  0  0
    2.1052    0.6040    0.1023 C   0  0  0  0  0  0  0  0  0  0  0  0
    3.1730   -0.3878    0.5643 C   0  0  2  0  0  0  0  0  0  0  0  0
    4.5830    0.1039    0.4016 C   0  0  0  0  0  0  0  0  0  0  0  0
    5.4233    0.2239    1.5034 C   0  0  0  0  0  0  0  0  0  0  0  0
    6.7330    0.6651    1.3708 C   0  0  0  0  0  0  0  0  0  0  0  0
    7.2077    0.9888    0.1113 C   0  0  0  0  0  0  0  0  0  0  0  0
    6.3940    0.8823   -1.0070 C   0  0  0  0  0  0  0  0  0  0  0  0
    5.0892    0.4426   -0.8526 C   0  0  0  0  0  0  0  0  0  0  0  0
   -0.2702    0.2768   -0.3475 C   0  0  0  0  0  0  0  0  0  0  0  0
   -1.3879   -0.7057   -0.6345 C   0  0  0  0  0  0  0  0  0  0  0  0
   -2.7571   -0.1766   -0.2311 C   0  0  1  0  0  0  0  0  0  0  0  0
   -3.8637   -1.0941   -0.7638 C   0  0  0  0  0  0  0  0  0  0  0  0
   -5.2305   -0.6067   -0.3836 C   0  0  0  0  0  0  0  0  0  0  0  0
   -5.8851    0.3468   -1.1596 C   0  0  0  0  0  0  0  0  0  0  0  0
   -7.1317    0.8387   -0.8012 C   0  0  0  0  0  0  0  0  0  0  0  0
   -7.7329    0.3670    0.3549 C   0  0  0  0  0  0  0  0  0  0  0  0
   -7.1091   -0.5833    1.1473 C   0  0  0  0  0  0  0  0  0  0  0  0
   -5.8611   -1.0592    0.7717 C   0  0  0  0  0  0  0  0  0  0  0  0
    3.1515   -3.0114    1.3756 H   0  0  0  0  0  0  0  0  0  0  0  0
    4.5529   -2.7881    0.3252 H   0  0  0  0  0  0  0  0  0  0  0  0
    3.4529   -4.7951   -0.0885 H   0  0  0  0  0  0  0  0  0  0  0  0
    3.1737   -1.5111   -1.2722 H   0  0  0  0  0  0  0  0  0  0  0  0
    0.9301   -2.1877    0.6594 H   0  0  0  0  0  0  0  0  0  0  0  0
    0.8921   -2.1433   -1.1077 H   0  0  0  0  0  0  0  0  0  0  0  0
    2.4224    1.1329   -0.8020 H   0  0  0  0  0  0  0  0  0  0  0  0
    1.8837    1.3520    0.8633 H   0  0  0  0  0  0  0  0  0  0  0  0
    3.0022   -0.6028    1.6251 H   0  0  0  0  0  0  0  0  0  0  0  0
    5.0538   -0.0294    2.4897 H   0  0  0  0  0  0  0  0  0  0  0  0
    7.3700    0.7532    2.2404 H   0  0  0  0  0  0  0  0  0  0  0  0
    6.7707    1.1375   -1.9882 H   0  0  0  0  0  0  0  0  0  0  0  0
    4.4632    0.3661   -1.7337 H   0  0  0  0  0  0  0  0  0  0  0  0
   -1.3695   -0.9240   -1.7080 H   0  0  0  0  0  0  0  0  0  0  0  0
   -1.2119   -1.6635   -0.1365 H   0  0  0  0  0  0  0  0  0  0  0  0
   -2.9017    0.8169   -0.6621 H   0  0  0  0  0  0  0  0  0  0  0  0
   -3.7741   -1.1440   -1.8516 H   0  0  0  0  0  0  0  0  0  0  0  0
   -3.7093   -2.1121   -0.3915 H   0  0  0  0  0  0  0  0  0  0  0  0
   -5.4181    0.7140   -2.0660 H   0  0  0  0  0  0  0  0  0  0  0  0
   -7.6274    1.5761   -1.4180 H   0  0  0  0  0  0  0  0  0  0  0  0
   -7.5866   -0.9494    2.0463 H   0  0  0  0  0  0  0  0  0  0  0  0
   -5.3804   -1.8068    1.3913 H   0  0  0  0  0  0  0  0  0  0  0  0
   -2.7313   -0.8557    1.5888 H   0  0  0  0  0  0  0  0  0  0  0  0
    8.8433    1.5361   -0.0724 Cl  0  0  0  0  0  0  0  0  0  0  0  0
   -0.4654    1.4863   -0.3091 O   0  0  0  0  0  0  0  0  0  0  0  0
   -9.2949    0.9708    0.8125 Cl  0  0  0  0  0  0  0  0  0  0  0  0
  1  3  1  0
  1  4  1  0
  2  5  1  0
  2  7  1  0
  2 15  1  0
 48 12  1  0
  4  5  1  0
  4  8  1  0
 49 15  2  0
 50 22  1  0
  6 17  1  0
  7  8  1  0
  8  9  1  0
  9 10  2  0
  9 14  1  0
 10 11  1  0
 11 12  2  0
 12 13  1  0
 13 14  2  0
 15 16  1  0
 16 17  1  0
 17 18  1  0
 18 19  1  0
 19 20  2  0
 19 24  1  0
 20 21  1  0
 21 22  2  0
 22 23  1  0
 23 24  2  0
  1 25  1  0
  1 26  1  0
  3 27  1  0
  4 28  1  6
  5 29  1  0
  5 30  1  0
  6 47  1  0
  7 31  1  0
  7 32  1  0
  8 33  1  1
 10 34  1  0
 11 35  1  0
 13 36  1  0
 14 37  1  0
 16 38  1  0
 16 39  1  0
 17 40  1  6
 18 41  1  0
 18 42  1  0
 20 43  1  0
 21 44  1  0
 23 45  1  0
 24 46  1  0
M  END
