
     RDKit          3D

 51 54  0  0  0  0  0  0  0  0999 V2000
   -2.0237    1.0517    0.6716 C   0  0  0  0  0  0  0  0  0  0  0  0
    1.4708   -1.7684    0.3988 C   0  0  0  0  0  0  0  0  0  0  0  0
   -2.1272   -0.2975    0.3122 C   0  0  0  0  0  0  0  0  0  0  0  0
   -3.2327   -0.7339   -0.3957 C   0  0  0  0  0  0  0  0  0  0  0  0
   -1.8723    3.7732    1.3576 C   0  0  0  0  0  0  0  0  0  0  0  0
   -1.0047   -1.2308    0.7074 C   0  0  2  0  0  0  0  0  0  0  0  0
   -2.0907   -2.9379   -0.6880 C   0  0  0  0  0  0  0  0  0  0  0  0
   -3.4053   -2.1822   -0.7692 C   0  0  0  0  0  0  0  0  0  0  0  0
   -6.1685    2.0977   -1.4499 C   0  0  0  0  0  0  0  0  0  0  0  0
    0.2808   -0.9348   -0.0756 C   0  0  0  0  0  0  0  0  0  0  0  0
   -1.4195   -2.6125    0.5541 N   0  0  0  0  0  0  0  0  0  0  0  0
    4.5403   -1.3363   -1.6088 N   0  0  0  0  0  0  0  0  0  0  0  0
   -3.0012    1.9643    0.3311 C   0  0  0  0  0  0  0  0  0  0  0  0
   -4.2252    0.1910   -0.7454 C   0  0  0  0  0  0  0  0  0  0  0  0
    2.7497   -1.3666   -0.2562 C   0  0  0  0  0  0  0  0  0  0  0  0
    3.4193   -2.0339   -1.2398 C   0  0  0  0  0  0  0  0  0  0  0  0
    4.6257   -0.2004   -0.8669 C   0  0  0  0  0  0  0  0  0  0  0  0
    3.5103   -0.1773    0.0007 C   0  0  0  0  0  0  0  0  0  0  0  0
    5.5891    0.8088   -0.8744 C   0  0  0  0  0  0  0  0  0  0  0  0
   -4.1262    1.5242   -0.3998 C   0  0  0  0  0  0  0  0  0  0  0  0
    5.3916    1.8358    0.0168 C   0  0  0  0  0  0  0  0  0  0  0  0
    4.3074    1.9037    0.8952 C   0  0  0  0  0  0  0  0  0  0  0  0
    3.3643    0.8942    0.8868 C   0  0  0  0  0  0  0  0  0  0  0  0
    6.2940    2.8367    0.0523 F   0  0  0  0  0  0  0  0  0  0  0  0
   -5.0290    2.4749   -0.7050 O   0  0  0  0  0  0  0  0  0  0  0  0
   -2.9831    3.2742    0.6423 O   0  0  0  0  0  0  0  0  0  0  0  0
   -1.6174   -4.6699    1.5175 O   0  0  0  0  0  0  0  0  0  0  0  0
   -1.1572    1.3712    1.2376 H   0  0  0  0  0  0  0  0  0  0  0  0
    1.5646   -1.6718    1.4867 H   0  0  0  0  0  0  0  0  0  0  0  0
    1.2846   -2.8263    0.2005 H   0  0  0  0  0  0  0  0  0  0  0  0
   -1.7720    3.3041    2.3405 H   0  0  0  0  0  0  0  0  0  0  0  0
   -0.9370    3.6378    0.8071 H   0  0  0  0  0  0  0  0  0  0  0  0
   -2.0459    4.8376    1.4954 H   0  0  0  0  0  0  0  0  0  0  0  0
   -0.7896   -1.0755    1.7702 H   0  0  0  0  0  0  0  0  0  0  0  0
   -2.2500   -4.0121   -0.7403 H   0  0  0  0  0  0  0  0  0  0  0  0
   -1.4432   -2.6654   -1.5250 H   0  0  0  0  0  0  0  0  0  0  0  0
   -4.1358   -2.6496   -0.1019 H   0  0  0  0  0  0  0  0  0  0  0  0
   -3.8111   -2.2688   -1.7794 H   0  0  0  0  0  0  0  0  0  0  0  0
   -5.9003    1.6789   -2.4236 H   0  0  0  0  0  0  0  0  0  0  0  0
   -6.7861    1.3709   -0.9148 H   0  0  0  0  0  0  0  0  0  0  0  0
   -6.7494    3.0034   -1.6059 H   0  0  0  0  0  0  0  0  0  0  0  0
   -0.7777   -3.0607    2.4282 H   0  0  0  0  0  0  0  0  0  0  0  0
    0.5081    0.1284    0.0345 H   0  0  0  0  0  0  0  0  0  0  0  0
    0.1177   -1.0960   -1.1450 H   0  0  0  0  0  0  0  0  0  0  0  0
    5.2051   -1.6380   -2.3009 H   0  0  0  0  0  0  0  0  0  0  0  0
   -5.0837   -0.1663   -1.3003 H   0  0  0  0  0  0  0  0  0  0  0  0
    3.1794   -2.9732   -1.7135 H   0  0  0  0  0  0  0  0  0  0  0  0
    6.4444    0.7913   -1.5372 H   0  0  0  0  0  0  0  0  0  0  0  0
    4.2185    2.7429    1.5722 H   0  0  0  0  0  0  0  0  0  0  0  0
    2.5240    0.9374    1.5688 H   0  0  0  0  0  0  0  0  0  0  0  0
   -1.2702   -3.5014    1.5467 C   0  0  0  0  0  0  0  0  0  0  0  0
  9 25  1  0
 25 20  1  0
 26  5  1  0
 26 13  1  0
 20 13  1  0
 20 14  2  0
 13  1  2  0
 14  4  1  0
  1  3  1  0
  4  3  2  0
  4  8  1  0
  3  6  1  0
  8  7  1  0
 22 23  2  0
 22 21  1  0
 24 21  1  0
  6 11  1  0
  6 10  1  0
  7 11  1  0
 23 18  1  0
 21 19  2  0
 11 51  1  0
 10  2  1  0
 51 27  2  0
 18 17  2  0
 18 15  1  0
 19 17  1  0
  2 15  1  0
 17 12  1  0
 15 16  2  0
 12 16  1  0
  1 28  1  0
  2 29  1  0
  2 30  1  0
  5 31  1  0
  5 32  1  0
  5 33  1  0
  6 34  1  1
  7 35  1  0
  7 36  1  0
  8 37  1  0
  8 38  1  0
  9 39  1  0
  9 40  1  0
  9 41  1  0
 51 42  1  0
 10 43  1  0
 10 44  1  0
 12 45  1  0
 14 46  1  0
 16 47  1  0
 19 48  1  0
 22 49  1  0
 23 50  1  0
M  END
