
     RDKit          3D

 58 58  0  0  0  0  0  0  0  0999 V2000
  -13.3287    0.9766   -0.6715 C   0  0  0  0  0  0  0  0  0  0  0  0
    5.5280    2.8716    0.7489 O   0  0  0  0  0  0  0  0  0  0  0  0
    3.1581   -1.4391   -1.5894 O   0  0  0  0  0  0  0  0  0  0  0  0
    5.9670    2.2894   -1.5432 O   0  0  0  0  0  0  0  0  0  0  0  0
    7.0720    0.8012    0.3334 O   0  0  0  0  0  0  0  0  0  0  0  0
    5.2461   -2.0774   -0.3284 O   0  0  0  0  0  0  0  0  0  0  0  0
    5.3883   -0.4034   -2.3458 O   0  0  0  0  0  0  0  0  0  0  0  0
    2.5712   -1.8405    1.7286 C   0  0  0  0  0  0  0  0  0  0  0  0
    0.3073   -1.9546    1.4364 C   0  0  0  0  0  0  0  0  0  0  0  0
    1.4184    0.1243    1.0476 C   0  0  0  0  0  0  0  0  0  0  0  0
  -12.1279    0.0429   -0.6031 C   0  0  0  0  0  0  0  0  0  0  0  0
  -10.8060    0.7907   -0.4768 C   0  0  0  0  0  0  0  0  0  0  0  0
   -9.5959   -0.1305   -0.3890 C   0  0  0  0  0  0  0  0  0  0  0  0
   -8.2767    0.6204   -0.2562 C   0  0  0  0  0  0  0  0  0  0  0  0
   -7.0723   -0.3012   -0.1137 C   0  0  0  0  0  0  0  0  0  0  0  0
   -5.7504    0.4467    0.0100 C   0  0  0  0  0  0  0  0  0  0  0  0
   -4.5684   -0.4797    0.2632 C   0  0  0  0  0  0  0  0  0  0  0  0
   -3.2368    0.2576    0.3533 C   0  0  0  0  0  0  0  0  0  0  0  0
   -2.1173   -0.6887    0.7298 C   0  0  0  0  0  0  0  0  0  0  0  0
    1.4522   -2.5435    1.7595 N   0  0  0  0  0  0  0  0  0  0  0  0
   -0.8952    0.0390    0.7537 O   0  0  0  0  0  0  0  0  0  0  0  0
    2.6128   -0.4947    1.3722 C   0  0  0  0  0  0  0  0  0  0  0  0
    0.2352   -0.6086    1.0748 C   0  0  0  0  0  0  0  0  0  0  0  0
    4.3599    0.5709   -0.1242 C   0  0  1  0  0  0  0  0  0  0  0  0
    5.8903    1.5732   -0.1152 P   0  0  1  0  0  0  0  0  0  0  0  0
    4.5955   -0.9730   -1.0633 P   0  0  1  0  0  0  0  0  0  0  0  0
  -14.2653    0.4243   -0.7562 H   0  0  0  0  0  0  0  0  0  0  0  0
  -13.3926    1.5995    0.2230 H   0  0  0  0  0  0  0  0  0  0  0  0
  -13.2588    1.6439   -1.5324 H   0  0  0  0  0  0  0  0  0  0  0  0
    5.9118    2.8664    1.6354 H   0  0  0  0  0  0  0  0  0  0  0  0
    2.6660   -0.7978   -2.1188 H   0  0  0  0  0  0  0  0  0  0  0  0
    6.0255    1.6658   -2.2815 H   0  0  0  0  0  0  0  0  0  0  0  0
    5.7674   -1.0785   -2.9272 H   0  0  0  0  0  0  0  0  0  0  0  0
    3.4853   -2.3605    1.9939 H   0  0  0  0  0  0  0  0  0  0  0  0
   -0.5772   -2.5789    1.4740 H   0  0  0  0  0  0  0  0  0  0  0  0
    1.3919    1.1729    0.7705 H   0  0  0  0  0  0  0  0  0  0  0  0
  -12.2401   -0.6378    0.2469 H   0  0  0  0  0  0  0  0  0  0  0  0
  -12.1028   -0.5904   -1.4955 H   0  0  0  0  0  0  0  0  0  0  0  0
  -10.6884    1.4664   -1.3316 H   0  0  0  0  0  0  0  0  0  0  0  0
  -10.8377    1.4320    0.4116 H   0  0  0  0  0  0  0  0  0  0  0  0
   -9.7167   -0.8045    0.4667 H   0  0  0  0  0  0  0  0  0  0  0  0
   -9.5615   -0.7731   -1.2761 H   0  0  0  0  0  0  0  0  0  0  0  0
   -8.1395    1.2713   -1.1270 H   0  0  0  0  0  0  0  0  0  0  0  0
   -8.3254    1.2863    0.6129 H   0  0  0  0  0  0  0  0  0  0  0  0
   -7.2107   -0.9392    0.7666 H   0  0  0  0  0  0  0  0  0  0  0  0
   -7.0262   -0.9800   -0.9727 H   0  0  0  0  0  0  0  0  0  0  0  0
   -5.5748    1.0286   -0.9013 H   0  0  0  0  0  0  0  0  0  0  0  0
   -5.8200    1.1746    0.8259 H   0  0  0  0  0  0  0  0  0  0  0  0
   -4.7433   -1.0323    1.1927 H   0  0  0  0  0  0  0  0  0  0  0  0
   -4.5147   -1.2319   -0.5309 H   0  0  0  0  0  0  0  0  0  0  0  0
   -3.0115    0.7328   -0.6057 H   0  0  0  0  0  0  0  0  0  0  0  0
   -3.3054    1.0547    1.0994 H   0  0  0  0  0  0  0  0  0  0  0  0
   -2.3157   -1.1283    1.7140 H   0  0  0  0  0  0  0  0  0  0  0  0
   -2.0499   -1.5112    0.0078 H   0  0  0  0  0  0  0  0  0  0  0  0
    3.8005    1.1979    1.8583 H   0  0  0  0  0  0  0  0  0  0  0  0
    4.6909   -0.3118    1.8307 H   0  0  0  0  0  0  0  0  0  0  0  0
    3.5885    1.1676   -0.6233 H   0  0  0  0  0  0  0  0  0  0  0  0
    3.9131    0.2562    1.3188 C   0  0  0  0  0  0  0  0  0  0  0  0
 11  1  1  0
  1 27  1  0
  1 28  1  0
  1 29  1  0
 25  2  1  1
  2 30  1  0
 26  3  1  6
  3 31  1  0
 25  4  1  0
  4 32  1  0
  5 25  2  0
  6 26  2  0
 26  7  1  0
  7 33  1  0
  8 20  2  0
  8 22  1  0
  8 34  1  0
 20  9  1  0
  9 23  2  0
  9 35  1  0
 22 10  2  0
 10 23  1  0
 10 36  1  0
 12 11  1  0
 11 37  1  0
 11 38  1  0
 13 12  1  0
 12 39  1  0
 12 40  1  0
 14 13  1  0
 13 41  1  0
 13 42  1  0
 15 14  1  0
 14 43  1  0
 14 44  1  0
 16 15  1  0
 15 45  1  0
 15 46  1  0
 17 16  1  0
 16 47  1  0
 16 48  1  0
 18 17  1  0
 17 49  1  0
 17 50  1  0
 19 18  1  0
 18 51  1  0
 18 52  1  0
 21 19  1  0
 19 53  1  0
 19 54  1  0
 58 24  1  0
 58 22  1  0
 58 55  1  0
 58 56  1  0
 23 21  1  0
 25 24  1  0
 26 24  1  0
 24 57  1  6
M  END
