
     RDKit          3D

 32 33  0  0  0  0  0  0  0  0999 V2000
    1.0384   -0.6691   -1.4853 C   0  0  0  0  0  0  0  0  0  0  0  0
   -0.2209   -0.8286   -0.7978 N   0  0  0  0  0  0  0  0  0  0  0  0
   -1.2170    0.0645   -0.9323 C   0  0  0  0  0  0  0  0  0  0  0  0
   -2.3609    0.0740   -0.2007 C   0  0  0  0  0  0  0  0  0  0  0  0
   -2.5852   -0.9901    0.8422 C   0  0  0  0  0  0  0  0  0  0  0  0
   -1.7265   -2.2134    0.5335 C   0  0  0  0  0  0  0  0  0  0  0  0
   -0.2852   -1.8221    0.2565 C   0  0  0  0  0  0  0  0  0  0  0  0
   -3.3256    1.1383   -0.4735 C   0  0  0  0  0  0  0  0  0  0  0  0
   -3.1924    1.9649   -1.3810 O   0  0  0  0  0  0  0  0  0  0  0  0
   -4.4135    1.1747    0.3334 N   0  0  0  0  0  0  0  0  0  0  0  0
    2.1574   -0.2245   -0.5721 C   0  0  0  0  0  0  0  0  0  0  0  0
    3.3383   -0.9533   -0.4993 C   0  0  0  0  0  0  0  0  0  0  0  0
    4.3754   -0.5459    0.3320 C   0  0  0  0  0  0  0  0  0  0  0  0
    4.2342    0.5956    1.1075 C   0  0  0  0  0  0  0  0  0  0  0  0
    3.0531    1.3272    1.0455 C   0  0  0  0  0  0  0  0  0  0  0  0
    2.0225    0.9196    0.2118 C   0  0  0  0  0  0  0  0  0  0  0  0
    1.3136   -1.6157   -1.9597 H   0  0  0  0  0  0  0  0  0  0  0  0
    0.9003    0.0583   -2.2875 H   0  0  0  0  0  0  0  0  0  0  0  0
   -1.0672    0.8122   -1.7026 H   0  0  0  0  0  0  0  0  0  0  0  0
   -2.3553   -0.6206    1.8482 H   0  0  0  0  0  0  0  0  0  0  0  0
   -3.6326   -1.3040    0.8638 H   0  0  0  0  0  0  0  0  0  0  0  0
   -1.7500   -2.9179    1.3653 H   0  0  0  0  0  0  0  0  0  0  0  0
   -2.1324   -2.7320   -0.3386 H   0  0  0  0  0  0  0  0  0  0  0  0
    0.2917   -2.6941   -0.0594 H   0  0  0  0  0  0  0  0  0  0  0  0
    0.1870   -1.4394    1.1686 H   0  0  0  0  0  0  0  0  0  0  0  0
   -4.4822    0.6206    1.1685 H   0  0  0  0  0  0  0  0  0  0  0  0
   -5.0566    1.9441    0.2509 H   0  0  0  0  0  0  0  0  0  0  0  0
    3.4485   -1.8511   -1.0968 H   0  0  0  0  0  0  0  0  0  0  0  0
    5.2890   -1.1249    0.3758 H   0  0  0  0  0  0  0  0  0  0  0  0
    5.0370    0.9139    1.7599 H   0  0  0  0  0  0  0  0  0  0  0  0
    2.9370    2.2185    1.6487 H   0  0  0  0  0  0  0  0  0  0  0  0
    1.1066    1.4988    0.1765 H   0  0  0  0  0  0  0  0  0  0  0  0
  1  2  1  0
  1 11  1  0
  2  3  1  0
  2  7  1  0
  3  4  2  0
  4  5  1  0
  4  8  1  0
  5  6  1  0
  6  7  1  0
  8  9  2  0
  8 10  1  0
 11 12  2  0
 11 16  1  0
 12 13  1  0
 13 14  2  0
 14 15  1  0
 15 16  2  0
  1 17  1  0
  1 18  1  0
  3 19  1  0
  5 20  1  0
  5 21  1  0
  6 22  1  0
  6 23  1  0
  7 24  1  0
  7 25  1  0
 10 26  1  0
 10 27  1  0
 12 28  1  0
 13 29  1  0
 14 30  1  0
 15 31  1  0
 16 32  1  0
M  END
