
     RDKit          3D

 58 61  0  0  0  0  0  0  0  0999 V2000
    5.5892   -5.1102    0.3058 C   0  0  0  0  0  0  0  0  0  0  0  0
    5.6067   -4.4731   -0.9293 C   0  0  0  0  0  0  0  0  0  0  0  0
    5.9935   -4.4233    1.4424 C   0  0  0  0  0  0  0  0  0  0  0  0
    6.4101   -3.1017    1.3444 C   0  0  0  0  0  0  0  0  0  0  0  0
   -4.4963   -0.0903    1.6152 C   0  0  0  0  0  0  0  0  0  0  0  0
   -4.5275    1.6997    0.0160 C   0  0  0  0  0  0  0  0  0  0  0  0
   -5.6738   -0.5939    1.0875 C   0  0  0  0  0  0  0  0  0  0  0  0
   -5.7047    1.2091   -0.5251 C   0  0  0  0  0  0  0  0  0  0  0  0
    2.0647    1.9053    0.4554 C   0  0  0  0  0  0  0  0  0  0  0  0
    6.9849    2.9368   -0.4932 C   0  0  0  0  0  0  0  0  0  0  0  0
    2.8228   -0.1096   -0.3813 C   0  0  0  0  0  0  0  0  0  0  0  0
    4.5022    1.7875   -0.2277 C   0  0  0  0  0  0  0  0  0  0  0  0
    3.1791    1.1704   -0.0598 C   0  0  0  0  0  0  0  0  0  0  0  0
   -6.2676    0.0629    0.0181 C   0  0  0  0  0  0  0  0  0  0  0  0
    5.7167    1.0647   -0.1990 C   0  0  0  0  0  0  0  0  0  0  0  0
    0.9199    1.1704    0.5034 C   0  0  0  0  0  0  0  0  0  0  0  0
   -1.4282    0.8756    1.0348 C   0  0  0  0  0  0  0  0  0  0  0  0
   -2.6230    1.5833    1.6412 C   0  0  0  0  0  0  0  0  0  0  0  0
    5.8756    3.7524   -0.5466 C   0  0  0  0  0  0  0  0  0  0  0  0
    4.6262    3.1574   -0.4110 C   0  0  0  0  0  0  0  0  0  0  0  0
    6.0255   -3.1538   -1.0232 C   0  0  0  0  0  0  0  0  0  0  0  0
   -3.9133    1.0582    1.0875 C   0  0  0  0  0  0  0  0  0  0  0  0
    6.4299   -2.4564    0.1127 C   0  0  0  0  0  0  0  0  0  0  0  0
  -10.4350   -0.1622   -0.1811 C   0  0  0  0  0  0  0  0  0  0  0  0
    6.8427   -1.0196    0.0057 C   0  0  0  0  0  0  0  0  0  0  0  0
   -9.0560    0.2819    0.2759 C   0  0  0  0  0  0  0  0  0  0  0  0
    6.9018    1.6188   -0.3213 N   0  0  0  0  0  0  0  0  0  0  0  0
   -0.3027    1.6224    0.9673 N   0  0  0  0  0  0  0  0  0  0  0  0
   -1.4559   -0.2829    0.6615 O   0  0  0  0  0  0  0  0  0  0  0  0
   -7.8720   -0.1299   -2.0543 O   0  0  0  0  0  0  0  0  0  0  0  0
   -7.8659   -1.9924   -0.3680 O   0  0  0  0  0  0  0  0  0  0  0  0
    5.6370   -0.2548   -0.0296 O   0  0  0  0  0  0  0  0  0  0  0  0
    1.1649   -0.4360   -0.0783 S   0  0  0  0  0  0  0  0  0  0  0  0
    5.2656   -6.1404    0.3811 H   0  0  0  0  0  0  0  0  0  0  0  0
    5.2979   -5.0050   -1.8198 H   0  0  0  0  0  0  0  0  0  0  0  0
    5.9830   -4.9153    2.4064 H   0  0  0  0  0  0  0  0  0  0  0  0
    6.7242   -2.5700    2.2347 H   0  0  0  0  0  0  0  0  0  0  0  0
   -4.0315   -0.5986    2.4502 H   0  0  0  0  0  0  0  0  0  0  0  0
   -4.0830    2.5934   -0.4040 H   0  0  0  0  0  0  0  0  0  0  0  0
   -6.1137   -1.4889    1.5067 H   0  0  0  0  0  0  0  0  0  0  0  0
   -6.1680    1.7189   -1.3592 H   0  0  0  0  0  0  0  0  0  0  0  0
    2.1141    2.9285    0.8015 H   0  0  0  0  0  0  0  0  0  0  0  0
    7.9836    3.3463   -0.5905 H   0  0  0  0  0  0  0  0  0  0  0  0
    3.4341   -0.8923   -0.7981 H   0  0  0  0  0  0  0  0  0  0  0  0
   -2.5769    1.4180    2.7219 H   0  0  0  0  0  0  0  0  0  0  0  0
   -2.5480    2.6611    1.4879 H   0  0  0  0  0  0  0  0  0  0  0  0
    5.9756    4.8185   -0.6908 H   0  0  0  0  0  0  0  0  0  0  0  0
    3.7388    3.7746   -0.4618 H   0  0  0  0  0  0  0  0  0  0  0  0
    6.0450   -2.6634   -1.9896 H   0  0  0  0  0  0  0  0  0  0  0  0
  -10.6008    0.0610   -1.2334 H   0  0  0  0  0  0  0  0  0  0  0  0
  -10.5883   -1.2271   -0.0172 H   0  0  0  0  0  0  0  0  0  0  0  0
  -11.1859    0.3752    0.3956 H   0  0  0  0  0  0  0  0  0  0  0  0
    7.4555   -0.7195    0.8592 H   0  0  0  0  0  0  0  0  0  0  0  0
    7.4276   -0.8457   -0.9006 H   0  0  0  0  0  0  0  0  0  0  0  0
   -8.9012    1.3510    0.1257 H   0  0  0  0  0  0  0  0  0  0  0  0
   -8.8815    0.0526    1.3278 H   0  0  0  0  0  0  0  0  0  0  0  0
   -0.3369    2.5835    1.2736 H   0  0  0  0  0  0  0  0  0  0  0  0
   -7.7815   -0.5613   -0.6592 S   0  0  1  0  0  0  0  0  0  0  0  0
 10 19  2  0
 10 27  1  0
 19 20  1  0
 31 58  2  0
 27 15  2  0
 20 12  2  0
 24 26  1  0
 58 26  1  1
 15 12  1  0
 15 32  1  0
 12 13  1  0
 58 30  2  0
 58 14  1  0
 25 32  1  0
 25 23  1  0
  7 14  1  0
  7  5  2  0
 23 21  2  0
 23  4  1  0
 13  9  1  0
 13 11  2  0
 21  2  1  0
 14  8  2  0
  4  3  2  0
  9 16  2  0
  5 22  1  0
 11 33  1  0
  2  1  2  0
  3  1  1  0
  8  6  1  0
 16 33  1  0
 16 28  1  0
 22  6  2  0
 22 18  1  0
 28 17  1  0
 17 18  1  0
 17 29  2  0
  1 34  1  0
  2 35  1  0
  3 36  1  0
  4 37  1  0
  5 38  1  0
  6 39  1  0
  7 40  1  0
  8 41  1  0
  9 42  1  0
 10 43  1  0
 11 44  1  0
 18 45  1  0
 18 46  1  0
 19 47  1  0
 20 48  1  0
 21 49  1  0
 24 50  1  0
 24 51  1  0
 24 52  1  0
 25 53  1  0
 25 54  1  0
 26 55  1  0
 26 56  1  0
 28 57  1  0
M  END
