
     RDKit          3D

 20 20  0  0  0  0  0  0  0  0999 V2000
    0.9797   -1.1658    0.1822 C   0  0  0  0  0  0  0  0  0  0  0  0
    2.3408   -1.0909    0.4543 C   0  0  0  0  0  0  0  0  0  0  0  0
    3.0211    0.1091    0.3047 C   0  0  0  0  0  0  0  0  0  0  0  0
    2.3308    1.2372   -0.1216 C   0  0  0  0  0  0  0  0  0  0  0  0
    0.9725    1.1595   -0.3911 C   0  0  0  0  0  0  0  0  0  0  0  0
    0.2795   -0.0400   -0.2383 C   0  0  0  0  0  0  0  0  0  0  0  0
   -1.2119   -0.0778   -0.5060 C   0  0  1  0  0  0  0  0  0  0  0  0
   -1.6860   -1.3629   -0.8206 O   0  0  0  0  0  0  0  0  0  0  0  0
   -1.9493    0.5334    0.6798 C   0  0  0  0  0  0  0  0  0  0  0  0
   -3.3206    0.6093    0.3783 O   0  0  0  0  0  0  0  0  0  0  0  0
    0.4761   -2.1173    0.2975 H   0  0  0  0  0  0  0  0  0  0  0  0
    2.8698   -1.9774    0.7802 H   0  0  0  0  0  0  0  0  0  0  0  0
    4.0819    0.1653    0.5119 H   0  0  0  0  0  0  0  0  0  0  0  0
    2.8519    2.1773   -0.2509 H   0  0  0  0  0  0  0  0  0  0  0  0
    0.4453    2.0436   -0.7324 H   0  0  0  0  0  0  0  0  0  0  0  0
   -1.4142    0.5416   -1.3873 H   0  0  0  0  0  0  0  0  0  0  0  0
   -1.8180   -1.8607   -0.0070 H   0  0  0  0  0  0  0  0  0  0  0  0
   -1.7583   -0.0863    1.5695 H   0  0  0  0  0  0  0  0  0  0  0  0
   -1.5195    1.5212    0.8873 H   0  0  0  0  0  0  0  0  0  0  0  0
   -3.7783    0.9464    1.1536 H   0  0  0  0  0  0  0  0  0  0  0  0
  4  3  2  0
  4  5  1  0
  3  2  1  0
  5  6  2  0
  2  1  2  0
  6  1  1  0
  6  7  1  0
  8  7  1  0
  7  9  1  0
  9 10  1  0
  1 11  1  0
  2 12  1  0
  3 13  1  0
  4 14  1  0
  5 15  1  0
  7 16  1  6
  8 17  1  0
  9 18  1  0
  9 19  1  0
 10 20  1  0
M  END
