
     RDKit          3D

 21 21  0  0  0  0  0  0  0  0999 V2000
   -1.0584    0.9863    0.3586 C   0  0  0  0  0  0  0  0  0  0  0  0
    0.8976   -0.1741    1.4277 N   0  0  0  0  0  0  0  0  0  0  0  0
   -1.7296    2.0386    0.3928 O   0  0  0  0  0  0  0  0  0  0  0  0
    0.4286    1.0415    0.7592 C   0  0  1  0  0  0  0  0  0  0  0  0
    1.2860    1.2860   -0.5048 C   0  0  0  0  0  0  0  0  0  0  0  0
    1.9380   -0.7875    0.6094 C   0  0  0  0  0  0  0  0  0  0  0  0
    2.3073    0.1569   -0.5463 C   0  0  0  0  0  0  0  0  0  0  0  0
   -2.9679   -0.3422   -0.4333 C   0  0  0  0  0  0  0  0  0  0  0  0
   -1.5908   -0.2017   -0.0812 N   0  0  0  0  0  0  0  0  0  0  0  0
    1.2370    0.0433    2.3442 H   0  0  0  0  0  0  0  0  0  0  0  0
    0.5079    1.9328    1.4491 H   0  0  0  0  0  0  0  0  0  0  0  0
    0.6495    1.2884   -1.4232 H   0  0  0  0  0  0  0  0  0  0  0  0
    1.7859    2.2828   -0.4366 H   0  0  0  0  0  0  0  0  0  0  0  0
    2.8444   -1.0449    1.2197 H   0  0  0  0  0  0  0  0  0  0  0  0
    1.5171   -1.7479    0.2012 H   0  0  0  0  0  0  0  0  0  0  0  0
    2.2723   -0.3850   -1.5221 H   0  0  0  0  0  0  0  0  0  0  0  0
    3.3442    0.5516   -0.4138 H   0  0  0  0  0  0  0  0  0  0  0  0
   -3.5307   -0.8970    0.3664 H   0  0  0  0  0  0  0  0  0  0  0  0
   -3.4382    0.6685   -0.5686 H   0  0  0  0  0  0  0  0  0  0  0  0
   -3.0507   -0.9190   -1.3936 H   0  0  0  0  0  0  0  0  0  0  0  0
   -1.0525   -1.0313   -0.0038 H   0  0  0  0  0  0  0  0  0  0  0  0
  1  3  2  0
  1  4  1  0
  1  9  1  0
  2  4  1  0
  2  6  1  0
  4  5  1  0
  5  7  1  0
  6  7  1  0
  8  9  1  0
  2 10  1  0
  4 11  1  1
  5 12  1  0
  5 13  1  0
  6 14  1  0
  6 15  1  0
  7 16  1  0
  7 17  1  0
  8 18  1  0
  8 19  1  0
  8 20  1  0
  9 21  1  0
M  END
