
     RDKit          3D

 58 62  0  0  0  0  0  0  0  0999 V2000
    0.2009    0.0955   -0.5769 C   0  0  2  0  0  0  0  0  0  0  0  0
   -0.5299   -1.1537   -0.1772 C   0  0  0  0  0  0  0  0  0  0  0  0
   -1.8040   -1.1364   -0.7333 C   0  0  0  0  0  0  0  0  0  0  0  0
    5.1944    1.3438   -0.1158 C   0  0  0  0  0  0  0  0  0  0  0  0
    0.5092    0.9624    0.6576 C   0  0  0  0  0  0  0  0  0  0  0  0
   -2.7103   -2.1545   -0.5100 C   0  0  0  0  0  0  0  0  0  0  0  0
   -0.1274   -2.2034    0.6176 C   0  0  0  0  0  0  0  0  0  0  0  0
    1.3780    2.1717    0.3554 C   0  0  0  0  0  0  0  0  0  0  0  0
   -6.4591    1.5552    0.3009 C   0  0  0  0  0  0  0  0  0  0  0  0
   -6.6852    0.9716   -0.9448 C   0  0  0  0  0  0  0  0  0  0  0  0
   -4.3061    0.7525   -1.2946 C   0  0  0  0  0  0  0  0  0  0  0  0
   -8.7644    1.7681    0.6717 O   0  0  0  0  0  0  0  0  0  0  0  0
   -7.3945    2.5158    2.2632 O   0  0  0  0  0  0  0  0  0  0  0  0
   -5.1493    1.7295    0.7400 C   0  0  0  0  0  0  0  0  0  0  0  0
   -4.0843    1.3324   -0.0499 C   0  0  0  0  0  0  0  0  0  0  0  0
   -1.9627    0.0156   -1.4956 N   0  0  0  0  0  0  0  0  0  0  0  0
   -0.8304    0.7851   -1.4745 C   0  0  0  0  0  0  0  0  0  0  0  0
   -0.7002    1.8353   -2.0650 O   0  0  0  0  0  0  0  0  0  0  0  0
    2.5808    1.7285   -0.3450 N   0  0  0  0  0  0  0  0  0  0  0  0
    2.3468    1.0231   -1.6021 C   0  0  0  0  0  0  0  0  0  0  0  0
    1.5024   -0.2111   -1.3317 C   0  0  0  0  0  0  0  0  0  0  0  0
    3.9565    2.6152   -0.2485 S   0  0  1  0  0  0  0  0  0  0  0  0
    3.9208    3.3819    0.9848 O   0  0  0  0  0  0  0  0  0  0  0  0
    4.2199    3.3277   -1.4914 O   0  0  0  0  0  0  0  0  0  0  0  0
    6.1695    1.2687   -1.1023 C   0  0  0  0  0  0  0  0  0  0  0  0
    7.1663    0.3088   -1.0270 C   0  0  0  0  0  0  0  0  0  0  0  0
    7.1901   -0.5768    0.0386 C   0  0  0  0  0  0  0  0  0  0  0  0
    6.2211   -0.5089    1.0291 C   0  0  0  0  0  0  0  0  0  0  0  0
    5.2240    0.4501    0.9542 C   0  0  0  0  0  0  0  0  0  0  0  0
    4.0412    0.4890    2.2082 Cl  0  0  0  0  0  0  0  0  0  0  0  0
   -1.0353   -3.2373    0.8428 C   0  0  0  0  0  0  0  0  0  0  0  0
   -0.5160   -4.6936    1.9288 Br  0  0  0  0  0  0  0  0  0  0  0  0
   -2.3079   -3.2195    0.2927 C   0  0  0  0  0  0  0  0  0  0  0  0
   -5.6161    0.5731   -1.7288 C   0  0  0  0  0  0  0  0  0  0  0  0
   -0.4168    1.2982    1.1308 H   0  0  0  0  0  0  0  0  0  0  0  0
    1.0255    0.3330    1.3863 H   0  0  0  0  0  0  0  0  0  0  0  0
   -3.7065   -2.1468   -0.9309 H   0  0  0  0  0  0  0  0  0  0  0  0
    0.8635   -2.2242    1.0547 H   0  0  0  0  0  0  0  0  0  0  0  0
    0.8337    2.9130   -0.2353 H   0  0  0  0  0  0  0  0  0  0  0  0
    1.6586    2.6373    1.2970 H   0  0  0  0  0  0  0  0  0  0  0  0
   -7.6899    0.8177   -1.3130 H   0  0  0  0  0  0  0  0  0  0  0  0
   -9.4494    2.0667    1.2883 H   0  0  0  0  0  0  0  0  0  0  0  0
   -4.9549    2.1784    1.7045 H   0  0  0  0  0  0  0  0  0  0  0  0
   -3.0776    1.4805    0.3197 H   0  0  0  0  0  0  0  0  0  0  0  0
   -3.4704   -0.4988   -2.8215 H   0  0  0  0  0  0  0  0  0  0  0  0
   -2.9426    1.1666   -2.8884 H   0  0  0  0  0  0  0  0  0  0  0  0
    1.8730    1.6776   -2.3371 H   0  0  0  0  0  0  0  0  0  0  0  0
    3.2974    0.6931   -2.0241 H   0  0  0  0  0  0  0  0  0  0  0  0
    2.0865   -0.9044   -0.7214 H   0  0  0  0  0  0  0  0  0  0  0  0
    1.2880   -0.7147   -2.2761 H   0  0  0  0  0  0  0  0  0  0  0  0
    6.1519    1.9590   -1.9335 H   0  0  0  0  0  0  0  0  0  0  0  0
    7.9187    0.2559   -1.8012 H   0  0  0  0  0  0  0  0  0  0  0  0
    7.9638   -1.3292    0.1068 H   0  0  0  0  0  0  0  0  0  0  0  0
    6.2386   -1.2009    1.8597 H   0  0  0  0  0  0  0  0  0  0  0  0
   -3.0035   -4.0261    0.4805 H   0  0  0  0  0  0  0  0  0  0  0  0
   -5.8074    0.1150   -2.6918 H   0  0  0  0  0  0  0  0  0  0  0  0
   -3.1703    0.3493   -2.2021 C   0  0  0  0  0  0  0  0  0  0  0  0
   -7.5641    1.9980    1.1850 C   0  0  0  0  0  0  0  0  0  0  0  0
 32 31  1  0
 33 31  1  0
 33  6  2  0
 31  7  2  0
  6  3  1  0
 13 58  2  0
 10 34  1  0
 10  9  2  0
 34 11  2  0
  7  2  1  0
  3  2  2  0
  3 16  1  0
 58  9  1  0
 58 12  1  0
  9 14  1  0
 11 57  1  0
 11 15  1  0
  2  1  1  0
 57 16  1  0
 16 17  1  0
 14 15  2  0
  1 17  1  6
  1  5  1  0
  1 21  1  0
 17 18  2  0
  5  8  1  0
 21 20  1  0
  8 19  1  0
 19 20  1  0
 19 22  1  0
 24 22  2  0
 22 23  2  0
 22  4  1  1
 30 29  1  0
  4 29  1  0
  4 25  2  0
 29 28  2  0
 25 26  1  0
 28 27  1  0
 26 27  2  0
  5 35  1  0
  5 36  1  0
  6 37  1  0
  7 38  1  0
  8 39  1  0
  8 40  1  0
 10 41  1  0
 12 42  1  0
 14 43  1  0
 15 44  1  0
 57 45  1  0
 57 46  1  0
 20 47  1  0
 20 48  1  0
 21 49  1  0
 21 50  1  0
 25 51  1  0
 26 52  1  0
 27 53  1  0
 28 54  1  0
 33 55  1  0
 34 56  1  0
M  END
