
     RDKit          3D

 17 18  0  0  0  0  0  0  0  0999 V2000
   -2.3404    1.8527   -0.2487 C   0  0  0  0  0  0  0  0  0  0  0  0
   -3.1337    0.7320   -0.0514 C   0  0  0  0  0  0  0  0  0  0  0  0
   -2.5506   -0.5117    0.1381 C   0  0  0  0  0  0  0  0  0  0  0  0
   -1.1702   -0.6347    0.1257 C   0  0  0  0  0  0  0  0  0  0  0  0
   -0.3557    0.4804   -0.0756 C   0  0  0  0  0  0  0  0  0  0  0  0
   -0.9625    1.7230   -0.2606 C   0  0  0  0  0  0  0  0  0  0  0  0
    1.1019    0.4010   -0.1009 C   0  0  0  0  0  0  0  0  0  0  0  0
    1.8655   -0.4722   -0.7159 N   0  0  0  0  0  0  0  0  0  0  0  0
    3.1215   -0.0987   -0.4830 N   0  0  0  0  0  0  0  0  0  0  0  0
    3.1653    0.9523    0.2382 N   0  0  0  0  0  0  0  0  0  0  0  0
    1.9142    1.2825    0.4894 N   0  0  0  0  0  0  0  0  0  0  0  0
   -0.4876   -2.1956    0.4075 Cl  0  0  0  0  0  0  0  0  0  0  0  0
   -2.7904    2.8240   -0.4001 H   0  0  0  0  0  0  0  0  0  0  0  0
   -4.2116    0.8194   -0.0417 H   0  0  0  0  0  0  0  0  0  0  0  0
   -0.3456    2.5954   -0.4341 H   0  0  0  0  0  0  0  0  0  0  0  0
   -3.1676   -1.3845    0.3007 H   0  0  0  0  0  0  0  0  0  0  0  0
    1.6944    2.0839    1.0662 H   0  0  0  0  0  0  0  0  0  0  0  0
  1  2  2  0
  1  6  1  0
  2  3  1  0
  3  4  2  0
  4  5  1  0
  4 12  1  0
  5  6  2  0
  5  7  1  0
  7  8  2  0
  7 11  1  0
  8  9  1  0
  9 10  2  0
 10 11  1  0
  1 13  1  0
  2 14  1  0
  6 15  1  0
  3 16  1  0
 11 17  1  0
M  END
