
     RDKit          3D

 32 34  0  0  0  0  0  0  0  0999 V2000
    0.9747   -2.8406    0.3591 O   0  0  0  0  0  0  0  0  0  0  0  0
    1.4553   -1.7378    0.2800 C   0  0  0  0  0  0  0  0  0  0  0  0
    2.9435   -1.4121   -0.0004 C   0  0  0  0  0  0  0  0  0  0  0  0
    3.7926   -2.2496   -0.1514 O   0  0  0  0  0  0  0  0  0  0  0  0
    3.0115    0.0403   -0.0257 C   0  0  0  0  0  0  0  0  0  0  0  0
    4.0691    0.9084   -0.2366 C   0  0  0  0  0  0  0  0  0  0  0  0
    3.8182    2.2735   -0.2004 C   0  0  0  0  0  0  0  0  0  0  0  0
    2.5284    2.7357    0.0463 C   0  0  0  0  0  0  0  0  0  0  0  0
    1.4570    1.8697    0.2615 C   0  0  0  0  0  0  0  0  0  0  0  0
    1.7189    0.5151    0.2207 C   0  0  0  0  0  0  0  0  0  0  0  0
    0.8237   -0.5417    0.4128 N   0  0  0  0  0  0  0  0  0  0  0  0
   -0.5987   -0.3810    0.6178 C   0  0  0  0  0  0  0  0  0  0  0  0
   -1.3595   -0.1760   -0.6944 C   0  0  0  0  0  0  0  0  0  0  0  0
   -2.8181    0.0627   -0.4240 C   0  0  0  0  0  0  0  0  0  0  0  0
   -3.2991    1.3541   -0.2202 C   0  0  0  0  0  0  0  0  0  0  0  0
   -4.6371    1.5758    0.0767 C   0  0  0  0  0  0  0  0  0  0  0  0
   -5.5148    0.5039    0.1770 C   0  0  0  0  0  0  0  0  0  0  0  0
   -5.0456   -0.7881   -0.0220 C   0  0  0  0  0  0  0  0  0  0  0  0
   -3.7068   -1.0050   -0.3195 C   0  0  0  0  0  0  0  0  0  0  0  0
    5.0640    0.5281   -0.4279 H   0  0  0  0  0  0  0  0  0  0  0  0
    4.6201    2.9795   -0.3632 H   0  0  0  0  0  0  0  0  0  0  0  0
    2.3453    3.8018    0.0728 H   0  0  0  0  0  0  0  0  0  0  0  0
    0.4685    2.2637    0.4546 H   0  0  0  0  0  0  0  0  0  0  0  0
   -0.9666   -1.2676    1.1331 H   0  0  0  0  0  0  0  0  0  0  0  0
   -0.7575    0.4618    1.2924 H   0  0  0  0  0  0  0  0  0  0  0  0
   -0.9349    0.6700   -1.2399 H   0  0  0  0  0  0  0  0  0  0  0  0
   -1.2288   -1.0580   -1.3248 H   0  0  0  0  0  0  0  0  0  0  0  0
   -2.6207    2.1960   -0.2996 H   0  0  0  0  0  0  0  0  0  0  0  0
   -4.9948    2.5863    0.2268 H   0  0  0  0  0  0  0  0  0  0  0  0
   -6.5590    0.6751    0.4045 H   0  0  0  0  0  0  0  0  0  0  0  0
   -5.7231   -1.6289    0.0529 H   0  0  0  0  0  0  0  0  0  0  0  0
   -3.3505   -2.0164   -0.4789 H   0  0  0  0  0  0  0  0  0  0  0  0
  8  7  2  0
  8  9  1  0
  7  6  1  0
  9 10  2  0
  6  5  2  0
 18 19  2  0
 18 17  1  0
 10  5  1  0
 10 11  1  0
 19 14  1  0
  5  3  1  0
 11 12  1  0
 11  2  1  0
 12 13  1  0
 17 16  2  0
 14 13  1  0
 14 15  2  0
  3  4  2  0
  3  2  1  0
  2  1  2  0
 16 15  1  0
  6 20  1  0
  7 21  1  0
  8 22  1  0
  9 23  1  0
 12 24  1  0
 12 25  1  0
 13 26  1  0
 13 27  1  0
 15 28  1  0
 16 29  1  0
 17 30  1  0
 18 31  1  0
 19 32  1  0
M  END
