
     RDKit          3D

 61 65  0  0  0  0  0  0  0  0999 V2000
   -1.8209    0.3629    0.1246 C   0  0  0  0  0  0  0  0  0  0  0  0
   -2.2316    0.2210    1.2706 O   0  0  0  0  0  0  0  0  0  0  0  0
   -0.3921    0.0505   -0.2602 C   0  0  0  0  0  0  0  0  0  0  0  0
    0.4522   -0.3113    0.9527 C   0  0  0  0  0  0  0  0  0  0  0  0
    1.8263   -0.6161    0.5616 N   0  0  0  0  0  0  0  0  0  0  0  0
    2.7195    0.4242    0.5440 C   0  0  0  0  0  0  0  0  0  0  0  0
    4.1078    0.0624    0.1745 C   0  0  0  0  0  0  0  0  0  0  0  0
    4.4608   -1.1386   -0.1103 N   0  0  0  0  0  0  0  0  0  0  0  0
    3.5309   -2.1419   -0.1217 C   0  0  0  0  0  0  0  0  0  0  0  0
    3.9466   -3.4307   -0.4738 C   0  0  0  0  0  0  0  0  0  0  0  0
    3.0434   -4.4682   -0.5273 C   0  0  0  0  0  0  0  0  0  0  0  0
    1.7025   -4.2196   -0.2316 C   0  0  0  0  0  0  0  0  0  0  0  0
    1.2696   -2.9569    0.1230 C   0  0  0  0  0  0  0  0  0  0  0  0
    2.1834   -1.8998    0.1924 C   0  0  0  0  0  0  0  0  0  0  0  0
    2.3894    1.5609    0.8390 O   0  0  0  0  0  0  0  0  0  0  0  0
    5.1484    1.1092    0.1774 C   0  0  0  0  0  0  0  0  0  0  0  0
    6.4118    0.7929    0.6802 C   0  0  0  0  0  0  0  0  0  0  0  0
    7.4338    1.7289    0.6626 C   0  0  0  0  0  0  0  0  0  0  0  0
    7.2126    2.9905    0.1252 C   0  0  0  0  0  0  0  0  0  0  0  0
    5.9636    3.3080   -0.3918 C   0  0  0  0  0  0  0  0  0  0  0  0
    4.9332    2.3796   -0.3593 C   0  0  0  0  0  0  0  0  0  0  0  0
   -2.6075    0.8233   -0.8588 N   0  0  0  0  0  0  0  0  0  0  0  0
   -3.9910    1.1520   -0.5999 C   0  0  2  0  0  0  0  0  0  0  0  0
   -4.8070   -0.1214   -0.3801 C   0  0  0  0  0  0  0  0  0  0  0  0
   -4.4230   -1.2007   -0.8120 O   0  0  0  0  0  0  0  0  0  0  0  0
   -4.4162    1.8706   -1.8890 C   0  0  0  0  0  0  0  0  0  0  0  0
   -3.5747    1.1894   -2.9635 C   0  0  0  0  0  0  0  0  0  0  0  0
   -2.2422    0.9330   -2.2670 C   0  0  0  0  0  0  0  0  0  0  0  0
   -5.9697    0.0209    0.2680 N   0  0  0  0  0  0  0  0  0  0  0  0
   -6.8444   -1.1217    0.5165 C   0  0  0  0  0  0  0  0  0  0  0  0
   -6.5171    1.2663    0.8031 C   0  0  0  0  0  0  0  0  0  0  0  0
   -7.9655    0.9056    1.1091 C   0  0  0  0  0  0  0  0  0  0  0  0
   -7.8835   -0.5699    1.4856 C   0  0  0  0  0  0  0  0  0  0  0  0
   -0.3863   -0.7661   -0.9896 H   0  0  0  0  0  0  0  0  0  0  0  0
    0.0449    0.9111   -0.7749 H   0  0  0  0  0  0  0  0  0  0  0  0
    0.4818    0.5110    1.6616 H   0  0  0  0  0  0  0  0  0  0  0  0
    0.0451   -1.1671    1.4855 H   0  0  0  0  0  0  0  0  0  0  0  0
    4.9930   -3.5838   -0.7038 H   0  0  0  0  0  0  0  0  0  0  0  0
    3.3672   -5.4630   -0.8001 H   0  0  0  0  0  0  0  0  0  0  0  0
    0.9804   -5.0234   -0.2797 H   0  0  0  0  0  0  0  0  0  0  0  0
    0.2209   -2.8110    0.3361 H   0  0  0  0  0  0  0  0  0  0  0  0
    6.5896   -0.1901    1.0968 H   0  0  0  0  0  0  0  0  0  0  0  0
    8.4034    1.4720    1.0687 H   0  0  0  0  0  0  0  0  0  0  0  0
    8.0103    3.7214    0.1068 H   0  0  0  0  0  0  0  0  0  0  0  0
    5.7876    4.2843   -0.8243 H   0  0  0  0  0  0  0  0  0  0  0  0
    3.9732    2.6444   -0.7774 H   0  0  0  0  0  0  0  0  0  0  0  0
   -4.0672    1.8108    0.2675 H   0  0  0  0  0  0  0  0  0  0  0  0
   -5.4872    1.8040   -2.0790 H   0  0  0  0  0  0  0  0  0  0  0  0
   -4.1593    2.9283   -1.8091 H   0  0  0  0  0  0  0  0  0  0  0  0
   -4.0322    0.2456   -3.2616 H   0  0  0  0  0  0  0  0  0  0  0  0
   -3.4571    1.8001   -3.8571 H   0  0  0  0  0  0  0  0  0  0  0  0
   -1.5439    1.7608   -2.4188 H   0  0  0  0  0  0  0  0  0  0  0  0
   -1.7635    0.0213   -2.6261 H   0  0  0  0  0  0  0  0  0  0  0  0
   -7.3061   -1.4585   -0.4159 H   0  0  0  0  0  0  0  0  0  0  0  0
   -6.2849   -1.9603    0.9314 H   0  0  0  0  0  0  0  0  0  0  0  0
   -5.9855    1.5661    1.7110 H   0  0  0  0  0  0  0  0  0  0  0  0
   -6.4454    2.0840    0.0853 H   0  0  0  0  0  0  0  0  0  0  0  0
   -8.3858    1.5311    1.8953 H   0  0  0  0  0  0  0  0  0  0  0  0
   -8.5786    1.0331    0.2144 H   0  0  0  0  0  0  0  0  0  0  0  0
   -8.8379   -1.0881    1.4026 H   0  0  0  0  0  0  0  0  0  0  0  0
   -7.5344   -0.6795    2.5147 H   0  0  0  0  0  0  0  0  0  0  0  0
  1  2  2  0
  1  3  1  0
  3  4  1  0
  4  5  1  0
  5  6  1  0
  5 14  1  0
  6  7  1  0
  6 15  2  0
  7  8  2  0
  7 16  1  0
  8  9  1  0
  9 10  2  0
  9 14  1  0
 10 11  1  0
 11 12  2  0
 12 13  1  0
 13 14  2  0
 16 17  2  0
 16 21  1  0
 17 18  1  0
 18 19  2  0
 19 20  1  0
 20 21  2  0
  3 34  1  0
  3 35  1  0
  4 36  1  0
  4 37  1  0
 10 38  1  0
 11 39  1  0
 12 40  1  0
 13 41  1  0
 17 42  1  0
 18 43  1  0
 19 44  1  0
 20 45  1  0
 21 46  1  0
 22 23  1  0
 22 28  1  0
 23 24  1  0
 23 26  1  0
 23 47  1  1
 24 25  2  0
 26 27  1  0
 26 48  1  0
 26 49  1  0
 27 28  1  0
 27 50  1  0
 27 51  1  0
 28 52  1  0
 28 53  1  0
 29 30  1  0
 29 31  1  0
 30 33  1  0
 31 32  1  0
 32 33  1  0
 30 54  1  0
 30 55  1  0
 31 56  1  0
 31 57  1  0
 32 58  1  0
 32 59  1  0
 33 60  1  0
 33 61  1  0
  1 22  1  0
 24 29  1  0
M  END
