
     RDKit          3D

 16 15  0  0  0  0  0  0  0  0999 V2000
    2.4231   -1.0876    0.5633 O   0  0  0  0  0  0  0  0  0  0  0  0
    2.4819    0.6281   -0.8697 O   0  0  0  0  0  0  0  0  0  0  0  0
    1.9193   -0.0209   -0.0244 C   0  0  0  0  0  0  0  0  0  0  0  0
    0.5185    0.3237    0.4604 C   0  0  1  0  0  0  0  0  0  0  0  0
    0.3363    1.7034    0.5334 O   0  0  0  0  0  0  0  0  0  0  0  0
   -0.5013   -0.3402   -0.4957 C   0  0  1  0  0  0  0  0  0  0  0  0
   -0.3326   -1.7215   -0.5623 O   0  0  0  0  0  0  0  0  0  0  0  0
   -1.9002    0.0197   -0.0156 C   0  0  0  0  0  0  0  0  0  0  0  0
   -2.4594   -0.6032    0.8513 O   0  0  0  0  0  0  0  0  0  0  0  0
   -2.4077    1.0672   -0.6345 O   0  0  0  0  0  0  0  0  0  0  0  0
    3.2986   -1.2947    0.1998 H   0  0  0  0  0  0  0  0  0  0  0  0
    0.3687   -0.0727    1.4688 H   0  0  0  0  0  0  0  0  0  0  0  0
    0.5835    2.1034   -0.3092 H   0  0  0  0  0  0  0  0  0  0  0  0
   -0.3458    0.0496   -1.5057 H   0  0  0  0  0  0  0  0  0  0  0  0
   -0.5587   -2.1126    0.2904 H   0  0  0  0  0  0  0  0  0  0  0  0
   -3.2834    1.2828   -0.2765 H   0  0  0  0  0  0  0  0  0  0  0  0
  1  3  1  0
  1 11  1  0
  2  3  2  0
  3  4  1  0
  4  5  1  0
  4  6  1  0
  4 12  1  1
  5 13  1  0
  6  7  1  0
  6  8  1  0
  6 14  1  6
  7 15  1  0
  8  9  2  0
  8 10  1  0
 10 16  1  0
M  END
