
     RDKit          3D

 22 22  0  0  0  0  0  0  0  0999 V2000
   -1.2183    1.5346   -1.3646 O   0  0  0  0  0  0  0  0  0  0  0  0
   -3.0185   -0.8785   -0.7350 O   0  0  0  0  0  0  0  0  0  0  0  0
   -1.9829   -1.3472   -0.0460 C   0  0  0  0  0  0  0  0  0  0  0  0
   -1.9275   -2.4739    0.3799 O   0  0  0  0  0  0  0  0  0  0  0  0
   -1.1851    1.1645   -0.0095 C   0  0  2  0  0  0  0  0  0  0  0  0
   -0.0303    1.9496    0.6180 C   0  0  0  0  0  0  0  0  0  0  0  0
    1.3245    1.4002    0.3828 C   0  0  0  0  0  0  0  0  0  0  0  0
    1.4799    0.0869    0.1974 C   0  0  0  0  0  0  0  0  0  0  0  0
    0.3478   -0.8149    0.1720 C   0  0  0  0  0  0  0  0  0  0  0  0
   -0.9017   -0.3390    0.0888 C   0  0  0  0  0  0  0  0  0  0  0  0
    2.8109   -0.4686    0.0369 N   0  0  0  0  0  0  0  0  0  0  0  0
    3.7577    0.2812    0.0642 O   0  0  0  0  0  0  0  0  0  0  0  0
    2.9007   -1.6647   -0.1181 O   0  0  0  0  0  0  0  0  0  0  0  0
   -2.3863    1.6137    0.6614 N   0  0  0  0  0  0  0  0  0  0  0  0
   -1.9067    1.0365   -1.8206 H   0  0  0  0  0  0  0  0  0  0  0  0
   -3.7053   -1.5568   -0.8265 H   0  0  0  0  0  0  0  0  0  0  0  0
   -0.0875    2.9868    0.2855 H   0  0  0  0  0  0  0  0  0  0  0  0
    2.1701    2.0724    0.4329 H   0  0  0  0  0  0  0  0  0  0  0  0
    0.5207   -1.8820    0.1931 H   0  0  0  0  0  0  0  0  0  0  0  0
   -3.2145    1.1639    0.2932 H   0  0  0  0  0  0  0  0  0  0  0  0
   -2.3483    1.3896    1.6481 H   0  0  0  0  0  0  0  0  0  0  0  0
   -0.1588    1.9812    1.7078 H   0  0  0  0  0  0  0  0  0  0  0  0
  4  3  2  0
 14  5  1  0
  3  2  1  0
  3 10  1  0
 10  5  1  0
 10  9  2  0
  5  1  1  6
  5  6  1  0
  9  8  1  0
  6  7  1  0
  8  7  2  0
  8 11  1  0
 13 11  1  0
 11 12  2  0
  1 15  1  0
  2 16  1  0
  6 17  1  0
  7 18  1  0
  9 19  1  0
 14 20  1  0
 14 21  1  0
  6 22  1  0
M  CHG  2  11   1  13  -1
M  END
