
     RDKit          3D

 45 47  0  0  0  0  0  0  0  0999 V2000
   -2.9794    0.3523    0.3120 C   0  0  0  0  0  0  0  0  0  0  0  0
   -2.0970    1.3015    0.8082 C   0  0  0  0  0  0  0  0  0  0  0  0
   -2.0839    2.5517    0.2055 C   0  0  0  0  0  0  0  0  0  0  0  0
   -2.9213    2.8400   -0.8587 C   0  0  0  0  0  0  0  0  0  0  0  0
   -3.8013    1.8714   -1.3425 C   0  0  0  0  0  0  0  0  0  0  0  0
   -3.8327    0.6126   -0.7498 C   0  0  0  0  0  0  0  0  0  0  0  0
    3.8798   -1.7164   -0.5080 C   0  0  0  0  0  0  0  0  0  0  0  0
    3.9229   -0.3483   -0.2674 C   0  0  0  0  0  0  0  0  0  0  0  0
    2.8040    0.3737    0.1472 C   0  0  0  0  0  0  0  0  0  0  0  0
    1.6060   -0.3104    0.3181 C   0  0  0  0  0  0  0  0  0  0  0  0
    1.5228   -1.6801    0.0915 C   0  0  0  0  0  0  0  0  0  0  0  0
    2.6638   -2.3531   -0.3121 C   0  0  0  0  0  0  0  0  0  0  0  0
    0.2425   -2.4045    0.3385 C   0  0  0  0  0  0  0  0  0  0  0  0
    2.8807    1.8261    0.3976 C   0  0  0  0  0  0  0  0  0  0  0  0
    4.0043    2.3898    1.0029 C   0  0  0  0  0  0  0  0  0  0  0  0
    4.0696    3.7547    1.2426 C   0  0  0  0  0  0  0  0  0  0  0  0
    3.0125    4.5801    0.8829 C   0  0  0  0  0  0  0  0  0  0  0  0
    1.8902    4.0302    0.2772 C   0  0  0  0  0  0  0  0  0  0  0  0
    1.8262    2.6661    0.0356 C   0  0  0  0  0  0  0  0  0  0  0  0
    2.5881   -3.6668   -0.5555 F   0  0  0  0  0  0  0  0  0  0  0  0
   -0.8203   -1.7755   -0.2377 N   0  0  0  0  0  0  0  0  0  0  0  0
   -2.0907   -2.2233   -0.0272 N   0  0  0  0  0  0  0  0  0  0  0  0
    0.1556   -3.4165    0.9938 O   0  0  0  0  0  0  0  0  0  0  0  0
   -2.2649   -1.2258    2.2677 O   0  0  0  0  0  0  0  0  0  0  0  0
   -4.3365   -1.8234    0.9524 O   0  0  0  0  0  0  0  0  0  0  0  0
   -4.6384    2.0948   -2.3657 O   0  0  0  0  0  0  0  0  0  0  0  0
   -2.9968   -1.2722    1.0183 S   0  0  1  0  0  0  0  0  0  0  0  0
   -1.4529    1.0939    1.6508 H   0  0  0  0  0  0  0  0  0  0  0  0
   -1.4158    3.3166    0.5781 H   0  0  0  0  0  0  0  0  0  0  0  0
   -2.8951    3.8244   -1.3113 H   0  0  0  0  0  0  0  0  0  0  0  0
   -4.5222   -0.1351   -1.1212 H   0  0  0  0  0  0  0  0  0  0  0  0
    4.9231   -2.9011   -1.9715 H   0  0  0  0  0  0  0  0  0  0  0  0
    5.9485   -1.8187   -1.0353 H   0  0  0  0  0  0  0  0  0  0  0  0
    5.3297   -3.2984   -0.3091 H   0  0  0  0  0  0  0  0  0  0  0  0
    4.8603    0.1702   -0.4303 H   0  0  0  0  0  0  0  0  0  0  0  0
    0.7334    0.2178    0.6814 H   0  0  0  0  0  0  0  0  0  0  0  0
    4.8286    1.7572    1.3089 H   0  0  0  0  0  0  0  0  0  0  0  0
    4.9471    4.1724    1.7185 H   0  0  0  0  0  0  0  0  0  0  0  0
    3.0634    5.6444    1.0714 H   0  0  0  0  0  0  0  0  0  0  0  0
    1.0655    4.6665   -0.0177 H   0  0  0  0  0  0  0  0  0  0  0  0
    0.9560    2.2571   -0.4637 H   0  0  0  0  0  0  0  0  0  0  0  0
   -0.6728   -1.0361   -0.9123 H   0  0  0  0  0  0  0  0  0  0  0  0
   -2.5825   -2.4965   -0.8731 H   0  0  0  0  0  0  0  0  0  0  0  0
   -4.5503    2.9986   -2.6894 H   0  0  0  0  0  0  0  0  0  0  0  0
    5.0824   -2.4752   -0.9800 C   0  0  0  0  0  0  0  0  0  0  0  0
 16 17  1  0
 16 15  2  0
 17 18  2  0
 15 14  1  0
 18 19  1  0
 45  7  1  0
 14 19  2  0
 14  9  1  0
  8  9  1  0
  8  7  2  0
  9 10  2  0
  7 12  1  0
 10 11  1  0
 12 11  2  0
 12 20  1  0
 11 13  1  0
 13 23  2  0
 13 21  1  0
 21 22  1  0
 24 27  2  0
  2  3  2  0
  2  1  1  0
  3  4  1  0
 27 22  1  6
 27  1  1  0
 27 25  2  0
  1  6  2  0
  4  5  2  0
  6  5  1  0
  5 26  1  0
  2 28  1  0
  3 29  1  0
  4 30  1  0
  6 31  1  0
 45 32  1  0
 45 33  1  0
 45 34  1  0
  8 35  1  0
 10 36  1  0
 15 37  1  0
 16 38  1  0
 17 39  1  0
 18 40  1  0
 19 41  1  0
 21 42  1  0
 22 43  1  0
 26 44  1  0
M  END
