
     RDKit          3D

 41 41  0  0  0  0  0  0  0  0999 V2000
    5.3094   -6.8563    0.2866 N   0  0  0  0  0  0  0  0  0  0  0  0
    6.9213   -5.4806    1.4581 C   0  0  0  0  0  0  0  0  0  0  0  0
    5.0675   -3.4597    1.3176 O   0  0  0  0  0  0  0  0  0  0  0  0
    2.3832   -3.7129    0.0948 C   0  0  0  0  0  0  0  0  0  0  0  0
   -0.9333   -3.5289    1.8742 C   0  0  0  0  0  0  0  0  0  0  0  0
   -1.3820   -4.9687    1.6577 C   0  0  0  0  0  0  0  0  0  0  0  0
    0.6438   -5.6474   -3.3351 P   0  0  2  0  0  0  0  0  0  0  0  0
    1.3212   -4.0194    1.0315 N   0  0  0  0  0  0  0  0  0  0  0  0
    0.2075   -3.0927    0.9639 C   0  0  0  0  0  0  0  0  0  0  0  0
   -1.9329   -5.2297    0.2827 C   0  0  0  0  0  0  0  0  0  0  0  0
   -1.6858   -6.4685   -0.1337 O   0  0  0  0  0  0  0  0  0  0  0  0
   -2.5613   -4.4324   -0.3702 O   0  0  0  0  0  0  0  0  0  0  0  0
    3.4327   -4.7946    0.1307 C   0  0  0  0  0  0  0  0  0  0  0  0
    4.6674   -4.6107    0.7439 C   0  0  0  0  0  0  0  0  0  0  0  0
    5.5898   -5.6720    0.8006 C   0  0  0  0  0  0  0  0  0  0  0  0
    4.1310   -7.0440   -0.2984 C   0  0  0  0  0  0  0  0  0  0  0  0
    3.1640   -6.0628   -0.4021 C   0  0  0  0  0  0  0  0  0  0  0  0
    1.8721   -6.3787   -1.0884 C   0  0  0  0  0  0  0  0  0  0  0  0
    1.9381   -5.8601   -2.4324 O   0  0  0  0  0  0  0  0  0  0  0  0
    1.0168   -5.3175   -4.7228 O   0  0  0  0  0  0  0  0  0  0  0  0
   -0.1510   -4.5465   -2.5021 O   0  0  0  0  0  0  0  0  0  0  0  0
   -0.2951   -6.9300   -3.1454 O   0  0  0  0  0  0  0  0  0  0  0  0
    7.5041   -4.6997    0.9658 H   0  0  0  0  0  0  0  0  0  0  0  0
    6.8164   -5.1861    2.5038 H   0  0  0  0  0  0  0  0  0  0  0  0
    7.4896   -6.4073    1.4192 H   0  0  0  0  0  0  0  0  0  0  0  0
    4.4173   -2.7583    1.2016 H   0  0  0  0  0  0  0  0  0  0  0  0
    2.8175   -2.7124    0.2502 H   0  0  0  0  0  0  0  0  0  0  0  0
    1.9522   -3.6630   -0.9066 H   0  0  0  0  0  0  0  0  0  0  0  0
   -1.7720   -2.8438    1.7380 H   0  0  0  0  0  0  0  0  0  0  0  0
   -0.6251   -3.4273    2.9181 H   0  0  0  0  0  0  0  0  0  0  0  0
   -2.1818   -5.2095    2.3664 H   0  0  0  0  0  0  0  0  0  0  0  0
   -0.5681   -5.6608    1.8681 H   0  0  0  0  0  0  0  0  0  0  0  0
    1.6952   -4.0376    1.9736 H   0  0  0  0  0  0  0  0  0  0  0  0
    0.4941   -2.0624    1.2237 H   0  0  0  0  0  0  0  0  0  0  0  0
   -0.1376   -3.0607   -0.0725 H   0  0  0  0  0  0  0  0  0  0  0  0
   -2.0646   -6.6073   -1.0146 H   0  0  0  0  0  0  0  0  0  0  0  0
    3.9442   -8.0335   -0.7037 H   0  0  0  0  0  0  0  0  0  0  0  0
    1.7290   -7.4597   -1.1331 H   0  0  0  0  0  0  0  0  0  0  0  0
    1.0347   -5.9424   -0.5436 H   0  0  0  0  0  0  0  0  0  0  0  0
   -1.0217   -4.3020   -2.8420 H   0  0  0  0  0  0  0  0  0  0  0  0
   -0.0917   -7.6637   -3.7415 H   0  0  0  0  0  0  0  0  0  0  0  0
  1 15  2  0
  1 16  1  0
  2 15  1  0
  2 23  1  0
  2 24  1  0
  2 25  1  0
  3 14  1  0
  3 26  1  0
  4 13  1  0
  4  8  1  0
  4 27  1  0
  4 28  1  0
  5  9  1  0
  5  6  1  0
  5 29  1  0
  5 30  1  0
  6 10  1  0
  6 31  1  0
  6 32  1  0
  7 19  1  1
  7 20  2  0
  7 21  1  0
  7 22  1  0
  8  9  1  0
  8 33  1  0
  9 34  1  0
  9 35  1  0
 10 12  2  0
 10 11  1  0
 11 36  1  0
 13 14  2  0
 13 17  1  0
 14 15  1  0
 16 17  2  0
 16 37  1  0
 17 18  1  0
 18 19  1  0
 18 38  1  0
 18 39  1  0
 21 40  1  0
 22 41  1  0
M  END
