
     RDKit          3D

 57 61  0  0  0  0  0  0  0  0999 V2000
    1.3323   -2.5349    0.2307 O   0  0  0  0  0  0  0  0  0  0  0  0
    1.3189   -1.5036   -0.4321 C   0  0  0  0  0  0  0  0  0  0  0  0
    2.3821   -1.0494   -1.1186 N   0  0  0  0  0  0  0  0  0  0  0  0
    3.6530   -1.7404   -1.1858 C   0  0  0  0  0  0  0  0  0  0  0  0
    4.8022   -0.7925   -0.9670 C   0  0  0  0  0  0  0  0  0  0  0  0
    5.0752   -0.2475    0.3219 C   0  0  0  0  0  0  0  0  0  0  0  0
    4.3258   -0.5883    1.4744 C   0  0  0  0  0  0  0  0  0  0  0  0
    4.6216   -0.0415    2.6945 C   0  0  0  0  0  0  0  0  0  0  0  0
    5.6813    0.8766    2.8314 C   0  0  0  0  0  0  0  0  0  0  0  0
    6.4293    1.2210    1.7395 C   0  0  0  0  0  0  0  0  0  0  0  0
    6.1496    0.6718    0.4662 C   0  0  0  0  0  0  0  0  0  0  0  0
    6.9276    1.0204   -0.6637 C   0  0  0  0  0  0  0  0  0  0  0  0
    6.6545    0.4778   -1.8863 C   0  0  0  0  0  0  0  0  0  0  0  0
    5.5849   -0.4291   -2.0319 C   0  0  0  0  0  0  0  0  0  0  0  0
    0.1071   -0.6694   -0.5176 C   0  0  0  0  0  0  0  0  0  0  0  0
    0.2151    0.5060   -1.2115 O   0  0  0  0  0  0  0  0  0  0  0  0
   -0.9897    1.0985   -1.1822 C   0  0  0  0  0  0  0  0  0  0  0  0
   -1.8854    0.3086   -0.4669 C   0  0  0  0  0  0  0  0  0  0  0  0
   -1.1515   -0.8526   -0.0353 C   0  0  0  0  0  0  0  0  0  0  0  0
   -1.7001   -1.9898    0.7548 C   0  0  0  0  0  0  0  0  0  0  0  0
   -3.2136    0.7456   -0.3113 C   0  0  0  0  0  0  0  0  0  0  0  0
   -3.5670    1.9552   -0.8956 C   0  0  0  0  0  0  0  0  0  0  0  0
   -2.6259    2.7139   -1.6058 C   0  0  0  0  0  0  0  0  0  0  0  0
   -1.3145    2.3118   -1.7702 C   0  0  0  0  0  0  0  0  0  0  0  0
   -4.0189   -0.0459    0.4065 O   0  0  0  0  0  0  0  0  0  0  0  0
   -5.4034    0.2664    0.5547 C   0  0  2  0  0  0  0  0  0  0  0  0
   -5.9150   -0.5075    1.7568 C   0  0  0  0  0  0  0  0  0  0  0  0
   -7.4167   -0.2653    1.9269 C   0  0  0  0  0  0  0  0  0  0  0  0
   -8.2035   -0.5603    0.7419 N   0  0  0  0  0  0  0  0  0  0  0  0
   -7.6939    0.1343   -0.4274 C   0  0  0  0  0  0  0  0  0  0  0  0
   -6.2038   -0.1003   -0.6876 C   0  0  0  0  0  0  0  0  0  0  0  0
    2.2919   -0.2163   -1.6784 H   0  0  0  0  0  0  0  0  0  0  0  0
    3.6501   -2.5410   -0.4471 H   0  0  0  0  0  0  0  0  0  0  0  0
    3.7614   -2.2173   -2.1632 H   0  0  0  0  0  0  0  0  0  0  0  0
    5.3771   -0.8444   -3.0109 H   0  0  0  0  0  0  0  0  0  0  0  0
    3.5136   -1.2988    1.4056 H   0  0  0  0  0  0  0  0  0  0  0  0
    4.0366   -0.3170    3.5624 H   0  0  0  0  0  0  0  0  0  0  0  0
    5.9019    1.3030    3.8012 H   0  0  0  0  0  0  0  0  0  0  0  0
    7.2504    1.9213    1.8360 H   0  0  0  0  0  0  0  0  0  0  0  0
    7.7438    1.7221   -0.5426 H   0  0  0  0  0  0  0  0  0  0  0  0
    7.2523    0.7410   -2.7490 H   0  0  0  0  0  0  0  0  0  0  0  0
   -0.5945    2.8995   -2.3218 H   0  0  0  0  0  0  0  0  0  0  0  0
   -2.0478   -1.6475    1.7298 H   0  0  0  0  0  0  0  0  0  0  0  0
   -2.5610   -2.4247    0.2476 H   0  0  0  0  0  0  0  0  0  0  0  0
   -0.9589   -2.7661    0.9075 H   0  0  0  0  0  0  0  0  0  0  0  0
   -4.5731    2.3414   -0.8149 H   0  0  0  0  0  0  0  0  0  0  0  0
   -2.9494    3.6499   -2.0413 H   0  0  0  0  0  0  0  0  0  0  0  0
   -5.5160    1.3387    0.7638 H   0  0  0  0  0  0  0  0  0  0  0  0
   -5.7291   -1.5766    1.6107 H   0  0  0  0  0  0  0  0  0  0  0  0
   -5.3834   -0.2013    2.6614 H   0  0  0  0  0  0  0  0  0  0  0  0
   -5.8840    0.4799   -1.5570 H   0  0  0  0  0  0  0  0  0  0  0  0
   -6.0329   -1.1557   -0.9235 H   0  0  0  0  0  0  0  0  0  0  0  0
   -7.7945   -0.8590    2.7607 H   0  0  0  0  0  0  0  0  0  0  0  0
   -7.5833    0.7841    2.1935 H   0  0  0  0  0  0  0  0  0  0  0  0
   -8.1776   -1.5586    0.5685 H   0  0  0  0  0  0  0  0  0  0  0  0
   -8.2737   -0.1686   -1.3008 H   0  0  0  0  0  0  0  0  0  0  0  0
   -7.8714    1.2069   -0.2925 H   0  0  0  0  0  0  0  0  0  0  0  0
  1  2  2  0
  2  3  1  0
  2 15  1  0
  3  4  1  0
  4  5  1  0
  5  6  1  0
  5 14  2  0
  6  7  2  0
  6 11  1  0
  7  8  1  0
  8  9  2  0
  9 10  1  0
 10 11  2  0
 11 12  1  0
 12 13  2  0
 13 14  1  0
 15 16  1  0
 15 19  2  0
 16 17  1  0
 17 18  2  0
 17 24  1  0
 18 19  1  0
 18 21  1  0
 19 20  1  0
 21 22  2  0
 21 25  1  0
 22 23  1  0
 23 24  2  0
 25 26  1  0
 26 27  1  0
 26 31  1  0
 27 28  1  0
 28 29  1  0
 29 30  1  0
 30 31  1  0
  3 32  1  0
  4 33  1  0
  4 34  1  0
 14 35  1  0
  7 36  1  0
  8 37  1  0
  9 38  1  0
 10 39  1  0
 12 40  1  0
 13 41  1  0
 24 42  1  0
 20 43  1  0
 20 44  1  0
 20 45  1  0
 22 46  1  0
 23 47  1  0
 26 48  1  1
 27 49  1  0
 27 50  1  0
 31 51  1  0
 31 52  1  0
 28 53  1  0
 28 54  1  0
 29 55  1  0
 30 56  1  0
 30 57  1  0
M  END
