
     RDKit          3D

 43 43  0  0  0  0  0  0  0  0999 V2000
    2.2148   -4.3994   -0.2224 O   0  0  0  0  0  0  0  0  0  0  0  0
    2.2355   -3.1860   -0.2451 C   0  0  0  0  0  0  0  0  0  0  0  0
    3.4154   -2.5489   -0.6506 N   0  0  0  0  0  0  0  0  0  0  0  0
    3.6290   -1.2098   -0.6625 C   0  0  0  0  0  0  0  0  0  0  0  0
    4.6019   -0.6898   -1.1554 O   0  0  0  0  0  0  0  0  0  0  0  0
    1.1498   -2.4288    0.0582 N   0  0  0  0  0  0  0  0  0  0  0  0
    1.2462   -1.1316    0.1100 C   0  0  0  0  0  0  0  0  0  0  0  0
    2.5718   -0.4078    0.0773 C   0  0  2  0  0  0  0  0  0  0  0  0
    2.4809    0.9341   -0.3962 N   0  0  0  0  0  0  0  0  0  0  0  0
    3.1582    1.9559    0.2011 C   0  0  0  0  0  0  0  0  0  0  0  0
    3.1469    3.2442   -0.5864 C   0  0  0  0  0  0  0  0  0  0  0  0
    3.7860    4.4106    0.1430 C   0  0  0  0  0  0  0  0  0  0  0  0
    3.7062    1.8271    1.2786 O   0  0  0  0  0  0  0  0  0  0  0  0
    0.1746   -0.3825    0.2604 N   0  0  0  0  0  0  0  0  0  0  0  0
   -1.1717   -0.9040    0.3658 C   0  0  0  0  0  0  0  0  0  0  0  0
   -2.1638    0.1890   -0.0282 C   0  0  2  0  0  0  0  0  0  0  0  0
   -1.9020    1.3765    0.6892 O   0  0  0  0  0  0  0  0  0  0  0  0
   -3.6171   -0.2827    0.1727 C   0  0  2  0  0  0  0  0  0  0  0  0
   -3.7774   -1.6567   -0.0987 O   0  0  0  0  0  0  0  0  0  0  0  0
   -4.6334    0.5324   -0.6512 C   0  0  2  0  0  0  0  0  0  0  0  0
   -4.3627    1.9110   -0.6829 O   0  0  0  0  0  0  0  0  0  0  0  0
   -6.0482    0.2436   -0.1730 C   0  0  0  0  0  0  0  0  0  0  0  0
   -6.9618    0.8377   -1.0644 O   0  0  0  0  0  0  0  0  0  0  0  0
    4.1449   -3.1438   -1.0244 H   0  0  0  0  0  0  0  0  0  0  0  0
    2.9161   -0.3725    1.1204 H   0  0  0  0  0  0  0  0  0  0  0  0
    0.3025    0.6141    0.3701 H   0  0  0  0  0  0  0  0  0  0  0  0
    2.1740    1.0666   -1.3492 H   0  0  0  0  0  0  0  0  0  0  0  0
    3.6641    3.0569   -1.5326 H   0  0  0  0  0  0  0  0  0  0  0  0
    2.1150    3.4794   -0.8607 H   0  0  0  0  0  0  0  0  0  0  0  0
    3.7659    5.2975   -0.4890 H   0  0  0  0  0  0  0  0  0  0  0  0
    3.2564    4.6492    1.0646 H   0  0  0  0  0  0  0  0  0  0  0  0
    4.8259    4.2078    0.3951 H   0  0  0  0  0  0  0  0  0  0  0  0
   -1.2584   -1.7667   -0.2902 H   0  0  0  0  0  0  0  0  0  0  0  0
   -1.3611   -1.2494    1.3885 H   0  0  0  0  0  0  0  0  0  0  0  0
   -1.9945    0.4389   -1.0811 H   0  0  0  0  0  0  0  0  0  0  0  0
   -2.0375    1.2071    1.6291 H   0  0  0  0  0  0  0  0  0  0  0  0
   -3.8460   -0.1744    1.2418 H   0  0  0  0  0  0  0  0  0  0  0  0
   -3.6708   -1.8032   -1.0458 H   0  0  0  0  0  0  0  0  0  0  0  0
   -4.5417    0.2005   -1.6938 H   0  0  0  0  0  0  0  0  0  0  0  0
   -4.3060    2.2412    0.2197 H   0  0  0  0  0  0  0  0  0  0  0  0
   -6.1909   -0.8410   -0.1108 H   0  0  0  0  0  0  0  0  0  0  0  0
   -6.1624    0.6377    0.8487 H   0  0  0  0  0  0  0  0  0  0  0  0
   -7.8497    0.6065   -0.7785 H   0  0  0  0  0  0  0  0  0  0  0  0
  1  2  2  0
  2  3  1  0
  2  6  1  0
  3  4  1  0
  4  5  2  0
  4  8  1  0
  6  7  2  0
  7  8  1  0
  7 14  1  0
  8  9  1  0
  9 10  1  0
 10 11  1  0
 10 13  2  0
 11 12  1  0
 14 15  1  0
 15 16  1  0
 16 17  1  0
 16 18  1  0
 18 19  1  0
 18 20  1  0
 20 21  1  0
 20 22  1  0
 22 23  1  0
  3 24  1  0
  8 25  1  1
 14 26  1  0
  9 27  1  0
 11 28  1  0
 11 29  1  0
 12 30  1  0
 12 31  1  0
 12 32  1  0
 15 33  1  0
 15 34  1  0
 16 35  1  6
 17 36  1  0
 18 37  1  1
 19 38  1  0
 20 39  1  6
 21 40  1  0
 22 41  1  0
 22 42  1  0
 23 43  1  0
M  END
