
     RDKit          3D

 86 91  0  0  0  0  0  0  0  0999 V2000
   -8.0139   -1.4773    1.2033 Cl  0  0  0  0  0  0  0  0  0  0  0  0
   -6.3306   -1.8171    0.9915 C   0  0  0  0  0  0  0  0  0  0  0  0
   -5.3848   -0.8114    1.1921 C   0  0  0  0  0  0  0  0  0  0  0  0
   -5.7761    0.5943    1.5492 C   0  0  0  0  0  0  0  0  0  0  0  0
   -6.4001    1.2382    0.4128 N   0  0  0  0  0  0  0  0  0  0  0  0
   -6.9917    2.5207    0.7332 C   0  0  0  0  0  0  0  0  0  0  0  0
   -7.7405    3.0788   -0.4470 C   0  0  0  0  0  0  0  0  0  0  0  0
   -8.6455    2.2782   -1.1439 C   0  0  0  0  0  0  0  0  0  0  0  0
   -9.3569    2.7880   -2.2196 C   0  0  0  0  0  0  0  0  0  0  0  0
   -9.1710    4.1071   -2.6202 C   0  0  0  0  0  0  0  0  0  0  0  0
   -8.2691    4.9090   -1.9360 C   0  0  0  0  0  0  0  0  0  0  0  0
   -7.5575    4.3945   -0.8578 C   0  0  0  0  0  0  0  0  0  0  0  0
   -4.0493   -1.1410    1.0148 C   0  0  0  0  0  0  0  0  0  0  0  0
   -5.9601   -3.1083    0.6458 C   0  0  0  0  0  0  0  0  0  0  0  0
   -4.6221   -3.4173    0.4782 C   0  0  0  0  0  0  0  0  0  0  0  0
   -3.6500   -2.4321    0.6585 C   0  0  0  0  0  0  0  0  0  0  0  0
   -2.2734   -2.7331    0.4775 C   0  0  0  0  0  0  0  0  0  0  0  0
   -1.1053   -2.9923    0.3206 C   0  0  0  0  0  0  0  0  0  0  0  0
    0.2728   -3.2706    0.1293 C   0  0  0  0  0  0  0  0  0  0  0  0
    1.1805   -2.2222   -0.0246 C   0  0  0  0  0  0  0  0  0  0  0  0
    0.7574   -4.5827    0.0915 C   0  0  0  0  0  0  0  0  0  0  0  0
   -0.3352   -5.9030    0.2831 Cl  0  0  0  0  0  0  0  0  0  0  0  0
    2.1044   -4.8322   -0.0977 C   0  0  0  0  0  0  0  0  0  0  0  0
    2.9866   -3.7748   -0.2526 C   0  0  0  0  0  0  0  0  0  0  0  0
    2.5393   -2.4544   -0.2162 C   0  0  0  0  0  0  0  0  0  0  0  0
    3.4473   -1.3166   -0.3909 C   0  0  0  0  0  0  0  0  0  0  0  0
    2.9819   -0.1870   -0.9053 N   0  0  0  0  0  0  0  0  0  0  0  0
    4.8133   -1.1770   -0.0614 C   0  0  0  0  0  0  0  0  0  0  0  0
    5.8228   -2.0778    0.5797 C   0  0  0  0  0  0  0  0  0  0  0  0
    7.1661   -1.5175    0.4227 N   0  0  0  0  0  0  0  0  0  0  0  0
    8.1395   -2.1717   -0.7407 S   0  0  1  0  0  0  0  0  0  0  0  0
    9.4237   -1.4949   -0.6445 O   0  0  0  0  0  0  0  0  0  0  0  0
    8.0855   -3.6168   -0.5758 O   0  0  0  0  0  0  0  0  0  0  0  0
    7.4316   -1.7934   -2.3300 C   0  0  0  0  0  0  0  0  0  0  0  0
    7.2682   -0.0923    0.7297 C   0  0  0  0  0  0  0  0  0  0  0  0
    6.4297    0.7911   -0.1966 C   0  0  0  0  0  0  0  0  0  0  0  0
    5.1169    0.1229   -0.3971 C   0  0  0  0  0  0  0  0  0  0  0  0
    3.9978    0.6641   -0.9120 N   0  0  0  0  0  0  0  0  0  0  0  0
    3.8020    2.0195   -1.3784 C   0  0  0  0  0  0  0  0  0  0  0  0
    3.1196    2.8936   -0.3352 C   0  0  0  0  0  0  0  0  0  0  0  0
    2.9209    4.3060   -0.8667 C   0  0  0  0  0  0  0  0  0  0  0  0
    2.1360    5.1460    0.0159 N   0  0  0  0  0  0  0  0  0  0  0  0
    1.7829    6.3957   -0.6338 C   0  0  0  0  0  0  0  0  0  0  0  0
    0.9230    7.2416    0.2842 C   0  0  0  0  0  0  0  0  0  0  0  0
    1.5754    7.5026    1.5073 O   0  0  0  0  0  0  0  0  0  0  0  0
    1.9241    6.2976    2.1511 C   0  0  0  0  0  0  0  0  0  0  0  0
    2.8023    5.4233    1.2764 C   0  0  0  0  0  0  0  0  0  0  0  0
   -6.4977    0.5748    2.3706 H   0  0  0  0  0  0  0  0  0  0  0  0
   -4.8927    1.1284    1.9262 H   0  0  0  0  0  0  0  0  0  0  0  0
   -5.7153    1.3557   -0.3244 H   0  0  0  0  0  0  0  0  0  0  0  0
   -7.6937    2.3630    1.5592 H   0  0  0  0  0  0  0  0  0  0  0  0
   -6.2623    3.2621    1.0935 H   0  0  0  0  0  0  0  0  0  0  0  0
   -8.7853    1.2485   -0.8378 H   0  0  0  0  0  0  0  0  0  0  0  0
  -10.0593    2.1558   -2.7478 H   0  0  0  0  0  0  0  0  0  0  0  0
   -9.7242    4.5041   -3.4617 H   0  0  0  0  0  0  0  0  0  0  0  0
   -8.1132    5.9355   -2.2426 H   0  0  0  0  0  0  0  0  0  0  0  0
   -6.8491    5.0254   -0.3337 H   0  0  0  0  0  0  0  0  0  0  0  0
   -3.2978   -0.3741    1.1559 H   0  0  0  0  0  0  0  0  0  0  0  0
   -6.7128   -3.8721    0.5067 H   0  0  0  0  0  0  0  0  0  0  0  0
   -4.3323   -4.4230    0.2061 H   0  0  0  0  0  0  0  0  0  0  0  0
    0.8093   -1.2070    0.0145 H   0  0  0  0  0  0  0  0  0  0  0  0
    2.4680   -5.8498   -0.1359 H   0  0  0  0  0  0  0  0  0  0  0  0
    4.0285   -4.0024   -0.4283 H   0  0  0  0  0  0  0  0  0  0  0  0
    5.6282   -2.1868    1.6508 H   0  0  0  0  0  0  0  0  0  0  0  0
    5.8082   -3.0870    0.1728 H   0  0  0  0  0  0  0  0  0  0  0  0
    7.4283   -0.7175   -2.4834 H   0  0  0  0  0  0  0  0  0  0  0  0
    8.0509   -2.2704   -3.0882 H   0  0  0  0  0  0  0  0  0  0  0  0
    6.4176   -2.1828   -2.3882 H   0  0  0  0  0  0  0  0  0  0  0  0
    6.9123    0.0205    1.7555 H   0  0  0  0  0  0  0  0  0  0  0  0
    8.3107    0.2129    0.7230 H   0  0  0  0  0  0  0  0  0  0  0  0
    6.3139    1.7748    0.2644 H   0  0  0  0  0  0  0  0  0  0  0  0
    6.9357    0.9601   -1.1518 H   0  0  0  0  0  0  0  0  0  0  0  0
    4.7789    2.4251   -1.6434 H   0  0  0  0  0  0  0  0  0  0  0  0
    3.2126    1.9741   -2.2945 H   0  0  0  0  0  0  0  0  0  0  0  0
    2.1508    2.4624   -0.0721 H   0  0  0  0  0  0  0  0  0  0  0  0
    3.7305    2.8984    0.5709 H   0  0  0  0  0  0  0  0  0  0  0  0
    3.9040    4.7582   -1.0874 H   0  0  0  0  0  0  0  0  0  0  0  0
    2.3896    4.2473   -1.8219 H   0  0  0  0  0  0  0  0  0  0  0  0
    2.6789    6.9686   -0.9319 H   0  0  0  0  0  0  0  0  0  0  0  0
    1.2225    6.1824   -1.5476 H   0  0  0  0  0  0  0  0  0  0  0  0
    0.7057    8.2026   -0.1842 H   0  0  0  0  0  0  0  0  0  0  0  0
   -0.0329    6.7283    0.4617 H   0  0  0  0  0  0  0  0  0  0  0  0
    2.4535    6.5581    3.0688 H   0  0  0  0  0  0  0  0  0  0  0  0
    1.0203    5.7374    2.4305 H   0  0  0  0  0  0  0  0  0  0  0  0
    2.9946    4.4920    1.8126 H   0  0  0  0  0  0  0  0  0  0  0  0
    3.7794    5.9137    1.1194 H   0  0  0  0  0  0  0  0  0  0  0  0
 45 46  1  0
 45 44  1  0
 46 47  1  0
 44 43  1  0
 47 42  1  0
 43 42  1  0
 42 41  1  0
 41 40  1  0
 40 39  1  0
 39 38  1  0
  1  2  1  0
 38 27  1  0
 38 37  1  0
  4  3  1  0
  4  5  1  0
  2  3  2  0
  2 14  1  0
 27 26  2  0
 36 37  1  0
 36 35  1  0
  3 13  1  0
 37 28  2  0
 14 15  2  0
 13 16  2  0
 15 16  1  0
 16 17  1  0
 35 30  1  0
 26 28  1  0
 26 25  1  0
 17 18  3  0
 28 29  1  0
 20 25  2  0
 20 19  1  0
 18 19  1  0
 25 24  1  0
 19 21  2  0
 29 30  1  0
  5  6  1  0
 24 23  2  0
 21 23  1  0
 21 22  1  0
 30 31  1  0
 31 34  1  6
  6  7  1  0
 31 32  2  0
 31 33  2  0
  7  8  2  0
  7 12  1  0
  8  9  1  0
 12 11  2  0
  9 10  2  0
 11 10  1  0
  4 48  1  0
  4 49  1  0
  5 50  1  0
  6 51  1  0
  6 52  1  0
  8 53  1  0
  9 54  1  0
 10 55  1  0
 11 56  1  0
 12 57  1  0
 13 58  1  0
 14 59  1  0
 15 60  1  0
 20 61  1  0
 23 62  1  0
 24 63  1  0
 29 64  1  0
 29 65  1  0
 34 66  1  0
 34 67  1  0
 34 68  1  0
 35 69  1  0
 35 70  1  0
 36 71  1  0
 36 72  1  0
 39 73  1  0
 39 74  1  0
 40 75  1  0
 40 76  1  0
 41 77  1  0
 41 78  1  0
 43 79  1  0
 43 80  1  0
 44 81  1  0
 44 82  1  0
 46 83  1  0
 46 84  1  0
 47 85  1  0
 47 86  1  0
M  END
