
     RDKit          3D

 92 97  0  0  0  0  0  0  0  0999 V2000
   -1.7646    4.1025   -1.6873 N   0  0  0  0  0  0  0  0  0  0  0  0
   -2.3494    5.2408   -2.0867 C   0  0  0  0  0  0  0  0  0  0  0  0
   -3.6221    5.4969   -2.1573 N   0  0  0  0  0  0  0  0  0  0  0  0
   -4.4511    4.4939   -1.7636 C   0  0  0  0  0  0  0  0  0  0  0  0
   -3.9736    3.2513   -1.3074 C   0  0  0  0  0  0  0  0  0  0  0  0
   -2.5392    3.1098   -1.3105 C   0  0  0  0  0  0  0  0  0  0  0  0
    8.5790    0.8114    4.5576 C   0  0  0  0  0  0  0  0  0  0  0  0
    8.9814    2.7789    3.0694 C   0  0  0  0  0  0  0  0  0  0  0  0
   10.5625    0.8481    3.0391 C   0  0  0  0  0  0  0  0  0  0  0  0
   -5.9681   -0.2163    0.1660 O   0  0  0  0  0  0  0  0  0  0  0  0
    6.9952   -3.9137   -1.2046 C   0  0  0  0  0  0  0  0  0  0  0  0
    8.1286   -4.0068   -1.9901 C   0  0  0  0  0  0  0  0  0  0  0  0
    6.8165   -2.8606   -0.3157 C   0  0  0  0  0  0  0  0  0  0  0  0
    1.7152    2.0264   -0.5348 C   0  0  0  0  0  0  0  0  0  0  0  0
    0.9914   -0.2026   -1.0272 C   0  0  0  0  0  0  0  0  0  0  0  0
    0.4027    2.4685   -0.5887 C   0  0  0  0  0  0  0  0  0  0  0  0
   -0.3157    0.2404   -1.1058 C   0  0  0  0  0  0  0  0  0  0  0  0
   -6.7041    3.7180   -1.4055 C   0  0  0  0  0  0  0  0  0  0  0  0
   -5.8446    4.6985   -1.8073 C   0  0  0  0  0  0  0  0  0  0  0  0
    8.9481   -1.9577   -1.0295 C   0  0  0  0  0  0  0  0  0  0  0  0
    6.9372    0.9600    1.7422 C   0  0  0  0  0  0  0  0  0  0  0  0
   -4.8669    2.2485   -0.8856 C   0  0  0  0  0  0  0  0  0  0  0  0
   -8.3613   -0.3362    0.3768 C   0  0  0  0  0  0  0  0  0  0  0  0
   -8.2423   -1.8414    0.5622 C   0  0  0  0  0  0  0  0  0  0  0  0
  -10.5003   -4.3795    2.1314 C   0  0  0  0  0  0  0  0  0  0  0  0
  -11.8042   -3.0382    0.6780 C   0  0  0  0  0  0  0  0  0  0  0  0
   -9.2258   -3.7837    1.5459 C   0  0  0  0  0  0  0  0  0  0  0  0
  -10.5376   -2.4294    0.0862 C   0  0  0  0  0  0  0  0  0  0  0  0
    8.6758   -0.4396    1.4422 N   0  0  0  0  0  0  0  0  0  0  0  0
   -1.9841    1.9381   -0.9299 N   0  0  0  0  0  0  0  0  0  0  0  0
    4.2862    0.5351    0.1827 C   0  0  0  0  0  0  0  0  0  0  0  0
    9.1319   -3.0297   -1.9085 C   0  0  0  0  0  0  0  0  0  0  0  0
    2.0257    0.6865   -0.7501 C   0  0  0  0  0  0  0  0  0  0  0  0
   -0.6304    1.5808   -0.8856 C   0  0  0  0  0  0  0  0  0  0  0  0
   -6.2270    2.4738   -0.9308 C   0  0  0  0  0  0  0  0  0  0  0  0
    7.8038   -1.8835   -0.2492 C   0  0  0  0  0  0  0  0  0  0  0  0
    8.2517    0.6034    2.1192 C   0  0  0  0  0  0  0  0  0  0  0  0
    6.5948    0.0428    0.7757 C   0  0  0  0  0  0  0  0  0  0  0  0
  -11.6230   -4.3764    1.2102 N   0  0  0  0  0  0  0  0  0  0  0  0
   -9.4665   -2.4294    1.0712 N   0  0  0  0  0  0  0  0  0  0  0  0
    7.6572   -0.7921    0.6355 N   0  0  0  0  0  0  0  0  0  0  0  0
   -1.6682    6.0296   -2.3896 H   0  0  0  0  0  0  0  0  0  0  0  0
  -11.4867   -6.3840    0.6694 H   0  0  0  0  0  0  0  0  0  0  0  0
  -12.4501   -5.3854   -0.4147 H   0  0  0  0  0  0  0  0  0  0  0  0
  -10.6889   -5.3245   -0.4924 H   0  0  0  0  0  0  0  0  0  0  0  0
    7.5299    1.0791    4.6939 H   0  0  0  0  0  0  0  0  0  0  0  0
    8.6690   -0.2692    4.6809 H   0  0  0  0  0  0  0  0  0  0  0  0
    9.1519    1.2903    5.3546 H   0  0  0  0  0  0  0  0  0  0  0  0
    9.5969    3.2596    3.8322 H   0  0  0  0  0  0  0  0  0  0  0  0
    9.3177    3.1335    2.0936 H   0  0  0  0  0  0  0  0  0  0  0  0
    7.9554    3.1210    3.2157 H   0  0  0  0  0  0  0  0  0  0  0  0
   10.6935   -0.2293    3.1371 H   0  0  0  0  0  0  0  0  0  0  0  0
   10.9692    1.1470    2.0715 H   0  0  0  0  0  0  0  0  0  0  0  0
   11.1579    1.3292    3.8172 H   0  0  0  0  0  0  0  0  0  0  0  0
   10.4742   -3.9978   -3.0841 H   0  0  0  0  0  0  0  0  0  0  0  0
   11.0490   -2.5778   -2.4105 H   0  0  0  0  0  0  0  0  0  0  0  0
    6.2393   -4.6850   -1.2721 H   0  0  0  0  0  0  0  0  0  0  0  0
    8.2491   -4.8409   -2.6705 H   0  0  0  0  0  0  0  0  0  0  0  0
    5.9476   -2.8262    0.3276 H   0  0  0  0  0  0  0  0  0  0  0  0
    2.4955    2.7454   -0.3322 H   0  0  0  0  0  0  0  0  0  0  0  0
    1.2070   -1.2510   -1.1924 H   0  0  0  0  0  0  0  0  0  0  0  0
    0.1961    3.5115   -0.4109 H   0  0  0  0  0  0  0  0  0  0  0  0
   -1.1017   -0.4699   -1.3332 H   0  0  0  0  0  0  0  0  0  0  0  0
   -7.7722    3.8962   -1.4455 H   0  0  0  0  0  0  0  0  0  0  0  0
   -6.2207    5.6480   -2.1644 H   0  0  0  0  0  0  0  0  0  0  0  0
    9.6982   -1.1807   -0.9534 H   0  0  0  0  0  0  0  0  0  0  0  0
    6.3423    1.7751    2.1107 H   0  0  0  0  0  0  0  0  0  0  0  0
   -4.5088    1.3026   -0.5131 H   0  0  0  0  0  0  0  0  0  0  0  0
   -9.1175   -0.0866   -0.3707 H   0  0  0  0  0  0  0  0  0  0  0  0
   -8.6987    0.1183    1.3147 H   0  0  0  0  0  0  0  0  0  0  0  0
   -7.9307   -2.3131   -0.3849 H   0  0  0  0  0  0  0  0  0  0  0  0
   -7.4511   -2.0437    1.2862 H   0  0  0  0  0  0  0  0  0  0  0  0
  -10.3096   -5.4012    2.4675 H   0  0  0  0  0  0  0  0  0  0  0  0
  -10.7811   -3.7978    3.0162 H   0  0  0  0  0  0  0  0  0  0  0  0
  -12.1498   -2.3902    1.4909 H   0  0  0  0  0  0  0  0  0  0  0  0
  -12.5920   -3.0518   -0.0785 H   0  0  0  0  0  0  0  0  0  0  0  0
   -8.4580   -3.7559    2.3234 H   0  0  0  0  0  0  0  0  0  0  0  0
   -8.8358   -4.4298    0.7402 H   0  0  0  0  0  0  0  0  0  0  0  0
  -10.2369   -2.9714   -0.8279 H   0  0  0  0  0  0  0  0  0  0  0  0
  -10.7660   -1.4062   -0.2183 H   0  0  0  0  0  0  0  0  0  0  0  0
   -8.1509    1.8812   -0.6383 H   0  0  0  0  0  0  0  0  0  0  0  0
    3.5166   -0.5874   -1.3467 H   0  0  0  0  0  0  0  0  0  0  0  0
   -2.6155    1.1644   -0.8038 H   0  0  0  0  0  0  0  0  0  0  0  0
    5.5839   -0.6945   -0.8400 H   0  0  0  0  0  0  0  0  0  0  0  0
   -7.2006    1.5582   -0.5367 N   0  0  0  0  0  0  0  0  0  0  0  0
    3.3439    0.2066   -0.7488 N   0  0  0  0  0  0  0  0  0  0  0  0
   -7.0503    0.3140   -0.0061 C   0  0  0  0  0  0  0  0  0  0  0  0
  -11.5432   -5.4041    0.1920 C   0  0  0  0  0  0  0  0  0  0  0  0
    4.1003    1.3140    1.0967 O   0  0  0  0  0  0  0  0  0  0  0  0
    5.4820   -0.1072   -0.0248 N   0  0  0  0  0  0  0  0  0  0  0  0
    9.0966    1.2557    3.1827 C   0  0  1  0  0  0  0  0  0  0  0  0
   10.2385   -3.0894   -2.7191 N   0  0  0  0  0  0  0  0  0  0  0  0
  1  2  2  0
  1  6  1  0
  2  3  1  0
  3  4  2  0
  4  5  1  0
  4 19  1  0
  5  6  2  0
  5 22  1  0
  6 30  1  0
 88 39  1  0
 91  7  1  1
  8 91  1  0
  9 91  1  0
 92 32  1  0
 10 87  2  0
 89 31  2  0
 11 12  2  0
 11 13  1  0
 12 32  1  0
 13 36  2  0
 14 16  2  0
 14 33  1  0
 15 17  1  0
 15 33  2  0
 16 34  1  0
 17 34  2  0
 18 19  2  0
 18 35  1  0
 20 32  2  0
 20 36  1  0
 21 37  1  0
 21 38  2  0
 22 35  2  0
 23 24  1  0
 23 87  1  0
 24 40  1  0
 25 27  1  0
 25 39  1  0
 26 28  1  0
 26 39  1  0
 27 40  1  0
 28 40  1  0
 29 37  2  0
 29 41  1  0
 85 87  1  0
 85 35  1  0
 86 31  1  0
 86 33  1  0
 90 31  1  0
 90 38  1  0
 30 34  1  0
 36 41  1  0
 37 91  1  0
 38 41  1  0
  2 42  1  0
 88 43  1  0
 88 44  1  0
 88 45  1  0
  7 46  1  0
  7 47  1  0
  7 48  1  0
  8 49  1  0
  8 50  1  0
  8 51  1  0
  9 52  1  0
  9 53  1  0
  9 54  1  0
 92 55  1  0
 92 56  1  0
 11 57  1  0
 12 58  1  0
 13 59  1  0
 14 60  1  0
 15 61  1  0
 16 62  1  0
 17 63  1  0
 18 64  1  0
 19 65  1  0
 20 66  1  0
 21 67  1  0
 22 68  1  0
 23 69  1  0
 23 70  1  0
 24 71  1  0
 24 72  1  0
 25 73  1  0
 25 74  1  0
 26 75  1  0
 26 76  1  0
 27 77  1  0
 27 78  1  0
 28 79  1  0
 28 80  1  0
 85 81  1  0
 86 82  1  0
 30 83  1  0
 90 84  1  0
M  END
