
     RDKit          3D

 54 56  0  0  0  0  0  0  0  0999 V2000
   -1.4025   -1.1956    0.9279 C   0  0  0  0  0  0  0  0  0  0  0  0
   -0.1617   -0.4048    0.6217 C   0  0  0  0  0  0  0  0  0  0  0  0
    0.6388    0.1319    1.5594 C   0  0  0  0  0  0  0  0  0  0  0  0
    0.4918    0.0907    3.0144 C   0  0  0  0  0  0  0  0  0  0  0  0
   -0.7402    0.1596    3.6725 C   0  0  0  0  0  0  0  0  0  0  0  0
   -0.8149    0.1292    5.0544 C   0  0  0  0  0  0  0  0  0  0  0  0
    0.3444    0.0363    5.8224 C   0  0  0  0  0  0  0  0  0  0  0  0
    0.3159   -0.0055    7.3021 C   0  0  0  0  0  0  0  0  0  0  0  0
   -0.9127    0.0329    7.8010 O   0  0  0  0  0  0  0  0  0  0  0  0
    1.3054   -0.0708    7.9931 O   0  0  0  0  0  0  0  0  0  0  0  0
    1.5805   -0.0055    5.1776 C   0  0  0  0  0  0  0  0  0  0  0  0
    1.6504    0.0319    3.7992 C   0  0  0  0  0  0  0  0  0  0  0  0
    0.1784   -0.2429   -0.8097 C   0  0  0  0  0  0  0  0  0  0  0  0
    1.4972   -0.1483   -1.2600 C   0  0  0  0  0  0  0  0  0  0  0  0
    1.7626   -0.0019   -2.6060 C   0  0  0  0  0  0  0  0  0  0  0  0
    0.7504    0.0572   -3.5696 C   0  0  0  0  0  0  0  0  0  0  0  0
   -0.5785   -0.0139   -3.1320 C   0  0  0  0  0  0  0  0  0  0  0  0
   -0.8278   -0.1829   -1.7682 C   0  0  0  0  0  0  0  0  0  0  0  0
   -1.7709    0.0429   -4.0818 C   0  0  1  0  0  0  0  0  0  0  0  0
   -2.3722   -1.3641   -4.2060 C   0  0  0  0  0  0  0  0  0  0  0  0
   -2.8512    0.9985   -3.5627 C   0  0  0  0  0  0  0  0  0  0  0  0
   -1.3304    0.5482   -5.4583 C   0  0  0  0  0  0  0  0  0  0  0  0
   -0.0556   -0.1155   -5.9358 C   0  0  0  0  0  0  0  0  0  0  0  0
    1.1382    0.2115   -5.0346 C   0  0  1  0  0  0  0  0  0  0  0  0
    1.5979    1.6552   -5.2799 C   0  0  0  0  0  0  0  0  0  0  0  0
    2.2823   -0.7382   -5.4095 C   0  0  0  0  0  0  0  0  0  0  0  0
   -1.3616   -1.6535    1.9144 H   0  0  0  0  0  0  0  0  0  0  0  0
   -2.3021   -0.5762    0.8939 H   0  0  0  0  0  0  0  0  0  0  0  0
   -1.5379   -1.9924    0.1970 H   0  0  0  0  0  0  0  0  0  0  0  0
    1.5333    0.6484    1.2260 H   0  0  0  0  0  0  0  0  0  0  0  0
   -1.6530    0.2724    3.1048 H   0  0  0  0  0  0  0  0  0  0  0  0
   -1.7873    0.1912    5.5235 H   0  0  0  0  0  0  0  0  0  0  0  0
   -0.8752    0.0043    8.7684 H   0  0  0  0  0  0  0  0  0  0  0  0
    2.4919   -0.0660    5.7576 H   0  0  0  0  0  0  0  0  0  0  0  0
    2.6192    0.0044    3.3152 H   0  0  0  0  0  0  0  0  0  0  0  0
    2.3238   -0.2229   -0.5650 H   0  0  0  0  0  0  0  0  0  0  0  0
    2.7982    0.0552   -2.9173 H   0  0  0  0  0  0  0  0  0  0  0  0
   -1.8567   -0.2569   -1.4393 H   0  0  0  0  0  0  0  0  0  0  0  0
   -2.7098   -1.7363   -3.2374 H   0  0  0  0  0  0  0  0  0  0  0  0
   -3.2353   -1.3534   -4.8761 H   0  0  0  0  0  0  0  0  0  0  0  0
   -1.6514   -2.0816   -4.6012 H   0  0  0  0  0  0  0  0  0  0  0  0
   -3.3145    0.6552   -2.6369 H   0  0  0  0  0  0  0  0  0  0  0  0
   -2.4437    1.9956   -3.3864 H   0  0  0  0  0  0  0  0  0  0  0  0
   -3.6482    1.0909   -4.3039 H   0  0  0  0  0  0  0  0  0  0  0  0
   -1.1869    1.6326   -5.4147 H   0  0  0  0  0  0  0  0  0  0  0  0
   -2.1409    0.3814   -6.1733 H   0  0  0  0  0  0  0  0  0  0  0  0
    0.1762    0.1945   -6.9587 H   0  0  0  0  0  0  0  0  0  0  0  0
   -0.1947   -1.2008   -5.9724 H   0  0  0  0  0  0  0  0  0  0  0  0
    2.4460    1.9159   -4.6445 H   0  0  0  0  0  0  0  0  0  0  0  0
    1.9080    1.7814   -6.3199 H   0  0  0  0  0  0  0  0  0  0  0  0
    0.8059    2.3779   -5.0781 H   0  0  0  0  0  0  0  0  0  0  0  0
    3.2269   -0.4683   -4.9358 H   0  0  0  0  0  0  0  0  0  0  0  0
    2.0493   -1.7689   -5.1369 H   0  0  0  0  0  0  0  0  0  0  0  0
    2.4450   -0.7054   -6.4890 H   0  0  0  0  0  0  0  0  0  0  0  0
  1  2  1  0
  1 27  1  0
  1 28  1  0
  1 29  1  0
  2  3  2  0
  2 13  1  0
  3  4  1  0
  3 30  1  0
  4  5  2  0
  4 12  1  0
  5  6  1  0
  5 31  1  0
  6  7  2  0
  6 32  1  0
  7  8  1  0
  7 11  1  0
  8  9  1  0
  8 10  2  0
  9 33  1  0
 11 12  2  0
 11 34  1  0
 12 35  1  0
 13 14  2  0
 13 18  1  0
 14 15  1  0
 14 36  1  0
 15 16  2  0
 15 37  1  0
 16 17  1  0
 16 24  1  0
 17 18  2  0
 17 19  1  0
 18 38  1  0
 19 20  1  6
 19 21  1  0
 19 22  1  0
 20 39  1  0
 20 40  1  0
 20 41  1  0
 21 42  1  0
 21 43  1  0
 21 44  1  0
 22 23  1  0
 22 45  1  0
 22 46  1  0
 23 24  1  0
 23 47  1  0
 23 48  1  0
 24 25  1  1
 24 26  1  0
 25 49  1  0
 25 50  1  0
 25 51  1  0
 26 52  1  0
 26 53  1  0
 26 54  1  0
M  END
