
     RDKit          3D

 40 42  0  0  0  0  0  0  0  0999 V2000
    2.7871   -1.7115   -0.2967 C   0  0  0  0  0  0  0  0  0  0  0  0
   -3.6865   -0.5152   -0.3553 C   0  0  0  0  0  0  0  0  0  0  0  0
    2.9947   -0.3068   -0.4820 C   0  0  0  0  0  0  0  0  0  0  0  0
    2.1591    0.6248    0.1899 C   0  0  0  0  0  0  0  0  0  0  0  0
    3.4809   -3.9106   -0.8438 C   0  0  0  0  0  0  0  0  0  0  0  0
    4.0217    0.1585   -1.3320 C   0  0  0  0  0  0  0  0  0  0  0  0
    4.2191    1.4990   -1.5238 C   0  0  0  0  0  0  0  0  0  0  0  0
    3.3950    2.4242   -0.8661 C   0  0  0  0  0  0  0  0  0  0  0  0
    2.3951    2.0014   -0.0311 C   0  0  0  0  0  0  0  0  0  0  0  0
   -1.7651    0.9206   -0.0852 C   0  0  0  0  0  0  0  0  0  0  0  0
   -2.9411    0.3780    0.4072 C   0  0  0  0  0  0  0  0  0  0  0  0
   -1.0054    1.8108    0.7039 N   0  0  0  0  0  0  0  0  0  0  0  0
    1.7810   -2.1636    0.5229 C   0  0  0  0  0  0  0  0  0  0  0  0
    1.1277    0.1066    1.0329 C   0  0  0  0  0  0  0  0  0  0  0  0
   -3.2560   -0.8560   -1.6366 C   0  0  0  0  0  0  0  0  0  0  0  0
   -2.0912   -0.3114   -2.1492 C   0  0  0  0  0  0  0  0  0  0  0  0
   -1.3597    0.5577   -1.3660 C   0  0  0  0  0  0  0  0  0  0  0  0
    0.9544   -1.2447    1.1792 C   0  0  0  0  0  0  0  0  0  0  0  0
   -0.2343    1.0831   -1.8498 F   0  0  0  0  0  0  0  0  0  0  0  0
    3.6188   -2.5039   -0.9668 O   0  0  0  0  0  0  0  0  0  0  0  0
    0.6627    2.2790    2.4904 O   0  0  0  0  0  0  0  0  0  0  0  0
   -0.8676    0.3071    2.6990 O   0  0  0  0  0  0  0  0  0  0  0  0
   -5.3188   -0.7895    1.3482 O   0  0  0  0  0  0  0  0  0  0  0  0
   -5.5776   -1.8782   -0.5810 O   0  0  0  0  0  0  0  0  0  0  0  0
   -0.0171    1.1504    1.8797 S   0  0  1  0  0  0  0  0  0  0  0  0
    2.5029   -4.2492   -1.1913 H   0  0  0  0  0  0  0  0  0  0  0  0
    4.2524   -4.3476   -1.4710 H   0  0  0  0  0  0  0  0  0  0  0  0
    3.6293   -4.2388    0.1868 H   0  0  0  0  0  0  0  0  0  0  0  0
    4.6601   -0.5501   -1.8399 H   0  0  0  0  0  0  0  0  0  0  0  0
    5.0090    1.8444   -2.1772 H   0  0  0  0  0  0  0  0  0  0  0  0
    3.5515    3.4846   -1.0135 H   0  0  0  0  0  0  0  0  0  0  0  0
    1.8069    2.7519    0.4732 H   0  0  0  0  0  0  0  0  0  0  0  0
   -3.2784    0.6680    1.3922 H   0  0  0  0  0  0  0  0  0  0  0  0
   -0.5745    2.5865    0.2113 H   0  0  0  0  0  0  0  0  0  0  0  0
    1.6007   -3.2173    0.6777 H   0  0  0  0  0  0  0  0  0  0  0  0
   -3.8197   -1.5437   -2.2503 H   0  0  0  0  0  0  0  0  0  0  0  0
   -1.7485   -0.5644   -3.1433 H   0  0  0  0  0  0  0  0  0  0  0  0
    0.1679   -1.6337    1.8099 H   0  0  0  0  0  0  0  0  0  0  0  0
   -6.3833   -2.2079   -0.1556 H   0  0  0  0  0  0  0  0  0  0  0  0
   -4.9322   -1.0616    0.2372 C   0  0  0  0  0  0  0  0  0  0  0  0
  7  8  1  0
  7  6  2  0
  8  9  2  0
  6  3  1  0
  9  4  1  0
  3  4  1  0
  3  1  2  0
  4 14  2  0
 20  1  1  0
 20  5  1  0
 21 25  2  0
  1 13  1  0
 14 25  1  0
 14 18  1  0
 25 12  1  6
 25 22  2  0
 19 17  1  0
 13 18  2  0
 12 10  1  0
 17 10  2  0
 17 16  1  0
 10 11  1  0
 16 15  2  0
 11  2  2  0
 15  2  1  0
  2 40  1  0
 40 23  2  0
 40 24  1  0
  5 26  1  0
  5 27  1  0
  5 28  1  0
  6 29  1  0
  7 30  1  0
  8 31  1  0
  9 32  1  0
 11 33  1  0
 12 34  1  0
 13 35  1  0
 15 36  1  0
 16 37  1  0
 18 38  1  0
 24 39  1  0
M  END
