
     RDKit          3D

 41 43  0  0  0  0  0  0  0  0999 V2000
   -0.6031    0.1330    2.6272 C   0  0  1  0  0  0  0  0  0  0  0  0
   -0.6969   -1.0918    3.5341 C   0  0  0  0  0  0  0  0  0  0  0  0
   -1.4552   -0.7396    4.6570 O   0  0  0  0  0  0  0  0  0  0  0  0
   -1.5641   -1.7866    5.5884 C   0  0  0  0  0  0  0  0  0  0  0  0
    0.0503    1.3371    3.2870 C   0  0  0  0  0  0  0  0  0  0  0  0
    1.3382    0.9962    3.7170 O   0  0  0  0  0  0  0  0  0  0  0  0
    2.0065    2.0682    4.3331 C   0  0  0  0  0  0  0  0  0  0  0  0
   -1.1650    0.7854   -3.8759 N   0  0  0  0  0  0  0  0  0  0  0  0
    0.7774   -0.4102   -4.5349 N   0  0  0  0  0  0  0  0  0  0  0  0
    0.0574   -0.2250    1.3846 N   0  0  0  0  0  0  0  0  0  0  0  0
   -0.8826    0.5035   -2.5830 C   0  0  0  0  0  0  0  0  0  0  0  0
   -0.3123    0.3420   -4.7727 C   0  0  0  0  0  0  0  0  0  0  0  0
    1.0586   -0.7079   -3.2833 C   0  0  0  0  0  0  0  0  0  0  0  0
    0.2633   -0.2215   -2.1976 C   0  0  0  0  0  0  0  0  0  0  0  0
    0.5308   -0.4116   -0.8125 C   0  0  0  0  0  0  0  0  0  0  0  0
    1.5905   -0.9887   -0.0541 C   0  0  0  0  0  0  0  0  0  0  0  0
    1.2618   -0.8485    1.2673 C   0  0  0  0  0  0  0  0  0  0  0  0
   -0.4014    0.0670    0.1243 C   0  0  0  0  0  0  0  0  0  0  0  0
   -1.5652    0.7507   -0.2592 C   0  0  0  0  0  0  0  0  0  0  0  0
   -1.7879    0.9688   -1.5898 C   0  0  0  0  0  0  0  0  0  0  0  0
   -1.6228    0.4279    2.3724 H   0  0  0  0  0  0  0  0  0  0  0  0
    0.3013   -1.4379    3.8317 H   0  0  0  0  0  0  0  0  0  0  0  0
   -1.1698   -1.9105    2.9737 H   0  0  0  0  0  0  0  0  0  0  0  0
   -2.1542   -1.4265    6.4300 H   0  0  0  0  0  0  0  0  0  0  0  0
   -2.0659   -2.6638    5.1640 H   0  0  0  0  0  0  0  0  0  0  0  0
   -0.5840   -2.1049    5.9618 H   0  0  0  0  0  0  0  0  0  0  0  0
    0.0810    2.1649    2.5645 H   0  0  0  0  0  0  0  0  0  0  0  0
   -0.5757    1.6701    4.1250 H   0  0  0  0  0  0  0  0  0  0  0  0
    2.9970    1.7230    4.6261 H   0  0  0  0  0  0  0  0  0  0  0  0
    2.1215    2.9232    3.6568 H   0  0  0  0  0  0  0  0  0  0  0  0
    1.4800    2.4157    5.2294 H   0  0  0  0  0  0  0  0  0  0  0  0
    0.1895    0.4873   -6.7335 H   0  0  0  0  0  0  0  0  0  0  0  0
   -1.2105    1.3499   -6.2873 H   0  0  0  0  0  0  0  0  0  0  0  0
    2.5644   -1.8969   -3.8820 H   0  0  0  0  0  0  0  0  0  0  0  0
    2.1987   -2.0364   -2.2348 H   0  0  0  0  0  0  0  0  0  0  0  0
    2.5149   -1.4235   -0.3953 H   0  0  0  0  0  0  0  0  0  0  0  0
    1.8241   -1.1562    2.1332 H   0  0  0  0  0  0  0  0  0  0  0  0
   -2.2751    1.1152    0.4725 H   0  0  0  0  0  0  0  0  0  0  0  0
   -2.6679    1.5075   -1.9161 H   0  0  0  0  0  0  0  0  0  0  0  0
   -0.5656    0.6065   -6.0805 N   0  0  0  0  0  0  0  0  0  0  0  0
    2.1466   -1.4766   -3.0673 N   0  0  0  0  0  0  0  0  0  0  0  0
  1  2  1  0
  1  5  1  0
  1 10  1  0
  1 21  1  6
  2  3  1  0
  2 22  1  0
  2 23  1  0
  3  4  1  0
  4 24  1  0
  4 25  1  0
  4 26  1  0
  5  6  1  0
  5 27  1  0
  5 28  1  0
  6  7  1  0
  7 29  1  0
  7 30  1  0
  7 31  1  0
  8 11  2  0
  8 12  1  0
  9 12  2  0
  9 13  1  0
 10 17  1  0
 10 18  1  0
 40 12  1  0
 40 32  1  0
 40 33  1  0
 41 13  1  0
 41 34  1  0
 41 35  1  0
 11 14  1  0
 11 20  1  0
 13 14  2  0
 14 15  1  0
 15 16  1  0
 15 18  2  0
 16 17  2  0
 16 36  1  0
 17 37  1  0
 18 19  1  0
 19 20  2  0
 19 38  1  0
 20 39  1  0
M  END
