
     RDKit          3D

 31 33  0  0  0  0  0  0  0  0999 V2000
   -0.9555   -0.8039    0.0355 C   0  0  0  0  0  0  0  0  0  0  0  0
   -2.3749   -0.6197    0.0020 C   0  0  0  0  0  0  0  0  0  0  0  0
   -3.2697   -1.7086    0.1313 C   0  0  0  0  0  0  0  0  0  0  0  0
   -2.7566   -3.1078    0.2998 C   0  0  0  0  0  0  0  0  0  0  0  0
   -4.6267   -1.4550    0.0967 C   0  0  0  0  0  0  0  0  0  0  0  0
   -5.1332   -0.1608   -0.0598 C   0  0  0  0  0  0  0  0  0  0  0  0
   -4.2701    0.9025   -0.1849 C   0  0  0  0  0  0  0  0  0  0  0  0
   -2.8900    0.6804   -0.1544 C   0  0  0  0  0  0  0  0  0  0  0  0
   -1.9867    1.8222   -0.2976 C   0  0  0  0  0  0  0  0  0  0  0  0
   -2.3537    2.9795   -0.4511 O   0  0  0  0  0  0  0  0  0  0  0  0
   -0.6533    1.5119   -0.2638 N   0  0  0  0  0  0  0  0  0  0  0  0
   -0.1261    0.2561   -0.0993 C   0  0  0  0  0  0  0  0  0  0  0  0
    1.3397    0.1484   -0.0528 C   0  0  0  0  0  0  0  0  0  0  0  0
    2.1206    1.1499    0.5252 C   0  0  0  0  0  0  0  0  0  0  0  0
    3.5002    1.0358    0.5787 C   0  0  0  0  0  0  0  0  0  0  0  0
    4.1073   -0.0910    0.0481 C   0  0  0  0  0  0  0  0  0  0  0  0
    5.8298   -0.2393    0.1080 Cl  0  0  0  0  0  0  0  0  0  0  0  0
    3.3545   -1.1004   -0.5333 C   0  0  0  0  0  0  0  0  0  0  0  0
    1.9773   -0.9733   -0.5833 C   0  0  0  0  0  0  0  0  0  0  0  0
   -0.5364   -1.7848    0.2030 H   0  0  0  0  0  0  0  0  0  0  0  0
   -2.1255   -3.2021    1.1855 H   0  0  0  0  0  0  0  0  0  0  0  0
   -3.5788   -3.8135    0.4022 H   0  0  0  0  0  0  0  0  0  0  0  0
   -2.1554   -3.4229   -0.5555 H   0  0  0  0  0  0  0  0  0  0  0  0
   -5.3195   -2.2824    0.1918 H   0  0  0  0  0  0  0  0  0  0  0  0
   -6.2030   -0.0023   -0.0807 H   0  0  0  0  0  0  0  0  0  0  0  0
   -4.6489    1.9080   -0.3079 H   0  0  0  0  0  0  0  0  0  0  0  0
   -0.0217    2.2862   -0.4206 H   0  0  0  0  0  0  0  0  0  0  0  0
    1.6626    2.0255    0.9674 H   0  0  0  0  0  0  0  0  0  0  0  0
    1.3982   -1.7526   -1.0607 H   0  0  0  0  0  0  0  0  0  0  0  0
    4.0901    1.8173    1.0374 H   0  0  0  0  0  0  0  0  0  0  0  0
    3.8342   -1.9726   -0.9551 H   0  0  0  0  0  0  0  0  0  0  0  0
  1  2  1  0
  1 12  2  0
  2  3  1  0
  2  8  2  0
  3  4  1  0
  3  5  2  0
  5  6  1  0
  6  7  2  0
  7  8  1  0
  8  9  1  0
  9 10  2  0
  9 11  1  0
 11 12  1  0
 12 13  1  0
 13 14  2  0
 13 19  1  0
 14 15  1  0
 15 16  2  0
 16 17  1  0
 16 18  1  0
 18 19  2  0
  1 20  1  0
  4 21  1  0
  4 22  1  0
  4 23  1  0
  5 24  1  0
  6 25  1  0
  7 26  1  0
 11 27  1  0
 14 28  1  0
 19 29  1  0
 15 30  1  0
 18 31  1  0
M  END
