
     RDKit          3D

 71 74  0  0  0  0  0  0  0  0999 V2000
   -7.6395   -0.0131   -1.5152 O   0  0  0  0  0  0  0  0  0  0  0  0
   -6.8403   -0.2143   -0.3158 S   0  0  1  0  0  0  0  0  0  0  0  0
   -7.1173    0.5717    0.8765 O   0  0  0  0  0  0  0  0  0  0  0  0
   -6.9832   -1.7927    0.0534 N   0  0  0  0  0  0  0  0  0  0  0  0
   -6.5119   -2.4642    1.2892 C   0  0  1  0  0  0  0  0  0  0  0  0
   -5.1511   -1.9576    1.7636 C   0  0  0  0  0  0  0  0  0  0  0  0
   -7.5579   -2.2953    2.3888 C   0  0  0  0  0  0  0  0  0  0  0  0
   -6.3916   -3.9409    0.9191 C   0  0  0  0  0  0  0  0  0  0  0  0
   -5.1483    0.0812   -0.7810 C   0  0  0  0  0  0  0  0  0  0  0  0
   -4.6226   -0.6331   -1.8498 C   0  0  0  0  0  0  0  0  0  0  0  0
   -3.3042   -0.4013   -2.1994 C   0  0  0  0  0  0  0  0  0  0  0  0
   -2.5233    0.5194   -1.5137 C   0  0  0  0  0  0  0  0  0  0  0  0
   -4.3960    1.0041   -0.0828 C   0  0  0  0  0  0  0  0  0  0  0  0
   -3.0643    1.2333   -0.4435 C   0  0  0  0  0  0  0  0  0  0  0  0
   -2.3808    2.2061    0.2794 N   0  0  0  0  0  0  0  0  0  0  0  0
   -1.0421    2.3689    0.4744 C   0  0  0  0  0  0  0  0  0  0  0  0
   -0.2010    1.5020   -0.0540 N   0  0  0  0  0  0  0  0  0  0  0  0
    1.1050    1.6836    0.1702 C   0  0  0  0  0  0  0  0  0  0  0  0
    1.6370    2.6683    0.8756 N   0  0  0  0  0  0  0  0  0  0  0  0
    0.7664    3.5338    1.4007 C   0  0  0  0  0  0  0  0  0  0  0  0
   -0.5968    3.4642    1.2552 C   0  0  0  0  0  0  0  0  0  0  0  0
   -1.5281    4.4613    1.8671 C   0  0  0  0  0  0  0  0  0  0  0  0
    1.8961    0.7384   -0.4066 N   0  0  0  0  0  0  0  0  0  0  0  0
    3.2737    0.5315   -0.3616 C   0  0  0  0  0  0  0  0  0  0  0  0
    4.1913    1.3283    0.3287 C   0  0  0  0  0  0  0  0  0  0  0  0
    5.5415    1.0231    0.3049 C   0  0  0  0  0  0  0  0  0  0  0  0
    6.0487   -0.0823   -0.3854 C   0  0  0  0  0  0  0  0  0  0  0  0
    5.1229   -0.8729   -1.0716 C   0  0  0  0  0  0  0  0  0  0  0  0
    3.7719   -0.5656   -1.0645 C   0  0  0  0  0  0  0  0  0  0  0  0
    7.4262   -0.3367   -0.3925 N   0  0  0  0  0  0  0  0  0  0  0  0
    8.0684   -0.4344    0.9149 C   0  0  0  0  0  0  0  0  0  0  0  0
    9.5830   -0.3682    0.7624 C   0  0  0  0  0  0  0  0  0  0  0  0
   10.1214   -1.3610   -0.1489 N   0  0  0  0  0  0  0  0  0  0  0  0
   10.1685   -2.6977    0.4079 C   0  0  0  0  0  0  0  0  0  0  0  0
    9.4280   -1.2732   -1.4195 C   0  0  0  0  0  0  0  0  0  0  0  0
    7.9079   -1.3517   -1.3106 C   0  0  0  0  0  0  0  0  0  0  0  0
   -7.0569   -2.3803   -0.7675 H   0  0  0  0  0  0  0  0  0  0  0  0
   -5.1817   -0.9161    2.0824 H   0  0  0  0  0  0  0  0  0  0  0  0
   -4.8356   -2.5460    2.6256 H   0  0  0  0  0  0  0  0  0  0  0  0
   -4.3892   -2.0637    0.9910 H   0  0  0  0  0  0  0  0  0  0  0  0
   -8.5230   -2.6867    2.0655 H   0  0  0  0  0  0  0  0  0  0  0  0
   -7.2525   -2.8410    3.2828 H   0  0  0  0  0  0  0  0  0  0  0  0
   -7.6863   -1.2500    2.6642 H   0  0  0  0  0  0  0  0  0  0  0  0
   -5.6503   -4.0939    0.1324 H   0  0  0  0  0  0  0  0  0  0  0  0
   -6.0772   -4.5163    1.7896 H   0  0  0  0  0  0  0  0  0  0  0  0
   -7.3463   -4.3457    0.5782 H   0  0  0  0  0  0  0  0  0  0  0  0
   -5.2142   -1.3550   -2.3971 H   0  0  0  0  0  0  0  0  0  0  0  0
   -2.8685   -0.9422   -3.0288 H   0  0  0  0  0  0  0  0  0  0  0  0
   -1.5011    0.6768   -1.8150 H   0  0  0  0  0  0  0  0  0  0  0  0
   -4.8251    1.5426    0.7531 H   0  0  0  0  0  0  0  0  0  0  0  0
   -2.9732    2.8169    0.8199 H   0  0  0  0  0  0  0  0  0  0  0  0
    1.1977    4.3458    1.9786 H   0  0  0  0  0  0  0  0  0  0  0  0
   -2.2155    4.0001    2.5809 H   0  0  0  0  0  0  0  0  0  0  0  0
   -0.9679    5.2235    2.4066 H   0  0  0  0  0  0  0  0  0  0  0  0
   -2.1337    4.9743    1.1166 H   0  0  0  0  0  0  0  0  0  0  0  0
    1.3741    0.0427   -0.9170 H   0  0  0  0  0  0  0  0  0  0  0  0
    3.8561    2.1964    0.8725 H   0  0  0  0  0  0  0  0  0  0  0  0
    6.2176    1.6841    0.8327 H   0  0  0  0  0  0  0  0  0  0  0  0
    5.4386   -1.7516   -1.6176 H   0  0  0  0  0  0  0  0  0  0  0  0
    3.0898   -1.2073   -1.6110 H   0  0  0  0  0  0  0  0  0  0  0  0
    7.7468    0.3889    1.5511 H   0  0  0  0  0  0  0  0  0  0  0  0
    7.7715   -1.3641    1.4243 H   0  0  0  0  0  0  0  0  0  0  0  0
    9.8488    0.6257    0.3878 H   0  0  0  0  0  0  0  0  0  0  0  0
   10.0513   -0.4814    1.7426 H   0  0  0  0  0  0  0  0  0  0  0  0
    9.1987   -3.1292    0.6902 H   0  0  0  0  0  0  0  0  0  0  0  0
   10.6298   -3.3753   -0.3123 H   0  0  0  0  0  0  0  0  0  0  0  0
   10.7942   -2.6951    1.3022 H   0  0  0  0  0  0  0  0  0  0  0  0
    9.6903   -0.3177   -1.8861 H   0  0  0  0  0  0  0  0  0  0  0  0
    9.7834   -2.0640   -2.0839 H   0  0  0  0  0  0  0  0  0  0  0  0
    7.5953   -2.3638   -1.0088 H   0  0  0  0  0  0  0  0  0  0  0  0
    7.4853   -1.1718   -2.3012 H   0  0  0  0  0  0  0  0  0  0  0  0
  6  5  1  0
  1  2  2  0
  8  5  1  0
  5  4  1  6
  2  4  1  1
  5  7  1  0
  2  3  2  0
  2  9  1  0
 22 21  1  0
 13  9  2  0
 13 14  1  0
  9 10  1  0
 15 14  1  0
 15 16  1  0
 21 16  1  0
 21 20  2  0
 14 12  2  0
 16 17  2  0
 10 11  2  0
 20 19  1  0
 12 11  1  0
 17 18  1  0
 19 18  2  0
 18 23  1  0
 23 24  1  0
 25 24  2  0
 25 26  1  0
 24 29  1  0
 26 27  2  0
 29 28  2  0
 27 28  1  0
 27 30  1  0
 31 30  1  0
 31 32  1  0
 30 36  1  0
 32 33  1  0
 36 35  1  0
 33 35  1  0
 33 34  1  0
  4 37  1  0
  6 38  1  0
  6 39  1  0
  6 40  1  0
  7 41  1  0
  7 42  1  0
  7 43  1  0
  8 44  1  0
  8 45  1  0
  8 46  1  0
 10 47  1  0
 11 48  1  0
 12 49  1  0
 13 50  1  0
 15 51  1  0
 20 52  1  0
 22 53  1  0
 22 54  1  0
 22 55  1  0
 23 56  1  0
 25 57  1  0
 26 58  1  0
 28 59  1  0
 29 60  1  0
 31 61  1  0
 31 62  1  0
 32 63  1  0
 32 64  1  0
 34 65  1  0
 34 66  1  0
 34 67  1  0
 35 68  1  0
 35 69  1  0
 36 70  1  0
 36 71  1  0
M  END
