
     RDKit          3D

 22 22  0  0  0  0  0  0  0  0999 V2000
   -2.4038    0.4399    1.2204 C   0  0  0  0  0  0  0  0  0  0  0  0
   -1.7133   -0.2008    0.0170 C   0  0  1  0  0  0  0  0  0  0  0  0
   -2.3516    0.2626   -1.2936 C   0  0  0  0  0  0  0  0  0  0  0  0
   -0.2253    0.0740    0.0119 C   0  0  0  0  0  0  0  0  0  0  0  0
    0.2500    1.3847    0.0623 C   0  0  0  0  0  0  0  0  0  0  0  0
    1.6058    1.6743    0.0468 C   0  0  0  0  0  0  0  0  0  0  0  0
    2.5279    0.6384   -0.0228 C   0  0  0  0  0  0  0  0  0  0  0  0
    2.0809   -0.6719   -0.0841 C   0  0  0  0  0  0  0  0  0  0  0  0
    0.7179   -0.9549   -0.0681 C   0  0  0  0  0  0  0  0  0  0  0  0
    0.3272   -2.2690   -0.0796 O   0  0  0  0  0  0  0  0  0  0  0  0
   -2.3674    1.5297    1.1750 H   0  0  0  0  0  0  0  0  0  0  0  0
   -3.4559    0.1527    1.2529 H   0  0  0  0  0  0  0  0  0  0  0  0
   -1.9420    0.1287    2.1579 H   0  0  0  0  0  0  0  0  0  0  0  0
   -1.8588   -1.2799    0.0936 H   0  0  0  0  0  0  0  0  0  0  0  0
   -2.2501    1.3420   -1.4240 H   0  0  0  0  0  0  0  0  0  0  0  0
   -1.8884   -0.2209   -2.1547 H   0  0  0  0  0  0  0  0  0  0  0  0
   -3.4171    0.0267   -1.3092 H   0  0  0  0  0  0  0  0  0  0  0  0
   -0.4586    2.2024    0.1223 H   0  0  0  0  0  0  0  0  0  0  0  0
    1.9396    2.7030    0.0917 H   0  0  0  0  0  0  0  0  0  0  0  0
    3.5899    0.8467   -0.0352 H   0  0  0  0  0  0  0  0  0  0  0  0
    2.7884   -1.4906   -0.1316 H   0  0  0  0  0  0  0  0  0  0  0  0
    0.0565   -2.5267   -0.9677 H   0  0  0  0  0  0  0  0  0  0  0  0
  1  2  1  0
  2  3  1  0
  2  4  1  0
  4  5  2  0
  4  9  1  0
  5  6  1  0
  6  7  2  0
  7  8  1  0
  8  9  2  0
  9 10  1  0
  1 11  1  0
  1 12  1  0
  1 13  1  0
  2 14  1  1
  3 15  1  0
  3 16  1  0
  3 17  1  0
  5 18  1  0
  6 19  1  0
  7 20  1  0
  8 21  1  0
 10 22  1  0
M  END
