
     RDKit          3D

 27 28  0  0  0  0  0  0  0  0999 V2000
    0.8445    2.8228   -0.3032 C   0  0  0  0  0  0  0  0  0  0  0  0
    1.2755    1.4072   -0.1578 C   0  0  0  0  0  0  0  0  0  0  0  0
    2.5358    1.0885   -0.1371 N   0  0  0  0  0  0  0  0  0  0  0  0
    2.5879   -0.2678    0.0141 O   0  0  0  0  0  0  0  0  0  0  0  0
    0.4541    0.2493   -0.0084 C   0  0  0  0  0  0  0  0  0  0  0  0
    1.3527   -0.7672    0.0932 C   0  0  0  0  0  0  0  0  0  0  0  0
    1.2088   -2.2387    0.2314 C   0  0  0  0  0  0  0  0  0  0  0  0
    1.9235   -3.0225   -0.8683 C   0  0  0  0  0  0  0  0  0  0  0  0
   -1.0090    0.1868    0.0509 C   0  0  0  0  0  0  0  0  0  0  0  0
   -1.7893    0.8144   -0.9210 C   0  0  0  0  0  0  0  0  0  0  0  0
   -3.1742    0.7585   -0.8611 C   0  0  0  0  0  0  0  0  0  0  0  0
   -3.8020    0.0689    0.1683 C   0  0  0  0  0  0  0  0  0  0  0  0
   -3.0353   -0.5603    1.1401 C   0  0  0  0  0  0  0  0  0  0  0  0
   -1.6502   -0.4969    1.0852 C   0  0  0  0  0  0  0  0  0  0  0  0
    0.4657    3.0157   -1.3071 H   0  0  0  0  0  0  0  0  0  0  0  0
    0.0435    3.0559    0.3974 H   0  0  0  0  0  0  0  0  0  0  0  0
    1.6751    3.5021   -0.1220 H   0  0  0  0  0  0  0  0  0  0  0  0
    1.5844   -2.5499    1.2102 H   0  0  0  0  0  0  0  0  0  0  0  0
    0.1437   -2.4731    0.2237 H   0  0  0  0  0  0  0  0  0  0  0  0
    3.0007   -2.8641   -0.8444 H   0  0  0  0  0  0  0  0  0  0  0  0
    1.7423   -4.0886   -0.7384 H   0  0  0  0  0  0  0  0  0  0  0  0
    1.5596   -2.7388   -1.8555 H   0  0  0  0  0  0  0  0  0  0  0  0
   -1.3114    1.3353   -1.7411 H   0  0  0  0  0  0  0  0  0  0  0  0
   -1.0615   -0.9689    1.8623 H   0  0  0  0  0  0  0  0  0  0  0  0
   -3.7633    1.2487   -1.6252 H   0  0  0  0  0  0  0  0  0  0  0  0
   -4.8824    0.0238    0.2141 H   0  0  0  0  0  0  0  0  0  0  0  0
   -3.5153   -1.0938    1.9501 H   0  0  0  0  0  0  0  0  0  0  0  0
  1  2  1  0
  2  3  2  0
  2  5  1  0
  3  4  1  0
  4  6  1  0
  5  6  2  0
  5  9  1  0
  6  7  1  0
  7  8  1  0
  9 10  2  0
  9 14  1  0
 10 11  1  0
 11 12  2  0
 12 13  1  0
 13 14  2  0
  1 15  1  0
  1 16  1  0
  1 17  1  0
  7 18  1  0
  7 19  1  0
  8 20  1  0
  8 21  1  0
  8 22  1  0
 10 23  1  0
 14 24  1  0
 11 25  1  0
 12 26  1  0
 13 27  1  0
M  END
