
     RDKit          3D

 41 43  0  0  0  0  0  0  0  0999 V2000
   -0.8275   -2.2127   -0.1909 O   0  0  0  0  0  0  0  0  0  0  0  0
   -1.9830   -2.1366    0.1256 C   0  0  0  0  0  0  0  0  0  0  0  0
   -2.7335   -3.1598    0.4892 O   0  0  0  0  0  0  0  0  0  0  0  0
   -2.7668   -0.8599    0.1396 C   0  0  0  0  0  0  0  0  0  0  0  0
   -4.1145   -1.0112   -0.0710 N   0  0  0  0  0  0  0  0  0  0  0  0
   -5.0037    0.0217   -0.1240 C   0  0  0  0  0  0  0  0  0  0  0  0
   -6.1890   -0.1293   -0.3316 O   0  0  0  0  0  0  0  0  0  0  0  0
   -4.4278    1.2482    0.0792 N   0  0  0  0  0  0  0  0  0  0  0  0
   -3.0964    1.5168    0.3130 C   0  0  0  0  0  0  0  0  0  0  0  0
   -2.7212    2.6611    0.4764 O   0  0  0  0  0  0  0  0  0  0  0  0
   -2.2049    0.3513    0.3432 C   0  0  0  0  0  0  0  0  0  0  0  0
   -0.7572    0.6436    0.5954 C   0  0  0  0  0  0  0  0  0  0  0  0
   -0.0312    1.0845   -0.6884 C   0  0  0  0  0  0  0  0  0  0  0  0
    1.3394    1.6349   -0.4045 C   0  0  0  0  0  0  0  0  0  0  0  0
    2.4677    0.7812   -0.2075 C   0  0  0  0  0  0  0  0  0  0  0  0
    2.3803   -0.6225   -0.3102 C   0  0  0  0  0  0  0  0  0  0  0  0
    3.4822   -1.4245   -0.1150 C   0  0  0  0  0  0  0  0  0  0  0  0
    3.2939   -2.7534   -0.2328 O   0  0  0  0  0  0  0  0  0  0  0  0
    4.3940   -3.6209   -0.0424 C   0  0  0  0  0  0  0  0  0  0  0  0
    4.7328   -0.8428    0.1920 C   0  0  0  0  0  0  0  0  0  0  0  0
    4.8381    0.5177    0.2939 C   0  0  0  0  0  0  0  0  0  0  0  0
    3.7274    1.3659    0.1014 C   0  0  0  0  0  0  0  0  0  0  0  0
    3.8469    2.7711    0.2088 C   0  0  0  0  0  0  0  0  0  0  0  0
    2.7571    3.5700    0.0136 C   0  0  0  0  0  0  0  0  0  0  0  0
    1.5078    2.9919   -0.2925 C   0  0  0  0  0  0  0  0  0  0  0  0
   -2.2328   -3.9894    0.4393 H   0  0  0  0  0  0  0  0  0  0  0  0
   -5.0540    2.0436    0.0465 H   0  0  0  0  0  0  0  0  0  0  0  0
   -0.6989    1.4551    1.3223 H   0  0  0  0  0  0  0  0  0  0  0  0
   -0.2511   -0.2089    1.0430 H   0  0  0  0  0  0  0  0  0  0  0  0
    0.0119    0.2460   -1.3864 H   0  0  0  0  0  0  0  0  0  0  0  0
   -0.6197    1.8623   -1.1774 H   0  0  0  0  0  0  0  0  0  0  0  0
    1.4367   -1.0952   -0.5473 H   0  0  0  0  0  0  0  0  0  0  0  0
    4.8105   -3.5434    0.9653 H   0  0  0  0  0  0  0  0  0  0  0  0
    4.0163   -4.6305   -0.1844 H   0  0  0  0  0  0  0  0  0  0  0  0
    5.1905   -3.4397   -0.7684 H   0  0  0  0  0  0  0  0  0  0  0  0
    5.6121   -1.4528    0.3474 H   0  0  0  0  0  0  0  0  0  0  0  0
    5.7987    0.9587    0.5311 H   0  0  0  0  0  0  0  0  0  0  0  0
    4.8127    3.2004    0.4478 H   0  0  0  0  0  0  0  0  0  0  0  0
    2.8432    4.6459    0.0905 H   0  0  0  0  0  0  0  0  0  0  0  0
    0.6526    3.6412   -0.4412 H   0  0  0  0  0  0  0  0  0  0  0  0
   -4.4958   -1.9338   -0.2277 H   0  0  0  0  0  0  0  0  0  0  0  0
 23 24  2  0
 23 22  1  0
 24 25  1  0
 21 22  2  0
 21 20  1  0
 22 15  1  0
 25 14  2  0
 20 17  2  0
 15 14  1  0
 15 16  2  0
 14 13  1  0
 17 16  1  0
 17 18  1  0
 13 12  1  0
 18 19  1  0
 12 11  1  0
 10  9  2  0
 11  9  1  0
 11  4  2  0
  9  8  1  0
  2  4  1  0
  2  1  2  0
  2  3  1  0
  4  5  1  0
  8  6  1  0
  5  6  1  0
  6  7  2  0
  3 26  1  0
  8 27  1  0
 12 28  1  0
 12 29  1  0
 13 30  1  0
 13 31  1  0
 16 32  1  0
 19 33  1  0
 19 34  1  0
 19 35  1  0
 20 36  1  0
 21 37  1  0
 23 38  1  0
 24 39  1  0
 25 40  1  0
  5 41  1  0
M  END
