
     RDKit          3D

 25 25  0  0  0  0  0  0  0  0999 V2000
   -3.2893   -0.5428   -0.1096 C   0  0  0  0  0  0  0  0  0  0  0  0
   -2.4065    0.5537    0.4668 C   0  0  0  0  0  0  0  0  0  0  0  0
    1.3247    0.1918   -0.0597 C   0  0  0  0  0  0  0  0  0  0  0  0
    1.5631   -1.1259    0.0692 C   0  0  0  0  0  0  0  0  0  0  0  0
    2.9301   -1.6055    0.0924 C   0  0  0  0  0  0  0  0  0  0  0  0
    3.6647    0.7388   -0.1737 C   0  0  0  0  0  0  0  0  0  0  0  0
   -1.0186    0.1412    0.4669 N   0  0  0  0  0  0  0  0  0  0  0  0
   -4.7441   -0.1643   -0.1018 C   0  0  0  0  0  0  0  0  0  0  0  0
   -5.5080   -1.1324   -0.5924 O   0  0  0  0  0  0  0  0  0  0  0  0
   -0.0436    0.8154   -0.1431 C   0  0  0  0  0  0  0  0  0  0  0  0
    3.8830   -0.6084   -0.0277 N   0  0  0  0  0  0  0  0  0  0  0  0
    2.3407    1.0871   -0.1818 N   0  0  0  0  0  0  0  0  0  0  0  0
   -5.1793    0.8872    0.2966 O   0  0  0  0  0  0  0  0  0  0  0  0
   -0.1756    1.8709   -0.7412 O   0  0  0  0  0  0  0  0  0  0  0  0
    3.2580   -2.7707    0.2038 O   0  0  0  0  0  0  0  0  0  0  0  0
    4.5612    1.5470   -0.2815 O   0  0  0  0  0  0  0  0  0  0  0  0
   -2.9915   -0.7705   -1.1369 H   0  0  0  0  0  0  0  0  0  0  0  0
   -3.1716   -1.4731    0.4541 H   0  0  0  0  0  0  0  0  0  0  0  0
   -2.4913    1.4633   -0.1226 H   0  0  0  0  0  0  0  0  0  0  0  0
   -2.7066    0.7945    1.4878 H   0  0  0  0  0  0  0  0  0  0  0  0
    0.7675   -1.8530    0.1259 H   0  0  0  0  0  0  0  0  0  0  0  0
   -0.7789   -0.6610    1.0286 H   0  0  0  0  0  0  0  0  0  0  0  0
   -6.4385   -0.8619   -0.5762 H   0  0  0  0  0  0  0  0  0  0  0  0
    4.8538   -0.8979   -0.0163 H   0  0  0  0  0  0  0  0  0  0  0  0
    2.1184    2.0658   -0.3128 H   0  0  0  0  0  0  0  0  0  0  0  0
 15  5  2  0
  5  4  1  0
  5 11  1  0
  4  3  2  0
 11  6  1  0
  3 10  1  0
  3 12  1  0
 14 10  2  0
  6 12  1  0
  6 16  2  0
 10  7  1  0
  7  2  1  0
 13  8  2  0
  1  8  1  0
  1  2  1  0
  8  9  1  0
  1 17  1  0
  1 18  1  0
  2 19  1  0
  2 20  1  0
  4 21  1  0
  7 22  1  0
  9 23  1  0
 11 24  1  0
 12 25  1  0
M  END
