
     RDKit          3D

 29 29  0  0  0  0  0  0  0  0999 V2000
    1.8671    0.4828   -0.0494 C   0  0  0  0  0  0  0  0  0  0  0  0
   -0.5303    1.8342    1.6673 C   0  0  0  0  0  0  0  0  0  0  0  0
   -0.4965    1.0591    0.3527 C   0  0  2  0  0  0  0  0  0  0  0  0
   -1.7780    0.3027    0.0877 C   0  0  0  0  0  0  0  0  0  0  0  0
   -2.4664    0.4871   -1.1071 C   0  0  0  0  0  0  0  0  0  0  0  0
   -3.6386   -0.2112   -1.3677 C   0  0  0  0  0  0  0  0  0  0  0  0
   -4.1338   -1.1106   -0.4339 C   0  0  0  0  0  0  0  0  0  0  0  0
   -3.4519   -1.3051    0.7609 C   0  0  0  0  0  0  0  0  0  0  0  0
   -2.2845   -0.6009    1.0201 C   0  0  0  0  0  0  0  0  0  0  0  0
    0.6213    0.1271    0.3032 N   0  0  0  0  0  0  0  0  0  0  0  0
    2.1784    1.6072   -0.4032 O   0  0  0  0  0  0  0  0  0  0  0  0
    2.8713   -0.6552    0.0391 C   0  0  0  0  0  0  0  0  0  0  0  0
    4.0840   -0.2345   -0.4987 O   0  0  0  0  0  0  0  0  0  0  0  0
    5.0636   -1.2420   -0.4515 C   0  0  0  0  0  0  0  0  0  0  0  0
    0.3882    2.4075    1.7926 H   0  0  0  0  0  0  0  0  0  0  0  0
   -1.3689    2.5306    1.6753 H   0  0  0  0  0  0  0  0  0  0  0  0
   -0.3547    1.7738   -0.4602 H   0  0  0  0  0  0  0  0  0  0  0  0
   -2.0821    1.1850   -1.8418 H   0  0  0  0  0  0  0  0  0  0  0  0
   -4.1624   -0.0532   -2.3016 H   0  0  0  0  0  0  0  0  0  0  0  0
   -5.0469   -1.6560   -0.6343 H   0  0  0  0  0  0  0  0  0  0  0  0
   -3.8321   -2.0038    1.4949 H   0  0  0  0  0  0  0  0  0  0  0  0
   -1.7704   -0.7608    1.9612 H   0  0  0  0  0  0  0  0  0  0  0  0
    0.4561   -0.8226    0.6006 H   0  0  0  0  0  0  0  0  0  0  0  0
    2.9717   -0.9490    1.0953 H   0  0  0  0  0  0  0  0  0  0  0  0
    2.4738   -1.5347   -0.4891 H   0  0  0  0  0  0  0  0  0  0  0  0
    5.3003   -1.5389    0.5769 H   0  0  0  0  0  0  0  0  0  0  0  0
    4.7559   -2.1407   -0.9990 H   0  0  0  0  0  0  0  0  0  0  0  0
    5.9680   -0.8499   -0.9142 H   0  0  0  0  0  0  0  0  0  0  0  0
   -0.6329    1.1691    2.5253 H   0  0  0  0  0  0  0  0  0  0  0  0
  7  8  2  0
  7  6  1  0
  8  9  1  0
  6  5  2  0
  9  4  2  0
  5  4  1  0
  4  3  1  0
 11  1  2  0
 12  1  1  0
 12 13  1  0
  1 10  1  0
 13 14  1  0
 10  3  1  0
  3  2  1  0
  2 29  1  0
  2 15  1  0
  2 16  1  0
  3 17  1  6
  5 18  1  0
  6 19  1  0
  7 20  1  0
  8 21  1  0
  9 22  1  0
 10 23  1  0
 12 24  1  0
 12 25  1  0
 14 26  1  0
 14 27  1  0
 14 28  1  0
M  END
