
     RDKit          3D

 20 19  0  0  0  0  0  0  0  0999 V2000
   -1.0643   -1.0039    1.5024 N   0  0  0  0  0  0  0  0  0  0  0  0
   -1.0275   -0.5302    0.1464 C   0  0  2  0  0  0  0  0  0  0  0  0
   -1.0656   -1.6678   -0.6665 O   0  0  0  0  0  0  0  0  0  0  0  0
    0.2509    0.2950   -0.0820 C   0  0  0  0  0  0  0  0  0  0  0  0
    1.5091   -0.5330    0.1158 C   0  0  0  0  0  0  0  0  0  0  0  0
    2.7646    0.2664   -0.0882 C   0  0  0  0  0  0  0  0  0  0  0  0
    2.8092    1.4360   -0.3794 O   0  0  0  0  0  0  0  0  0  0  0  0
    3.8540   -0.4749    0.0918 O   0  0  0  0  0  0  0  0  0  0  0  0
   -2.2270    0.3671   -0.2256 C   0  0  0  0  0  0  0  0  0  0  0  0
   -2.8897    0.2166   -1.2219 O   0  0  0  0  0  0  0  0  0  0  0  0
   -2.4257    1.3309    0.6560 O   0  0  0  0  0  0  0  0  0  0  0  0
   -0.8807   -0.2608    2.1627 H   0  0  0  0  0  0  0  0  0  0  0  0
   -1.9639   -1.4055    1.7371 H   0  0  0  0  0  0  0  0  0  0  0  0
   -1.3607   -1.4149   -1.5489 H   0  0  0  0  0  0  0  0  0  0  0  0
    0.2304    0.7027   -1.0963 H   0  0  0  0  0  0  0  0  0  0  0  0
    0.2542    1.1521    0.5949 H   0  0  0  0  0  0  0  0  0  0  0  0
    1.5366   -0.9682    1.1178 H   0  0  0  0  0  0  0  0  0  0  0  0
    1.5286   -1.3790   -0.5759 H   0  0  0  0  0  0  0  0  0  0  0  0
    4.6463    0.0657   -0.0439 H   0  0  0  0  0  0  0  0  0  0  0  0
   -3.1634    1.8952    0.3783 H   0  0  0  0  0  0  0  0  0  0  0  0
 10  9  2  0
  7  6  2  0
  9 11  1  0
  9  2  1  0
  4  2  1  0
  4  5  1  0
  6  5  1  0
  6  8  1  0
  1  2  1  0
  2  3  1  6
  1 12  1  0
  1 13  1  0
  3 14  1  0
  4 15  1  0
  4 16  1  0
  5 17  1  0
  5 18  1  0
  8 19  1  0
 11 20  1  0
M  END
