
     RDKit          3D

 39 38  0  0  0  0  0  0  0  0999 V2000
    5.3700    1.1424   -1.4302 O   0  0  0  0  0  0  0  0  0  0  0  0
    5.3522    1.3319   -0.2393 C   0  0  0  0  0  0  0  0  0  0  0  0
    4.2107    0.9916    0.6634 C   0  0  0  0  0  0  0  0  0  0  0  0
    3.0598    0.2496    0.0060 C   0  0  0  0  0  0  0  0  0  0  0  0
    1.9860   -0.1302    1.0327 C   0  0  0  0  0  0  0  0  0  0  0  0
    0.7944   -0.7350    0.3753 C   0  0  0  0  0  0  0  0  0  0  0  0
    0.4936   -2.0378    0.2659 C   0  0  0  0  0  0  0  0  0  0  0  0
    1.3270   -3.1735    0.7763 C   0  0  0  0  0  0  0  0  0  0  0  0
    2.1778   -3.7892   -0.3498 C   0  0  0  0  0  0  0  0  0  0  0  0
    3.0226   -4.9029    0.1596 C   0  0  0  0  0  0  0  0  0  0  0  0
    4.3470   -4.8820    0.3721 C   0  0  0  0  0  0  0  0  0  0  0  0
    5.2538   -3.7101    0.1403 C   0  0  0  0  0  0  0  0  0  0  0  0
    5.5190   -2.9541    1.4372 C   0  0  0  0  0  0  0  0  0  0  0  0
    6.4143   -1.7663    1.3033 C   0  0  0  0  0  0  0  0  0  0  0  0
    6.8880   -1.3711    0.2662 O   0  0  0  0  0  0  0  0  0  0  0  0
    4.9294   -6.1133    0.9156 C   0  0  0  0  0  0  0  0  0  0  0  0
    6.1020   -6.2608    1.1819 O   0  0  0  0  0  0  0  0  0  0  0  0
   -0.7429   -2.3517   -0.4577 C   0  0  0  0  0  0  0  0  0  0  0  0
   -1.1656   -3.4710   -0.6478 O   0  0  0  0  0  0  0  0  0  0  0  0
    6.2089    1.8072    0.2709 H   0  0  0  0  0  0  0  0  0  0  0  0
    3.8678    1.9378    1.1006 H   0  0  0  0  0  0  0  0  0  0  0  0
    4.6140    0.4373    1.5184 H   0  0  0  0  0  0  0  0  0  0  0  0
    3.4252   -0.6563   -0.4852 H   0  0  0  0  0  0  0  0  0  0  0  0
    2.6188    0.8679   -0.7787 H   0  0  0  0  0  0  0  0  0  0  0  0
    1.6685    0.7710    1.5640 H   0  0  0  0  0  0  0  0  0  0  0  0
    2.4161   -0.8018    1.7787 H   0  0  0  0  0  0  0  0  0  0  0  0
    0.1122   -0.0250   -0.0874 H   0  0  0  0  0  0  0  0  0  0  0  0
    0.6844   -3.9435    1.2088 H   0  0  0  0  0  0  0  0  0  0  0  0
    1.9842   -2.8358    1.5791 H   0  0  0  0  0  0  0  0  0  0  0  0
    2.7836   -3.0089   -0.8112 H   0  0  0  0  0  0  0  0  0  0  0  0
    1.5154   -4.1801   -1.1255 H   0  0  0  0  0  0  0  0  0  0  0  0
    2.4874   -5.8170    0.4077 H   0  0  0  0  0  0  0  0  0  0  0  0
    4.8201   -3.0358   -0.5986 H   0  0  0  0  0  0  0  0  0  0  0  0
    6.1998   -4.0564   -0.2804 H   0  0  0  0  0  0  0  0  0  0  0  0
    4.5858   -2.5980    1.8924 H   0  0  0  0  0  0  0  0  0  0  0  0
    5.9632   -3.6028    2.1999 H   0  0  0  0  0  0  0  0  0  0  0  0
    6.6199   -1.2424    2.2543 H   0  0  0  0  0  0  0  0  0  0  0  0
    4.2062   -6.9345    1.0726 H   0  0  0  0  0  0  0  0  0  0  0  0
   -1.2928   -1.4686   -0.8320 H   0  0  0  0  0  0  0  0  0  0  0  0
  1  2  2  0
  2  3  1  0
  2 20  1  0
  3  4  1  0
  3 21  1  0
  3 22  1  0
  4  5  1  0
  4 23  1  0
  4 24  1  0
  5  6  1  0
  5 25  1  0
  5 26  1  0
  6  7  2  0
  6 27  1  0
  7  8  1  0
  7 18  1  0
  8  9  1  0
  8 28  1  0
  8 29  1  0
  9 10  1  0
  9 30  1  0
  9 31  1  0
 10 11  2  0
 10 32  1  0
 11 12  1  0
 11 16  1  0
 12 13  1  0
 12 33  1  0
 12 34  1  0
 13 14  1  0
 13 35  1  0
 13 36  1  0
 14 15  2  0
 14 37  1  0
 16 17  2  0
 16 38  1  0
 18 19  2  0
 18 39  1  0
M  END
