
     RDKit          3D

 60 61  0  0  0  0  0  0  0  0999 V2000
    7.6117   -3.1137   -2.0016 O   0  0  0  0  0  0  0  0  0  0  0  0
    7.6638   -1.7878   -2.0665 C   0  0  0  0  0  0  0  0  0  0  0  0
    8.2514   -1.1915   -2.9340 O   0  0  0  0  0  0  0  0  0  0  0  0
    6.9053   -1.1486   -0.9369 C   0  0  0  0  0  0  0  0  0  0  0  0
    6.9442    0.3708   -0.9797 C   0  0  0  0  0  0  0  0  0  0  0  0
    6.1766    0.9743    0.2014 C   0  0  1  0  0  0  0  0  0  0  0  0
    6.3272    2.4897    0.2226 C   0  0  0  0  0  0  0  0  0  0  0  0
    7.5554    2.8452    0.5688 O   0  0  0  0  0  0  0  0  0  0  0  0
    5.4523    3.2650   -0.0587 O   0  0  0  0  0  0  0  0  0  0  0  0
    4.7911    0.6020    0.1374 N   0  0  0  0  0  0  0  0  0  0  0  0
    3.9883    0.6761    1.2198 C   0  0  0  0  0  0  0  0  0  0  0  0
    4.4022    1.0417    2.3099 O   0  0  0  0  0  0  0  0  0  0  0  0
    2.5710    0.2574    1.0218 C   0  0  0  0  0  0  0  0  0  0  0  0
    2.1696   -0.5796   -0.0145 C   0  0  0  0  0  0  0  0  0  0  0  0
    0.8423   -0.9674   -0.1301 C   0  0  0  0  0  0  0  0  0  0  0  0
    1.6175    0.6846    1.9467 C   0  0  0  0  0  0  0  0  0  0  0  0
    0.2961    0.2982    1.8255 C   0  0  0  0  0  0  0  0  0  0  0  0
   -0.1122   -0.5312    0.7810 C   0  0  0  0  0  0  0  0  0  0  0  0
   -1.5480   -0.9534    0.6319 C   0  0  1  0  0  0  0  0  0  0  0  0
   -2.1244   -1.8523    2.1153 S   0  0  0  0  0  0  0  0  0  0  0  0
   -0.9350   -3.2088    2.1572 C   0  0  0  0  0  0  0  0  0  0  0  0
   -2.4743    0.2398    0.3838 C   0  0  0  0  0  0  0  0  0  0  0  0
   -3.9063   -0.1446    0.0360 C   0  0  0  0  0  0  0  0  0  0  0  0
   -4.7715    1.0796   -0.2753 C   0  0  0  0  0  0  0  0  0  0  0  0
   -6.1927    0.7262   -0.5960 C   0  0  0  0  0  0  0  0  0  0  0  0
   -6.5724    0.5530   -1.9505 C   0  0  0  0  0  0  0  0  0  0  0  0
   -5.8615    0.7015   -2.9454 O   0  0  0  0  0  0  0  0  0  0  0  0
   -7.9057    0.1764   -2.1409 N   0  0  0  0  0  0  0  0  0  0  0  0
   -8.7707   -0.0306   -1.1250 C   0  0  0  0  0  0  0  0  0  0  0  0
  -10.0137   -0.4323   -1.4316 N   0  0  0  0  0  0  0  0  0  0  0  0
   -8.4263    0.1143    0.1263 N   0  0  0  0  0  0  0  0  0  0  0  0
   -7.1468    0.4782    0.3847 C   0  0  0  0  0  0  0  0  0  0  0  0
   -6.8527    0.5534    1.7014 N   0  0  0  0  0  0  0  0  0  0  0  0
    5.8773   -1.5204   -0.9663 H   0  0  0  0  0  0  0  0  0  0  0  0
    7.3216   -1.5132    0.0072 H   0  0  0  0  0  0  0  0  0  0  0  0
    7.9778    0.7139   -0.9409 H   0  0  0  0  0  0  0  0  0  0  0  0
    6.5227    0.7402   -1.9183 H   0  0  0  0  0  0  0  0  0  0  0  0
    6.6045    0.5831    1.1285 H   0  0  0  0  0  0  0  0  0  0  0  0
    4.3750    0.5310   -0.7778 H   0  0  0  0  0  0  0  0  0  0  0  0
    2.8837   -0.9699   -0.7289 H   0  0  0  0  0  0  0  0  0  0  0  0
    0.5519   -1.6286   -0.9376 H   0  0  0  0  0  0  0  0  0  0  0  0
    1.9134    1.3227    2.7690 H   0  0  0  0  0  0  0  0  0  0  0  0
   -0.4243    0.6302    2.5631 H   0  0  0  0  0  0  0  0  0  0  0  0
   -1.6272   -1.6372   -0.2189 H   0  0  0  0  0  0  0  0  0  0  0  0
   -1.2112   -3.8561    2.9878 H   0  0  0  0  0  0  0  0  0  0  0  0
   -0.9696   -3.7913    1.2376 H   0  0  0  0  0  0  0  0  0  0  0  0
    0.0791   -2.8469    2.3199 H   0  0  0  0  0  0  0  0  0  0  0  0
   -2.4646    0.9029    1.2548 H   0  0  0  0  0  0  0  0  0  0  0  0
   -2.0455    0.8146   -0.4423 H   0  0  0  0  0  0  0  0  0  0  0  0
   -3.9073   -0.8112   -0.8318 H   0  0  0  0  0  0  0  0  0  0  0  0
   -4.3565   -0.7088    0.8570 H   0  0  0  0  0  0  0  0  0  0  0  0
   -4.7214    1.7785    0.5672 H   0  0  0  0  0  0  0  0  0  0  0  0
   -4.3365    1.6193   -1.1191 H   0  0  0  0  0  0  0  0  0  0  0  0
   -8.2077    0.0422   -3.0964 H   0  0  0  0  0  0  0  0  0  0  0  0
  -10.3680   -0.3515   -2.3692 H   0  0  0  0  0  0  0  0  0  0  0  0
  -10.6948   -0.4420   -0.6920 H   0  0  0  0  0  0  0  0  0  0  0  0
   -6.0140    1.0137    2.0070 H   0  0  0  0  0  0  0  0  0  0  0  0
   -7.6194    0.5614    2.3520 H   0  0  0  0  0  0  0  0  0  0  0  0
    8.1002   -3.5023   -2.7426 H   0  0  0  0  0  0  0  0  0  0  0  0
    7.6500    3.8094    0.5368 H   0  0  0  0  0  0  0  0  0  0  0  0
  3  2  2  0
  2  1  1  0
  2  4  1  0
  4  5  1  0
  5  6  1  0
 21 20  1  0
  6 10  1  0
  6  7  1  0
 20 19  1  0
 12 11  2  0
 10 11  1  0
 11 13  1  0
 13 16  2  0
 13 14  1  0
 16 17  1  0
 14 15  2  0
 17 18  2  0
 15 18  1  0
  9  7  2  0
  7  8  1  0
 18 19  1  0
 19 22  1  0
 22 23  1  0
 23 24  1  0
 24 25  1  0
 33 32  1  0
 25 32  2  0
 25 26  1  0
 32 31  1  0
 26 27  2  0
 26 28  1  0
 31 29  2  0
 28 29  1  0
 29 30  1  0
  4 34  1  0
  4 35  1  0
  5 36  1  0
  5 37  1  0
  6 38  1  1
 10 39  1  0
 14 40  1  0
 15 41  1  0
 16 42  1  0
 17 43  1  0
 19 44  1  6
 21 45  1  0
 21 46  1  0
 21 47  1  0
 22 48  1  0
 22 49  1  0
 23 50  1  0
 23 51  1  0
 24 52  1  0
 24 53  1  0
 28 54  1  0
 30 55  1  0
 30 56  1  0
 33 57  1  0
 33 58  1  0
  1 59  1  0
  8 60  1  0
M  END
