
     RDKit          3D

 18 19  0  0  0  0  0  0  0  0999 V2000
   -3.1448   -0.2876   -0.0404 C   0  0  0  0  0  0  0  0  0  0  0  0
   -1.7559    0.0183   -0.0209 C   0  0  0  0  0  0  0  0  0  0  0  0
    0.8690    0.7567    0.0034 C   0  0  0  0  0  0  0  0  0  0  0  0
    2.2257    1.1437    0.0104 C   0  0  0  0  0  0  0  0  0  0  0  0
    3.2113    0.1950   -0.0061 C   0  0  0  0  0  0  0  0  0  0  0  0
    1.5846   -1.5830   -0.0331 C   0  0  0  0  0  0  0  0  0  0  0  0
    0.5464   -0.6250   -0.0183 C   0  0  0  0  0  0  0  0  0  0  0  0
   -0.8152   -0.9779   -0.0281 C   0  0  0  0  0  0  0  0  0  0  0  0
   -4.2721   -0.5240   -0.0568 N   0  0  0  0  0  0  0  0  0  0  0  0
   -1.3286    1.3716    0.0043 C   0  0  0  0  0  0  0  0  0  0  0  0
   -0.0800    1.7234    0.0167 N   0  0  0  0  0  0  0  0  0  0  0  0
    2.8898   -1.1781   -0.0283 C   0  0  0  0  0  0  0  0  0  0  0  0
    2.4600    2.1995    0.0274 H   0  0  0  0  0  0  0  0  0  0  0  0
    4.2502    0.4957   -0.0022 H   0  0  0  0  0  0  0  0  0  0  0  0
    1.3376   -2.6368   -0.0492 H   0  0  0  0  0  0  0  0  0  0  0  0
   -1.1104   -2.0193   -0.0419 H   0  0  0  0  0  0  0  0  0  0  0  0
   -2.0717    2.1614    0.0146 H   0  0  0  0  0  0  0  0  0  0  0  0
    3.6842   -1.9112   -0.0412 H   0  0  0  0  0  0  0  0  0  0  0  0
  6 12  1  0
  6  7  2  0
 12  5  2  0
  8  7  1  0
  8  2  2  0
  7  3  1  0
  5  4  1  0
  2  1  1  0
  2 10  1  0
  9  1  3  0
  3  4  2  0
  3 11  1  0
 10 11  2  0
  4 13  1  0
  5 14  1  0
  6 15  1  0
  8 16  1  0
 10 17  1  0
 12 18  1  0
M  END
