
     RDKit          3D

 23 23  0  0  0  0  0  0  0  0999 V2000
   -0.8301    1.2929   -0.6309 C   0  0  0  0  0  0  0  0  0  0  0  0
    1.2989    0.0397   -0.2784 C   0  0  0  0  0  0  0  0  0  0  0  0
   -0.1266    0.2121    0.1984 C   0  0  2  0  0  0  0  0  0  0  0  0
   -0.8884   -1.1130    0.1116 C   0  0  0  0  0  0  0  0  0  0  0  0
   -2.3374   -0.9390    0.5543 C   0  0  0  0  0  0  0  0  0  0  0  0
   -3.0425    0.1457   -0.2533 C   0  0  0  0  0  0  0  0  0  0  0  0
   -2.2789    1.4640   -0.1865 C   0  0  0  0  0  0  0  0  0  0  0  0
    2.2207    0.3959    0.6386 N   0  0  0  0  0  0  0  0  0  0  0  0
    1.5869   -0.4002   -1.3783 O   0  0  0  0  0  0  0  0  0  0  0  0
    3.5353    0.4749    0.2863 O   0  0  0  0  0  0  0  0  0  0  0  0
   -0.2943    2.2416   -0.5436 H   0  0  0  0  0  0  0  0  0  0  0  0
   -0.8001    1.0082   -1.6871 H   0  0  0  0  0  0  0  0  0  0  0  0
   -0.1247    0.5354    1.2463 H   0  0  0  0  0  0  0  0  0  0  0  0
   -0.8610   -1.4739   -0.9207 H   0  0  0  0  0  0  0  0  0  0  0  0
   -0.3950   -1.8710    0.7253 H   0  0  0  0  0  0  0  0  0  0  0  0
   -2.8686   -1.8890    0.4607 H   0  0  0  0  0  0  0  0  0  0  0  0
   -2.3630   -0.6731    1.6169 H   0  0  0  0  0  0  0  0  0  0  0  0
   -3.1256   -0.1740   -1.2977 H   0  0  0  0  0  0  0  0  0  0  0  0
   -4.0636    0.2834    0.1102 H   0  0  0  0  0  0  0  0  0  0  0  0
   -2.2992    1.8422    0.8413 H   0  0  0  0  0  0  0  0  0  0  0  0
   -2.7672    2.2200   -0.8058 H   0  0  0  0  0  0  0  0  0  0  0  0
    1.9741    0.9251    1.4631 H   0  0  0  0  0  0  0  0  0  0  0  0
    3.9482   -0.3348    0.6123 H   0  0  0  0  0  0  0  0  0  0  0  0
  9  2  2  0
 10  8  1  0
  2  8  1  0
  2  3  1  0
  3  4  1  0
  3  1  1  0
  4  5  1  0
  1  7  1  0
  5  6  1  0
  7  6  1  0
  1 11  1  0
  1 12  1  0
  3 13  1  1
  4 14  1  0
  4 15  1  0
  5 16  1  0
  5 17  1  0
  6 18  1  0
  6 19  1  0
  7 20  1  0
  7 21  1  0
  8 22  1  0
 10 23  1  0
M  END
