
     RDKit          3D

 37 38  0  0  0  0  0  0  0  0999 V2000
    7.3937   -0.0690   -0.9566 C   0  0  0  0  0  0  0  0  0  0  0  0
    3.6719    0.1820   -0.1080 N   0  0  0  0  0  0  0  0  0  0  0  0
   -0.6463   -0.7881    0.5892 C   0  0  0  0  0  0  0  0  0  0  0  0
   -1.3247    0.3644    0.1920 C   0  0  0  0  0  0  0  0  0  0  0  0
   -2.7634    0.3822   -0.1499 C   0  0  0  0  0  0  0  0  0  0  0  0
   -3.2673   -0.3980   -1.1897 C   0  0  0  0  0  0  0  0  0  0  0  0
   -4.6110   -0.3341   -1.5262 C   0  0  0  0  0  0  0  0  0  0  0  0
   -5.4687    0.5042   -0.8244 C   0  0  0  0  0  0  0  0  0  0  0  0
   -4.9741    1.2841    0.2116 C   0  0  0  0  0  0  0  0  0  0  0  0
   -3.6276    1.2261    0.5446 C   0  0  0  0  0  0  0  0  0  0  0  0
   -0.5924    1.5504    0.1376 C   0  0  0  0  0  0  0  0  0  0  0  0
    0.7554    1.5870    0.4497 C   0  0  0  0  0  0  0  0  0  0  0  0
    0.7032   -0.7671    0.9036 C   0  0  0  0  0  0  0  0  0  0  0  0
    1.4140    0.4238    0.8299 C   0  0  0  0  0  0  0  0  0  0  0  0
    2.8811    0.4431    1.1310 C   0  0  0  0  0  0  0  0  0  0  0  0
    5.1463    0.1858    0.1049 C   0  0  0  0  0  0  0  0  0  0  0  0
    5.8891   -0.1005   -1.1848 C   0  0  0  0  0  0  0  0  0  0  0  0
    7.6973   -0.8059   -0.2122 H   0  0  0  0  0  0  0  0  0  0  0  0
    7.9254   -0.2920   -1.8804 H   0  0  0  0  0  0  0  0  0  0  0  0
    7.7214    0.9118   -0.6113 H   0  0  0  0  0  0  0  0  0  0  0  0
    3.3895   -0.7175   -0.5016 H   0  0  0  0  0  0  0  0  0  0  0  0
    3.4314    0.8776   -0.8171 H   0  0  0  0  0  0  0  0  0  0  0  0
   -2.6046   -1.0454   -1.7494 H   0  0  0  0  0  0  0  0  0  0  0  0
   -4.9890   -0.9369   -2.3418 H   0  0  0  0  0  0  0  0  0  0  0  0
   -6.5173    0.5513   -1.0875 H   0  0  0  0  0  0  0  0  0  0  0  0
   -5.6349    1.9407    0.7622 H   0  0  0  0  0  0  0  0  0  0  0  0
   -3.2465    1.8329    1.3567 H   0  0  0  0  0  0  0  0  0  0  0  0
   -1.0936    2.4597   -0.1674 H   0  0  0  0  0  0  0  0  0  0  0  0
    1.2932    2.5256    0.3988 H   0  0  0  0  0  0  0  0  0  0  0  0
    1.1955   -1.6777    1.2207 H   0  0  0  0  0  0  0  0  0  0  0  0
    3.1607   -0.3245    1.8498 H   0  0  0  0  0  0  0  0  0  0  0  0
    3.2002    1.4117    1.5110 H   0  0  0  0  0  0  0  0  0  0  0  0
    5.4016    1.1658    0.5056 H   0  0  0  0  0  0  0  0  0  0  0  0
    5.3551   -0.5661    0.8644 H   0  0  0  0  0  0  0  0  0  0  0  0
    5.6137    0.6391   -1.9407 H   0  0  0  0  0  0  0  0  0  0  0  0
    5.5943   -1.0794   -1.5707 H   0  0  0  0  0  0  0  0  0  0  0  0
   -1.4906   -2.2912    0.7525 Cl  0  0  0  0  0  0  0  0  0  0  0  0
  7  6  2  0
  7  8  1  0
  6  5  1  0
 37  3  1  0
  8  9  2  0
  5  4  1  0
  5 10  2  0
  9 10  1  0
  3  4  2  0
  3 13  1  0
  4 11  1  0
 13 14  2  0
 11 12  2  0
 14 12  1  0
 14 15  1  0
  2 15  1  0
  2 16  1  0
 17 16  1  0
 17  1  1  0
  1 18  1  0
  1 19  1  0
  1 20  1  0
  2 21  1  0
  2 22  1  0
  6 23  1  0
  7 24  1  0
  8 25  1  0
  9 26  1  0
 10 27  1  0
 11 28  1  0
 12 29  1  0
 13 30  1  0
 15 31  1  0
 15 32  1  0
 16 33  1  0
 16 34  1  0
 17 35  1  0
 17 36  1  0
M  CHG  1   2   1
M  END
