
     RDKit          3D

 40 42  0  0  0  0  0  0  0  0999 V2000
   -1.8813    1.0741    0.7234 C   0  0  0  0  0  0  0  0  0  0  0  0
   -3.0704    0.2215    0.2799 C   0  0  1  0  0  0  0  0  0  0  0  0
    3.2642   -1.0280   -0.1047 C   0  0  0  0  0  0  0  0  0  0  0  0
   -4.4546   -0.6418   -1.6540 C   0  0  0  0  0  0  0  0  0  0  0  0
   -5.7252   -0.0992   -1.0089 C   0  0  0  0  0  0  0  0  0  0  0  0
   -5.5821   -0.0436    0.5081 C   0  0  0  0  0  0  0  0  0  0  0  0
   -4.3529    0.7606    0.9169 C   0  0  0  0  0  0  0  0  0  0  0  0
   -3.2261    0.1636   -1.2406 C   0  0  0  0  0  0  0  0  0  0  0  0
    4.3501   -0.2198   -0.4223 C   0  0  0  0  0  0  0  0  0  0  0  0
    4.2159    1.1620   -0.3856 C   0  0  0  0  0  0  0  0  0  0  0  0
    3.0000    1.7596   -0.0271 C   0  0  0  0  0  0  0  0  0  0  0  0
    1.9218    0.9618    0.2756 C   0  0  0  0  0  0  0  0  0  0  0  0
    0.6028    1.5303    0.6988 C   0  0  0  0  0  0  0  0  0  0  0  0
   -0.5217    0.6364    0.2198 C   0  0  1  0  0  0  0  0  0  0  0  0
    0.8837   -1.2780    0.5442 C   0  0  0  0  0  0  0  0  0  0  0  0
    2.0271   -0.4369    0.2251 C   0  0  0  0  0  0  0  0  0  0  0  0
    5.2296    1.9809   -0.6832 O   0  0  0  0  0  0  0  0  0  0  0  0
   -0.3058   -0.7170    0.6775 O   0  0  0  0  0  0  0  0  0  0  0  0
    0.9682   -2.4880    0.7036 O   0  0  0  0  0  0  0  0  0  0  0  0
   -2.0303    2.1031    0.3798 H   0  0  0  0  0  0  0  0  0  0  0  0
   -1.8524    1.1178    1.8174 H   0  0  0  0  0  0  0  0  0  0  0  0
   -2.9234   -0.8029    0.6445 H   0  0  0  0  0  0  0  0  0  0  0  0
   -4.3166   -1.6867   -1.3550 H   0  0  0  0  0  0  0  0  0  0  0  0
   -4.5502   -0.6419   -2.7426 H   0  0  0  0  0  0  0  0  0  0  0  0
   -5.9250    0.9079   -1.3917 H   0  0  0  0  0  0  0  0  0  0  0  0
   -6.5846   -0.7140   -1.2885 H   0  0  0  0  0  0  0  0  0  0  0  0
   -6.4789    0.3857    0.9615 H   0  0  0  0  0  0  0  0  0  0  0  0
   -5.4939   -1.0634    0.8987 H   0  0  0  0  0  0  0  0  0  0  0  0
   -4.2508    0.7647    2.0060 H   0  0  0  0  0  0  0  0  0  0  0  0
   -4.4869    1.8062    0.6136 H   0  0  0  0  0  0  0  0  0  0  0  0
   -3.3145    1.1861   -1.6280 H   0  0  0  0  0  0  0  0  0  0  0  0
   -2.3361   -0.2687   -1.7054 H   0  0  0  0  0  0  0  0  0  0  0  0
    5.2947   -0.6798   -0.6891 H   0  0  0  0  0  0  0  0  0  0  0  0
    2.9171    2.8386    0.0057 H   0  0  0  0  0  0  0  0  0  0  0  0
    0.5716    1.6215    1.7900 H   0  0  0  0  0  0  0  0  0  0  0  0
    0.4634    2.5327    0.2920 H   0  0  0  0  0  0  0  0  0  0  0  0
   -0.5067    0.6170   -0.8750 H   0  0  0  0  0  0  0  0  0  0  0  0
    2.6017   -2.7635    0.1797 H   0  0  0  0  0  0  0  0  0  0  0  0
    6.0185    1.4800   -0.9220 H   0  0  0  0  0  0  0  0  0  0  0  0
    3.4353   -2.3461   -0.1291 O   0  0  0  0  0  0  0  0  0  0  0  0
 17 10  1  0
 10 11  2  0
 10  9  1  0
 11 12  1  0
  9  3  2  0
 12 13  1  0
 12 16  2  0
  3 16  1  0
  3 40  1  0
 13 14  1  0
 16 15  1  0
 14  1  1  0
 14 18  1  0
 15 18  1  0
 15 19  2  0
  1  2  1  0
  8  2  1  0
  8  4  1  0
  2  7  1  0
  4  5  1  0
  7  6  1  0
  5  6  1  0
  1 20  1  0
  1 21  1  0
  2 22  1  1
  4 23  1  0
  4 24  1  0
  5 25  1  0
  5 26  1  0
  6 27  1  0
  6 28  1  0
  7 29  1  0
  7 30  1  0
  8 31  1  0
  8 32  1  0
  9 33  1  0
 11 34  1  0
 13 35  1  0
 13 36  1  0
 14 37  1  6
 40 38  1  0
 17 39  1  0
M  END
