
     RDKit          3D

 53 54  0  0  0  0  0  0  0  0999 V2000
   -5.6213   -1.0308    0.0089 C   0  0  0  0  0  0  0  0  0  0  0  0
   -6.9908   -0.6419    0.0131 C   0  0  0  0  0  0  0  0  0  0  0  0
   -4.5279   -0.0919   -0.0109 C   0  0  0  0  0  0  0  0  0  0  0  0
   -7.7076   -1.7356    0.0323 N   0  0  0  0  0  0  0  0  0  0  0  0
   -4.9080    1.2499   -0.0247 C   0  0  0  0  0  0  0  0  0  0  0  0
   -6.2509    1.6309   -0.0200 C   0  0  0  0  0  0  0  0  0  0  0  0
   -2.1120    0.3237   -0.0382 C   0  0  0  0  0  0  0  0  0  0  0  0
   -0.8397   -0.5036    0.0171 C   0  0  0  0  0  0  0  0  0  0  0  0
    0.4044    0.3747   -0.0116 C   0  0  0  0  0  0  0  0  0  0  0  0
    4.2375   -0.3682    0.0258 C   0  0  0  0  0  0  0  0  0  0  0  0
    5.4875    0.5031    0.0063 C   0  0  0  0  0  0  0  0  0  0  0  0
    6.7813   -0.3012    0.0203 C   0  0  0  0  0  0  0  0  0  0  0  0
    8.0289    0.5727   -0.0041 C   0  0  0  0  0  0  0  0  0  0  0  0
   10.5467    0.6610   -0.0167 C   0  0  0  0  0  0  0  0  0  0  0  0
   -5.5613   -2.3290    0.0257 N   0  0  0  0  0  0  0  0  0  0  0  0
   -7.3093    0.7441   -0.0019 C   0  0  0  0  0  0  0  0  0  0  0  0
   -3.2810   -0.5338   -0.0142 N   0  0  0  0  0  0  0  0  0  0  0  0
   -6.8168   -2.7418    0.0395 O   0  0  0  0  0  0  0  0  0  0  0  0
   -8.6488    1.1930   -0.0021 N   0  0  0  0  0  0  0  0  0  0  0  0
   -8.8727    2.3887   -0.0135 O   0  0  0  0  0  0  0  0  0  0  0  0
   -9.5234    0.3483    0.0090 O   0  0  0  0  0  0  0  0  0  0  0  0
    1.6948   -0.4340    0.0260 C   0  0  0  0  0  0  0  0  0  0  0  0
    2.9446    0.4373    0.0026 C   0  0  0  0  0  0  0  0  0  0  0  0
    9.3201   -0.2364    0.0047 C   0  0  0  0  0  0  0  0  0  0  0  0
   11.8515   -0.0853   -0.0117 C   0  0  0  0  0  0  0  0  0  0  0  0
   11.9694   -1.2853    0.0137 O   0  0  0  0  0  0  0  0  0  0  0  0
   12.8939    0.7418   -0.0384 O   0  0  0  0  0  0  0  0  0  0  0  0
   -4.1596    2.0276   -0.0411 H   0  0  0  0  0  0  0  0  0  0  0  0
   -6.4603    2.6919   -0.0331 H   0  0  0  0  0  0  0  0  0  0  0  0
   -2.1497    1.0114    0.8120 H   0  0  0  0  0  0  0  0  0  0  0  0
   -2.1241    0.9330   -0.9475 H   0  0  0  0  0  0  0  0  0  0  0  0
   -0.8398   -1.1122    0.9265 H   0  0  0  0  0  0  0  0  0  0  0  0
   -0.8191   -1.1960   -0.8301 H   0  0  0  0  0  0  0  0  0  0  0  0
    0.3914    0.9963   -0.9132 H   0  0  0  0  0  0  0  0  0  0  0  0
    0.3823    1.0657    0.8378 H   0  0  0  0  0  0  0  0  0  0  0  0
    4.2568   -1.0487   -0.8329 H   0  0  0  0  0  0  0  0  0  0  0  0
    4.2535   -1.0051    0.9175 H   0  0  0  0  0  0  0  0  0  0  0  0
    5.4688    1.1445   -0.8822 H   0  0  0  0  0  0  0  0  0  0  0  0
    6.8026   -0.9398    0.9105 H   0  0  0  0  0  0  0  0  0  0  0  0
    8.0056    1.2137   -0.8925 H   0  0  0  0  0  0  0  0  0  0  0  0
    8.0150    1.2490    0.8578 H   0  0  0  0  0  0  0  0  0  0  0  0
   10.5308    1.3107   -0.8979 H   0  0  0  0  0  0  0  0  0  0  0  0
   10.5403    1.3390    0.8431 H   0  0  0  0  0  0  0  0  0  0  0  0
   -3.1300   -1.5320   -0.0192 H   0  0  0  0  0  0  0  0  0  0  0  0
    1.7052   -1.0611    0.9243 H   0  0  0  0  0  0  0  0  0  0  0  0
    1.7165   -1.1223   -0.8260 H   0  0  0  0  0  0  0  0  0  0  0  0
    2.9264    1.1208    0.8588 H   0  0  0  0  0  0  0  0  0  0  0  0
    2.9282    1.0710   -0.8913 H   0  0  0  0  0  0  0  0  0  0  0  0
    9.3425   -0.8758    0.8915 H   0  0  0  0  0  0  0  0  0  0  0  0
    9.3343   -0.9053   -0.8601 H   0  0  0  0  0  0  0  0  0  0  0  0
   13.7187    0.2337   -0.0350 H   0  0  0  0  0  0  0  0  0  0  0  0
    5.4712    1.1797    0.8681 H   0  0  0  0  0  0  0  0  0  0  0  0
    6.7967   -0.9797   -0.8400 H   0  0  0  0  0  0  0  0  0  0  0  0
 13 12  1  0
 13 24  1  0
 12 11  1  0
 24 14  1  0
 11 10  1  0
 14 25  1  0
 10 23  1  0
 25 26  2  0
 25 27  1  0
 23 22  1  0
 22  9  1  0
  9  8  1  0
  8  7  1  0
  7 17  1  0
 17  3  1  0
  3  1  1  0
  3  5  2  0
 15  1  2  0
 15 18  1  0
  1  2  1  0
  5  6  1  0
 18  4  1  0
  2  4  2  0
  2 16  1  0
  6 16  2  0
 16 19  1  0
 19 20  1  0
 19 21  2  0
  5 28  1  0
  6 29  1  0
  7 30  1  0
  7 31  1  0
  8 32  1  0
  8 33  1  0
  9 34  1  0
  9 35  1  0
 10 36  1  0
 10 37  1  0
 11 38  1  0
 12 39  1  0
 13 40  1  0
 13 41  1  0
 14 42  1  0
 14 43  1  0
 17 44  1  0
 22 45  1  0
 22 46  1  0
 23 47  1  0
 23 48  1  0
 24 49  1  0
 24 50  1  0
 27 51  1  0
 11 52  1  0
 12 53  1  0
M  CHG  2  19   1  20  -1
M  END
