
     RDKit          3D

 28 29  0  0  0  0  0  0  0  0999 V2000
   -3.9302   -1.2854    0.8233 N   0  0  0  0  0  0  0  0  0  0  0  0
   -6.5069    0.4192   -0.8247 N   0  0  0  0  0  0  0  0  0  0  0  0
   -5.1941   -1.1104    0.3735 N   0  0  0  0  0  0  0  0  0  0  0  0
   -1.7004   -0.2491    0.9703 C   0  0  0  0  0  0  0  0  0  0  0  0
   -5.3587    0.0278   -0.2305 C   0  0  0  0  0  0  0  0  0  0  0  0
   -0.7492   -0.2600   -0.2255 C   0  0  0  0  0  0  0  0  0  0  0  0
   -3.1354   -0.3056    0.5814 C   0  0  0  0  0  0  0  0  0  0  0  0
   -3.9156    0.9935   -0.2833 S   0  0  0  0  0  0  0  0  0  0  0  0
   -7.3286   -0.1048   -0.5658 H   0  0  0  0  0  0  0  0  0  0  0  0
   -6.6736    1.4047   -0.9416 H   0  0  0  0  0  0  0  0  0  0  0  0
   -1.5077   -1.1130    1.6094 H   0  0  0  0  0  0  0  0  0  0  0  0
   -1.5221    0.6425    1.5778 H   0  0  0  0  0  0  0  0  0  0  0  0
   -0.9461   -1.1444   -0.8378 H   0  0  0  0  0  0  0  0  0  0  0  0
   -0.9379    0.6083   -0.8641 H   0  0  0  0  0  0  0  0  0  0  0  0
    0.7084   -0.2546    0.2140 C   0  0  0  0  0  0  0  0  0  0  0  0
    1.6595   -0.2880   -0.9815 C   0  0  0  0  0  0  0  0  0  0  0  0
    3.0946   -0.3428   -0.5930 C   0  0  0  0  0  0  0  0  0  0  0  0
    3.8943   -1.3153   -0.8483 N   0  0  0  0  0  0  0  0  0  0  0  0
    5.1587   -1.1380   -0.4004 N   0  0  0  0  0  0  0  0  0  0  0  0
    5.3188   -0.0058    0.2160 C   0  0  0  0  0  0  0  0  0  0  0  0
    3.8703    0.9512    0.2838 S   0  0  0  0  0  0  0  0  0  0  0  0
    6.4659    0.3853    0.8113 N   0  0  0  0  0  0  0  0  0  0  0  0
    0.9000    0.6354    0.8212 H   0  0  0  0  0  0  0  0  0  0  0  0
    0.9020   -1.1172    0.8575 H   0  0  0  0  0  0  0  0  0  0  0  0
    1.4607   -1.1693   -1.5943 H   0  0  0  0  0  0  0  0  0  0  0  0
    1.4873    0.5863   -1.6159 H   0  0  0  0  0  0  0  0  0  0  0  0
    7.2904   -0.1315    0.5472 H   0  0  0  0  0  0  0  0  0  0  0  0
    6.6264    1.3698    0.9446 H   0  0  0  0  0  0  0  0  0  0  0  0
  2  5  1  0
  8  5  1  0
  8  7  1  0
  5  3  2  0
  7  4  1  0
  7  1  2  0
  3  1  1  0
  4  6  1  0
  2  9  1  0
  2 10  1  0
  4 11  1  0
  4 12  1  0
  6 13  1  0
  6 14  1  0
  6 15  1  0
 15 16  1  0
 16 17  1  0
 17 18  2  0
 18 19  1  0
 19 20  2  0
 20 21  1  0
 21 17  1  0
 20 22  1  0
 15 23  1  0
 15 24  1  0
 16 25  1  0
 16 26  1  0
 22 27  1  0
 22 28  1  0
M  END
