
     RDKit          3D

 38 39  0  0  0  0  0  0  0  0999 V2000
    2.6772    0.1636   -0.2070 C   0  0  0  0  0  0  0  0  0  0  0  0
    1.4762    0.7957    0.0679 C   0  0  0  0  0  0  0  0  0  0  0  0
    0.3737    0.0708    0.5047 C   0  0  0  0  0  0  0  0  0  0  0  0
    0.5022   -1.3015    0.6848 C   0  0  0  0  0  0  0  0  0  0  0  0
    1.7019   -1.9413    0.4211 C   0  0  0  0  0  0  0  0  0  0  0  0
    2.7913   -1.2147   -0.0288 C   0  0  0  0  0  0  0  0  0  0  0  0
   -3.3169    0.7027    1.1338 C   0  0  1  0  0  0  0  0  0  0  0  0
   -4.3763   -0.0319    0.3435 C   0  0  0  0  0  0  0  0  0  0  0  0
   -4.5194    0.2311   -1.0263 C   0  0  0  0  0  0  0  0  0  0  0  0
   -5.4756   -0.4463   -1.7773 C   0  0  0  0  0  0  0  0  0  0  0  0
   -5.2013   -0.9913    0.9174 C   0  0  0  0  0  0  0  0  0  0  0  0
   -6.2883   -1.3967   -1.1774 C   0  0  0  0  0  0  0  0  0  0  0  0
   -6.1548   -1.6756    0.1737 C   0  0  0  0  0  0  0  0  0  0  0  0
    4.5966    0.5490   -1.9843 O   0  0  0  0  0  0  0  0  0  0  0  0
    3.5414    2.5246   -0.8671 O   0  0  0  0  0  0  0  0  0  0  0  0
   -3.5442    0.7120    2.6411 C   0  0  0  0  0  0  0  0  0  0  0  0
    4.2601   -2.0554   -0.3266 Cl  0  0  0  0  0  0  0  0  0  0  0  0
    4.0341    1.1584   -0.7933 S   0  0  1  0  0  0  0  0  0  0  0  0
    5.1299    0.9736    0.4139 N   0  0  0  0  0  0  0  0  0  0  0  0
   -0.8820    0.8326    0.8056 C   0  0  0  0  0  0  0  0  0  0  0  0
   -0.8377    2.0358    1.0254 O   0  0  0  0  0  0  0  0  0  0  0  0
   -2.0177    0.1249    0.8091 N   0  0  0  0  0  0  0  0  0  0  0  0
   -3.7064    1.1557   -1.5729 O   0  0  0  0  0  0  0  0  0  0  0  0
    1.3904    1.8658   -0.0577 H   0  0  0  0  0  0  0  0  0  0  0  0
   -0.3159   -1.9006    1.0628 H   0  0  0  0  0  0  0  0  0  0  0  0
    1.7916   -3.0076    0.5743 H   0  0  0  0  0  0  0  0  0  0  0  0
   -3.2951    1.7410    0.7982 H   0  0  0  0  0  0  0  0  0  0  0  0
   -5.5853   -0.2290   -2.8340 H   0  0  0  0  0  0  0  0  0  0  0  0
   -5.1070   -1.2111    1.9729 H   0  0  0  0  0  0  0  0  0  0  0  0
   -7.0287   -1.9137   -1.7738 H   0  0  0  0  0  0  0  0  0  0  0  0
   -6.7844   -2.4157    0.6490 H   0  0  0  0  0  0  0  0  0  0  0  0
   -3.4666   -0.2855    3.0732 H   0  0  0  0  0  0  0  0  0  0  0  0
   -2.7958    1.3422    3.1202 H   0  0  0  0  0  0  0  0  0  0  0  0
   -4.5265    1.1184    2.8825 H   0  0  0  0  0  0  0  0  0  0  0  0
    6.0849    0.9301    0.0773 H   0  0  0  0  0  0  0  0  0  0  0  0
    5.0202    1.6421    1.1677 H   0  0  0  0  0  0  0  0  0  0  0  0
   -2.0000   -0.8514    0.5627 H   0  0  0  0  0  0  0  0  0  0  0  0
   -3.9214    1.2834   -2.5037 H   0  0  0  0  0  0  0  0  0  0  0  0
 13 11  2  0
 13 12  1  0
 11  8  1  0
 12 10  2  0
  8  7  1  0
  8  9  2  0
 16  7  1  0
  7 22  1  0
 21 20  2  0
 10  9  1  0
  9 23  1  0
 22 20  1  0
 20  3  1  0
  3  4  2  0
  3  2  1  0
  4  5  1  0
  2  1  2  0
  5  6  2  0
  1  6  1  0
  1 18  1  0
 18 19  1  1
  6 17  1  0
 15 18  2  0
 18 14  2  0
  2 24  1  0
  4 25  1  0
  5 26  1  0
  7 27  1  6
 10 28  1  0
 11 29  1  0
 12 30  1  0
 13 31  1  0
 16 32  1  0
 16 33  1  0
 16 34  1  0
 19 35  1  0
 19 36  1  0
 22 37  1  0
 23 38  1  0
M  END
