
     RDKit          3D

 32 34  0  0  0  0  0  0  0  0999 V2000
    4.9213   -0.5103    0.7811 O   0  0  0  0  0  0  0  0  0  0  0  0
    4.4664    0.4425    0.2007 C   0  0  0  0  0  0  0  0  0  0  0  0
    5.1572    1.5236   -0.1093 O   0  0  0  0  0  0  0  0  0  0  0  0
    3.0450    0.5239   -0.2468 C   0  0  0  0  0  0  0  0  0  0  0  0
    2.1964   -0.5243    0.0730 C   0  0  0  0  0  0  0  0  0  0  0  0
    2.5431    1.6078   -0.9592 C   0  0  0  0  0  0  0  0  0  0  0  0
    1.2085    1.5802   -1.3300 C   0  0  0  0  0  0  0  0  0  0  0  0
    0.3938    0.5740   -1.0465 N   0  0  0  0  0  0  0  0  0  0  0  0
    0.8784   -0.4367   -0.3551 C   0  0  0  0  0  0  0  0  0  0  0  0
   -0.0174   -1.4823   -0.0627 N   0  0  0  0  0  0  0  0  0  0  0  0
    0.4280   -2.7432   -0.1071 N   0  0  0  0  0  0  0  0  0  0  0  0
   -0.6302   -3.4936    0.0999 C   0  0  0  0  0  0  0  0  0  0  0  0
   -1.7857   -2.7139    0.2819 C   0  0  0  0  0  0  0  0  0  0  0  0
   -1.3574   -1.4121    0.1765 C   0  0  0  0  0  0  0  0  0  0  0  0
   -2.1167   -0.1749    0.3838 C   0  0  0  0  0  0  0  0  0  0  0  0
   -3.3150    0.0016   -0.3005 C   0  0  0  0  0  0  0  0  0  0  0  0
   -4.0839    1.1419   -0.0845 C   0  0  0  0  0  0  0  0  0  0  0  0
   -5.2448    1.3613   -0.7322 O   0  0  0  0  0  0  0  0  0  0  0  0
   -3.6543    2.1048    0.8250 C   0  0  0  0  0  0  0  0  0  0  0  0
   -2.4639    1.9149    1.5097 C   0  0  0  0  0  0  0  0  0  0  0  0
   -1.6906    0.7839    1.2997 C   0  0  0  0  0  0  0  0  0  0  0  0
    6.0754    1.4341    0.1881 H   0  0  0  0  0  0  0  0  0  0  0  0
    2.5414   -1.3781    0.6379 H   0  0  0  0  0  0  0  0  0  0  0  0
    3.1559    2.4540   -1.2331 H   0  0  0  0  0  0  0  0  0  0  0  0
    0.7824    2.4027   -1.8912 H   0  0  0  0  0  0  0  0  0  0  0  0
   -0.5389   -4.5686    0.1134 H   0  0  0  0  0  0  0  0  0  0  0  0
   -2.7864   -3.0467    0.5022 H   0  0  0  0  0  0  0  0  0  0  0  0
   -3.6419   -0.7484   -1.0126 H   0  0  0  0  0  0  0  0  0  0  0  0
   -5.4285    0.6436   -1.3485 H   0  0  0  0  0  0  0  0  0  0  0  0
   -4.2518    2.9920    0.9929 H   0  0  0  0  0  0  0  0  0  0  0  0
   -2.1384    2.6614    2.2224 H   0  0  0  0  0  0  0  0  0  0  0  0
   -0.7727    0.6465    1.8559 H   0  0  0  0  0  0  0  0  0  0  0  0
 21 20  2  0
 21 15  1  0
 20 19  1  0
 13 12  1  0
 13 14  2  0
 12 11  2  0
 14 15  1  0
 14 10  1  0
 15 16  2  0
 19 17  2  0
 11 10  1  0
 10  9  1  0
 16 17  1  0
 17 18  1  0
  5  9  1  0
  5  4  2  0
  9  8  2  0
  1  2  2  0
  8  7  1  0
  4  2  1  0
  4  6  1  0
  2  3  1  0
  7  6  2  0
  3 22  1  0
  5 23  1  0
  6 24  1  0
  7 25  1  0
 12 26  1  0
 13 27  1  0
 16 28  1  0
 18 29  1  0
 19 30  1  0
 20 31  1  0
 21 32  1  0
M  END
