
     RDKit          3D

 39 42  0  0  0  0  0  0  0  0999 V2000
   -0.0987   -2.2296    0.7578 O   0  0  0  0  0  0  0  0  0  0  0  0
   -0.6429   -1.2770    0.2506 C   0  0  0  0  0  0  0  0  0  0  0  0
    0.1188   -0.0455   -0.1081 C   0  0  0  0  0  0  0  0  0  0  0  0
    1.4807   -0.0855   -0.3856 C   0  0  0  0  0  0  0  0  0  0  0  0
    2.1725   -1.3118   -0.8618 C   0  0  0  0  0  0  0  0  0  0  0  0
    1.5766   -2.1779   -1.4635 O   0  0  0  0  0  0  0  0  0  0  0  0
    3.6709   -1.3868   -0.6869 C   0  0  0  0  0  0  0  0  0  0  0  0
    4.2959   -0.1816    0.0109 C   0  0  2  0  0  0  0  0  0  0  0  0
    5.8108   -0.1948   -0.1415 C   0  0  0  0  0  0  0  0  0  0  0  0
    3.9251   -0.1563    1.3777 O   0  0  0  0  0  0  0  0  0  0  0  0
    3.6962    1.0795   -0.6014 C   0  0  0  0  0  0  0  0  0  0  0  0
    2.2123    1.1160   -0.3888 C   0  0  0  0  0  0  0  0  0  0  0  0
    1.5716    2.3213   -0.1944 C   0  0  0  0  0  0  0  0  0  0  0  0
    0.1897    2.3809   -0.0224 C   0  0  0  0  0  0  0  0  0  0  0  0
   -0.3664    3.5733    0.1031 O   0  0  0  0  0  0  0  0  0  0  0  0
   -0.5506    1.1782    0.0330 C   0  0  0  0  0  0  0  0  0  0  0  0
   -2.0072    1.2276    0.1409 C   0  0  0  0  0  0  0  0  0  0  0  0
   -2.5870    2.3212    0.2410 O   0  0  0  0  0  0  0  0  0  0  0  0
   -2.7747   -0.0063    0.0583 C   0  0  0  0  0  0  0  0  0  0  0  0
   -2.1123   -1.2449    0.0697 C   0  0  0  0  0  0  0  0  0  0  0  0
   -2.8158   -2.4278   -0.0131 C   0  0  0  0  0  0  0  0  0  0  0  0
   -4.2048   -2.3819   -0.1371 C   0  0  0  0  0  0  0  0  0  0  0  0
   -4.8801   -1.1812   -0.1378 C   0  0  0  0  0  0  0  0  0  0  0  0
   -4.1791    0.0254   -0.0247 C   0  0  0  0  0  0  0  0  0  0  0  0
   -4.8834    1.1494   -0.0045 O   0  0  0  0  0  0  0  0  0  0  0  0
    3.9065   -2.3117   -0.1491 H   0  0  0  0  0  0  0  0  0  0  0  0
    4.1029   -1.5100   -1.6848 H   0  0  0  0  0  0  0  0  0  0  0  0
    6.1077   -0.1407   -1.1894 H   0  0  0  0  0  0  0  0  0  0  0  0
    6.2556    0.6536    0.3805 H   0  0  0  0  0  0  0  0  0  0  0  0
    6.2357   -1.1115    0.2737 H   0  0  0  0  0  0  0  0  0  0  0  0
    4.2676   -0.9505    1.8021 H   0  0  0  0  0  0  0  0  0  0  0  0
    4.1519    1.9727   -0.1688 H   0  0  0  0  0  0  0  0  0  0  0  0
    3.9180    1.1012   -1.6732 H   0  0  0  0  0  0  0  0  0  0  0  0
    2.1394    3.2437   -0.1944 H   0  0  0  0  0  0  0  0  0  0  0  0
   -1.3368    3.4543    0.2051 H   0  0  0  0  0  0  0  0  0  0  0  0
   -2.2997   -3.3774    0.0028 H   0  0  0  0  0  0  0  0  0  0  0  0
   -4.7651   -3.3029   -0.2266 H   0  0  0  0  0  0  0  0  0  0  0  0
   -5.9592   -1.1557   -0.2172 H   0  0  0  0  0  0  0  0  0  0  0  0
   -4.2683    1.9045    0.0973 H   0  0  0  0  0  0  0  0  0  0  0  0
 25 24  1  0
 23 24  1  0
 23 22  2  0
 24 19  2  0
 22 21  1  0
 19 17  1  0
 19 20  1  0
 18 17  2  0
 21 20  2  0
 17 16  1  0
 20  2  1  0
 15 14  1  0
 16 14  1  0
 16  3  2  0
  2  1  2  0
  2  3  1  0
 14 13  2  0
  3  4  1  0
 13 12  1  0
  4 12  2  0
  4  5  1  0
  6  5  2  0
 12 11  1  0
  5  7  1  0
 11  8  1  0
  7  8  1  0
  8  9  1  0
  8 10  1  1
  7 26  1  0
  7 27  1  0
  9 28  1  0
  9 29  1  0
  9 30  1  0
 10 31  1  0
 11 32  1  0
 11 33  1  0
 13 34  1  0
 15 35  1  0
 21 36  1  0
 22 37  1  0
 23 38  1  0
 25 39  1  0
M  END
