
     RDKit          3D

 47 50  0  0  0  0  0  0  0  0999 V2000
   -2.4121   -2.7743   -0.7592 C   0  0  0  0  0  0  0  0  0  0  0  0
    2.1449   -0.9364    1.3699 N   0  0  0  0  0  0  0  0  0  0  0  0
    1.7347    1.6478    0.3941 O   0  0  0  0  0  0  0  0  0  0  0  0
   -1.5028   -2.2953   -1.7289 C   0  0  0  0  0  0  0  0  0  0  0  0
    0.4161   -2.4581    1.1441 N   0  0  0  0  0  0  0  0  0  0  0  0
   -1.0506   -1.0107   -1.6486 C   0  0  0  0  0  0  0  0  0  0  0  0
   -1.4852   -0.1536   -0.6118 C   0  0  0  0  0  0  0  0  0  0  0  0
   -1.0246    1.1856   -0.4962 C   0  0  0  0  0  0  0  0  0  0  0  0
    0.5720    2.7247   -1.3132 C   0  0  0  0  0  0  0  0  0  0  0  0
    0.3342    3.8062   -2.1380 C   0  0  0  0  0  0  0  0  0  0  0  0
    1.1629    4.9204   -2.0753 C   0  0  0  0  0  0  0  0  0  0  0  0
    2.2196    4.9322   -1.1804 C   0  0  0  0  0  0  0  0  0  0  0  0
    2.4549    3.8484   -0.3416 C   0  0  0  0  0  0  0  0  0  0  0  0
    1.6255    2.7338   -0.3906 C   0  0  0  0  0  0  0  0  0  0  0  0
    2.9636    1.3884    1.0409 C   0  0  0  0  0  0  0  0  0  0  0  0
    2.7612    0.2284    1.9916 C   0  0  0  0  0  0  0  0  0  0  0  0
    2.8396   -1.6506    0.4403 C   0  0  0  0  0  0  0  0  0  0  0  0
    2.3646   -2.7575   -0.1555 C   0  0  0  0  0  0  0  0  0  0  0  0
    1.0601   -3.2517    0.2100 C   0  0  0  0  0  0  0  0  0  0  0  0
    0.8727   -1.3151    1.7505 C   0  0  0  0  0  0  0  0  0  0  0  0
   -1.4548    1.9954    0.5190 C   0  0  0  0  0  0  0  0  0  0  0  0
   -2.3581    1.4733    1.4549 C   0  0  0  0  0  0  0  0  0  0  0  0
   -2.8439    0.2057    1.4045 C   0  0  0  0  0  0  0  0  0  0  0  0
   -2.4051   -0.6316    0.3553 C   0  0  0  0  0  0  0  0  0  0  0  0
   -2.8591   -1.9634    0.2562 C   0  0  0  0  0  0  0  0  0  0  0  0
   -3.2111   -5.2234   -0.8842 N   0  0  0  0  0  0  0  0  0  0  0  0
   -2.8543   -4.1296   -0.8253 C   0  0  0  0  0  0  0  0  0  0  0  0
   -0.1782    1.5878   -1.4683 O   0  0  0  0  0  0  0  0  0  0  0  0
   -2.7537    2.2948    2.4367 F   0  0  0  0  0  0  0  0  0  0  0  0
   -1.1601   -2.9496   -2.5176 H   0  0  0  0  0  0  0  0  0  0  0  0
   -0.5063   -2.7558    1.4363 H   0  0  0  0  0  0  0  0  0  0  0  0
   -0.3478   -0.6546   -2.3880 H   0  0  0  0  0  0  0  0  0  0  0  0
   -0.4876    3.7639   -2.8413 H   0  0  0  0  0  0  0  0  0  0  0  0
    0.9809    5.7653   -2.7250 H   0  0  0  0  0  0  0  0  0  0  0  0
    2.8767    5.7898   -1.1255 H   0  0  0  0  0  0  0  0  0  0  0  0
    3.2892    3.8893    0.3450 H   0  0  0  0  0  0  0  0  0  0  0  0
    3.7397    1.1806    0.2962 H   0  0  0  0  0  0  0  0  0  0  0  0
    3.3048    2.2358    1.6423 H   0  0  0  0  0  0  0  0  0  0  0  0
    2.1338    0.5338    2.8238 H   0  0  0  0  0  0  0  0  0  0  0  0
    3.7310   -0.0557    2.4019 H   0  0  0  0  0  0  0  0  0  0  0  0
    3.8274   -1.2747    0.2105 H   0  0  0  0  0  0  0  0  0  0  0  0
    2.9589   -3.2907   -0.8810 H   0  0  0  0  0  0  0  0  0  0  0  0
   -1.1225    3.0214    0.6158 H   0  0  0  0  0  0  0  0  0  0  0  0
   -3.5388   -0.1605    2.1485 H   0  0  0  0  0  0  0  0  0  0  0  0
   -3.5540   -2.3429    0.9943 H   0  0  0  0  0  0  0  0  0  0  0  0
    0.5299   -4.2613   -0.2169 O   0  0  0  0  0  0  0  0  0  0  0  0
    0.2106   -0.7149    2.5684 O   0  0  0  0  0  0  0  0  0  0  0  0
 12 11  1  0
 12 13  2  0
 11 10  2  0
 13 14  1  0
 10  9  1  0
 14  9  2  0
 14  3  1  0
 47 20  2  0
 15  3  1  0
 15 16  1  0
  9 28  1  0
 20  5  1  0
 20  2  1  0
 16  2  1  0
  5 19  1  0
 28  8  1  0
  2 17  1  0
 21  8  2  0
 21 22  1  0
  8  7  1  0
 19 46  2  0
 19 18  1  0
 17 18  2  0
 29 22  1  0
 22 23  2  0
  7  6  2  0
  7 24  1  0
  6  4  1  0
 23 24  1  0
 24 25  2  0
  4  1  2  0
 25  1  1  0
  1 27  1  0
 27 26  3  0
  4 30  1  0
  5 31  1  0
  6 32  1  0
 10 33  1  0
 11 34  1  0
 12 35  1  0
 13 36  1  0
 15 37  1  0
 15 38  1  0
 16 39  1  0
 16 40  1  0
 17 41  1  0
 18 42  1  0
 21 43  1  0
 23 44  1  0
 25 45  1  0
M  END
