
     RDKit          3D

 23 24  0  0  0  0  0  0  0  0999 V2000
    4.3924    1.0413    0.3429 C   0  0  0  0  0  0  0  0  0  0  0  0
    3.5029    1.6409   -0.5375 C   0  0  0  0  0  0  0  0  0  0  0  0
    4.1313   -0.2382    0.8186 C   0  0  0  0  0  0  0  0  0  0  0  0
    2.3557    0.9662   -0.9370 C   0  0  0  0  0  0  0  0  0  0  0  0
    2.9858   -0.9094    0.4174 C   0  0  0  0  0  0  0  0  0  0  0  0
    2.0852   -0.3148   -0.4646 C   0  0  0  0  0  0  0  0  0  0  0  0
   -1.5109   -1.6697   -0.1413 C   0  0  0  0  0  0  0  0  0  0  0  0
   -2.3906    0.4605    0.3374 C   0  0  0  0  0  0  0  0  0  0  0  0
   -0.2294   -0.9582    0.2465 C   0  0  1  0  0  0  0  0  0  0  0  0
    0.8247   -1.0323   -0.8600 C   0  0  0  0  0  0  0  0  0  0  0  0
   -2.5918   -0.8261   -0.0435 N   0  0  0  0  0  0  0  0  0  0  0  0
   -3.5552    1.5954    0.4927 S   0  0  0  0  0  0  0  0  0  0  0  0
   -0.7069    0.7538    0.6381 S   0  0  0  0  0  0  0  0  0  0  0  0
    5.2861    1.5655    0.6559 H   0  0  0  0  0  0  0  0  0  0  0  0
    3.7006    2.6353   -0.9160 H   0  0  0  0  0  0  0  0  0  0  0  0
    4.8224   -0.7151    1.5015 H   0  0  0  0  0  0  0  0  0  0  0  0
    1.6686    1.4405   -1.6274 H   0  0  0  0  0  0  0  0  0  0  0  0
    2.7913   -1.9083    0.7913 H   0  0  0  0  0  0  0  0  0  0  0  0
    0.1504   -1.4251    1.1595 H   0  0  0  0  0  0  0  0  0  0  0  0
    0.4161   -0.6138   -1.7815 H   0  0  0  0  0  0  0  0  0  0  0  0
    1.0337   -2.0878   -1.0464 H   0  0  0  0  0  0  0  0  0  0  0  0
   -3.5251   -1.1487   -0.2702 H   0  0  0  0  0  0  0  0  0  0  0  0
   -1.5757   -2.8169   -0.4962 O   0  0  0  0  0  0  0  0  0  0  0  0
  5  3  1  0
  5  6  2  0
 10  6  1  0
 10  9  1  0
  3  1  2  0
  6  4  1  0
 23  7  2  0
  1  2  1  0
  4  2  2  0
  7  9  1  0
  7 11  1  0
  9 13  1  0
 11  8  1  0
 13  8  1  0
  8 12  2  0
  1 14  1  0
  2 15  1  0
  3 16  1  0
  4 17  1  0
  5 18  1  0
  9 19  1  1
 10 20  1  0
 10 21  1  0
 11 22  1  0
M  END
