
     RDKit          3D

 24 24  0  0  0  0  0  0  0  0999 V2000
    3.3658   -0.0906    0.6252 C   0  0  0  0  0  0  0  0  0  0  0  0
    1.8725   -0.0561    0.4903 C   0  0  0  0  0  0  0  0  0  0  0  0
    1.2074    1.1623    0.3586 C   0  0  0  0  0  0  0  0  0  0  0  0
   -0.1665    1.2141    0.1995 C   0  0  0  0  0  0  0  0  0  0  0  0
   -0.8834    0.0252    0.1754 C   0  0  0  0  0  0  0  0  0  0  0  0
   -0.2498   -1.2032    0.3048 C   0  0  0  0  0  0  0  0  0  0  0  0
    1.1263   -1.2324    0.4591 C   0  0  0  0  0  0  0  0  0  0  0  0
    4.0565    0.0811   -0.7281 C   0  0  0  0  0  0  0  0  0  0  0  0
    5.5000    0.0694   -0.5610 N   0  0  0  0  0  0  0  0  0  0  0  0
   -3.2352   -1.0800    0.6222 O   0  0  0  0  0  0  0  0  0  0  0  0
   -3.1240    1.3933    0.3433 O   0  0  0  0  0  0  0  0  0  0  0  0
   -2.6964   -0.1040   -1.5994 O   0  0  0  0  0  0  0  0  0  0  0  0
   -2.6300    0.0767   -0.0087 S   0  0  1  0  0  0  0  0  0  0  0  0
    3.7009    0.7049    1.2944 H   0  0  0  0  0  0  0  0  0  0  0  0
    3.6754   -1.0392    1.0720 H   0  0  0  0  0  0  0  0  0  0  0  0
    1.7712    2.0866    0.3888 H   0  0  0  0  0  0  0  0  0  0  0  0
   -0.6643    2.1696    0.1050 H   0  0  0  0  0  0  0  0  0  0  0  0
   -0.8121   -2.1272    0.2949 H   0  0  0  0  0  0  0  0  0  0  0  0
    1.6256   -2.1871    0.5681 H   0  0  0  0  0  0  0  0  0  0  0  0
    3.6804   -0.6870   -1.4181 H   0  0  0  0  0  0  0  0  0  0  0  0
    3.7676    1.0455   -1.1536 H   0  0  0  0  0  0  0  0  0  0  0  0
    5.8020   -0.8636   -0.3086 H   0  0  0  0  0  0  0  0  0  0  0  0
    5.9436    0.2704   -1.4479 H   0  0  0  0  0  0  0  0  0  0  0  0
   -3.6158   -0.1779   -1.9111 H   0  0  0  0  0  0  0  0  0  0  0  0
 11 13  2  0
  4  3  1  0
  4  5  2  0
  3  2  2  0
 13  5  1  0
 13 10  2  0
 13 12  1  6
  5  6  1  0
  2  1  1  0
  2  7  1  0
  1  8  1  0
  6  7  2  0
  8  9  1  0
  1 14  1  0
  1 15  1  0
  3 16  1  0
  4 17  1  0
  6 18  1  0
  7 19  1  0
  8 20  1  0
  8 21  1  0
  9 22  1  0
  9 23  1  0
 12 24  1  0
M  END
