
     RDKit          3D

 46 49  0  0  0  0  0  0  0  0999 V2000
   -0.6996   -0.3680   -2.6019 C   0  0  0  0  0  0  0  0  0  0  0  0
    0.2973   -0.1703   -3.5455 C   0  0  0  0  0  0  0  0  0  0  0  0
    0.2005   -0.8243   -4.7309 O   0  0  0  0  0  0  0  0  0  0  0  0
    2.3771    0.8842   -4.1427 O   0  0  0  0  0  0  0  0  0  0  0  0
    1.3680    0.6781   -3.2591 C   0  0  0  0  0  0  0  0  0  0  0  0
    1.4066    1.3323   -2.0355 C   0  0  0  0  0  0  0  0  0  0  0  0
    0.4006    1.1457   -1.1061 C   0  0  0  0  0  0  0  0  0  0  0  0
   -0.6642    0.2811   -1.3706 C   0  0  0  0  0  0  0  0  0  0  0  0
   -1.7235    0.0667   -0.3805 C   0  0  0  0  0  0  0  0  0  0  0  0
   -3.1281    0.0575   -0.5854 C   0  0  0  0  0  0  0  0  0  0  0  0
   -3.8712    0.2191   -1.8661 C   0  0  0  0  0  0  0  0  0  0  0  0
   -3.7684   -0.0855    0.5566 N   0  0  0  0  0  0  0  0  0  0  0  0
   -1.5703   -0.0916    0.9891 C   0  0  0  0  0  0  0  0  0  0  0  0
   -2.8222   -0.1753    1.4817 N   0  0  0  0  0  0  0  0  0  0  0  0
   -0.3899   -0.1618    1.8489 C   0  0  0  0  0  0  0  0  0  0  0  0
   -0.2743    0.6720    2.9635 C   0  0  0  0  0  0  0  0  0  0  0  0
    0.8034    0.6473    3.8288 C   0  0  0  0  0  0  0  0  0  0  0  0
    0.8658    1.5474    5.0314 C   0  0  0  0  0  0  0  0  0  0  0  0
    0.5293    0.8253    6.3350 C   0  0  0  0  0  0  0  0  0  0  0  0
    1.8239   -0.2688    3.5430 C   0  0  0  0  0  0  0  0  0  0  0  0
    1.0457   -0.3146   -5.7404 C   0  0  0  0  0  0  0  0  0  0  0  0
    2.8833   -0.2911    4.3760 O   0  0  0  0  0  0  0  0  0  0  0  0
    1.7421   -1.1129    2.4463 C   0  0  0  0  0  0  0  0  0  0  0  0
    2.4310   -0.0627   -5.1885 C   0  0  0  0  0  0  0  0  0  0  0  0
    0.6407   -1.0730    1.5989 C   0  0  0  0  0  0  0  0  0  0  0  0
    0.6300   -1.9451    0.5805 O   0  0  0  0  0  0  0  0  0  0  0  0
   -1.5008   -1.0559   -2.8416 H   0  0  0  0  0  0  0  0  0  0  0  0
    2.2336    1.9972   -1.8222 H   0  0  0  0  0  0  0  0  0  0  0  0
    0.4450    1.6764   -0.1645 H   0  0  0  0  0  0  0  0  0  0  0  0
   -3.4183    0.9877   -2.4923 H   0  0  0  0  0  0  0  0  0  0  0  0
   -3.8849   -0.7042   -2.4476 H   0  0  0  0  0  0  0  0  0  0  0  0
   -4.9050    0.4971   -1.6706 H   0  0  0  0  0  0  0  0  0  0  0  0
   -3.0778   -0.3501    2.4386 H   0  0  0  0  0  0  0  0  0  0  0  0
   -1.0609    1.3960    3.1463 H   0  0  0  0  0  0  0  0  0  0  0  0
    0.1639    2.3718    4.8865 H   0  0  0  0  0  0  0  0  0  0  0  0
    1.8545    2.0043    5.1132 H   0  0  0  0  0  0  0  0  0  0  0  0
    0.5618    1.5127    7.1809 H   0  0  0  0  0  0  0  0  0  0  0  0
   -0.4707    0.3923    6.2951 H   0  0  0  0  0  0  0  0  0  0  0  0
    1.2334    0.0191    6.5358 H   0  0  0  0  0  0  0  0  0  0  0  0
    0.6308    0.6127   -6.1529 H   0  0  0  0  0  0  0  0  0  0  0  0
    1.0793   -1.0566   -6.5380 H   0  0  0  0  0  0  0  0  0  0  0  0
    3.5301   -0.9357    4.0773 H   0  0  0  0  0  0  0  0  0  0  0  0
    2.5294   -1.8283    2.2336 H   0  0  0  0  0  0  0  0  0  0  0  0
    3.0829    0.3465   -5.9608 H   0  0  0  0  0  0  0  0  0  0  0  0
    2.8721   -1.0012   -4.8319 H   0  0  0  0  0  0  0  0  0  0  0  0
   -0.1660   -1.8420    0.0465 H   0  0  0  0  0  0  0  0  0  0  0  0
  1  2  2  0
  1  8  1  0
  1 27  1  0
  2  3  1  0
  2  5  1  0
  3 21  1  0
  4  5  1  0
  4 24  1  0
  5  6  2  0
  6  7  1  0
  6 28  1  0
  7  8  2  0
  7 29  1  0
  8  9  1  0
  9 10  1  0
  9 13  2  0
 10 11  1  0
 10 12  2  0
 11 30  1  0
 11 31  1  0
 11 32  1  0
 12 14  1  0
 13 14  1  0
 13 15  1  0
 14 33  1  0
 15 16  2  0
 15 25  1  0
 16 17  1  0
 16 34  1  0
 17 18  1  0
 17 20  2  0
 18 19  1  0
 18 35  1  0
 18 36  1  0
 19 37  1  0
 19 38  1  0
 19 39  1  0
 20 22  1  0
 20 23  1  0
 21 24  1  0
 21 40  1  0
 21 41  1  0
 22 42  1  0
 23 25  2  0
 23 43  1  0
 24 44  1  0
 24 45  1  0
 25 26  1  0
 26 46  1  0
M  END
