
     RDKit          3D

 40 43  0  0  0  0  0  0  0  0999 V2000
   -3.7868    2.6047    0.9285 C   0  0  0  0  0  0  0  0  0  0  0  0
   -2.1240   -3.6332   -0.6326 C   0  0  0  0  0  0  0  0  0  0  0  0
    0.1027   -2.8185   -1.0070 C   0  0  0  0  0  0  0  0  0  0  0  0
   -2.9823    0.6368   -0.8616 C   0  0  0  0  0  0  0  0  0  0  0  0
   -2.9738    1.5711    1.3640 C   0  0  0  0  0  0  0  0  0  0  0  0
    2.7380   -2.0785    0.9232 C   0  0  0  0  0  0  0  0  0  0  0  0
    2.1389   -0.9091    0.3916 C   0  0  0  0  0  0  0  0  0  0  0  0
   -1.4619   -1.4856    0.2108 C   0  0  0  0  0  0  0  0  0  0  0  0
    0.6713    0.6832   -0.5562 C   0  0  0  0  0  0  0  0  0  0  0  0
    1.2346    3.0047   -0.8782 C   0  0  0  0  0  0  0  0  0  0  0  0
   -4.2063    2.6670   -0.3955 C   0  0  0  0  0  0  0  0  0  0  0  0
   -0.8533   -3.8080   -1.1660 C   0  0  0  0  0  0  0  0  0  0  0  0
   -3.7990    1.6812   -1.2810 C   0  0  0  0  0  0  0  0  0  0  0  0
   -2.4270   -2.4724    0.0600 C   0  0  0  0  0  0  0  0  0  0  0  0
    4.0052   -1.7216    1.3222 C   0  0  0  0  0  0  0  0  0  0  0  0
   -0.1833   -1.6309   -0.3289 C   0  0  0  0  0  0  0  0  0  0  0  0
   -2.5730    0.5861    0.4661 C   0  0  0  0  0  0  0  0  0  0  0  0
    3.0797    0.1089    0.4982 C   0  0  0  0  0  0  0  0  0  0  0  0
    0.8595   -0.6009   -0.1676 C   0  0  0  0  0  0  0  0  0  0  0  0
    2.8782    1.4639    0.0939 C   0  0  0  0  0  0  0  0  0  0  0  0
    4.2037   -0.4080    1.0649 N   0  0  0  0  0  0  0  0  0  0  0  0
    1.6163    1.6709   -0.4326 N   0  0  0  0  0  0  0  0  0  0  0  0
    3.7168    2.3580    0.1934 O   0  0  0  0  0  0  0  0  0  0  0  0
   -1.7479   -0.3773    0.9640 O   0  0  0  0  0  0  0  0  0  0  0  0
   -4.0959    3.3660    1.6331 H   0  0  0  0  0  0  0  0  0  0  0  0
   -2.8787   -4.3991   -0.7508 H   0  0  0  0  0  0  0  0  0  0  0  0
    1.0902   -2.9554   -1.4301 H   0  0  0  0  0  0  0  0  0  0  0  0
   -2.6743   -0.1175   -1.5743 H   0  0  0  0  0  0  0  0  0  0  0  0
   -2.6447    1.5245    2.3944 H   0  0  0  0  0  0  0  0  0  0  0  0
    2.3036   -3.0618    1.0053 H   0  0  0  0  0  0  0  0  0  0  0  0
   -0.2513    1.0094   -1.0166 H   0  0  0  0  0  0  0  0  0  0  0  0
    2.0707    3.6834   -0.7610 H   0  0  0  0  0  0  0  0  0  0  0  0
    0.9430    2.9814   -1.9267 H   0  0  0  0  0  0  0  0  0  0  0  0
    0.3988    3.3734   -0.2853 H   0  0  0  0  0  0  0  0  0  0  0  0
   -4.8410    3.4761   -0.7310 H   0  0  0  0  0  0  0  0  0  0  0  0
   -0.6073   -4.7124   -1.7064 H   0  0  0  0  0  0  0  0  0  0  0  0
   -4.1138    1.7159   -2.3159 H   0  0  0  0  0  0  0  0  0  0  0  0
   -3.4093   -2.3349    0.4955 H   0  0  0  0  0  0  0  0  0  0  0  0
    4.7806   -2.3199    1.7721 H   0  0  0  0  0  0  0  0  0  0  0  0
    5.0461    0.1063    1.2661 H   0  0  0  0  0  0  0  0  0  0  0  0
 10 22  1  0
 23 20  2  0
 22 20  1  0
 22  9  1  0
 20 18  1  0
  9 19  2  0
 18 21  1  0
 18  7  2  0
 21 15  1  0
  3 12  1  0
  3 16  2  0
 19  7  1  0
 19 16  1  0
  7  6  1  0
 12  2  2  0
 16  8  1  0
 15  6  2  0
  2 14  1  0
  8 14  2  0
  8 24  1  0
 24 17  1  0
 17  5  1  0
 17  4  2  0
  5  1  2  0
  4 13  1  0
  1 11  1  0
 13 11  2  0
  1 25  1  0
  2 26  1  0
  3 27  1  0
  4 28  1  0
  5 29  1  0
  6 30  1  0
  9 31  1  0
 10 32  1  0
 10 33  1  0
 10 34  1  0
 11 35  1  0
 12 36  1  0
 13 37  1  0
 14 38  1  0
 15 39  1  0
 21 40  1  0
M  END
