
     RDKit          3D

 53 56  0  0  0  0  0  0  0  0999 V2000
   -2.9112   -0.4553   -0.1363 C   0  0  0  0  0  0  0  0  0  0  0  0
   -2.5378   -1.7691   -0.4160 C   0  0  0  0  0  0  0  0  0  0  0  0
   -3.4893   -2.7824   -0.4063 C   0  0  0  0  0  0  0  0  0  0  0  0
   -4.6254    1.2668    0.4330 C   0  0  0  0  0  0  0  0  0  0  0  0
   -3.7853    2.1195    1.1514 C   0  0  0  0  0  0  0  0  0  0  0  0
   -5.3741    3.8831    0.9756 C   0  0  0  0  0  0  0  0  0  0  0  0
    7.1053    2.0476    2.2884 C   0  0  0  0  0  0  0  0  0  0  0  0
    6.8548    0.7731    1.7931 C   0  0  0  0  0  0  0  0  0  0  0  0
    6.8945    0.5219    0.4262 C   0  0  0  0  0  0  0  0  0  0  0  0
    7.4378    2.8465    0.0496 C   0  0  0  0  0  0  0  0  0  0  0  0
    5.3105   -0.9053   -0.8461 C   0  0  0  0  0  0  0  0  0  0  0  0
   -1.1208   -2.0783   -0.7836 C   0  0  0  0  0  0  0  0  0  0  0  0
   -4.2299   -0.1262    0.1491 C   0  0  0  0  0  0  0  0  0  0  0  0
   -5.8514    1.7687   -0.0069 C   0  0  0  0  0  0  0  0  0  0  0  0
   -6.2351    3.0739    0.2606 C   0  0  0  0  0  0  0  0  0  0  0  0
   -5.7378    5.1476    1.2431 F   0  0  0  0  0  0  0  0  0  0  0  0
   -4.1501    3.4285    1.4259 C   0  0  0  0  0  0  0  0  0  0  0  0
   -5.1796   -1.1506    0.1612 C   0  0  0  0  0  0  0  0  0  0  0  0
   -3.1190   -4.0504   -0.6493 O   0  0  0  0  0  0  0  0  0  0  0  0
   -4.8204   -2.4575   -0.1076 C   0  0  0  0  0  0  0  0  0  0  0  0
   -5.6844   -3.4945   -0.0924 O   0  0  0  0  0  0  0  0  0  0  0  0
   -0.2071   -1.6084    0.0816 N   0  0  0  0  0  0  0  0  0  0  0  0
    1.2149   -1.7442   -0.1230 C   0  0  0  0  0  0  0  0  0  0  0  0
    1.7683   -0.7102   -1.1086 C   0  0  0  0  0  0  0  0  0  0  0  0
    3.2461   -0.8199   -1.2213 C   0  0  0  0  0  0  0  0  0  0  0  0
    3.9038   -1.0693   -2.3553 N   0  0  0  0  0  0  0  0  0  0  0  0
    5.2216   -1.1248   -2.1378 N   0  0  0  0  0  0  0  0  0  0  0  0
    4.1174   -0.7106   -0.2393 N   0  0  0  0  0  0  0  0  0  0  0  0
    7.1875    1.5733   -0.4403 C   0  0  0  0  0  0  0  0  0  0  0  0
    7.3969    3.0883    1.4181 C   0  0  0  0  0  0  0  0  0  0  0  0
   -2.1622    0.3249   -0.1899 H   0  0  0  0  0  0  0  0  0  0  0  0
   -2.8366    1.7574    1.5264 H   0  0  0  0  0  0  0  0  0  0  0  0
    6.6321   -0.0350    2.4798 H   0  0  0  0  0  0  0  0  0  0  0  0
    7.6669    3.6518   -0.6368 H   0  0  0  0  0  0  0  0  0  0  0  0
   -6.5168    1.1412   -0.5859 H   0  0  0  0  0  0  0  0  0  0  0  0
   -7.1845    3.4548   -0.0917 H   0  0  0  0  0  0  0  0  0  0  0  0
   -3.4960    4.0779    1.9925 H   0  0  0  0  0  0  0  0  0  0  0  0
   -6.2133   -0.9325    0.4064 H   0  0  0  0  0  0  0  0  0  0  0  0
   -3.8718   -4.6460   -0.5486 H   0  0  0  0  0  0  0  0  0  0  0  0
   -6.5713   -3.2047    0.1486 H   0  0  0  0  0  0  0  0  0  0  0  0
   -0.5210   -1.1470    0.9194 H   0  0  0  0  0  0  0  0  0  0  0  0
    1.6974   -1.6229    0.8450 H   0  0  0  0  0  0  0  0  0  0  0  0
    1.4414   -2.7514   -0.4756 H   0  0  0  0  0  0  0  0  0  0  0  0
    1.3116   -0.8467   -2.0895 H   0  0  0  0  0  0  0  0  0  0  0  0
    1.5090    0.2935   -0.7649 H   0  0  0  0  0  0  0  0  0  0  0  0
    3.5284   -1.2049   -3.2818 H   0  0  0  0  0  0  0  0  0  0  0  0
    7.2199    1.3932   -1.5090 H   0  0  0  0  0  0  0  0  0  0  0  0
    7.5949    4.0809    1.8014 H   0  0  0  0  0  0  0  0  0  0  0  0
    6.6125   -0.8550   -0.1213 C   0  0  0  0  0  0  0  0  0  0  0  0
   -0.8291   -2.6962   -1.7960 O   0  0  0  0  0  0  0  0  0  0  0  0
    7.0727    2.2249    3.3559 H   0  0  0  0  0  0  0  0  0  0  0  0
    7.4050   -1.1577   -0.8078 H   0  0  0  0  0  0  0  0  0  0  0  0
    6.5992   -1.5803    0.6948 H   0  0  0  0  0  0  0  0  0  0  0  0
 30 10  1  0
 30  7  2  0
 10 29  2  0
  7  8  1  0
 29  9  1  0
  8  9  2  0
  9 49  1  0
 19  3  1  0
 21 20  1  0
 23 22  1  0
 23 24  1  0
 22 12  1  0
  3 20  2  0
  3  2  1  0
 20 18  1  0
 12  2  1  0
 12 50  2  0
 49 11  1  0
  2  1  2  0
 11 27  2  0
 11 28  1  0
 27 26  1  0
 28 25  2  0
 26 25  1  0
 25 24  1  0
 18 13  2  0
  1 13  1  0
 13  4  1  0
  5  4  2  0
  5 17  1  0
  4 14  1  0
 17  6  2  0
 14 15  2  0
  6 15  1  0
  6 16  1  0
  1 31  1  0
  5 32  1  0
  7 51  1  0
  8 33  1  0
 10 34  1  0
 14 35  1  0
 15 36  1  0
 17 37  1  0
 18 38  1  0
 19 39  1  0
 21 40  1  0
 22 41  1  0
 23 42  1  0
 23 43  1  0
 24 44  1  0
 24 45  1  0
 26 46  1  0
 49 52  1  0
 49 53  1  0
 29 47  1  0
 30 48  1  0
M  END
