
     RDKit          3D

 26 26  0  0  0  0  0  0  0  0999 V2000
   -0.5828    1.7566    0.0572 C   0  0  1  0  0  0  0  0  0  0  0  0
   -0.4632    2.0323    1.4379 O   0  0  0  0  0  0  0  0  0  0  0  0
    0.7548    1.2390   -0.4431 C   0  0  0  0  0  0  0  0  0  0  0  0
    1.1313   -0.1225    0.1457 C   0  0  2  0  0  0  0  0  0  0  0  0
    2.4580   -0.6203   -0.4118 C   0  0  0  0  0  0  0  0  0  0  0  0
    3.4717    0.3071   -0.0863 O   0  0  0  0  0  0  0  0  0  0  0  0
    0.0206   -1.1329   -0.1317 C   0  0  1  0  0  0  0  0  0  0  0  0
    0.3501   -2.3533    0.4979 O   0  0  0  0  0  0  0  0  0  0  0  0
   -1.3202   -0.6198    0.3881 C   0  0  2  0  0  0  0  0  0  0  0  0
   -2.2844   -1.6119    0.1040 O   0  0  0  0  0  0  0  0  0  0  0  0
   -1.6954    0.7325   -0.2094 C   0  0  2  0  0  0  0  0  0  0  0  0
   -1.9065    0.5673   -1.5920 O   0  0  0  0  0  0  0  0  0  0  0  0
   -0.8311    2.6784   -0.4922 H   0  0  0  0  0  0  0  0  0  0  0  0
   -1.3066    2.3684    1.7580 H   0  0  0  0  0  0  0  0  0  0  0  0
    0.7042    1.1599   -1.5326 H   0  0  0  0  0  0  0  0  0  0  0  0
    1.5311    1.9746   -0.2262 H   0  0  0  0  0  0  0  0  0  0  0  0
    1.2348   -0.0267    1.2332 H   0  0  0  0  0  0  0  0  0  0  0  0
    2.6860   -1.6075    0.0038 H   0  0  0  0  0  0  0  0  0  0  0  0
    2.3621   -0.7432   -1.5006 H   0  0  0  0  0  0  0  0  0  0  0  0
    4.2974   -0.0109   -0.4617 H   0  0  0  0  0  0  0  0  0  0  0  0
   -0.0544   -1.2755   -1.2215 H   0  0  0  0  0  0  0  0  0  0  0  0
   -0.3980   -2.9497    0.3869 H   0  0  0  0  0  0  0  0  0  0  0  0
   -1.2199   -0.4806    1.4727 H   0  0  0  0  0  0  0  0  0  0  0  0
   -3.0502   -1.4676    0.6677 H   0  0  0  0  0  0  0  0  0  0  0  0
   -2.6198    1.0822    0.2814 H   0  0  0  0  0  0  0  0  0  0  0  0
   -2.1590    1.4184   -1.9638 H   0  0  0  0  0  0  0  0  0  0  0  0
  5  4  1  0
  5  6  1  0
  2  1  1  0
  3  4  1  0
  3  1  1  0
  4  7  1  0
  1 11  1  0
  7  8  1  0
  7  9  1  0
 11  9  1  0
 11 12  1  0
  9 10  1  0
  1 13  1  6
  2 14  1  0
  3 15  1  0
  3 16  1  0
  4 17  1  1
  5 18  1  0
  5 19  1  0
  6 20  1  0
  7 21  1  6
  8 22  1  0
  9 23  1  1
 10 24  1  0
 11 25  1  1
 12 26  1  0
M  END
