
     RDKit          3D

 79 83  0  0  0  0  0  0  0  0999 V2000
    8.2993   -4.7656   -1.8966 O   0  0  0  0  0  0  0  0  0  0  0  0
    8.4996   -3.7132   -1.3397 N   0  0  0  0  0  0  0  0  0  0  0  0
    9.4837   -3.4712   -0.6833 O   0  0  0  0  0  0  0  0  0  0  0  0
    7.4884   -2.6705   -1.4695 C   0  0  0  0  0  0  0  0  0  0  0  0
    7.7187   -1.4394   -0.8817 C   0  0  0  0  0  0  0  0  0  0  0  0
    6.3305   -2.9413   -2.1846 C   0  0  0  0  0  0  0  0  0  0  0  0
    5.3822   -1.9411   -2.3064 C   0  0  0  0  0  0  0  0  0  0  0  0
    5.5877   -0.7037   -1.7150 C   0  0  0  0  0  0  0  0  0  0  0  0
    6.7513   -0.4486   -0.9922 C   0  0  0  0  0  0  0  0  0  0  0  0
    7.0454    0.8775   -0.3584 C   0  0  0  0  0  0  0  0  0  0  0  0
    8.1934    1.2576   -0.2117 O   0  0  0  0  0  0  0  0  0  0  0  0
    5.9493    1.5659    0.0261 N   0  0  0  0  0  0  0  0  0  0  0  0
    5.8539    2.8572    0.5554 C   0  0  0  0  0  0  0  0  0  0  0  0
    6.9273    3.6786    0.8740 C   0  0  0  0  0  0  0  0  0  0  0  0
    6.7030    4.9558    1.3795 C   0  0  0  0  0  0  0  0  0  0  0  0
    5.4143    5.4170    1.5733 C   0  0  0  0  0  0  0  0  0  0  0  0
    4.3281    4.6036    1.2633 C   0  0  0  0  0  0  0  0  0  0  0  0
    4.5420    3.3323    0.7589 C   0  0  0  0  0  0  0  0  0  0  0  0
    3.5697    2.4574    0.4301 O   0  0  0  0  0  0  0  0  0  0  0  0
    2.2115    2.8798    0.4073 C   0  0  0  0  0  0  0  0  0  0  0  0
    1.4210    1.7292   -0.1377 C   0  0  0  0  0  0  0  0  0  0  0  0
    0.6635    0.9281    0.7082 C   0  0  0  0  0  0  0  0  0  0  0  0
    1.4849    1.4172   -1.4925 C   0  0  0  0  0  0  0  0  0  0  0  0
    0.7978    0.3196   -1.9888 C   0  0  0  0  0  0  0  0  0  0  0  0
    0.0448   -0.4743   -1.1346 C   0  0  0  0  0  0  0  0  0  0  0  0
   -0.0277   -0.1771    0.2225 C   0  0  0  0  0  0  0  0  0  0  0  0
   -0.8565   -1.0275    1.1440 C   0  0  0  0  0  0  0  0  0  0  0  0
   -2.2549   -0.6519    1.0444 N   0  0  0  0  0  0  0  0  0  0  0  0
   -3.2336   -1.3978    1.5797 C   0  0  0  0  0  0  0  0  0  0  0  0
   -3.0093   -2.4601    2.1472 O   0  0  0  0  0  0  0  0  0  0  0  0
   -4.6248   -0.8719    1.4423 C   0  0  0  0  0  0  0  0  0  0  0  0
   -5.6821   -1.7800    1.4834 C   0  0  0  0  0  0  0  0  0  0  0  0
   -6.9906   -1.3443    1.3773 C   0  0  0  0  0  0  0  0  0  0  0  0
   -4.9134    0.4838    1.3127 C   0  0  0  0  0  0  0  0  0  0  0  0
   -6.2283    0.9171    1.2181 C   0  0  0  0  0  0  0  0  0  0  0  0
   -7.2832    0.0126    1.2502 C   0  0  0  0  0  0  0  0  0  0  0  0
   -8.7121    0.4878    1.1996 C   0  0  0  0  0  0  0  0  0  0  0  0
   -9.5558   -0.3780    0.4098 N   0  0  0  0  0  0  0  0  0  0  0  0
  -10.9683   -0.1479    0.6596 C   0  0  0  0  0  0  0  0  0  0  0  0
  -11.8056   -1.1449   -0.1338 C   0  0  0  0  0  0  0  0  0  0  0  0
  -11.5386   -1.1272   -1.5617 N   0  0  0  0  0  0  0  0  0  0  0  0
  -12.1207    0.0102   -2.2447 C   0  0  0  0  0  0  0  0  0  0  0  0
  -10.1120   -1.2751   -1.7898 C   0  0  0  0  0  0  0  0  0  0  0  0
   -9.2592   -0.2821   -1.0095 C   0  0  0  0  0  0  0  0  0  0  0  0
    8.6314   -1.2415   -0.3380 H   0  0  0  0  0  0  0  0  0  0  0  0
    6.1645   -3.9047   -2.6439 H   0  0  0  0  0  0  0  0  0  0  0  0
    4.4807   -2.1263   -2.8732 H   0  0  0  0  0  0  0  0  0  0  0  0
    4.8380    0.0648   -1.8575 H   0  0  0  0  0  0  0  0  0  0  0  0
    5.0607    1.0972   -0.0619 H   0  0  0  0  0  0  0  0  0  0  0  0
    7.9373    3.3336    0.7285 H   0  0  0  0  0  0  0  0  0  0  0  0
    7.5509    5.5831    1.6198 H   0  0  0  0  0  0  0  0  0  0  0  0
    5.2376    6.4086    1.9679 H   0  0  0  0  0  0  0  0  0  0  0  0
    3.3239    4.9720    1.4235 H   0  0  0  0  0  0  0  0  0  0  0  0
    1.8730    3.1414    1.4144 H   0  0  0  0  0  0  0  0  0  0  0  0
    2.1076    3.7658   -0.2275 H   0  0  0  0  0  0  0  0  0  0  0  0
    0.6159    1.1639    1.7657 H   0  0  0  0  0  0  0  0  0  0  0  0
    2.0738    2.0323   -2.1624 H   0  0  0  0  0  0  0  0  0  0  0  0
    0.8514    0.0791   -3.0424 H   0  0  0  0  0  0  0  0  0  0  0  0
   -0.4850   -1.3350   -1.5251 H   0  0  0  0  0  0  0  0  0  0  0  0
   -0.7453   -2.0811    0.8803 H   0  0  0  0  0  0  0  0  0  0  0  0
   -0.5068   -0.9177    2.1741 H   0  0  0  0  0  0  0  0  0  0  0  0
   -2.4822    0.1856    0.5343 H   0  0  0  0  0  0  0  0  0  0  0  0
   -5.4787   -2.8374    1.5912 H   0  0  0  0  0  0  0  0  0  0  0  0
   -7.8009   -2.0617    1.3847 H   0  0  0  0  0  0  0  0  0  0  0  0
   -4.1238    1.2250    1.3052 H   0  0  0  0  0  0  0  0  0  0  0  0
   -6.4309    1.9772    1.1220 H   0  0  0  0  0  0  0  0  0  0  0  0
   -9.1033    0.5022    2.2224 H   0  0  0  0  0  0  0  0  0  0  0  0
   -8.7387    1.5339    0.8511 H   0  0  0  0  0  0  0  0  0  0  0  0
  -11.1669   -0.2838    1.7258 H   0  0  0  0  0  0  0  0  0  0  0  0
  -11.2662    0.8855    0.4112 H   0  0  0  0  0  0  0  0  0  0  0  0
  -11.5904   -2.1509    0.2422 H   0  0  0  0  0  0  0  0  0  0  0  0
  -12.8676   -0.9552    0.0379 H   0  0  0  0  0  0  0  0  0  0  0  0
  -11.7491    0.9927   -1.9246 H   0  0  0  0  0  0  0  0  0  0  0  0
  -11.9345   -0.0744   -3.3168 H   0  0  0  0  0  0  0  0  0  0  0  0
  -13.2022    0.0080   -2.0978 H   0  0  0  0  0  0  0  0  0  0  0  0
   -9.8201   -2.2872   -1.4897 H   0  0  0  0  0  0  0  0  0  0  0  0
   -9.9047   -1.1839   -2.8585 H   0  0  0  0  0  0  0  0  0  0  0  0
   -9.4184    0.7454   -1.3822 H   0  0  0  0  0  0  0  0  0  0  0  0
   -8.2050   -0.5152   -1.1763 H   0  0  0  0  0  0  0  0  0  0  0  0
 42 41  1  0
 16 15  1  0
 16 17  2  0
 15 14  2  0
 17 18  1  0
 41 40  1  0
 41 43  1  0
 40 39  1  0
 43 44  1  0
 14 13  1  0
 18 13  2  0
 18 19  1  0
 13 12  1  0
 39 38  1  0
 20 19  1  0
 20 21  1  0
 37 38  1  0
 37 36  1  0
 44 38  1  0
 35 36  2  0
 35 34  1  0
 12 10  1  0
 36 33  1  0
 11 10  2  0
 21 22  2  0
 21 23  1  0
 10  9  1  0
 34 31  2  0
 22 26  1  0
 33 32  2  0
 23 24  2  0
 31 32  1  0
 31 29  1  0
  9  5  1  0
  9  8  2  0
 28 29  1  0
 28 27  1  0
 26 25  2  0
 26 27  1  0
 24 25  1  0
  5  4  2  0
 29 30  2  0
  3  2  1  0
  8  7  1  0
  4  2  1  0
  4  6  1  0
  2  1  2  0
  7  6  2  0
  5 45  1  0
  6 46  1  0
  7 47  1  0
  8 48  1  0
 12 49  1  0
 14 50  1  0
 15 51  1  0
 16 52  1  0
 17 53  1  0
 20 54  1  0
 20 55  1  0
 22 56  1  0
 23 57  1  0
 24 58  1  0
 25 59  1  0
 27 60  1  0
 27 61  1  0
 28 62  1  0
 32 63  1  0
 33 64  1  0
 34 65  1  0
 35 66  1  0
 37 67  1  0
 37 68  1  0
 39 69  1  0
 39 70  1  0
 40 71  1  0
 40 72  1  0
 42 73  1  0
 42 74  1  0
 42 75  1  0
 43 76  1  0
 43 77  1  0
 44 78  1  0
 44 79  1  0
M  CHG  2   2   1   3  -1
M  END
