
     RDKit          3D

 32 32  0  0  0  0  0  0  0  0999 V2000
   -1.0590    0.4079   -0.5231 C   0  0  0  0  0  0  0  0  0  0  0  0
   -1.9878    1.3949   -0.8369 C   0  0  0  0  0  0  0  0  0  0  0  0
   -3.2992    1.3064   -0.3910 C   0  0  0  0  0  0  0  0  0  0  0  0
   -3.7050    0.2278    0.3861 C   0  0  0  0  0  0  0  0  0  0  0  0
   -2.7779   -0.7611    0.7054 C   0  0  0  0  0  0  0  0  0  0  0  0
   -1.4709   -0.6717    0.2565 C   0  0  0  0  0  0  0  0  0  0  0  0
    0.3576    0.4931   -1.0258 C   0  0  0  0  0  0  0  0  0  0  0  0
    1.3096    0.1297    0.0038 N   0  0  0  0  0  0  0  0  0  0  0  0
    2.6786    0.1159   -0.4741 C   0  0  0  0  0  0  0  0  0  0  0  0
    3.6066   -0.3178    0.6466 C   0  0  0  0  0  0  0  0  0  0  0  0
    5.0439   -0.4193    0.2227 C   0  0  0  0  0  0  0  0  0  0  0  0
    5.4529   -0.2344   -0.8966 O   0  0  0  0  0  0  0  0  0  0  0  0
    5.8363   -0.7498    1.2379 O   0  0  0  0  0  0  0  0  0  0  0  0
   -5.1193    0.1206    0.8658 C   0  0  0  0  0  0  0  0  0  0  0  0
   -5.9523   -0.6446   -0.1088 N   0  0  0  0  0  0  0  0  0  0  0  0
   -1.6833    2.2499   -1.4289 H   0  0  0  0  0  0  0  0  0  0  0  0
   -4.0050    2.0905   -0.6393 H   0  0  0  0  0  0  0  0  0  0  0  0
   -3.0770   -1.6043    1.3174 H   0  0  0  0  0  0  0  0  0  0  0  0
   -0.7571   -1.4404    0.5220 H   0  0  0  0  0  0  0  0  0  0  0  0
    0.4775   -0.2104   -1.8568 H   0  0  0  0  0  0  0  0  0  0  0  0
    0.5347    1.4935   -1.4482 H   0  0  0  0  0  0  0  0  0  0  0  0
    1.2294    0.7888    0.7700 H   0  0  0  0  0  0  0  0  0  0  0  0
    2.7425   -0.5959   -1.3010 H   0  0  0  0  0  0  0  0  0  0  0  0
    3.0006    1.0887   -0.8730 H   0  0  0  0  0  0  0  0  0  0  0  0
    3.5461    0.3776    1.4899 H   0  0  0  0  0  0  0  0  0  0  0  0
    3.2918   -1.2901    1.0375 H   0  0  0  0  0  0  0  0  0  0  0  0
    6.7534   -0.8151    0.9326 H   0  0  0  0  0  0  0  0  0  0  0  0
   -5.5902    1.0942    0.9780 H   0  0  0  0  0  0  0  0  0  0  0  0
   -5.1891   -0.4106    1.8121 H   0  0  0  0  0  0  0  0  0  0  0  0
   -5.5945   -1.5883   -0.2538 H   0  0  0  0  0  0  0  0  0  0  0  0
   -5.9845   -0.1900   -1.0209 H   0  0  0  0  0  0  0  0  0  0  0  0
   -6.9154   -0.7351    0.2147 H   0  0  0  0  0  0  0  0  0  0  0  0
  1  2  2  0
  1  6  1  0
  1  7  1  0
  2  3  1  0
  2 16  1  0
  3  4  2  0
  3 17  1  0
  4  5  1  0
  4 14  1  0
  5  6  2  0
  5 18  1  0
  6 19  1  0
  7  8  1  0
  7 20  1  0
  7 21  1  0
  8  9  1  0
  8 22  1  0
  9 10  1  0
  9 23  1  0
  9 24  1  0
 10 11  1  0
 10 25  1  0
 10 26  1  0
 11 12  2  0
 11 13  1  0
 13 27  1  0
 14 15  1  0
 14 28  1  0
 14 29  1  0
 15 30  1  0
 15 31  1  0
 15 32  1  0
M  CHG  1  15   1
M  END
