
     RDKit          3D

 28 27  0  0  0  0  0  0  0  0999 V2000
    0.5789   -2.2490    0.9248 O   0  0  0  0  0  0  0  0  0  0  0  0
    1.2687   -1.7063    0.1030 C   0  0  0  0  0  0  0  0  0  0  0  0
    2.2378   -2.3115   -0.5694 O   0  0  0  0  0  0  0  0  0  0  0  0
    1.1646   -0.2361   -0.2801 C   0  0  2  0  0  0  0  0  0  0  0  0
    2.3471    0.5468    0.2961 C   0  0  0  0  0  0  0  0  0  0  0  0
    2.3463    1.9958   -0.1611 C   0  0  0  0  0  0  0  0  0  0  0  0
    3.4996    2.6145    0.3621 O   0  0  0  0  0  0  0  0  0  0  0  0
   -0.0801    0.3166    0.1737 N   0  0  0  0  0  0  0  0  0  0  0  0
   -1.2572   -0.0057   -0.4030 C   0  0  0  0  0  0  0  0  0  0  0  0
   -1.3162   -0.7295   -1.3848 O   0  0  0  0  0  0  0  0  0  0  0  0
   -2.4701    0.6317    0.2381 C   0  0  0  0  0  0  0  0  0  0  0  0
   -3.7977    0.0930   -0.2700 C   0  0  0  0  0  0  0  0  0  0  0  0
   -4.9757    0.7845    0.4018 C   0  0  0  0  0  0  0  0  0  0  0  0
    2.3162   -3.2353   -0.2868 H   0  0  0  0  0  0  0  0  0  0  0  0
    1.2080   -0.1734   -1.3717 H   0  0  0  0  0  0  0  0  0  0  0  0
    2.3270    0.4974    1.3893 H   0  0  0  0  0  0  0  0  0  0  0  0
    3.2749    0.0737   -0.0301 H   0  0  0  0  0  0  0  0  0  0  0  0
    2.3336    2.0251   -1.2591 H   0  0  0  0  0  0  0  0  0  0  0  0
    1.4344    2.5000    0.1799 H   0  0  0  0  0  0  0  0  0  0  0  0
    3.4714    3.5466    0.1286 H   0  0  0  0  0  0  0  0  0  0  0  0
   -0.0903    0.8060    1.0550 H   0  0  0  0  0  0  0  0  0  0  0  0
   -2.4044    0.5102    1.3238 H   0  0  0  0  0  0  0  0  0  0  0  0
   -2.4130    1.7115    0.0625 H   0  0  0  0  0  0  0  0  0  0  0  0
   -3.8621    0.2287   -1.3513 H   0  0  0  0  0  0  0  0  0  0  0  0
   -3.8536   -0.9832   -0.0905 H   0  0  0  0  0  0  0  0  0  0  0  0
   -5.9244    0.3960    0.0312 H   0  0  0  0  0  0  0  0  0  0  0  0
   -4.9585    0.6395    1.4835 H   0  0  0  0  0  0  0  0  0  0  0  0
   -4.9627    1.8599    0.2150 H   0  0  0  0  0  0  0  0  0  0  0  0
  7  6  1  0
  1  2  2  0
  2  4  1  0
  2  3  1  0
  6  5  1  0
 10  9  2  0
  4  5  1  0
  4  8  1  0
  9  8  1  0
  9 11  1  0
 13 12  1  0
 12 11  1  0
  3 14  1  0
  4 15  1  6
  5 16  1  0
  5 17  1  0
  6 18  1  0
  6 19  1  0
  7 20  1  0
  8 21  1  0
 11 22  1  0
 11 23  1  0
 12 24  1  0
 12 25  1  0
 13 26  1  0
 13 27  1  0
 13 28  1  0
M  END
