
     RDKit          3D

 41 42  0  0  0  0  0  0  0  0999 V2000
    0.7377    0.7185    0.1311 C   0  0  0  0  0  0  0  0  0  0  0  0
   -0.6788    0.3280   -0.3055 C   0  0  2  0  0  0  0  0  0  0  0  0
   -0.8272    0.3995   -1.8200 C   0  0  0  0  0  0  0  0  0  0  0  0
   -1.7262    1.2008    0.4260 C   0  0  1  0  0  0  0  0  0  0  0  0
   -1.6176    2.6780    0.0613 C   0  0  0  0  0  0  0  0  0  0  0  0
   -3.1530    0.7044    0.1981 C   0  0  0  0  0  0  0  0  0  0  0  0
   -3.3104   -0.7559    0.5888 C   0  0  0  0  0  0  0  0  0  0  0  0
   -2.2789   -1.6270   -0.0923 C   0  0  0  0  0  0  0  0  0  0  0  0
   -0.9037   -1.1098    0.1770 N   0  0  1  0  0  0  0  0  0  0  0  0
    0.1300   -2.0782   -0.2981 C   0  0  0  0  0  0  0  0  0  0  0  0
    1.5168   -1.6443    0.1214 C   0  0  0  0  0  0  0  0  0  0  0  0
    1.8305   -0.2304   -0.3651 C   0  0  2  0  0  0  0  0  0  0  0  0
    3.2057    0.2294    0.0581 C   0  0  0  0  0  0  0  0  0  0  0  0
    4.1421    0.4753   -0.8559 C   0  0  0  0  0  0  0  0  0  0  0  0
    3.4740    0.3995    1.5252 C   0  0  0  0  0  0  0  0  0  0  0  0
    0.9370    1.7255   -0.2361 H   0  0  0  0  0  0  0  0  0  0  0  0
    0.7636    0.7764    1.2250 H   0  0  0  0  0  0  0  0  0  0  0  0
   -0.1783   -0.2969   -2.3469 H   0  0  0  0  0  0  0  0  0  0  0  0
   -1.8461    0.2279   -2.1616 H   0  0  0  0  0  0  0  0  0  0  0  0
   -0.5402    1.3967   -2.1496 H   0  0  0  0  0  0  0  0  0  0  0  0
   -1.5116    1.1101    1.5000 H   0  0  0  0  0  0  0  0  0  0  0  0
   -1.8486    2.8514   -0.9901 H   0  0  0  0  0  0  0  0  0  0  0  0
   -2.3378    3.2466    0.6496 H   0  0  0  0  0  0  0  0  0  0  0  0
   -0.6327    3.0945    0.2676 H   0  0  0  0  0  0  0  0  0  0  0  0
   -3.8347    1.3162    0.7914 H   0  0  0  0  0  0  0  0  0  0  0  0
   -3.4434    0.8488   -0.8466 H   0  0  0  0  0  0  0  0  0  0  0  0
   -3.2154   -0.8678    1.6730 H   0  0  0  0  0  0  0  0  0  0  0  0
   -4.2996   -1.1293    0.3213 H   0  0  0  0  0  0  0  0  0  0  0  0
   -2.3082   -2.6478    0.2850 H   0  0  0  0  0  0  0  0  0  0  0  0
   -2.4129   -1.6663   -1.1719 H   0  0  0  0  0  0  0  0  0  0  0  0
   -0.8098   -1.0787    1.1966 H   0  0  0  0  0  0  0  0  0  0  0  0
   -0.1272   -3.0410    0.1398 H   0  0  0  0  0  0  0  0  0  0  0  0
    0.0325   -2.1680   -1.3788 H   0  0  0  0  0  0  0  0  0  0  0  0
    1.5931   -1.7009    1.2113 H   0  0  0  0  0  0  0  0  0  0  0  0
    2.2307   -2.3625   -0.2845 H   0  0  0  0  0  0  0  0  0  0  0  0
    1.8167   -0.2383   -1.4593 H   0  0  0  0  0  0  0  0  0  0  0  0
    5.1368    0.8019   -0.5778 H   0  0  0  0  0  0  0  0  0  0  0  0
    3.9459    0.3612   -1.9154 H   0  0  0  0  0  0  0  0  0  0  0  0
    3.2690   -0.5144    2.0865 H   0  0  0  0  0  0  0  0  0  0  0  0
    4.5116    0.6755    1.7067 H   0  0  0  0  0  0  0  0  0  0  0  0
    2.8447    1.1790    1.9602 H   0  0  0  0  0  0  0  0  0  0  0  0
  5  4  1  0
  6  4  1  0
  6  7  1  0
  4  2  1  0
  7  8  1  0
  2  3  1  6
  2  1  1  0
  2  9  1  0
  8  9  1  0
  1 12  1  0
  9 10  1  0
 14 13  2  0
 12 13  1  0
 12 11  1  0
 10 11  1  0
 13 15  1  0
  1 16  1  0
  1 17  1  0
  3 18  1  0
  3 19  1  0
  3 20  1  0
  4 21  1  1
  5 22  1  0
  5 23  1  0
  5 24  1  0
  6 25  1  0
  6 26  1  0
  7 27  1  0
  7 28  1  0
  8 29  1  0
  8 30  1  0
  9 31  1  1
 10 32  1  0
 10 33  1  0
 11 34  1  0
 11 35  1  0
 12 36  1  6
 14 37  1  0
 14 38  1  0
 15 39  1  0
 15 40  1  0
 15 41  1  0
M  CHG  1   9   1
M  END
