
     RDKit          3D

 22 23  0  0  0  0  0  0  0  0999 V2000
    2.0036    0.9000   -0.3325 N   0  0  0  0  0  0  0  0  0  0  0  0
    2.2696   -0.3975    0.0636 C   0  0  0  0  0  0  0  0  0  0  0  0
    1.4677   -1.4561    0.2203 C   0  0  0  0  0  0  0  0  0  0  0  0
    0.0231   -1.5312    0.0423 C   0  0  0  0  0  0  0  0  0  0  0  0
   -0.5405   -2.7586   -0.3182 C   0  0  0  0  0  0  0  0  0  0  0  0
   -1.9056   -2.8794   -0.5096 C   0  0  0  0  0  0  0  0  0  0  0  0
   -2.7453   -1.7881   -0.3305 C   0  0  0  0  0  0  0  0  0  0  0  0
   -2.1863   -0.5781    0.0538 C   0  0  0  0  0  0  0  0  0  0  0  0
   -0.8218   -0.4356    0.2447 C   0  0  0  0  0  0  0  0  0  0  0  0
    3.7406   -0.4442    0.2926 C   0  0  0  0  0  0  0  0  0  0  0  0
    4.1752    0.8165   -0.0092 N   0  0  0  0  0  0  0  0  0  0  0  0
    3.1462    1.6484   -0.4195 C   0  0  0  0  0  0  0  0  0  0  0  0
   -3.3129    0.9100    0.3395 Br  0  0  0  0  0  0  0  0  0  0  0  0
    3.2469    2.7961   -0.7760 O   0  0  0  0  0  0  0  0  0  0  0  0
    4.4081   -1.3782    0.6662 O   0  0  0  0  0  0  0  0  0  0  0  0
    1.1303    1.2343   -0.7085 H   0  0  0  0  0  0  0  0  0  0  0  0
    1.9676   -2.3819    0.4803 H   0  0  0  0  0  0  0  0  0  0  0  0
    0.1016   -3.6189   -0.4576 H   0  0  0  0  0  0  0  0  0  0  0  0
   -0.4269    0.5082    0.5959 H   0  0  0  0  0  0  0  0  0  0  0  0
   -2.3282   -3.8318   -0.7995 H   0  0  0  0  0  0  0  0  0  0  0  0
   -3.8114   -1.8917   -0.4789 H   0  0  0  0  0  0  0  0  0  0  0  0
    5.1386    1.1176    0.0379 H   0  0  0  0  0  0  0  0  0  0  0  0
  1  2  1  0
  1 12  1  0
  2  3  2  0
  2 10  1  0
  3  4  1  0
  4  5  2  0
  4  9  1  0
  5  6  1  0
  6  7  2  0
  7  8  1  0
  8  9  2  0
  8 13  1  0
 10 11  1  0
 10 15  2  0
 11 12  1  0
 12 14  2  0
  1 16  1  0
  3 17  1  0
  5 18  1  0
  9 19  1  0
  6 20  1  0
  7 21  1  0
 11 22  1  0
M  END
