
     RDKit          3D

 43 45  0  0  0  0  0  0  0  0999 V2000
   -5.5692    0.1918   -0.2740 C   0  0  0  0  0  0  0  0  0  0  0  0
   -4.3568   -0.6266    0.1625 C   0  0  0  0  0  0  0  0  0  0  0  0
   -3.0812   -0.0329   -0.4334 C   0  0  1  0  0  0  0  0  0  0  0  0
   -2.9086    1.4346   -0.0418 C   0  0  0  0  0  0  0  0  0  0  0  0
   -4.1299    2.2492   -0.4571 C   0  0  0  0  0  0  0  0  0  0  0  0
   -5.4167    1.6600    0.1123 C   0  0  0  0  0  0  0  0  0  0  0  0
   -1.4346   -1.1693    1.0578 C   0  0  0  0  0  0  0  0  0  0  0  0
   -0.1636   -1.9717    0.8636 C   0  0  0  0  0  0  0  0  0  0  0  0
    0.3070   -1.5772   -0.5428 C   0  0  1  0  0  0  0  0  0  0  0  0
   -0.9996   -1.1966   -1.2385 C   0  0  0  0  0  0  0  0  0  0  0  0
   -1.8825   -0.8086   -0.1558 N   0  0  0  0  0  0  0  0  0  0  0  0
    4.9174   -0.6219   -0.0683 C   0  0  0  0  0  0  0  0  0  0  0  0
    6.0897    0.0775    0.1599 C   0  0  0  0  0  0  0  0  0  0  0  0
    6.0574    1.4477    0.3862 C   0  0  0  0  0  0  0  0  0  0  0  0
    4.8334    2.0993    0.3793 C   0  0  0  0  0  0  0  0  0  0  0  0
    3.6480    1.4115    0.1517 C   0  0  0  0  0  0  0  0  0  0  0  0
    3.6835    0.0345   -0.0751 C   0  0  0  0  0  0  0  0  0  0  0  0
    1.2530   -0.3932   -0.4290 C   0  0  0  0  0  0  0  0  0  0  0  0
    2.5535   -0.7587   -0.3021 N   0  0  0  0  0  0  0  0  0  0  0  0
    0.8587    0.7580   -0.4071 O   0  0  0  0  0  0  0  0  0  0  0  0
   -1.9609   -0.9303    2.1340 O   0  0  0  0  0  0  0  0  0  0  0  0
   -5.6939    0.1127   -1.3597 H   0  0  0  0  0  0  0  0  0  0  0  0
   -6.4747   -0.2260    0.1719 H   0  0  0  0  0  0  0  0  0  0  0  0
   -4.4630   -1.6666   -0.1570 H   0  0  0  0  0  0  0  0  0  0  0  0
   -4.2952   -0.6278    1.2519 H   0  0  0  0  0  0  0  0  0  0  0  0
   -3.1976   -0.0721   -1.5222 H   0  0  0  0  0  0  0  0  0  0  0  0
   -2.7650    1.5044    1.0404 H   0  0  0  0  0  0  0  0  0  0  0  0
   -2.0031    1.8296   -0.5090 H   0  0  0  0  0  0  0  0  0  0  0  0
   -4.1951    2.2679   -1.5506 H   0  0  0  0  0  0  0  0  0  0  0  0
   -4.0108    3.2870   -0.1379 H   0  0  0  0  0  0  0  0  0  0  0  0
   -6.2797    2.2330   -0.2354 H   0  0  0  0  0  0  0  0  0  0  0  0
   -5.4042    1.7473    1.2042 H   0  0  0  0  0  0  0  0  0  0  0  0
    0.5609   -1.7791    1.6548 H   0  0  0  0  0  0  0  0  0  0  0  0
   -0.4119   -3.0356    0.9056 H   0  0  0  0  0  0  0  0  0  0  0  0
    0.7967   -2.4070   -1.0531 H   0  0  0  0  0  0  0  0  0  0  0  0
   -0.8743   -0.3761   -1.9461 H   0  0  0  0  0  0  0  0  0  0  0  0
   -1.4073   -2.0500   -1.7884 H   0  0  0  0  0  0  0  0  0  0  0  0
    7.0319   -0.4548    0.1599 H   0  0  0  0  0  0  0  0  0  0  0  0
    6.9715    1.9971    0.5669 H   0  0  0  0  0  0  0  0  0  0  0  0
    4.7884    3.1666    0.5541 H   0  0  0  0  0  0  0  0  0  0  0  0
    2.7157    1.9511    0.1572 H   0  0  0  0  0  0  0  0  0  0  0  0
    2.7412   -1.7475   -0.3760 H   0  0  0  0  0  0  0  0  0  0  0  0
    4.9583   -1.6913   -0.2401 H   0  0  0  0  0  0  0  0  0  0  0  0
  1  2  1  0
  1  6  1  0
  1 22  1  0
  1 23  1  0
  2  3  1  0
  2 24  1  0
  2 25  1  0
  3  4  1  0
  3 11  1  0
  3 26  1  6
  4  5  1  0
  4 27  1  0
  4 28  1  0
  5  6  1  0
  5 29  1  0
  5 30  1  0
  6 31  1  0
  6 32  1  0
  7  8  1  0
  7 11  1  0
  7 21  2  0
  8  9  1  0
  8 33  1  0
  8 34  1  0
  9 10  1  0
  9 18  1  0
  9 35  1  6
 10 11  1  0
 10 36  1  0
 10 37  1  0
 12 13  2  0
 12 17  1  0
 12 43  1  0
 13 14  1  0
 13 38  1  0
 14 15  2  0
 14 39  1  0
 15 16  1  0
 15 40  1  0
 16 17  2  0
 16 41  1  0
 17 19  1  0
 18 19  1  0
 18 20  2  0
 19 42  1  0
M  END
