
     RDKit          3D

 37 38  0  0  0  0  0  0  0  0999 V2000
    4.0252   -1.6931   -0.7500 O   0  0  0  0  0  0  0  0  0  0  0  0
    4.5554   -0.6801   -0.3718 C   0  0  0  0  0  0  0  0  0  0  0  0
    5.8694   -0.4945   -0.4016 O   0  0  0  0  0  0  0  0  0  0  0  0
    3.8364    0.5369    0.1772 C   0  0  2  0  0  0  0  0  0  0  0  0
    4.3379    0.9008    1.5821 C   0  0  0  0  0  0  0  0  0  0  0  0
    2.3421    0.3550    0.1454 C   0  0  0  0  0  0  0  0  0  0  0  0
    1.5655    1.1712   -0.6663 C   0  0  0  0  0  0  0  0  0  0  0  0
    0.1904    1.0324   -0.6653 C   0  0  0  0  0  0  0  0  0  0  0  0
   -0.5217    1.8270   -1.4815 F   0  0  0  0  0  0  0  0  0  0  0  0
    1.7029   -0.5933    0.9413 C   0  0  0  0  0  0  0  0  0  0  0  0
    0.3246   -0.7137    0.9219 C   0  0  0  0  0  0  0  0  0  0  0  0
   -0.4753    0.1028    0.1190 C   0  0  0  0  0  0  0  0  0  0  0  0
   -1.9452   -0.0499    0.0991 C   0  0  0  0  0  0  0  0  0  0  0  0
   -2.7923    1.0425    0.2829 C   0  0  0  0  0  0  0  0  0  0  0  0
   -4.1728    0.8806    0.2946 C   0  0  0  0  0  0  0  0  0  0  0  0
   -5.0833    2.0600    0.4821 C   0  0  0  0  0  0  0  0  0  0  0  0
   -4.6993   -0.3969    0.1145 C   0  0  0  0  0  0  0  0  0  0  0  0
   -3.8785   -1.5040   -0.0710 C   0  0  0  0  0  0  0  0  0  0  0  0
   -4.4617   -2.8690   -0.2960 C   0  0  0  0  0  0  0  0  0  0  0  0
   -2.4992   -1.3155   -0.0730 C   0  0  0  0  0  0  0  0  0  0  0  0
    6.3071   -1.2830   -0.7562 H   0  0  0  0  0  0  0  0  0  0  0  0
    4.0946    1.3681   -0.4877 H   0  0  0  0  0  0  0  0  0  0  0  0
    4.1963    0.0813    2.2860 H   0  0  0  0  0  0  0  0  0  0  0  0
    5.3939    1.1634    1.5723 H   0  0  0  0  0  0  0  0  0  0  0  0
    3.7820    1.7613    1.9512 H   0  0  0  0  0  0  0  0  0  0  0  0
    2.0241    1.9153   -1.3068 H   0  0  0  0  0  0  0  0  0  0  0  0
    2.2760   -1.2425    1.5912 H   0  0  0  0  0  0  0  0  0  0  0  0
   -0.1538   -1.4518    1.5536 H   0  0  0  0  0  0  0  0  0  0  0  0
   -2.3756    2.0281    0.4538 H   0  0  0  0  0  0  0  0  0  0  0  0
   -5.4312    2.4408   -0.4803 H   0  0  0  0  0  0  0  0  0  0  0  0
   -5.9674    1.7927    1.0607 H   0  0  0  0  0  0  0  0  0  0  0  0
   -4.5790    2.8792    0.9930 H   0  0  0  0  0  0  0  0  0  0  0  0
   -5.7761   -0.5305    0.1281 H   0  0  0  0  0  0  0  0  0  0  0  0
   -4.5574   -3.0789   -1.3633 H   0  0  0  0  0  0  0  0  0  0  0  0
   -3.8325   -3.6500    0.1304 H   0  0  0  0  0  0  0  0  0  0  0  0
   -5.4557   -2.9583    0.1410 H   0  0  0  0  0  0  0  0  0  0  0  0
   -1.8454   -2.1686   -0.2164 H   0  0  0  0  0  0  0  0  0  0  0  0
 19 18  1  0
 17 18  2  0
 17 15  1  0
 16 15  1  0
 18 20  1  0
 15 14  2  0
 20 13  2  0
 14 13  1  0
 13 12  1  0
 12 11  2  0
 12  8  1  0
 11 10  1  0
  9  8  1  0
  8  7  2  0
 10  6  2  0
  7  6  1  0
  6  4  1  0
  4  5  1  0
  4  2  1  0
  1  2  2  0
  2  3  1  0
  3 21  1  0
  4 22  1  6
  5 23  1  0
  5 24  1  0
  5 25  1  0
  7 26  1  0
 10 27  1  0
 11 28  1  0
 14 29  1  0
 16 30  1  0
 16 31  1  0
 16 32  1  0
 17 33  1  0
 19 34  1  0
 19 35  1  0
 19 36  1  0
 20 37  1  0
M  END
