
     RDKit          3D

 49 51  0  0  0  0  0  0  0  0999 V2000
    7.2655   -0.8279   -0.3904 N   0  0  0  0  0  0  0  0  0  0  0  0
    6.2525    0.0436   -0.1115 C   0  0  0  0  0  0  0  0  0  0  0  0
    6.4587    1.4322   -0.1991 C   0  0  0  0  0  0  0  0  0  0  0  0
    5.4010    2.2843    0.0406 C   0  0  0  0  0  0  0  0  0  0  0  0
    4.1609    1.7198    0.3635 C   0  0  0  0  0  0  0  0  0  0  0  0
    5.5601    3.7712   -0.0446 C   0  0  0  0  0  0  0  0  0  0  0  0
    5.0720   -0.4803    0.1989 N   0  0  0  0  0  0  0  0  0  0  0  0
    4.0472    0.3436    0.4299 C   0  0  0  0  0  0  0  0  0  0  0  0
    2.7298   -0.3098    0.7357 C   0  0  0  0  0  0  0  0  0  0  0  0
    2.1288   -0.9788   -0.5083 C   0  0  0  0  0  0  0  0  0  0  0  0
    0.8110   -1.6264   -0.2037 C   0  0  0  0  0  0  0  0  0  0  0  0
    0.7418   -2.9438    0.2395 C   0  0  0  0  0  0  0  0  0  0  0  0
   -0.3908   -3.5547    0.5608 N   0  0  0  0  0  0  0  0  0  0  0  0
   -1.5229   -2.8757    0.4487 C   0  0  0  0  0  0  0  0  0  0  0  0
   -0.3870   -0.9352   -0.3188 C   0  0  0  0  0  0  0  0  0  0  0  0
   -1.5918   -1.5552    0.0039 C   0  0  0  0  0  0  0  0  0  0  0  0
   -2.8825   -0.8541   -0.1168 C   0  0  0  0  0  0  0  0  0  0  0  0
   -2.9903    0.5043    0.1890 C   0  0  0  0  0  0  0  0  0  0  0  0
   -4.0287   -1.5248   -0.5412 C   0  0  0  0  0  0  0  0  0  0  0  0
   -5.2401   -0.8579   -0.6534 C   0  0  0  0  0  0  0  0  0  0  0  0
   -5.3448    0.4967   -0.3568 C   0  0  0  0  0  0  0  0  0  0  0  0
   -4.2002    1.1674    0.0712 C   0  0  0  0  0  0  0  0  0  0  0  0
   -6.6538    1.2225   -0.5187 C   0  0  0  0  0  0  0  0  0  0  0  0
   -6.9197    2.1155    0.5897 N   0  0  0  0  0  0  0  0  0  0  0  0
   -8.1498    2.8607    0.4181 C   0  0  0  0  0  0  0  0  0  0  0  0
    7.1405   -1.7728   -0.0661 H   0  0  0  0  0  0  0  0  0  0  0  0
    8.2096   -0.4885   -0.3119 H   0  0  0  0  0  0  0  0  0  0  0  0
    7.4366    1.8202   -0.4577 H   0  0  0  0  0  0  0  0  0  0  0  0
    3.3006    2.3484    0.5575 H   0  0  0  0  0  0  0  0  0  0  0  0
    4.8880    4.1884   -0.7960 H   0  0  0  0  0  0  0  0  0  0  0  0
    5.3080    4.2450    0.9053 H   0  0  0  0  0  0  0  0  0  0  0  0
    6.5776    4.0557   -0.3070 H   0  0  0  0  0  0  0  0  0  0  0  0
    2.8677   -1.0635    1.5154 H   0  0  0  0  0  0  0  0  0  0  0  0
    2.0290    0.4313    1.1257 H   0  0  0  0  0  0  0  0  0  0  0  0
    1.9997   -0.2298   -1.2930 H   0  0  0  0  0  0  0  0  0  0  0  0
    2.8313   -1.7224   -0.8905 H   0  0  0  0  0  0  0  0  0  0  0  0
    1.6514   -3.5297    0.3339 H   0  0  0  0  0  0  0  0  0  0  0  0
   -2.4280   -3.3992    0.7398 H   0  0  0  0  0  0  0  0  0  0  0  0
   -0.3821    0.0861   -0.6841 H   0  0  0  0  0  0  0  0  0  0  0  0
   -2.1220    1.0478    0.5412 H   0  0  0  0  0  0  0  0  0  0  0  0
   -3.9784   -2.5746   -0.8019 H   0  0  0  0  0  0  0  0  0  0  0  0
   -6.1167   -1.4033   -0.9832 H   0  0  0  0  0  0  0  0  0  0  0  0
   -4.2611    2.2184    0.3225 H   0  0  0  0  0  0  0  0  0  0  0  0
   -6.6135    1.8280   -1.4315 H   0  0  0  0  0  0  0  0  0  0  0  0
   -7.4565    0.4865   -0.6834 H   0  0  0  0  0  0  0  0  0  0  0  0
   -6.9740    1.5735    1.4430 H   0  0  0  0  0  0  0  0  0  0  0  0
   -8.3266    3.4854    1.2936 H   0  0  0  0  0  0  0  0  0  0  0  0
   -8.0633    3.5206   -0.4472 H   0  0  0  0  0  0  0  0  0  0  0  0
   -9.0403    2.2351    0.2652 H   0  0  0  0  0  0  0  0  0  0  0  0
  6  4  1  0
  4  3  1  0
  4  5  2  0
  3  2  2  0
  5  8  1  0
 13 12  2  0
 13 14  1  0
  2  1  1  0
  2  7  1  0
 12 11  1  0
  8  7  2  0
  8  9  1  0
 14 16  2  0
  9 10  1  0
 11 10  1  0
 11 15  2  0
 16 15  1  0
 16 17  1  0
 18 17  2  0
 18 22  1  0
 17 19  1  0
 22 21  2  0
 19 20  2  0
 21 20  1  0
 21 23  1  0
 23 24  1  0
 24 25  1  0
  1 26  1  0
  1 27  1  0
  3 28  1  0
  5 29  1  0
  6 30  1  0
  6 31  1  0
  6 32  1  0
  9 33  1  0
  9 34  1  0
 10 35  1  0
 10 36  1  0
 12 37  1  0
 14 38  1  0
 15 39  1  0
 18 40  1  0
 19 41  1  0
 20 42  1  0
 22 43  1  0
 23 44  1  0
 23 45  1  0
 24 46  1  0
 25 47  1  0
 25 48  1  0
 25 49  1  0
M  END
