
     RDKit          3D

 27 27  0  0  0  0  0  0  0  0999 V2000
    6.3592    0.1169    1.4416 C   0  0  0  0  0  0  0  0  0  0  0  0
    6.1855   -0.8257   -0.7550 O   0  0  0  0  0  0  0  0  0  0  0  0
    5.6236   -0.2906    0.1915 C   0  0  0  0  0  0  0  0  0  0  0  0
    3.4747   -0.3891   -0.9500 C   0  0  0  0  0  0  0  0  0  0  0  0
    2.0985    0.0296   -0.7296 C   0  0  0  0  0  0  0  0  0  0  0  0
    0.9609    0.3793   -0.5492 C   0  0  0  0  0  0  0  0  0  0  0  0
   -0.3860    0.7963   -0.3359 C   0  0  0  0  0  0  0  0  0  0  0  0
   -0.7089    2.1563   -0.3052 C   0  0  0  0  0  0  0  0  0  0  0  0
   -4.9871   -0.2860    0.2851 F   0  0  0  0  0  0  0  0  0  0  0  0
   -3.5672   -1.4483    1.4085 F   0  0  0  0  0  0  0  0  0  0  0  0
   -3.7260   -1.7124   -0.7168 F   0  0  0  0  0  0  0  0  0  0  0  0
   -2.7036    0.2600    0.0485 C   0  0  0  0  0  0  0  0  0  0  0  0
   -1.3927   -0.1504   -0.1571 C   0  0  0  0  0  0  0  0  0  0  0  0
   -2.0167    2.5544   -0.0961 C   0  0  0  0  0  0  0  0  0  0  0  0
   -3.0204    1.6114    0.0827 C   0  0  0  0  0  0  0  0  0  0  0  0
    4.3053   -0.0334    0.1827 N   0  0  0  0  0  0  0  0  0  0  0  0
    7.2026    0.7529    1.1747 H   0  0  0  0  0  0  0  0  0  0  0  0
    5.7379    0.6481    2.1598 H   0  0  0  0  0  0  0  0  0  0  0  0
    6.7633   -0.7715    1.9272 H   0  0  0  0  0  0  0  0  0  0  0  0
    3.5008   -1.4688   -1.1239 H   0  0  0  0  0  0  0  0  0  0  0  0
    3.8537    0.0823   -1.8613 H   0  0  0  0  0  0  0  0  0  0  0  0
    0.0695    2.8942   -0.4448 H   0  0  0  0  0  0  0  0  0  0  0  0
   -1.1354   -1.2016   -0.1846 H   0  0  0  0  0  0  0  0  0  0  0  0
   -2.2611    3.6075   -0.0715 H   0  0  0  0  0  0  0  0  0  0  0  0
   -4.0357    1.9445    0.2463 H   0  0  0  0  0  0  0  0  0  0  0  0
    3.8705    0.3901    0.9853 H   0  0  0  0  0  0  0  0  0  0  0  0
   -3.7514   -0.7898    0.2548 C   0  0  1  0  0  0  0  0  0  0  0  0
  1  3  1  0
  2  3  2  0
  3 16  1  0
 16  4  1  0
  4  5  1  0
  5  6  3  0
  6  7  1  0
 13  7  2  0
 13 12  1  0
  7  8  1  0
 27 11  1  6
 10 27  1  0
 27 12  1  0
 27  9  1  0
 12 15  2  0
  8 14  2  0
 15 14  1  0
  1 17  1  0
  1 18  1  0
  1 19  1  0
  4 20  1  0
  4 21  1  0
  8 22  1  0
 13 23  1  0
 14 24  1  0
 15 25  1  0
 16 26  1  0
M  END
