
     RDKit          3D

 26 27  0  0  0  0  0  0  0  0999 V2000
    1.3064    0.7187    0.0274 C   0  0  0  0  0  0  0  0  0  0  0  0
    1.7095   -0.6022    0.0148 C   0  0  0  0  0  0  0  0  0  0  0  0
   -0.4658   -0.4246    0.0495 C   0  0  0  0  0  0  0  0  0  0  0  0
    2.2994    1.7371    0.0165 C   0  0  0  0  0  0  0  0  0  0  0  0
    3.8756   -0.1602   -0.0221 C   0  0  0  0  0  0  0  0  0  0  0  0
   -4.4230    0.3538   -0.0293 C   0  0  0  0  0  0  0  0  0  0  0  0
   -2.9394    0.6033   -0.0325 C   0  0  0  0  0  0  0  0  0  0  0  0
   -0.0637    0.8096    0.0499 N   0  0  0  0  0  0  0  0  0  0  0  0
    2.9552   -1.0920   -0.0127 N   0  0  0  0  0  0  0  0  0  0  0  0
    0.5619   -1.3339    0.0283 N   0  0  0  0  0  0  0  0  0  0  0  0
    3.5823    1.1724   -0.0078 N   0  0  0  0  0  0  0  0  0  0  0  0
    5.1747   -0.4995   -0.0069 N   0  0  0  0  0  0  0  0  0  0  0  0
   -5.0958    1.4854   -0.1342 O   0  0  0  0  0  0  0  0  0  0  0  0
    2.1557    2.9491    0.0264 O   0  0  0  0  0  0  0  0  0  0  0  0
   -4.9244   -0.7372    0.0582 O   0  0  0  0  0  0  0  0  0  0  0  0
   -2.1129   -0.9991    0.0759 S   0  0  0  0  0  0  0  0  0  0  0  0
   -0.0364   -3.1323    0.9216 H   0  0  0  0  0  0  0  0  0  0  0  0
   -0.1180   -3.1060   -0.8542 H   0  0  0  0  0  0  0  0  0  0  0  0
    1.4468   -3.1985   -0.0379 H   0  0  0  0  0  0  0  0  0  0  0  0
   -2.6440    1.1231   -0.9451 H   0  0  0  0  0  0  0  0  0  0  0  0
   -2.6623    1.2367    0.8116 H   0  0  0  0  0  0  0  0  0  0  0  0
    4.3490    1.8331   -0.0043 H   0  0  0  0  0  0  0  0  0  0  0  0
    5.8805    0.1691   -0.2649 H   0  0  0  0  0  0  0  0  0  0  0  0
    5.3984   -1.4649   -0.1806 H   0  0  0  0  0  0  0  0  0  0  0  0
   -6.0498    1.3133   -0.1269 H   0  0  0  0  0  0  0  0  0  0  0  0
    0.4487   -2.7742    0.0147 C   0  0  0  0  0  0  0  0  0  0  0  0
 26 10  1  0
  9  5  2  0
  9  2  1  0
 12  5  1  0
 10  2  1  0
 10  3  1  0
  5 11  1  0
  2  1  2  0
 16  3  1  0
 16  7  1  0
  3  8  2  0
 11  4  1  0
  1  8  1  0
  1  4  1  0
  4 14  2  0
  7  6  1  0
 15  6  2  0
  6 13  1  0
 26 17  1  0
 26 18  1  0
 26 19  1  0
  7 20  1  0
  7 21  1  0
 11 22  1  0
 12 23  1  0
 12 24  1  0
 13 25  1  0
M  END
