
     RDKit          3D

 82 85  0  0  0  0  0  0  0  0999 V2000
   -3.7556    2.0639   -1.1141 C   0  0  0  0  0  0  0  0  0  0  0  0
   -0.6312    6.2643   -0.9190 F   0  0  0  0  0  0  0  0  0  0  0  0
   -3.5215   -1.3276   -0.0662 N   0  0  0  0  0  0  0  0  0  0  0  0
   -2.1776   -1.0427   -0.1437 C   0  0  0  0  0  0  0  0  0  0  0  0
   -3.1469    3.6094    1.9861 F   0  0  0  0  0  0  0  0  0  0  0  0
   -6.0027    4.6157   -1.8188 N   0  0  0  0  0  0  0  0  0  0  0  0
   -1.9996    0.2436   -0.5465 C   0  0  0  0  0  0  0  0  0  0  0  0
   -3.3078    0.8046   -0.7315 C   0  0  0  0  0  0  0  0  0  0  0  0
   -5.6136    0.0210   -0.4406 C   0  0  0  0  0  0  0  0  0  0  0  0
   -4.2377   -0.1960   -0.3922 C   0  0  0  0  0  0  0  0  0  0  0  0
   -6.9374   -7.3711    0.0339 C   0  0  0  0  0  0  0  0  0  0  0  0
   -6.0460    1.2713   -0.8226 C   0  0  0  0  0  0  0  0  0  0  0  0
   -5.1247    2.2851   -1.1495 C   0  0  0  0  0  0  0  0  0  0  0  0
   -4.0945   -2.5258    0.4446 C   0  0  0  0  0  0  0  0  0  0  0  0
   -3.5507   -3.6646    0.0003 N   0  0  0  0  0  0  0  0  0  0  0  0
   -2.7463   -3.8057   -1.2024 C   0  0  0  0  0  0  0  0  0  0  0  0
   -3.9840   -4.9125    0.6199 C   0  0  0  0  0  0  0  0  0  0  0  0
   -5.2566   -5.4766    0.0012 C   0  0  0  0  0  0  0  0  0  0  0  0
   -5.6676   -6.7954    0.6447 C   0  0  0  0  0  0  0  0  0  0  0  0
   -5.0046   -2.4500    1.2457 O   0  0  0  0  0  0  0  0  0  0  0  0
   -0.7343    0.9676   -0.7774 C   0  0  0  0  0  0  0  0  0  0  0  0
    0.2863    0.6233    0.0323 N   0  0  0  0  0  0  0  0  0  0  0  0
    1.5388    1.3441    0.0838 C   0  0  2  0  0  0  0  0  0  0  0  0
    2.6799    0.3378    0.2872 C   0  0  1  0  0  0  0  0  0  0  0  0
    4.0495    0.9999    0.3005 C   0  0  0  0  0  0  0  0  0  0  0  0
    5.1021    0.0057    0.2626 N   0  0  0  0  0  0  0  0  0  0  0  0
    6.4214    0.6001    0.3392 C   0  0  0  0  0  0  0  0  0  0  0  0
    7.5114   -0.4391    0.3219 C   0  0  0  0  0  0  0  0  0  0  0  0
   -0.6563    1.8211   -1.6487 O   0  0  0  0  0  0  0  0  0  0  0  0
    1.4898    2.4394    1.1686 C   0  0  0  0  0  0  0  0  0  0  0  0
    0.3106    3.3497    0.9865 C   0  0  0  0  0  0  0  0  0  0  0  0
   -0.8951    3.0734    1.6247 C   0  0  0  0  0  0  0  0  0  0  0  0
   -1.9863    3.8821    1.3749 C   0  0  0  0  0  0  0  0  0  0  0  0
   -1.9359    4.9647    0.5191 C   0  0  0  0  0  0  0  0  0  0  0  0
   -0.7195    5.2162   -0.0875 C   0  0  0  0  0  0  0  0  0  0  0  0
    0.3995    4.4388    0.1252 C   0  0  0  0  0  0  0  0  0  0  0  0
    2.4701   -0.4640    1.4335 O   0  0  0  0  0  0  0  0  0  0  0  0
    7.4230   -1.5369   -0.5222 C   0  0  0  0  0  0  0  0  0  0  0  0
    8.4406   -2.4912   -0.5622 C   0  0  0  0  0  0  0  0  0  0  0  0
    9.5596   -2.3451    0.2553 C   0  0  0  0  0  0  0  0  0  0  0  0
    9.6407   -1.2440    1.0994 C   0  0  0  0  0  0  0  0  0  0  0  0
    8.6306   -0.2975    1.1413 C   0  0  0  0  0  0  0  0  0  0  0  0
    8.2564   -3.5170   -1.4178 O   0  0  0  0  0  0  0  0  0  0  0  0
    9.2456   -4.5234   -1.4869 C   0  0  0  0  0  0  0  0  0  0  0  0
   -3.0578    2.8471   -1.3741 H   0  0  0  0  0  0  0  0  0  0  0  0
   -1.4415   -1.7924    0.1011 H   0  0  0  0  0  0  0  0  0  0  0  0
   -6.3285   -0.7467   -0.1851 H   0  0  0  0  0  0  0  0  0  0  0  0
   -7.2290   -8.2999    0.5249 H   0  0  0  0  0  0  0  0  0  0  0  0
   -7.7707   -6.6723    0.1264 H   0  0  0  0  0  0  0  0  0  0  0  0
   -6.8040   -7.5865   -1.0277 H   0  0  0  0  0  0  0  0  0  0  0  0
   -7.1059    1.4796   -0.8681 H   0  0  0  0  0  0  0  0  0  0  0  0
   -1.6998   -3.9961   -0.9625 H   0  0  0  0  0  0  0  0  0  0  0  0
   -3.1219   -4.6518   -1.7766 H   0  0  0  0  0  0  0  0  0  0  0  0
   -2.8118   -2.9286   -1.8387 H   0  0  0  0  0  0  0  0  0  0  0  0
   -3.1632   -5.6243    0.5100 H   0  0  0  0  0  0  0  0  0  0  0  0
   -4.1191   -4.7508    1.6894 H   0  0  0  0  0  0  0  0  0  0  0  0
   -6.0649   -4.7484    0.1069 H   0  0  0  0  0  0  0  0  0  0  0  0
   -5.1083   -5.6268   -1.0729 H   0  0  0  0  0  0  0  0  0  0  0  0
   -5.8152   -6.6443    1.7182 H   0  0  0  0  0  0  0  0  0  0  0  0
   -4.8526   -7.5192    0.5491 H   0  0  0  0  0  0  0  0  0  0  0  0
    0.0945    0.0066    0.8073 H   0  0  0  0  0  0  0  0  0  0  0  0
    1.6874    1.8185   -0.8877 H   0  0  0  0  0  0  0  0  0  0  0  0
    2.6482   -0.3534   -0.5602 H   0  0  0  0  0  0  0  0  0  0  0  0
    4.1395    1.6419   -0.5814 H   0  0  0  0  0  0  0  0  0  0  0  0
    4.1385    1.6667    1.1748 H   0  0  0  0  0  0  0  0  0  0  0  0
    4.9869   -0.6260    1.0465 H   0  0  0  0  0  0  0  0  0  0  0  0
    6.5439    1.2631   -0.5245 H   0  0  0  0  0  0  0  0  0  0  0  0
    6.5489    1.2405    1.2256 H   0  0  0  0  0  0  0  0  0  0  0  0
    1.4417    1.9798    2.1599 H   0  0  0  0  0  0  0  0  0  0  0  0
    2.4111    3.0237    1.1308 H   0  0  0  0  0  0  0  0  0  0  0  0
   -0.9827    2.2401    2.3098 H   0  0  0  0  0  0  0  0  0  0  0  0
   -2.8010    5.5893    0.3397 H   0  0  0  0  0  0  0  0  0  0  0  0
    1.3278    4.6717   -0.3814 H   0  0  0  0  0  0  0  0  0  0  0  0
    2.6341    0.0647    2.2224 H   0  0  0  0  0  0  0  0  0  0  0  0
    6.5525   -1.6633   -1.1546 H   0  0  0  0  0  0  0  0  0  0  0  0
   10.3645   -3.0669    0.2543 H   0  0  0  0  0  0  0  0  0  0  0  0
   10.5083   -1.1351    1.7378 H   0  0  0  0  0  0  0  0  0  0  0  0
    8.7067    0.5487    1.8130 H   0  0  0  0  0  0  0  0  0  0  0  0
    8.9066   -5.2410   -2.2302 H   0  0  0  0  0  0  0  0  0  0  0  0
   10.2148   -4.1255   -1.7992 H   0  0  0  0  0  0  0  0  0  0  0  0
    9.3703   -5.0407   -0.5319 H   0  0  0  0  0  0  0  0  0  0  0  0
   -5.6104    3.5728   -1.5229 C   0  0  0  0  0  0  0  0  0  0  0  0
  8  1  2  0
  1 13  1  0
  1 45  1  0
  2 35  1  0
 14  3  1  0
  4  3  1  0
  3 10  1  0
  4  7  2  0
  4 46  1  0
  5 33  1  0
 82  6  3  0
  7 21  1  0
  7  8  1  0
 10  8  1  0
 10  9  2  0
  9 12  1  0
  9 47  1  0
 13 82  1  0
 11 19  1  0
 11 48  1  0
 11 49  1  0
 11 50  1  0
 12 13  2  0
 12 51  1  0
 15 14  1  0
 14 20  2  0
 16 15  1  0
 17 15  1  0
 16 52  1  0
 16 53  1  0
 16 54  1  0
 17 18  1  0
 17 55  1  0
 17 56  1  0
 18 19  1  0
 18 57  1  0
 18 58  1  0
 19 59  1  0
 19 60  1  0
 29 21  2  0
 21 22  1  0
 23 22  1  0
 22 61  1  0
 30 23  1  0
 23 24  1  0
 23 62  1  6
 37 24  1  0
 24 25  1  0
 24 63  1  6
 25 26  1  0
 25 64  1  0
 25 65  1  0
 26 27  1  0
 26 66  1  0
 28 27  1  0
 27 67  1  0
 27 68  1  0
 38 28  2  0
 42 28  1  0
 31 30  1  0
 30 69  1  0
 30 70  1  0
 36 31  1  0
 32 31  2  0
 33 32  1  0
 32 71  1  0
 34 33  2  0
 34 35  1  0
 34 72  1  0
 35 36  2  0
 36 73  1  0
 37 74  1  0
 39 38  1  0
 38 75  1  0
 43 39  1  0
 40 39  2  0
 40 41  1  0
 40 76  1  0
 41 42  2  0
 41 77  1  0
 42 78  1  0
 44 43  1  0
 44 79  1  0
 44 80  1  0
 44 81  1  0
M  END
