
     RDKit          3D

 32 33  0  0  0  0  0  0  0  0999 V2000
   -0.8969    1.6079    0.4107 C   0  0  0  0  0  0  0  0  0  0  0  0
   -0.3493    0.3500    0.1642 C   0  0  0  0  0  0  0  0  0  0  0  0
   -1.2177   -0.6975   -0.1540 C   0  0  0  0  0  0  0  0  0  0  0  0
   -2.5893   -0.4698   -0.2430 C   0  0  0  0  0  0  0  0  0  0  0  0
    0.6059   -2.2066   -0.3851 C   0  0  1  0  0  0  0  0  0  0  0  0
    1.3044   -1.3132    0.6279 C   0  0  0  0  0  0  0  0  0  0  0  0
   -2.2578    1.8286    0.3053 C   0  0  0  0  0  0  0  0  0  0  0  0
    4.3168    1.5286   -0.3680 C   0  0  0  0  0  0  0  0  0  0  0  0
    0.8215   -3.6764   -0.1042 C   0  0  0  0  0  0  0  0  0  0  0  0
   -3.1283    0.7885   -0.0228 C   0  0  0  0  0  0  0  0  0  0  0  0
    1.0234    0.0774    0.3174 N   0  0  0  0  0  0  0  0  0  0  0  0
    3.2490    0.6880    0.1204 N   0  0  0  0  0  0  0  0  0  0  0  0
    1.6609    1.8430   -0.9886 O   0  0  0  0  0  0  0  0  0  0  0  0
   -0.7976   -1.9633   -0.3663 O   0  0  0  0  0  0  0  0  0  0  0  0
   -0.2488    2.4271    0.6890 H   0  0  0  0  0  0  0  0  0  0  0  0
   -3.2343   -1.3043   -0.4932 H   0  0  0  0  0  0  0  0  0  0  0  0
    0.9930   -1.9612   -1.3817 H   0  0  0  0  0  0  0  0  0  0  0  0
    0.9660   -1.5486    1.6412 H   0  0  0  0  0  0  0  0  0  0  0  0
    2.3710   -1.5152    0.5843 H   0  0  0  0  0  0  0  0  0  0  0  0
   -2.6487    2.8209    0.4947 H   0  0  0  0  0  0  0  0  0  0  0  0
   -5.0779    0.8953    0.8795 H   0  0  0  0  0  0  0  0  0  0  0  0
   -4.8406    2.0221   -0.4460 H   0  0  0  0  0  0  0  0  0  0  0  0
   -5.0897    0.3078   -0.7759 H   0  0  0  0  0  0  0  0  0  0  0  0
    5.2561    1.1364    0.0117 H   0  0  0  0  0  0  0  0  0  0  0  0
    4.3604    1.5150   -1.4559 H   0  0  0  0  0  0  0  0  0  0  0  0
    4.2206    2.5658   -0.0425 H   0  0  0  0  0  0  0  0  0  0  0  0
    0.2812   -4.2950   -0.8204 H   0  0  0  0  0  0  0  0  0  0  0  0
    1.8809   -3.9169   -0.1927 H   0  0  0  0  0  0  0  0  0  0  0  0
    0.4939   -3.9413    0.9018 H   0  0  0  0  0  0  0  0  0  0  0  0
    3.4373    0.1538    0.9516 H   0  0  0  0  0  0  0  0  0  0  0  0
    1.9671    0.9324   -0.2347 C   0  0  0  0  0  0  0  0  0  0  0  0
   -4.6100    1.0148   -0.0999 C   0  0  0  0  0  0  0  0  0  0  0  0
  8 12  1  0
 13 31  2  0
 31 12  1  0
 31 11  1  0
  6 11  1  0
  6  5  1  0
 11  2  1  0
  5  9  1  0
  5 14  1  0
  2  1  2  0
  2  3  1  0
  1  7  1  0
 14  3  1  0
  3  4  2  0
  7 10  2  0
  4 10  1  0
 10 32  1  0
  1 15  1  0
  4 16  1  0
  5 17  1  6
  6 18  1  0
  6 19  1  0
  7 20  1  0
 32 21  1  0
 32 22  1  0
 32 23  1  0
  8 24  1  0
  8 25  1  0
  8 26  1  0
  9 27  1  0
  9 28  1  0
  9 29  1  0
 12 30  1  0
M  END
