
     RDKit          3D

 33 35  0  0  0  0  0  0  0  0999 V2000
    4.2133    1.7955    0.6075 C   0  0  0  0  0  0  0  0  0  0  0  0
    5.1740    0.8110    0.3132 C   0  0  0  0  0  0  0  0  0  0  0  0
    2.8786    1.5136    0.4805 C   0  0  0  0  0  0  0  0  0  0  0  0
    4.7790   -0.4357   -0.0889 C   0  0  0  0  0  0  0  0  0  0  0  0
   -2.0860    1.3950   -0.7842 C   0  0  0  0  0  0  0  0  0  0  0  0
   -1.9007   -0.3298    0.8658 C   0  0  0  0  0  0  0  0  0  0  0  0
   -3.4570    1.2241   -0.8139 C   0  0  0  0  0  0  0  0  0  0  0  0
   -3.2744   -0.5281    0.8227 C   0  0  0  0  0  0  0  0  0  0  0  0
    0.7704   -1.3988   -0.5004 C   0  0  0  0  0  0  0  0  0  0  0  0
    1.8183   -2.2961   -0.7281 C   0  0  0  0  0  0  0  0  0  0  0  0
    2.4413    0.2416    0.0496 C   0  0  0  0  0  0  0  0  0  0  0  0
    3.4090   -0.7583   -0.2256 C   0  0  0  0  0  0  0  0  0  0  0  0
   -1.2898    0.6193    0.0568 C   0  0  0  0  0  0  0  0  0  0  0  0
    1.0566   -0.1010   -0.1144 C   0  0  0  0  0  0  0  0  0  0  0  0
   -4.0654    0.2522   -0.0180 C   0  0  0  0  0  0  0  0  0  0  0  0
   -6.0639   -0.8291    0.6621 C   0  0  0  0  0  0  0  0  0  0  0  0
    3.0924   -2.0188   -0.6106 N   0  0  0  0  0  0  0  0  0  0  0  0
    0.0992    0.8403    0.1079 N   0  0  0  0  0  0  0  0  0  0  0  0
   -5.4036    0.1432   -0.1229 O   0  0  0  0  0  0  0  0  0  0  0  0
    4.5283    2.7743    0.9430 H   0  0  0  0  0  0  0  0  0  0  0  0
    6.2267    1.0413    0.4126 H   0  0  0  0  0  0  0  0  0  0  0  0
    2.1664    2.2881    0.7344 H   0  0  0  0  0  0  0  0  0  0  0  0
    5.5062   -1.2073   -0.3085 H   0  0  0  0  0  0  0  0  0  0  0  0
   -1.6276    2.1428   -1.4201 H   0  0  0  0  0  0  0  0  0  0  0  0
   -1.3064   -0.9231    1.5491 H   0  0  0  0  0  0  0  0  0  0  0  0
   -4.0662    1.8360   -1.4673 H   0  0  0  0  0  0  0  0  0  0  0  0
   -3.7067   -1.2843    1.4639 H   0  0  0  0  0  0  0  0  0  0  0  0
   -0.2457   -1.7317   -0.6538 H   0  0  0  0  0  0  0  0  0  0  0  0
    1.5687   -3.3056   -1.0404 H   0  0  0  0  0  0  0  0  0  0  0  0
   -5.7205   -1.8414    0.4334 H   0  0  0  0  0  0  0  0  0  0  0  0
   -5.9348   -0.6479    1.7323 H   0  0  0  0  0  0  0  0  0  0  0  0
   -7.1214   -0.7556    0.4211 H   0  0  0  0  0  0  0  0  0  0  0  0
    0.3849    1.8049    0.0666 H   0  0  0  0  0  0  0  0  0  0  0  0
  4  2  1  0
  4 12  2  0
 17 12  1  0
 17 10  2  0
  2  1  2  0
 12 11  1  0
 10  9  1  0
  1  3  1  0
 11  3  2  0
 11 14  1  0
  9 14  2  0
 14 18  1  0
 18 13  1  0
 13  6  1  0
 13  5  2  0
  6  8  2  0
  5  7  1  0
  8 15  1  0
  7 15  2  0
 15 19  1  0
 19 16  1  0
  1 20  1  0
  2 21  1  0
  3 22  1  0
  4 23  1  0
  5 24  1  0
  6 25  1  0
  7 26  1  0
  8 27  1  0
  9 28  1  0
 10 29  1  0
 16 30  1  0
 16 31  1  0
 16 32  1  0
 18 33  1  0
M  END
