
     RDKit          3D

 18 19  0  0  0  0  0  0  0  0999 V2000
   -1.0128   -2.3292    0.1346 O   0  0  0  0  0  0  0  0  0  0  0  0
   -0.6367   -1.1932    0.2140 C   0  0  0  0  0  0  0  0  0  0  0  0
    0.7319   -0.6782    0.0538 C   0  0  0  0  0  0  0  0  0  0  0  0
    1.9070   -1.3996   -0.0907 C   0  0  0  0  0  0  0  0  0  0  0  0
    3.0852   -0.6848   -0.2468 C   0  0  0  0  0  0  0  0  0  0  0  0
    3.0854    0.7124   -0.2630 C   0  0  0  0  0  0  0  0  0  0  0  0
    1.9074    1.4307   -0.1242 C   0  0  0  0  0  0  0  0  0  0  0  0
    0.7320    0.7134    0.0374 C   0  0  0  0  0  0  0  0  0  0  0  0
   -0.6364    1.2324    0.1853 C   0  0  0  0  0  0  0  0  0  0  0  0
   -1.0125    2.3662    0.0800 O   0  0  0  0  0  0  0  0  0  0  0  0
   -1.5285    0.0231    0.5070 C   0  0  1  0  0  0  0  0  0  0  0  0
   -2.7878    0.0149   -0.1988 C   0  0  0  0  0  0  0  0  0  0  0  0
   -3.7827    0.0081   -0.7739 N   0  0  0  0  0  0  0  0  0  0  0  0
    1.9083   -2.4810   -0.0808 H   0  0  0  0  0  0  0  0  0  0  0  0
    4.0209   -1.2150   -0.3617 H   0  0  0  0  0  0  0  0  0  0  0  0
    4.0213    1.2396   -0.3900 H   0  0  0  0  0  0  0  0  0  0  0  0
    1.9089    2.5122   -0.1395 H   0  0  0  0  0  0  0  0  0  0  0  0
   -1.7269    0.0372    1.5879 H   0  0  0  0  0  0  0  0  0  0  0  0
 10  9  2  0
  7  6  1  0
  7  8  2  0
  6  5  2  0
  9  8  1  0
  9 11  1  0
  8  3  1  0
  5  4  1  0
 11 12  1  0
 11  2  1  0
 12 13  3  0
  3  4  2  0
  3  2  1  0
  2  1  2  0
  4 14  1  0
  5 15  1  0
  6 16  1  0
  7 17  1  0
 11 18  1  1
M  END
