
     RDKit          3D

 36 36  0  0  0  0  0  0  0  0999 V2000
    2.6053    1.5523    1.5443 N   0  0  0  0  0  0  0  0  0  0  0  0
    2.6303    0.8474    0.2842 C   0  0  2  0  0  0  0  0  0  0  0  0
    1.9004    1.5749   -0.8376 C   0  0  0  0  0  0  0  0  0  0  0  0
    1.2197    2.5596   -0.6911 O   0  0  0  0  0  0  0  0  0  0  0  0
    2.0876   -0.5809    0.4379 C   0  0  0  0  0  0  0  0  0  0  0  0
    0.6094   -0.6670    0.7978 C   0  0  0  0  0  0  0  0  0  0  0  0
    0.1323   -2.1078    0.9309 C   0  0  0  0  0  0  0  0  0  0  0  0
   -1.3362   -2.2063    1.3171 C   0  0  0  0  0  0  0  0  0  0  0  0
   -1.5484   -1.6551    2.6330 N   0  0  0  0  0  0  0  0  0  0  0  0
   -2.7300   -1.3690    3.0146 C   0  0  0  0  0  0  0  0  0  0  0  0
   -2.8902   -0.7808    4.3733 C   0  0  0  0  0  0  0  0  0  0  0  0
   -3.8888   -1.5927    2.3302 N   0  0  0  0  0  0  0  0  0  0  0  0
   -1.8311   -0.0988    4.9641 C   0  0  0  0  0  0  0  0  0  0  0  0
   -1.9997    0.4367    6.2291 C   0  0  0  0  0  0  0  0  0  0  0  0
   -3.1257    0.3322    6.9289 N   0  0  0  0  0  0  0  0  0  0  0  0
   -4.1314   -0.3252    6.3676 C   0  0  0  0  0  0  0  0  0  0  0  0
   -4.0685   -0.8941    5.1030 C   0  0  0  0  0  0  0  0  0  0  0  0
    2.0961    0.9967   -2.0181 O   0  0  0  0  0  0  0  0  0  0  0  0
    3.0556    2.4535    1.4484 H   0  0  0  0  0  0  0  0  0  0  0  0
    1.6531    1.7497    1.8250 H   0  0  0  0  0  0  0  0  0  0  0  0
    3.6763    0.7602   -0.0281 H   0  0  0  0  0  0  0  0  0  0  0  0
    2.2735   -1.1381   -0.4829 H   0  0  0  0  0  0  0  0  0  0  0  0
    2.6830   -1.0651    1.2161 H   0  0  0  0  0  0  0  0  0  0  0  0
    0.4117   -0.1469    1.7392 H   0  0  0  0  0  0  0  0  0  0  0  0
    0.0002   -0.1679    0.0354 H   0  0  0  0  0  0  0  0  0  0  0  0
    0.2844   -2.6347   -0.0154 H   0  0  0  0  0  0  0  0  0  0  0  0
    0.7360   -2.6307    1.6791 H   0  0  0  0  0  0  0  0  0  0  0  0
   -1.9359   -1.6969    0.5460 H   0  0  0  0  0  0  0  0  0  0  0  0
   -1.6464   -3.2590    1.2896 H   0  0  0  0  0  0  0  0  0  0  0  0
   -3.8275   -1.8621    1.3617 H   0  0  0  0  0  0  0  0  0  0  0  0
   -0.8920    0.0150    4.4412 H   0  0  0  0  0  0  0  0  0  0  0  0
   -1.1861    0.9784    6.6984 H   0  0  0  0  0  0  0  0  0  0  0  0
   -5.0417   -0.4107    6.9506 H   0  0  0  0  0  0  0  0  0  0  0  0
   -4.9285   -1.4292    4.7232 H   0  0  0  0  0  0  0  0  0  0  0  0
    1.6065    1.4722   -2.7060 H   0  0  0  0  0  0  0  0  0  0  0  0
   -4.6845   -1.0097    2.5322 H   0  0  0  0  0  0  0  0  0  0  0  0
  1  2  1  0
  1 19  1  0
  1 20  1  0
  2  3  1  0
  2  5  1  0
  2 21  1  6
  3  4  2  0
  3 18  1  0
  5  6  1  0
  5 22  1  0
  5 23  1  0
  6  7  1  0
  6 24  1  0
  6 25  1  0
  7  8  1  0
  7 26  1  0
  7 27  1  0
  8  9  1  0
  8 28  1  0
  8 29  1  0
  9 10  2  0
 10 11  1  0
 10 12  1  0
 11 13  2  0
 11 17  1  0
 12 30  1  0
 13 14  1  0
 13 31  1  0
 14 15  2  0
 14 32  1  0
 15 16  1  0
 16 17  2  0
 16 33  1  0
 17 34  1  0
 18 35  1  0
 36 12  1  0
M  END
