
     RDKit          3D

 72 76  0  0  0  0  0  0  0  0999 V2000
   -5.7885   -2.8292    1.0614 C   0  0  0  0  0  0  0  0  0  0  0  0
   -5.9005   -1.3820    0.7549 C   0  0  0  0  0  0  0  0  0  0  0  0
   -6.9780   -0.6630    0.8848 N   0  0  0  0  0  0  0  0  0  0  0  0
   -6.6768    0.6057    0.5119 N   0  0  0  0  0  0  0  0  0  0  0  0
   -5.4227    0.6417    0.1614 C   0  0  0  0  0  0  0  0  0  0  0  0
   -4.7277    1.8835   -0.3108 C   0  0  1  0  0  0  0  0  0  0  0  0
   -5.3731    2.4017   -1.5959 C   0  0  0  0  0  0  0  0  0  0  0  0
   -4.7369    2.9493    0.7849 C   0  0  0  0  0  0  0  0  0  0  0  0
   -4.8822   -0.6025    0.2964 N   0  0  0  0  0  0  0  0  0  0  0  0
   -3.5214   -1.0547    0.0358 C   0  0  1  0  0  0  0  0  0  0  0  0
   -3.1332   -0.9294   -1.4384 C   0  0  0  0  0  0  0  0  0  0  0  0
   -1.6457   -1.2248   -1.6140 C   0  0  2  0  0  0  0  0  0  0  0  0
   -1.2491   -2.6058   -1.0429 C   0  0  0  0  0  0  0  0  0  0  0  0
   -0.8837   -2.3010    0.4231 C   0  0  0  0  0  0  0  0  0  0  0  0
   -1.0875   -0.7717    0.5397 C   0  0  2  0  0  0  0  0  0  0  0  0
   -2.5039   -0.4110    0.9790 C   0  0  0  0  0  0  0  0  0  0  0  0
   -0.8999   -0.2509   -0.8169 N   0  0  0  0  0  0  0  0  0  0  0  0
    0.4974   -0.1516   -1.2052 C   0  0  0  0  0  0  0  0  0  0  0  0
    1.1626    1.0696   -0.5811 C   0  0  0  0  0  0  0  0  0  0  0  0
    2.6742    1.1024   -0.8237 C   0  0  2  0  0  0  0  0  0  0  0  0
    3.2868   -0.0084   -0.1264 N   0  0  0  0  0  0  0  0  0  0  0  0
    4.4763   -0.5483   -0.4667 C   0  0  0  0  0  0  0  0  0  0  0  0
    5.1343   -0.1252   -1.4035 O   0  0  0  0  0  0  0  0  0  0  0  0
    4.8970   -1.7118    0.4067 C   0  0  1  0  0  0  0  0  0  0  0  0
    3.8841   -2.8679    0.4249 C   0  0  0  0  0  0  0  0  0  0  0  0
    4.6909   -4.0044    1.0406 C   0  0  0  0  0  0  0  0  0  0  0  0
    6.0860   -3.8604    0.4137 C   0  0  0  0  0  0  0  0  0  0  0  0
    6.2179   -2.3767    0.0013 C   0  0  0  0  0  0  0  0  0  0  0  0
    3.2666    2.4163   -0.3984 C   0  0  0  0  0  0  0  0  0  0  0  0
    3.3617    3.5749   -1.1077 C   0  0  0  0  0  0  0  0  0  0  0  0
    3.9069    4.6475   -0.3472 C   0  0  0  0  0  0  0  0  0  0  0  0
    4.2145    4.2812    0.9265 C   0  0  0  0  0  0  0  0  0  0  0  0
    3.8483    2.6292    1.2089 S   0  0  0  0  0  0  0  0  0  0  0  0
   -5.5249   -3.4138    0.1789 H   0  0  0  0  0  0  0  0  0  0  0  0
   -5.0374   -3.0241    1.8281 H   0  0  0  0  0  0  0  0  0  0  0  0
   -6.7464   -3.1900    1.4282 H   0  0  0  0  0  0  0  0  0  0  0  0
   -3.6872    1.6466   -0.5352 H   0  0  0  0  0  0  0  0  0  0  0  0
   -4.8472    3.2904   -1.9460 H   0  0  0  0  0  0  0  0  0  0  0  0
   -5.3383    1.6551   -2.3904 H   0  0  0  0  0  0  0  0  0  0  0  0
   -6.4171    2.6681   -1.4298 H   0  0  0  0  0  0  0  0  0  0  0  0
   -4.2427    2.5966    1.6913 H   0  0  0  0  0  0  0  0  0  0  0  0
   -4.2120    3.8427    0.4447 H   0  0  0  0  0  0  0  0  0  0  0  0
   -5.7560    3.2338    1.0464 H   0  0  0  0  0  0  0  0  0  0  0  0
   -3.5335   -2.1217    0.2656 H   0  0  0  0  0  0  0  0  0  0  0  0
   -3.7349   -1.6221   -2.0311 H   0  0  0  0  0  0  0  0  0  0  0  0
   -3.3277    0.0743   -1.8196 H   0  0  0  0  0  0  0  0  0  0  0  0
   -1.3871   -1.1255   -2.6700 H   0  0  0  0  0  0  0  0  0  0  0  0
   -2.0526   -3.3390   -1.1368 H   0  0  0  0  0  0  0  0  0  0  0  0
   -0.3926   -3.0084   -1.5853 H   0  0  0  0  0  0  0  0  0  0  0  0
   -1.5004   -2.8496    1.1375 H   0  0  0  0  0  0  0  0  0  0  0  0
    0.1502   -2.5740    0.6400 H   0  0  0  0  0  0  0  0  0  0  0  0
   -0.3808   -0.3151    1.2347 H   0  0  0  0  0  0  0  0  0  0  0  0
   -2.5954    0.6766    0.9828 H   0  0  0  0  0  0  0  0  0  0  0  0
   -2.6900   -0.7554    1.9990 H   0  0  0  0  0  0  0  0  0  0  0  0
    1.0688   -1.0614   -0.9691 H   0  0  0  0  0  0  0  0  0  0  0  0
    0.5406   -0.0470   -2.2924 H   0  0  0  0  0  0  0  0  0  0  0  0
    0.7193    1.9736   -1.0007 H   0  0  0  0  0  0  0  0  0  0  0  0
    0.9803    1.1117    0.4976 H   0  0  0  0  0  0  0  0  0  0  0  0
    2.8594    0.9866   -1.8955 H   0  0  0  0  0  0  0  0  0  0  0  0
    2.7956   -0.3850    0.6695 H   0  0  0  0  0  0  0  0  0  0  0  0
    4.9855   -1.3319    1.4320 H   0  0  0  0  0  0  0  0  0  0  0  0
    2.9766   -2.6395    0.9875 H   0  0  0  0  0  0  0  0  0  0  0  0
    3.5843   -3.1194   -0.5973 H   0  0  0  0  0  0  0  0  0  0  0  0
    4.7430   -3.8649    2.1233 H   0  0  0  0  0  0  0  0  0  0  0  0
    4.2470   -4.9847    0.8624 H   0  0  0  0  0  0  0  0  0  0  0  0
    6.8719   -4.1692    1.1034 H   0  0  0  0  0  0  0  0  0  0  0  0
    6.1697   -4.5011   -0.4653 H   0  0  0  0  0  0  0  0  0  0  0  0
    6.3680   -2.2912   -1.0751 H   0  0  0  0  0  0  0  0  0  0  0  0
    7.0694   -1.8890    0.4757 H   0  0  0  0  0  0  0  0  0  0  0  0
    3.0554    3.6639   -2.1415 H   0  0  0  0  0  0  0  0  0  0  0  0
    4.0695    5.6428   -0.7360 H   0  0  0  0  0  0  0  0  0  0  0  0
    4.6499    4.8849    1.7077 H   0  0  0  0  0  0  0  0  0  0  0  0
 32 31  2  0
 32 33  1  0
 31 30  1  0
 30 29  2  0
 33 29  1  0
  7  6  1  0
 29 20  1  0
  6  8  1  0
  6  5  1  0
 11 12  1  0
 11 10  1  0
 12 17  1  0
 12 13  1  0
 20 19  1  0
 20 21  1  0
 18 19  1  0
 18 17  1  0
  5  4  2  0
  5  9  1  0
 17 15  1  0
  4  3  1  0
 21 22  1  0
 13 14  1  0
  9 10  1  0
  9  2  1  0
 10 16  1  0
  3  2  2  0
 22 23  2  0
 22 24  1  0
 15 16  1  0
 15 14  1  0
  2  1  1  0
 24 28  1  0
 24 25  1  0
 28 27  1  0
 25 26  1  0
 27 26  1  0
  1 34  1  0
  1 35  1  0
  1 36  1  0
  6 37  1  6
  7 38  1  0
  7 39  1  0
  7 40  1  0
  8 41  1  0
  8 42  1  0
  8 43  1  0
 10 44  1  1
 11 45  1  0
 11 46  1  0
 12 47  1  6
 13 48  1  0
 13 49  1  0
 14 50  1  0
 14 51  1  0
 15 52  1  1
 16 53  1  0
 16 54  1  0
 18 55  1  0
 18 56  1  0
 19 57  1  0
 19 58  1  0
 20 59  1  6
 21 60  1  0
 24 61  1  1
 25 62  1  0
 25 63  1  0
 26 64  1  0
 26 65  1  0
 27 66  1  0
 27 67  1  0
 28 68  1  0
 28 69  1  0
 30 70  1  0
 31 71  1  0
 32 72  1  0
M  END
