
     RDKit          3D

 66 69  0  0  0  0  0  0  0  0999 V2000
   -1.9669    1.7730    0.1602 N   0  0  0  0  0  0  0  0  0  0  0  0
   -1.4505   -0.5377   -0.1081 N   0  0  0  0  0  0  0  0  0  0  0  0
    1.7533    1.4030   -0.2052 C   0  0  0  0  0  0  0  0  0  0  0  0
   -2.2949    0.4840    0.0874 C   0  0  0  0  0  0  0  0  0  0  0  0
   -1.3138    4.4756    0.2382 C   0  0  1  0  0  0  0  0  0  0  0  0
   -0.6878    5.7353    0.8387 C   0  0  0  0  0  0  0  0  0  0  0  0
   -1.8865    4.9727   -1.0897 C   0  0  0  0  0  0  0  0  0  0  0  0
   -4.1518   -1.1321    0.0485 C   0  0  0  0  0  0  0  0  0  0  0  0
    4.7436   -0.7703    0.1355 C   0  0  0  0  0  0  0  0  0  0  0  0
    6.2536   -0.6303   -0.0222 C   0  0  0  0  0  0  0  0  0  0  0  0
    7.3819   -2.6790   -0.7903 C   0  0  0  0  0  0  0  0  0  0  0  0
    7.3208   -2.3170    1.5272 C   0  0  0  0  0  0  0  0  0  0  0  0
   -7.1700   -4.1819   -1.2545 C   0  0  0  0  0  0  0  0  0  0  0  0
    8.1352   -3.8281   -0.1538 C   0  0  0  0  0  0  0  0  0  0  0  0
    7.7107   -3.7804    1.3106 C   0  0  0  0  0  0  0  0  0  0  0  0
    7.2150   -2.4900   -1.9857 O   0  0  0  0  0  0  0  0  0  0  0  0
    6.9480   -1.8738    0.1975 N   0  0  0  0  0  0  0  0  0  0  0  0
    4.0486    0.5692   -0.0462 C   0  0  0  0  0  0  0  0  0  0  0  0
    2.6152    0.4112    0.0794 N   0  0  0  0  0  0  0  0  0  0  0  0
    2.1566    2.5149   -0.5556 O   0  0  0  0  0  0  0  0  0  0  0  0
    0.3166    1.0893   -0.0912 C   0  0  0  0  0  0  0  0  0  0  0  0
   -0.6837    2.1034    0.0614 C   0  0  0  0  0  0  0  0  0  0  0  0
   -0.3605    3.3977    0.1351 N   0  0  0  0  0  0  0  0  0  0  0  0
   -2.5259    6.3048   -0.7041 C   0  0  0  0  0  0  0  0  0  0  0  0
   -1.6188    6.8829    0.4073 C   0  0  0  0  0  0  0  0  0  0  0  0
   -0.1741   -0.2004   -0.1890 C   0  0  0  0  0  0  0  0  0  0  0  0
   -3.5986    0.1915    0.2122 N   0  0  0  0  0  0  0  0  0  0  0  0
   -5.6534   -1.0945    0.3195 C   0  0  0  0  0  0  0  0  0  0  0  0
   -6.2620   -2.4520    0.1326 C   0  0  0  0  0  0  0  0  0  0  0  0
   -6.4307   -3.3267    1.2001 C   0  0  0  0  0  0  0  0  0  0  0  0
   -6.9662   -4.5845    0.9678 C   0  0  0  0  0  0  0  0  0  0  0  0
   -7.3327   -5.0164   -0.2334 N   0  0  0  0  0  0  0  0  0  0  0  0
   -6.6461   -2.9053   -1.1253 C   0  0  0  0  0  0  0  0  0  0  0  0
   -2.1398    4.1431    0.8707 H   0  0  0  0  0  0  0  0  0  0  0  0
   -0.5697    5.6635    1.9204 H   0  0  0  0  0  0  0  0  0  0  0  0
    0.3111    5.8804    0.4165 H   0  0  0  0  0  0  0  0  0  0  0  0
   -1.0672    5.1255   -1.7994 H   0  0  0  0  0  0  0  0  0  0  0  0
   -2.5876    4.2682   -1.5389 H   0  0  0  0  0  0  0  0  0  0  0  0
   -3.9681   -1.5095   -0.9626 H   0  0  0  0  0  0  0  0  0  0  0  0
   -3.6701   -1.8289    0.7380 H   0  0  0  0  0  0  0  0  0  0  0  0
    4.3679   -1.4863   -0.5998 H   0  0  0  0  0  0  0  0  0  0  0  0
    4.5125   -1.1731    1.1265 H   0  0  0  0  0  0  0  0  0  0  0  0
    6.4917   -0.2682   -1.0232 H   0  0  0  0  0  0  0  0  0  0  0  0
    6.6385    0.1098    0.6844 H   0  0  0  0  0  0  0  0  0  0  0  0
    8.1549   -1.7193    1.9086 H   0  0  0  0  0  0  0  0  0  0  0  0
   -7.4740   -4.5448   -2.2302 H   0  0  0  0  0  0  0  0  0  0  0  0
    7.9087   -4.7710   -0.6500 H   0  0  0  0  0  0  0  0  0  0  0  0
    9.2066   -3.6439   -0.2773 H   0  0  0  0  0  0  0  0  0  0  0  0
    8.4897   -4.1032    1.9982 H   0  0  0  0  0  0  0  0  0  0  0  0
    6.8414   -4.4199    1.4675 H   0  0  0  0  0  0  0  0  0  0  0  0
    4.4252    1.2871    0.6897 H   0  0  0  0  0  0  0  0  0  0  0  0
    4.2801    0.9766   -1.0328 H   0  0  0  0  0  0  0  0  0  0  0  0
    2.2821   -0.4100    0.5567 H   0  0  0  0  0  0  0  0  0  0  0  0
    0.5996    3.6230   -0.0876 H   0  0  0  0  0  0  0  0  0  0  0  0
   -2.6276    6.9805   -1.5534 H   0  0  0  0  0  0  0  0  0  0  0  0
   -3.5320    6.1320   -0.3156 H   0  0  0  0  0  0  0  0  0  0  0  0
   -2.2138    7.2474    1.2450 H   0  0  0  0  0  0  0  0  0  0  0  0
   -1.0407    7.7332    0.0451 H   0  0  0  0  0  0  0  0  0  0  0  0
    0.5073   -1.0262   -0.3708 H   0  0  0  0  0  0  0  0  0  0  0  0
   -4.2283    0.9754    0.2689 H   0  0  0  0  0  0  0  0  0  0  0  0
   -5.8308   -0.7420    1.3380 H   0  0  0  0  0  0  0  0  0  0  0  0
   -6.1263   -0.3809   -0.3600 H   0  0  0  0  0  0  0  0  0  0  0  0
   -6.1549   -3.0349    2.2056 H   0  0  0  0  0  0  0  0  0  0  0  0
   -7.1067   -5.2723    1.7943 H   0  0  0  0  0  0  0  0  0  0  0  0
   -6.5449   -2.2733   -1.9989 H   0  0  0  0  0  0  0  0  0  0  0  0
    6.4890   -2.2070    2.2242 H   0  0  0  0  0  0  0  0  0  0  0  0
  1  4  2  0
  1 22  1  0
  2  4  1  0
  2 26  2  0
  3 19  1  0
  3 20  2  0
  3 21  1  0
  4 27  1  0
  5  6  1  0
  5  7  1  0
  5 23  1  0
  6 25  1  0
  7 24  1  0
  8 27  1  0
  8 28  1  0
  9 10  1  0
  9 18  1  0
 10 17  1  0
 11 14  1  0
 11 16  2  0
 11 17  1  0
 12 15  1  0
 12 17  1  0
 13 32  2  0
 13 33  1  0
 14 15  1  0
 18 19  1  0
 21 22  2  0
 21 26  1  0
 22 23  1  0
 24 25  1  0
 28 29  1  0
 29 30  1  0
 29 33  2  0
 30 31  2  0
 31 32  1  0
  5 34  1  1
  6 35  1  0
  6 36  1  0
  7 37  1  0
  7 38  1  0
  8 39  1  0
  8 40  1  0
  9 41  1  0
  9 42  1  0
 10 43  1  0
 10 44  1  0
 12 66  1  0
 12 45  1  0
 13 46  1  0
 14 47  1  0
 14 48  1  0
 15 49  1  0
 15 50  1  0
 18 51  1  0
 18 52  1  0
 19 53  1  0
 23 54  1  0
 24 55  1  0
 24 56  1  0
 25 57  1  0
 25 58  1  0
 26 59  1  0
 27 60  1  0
 28 61  1  0
 28 62  1  0
 30 63  1  0
 31 64  1  0
 33 65  1  0
M  END
