
     RDKit          3D

 44 47  0  0  0  0  0  0  0  0999 V2000
    2.9985    2.3819   -0.5347 C   0  0  0  0  0  0  0  0  0  0  0  0
    1.6818    2.3390   -0.9519 C   0  0  0  0  0  0  0  0  0  0  0  0
    0.9106    1.1964   -0.7780 C   0  0  0  0  0  0  0  0  0  0  0  0
   -5.1119    2.0035   -0.1936 N   0  0  0  0  0  0  0  0  0  0  0  0
    1.4725    0.0762   -0.1711 C   0  0  0  0  0  0  0  0  0  0  0  0
    2.8014    0.1198    0.2660 C   0  0  0  0  0  0  0  0  0  0  0  0
   -1.7205   -0.4196   -0.0220 N   0  0  0  0  0  0  0  0  0  0  0  0
    0.6951   -1.1523   -0.0046 C   0  0  0  0  0  0  0  0  0  0  0  0
    1.1795   -2.4122    0.1305 C   0  0  0  0  0  0  0  0  0  0  0  0
   -0.9662   -2.6772    0.2230 C   0  0  0  0  0  0  0  0  0  0  0  0
   -2.2452   -3.1824    0.3292 C   0  0  0  0  0  0  0  0  0  0  0  0
   -3.2593   -2.2451    0.2516 C   0  0  0  0  0  0  0  0  0  0  0  0
   -2.9648   -0.8794    0.0780 C   0  0  0  0  0  0  0  0  0  0  0  0
   -4.0327    0.1106    0.0023 C   0  0  0  0  0  0  0  0  0  0  0  0
   -6.0632    1.0901   -0.0152 N   0  0  0  0  0  0  0  0  0  0  0  0
   -5.4280   -0.0589    0.1033 C   0  0  0  0  0  0  0  0  0  0  0  0
   -3.8828    1.4723   -0.1884 C   0  0  0  0  0  0  0  0  0  0  0  0
   -0.7411   -1.3120    0.0494 C   0  0  0  0  0  0  0  0  0  0  0  0
    0.2050   -3.3424    0.2690 O   0  0  0  0  0  0  0  0  0  0  0  0
    3.5691    1.2647    0.0826 C   0  0  0  0  0  0  0  0  0  0  0  0
    4.8472    1.4054    0.4801 O   0  0  0  0  0  0  0  0  0  0  0  0
    5.5649    0.3080    1.0528 C   0  0  1  0  0  0  0  0  0  0  0  0
    5.9913   -0.6816   -0.0194 C   0  0  0  0  0  0  0  0  0  0  0  0
    6.7557    0.9105    1.7708 C   0  0  0  0  0  0  0  0  0  0  0  0
    3.5932    3.2764   -0.6730 H   0  0  0  0  0  0  0  0  0  0  0  0
    1.2473    3.2106   -1.4241 H   0  0  0  0  0  0  0  0  0  0  0  0
   -0.1170    1.1796   -1.1112 H   0  0  0  0  0  0  0  0  0  0  0  0
    3.2139   -0.7461    0.7660 H   0  0  0  0  0  0  0  0  0  0  0  0
    2.1895   -2.7922    0.1313 H   0  0  0  0  0  0  0  0  0  0  0  0
   -2.4510   -4.2357    0.4649 H   0  0  0  0  0  0  0  0  0  0  0  0
   -4.2874   -2.5707    0.3283 H   0  0  0  0  0  0  0  0  0  0  0  0
   -5.8756    3.7808    0.5994 H   0  0  0  0  0  0  0  0  0  0  0  0
   -4.5695    3.9618   -0.5811 H   0  0  0  0  0  0  0  0  0  0  0  0
   -6.1943    3.5205   -1.1268 H   0  0  0  0  0  0  0  0  0  0  0  0
   -5.9880   -0.9694    0.2576 H   0  0  0  0  0  0  0  0  0  0  0  0
   -2.9983    2.0736   -0.3200 H   0  0  0  0  0  0  0  0  0  0  0  0
    4.9317   -0.1952    1.7923 H   0  0  0  0  0  0  0  0  0  0  0  0
    5.1429   -1.1176   -0.5473 H   0  0  0  0  0  0  0  0  0  0  0  0
    6.6392   -0.1989   -0.7531 H   0  0  0  0  0  0  0  0  0  0  0  0
    6.5501   -1.4996    0.4357 H   0  0  0  0  0  0  0  0  0  0  0  0
    6.4418    1.6091    2.5466 H   0  0  0  0  0  0  0  0  0  0  0  0
    7.3353    0.1210    2.2482 H   0  0  0  0  0  0  0  0  0  0  0  0
    7.4122    1.4342    1.0743 H   0  0  0  0  0  0  0  0  0  0  0  0
   -5.4627    3.3969   -0.3315 C   0  0  0  0  0  0  0  0  0  0  0  0
  2  3  1  0
  2  1  2  0
  3  5  2  0
  1 20  1  0
  9  8  2  0
  9 19  1  0
  5  8  1  0
  5  6  1  0
 20  6  2  0
 20 21  1  0
  8 18  1  0
 19 10  1  0
 21 22  1  0
 18 10  1  0
 18  7  2  0
 10 11  2  0
 22 24  1  0
 22 23  1  0
  7 13  1  0
 11 12  1  0
 13 12  2  0
 13 14  1  0
 14 17  2  0
 14 16  1  0
 17  4  1  0
  4 44  1  0
  4 15  1  0
 16 15  2  0
  1 25  1  0
  2 26  1  0
  3 27  1  0
  6 28  1  0
  9 29  1  0
 11 30  1  0
 12 31  1  0
 44 32  1  0
 44 33  1  0
 44 34  1  0
 16 35  1  0
 17 36  1  0
 22 37  1  1
 23 38  1  0
 23 39  1  0
 23 40  1  0
 24 41  1  0
 24 42  1  0
 24 43  1  0
M  END
