
     RDKit          3D

 45 45  0  0  0  0  0  0  0  0999 V2000
   -5.1198    0.9147    0.7040 O   0  0  0  0  0  0  0  0  0  0  0  0
   -4.1353   -0.0611    1.2124 P   0  0  1  0  0  0  0  0  0  0  0  0
   -3.6481    0.3657    2.6732 O   0  0  0  0  0  0  0  0  0  0  0  0
   -4.5810   -1.6005    1.2810 O   0  0  0  0  0  0  0  0  0  0  0  0
   -2.6166   -0.2208    0.2005 C   0  0  1  0  0  0  0  0  0  0  0  0
   -2.7463   -1.2710   -1.3012 P   0  0  1  0  0  0  0  0  0  0  0  0
   -2.8779   -2.7884   -0.8082 O   0  0  0  0  0  0  0  0  0  0  0  0
   -4.1764   -0.8034   -1.8508 O   0  0  0  0  0  0  0  0  0  0  0  0
   -1.6040   -1.1258   -2.2285 O   0  0  0  0  0  0  0  0  0  0  0  0
   -2.2055    1.1126   -0.1297 N   0  0  0  0  0  0  0  0  0  0  0  0
   -0.9031    1.5015   -0.3251 C   0  0  0  0  0  0  0  0  0  0  0  0
   -0.7709    2.7009   -0.8961 N   0  0  0  0  0  0  0  0  0  0  0  0
    0.4569    3.1613   -1.0786 C   0  0  0  0  0  0  0  0  0  0  0  0
    1.6153    2.4938   -0.7243 C   0  0  0  0  0  0  0  0  0  0  0  0
    1.4668    1.2381   -0.1304 C   0  0  0  0  0  0  0  0  0  0  0  0
    2.4808    0.4645    0.2638 O   0  0  0  0  0  0  0  0  0  0  0  0
    3.8173    0.8764   -0.0084 C   0  0  0  0  0  0  0  0  0  0  0  0
    4.7538   -0.2096    0.4749 C   0  0  0  0  0  0  0  0  0  0  0  0
    6.2067    0.1237    0.1564 C   0  0  0  0  0  0  0  0  0  0  0  0
    7.1737   -0.9526    0.6325 C   0  0  0  0  0  0  0  0  0  0  0  0
    8.6264   -0.6486    0.2875 C   0  0  0  0  0  0  0  0  0  0  0  0
    9.5849   -1.7308    0.7645 C   0  0  0  0  0  0  0  0  0  0  0  0
    0.1874    0.7306    0.0705 C   0  0  0  0  0  0  0  0  0  0  0  0
   -3.0797   -0.2604    3.1415 H   0  0  0  0  0  0  0  0  0  0  0  0
   -5.4660   -1.7653    1.6382 H   0  0  0  0  0  0  0  0  0  0  0  0
   -1.8680   -0.6998    0.8369 H   0  0  0  0  0  0  0  0  0  0  0  0
   -3.6066   -2.9632   -0.1950 H   0  0  0  0  0  0  0  0  0  0  0  0
   -4.3822   -1.0955   -2.7505 H   0  0  0  0  0  0  0  0  0  0  0  0
   -2.8808    1.6907   -0.6083 H   0  0  0  0  0  0  0  0  0  0  0  0
    0.5332    4.1371   -1.5464 H   0  0  0  0  0  0  0  0  0  0  0  0
    2.5757    2.9482   -0.9155 H   0  0  0  0  0  0  0  0  0  0  0  0
    3.9466    1.0388   -1.0842 H   0  0  0  0  0  0  0  0  0  0  0  0
    4.0342    1.8225    0.4996 H   0  0  0  0  0  0  0  0  0  0  0  0
    4.6337   -0.3460    1.5536 H   0  0  0  0  0  0  0  0  0  0  0  0
    4.4833   -1.1572    0.0002 H   0  0  0  0  0  0  0  0  0  0  0  0
    6.3202    0.2612   -0.9243 H   0  0  0  0  0  0  0  0  0  0  0  0
    6.4763    1.0809    0.6152 H   0  0  0  0  0  0  0  0  0  0  0  0
    7.0757   -1.0757    1.7167 H   0  0  0  0  0  0  0  0  0  0  0  0
    6.8905   -1.9146    0.1914 H   0  0  0  0  0  0  0  0  0  0  0  0
    8.7221   -0.5242   -0.7956 H   0  0  0  0  0  0  0  0  0  0  0  0
    8.9104    0.3117    0.7288 H   0  0  0  0  0  0  0  0  0  0  0  0
   10.6156   -1.5038    0.4899 H   0  0  0  0  0  0  0  0  0  0  0  0
    9.5478   -1.8390    1.8501 H   0  0  0  0  0  0  0  0  0  0  0  0
    9.3328   -2.6999    0.3295 H   0  0  0  0  0  0  0  0  0  0  0  0
    0.0764   -0.2463    0.5208 H   0  0  0  0  0  0  0  0  0  0  0  0
 22 21  1  0
 21 20  1  0
 20 19  1  0
 19 18  1  0
 18 17  1  0
  1  2  2  0
 17 16  1  0
  2  4  1  1
 16 15  1  0
 23 15  1  0
 23 11  2  0
  2  3  1  0
  2  5  1  0
 10 11  1  0
 10  5  1  0
 15 14  2  0
 11 12  1  0
  5  6  1  0
 14 13  1  0
 12 13  2  0
  9  6  2  0
  6  8  1  6
  6  7  1  0
  3 24  1  0
  4 25  1  0
  5 26  1  1
  7 27  1  0
  8 28  1  0
 10 29  1  0
 13 30  1  0
 14 31  1  0
 17 32  1  0
 17 33  1  0
 18 34  1  0
 18 35  1  0
 19 36  1  0
 19 37  1  0
 20 38  1  0
 20 39  1  0
 21 40  1  0
 21 41  1  0
 22 42  1  0
 22 43  1  0
 22 44  1  0
 23 45  1  0
M  END
