
     RDKit          3D

 44 47  0  0  0  0  0  0  0  0999 V2000
    8.7250    0.1609   -0.5685 N   0  0  0  0  0  0  0  0  0  0  0  0
    7.9332    2.0632    0.4344 N   0  0  0  0  0  0  0  0  0  0  0  0
   -8.7832   -0.8198   -0.0574 N   0  0  0  0  0  0  0  0  0  0  0  0
   -8.6002    1.4236   -0.1498 O   0  0  0  0  0  0  0  0  0  0  0  0
   -5.8217    1.2658    0.3166 C   0  0  0  0  0  0  0  0  0  0  0  0
   -5.9341   -0.9883   -0.4884 C   0  0  0  0  0  0  0  0  0  0  0  0
   -4.4408    1.1872    0.3458 C   0  0  0  0  0  0  0  0  0  0  0  0
   -4.5518   -1.0637   -0.4665 C   0  0  0  0  0  0  0  0  0  0  0  0
   -1.6737   -1.2541    0.3549 C   0  0  0  0  0  0  0  0  0  0  0  0
   -1.5161    1.0334   -0.3363 C   0  0  0  0  0  0  0  0  0  0  0  0
   -0.2932   -1.3400    0.3902 C   0  0  0  0  0  0  0  0  0  0  0  0
   -0.1372    0.9499   -0.3077 C   0  0  0  0  0  0  0  0  0  0  0  0
    6.3424   -1.2094    0.2340 C   0  0  0  0  0  0  0  0  0  0  0  0
    5.1425   -1.8888    0.3250 C   0  0  0  0  0  0  0  0  0  0  0  0
    5.2294    0.9288   -0.0562 C   0  0  0  0  0  0  0  0  0  0  0  0
    2.6571   -1.4493    0.2478 N   0  0  0  0  0  0  0  0  0  0  0  0
    2.7337    0.7470   -0.0620 N   0  0  0  0  0  0  0  0  0  0  0  0
    7.7111    0.8870   -0.0157 C   0  0  0  0  0  0  0  0  0  0  0  0
   -6.5872    0.1751   -0.0878 C   0  0  0  0  0  0  0  0  0  0  0  0
    6.3972    0.1866    0.0490 C   0  0  0  0  0  0  0  0  0  0  0  0
   -3.7816    0.0197   -0.0428 C   0  0  0  0  0  0  0  0  0  0  0  0
   -2.3108   -0.0677   -0.0088 C   0  0  0  0  0  0  0  0  0  0  0  0
    0.4954   -0.2401    0.0549 C   0  0  0  0  0  0  0  0  0  0  0  0
    1.9538   -0.2943    0.0775 C   0  0  0  0  0  0  0  0  0  0  0  0
    3.9837   -1.1310    0.2153 C   0  0  0  0  0  0  0  0  0  0  0  0
    4.0112    0.2607    0.0217 C   0  0  0  0  0  0  0  0  0  0  0  0
    9.5850    0.6592   -0.7345 H   0  0  0  0  0  0  0  0  0  0  0  0
    8.4961   -0.5127   -1.2804 H   0  0  0  0  0  0  0  0  0  0  0  0
    7.1149    2.4244    0.9103 H   0  0  0  0  0  0  0  0  0  0  0  0
   -9.7894   -0.7822   -0.0526 H   0  0  0  0  0  0  0  0  0  0  0  0
   -8.3609   -1.7168    0.1061 H   0  0  0  0  0  0  0  0  0  0  0  0
   -6.3081    2.1797    0.6296 H   0  0  0  0  0  0  0  0  0  0  0  0
   -6.4885   -1.8442   -0.8519 H   0  0  0  0  0  0  0  0  0  0  0  0
   -3.8728    2.0394    0.6966 H   0  0  0  0  0  0  0  0  0  0  0  0
   -4.0698   -1.9702   -0.8089 H   0  0  0  0  0  0  0  0  0  0  0  0
   -2.2583   -2.1191    0.6408 H   0  0  0  0  0  0  0  0  0  0  0  0
   -1.9782    1.9630   -0.6429 H   0  0  0  0  0  0  0  0  0  0  0  0
    0.1512   -2.2756    0.7039 H   0  0  0  0  0  0  0  0  0  0  0  0
    0.4576    1.8115   -0.5792 H   0  0  0  0  0  0  0  0  0  0  0  0
    7.2632   -1.7693    0.3303 H   0  0  0  0  0  0  0  0  0  0  0  0
    5.1155   -2.9592    0.4776 H   0  0  0  0  0  0  0  0  0  0  0  0
    5.2560    1.9994   -0.2165 H   0  0  0  0  0  0  0  0  0  0  0  0
    2.2804   -2.3778    0.3539 H   0  0  0  0  0  0  0  0  0  0  0  0
   -8.0761    0.3188   -0.1015 C   0  0  0  0  0  0  0  0  0  0  0  0
  1 18  1  0
  2 18  2  0
 18 20  1  0
 20 13  2  0
 20 15  1  0
 13 14  1  0
 15 26  2  0
 14 25  2  0
 26 25  1  0
 26 17  1  0
 25 16  1  0
 17 24  2  0
 16 24  1  0
 24 23  1  0
 23 12  2  0
 23 11  1  0
 12 10  1  0
 11  9  2  0
 10 22  2  0
  9 22  1  0
 22 21  1  0
 21  7  1  0
 21  8  2  0
  7  5  2  0
  8  6  1  0
  5 19  1  0
  6 19  2  0
 19 44  1  0
 44  3  1  0
 44  4  2  0
  1 27  1  0
  1 28  1  0
  2 29  1  0
  3 30  1  0
  3 31  1  0
  5 32  1  0
  6 33  1  0
  7 34  1  0
  8 35  1  0
  9 36  1  0
 10 37  1  0
 11 38  1  0
 12 39  1  0
 13 40  1  0
 14 41  1  0
 15 42  1  0
 16 43  1  0
M  END
