
     RDKit          3D

 41 42  0  0  0  0  0  0  0  0999 V2000
    1.6499   -2.3451   -0.4863 C   0  0  0  0  0  0  0  0  0  0  0  0
   -0.8333   -2.0058   -0.7389 C   0  0  0  0  0  0  0  0  0  0  0  0
   -2.4599   -0.2493   -1.5189 C   0  0  0  0  0  0  0  0  0  0  0  0
   -4.1856    0.5648   -0.0986 C   0  0  0  0  0  0  0  0  0  0  0  0
   -2.7196   -1.1366    0.6873 C   0  0  0  0  0  0  0  0  0  0  0  0
    0.7010   -0.0289   -0.7967 C   0  0  0  0  0  0  0  0  0  0  0  0
    4.4873    2.1909    0.0462 C   0  0  0  0  0  0  0  0  0  0  0  0
    2.2435    2.6966    0.4606 C   0  0  0  0  0  0  0  0  0  0  0  0
    0.4086    0.2521    1.4486 C   0  0  0  0  0  0  0  0  0  0  0  0
    0.4789   -1.4089   -0.1862 C   0  0  2  0  0  0  0  0  0  0  0  0
    2.9873   -1.8628    0.0496 C   0  0  0  0  0  0  0  0  0  0  0  0
   -2.0293   -1.1234   -0.5229 C   0  0  0  0  0  0  0  0  0  0  0  0
   -3.5378    0.6008   -1.3173 C   0  0  0  0  0  0  0  0  0  0  0  0
   -3.7986   -0.2939    0.9115 C   0  0  0  0  0  0  0  0  0  0  0  0
    0.6115    0.8771    0.2136 N   0  0  0  0  0  0  0  0  0  0  0  0
    0.3712   -1.0715    1.2119 N   0  0  0  0  0  0  0  0  0  0  0  0
    3.1506    1.9780   -0.3301 O   0  0  0  0  0  0  0  0  0  0  0  0
    0.3022    0.8359    2.5047 O   0  0  0  0  0  0  0  0  0  0  0  0
    3.9691   -2.7892   -0.3615 O   0  0  0  0  0  0  0  0  0  0  0  0
    0.8915    0.2044   -1.9665 O   0  0  0  0  0  0  0  0  0  0  0  0
    1.4195   -3.3289   -0.0672 H   0  0  0  0  0  0  0  0  0  0  0  0
    1.7135   -2.4694   -1.5699 H   0  0  0  0  0  0  0  0  0  0  0  0
   -0.6924   -2.2003   -1.8036 H   0  0  0  0  0  0  0  0  0  0  0  0
   -0.9830   -2.9762   -0.2593 H   0  0  0  0  0  0  0  0  0  0  0  0
   -1.9509   -0.2300   -2.4743 H   0  0  0  0  0  0  0  0  0  0  0  0
   -2.4218   -1.8200    1.4724 H   0  0  0  0  0  0  0  0  0  0  0  0
    5.1188    1.5805   -0.5980 H   0  0  0  0  0  0  0  0  0  0  0  0
    4.7860    3.2395   -0.0692 H   0  0  0  0  0  0  0  0  0  0  0  0
    4.6699    1.9005    1.0874 H   0  0  0  0  0  0  0  0  0  0  0  0
    2.3509    3.7807    0.3164 H   0  0  0  0  0  0  0  0  0  0  0  0
    2.4081    2.4996    1.5284 H   0  0  0  0  0  0  0  0  0  0  0  0
    0.1214    2.8351    0.7031 H   0  0  0  0  0  0  0  0  0  0  0  0
    0.6233    2.5689   -0.9591 H   0  0  0  0  0  0  0  0  0  0  0  0
    3.2063   -0.8567   -0.3314 H   0  0  0  0  0  0  0  0  0  0  0  0
    2.9428   -1.7872    1.1421 H   0  0  0  0  0  0  0  0  0  0  0  0
   -3.8684    1.2730   -2.0981 H   0  0  0  0  0  0  0  0  0  0  0  0
   -4.3308   -0.3101    1.8538 H   0  0  0  0  0  0  0  0  0  0  0  0
    0.2049   -1.7427    1.9447 H   0  0  0  0  0  0  0  0  0  0  0  0
    4.8136   -2.5127    0.0054 H   0  0  0  0  0  0  0  0  0  0  0  0
    0.8324    2.2992    0.0753 C   0  0  0  0  0  0  0  0  0  0  0  0
   -5.2317    1.3828    0.1073 F   0  0  0  0  0  0  0  0  0  0  0  0
 18  9  2  0
  8 17  1  0
  8 40  1  0
 17  7  1  0
  9 16  1  0
  9 15  1  0
 13  3  2  0
 13  4  1  0
 41  4  1  0
 40 15  1  0
  3 12  1  0
  4 14  2  0
 16 10  1  0
 15  6  1  0
 12  2  1  0
 12  5  2  0
 10  6  1  0
 10  2  1  6
 10  1  1  0
 14  5  1  0
  6 20  2  0
 11  1  1  0
 11 19  1  0
  1 21  1  0
  1 22  1  0
  2 23  1  0
  2 24  1  0
  3 25  1  0
  5 26  1  0
  7 27  1  0
  7 28  1  0
  7 29  1  0
  8 30  1  0
  8 31  1  0
 40 32  1  0
 40 33  1  0
 11 34  1  0
 11 35  1  0
 13 36  1  0
 14 37  1  0
 16 38  1  0
 19 39  1  0
M  END
