
     RDKit          3D

 51 52  0  0  0  0  0  0  0  0999 V2000
    3.2680    2.8254   -1.7216 C   0  0  0  0  0  0  0  0  0  0  0  0
   -4.5880   -1.1107    0.1999 O   0  0  0  0  0  0  0  0  0  0  0  0
    5.3502    0.8276   -1.6539 C   0  0  0  0  0  0  0  0  0  0  0  0
    4.3547    0.7717   -0.6840 C   0  0  0  0  0  0  0  0  0  0  0  0
    3.6046    2.6345    0.7501 C   0  0  0  0  0  0  0  0  0  0  0  0
    5.3164   -1.3111    0.1495 C   0  0  0  0  0  0  0  0  0  0  0  0
   -2.3870   -0.1389    0.0011 C   0  0  0  0  0  0  0  0  0  0  0  0
    6.2929   -1.2390   -0.8460 C   0  0  0  0  0  0  0  0  0  0  0  0
   -6.3568   -3.0750    0.1395 O   0  0  0  0  0  0  0  0  0  0  0  0
    0.6544    2.8678    0.1915 O   0  0  0  0  0  0  0  0  0  0  0  0
   -1.5702    0.9978    0.0717 C   0  0  0  0  0  0  0  0  0  0  0  0
    6.3105   -0.1734   -1.7297 C   0  0  0  0  0  0  0  0  0  0  0  0
    4.3565   -0.3012    0.2052 C   0  0  0  0  0  0  0  0  0  0  0  0
    5.2957   -2.4318    1.1184 C   0  0  0  0  0  0  0  0  0  0  0  0
    5.7379   -3.7780    0.6209 C   0  0  0  0  0  0  0  0  0  0  0  0
    4.9053   -2.2515    2.3818 C   0  0  0  0  0  0  0  0  0  0  0  0
    0.8129    1.7012   -0.1311 C   0  0  0  0  0  0  0  0  0  0  0  0
    3.2886    1.8582   -0.5366 C   0  0  1  0  0  0  0  0  0  0  0  0
   -3.7487   -0.0650    0.2495 C   0  0  0  0  0  0  0  0  0  0  0  0
   -4.3095    1.1725    0.5776 C   0  0  0  0  0  0  0  0  0  0  0  0
   -3.5088    2.2933    0.6448 C   0  0  0  0  0  0  0  0  0  0  0  0
   -2.1449    2.2264    0.3956 C   0  0  0  0  0  0  0  0  0  0  0  0
   -5.2235   -3.3446   -0.1484 C   0  0  0  0  0  0  0  0  0  0  0  0
   -4.0747   -2.3656   -0.1569 C   0  0  0  0  0  0  0  0  0  0  0  0
    2.0095    1.1460   -0.4416 N   0  0  0  0  0  0  0  0  0  0  0  0
   -0.2240    0.7939   -0.2014 N   0  0  0  0  0  0  0  0  0  0  0  0
   -4.7968   -4.5472   -0.5021 O   0  0  0  0  0  0  0  0  0  0  0  0
   -6.0065    1.2799    0.8914 Cl  0  0  0  0  0  0  0  0  0  0  0  0
    4.1980    3.3902   -1.7893 H   0  0  0  0  0  0  0  0  0  0  0  0
    3.1121    2.3022   -2.6655 H   0  0  0  0  0  0  0  0  0  0  0  0
    2.4606    3.5431   -1.5914 H   0  0  0  0  0  0  0  0  0  0  0  0
    5.3876    1.6396   -2.3662 H   0  0  0  0  0  0  0  0  0  0  0  0
    2.9280    3.4735    0.8889 H   0  0  0  0  0  0  0  0  0  0  0  0
    3.5436    1.9895    1.6272 H   0  0  0  0  0  0  0  0  0  0  0  0
    4.6212    3.0247    0.6920 H   0  0  0  0  0  0  0  0  0  0  0  0
   -1.9327   -1.0875   -0.2555 H   0  0  0  0  0  0  0  0  0  0  0  0
    7.0543   -2.0041   -0.9267 H   0  0  0  0  0  0  0  0  0  0  0  0
    7.0769   -0.1209   -2.4920 H   0  0  0  0  0  0  0  0  0  0  0  0
    3.5765   -0.3716    0.9540 H   0  0  0  0  0  0  0  0  0  0  0  0
    6.7879   -3.7726    0.3220 H   0  0  0  0  0  0  0  0  0  0  0  0
    5.6200   -4.5397    1.3897 H   0  0  0  0  0  0  0  0  0  0  0  0
    5.1630   -4.0822   -0.2558 H   0  0  0  0  0  0  0  0  0  0  0  0
    4.8763   -3.0764    3.0820 H   0  0  0  0  0  0  0  0  0  0  0  0
    4.6201   -1.2815    2.7685 H   0  0  0  0  0  0  0  0  0  0  0  0
   -3.9507    3.2479    0.8976 H   0  0  0  0  0  0  0  0  0  0  0  0
   -1.5545    3.1240    0.4576 H   0  0  0  0  0  0  0  0  0  0  0  0
   -3.6203   -2.3530   -1.1548 H   0  0  0  0  0  0  0  0  0  0  0  0
   -3.3081   -2.7123    0.5466 H   0  0  0  0  0  0  0  0  0  0  0  0
    2.0014    0.2257   -0.8521 H   0  0  0  0  0  0  0  0  0  0  0  0
    0.0189   -0.1594   -0.4239 H   0  0  0  0  0  0  0  0  0  0  0  0
   -5.5291   -5.1822   -0.4914 H   0  0  0  0  0  0  0  0  0  0  0  0
  1 18  1  0
  3 12  2  0
  3  4  1  0
 12  8  1  0
  5 18  1  0
 18  4  1  0
 18 25  1  1
  4 13  2  0
  8  6  2  0
 13  6  1  0
  6 14  1  0
 25 17  1  0
 14 16  2  0
 14 15  1  0
 17 10  2  0
 17 26  1  0
 26 11  1  0
  9 23  2  0
 11  7  2  0
 11 22  1  0
  7 19  1  0
 27 23  1  0
 23 24  1  0
 22 21  2  0
 19  2  1  0
 19 20  2  0
 24  2  1  0
 21 20  1  0
 20 28  1  0
  1 29  1  0
  1 30  1  0
  1 31  1  0
  3 32  1  0
  5 33  1  0
  5 34  1  0
  5 35  1  0
  7 36  1  0
  8 37  1  0
 12 38  1  0
 13 39  1  0
 15 40  1  0
 15 41  1  0
 15 42  1  0
 16 43  1  0
 16 44  1  0
 21 45  1  0
 22 46  1  0
 24 47  1  0
 24 48  1  0
 25 49  1  0
 26 50  1  0
 27 51  1  0
M  END
