
     RDKit          3D

 52 54  0  0  0  0  0  0  0  0999 V2000
   -7.1943    1.2378   -0.8768 C   0  0  0  0  0  0  0  0  0  0  0  0
   -4.0268    0.3273    0.5633 C   0  0  0  0  0  0  0  0  0  0  0  0
   -4.4406   -0.6199    1.5197 C   0  0  0  0  0  0  0  0  0  0  0  0
   -2.5737    0.6500    0.3772 C   0  0  0  0  0  0  0  0  0  0  0  0
   -7.9010   -0.7048    1.1044 N   0  0  0  0  0  0  0  0  0  0  0  0
   -8.4738    0.7971   -0.6127 N   0  0  0  0  0  0  0  0  0  0  0  0
    7.9458    3.0035    1.4856 O   0  0  0  0  0  0  0  0  0  0  0  0
    7.2402    3.0710    0.5105 C   0  0  0  0  0  0  0  0  0  0  0  0
    7.0518    4.1928   -0.1752 O   0  0  0  0  0  0  0  0  0  0  0  0
    6.6953    0.6167    0.6657 C   0  0  0  0  0  0  0  0  0  0  0  0
    5.9608   -0.5446   -0.0095 C   0  0  1  0  0  0  0  0  0  0  0  0
    6.3310   -1.8639    0.6559 C   0  0  0  0  0  0  0  0  0  0  0  0
    7.5563   -2.2398    0.3224 O   0  0  0  0  0  0  0  0  0  0  0  0
    5.6159   -2.4734    1.4061 O   0  0  0  0  0  0  0  0  0  0  0  0
    4.5394   -0.3340    0.0392 N   0  0  0  0  0  0  0  0  0  0  0  0
    4.1576   -1.8996   -1.5159 O   0  0  0  0  0  0  0  0  0  0  0  0
    2.2554   -0.8677   -0.5728 C   0  0  0  0  0  0  0  0  0  0  0  0
    1.3726   -1.7238   -1.2750 C   0  0  0  0  0  0  0  0  0  0  0  0
    0.0007   -1.5743   -1.1439 C   0  0  0  0  0  0  0  0  0  0  0  0
    1.8191   -2.6911   -2.0762 O   0  0  0  0  0  0  0  0  0  0  0  0
    1.6844    0.1424    0.2087 C   0  0  0  0  0  0  0  0  0  0  0  0
    0.3250    0.3076    0.3333 C   0  0  0  0  0  0  0  0  0  0  0  0
   -0.5480   -0.5715   -0.3385 C   0  0  0  0  0  0  0  0  0  0  0  0
   -1.9024   -0.4839   -0.2185 N   0  0  0  0  0  0  0  0  0  0  0  0
   -4.9153    0.9208   -0.1999 N   0  0  0  0  0  0  0  0  0  0  0  0
   -6.1923    0.5935   -0.0289 C   0  0  0  0  0  0  0  0  0  0  0  0
   -6.9700    2.0676   -1.7316 O   0  0  0  0  0  0  0  0  0  0  0  0
   -8.7912   -0.1320    0.3397 C   0  0  0  0  0  0  0  0  0  0  0  0
   -6.6115   -0.3516    0.9223 C   0  0  0  0  0  0  0  0  0  0  0  0
   -5.6945   -0.9516    1.7014 N   0  0  0  0  0  0  0  0  0  0  0  0
   -3.7047   -1.1086    2.1502 H   0  0  0  0  0  0  0  0  0  0  0  0
   -2.4862    1.5576   -0.2299 H   0  0  0  0  0  0  0  0  0  0  0  0
   -2.1265    0.8635    1.3503 H   0  0  0  0  0  0  0  0  0  0  0  0
  -10.3414   -1.1642    1.1144 H   0  0  0  0  0  0  0  0  0  0  0  0
  -10.7827   -0.1034   -0.1651 H   0  0  0  0  0  0  0  0  0  0  0  0
   -9.2138    1.1975   -1.1766 H   0  0  0  0  0  0  0  0  0  0  0  0
    7.5640    4.9134    0.2213 H   0  0  0  0  0  0  0  0  0  0  0  0
    5.4142    2.1956   -0.1044 H   0  0  0  0  0  0  0  0  0  0  0  0
    6.7692    1.8140   -1.1302 H   0  0  0  0  0  0  0  0  0  0  0  0
    7.7605    0.3871    0.6915 H   0  0  0  0  0  0  0  0  0  0  0  0
    6.3655    0.7069    1.7038 H   0  0  0  0  0  0  0  0  0  0  0  0
    6.2800   -0.5945   -1.0536 H   0  0  0  0  0  0  0  0  0  0  0  0
    7.7986   -3.0557    0.7861 H   0  0  0  0  0  0  0  0  0  0  0  0
    4.1777    0.1672    0.8344 H   0  0  0  0  0  0  0  0  0  0  0  0
   -0.6516   -2.2510   -1.6841 H   0  0  0  0  0  0  0  0  0  0  0  0
    2.8069   -2.6225   -2.0783 H   0  0  0  0  0  0  0  0  0  0  0  0
    2.3126    0.8523    0.7321 H   0  0  0  0  0  0  0  0  0  0  0  0
   -0.0520    1.1220    0.9349 H   0  0  0  0  0  0  0  0  0  0  0  0
   -2.4300   -0.9687   -0.9281 H   0  0  0  0  0  0  0  0  0  0  0  0
  -10.0814   -0.4308    0.4769 N   0  0  0  0  0  0  0  0  0  0  0  0
    3.7008   -1.0712   -0.7113 C   0  0  0  0  0  0  0  0  0  0  0  0
    6.4726    1.9217   -0.0824 C   0  0  0  0  0  0  0  0  0  0  0  0
 50 28  1  0
 28  5  2  0
 28  6  1  0
  5 29  1  0
  6  1  1  0
  7  8  2  0
 29 30  1  0
 29 26  2  0
  1 26  1  0
  1 27  2  0
 30  3  2  0
  8 52  1  0
  8  9  1  0
 26 25  1  0
 52 10  1  0
 14 12  2  0
  3  2  1  0
 25  2  2  0
 12 13  1  0
 12 11  1  0
  2  4  1  0
 10 11  1  0
 11 15  1  0
 15 51  1  0
 21 22  1  0
 21 17  2  0
 22 23  2  0
  4 24  1  0
 51 17  1  0
 51 16  2  0
 17 18  1  0
 23 24  1  0
 23 19  1  0
 18 19  2  0
 18 20  1  0
  3 31  1  0
  4 32  1  0
  4 33  1  0
 50 34  1  0
 50 35  1  0
  6 36  1  0
  9 37  1  0
 52 38  1  0
 52 39  1  0
 10 40  1  0
 10 41  1  0
 11 42  1  6
 13 43  1  0
 15 44  1  0
 19 45  1  0
 20 46  1  0
 21 47  1  0
 22 48  1  0
 24 49  1  0
M  END
