
     RDKit          3D

 38 39  0  0  0  0  0  0  0  0999 V2000
    5.1356    0.0274   -1.1263 C   0  0  0  0  0  0  0  0  0  0  0  0
    4.7297    0.9270    1.1540 N   0  0  0  0  0  0  0  0  0  0  0  0
    5.0562    0.8479   -2.0459 O   0  0  0  0  0  0  0  0  0  0  0  0
    4.3166   -0.0353    0.1611 C   0  0  1  0  0  0  0  0  0  0  0  0
    2.8337    0.0710   -0.2215 C   0  0  0  0  0  0  0  0  0  0  0  0
   -6.0136   -0.0182   -1.6441 C   0  0  0  0  0  0  0  0  0  0  0  0
   -5.8075    1.7388    0.1071 C   0  0  0  0  0  0  0  0  0  0  0  0
   -3.8954   -1.3048    0.1619 C   0  0  0  0  0  0  0  0  0  0  0  0
   -2.6647   -1.8499    0.5469 C   0  0  0  0  0  0  0  0  0  0  0  0
   -2.8713    0.9007   -0.1493 C   0  0  0  0  0  0  0  0  0  0  0  0
   -4.0341    0.0610   -0.1890 C   0  0  0  0  0  0  0  0  0  0  0  0
   -0.1361   -1.2987    0.9393 C   0  0  0  0  0  0  0  0  0  0  0  0
   -0.3177    0.9679    0.3633 C   0  0  0  0  0  0  0  0  0  0  0  0
   -1.5582   -1.0297    0.5811 C   0  0  0  0  0  0  0  0  0  0  0  0
   -1.6773    0.3439    0.2301 C   0  0  0  0  0  0  0  0  0  0  0  0
   -5.2696    0.5892   -0.5720 N   0  0  0  0  0  0  0  0  0  0  0  0
    0.5615   -0.0625    0.7898 N   0  0  0  0  0  0  0  0  0  0  0  0
    0.3866   -2.3561    1.2986 O   0  0  0  0  0  0  0  0  0  0  0  0
    0.0110    2.1387    0.1532 O   0  0  0  0  0  0  0  0  0  0  0  0
    1.9635    0.1182    1.0373 C   0  0  0  0  0  0  0  0  0  0  0  0
    6.0657   -0.9565   -1.2549 O   0  0  0  0  0  0  0  0  0  0  0  0
    5.4675    0.5569    1.7221 H   0  0  0  0  0  0  0  0  0  0  0  0
    5.0347    1.7804    0.7290 H   0  0  0  0  0  0  0  0  0  0  0  0
    4.5012   -1.0661    0.5962 H   0  0  0  0  0  0  0  0  0  0  0  0
    2.6553    0.9878   -0.8414 H   0  0  0  0  0  0  0  0  0  0  0  0
    2.5763   -0.8260   -0.8445 H   0  0  0  0  0  0  0  0  0  0  0  0
   -6.4550   -0.9872   -1.2841 H   0  0  0  0  0  0  0  0  0  0  0  0
   -6.8534    0.6514   -1.9680 H   0  0  0  0  0  0  0  0  0  0  0  0
   -5.3630   -0.2313   -2.5355 H   0  0  0  0  0  0  0  0  0  0  0  0
   -5.1590    2.6470   -0.0265 H   0  0  0  0  0  0  0  0  0  0  0  0
   -6.8360    1.9745   -0.2739 H   0  0  0  0  0  0  0  0  0  0  0  0
   -5.8859    1.5134    1.2054 H   0  0  0  0  0  0  0  0  0  0  0  0
   -4.7650   -1.9798    0.1434 H   0  0  0  0  0  0  0  0  0  0  0  0
   -2.5901   -2.9150    0.8154 H   0  0  0  0  0  0  0  0  0  0  0  0
   -2.9176    1.9678   -0.4125 H   0  0  0  0  0  0  0  0  0  0  0  0
    2.2963   -0.6923    1.7476 H   0  0  0  0  0  0  0  0  0  0  0  0
    2.0967    1.1201    1.5384 H   0  0  0  0  0  0  0  0  0  0  0  0
    6.5428   -0.8487   -2.0949 H   0  0  0  0  0  0  0  0  0  0  0  0
  3  1  2  0
  4  1  1  0
  1 21  1  0
  2  4  1  0
  2 22  1  0
  2 23  1  0
  4  5  1  0
  4 24  1  1
  5 20  1  0
  5 25  1  0
  5 26  1  0
 16  6  1  0
  6 27  1  0
  6 28  1  0
  6 29  1  0
 16  7  1  0
  7 30  1  0
  7 31  1  0
  7 32  1  0
  9  8  2  0
  8 11  1  0
  8 33  1  0
 14  9  1  0
  9 34  1  0
 15 10  1  0
 10 11  2  0
 10 35  1  0
 11 16  1  0
 18 12  2  0
 17 12  1  0
 12 14  1  0
 17 13  1  0
 13 19  2  0
 13 15  1  0
 14 15  2  0
 20 17  1  0
 20 36  1  0
 20 37  1  0
 21 38  1  0
M  END
