
     RDKit          3D

 19 19  0  0  0  0  0  0  0  0999 V2000
   -0.1960    0.1035   -1.4405 As  0  0  2  0  0  0  0  0  0  0  0  0
   -1.6626   -0.1280   -2.0641 O   0  0  0  0  0  0  0  0  0  0  0  0
    0.5738    1.6090   -1.8396 O   0  0  0  0  0  0  0  0  0  0  0  0
    0.8620   -1.1048   -2.1114 O   0  0  0  0  0  0  0  0  0  0  0  0
   -0.0689    0.0902    0.4323 C   0  0  0  0  0  0  0  0  0  0  0  0
   -1.1599   -0.3610    1.1771 C   0  0  0  0  0  0  0  0  0  0  0  0
   -1.0993   -0.4100    2.5541 C   0  0  0  0  0  0  0  0  0  0  0  0
    0.0629   -0.0106    3.2360 C   0  0  0  0  0  0  0  0  0  0  0  0
    1.1543    0.4495    2.4768 C   0  0  0  0  0  0  0  0  0  0  0  0
    1.0884    0.4957    1.1010 C   0  0  0  0  0  0  0  0  0  0  0  0
    0.1460   -0.1008    4.5866 N   0  0  0  0  0  0  0  0  0  0  0  0
    0.6692    1.7435   -2.7934 H   0  0  0  0  0  0  0  0  0  0  0  0
    1.7679   -1.0647   -1.7753 H   0  0  0  0  0  0  0  0  0  0  0  0
   -2.0720   -0.6748    0.6844 H   0  0  0  0  0  0  0  0  0  0  0  0
   -1.9565   -0.7610    3.1154 H   0  0  0  0  0  0  0  0  0  0  0  0
    2.0571    0.7723    2.9802 H   0  0  0  0  0  0  0  0  0  0  0  0
    1.9508    0.8620    0.5578 H   0  0  0  0  0  0  0  0  0  0  0  0
    0.8816    0.3931    5.0625 H   0  0  0  0  0  0  0  0  0  0  0  0
   -0.6989   -0.2191    5.1191 H   0  0  0  0  0  0  0  0  0  0  0  0
  1  2  2  0
  1  3  1  6
  1  4  1  0
  1  5  1  0
  3 12  1  0
  4 13  1  0
  5  6  2  0
  5 10  1  0
  6  7  1  0
  6 14  1  0
  7  8  2  0
  7 15  1  0
  8  9  1  0
  8 11  1  0
  9 10  2  0
  9 16  1  0
 10 17  1  0
 11 18  1  0
 11 19  1  0
M  END
