
     RDKit          3D

 36 35  0  0  0  0  0  0  0  0999 V2000
   -3.1225    0.4070    0.2780 C   0  0  1  0  0  0  0  0  0  0  0  0
   -2.0766    1.0585   -0.6325 C   0  0  0  0  0  0  0  0  0  0  0  0
   -0.7352    0.3364   -0.5945 C   0  0  0  0  0  0  0  0  0  0  0  0
    0.2707    1.0024   -1.5272 C   0  0  0  0  0  0  0  0  0  0  0  0
   -4.3703    1.2763    0.3431 C   0  0  0  0  0  0  0  0  0  0  0  0
   -5.3805    1.0715   -0.2771 O   0  0  0  0  0  0  0  0  0  0  0  0
   -4.1897    2.3161    1.1452 O   0  0  0  0  0  0  0  0  0  0  0  0
   -4.1935   -1.7578    0.5401 C   0  0  0  0  0  0  0  0  0  0  0  0
   -4.5686   -1.4738    1.6693 O   0  0  0  0  0  0  0  0  0  0  0  0
    4.3369   -0.6353    0.9093 P   0  0  1  0  0  0  0  0  0  0  0  0
    4.8186    0.3785    1.8721 O   0  0  0  0  0  0  0  0  0  0  0  0
    5.4075   -1.7560    0.4858 O   0  0  0  0  0  0  0  0  0  0  0  0
    3.0667   -1.4054    1.5251 O   0  0  0  0  0  0  0  0  0  0  0  0
   -3.4512   -0.9089   -0.1948 N   0  0  0  0  0  0  0  0  0  0  0  0
   -4.5112   -3.0804   -0.1051 C   0  0  0  0  0  0  0  0  0  0  0  0
    1.5725    0.3732   -1.4894 N   0  0  0  0  0  0  0  0  0  0  0  0
    2.5316    0.7329   -0.6277 C   0  0  0  0  0  0  0  0  0  0  0  0
    2.4092    1.6388    0.1830 O   0  0  0  0  0  0  0  0  0  0  0  0
    3.8177   -0.0611   -0.7266 C   0  0  0  0  0  0  0  0  0  0  0  0
   -2.7064    0.3387    1.2875 H   0  0  0  0  0  0  0  0  0  0  0  0
   -2.4614    1.0977   -1.6568 H   0  0  0  0  0  0  0  0  0  0  0  0
   -1.9336    2.0934   -0.3152 H   0  0  0  0  0  0  0  0  0  0  0  0
   -0.3471    0.3459    0.4275 H   0  0  0  0  0  0  0  0  0  0  0  0
   -0.8505   -0.7115   -0.8820 H   0  0  0  0  0  0  0  0  0  0  0  0
   -0.0871    0.9602   -2.5566 H   0  0  0  0  0  0  0  0  0  0  0  0
    0.3839    2.0561   -1.2708 H   0  0  0  0  0  0  0  0  0  0  0  0
   -4.9764    2.8821    1.1437 H   0  0  0  0  0  0  0  0  0  0  0  0
    5.9782   -2.0419    1.2128 H   0  0  0  0  0  0  0  0  0  0  0  0
    2.7270   -2.1450    1.0047 H   0  0  0  0  0  0  0  0  0  0  0  0
   -3.2482   -1.1370   -1.1547 H   0  0  0  0  0  0  0  0  0  0  0  0
   -4.0662   -3.8838    0.4824 H   0  0  0  0  0  0  0  0  0  0  0  0
   -5.5898   -3.2348   -0.1016 H   0  0  0  0  0  0  0  0  0  0  0  0
   -4.1523   -3.1655   -1.1289 H   0  0  0  0  0  0  0  0  0  0  0  0
    1.7329   -0.4058   -2.1065 H   0  0  0  0  0  0  0  0  0  0  0  0
    4.6032    0.5916   -1.1163 H   0  0  0  0  0  0  0  0  0  0  0  0
    3.7417   -0.9111   -1.4067 H   0  0  0  0  0  0  0  0  0  0  0  0
  5  1  1  0
  1 14  1  0
  1  2  1  0
  1 20  1  1
  3  2  1  0
  2 21  1  0
  2 22  1  0
  3  4  1  0
  3 23  1  0
  3 24  1  0
  4 16  1  0
  4 25  1  0
  4 26  1  0
  6  5  2  0
  7  5  1  0
  7 27  1  0
  9  8  2  0
  8 15  1  0
  8 14  1  0
 11 10  2  0
 19 10  1  0
 10 12  1  6
 10 13  1  0
 12 28  1  0
 13 29  1  0
 14 30  1  0
 15 31  1  0
 15 32  1  0
 15 33  1  0
 16 17  1  0
 16 34  1  0
 18 17  2  0
 17 19  1  0
 19 35  1  0
 19 36  1  0
M  END
