
     RDKit          3D

 25 25  0  0  0  0  0  0  0  0999 V2000
    3.9876    0.0397    0.8735 C   0  0  0  0  0  0  0  0  0  0  0  0
    2.4966   -0.2714    0.8902 C   0  0  0  0  0  0  0  0  0  0  0  0
    1.7166    0.3518   -0.2750 C   0  0  1  0  0  0  0  0  0  0  0  0
    2.1770   -0.1817   -1.6326 C   0  0  0  0  0  0  0  0  0  0  0  0
    0.2284    0.1654   -0.0931 C   0  0  0  0  0  0  0  0  0  0  0  0
   -0.3394   -1.1058    0.0044 C   0  0  0  0  0  0  0  0  0  0  0  0
   -1.7014   -1.2847    0.1797 C   0  0  0  0  0  0  0  0  0  0  0  0
   -2.5450   -0.1782    0.2600 C   0  0  0  0  0  0  0  0  0  0  0  0
   -3.8657   -0.4024    0.4337 O   0  0  0  0  0  0  0  0  0  0  0  0
   -2.0010    1.0973    0.1598 C   0  0  0  0  0  0  0  0  0  0  0  0
   -0.6312    1.2551   -0.0138 C   0  0  0  0  0  0  0  0  0  0  0  0
    4.4776   -0.3622    1.7611 H   0  0  0  0  0  0  0  0  0  0  0  0
    4.4880   -0.3885    0.0045 H   0  0  0  0  0  0  0  0  0  0  0  0
    4.1641    1.1172    0.8600 H   0  0  0  0  0  0  0  0  0  0  0  0
    2.3495   -1.3560    0.8887 H   0  0  0  0  0  0  0  0  0  0  0  0
    2.0678    0.0912    1.8284 H   0  0  0  0  0  0  0  0  0  0  0  0
    1.9133    1.4301   -0.2606 H   0  0  0  0  0  0  0  0  0  0  0  0
    1.6171    0.2831   -2.4448 H   0  0  0  0  0  0  0  0  0  0  0  0
    3.2344    0.0225   -1.8038 H   0  0  0  0  0  0  0  0  0  0  0  0
    2.0342   -1.2622   -1.7056 H   0  0  0  0  0  0  0  0  0  0  0  0
    0.2916   -1.9854   -0.0534 H   0  0  0  0  0  0  0  0  0  0  0  0
   -2.1155   -2.2827    0.2576 H   0  0  0  0  0  0  0  0  0  0  0  0
   -4.3432    0.4329    0.4856 H   0  0  0  0  0  0  0  0  0  0  0  0
   -2.6400    1.9716    0.2186 H   0  0  0  0  0  0  0  0  0  0  0  0
   -0.2297    2.2595   -0.0881 H   0  0  0  0  0  0  0  0  0  0  0  0
  4  3  1  0
  6  7  1  0
  6  5  2  0
  3  5  1  0
  3  2  1  0
  7  8  2  0
  5 11  1  0
  1  2  1  0
  8  9  1  0
  8 10  1  0
 11 10  2  0
  1 12  1  0
  1 13  1  0
  1 14  1  0
  2 15  1  0
  2 16  1  0
  3 17  1  6
  4 18  1  0
  4 19  1  0
  4 20  1  0
  6 21  1  0
  7 22  1  0
  9 23  1  0
 10 24  1  0
 11 25  1  0
M  END
