
     RDKit          3D

 65 69  0  0  0  0  0  0  0  0999 V2000
   -0.8481    0.2186   -6.2384 N   0  0  0  0  0  0  0  0  0  0  0  0
    0.3750    0.7008   -5.8634 C   0  0  0  0  0  0  0  0  0  0  0  0
    1.1283    1.4604   -6.5629 N   0  0  0  0  0  0  0  0  0  0  0  0
    0.8100    0.3289   -4.4902 C   0  0  0  0  0  0  0  0  0  0  0  0
    2.1668    0.3169   -4.1791 C   0  0  0  0  0  0  0  0  0  0  0  0
    2.5951   -0.0419   -2.9107 C   0  0  0  0  0  0  0  0  0  0  0  0
    1.6853   -0.3705   -1.9121 C   0  0  0  0  0  0  0  0  0  0  0  0
    2.1826   -0.7547   -0.5410 C   0  0  1  0  0  0  0  0  0  0  0  0
    2.3630    0.3995    0.4524 C   0  0  2  0  0  0  0  0  0  0  0  0
    2.2988   -0.2695    1.8285 C   0  0  2  0  0  0  0  0  0  0  0  0
    1.6468   -1.6672    1.5871 C   0  0  1  0  0  0  0  0  0  0  0  0
    2.6965   -2.7379    1.9209 C   0  0  0  0  0  0  0  0  0  0  0  0
    0.3895   -1.9365    2.4071 C   0  0  0  0  0  0  0  0  0  0  0  0
    1.2834   -1.6403    0.1599 N   0  0  0  0  0  0  0  0  0  0  0  0
    1.1194   -2.9307   -0.4682 C   0  0  0  0  0  0  0  0  0  0  0  0
    1.5489    0.7415    2.7090 C   0  0  2  0  0  0  0  0  0  0  0  0
    0.7813    1.5127    1.7438 N   0  0  0  0  0  0  0  0  0  0  0  0
   -0.4366    2.2205    2.0812 C   0  0  0  0  0  0  0  0  0  0  0  0
   -1.5994    1.2728    2.2209 C   0  0  0  0  0  0  0  0  0  0  0  0
   -2.0890    0.9423    3.4747 C   0  0  0  0  0  0  0  0  0  0  0  0
   -3.1190    0.0071    3.6468 C   0  0  0  0  0  0  0  0  0  0  0  0
   -3.6210   -0.5715    2.5100 C   0  0  0  0  0  0  0  0  0  0  0  0
   -3.1413   -0.2417    1.2501 C   0  0  0  0  0  0  0  0  0  0  0  0
   -2.1384    0.6731    1.0696 C   0  0  0  0  0  0  0  0  0  0  0  0
   -3.8328   -0.9346    0.3123 O   0  0  0  0  0  0  0  0  0  0  0  0
   -4.6270   -1.8757    1.0217 C   0  0  0  0  0  0  0  0  0  0  0  0
   -4.6217   -1.4779    2.3861 O   0  0  0  0  0  0  0  0  0  0  0  0
    1.2267    1.4039    0.4758 C   0  0  0  0  0  0  0  0  0  0  0  0
    0.7974    2.0299   -0.4782 O   0  0  0  0  0  0  0  0  0  0  0  0
    2.5428    1.5850    3.5125 C   0  0  0  0  0  0  0  0  0  0  0  0
    1.9388    2.6745    4.3884 C   0  0  0  0  0  0  0  0  0  0  0  0
    0.3298   -0.3447   -2.2202 C   0  0  0  0  0  0  0  0  0  0  0  0
   -0.1038   -0.0081   -3.4911 C   0  0  0  0  0  0  0  0  0  0  0  0
   -1.1049    0.3189   -7.2077 H   0  0  0  0  0  0  0  0  0  0  0  0
   -1.1633   -0.6449   -5.8276 H   0  0  0  0  0  0  0  0  0  0  0  0
    0.7373    1.6124   -7.4890 H   0  0  0  0  0  0  0  0  0  0  0  0
    2.8891    0.5692   -4.9439 H   0  0  0  0  0  0  0  0  0  0  0  0
    3.6580   -0.0744   -2.6983 H   0  0  0  0  0  0  0  0  0  0  0  0
    3.1823   -1.2068   -0.6826 H   0  0  0  0  0  0  0  0  0  0  0  0
    3.3015    0.9264    0.2640 H   0  0  0  0  0  0  0  0  0  0  0  0
    3.2978   -0.4227    2.2393 H   0  0  0  0  0  0  0  0  0  0  0  0
    2.3024   -3.7483    1.8013 H   0  0  0  0  0  0  0  0  0  0  0  0
    3.5865   -2.6492    1.2926 H   0  0  0  0  0  0  0  0  0  0  0  0
    3.0189   -2.6326    2.9580 H   0  0  0  0  0  0  0  0  0  0  0  0
   -0.0269   -2.9129    2.1521 H   0  0  0  0  0  0  0  0  0  0  0  0
    0.6049   -1.9533    3.4767 H   0  0  0  0  0  0  0  0  0  0  0  0
   -0.3806   -1.1901    2.2162 H   0  0  0  0  0  0  0  0  0  0  0  0
    0.6449   -2.8207   -1.4435 H   0  0  0  0  0  0  0  0  0  0  0  0
    2.0648   -3.4684   -0.6249 H   0  0  0  0  0  0  0  0  0  0  0  0
    0.4679   -3.5653    0.1319 H   0  0  0  0  0  0  0  0  0  0  0  0
    0.8646    0.2559    3.4100 H   0  0  0  0  0  0  0  0  0  0  0  0
   -0.2980    2.7712    3.0092 H   0  0  0  0  0  0  0  0  0  0  0  0
   -0.6237    2.9553    1.2983 H   0  0  0  0  0  0  0  0  0  0  0  0
   -1.6610    1.4120    4.3518 H   0  0  0  0  0  0  0  0  0  0  0  0
   -3.4947   -0.2418    4.6300 H   0  0  0  0  0  0  0  0  0  0  0  0
   -1.7725    0.9276    0.0834 H   0  0  0  0  0  0  0  0  0  0  0  0
   -4.1935   -2.8772    0.9241 H   0  0  0  0  0  0  0  0  0  0  0  0
   -5.6467   -1.8631    0.6373 H   0  0  0  0  0  0  0  0  0  0  0  0
    3.2757    2.0288    2.8306 H   0  0  0  0  0  0  0  0  0  0  0  0
    3.0981    0.8886    4.1470 H   0  0  0  0  0  0  0  0  0  0  0  0
    2.6929    3.0839    5.0609 H   0  0  0  0  0  0  0  0  0  0  0  0
    1.5504    3.5073    3.8022 H   0  0  0  0  0  0  0  0  0  0  0  0
    1.1243    2.2884    5.0053 H   0  0  0  0  0  0  0  0  0  0  0  0
   -0.3914   -0.5957   -1.4525 H   0  0  0  0  0  0  0  0  0  0  0  0
   -1.1680    0.0122   -3.6901 H   0  0  0  0  0  0  0  0  0  0  0  0
  1  2  1  0
  1 34  1  0
  1 35  1  0
  2  3  2  0
  2  4  1  0
  3 36  1  0
  4  5  2  0
  4 33  1  0
  5  6  1  0
  5 37  1  0
  6  7  2  0
  6 38  1  0
  7  8  1  0
  7 32  1  0
  8  9  1  0
  8 14  1  0
  8 39  1  6
  9 10  1  0
  9 28  1  0
  9 40  1  6
 10 11  1  0
 10 16  1  0
 10 41  1  1
 11 12  1  6
 11 13  1  0
 11 14  1  0
 12 42  1  0
 12 43  1  0
 12 44  1  0
 13 45  1  0
 13 46  1  0
 13 47  1  0
 14 15  1  0
 15 48  1  0
 15 49  1  0
 15 50  1  0
 16 17  1  0
 16 30  1  0
 16 51  1  1
 17 18  1  0
 17 28  1  0
 18 19  1  0
 18 52  1  0
 18 53  1  0
 19 20  2  0
 19 24  1  0
 20 21  1  0
 20 54  1  0
 21 22  2  0
 21 55  1  0
 22 23  1  0
 22 27  1  0
 23 24  2  0
 23 25  1  0
 24 56  1  0
 25 26  1  0
 26 27  1  0
 26 57  1  0
 26 58  1  0
 28 29  2  0
 30 31  1  0
 30 59  1  0
 30 60  1  0
 31 61  1  0
 31 62  1  0
 31 63  1  0
 32 33  2  0
 32 64  1  0
 33 65  1  0
M  END
