
     RDKit          3D

 35 36  0  0  0  0  0  0  0  0999 V2000
   -3.6705    2.0708   -1.9879 C   0  0  0  0  0  0  0  0  0  0  0  0
   -3.6887    1.4341   -0.6444 C   0  0  0  0  0  0  0  0  0  0  0  0
   -3.2656    0.1608    1.1515 C   0  0  0  0  0  0  0  0  0  0  0  0
   -2.8388    0.3941   -0.1654 C   0  0  0  0  0  0  0  0  0  0  0  0
   -1.7744   -0.3375   -0.6989 C   0  0  0  0  0  0  0  0  0  0  0  0
   -1.1857   -1.3022    0.0910 C   0  0  0  0  0  0  0  0  0  0  0  0
    1.8386   -0.1602   -0.4502 C   0  0  0  0  0  0  0  0  0  0  0  0
    3.2531    0.2130   -0.0289 C   0  0  0  0  0  0  0  0  0  0  0  0
    3.5992    1.6264   -0.4874 C   0  0  0  0  0  0  0  0  0  0  0  0
    4.9995    1.9975   -0.0591 C   0  0  0  0  0  0  0  0  0  0  0  0
   -1.6396   -1.5410    1.4075 C   0  0  0  0  0  0  0  0  0  0  0  0
   -2.6680   -0.8141    1.9582 C   0  0  0  0  0  0  0  0  0  0  0  0
    5.3107    3.2837   -0.5002 F   0  0  0  0  0  0  0  0  0  0  0  0
   -4.5349    1.7838    0.2926 N   0  0  0  0  0  0  0  0  0  0  0  0
   -4.2827    1.0235    1.3650 N   0  0  0  0  0  0  0  0  0  0  0  0
   -0.1335   -2.1078   -0.4262 N   0  0  0  0  0  0  0  0  0  0  0  0
    2.2529   -2.7621   -0.6873 O   0  0  0  0  0  0  0  0  0  0  0  0
    1.4476   -1.8673    1.5173 O   0  0  0  0  0  0  0  0  0  0  0  0
    1.4307   -1.8259    0.0637 S   0  0  1  0  0  0  0  0  0  0  0  0
   -3.8351    1.3328   -2.7747 H   0  0  0  0  0  0  0  0  0  0  0  0
   -4.4439    2.8322   -2.0695 H   0  0  0  0  0  0  0  0  0  0  0  0
   -2.7068    2.5426   -2.1862 H   0  0  0  0  0  0  0  0  0  0  0  0
   -1.4242   -0.1596   -1.7090 H   0  0  0  0  0  0  0  0  0  0  0  0
    1.0993    0.5045    0.0007 H   0  0  0  0  0  0  0  0  0  0  0  0
    1.7185   -0.1284   -1.5347 H   0  0  0  0  0  0  0  0  0  0  0  0
    3.3415    0.1445    1.0574 H   0  0  0  0  0  0  0  0  0  0  0  0
    3.9640   -0.4968   -0.4575 H   0  0  0  0  0  0  0  0  0  0  0  0
    3.5210    1.6926   -1.5757 H   0  0  0  0  0  0  0  0  0  0  0  0
    2.8863    2.3390   -0.0644 H   0  0  0  0  0  0  0  0  0  0  0  0
    5.0957    1.9829    1.0285 H   0  0  0  0  0  0  0  0  0  0  0  0
    5.7355    1.3107   -0.4819 H   0  0  0  0  0  0  0  0  0  0  0  0
   -1.1732   -2.3243    1.9881 H   0  0  0  0  0  0  0  0  0  0  0  0
   -3.0051   -1.0040    2.9682 H   0  0  0  0  0  0  0  0  0  0  0  0
   -0.1824   -2.2727   -1.4265 H   0  0  0  0  0  0  0  0  0  0  0  0
   -4.8327    1.1399    2.1996 H   0  0  0  0  0  0  0  0  0  0  0  0
 15 14  1  0
 15  3  1  0
 12  3  1  0
 12 11  2  0
 14  2  2  0
  3  4  2  0
 11  6  1  0
  2  4  1  0
  2  1  1  0
  4  5  1  0
  6  5  2  0
  6 16  1  0
 19 16  1  6
 19 18  2  0
 19  7  1  0
 19 17  2  0
  7  8  1  0
  8  9  1  0
  9 10  1  0
 10 13  1  0
  1 20  1  0
  1 21  1  0
  1 22  1  0
  5 23  1  0
  7 24  1  0
  7 25  1  0
  8 26  1  0
  8 27  1  0
  9 28  1  0
  9 29  1  0
 10 30  1  0
 10 31  1  0
 11 32  1  0
 12 33  1  0
 16 34  1  0
 15 35  1  0
M  END
