
     RDKit          3D

 81 85  0  0  0  0  0  0  0  0999 V2000
   -5.0084   -3.0716    0.2250 O   0  0  0  0  0  0  0  0  0  0  0  0
   -4.3916   -1.8782    0.7874 S   0  0  1  0  0  0  0  0  0  0  0  0
   -4.7167   -1.5185    2.1632 O   0  0  0  0  0  0  0  0  0  0  0  0
   -2.6328   -2.0190    0.6822 C   0  0  0  0  0  0  0  0  0  0  0  0
   -1.8404   -1.4702    1.7007 C   0  0  0  0  0  0  0  0  0  0  0  0
   -0.4854   -1.5400    1.5092 C   0  0  0  0  0  0  0  0  0  0  0  0
    0.0694   -2.1228    0.3771 C   0  0  0  0  0  0  0  0  0  0  0  0
    1.4078   -2.0650    0.4529 O   0  0  0  0  0  0  0  0  0  0  0  0
    1.7293   -1.3727    1.6555 C   0  0  0  0  0  0  0  0  0  0  0  0
    0.5003   -1.1180    2.3254 O   0  0  0  0  0  0  0  0  0  0  0  0
   -0.7057   -2.6725   -0.6169 C   0  0  0  0  0  0  0  0  0  0  0  0
   -2.0898   -2.6108   -0.4475 C   0  0  0  0  0  0  0  0  0  0  0  0
   -4.7201   -0.6475   -0.2513 N   0  0  0  0  0  0  0  0  0  0  0  0
   -5.9206   -0.7167   -1.0839 C   0  0  0  0  0  0  0  0  0  0  0  0
   -7.2552   -0.6705   -0.3394 C   0  0  1  0  0  0  0  0  0  0  0  0
   -7.3941    0.5610    0.5469 C   0  0  0  0  0  0  0  0  0  0  0  0
   -8.3844   -0.7351   -1.3626 C   0  0  0  0  0  0  0  0  0  0  0  0
   -4.0603    0.6304   -0.0153 C   0  0  0  0  0  0  0  0  0  0  0  0
   -2.8929    0.8641   -0.9742 C   0  0  1  0  0  0  0  0  0  0  0  0
   -3.3162    1.1117   -2.2941 O   0  0  0  0  0  0  0  0  0  0  0  0
   -1.9347    1.9371   -0.4456 C   0  0  2  0  0  0  0  0  0  0  0  0
   -2.5556    3.3355   -0.3325 C   0  0  0  0  0  0  0  0  0  0  0  0
   -1.6054    4.3052    0.3102 C   0  0  0  0  0  0  0  0  0  0  0  0
   -0.7966    5.1379   -0.4577 C   0  0  0  0  0  0  0  0  0  0  0  0
    0.1142    5.9970    0.1437 C   0  0  0  0  0  0  0  0  0  0  0  0
    0.2265    6.0362    1.5267 C   0  0  0  0  0  0  0  0  0  0  0  0
   -0.5782    5.2113    2.3031 C   0  0  0  0  0  0  0  0  0  0  0  0
   -1.4842    4.3531    1.6972 C   0  0  0  0  0  0  0  0  0  0  0  0
   -0.7527    1.9808   -1.2772 N   0  0  0  0  0  0  0  0  0  0  0  0
    0.4841    1.7423   -0.8293 C   0  0  0  0  0  0  0  0  0  0  0  0
    0.7763    1.4572    0.3186 O   0  0  0  0  0  0  0  0  0  0  0  0
    1.5633    1.7898   -1.9074 C   0  0  1  0  0  0  0  0  0  0  0  0
    2.7223    2.3815   -1.3456 O   0  0  0  0  0  0  0  0  0  0  0  0
    3.5839    1.4334   -0.9513 C   0  0  0  0  0  0  0  0  0  0  0  0
    4.5699    1.6927   -0.3146 O   0  0  0  0  0  0  0  0  0  0  0  0
    2.0169    0.3782   -2.2892 C   0  0  0  0  0  0  0  0  0  0  0  0
    3.1602    0.2212   -1.4145 N   0  0  0  0  0  0  0  0  0  0  0  0
    3.8270   -0.9964   -1.2570 C   0  0  0  0  0  0  0  0  0  0  0  0
    3.6053   -2.0142   -2.1801 C   0  0  0  0  0  0  0  0  0  0  0  0
    4.2127   -3.2494   -2.0189 C   0  0  0  0  0  0  0  0  0  0  0  0
    5.0485   -3.4923   -0.9441 C   0  0  0  0  0  0  0  0  0  0  0  0
    4.6662   -1.2337   -0.1669 C   0  0  0  0  0  0  0  0  0  0  0  0
    5.2666   -2.4736   -0.0231 C   0  0  0  0  0  0  0  0  0  0  0  0
    6.1512   -2.7571    1.1518 C   0  0  1  0  0  0  0  0  0  0  0  0
    5.6315   -3.7133    1.9362 F   0  0  0  0  0  0  0  0  0  0  0  0
    7.3580   -3.1950    0.7672 F   0  0  0  0  0  0  0  0  0  0  0  0
    6.3520   -1.6867    1.9246 F   0  0  0  0  0  0  0  0  0  0  0  0
   -2.2662   -1.0193    2.5862 H   0  0  0  0  0  0  0  0  0  0  0  0
    2.3671   -2.0007    2.2800 H   0  0  0  0  0  0  0  0  0  0  0  0
    2.2237   -0.4302    1.4163 H   0  0  0  0  0  0  0  0  0  0  0  0
   -0.2701   -3.1333   -1.4924 H   0  0  0  0  0  0  0  0  0  0  0  0
   -2.7290   -3.0213   -1.2174 H   0  0  0  0  0  0  0  0  0  0  0  0
   -5.8524    0.1313   -1.7671 H   0  0  0  0  0  0  0  0  0  0  0  0
   -5.8734   -1.6113   -1.7071 H   0  0  0  0  0  0  0  0  0  0  0  0
   -7.3245   -1.5596    0.2959 H   0  0  0  0  0  0  0  0  0  0  0  0
   -7.3265    1.4812   -0.0392 H   0  0  0  0  0  0  0  0  0  0  0  0
   -8.3650    0.5643    1.0451 H   0  0  0  0  0  0  0  0  0  0  0  0
   -6.6331    0.5980    1.3272 H   0  0  0  0  0  0  0  0  0  0  0  0
   -8.3128   -1.6282   -1.9856 H   0  0  0  0  0  0  0  0  0  0  0  0
   -9.3571   -0.7512   -0.8699 H   0  0  0  0  0  0  0  0  0  0  0  0
   -8.3615    0.1354   -2.0222 H   0  0  0  0  0  0  0  0  0  0  0  0
   -4.8026    1.4264   -0.1087 H   0  0  0  0  0  0  0  0  0  0  0  0
   -3.7091    0.6946    1.0177 H   0  0  0  0  0  0  0  0  0  0  0  0
   -2.3135   -0.0593   -1.0279 H   0  0  0  0  0  0  0  0  0  0  0  0
   -3.9035    1.8754   -2.3087 H   0  0  0  0  0  0  0  0  0  0  0  0
   -1.6087    1.6180    0.5468 H   0  0  0  0  0  0  0  0  0  0  0  0
   -2.8427    3.6992   -1.3229 H   0  0  0  0  0  0  0  0  0  0  0  0
   -3.4724    3.2737    0.2594 H   0  0  0  0  0  0  0  0  0  0  0  0
   -0.8822    5.1201   -1.5379 H   0  0  0  0  0  0  0  0  0  0  0  0
    0.7341    6.6374   -0.4706 H   0  0  0  0  0  0  0  0  0  0  0  0
    0.9332    6.7071    1.9982 H   0  0  0  0  0  0  0  0  0  0  0  0
   -0.5010    5.2384    3.3826 H   0  0  0  0  0  0  0  0  0  0  0  0
   -2.1072    3.7129    2.3117 H   0  0  0  0  0  0  0  0  0  0  0  0
   -0.8807    2.2277   -2.2472 H   0  0  0  0  0  0  0  0  0  0  0  0
    1.2579    2.3702   -2.7780 H   0  0  0  0  0  0  0  0  0  0  0  0
    1.2559   -0.3799   -2.1002 H   0  0  0  0  0  0  0  0  0  0  0  0
    2.3005    0.3252   -3.3427 H   0  0  0  0  0  0  0  0  0  0  0  0
    2.9552   -1.8593   -3.0304 H   0  0  0  0  0  0  0  0  0  0  0  0
    4.0285   -4.0288   -2.7455 H   0  0  0  0  0  0  0  0  0  0  0  0
    5.5163   -4.4618   -0.8332 H   0  0  0  0  0  0  0  0  0  0  0  0
    4.8352   -0.4613    0.5664 H   0  0  0  0  0  0  0  0  0  0  0  0
  1  2  2  0
  2  3  2  0
  2  4  1  0
  2 13  1  6
  4  5  2  0
  4 12  1  0
  5  6  1  0
  6  7  2  0
  6 10  1  0
  7  8  1  0
  7 11  1  0
  8  9  1  0
  9 10  1  0
 11 12  2  0
 13 14  1  0
 13 18  1  0
 14 15  1  0
 15 16  1  0
 15 17  1  0
 18 19  1  0
 19 20  1  0
 19 21  1  0
 21 22  1  0
 21 29  1  0
 22 23  1  0
 23 24  2  0
 23 28  1  0
 24 25  1  0
 25 26  2  0
 26 27  1  0
 27 28  2  0
 29 30  1  0
 30 31  2  0
 30 32  1  0
 32 33  1  0
 32 36  1  0
 33 34  1  0
 34 35  2  0
 34 37  1  0
 36 37  1  0
 37 38  1  0
 38 39  2  0
 38 42  1  0
 39 40  1  0
 40 41  2  0
 41 43  1  0
 42 43  2  0
 43 44  1  0
 44 45  1  1
 44 46  1  0
 44 47  1  0
  5 48  1  0
  9 49  1  0
  9 50  1  0
 11 51  1  0
 12 52  1  0
 14 53  1  0
 14 54  1  0
 15 55  1  1
 16 56  1  0
 16 57  1  0
 16 58  1  0
 17 59  1  0
 17 60  1  0
 17 61  1  0
 18 62  1  0
 18 63  1  0
 19 64  1  6
 20 65  1  0
 21 66  1  1
 22 67  1  0
 22 68  1  0
 24 69  1  0
 25 70  1  0
 26 71  1  0
 27 72  1  0
 28 73  1  0
 29 74  1  0
 32 75  1  6
 36 76  1  0
 36 77  1  0
 39 78  1  0
 40 79  1  0
 41 80  1  0
 42 81  1  0
M  END
