
     RDKit          3D

 68 71  0  0  0  0  0  0  0  0999 V2000
    0.7197    1.8133   -0.2445 N   0  0  0  0  0  0  0  0  0  0  0  0
    6.2699    0.2224   -0.9491 C   0  0  0  0  0  0  0  0  0  0  0  0
    5.0859    0.9329   -1.0573 C   0  0  0  0  0  0  0  0  0  0  0  0
    4.4012    1.3540    0.0785 C   0  0  0  0  0  0  0  0  0  0  0  0
    3.1126    2.1065   -0.0525 C   0  0  0  0  0  0  0  0  0  0  0  0
    1.9246    1.1780   -0.1330 C   0  0  0  0  0  0  0  0  0  0  0  0
   -2.6641    1.0221   -0.5347 C   0  0  0  0  0  0  0  0  0  0  0  0
   -4.5035   -1.5240   -1.2219 C   0  0  0  0  0  0  0  0  0  0  0  0
   -5.9711   -0.7245   -2.9691 C   0  0  0  0  0  0  0  0  0  0  0  0
   -6.7955   -2.2081   -1.2707 C   0  0  0  0  0  0  0  0  0  0  0  0
   -5.3165   -2.2859    1.8839 C   0  0  1  0  0  0  0  0  0  0  0  0
   -6.6088   -1.5172    2.1324 C   0  0  0  0  0  0  0  0  0  0  0  0
   -4.9986   -3.2013    3.0603 C   0  0  0  0  0  0  0  0  0  0  0  0
   -5.0405    1.2397    0.1997 C   0  0  0  0  0  0  0  0  0  0  0  0
   -6.4967    2.8482   -0.8368 C   0  0  0  0  0  0  0  0  0  0  0  0
   -4.1987    2.6858   -1.5261 C   0  0  0  0  0  0  0  0  0  0  0  0
   -5.5452   -2.2805   -0.6617 C   0  0  0  0  0  0  0  0  0  0  0  0
   -7.0149   -1.4431   -2.4071 C   0  0  0  0  0  0  0  0  0  0  0  0
   -4.7244   -0.7650   -2.3698 C   0  0  0  0  0  0  0  0  0  0  0  0
   -2.3604   -0.3207   -0.5259 C   0  0  0  0  0  0  0  0  0  0  0  0
   -0.6427   -0.5365   -0.3419 S   0  0  0  0  0  0  0  0  0  0  0  0
   -3.9916    1.6486   -0.6184 C   0  0  0  0  0  0  0  0  0  0  0  0
   -5.4481    3.2747   -1.6417 C   0  0  0  0  0  0  0  0  0  0  0  0
   -6.2867    1.8362    0.0899 C   0  0  0  0  0  0  0  0  0  0  0  0
   -1.5889    1.8491   -0.4470 N   0  0  0  0  0  0  0  0  0  0  0  0
   -0.4815    1.1728   -0.3459 C   0  0  0  0  0  0  0  0  0  0  0  0
    1.9952   -0.0317   -0.1094 O   0  0  0  0  0  0  0  0  0  0  0  0
    4.9169    1.0499    1.3341 C   0  0  0  0  0  0  0  0  0  0  0  0
    6.1008    0.3413    1.4611 C   0  0  0  0  0  0  0  0  0  0  0  0
    6.7677   -0.0657    0.3142 C   0  0  0  0  0  0  0  0  0  0  0  0
    8.2939   -0.9545    0.4668 S   0  0  1  0  0  0  0  0  0  0  0  0
    8.3136   -1.6174    1.7706 O   0  0  0  0  0  0  0  0  0  0  0  0
    8.4765   -1.7709   -0.7332 O   0  0  0  0  0  0  0  0  0  0  0  0
    9.5428    0.3297    0.4686 C   0  0  0  0  0  0  0  0  0  0  0  0
   10.9289   -0.2760    0.6096 C   0  0  0  0  0  0  0  0  0  0  0  0
    0.6806    2.8241   -0.2574 H   0  0  0  0  0  0  0  0  0  0  0  0
    6.7889   -0.0992   -1.8418 H   0  0  0  0  0  0  0  0  0  0  0  0
    4.6941    1.1622   -2.0402 H   0  0  0  0  0  0  0  0  0  0  0  0
    2.9676    2.7854    0.7924 H   0  0  0  0  0  0  0  0  0  0  0  0
    3.1193    2.7340   -0.9486 H   0  0  0  0  0  0  0  0  0  0  0  0
   -6.1243   -0.1340   -3.8622 H   0  0  0  0  0  0  0  0  0  0  0  0
   -7.6159   -2.7715   -0.8420 H   0  0  0  0  0  0  0  0  0  0  0  0
   -4.4981   -1.5614    1.7935 H   0  0  0  0  0  0  0  0  0  0  0  0
   -7.4574   -2.2009    2.2161 H   0  0  0  0  0  0  0  0  0  0  0  0
   -6.5511   -0.9441    3.0593 H   0  0  0  0  0  0  0  0  0  0  0  0
   -6.8304   -0.8175    1.3254 H   0  0  0  0  0  0  0  0  0  0  0  0
   -5.7756   -3.9600    3.1834 H   0  0  0  0  0  0  0  0  0  0  0  0
   -4.0486   -3.7189    2.9179 H   0  0  0  0  0  0  0  0  0  0  0  0
   -4.9360   -2.6378    3.9925 H   0  0  0  0  0  0  0  0  0  0  0  0
   -4.8816    0.4615    0.9350 H   0  0  0  0  0  0  0  0  0  0  0  0
   -7.4716    3.3097   -0.9251 H   0  0  0  0  0  0  0  0  0  0  0  0
   -3.3849    3.0190   -2.1574 H   0  0  0  0  0  0  0  0  0  0  0  0
   -4.5065   -3.7419    0.5158 H   0  0  0  0  0  0  0  0  0  0  0  0
   -6.2470   -3.7829    0.6644 H   0  0  0  0  0  0  0  0  0  0  0  0
   -8.0001   -1.4148   -2.8544 H   0  0  0  0  0  0  0  0  0  0  0  0
   -3.9068   -0.2073   -2.8078 H   0  0  0  0  0  0  0  0  0  0  0  0
   -5.6012    4.0693   -2.3603 H   0  0  0  0  0  0  0  0  0  0  0  0
   -7.0953    1.5155    0.7342 H   0  0  0  0  0  0  0  0  0  0  0  0
    4.3931    1.3686    2.2262 H   0  0  0  0  0  0  0  0  0  0  0  0
    6.4891    0.1121    2.4442 H   0  0  0  0  0  0  0  0  0  0  0  0
    9.4306    0.8818   -0.4657 H   0  0  0  0  0  0  0  0  0  0  0  0
    9.3076    1.0014    1.2953 H   0  0  0  0  0  0  0  0  0  0  0  0
   11.0382   -0.8109    1.5512 H   0  0  0  0  0  0  0  0  0  0  0  0
   11.1569   -0.9555   -0.2097 H   0  0  0  0  0  0  0  0  0  0  0  0
   11.6657    0.5251    0.5930 H   0  0  0  0  0  0  0  0  0  0  0  0
   -3.1197   -1.5604   -0.6764 C   0  0  0  0  0  0  0  0  0  0  0  0
   -5.3897   -3.1076    0.5874 C   0  0  0  0  0  0  0  0  0  0  0  0
   -2.5647   -2.6146   -0.4107 O   0  0  0  0  0  0  0  0  0  0  0  0
  5  6  1  0
  5  4  1  0
 27  6  2  0
  3  4  1  0
  3  2  2  0
  6  1  1  0
  4 28  2  0
  1 26  1  0
  2 30  1  0
 21 26  1  0
 21 20  1  0
 68 66  2  0
 26 25  2  0
 28 29  1  0
 20 66  1  0
 20  7  2  0
 66  8  1  0
 25  7  1  0
 30 29  2  0
 30 31  1  0
  7 22  1  0
 32 31  2  0
 12 11  1  0
 67 11  1  0
 67 17  1  0
 31 34  1  1
 31 33  2  0
 14 22  2  0
 14 24  1  0
  8 17  2  0
  8 19  1  0
 22 16  1  0
 11 13  1  0
 34 35  1  0
 17 10  1  0
 19  9  2  0
 24 15  2  0
 16 23  2  0
 10 18  2  0
 15 23  1  0
  9 18  1  0
  1 36  1  0
  2 37  1  0
  3 38  1  0
  5 39  1  0
  5 40  1  0
  9 41  1  0
 10 42  1  0
 11 43  1  6
 12 44  1  0
 12 45  1  0
 12 46  1  0
 13 47  1  0
 13 48  1  0
 13 49  1  0
 14 50  1  0
 15 51  1  0
 16 52  1  0
 67 53  1  0
 67 54  1  0
 18 55  1  0
 19 56  1  0
 23 57  1  0
 24 58  1  0
 28 59  1  0
 29 60  1  0
 34 61  1  0
 34 62  1  0
 35 63  1  0
 35 64  1  0
 35 65  1  0
M  END
