
     RDKit          3D

 26 27  0  0  0  0  0  0  0  0999 V2000
   -2.5247   -1.4772   -0.0796 C   0  0  0  0  0  0  0  0  0  0  0  0
   -3.7883   -2.1730   -0.2294 C   0  0  0  0  0  0  0  0  0  0  0  0
   -4.7885   -2.7263   -0.3488 N   0  0  0  0  0  0  0  0  0  0  0  0
   -2.8755    0.3065   -0.0406 S   0  0  0  0  0  0  0  0  0  0  0  0
   -1.2278    0.9030    0.0151 C   0  0  0  0  0  0  0  0  0  0  0  0
   -1.1057    2.2438    0.0610 N   0  0  0  0  0  0  0  0  0  0  0  0
    0.1330    2.8816    0.1275 C   0  0  0  0  0  0  0  0  0  0  0  0
    1.2376    1.9652    0.1280 C   0  0  0  0  0  0  0  0  0  0  0  0
    1.0262    0.6209    0.0542 C   0  0  0  0  0  0  0  0  0  0  0  0
    2.1252   -0.3638    0.0316 C   0  0  0  0  0  0  0  0  0  0  0  0
    1.8633   -1.7055    0.3143 C   0  0  0  0  0  0  0  0  0  0  0  0
    2.8874   -2.6403    0.3095 C   0  0  0  0  0  0  0  0  0  0  0  0
    4.1865   -2.2527    0.0115 C   0  0  0  0  0  0  0  0  0  0  0  0
    4.4555   -0.9217   -0.2829 C   0  0  0  0  0  0  0  0  0  0  0  0
    3.4345    0.0145   -0.2734 C   0  0  0  0  0  0  0  0  0  0  0  0
   -0.2322    0.0900    0.0084 N   0  0  0  0  0  0  0  0  0  0  0  0
    0.1949    4.0977    0.1797 O   0  0  0  0  0  0  0  0  0  0  0  0
   -2.0426   -1.7905    0.8455 H   0  0  0  0  0  0  0  0  0  0  0  0
   -1.8724   -1.7153   -0.9192 H   0  0  0  0  0  0  0  0  0  0  0  0
   -1.9267    2.8384    0.0587 H   0  0  0  0  0  0  0  0  0  0  0  0
    2.2290    2.3870    0.1999 H   0  0  0  0  0  0  0  0  0  0  0  0
    0.8546   -2.0164    0.5470 H   0  0  0  0  0  0  0  0  0  0  0  0
    2.6674   -3.6750    0.5372 H   0  0  0  0  0  0  0  0  0  0  0  0
    4.9846   -2.9831    0.0044 H   0  0  0  0  0  0  0  0  0  0  0  0
    5.4627   -0.6116   -0.5273 H   0  0  0  0  0  0  0  0  0  0  0  0
    3.6673    1.0411   -0.5238 H   0  0  0  0  0  0  0  0  0  0  0  0
  1  2  1  0
  1  4  1  0
  2  3  3  0
  4  5  1  0
  5  6  1  0
  5 16  2  0
  6  7  1  0
  7  8  1  0
  7 17  2  0
  8  9  2  0
  9 10  1  0
  9 16  1  0
 10 11  2  0
 10 15  1  0
 11 12  1  0
 12 13  2  0
 13 14  1  0
 14 15  2  0
  1 18  1  0
  1 19  1  0
  6 20  1  0
  8 21  1  0
 11 22  1  0
 12 23  1  0
 13 24  1  0
 14 25  1  0
 15 26  1  0
M  END
