
     RDKit          3D

 40 42  0  0  0  0  0  0  0  0999 V2000
   -5.1299    2.1289    1.0137 C   0  0  0  0  0  0  0  0  0  0  0  0
   -4.4374    0.8290    0.6654 C   0  0  2  0  0  0  0  0  0  0  0  0
   -2.9557    1.0066    0.3843 C   0  0  0  0  0  0  0  0  0  0  0  0
   -2.3435   -0.2566    0.0219 N   0  0  0  0  0  0  0  0  0  0  0  0
   -0.9084   -0.1653   -0.0516 C   0  0  0  0  0  0  0  0  0  0  0  0
   -0.2489   -1.5098    0.1838 C   0  0  0  0  0  0  0  0  0  0  0  0
    3.2580   -2.6323    0.4049 C   0  0  0  0  0  0  0  0  0  0  0  0
    3.3578   -1.1638    0.1471 C   0  0  0  0  0  0  0  0  0  0  0  0
    4.4679   -0.3657    0.0319 C   0  0  0  0  0  0  0  0  0  0  0  0
    3.1924    1.4576   -0.3187 C   0  0  0  0  0  0  0  0  0  0  0  0
    1.9873    0.7695   -0.2242 C   0  0  0  0  0  0  0  0  0  0  0  0
   -4.4123   -1.0334   -0.9820 C   0  0  0  0  0  0  0  0  0  0  0  0
   -0.8930   -2.5193    0.3800 O   0  0  0  0  0  0  0  0  0  0  0  0
    1.1200   -1.5753    0.1789 N   0  0  0  0  0  0  0  0  0  0  0  0
    1.7457   -2.8908    0.4213 C   0  0  0  0  0  0  0  0  0  0  0  0
    4.3895    0.9488   -0.2012 N   0  0  0  0  0  0  0  0  0  0  0  0
    2.0860   -0.5938    0.0210 C   0  0  0  0  0  0  0  0  0  0  0  0
   -2.9392   -0.7749   -1.1942 C   0  0  0  0  0  0  0  0  0  0  0  0
   -5.0780    0.2254   -0.5469 N   0  0  0  0  0  0  0  0  0  0  0  0
   -6.1896    1.9745    1.2152 H   0  0  0  0  0  0  0  0  0  0  0  0
   -4.6786    2.5484    1.9114 H   0  0  0  0  0  0  0  0  0  0  0  0
   -5.0307    2.8609    0.2116 H   0  0  0  0  0  0  0  0  0  0  0  0
   -4.5707    0.0935    1.4599 H   0  0  0  0  0  0  0  0  0  0  0  0
   -2.8229    1.7798   -0.3922 H   0  0  0  0  0  0  0  0  0  0  0  0
   -2.4947    1.3849    1.2978 H   0  0  0  0  0  0  0  0  0  0  0  0
   -0.5646    0.2496   -1.0119 H   0  0  0  0  0  0  0  0  0  0  0  0
   -0.5633    0.5207    0.7265 H   0  0  0  0  0  0  0  0  0  0  0  0
    3.7548   -3.2101   -0.3745 H   0  0  0  0  0  0  0  0  0  0  0  0
    3.7210   -2.9054    1.3535 H   0  0  0  0  0  0  0  0  0  0  0  0
    5.4643   -0.7810    0.1288 H   0  0  0  0  0  0  0  0  0  0  0  0
    1.0638    1.3082   -0.3453 H   0  0  0  0  0  0  0  0  0  0  0  0
   -4.8977   -1.3620   -1.8973 H   0  0  0  0  0  0  0  0  0  0  0  0
   -4.5793   -1.7715   -0.1999 H   0  0  0  0  0  0  0  0  0  0  0  0
    1.4406   -3.5893   -0.3562 H   0  0  0  0  0  0  0  0  0  0  0  0
    1.4098   -3.2849    1.3789 H   0  0  0  0  0  0  0  0  0  0  0  0
   -2.8043   -0.0829   -2.0426 H   0  0  0  0  0  0  0  0  0  0  0  0
   -2.4756   -1.7198   -1.4707 H   0  0  0  0  0  0  0  0  0  0  0  0
   -6.0663    0.0474   -0.3648 H   0  0  0  0  0  0  0  0  0  0  0  0
   -5.0594    0.8996   -1.3158 H   0  0  0  0  0  0  0  0  0  0  0  0
    3.1110    3.1678   -0.6227 Cl  0  0  0  0  0  0  0  0  0  0  0  0
  9 16  1  0
  9  8  2  0
 16 10  2  0
  8  7  1  0
  8 17  1  0
  7 15  1  0
 10 40  1  0
 10 11  1  0
 17 11  2  0
 17 14  1  0
 15 14  1  0
 14  6  1  0
  6 13  2  0
  6  5  1  0
  5  4  1  0
  4  3  1  0
  4 18  1  0
  3  2  1  0
 18 12  1  0
  2  1  1  0
  2 19  1  0
 12 19  1  0
  1 20  1  0
  1 21  1  0
  1 22  1  0
  2 23  1  1
  3 24  1  0
  3 25  1  0
  5 26  1  0
  5 27  1  0
  7 28  1  0
  7 29  1  0
  9 30  1  0
 11 31  1  0
 12 32  1  0
 12 33  1  0
 15 34  1  0
 15 35  1  0
 18 36  1  0
 18 37  1  0
 19 38  1  0
 19 39  1  0
M  CHG  1  19   1
M  END
