
     RDKit          3D

 22 21  0  0  0  0  0  0  0  0999 V2000
    0.6417   -0.0850    0.2988 P   0  0  2  0  0  0  0  0  0  0  0  0
    0.7384   -0.9981    1.4648 O   0  0  0  0  0  0  0  0  0  0  0  0
   -0.7212   -0.1646   -0.5402 O   0  0  0  0  0  0  0  0  0  0  0  0
   -2.0064   -0.0419    0.1173 C   0  0  1  0  0  0  0  0  0  0  0  0
   -2.7169    1.1617   -0.4657 C   0  0  0  0  0  0  0  0  0  0  0  0
   -2.7657   -1.3360   -0.0848 C   0  0  0  0  0  0  0  0  0  0  0  0
    1.8800   -0.3067   -0.9883 C   0  0  0  0  0  0  0  0  0  0  0  0
    3.3003   -0.1875   -0.4425 C   0  0  0  0  0  0  0  0  0  0  0  0
    0.7613    1.4348    0.8307 O   0  0  0  0  0  0  0  0  0  0  0  0
   -1.8586    0.1168    1.1903 H   0  0  0  0  0  0  0  0  0  0  0  0
   -2.8835    1.0406   -1.5372 H   0  0  0  0  0  0  0  0  0  0  0  0
   -3.6875    1.2903    0.0136 H   0  0  0  0  0  0  0  0  0  0  0  0
   -2.1441    2.0758   -0.3056 H   0  0  0  0  0  0  0  0  0  0  0  0
   -2.9266   -1.5362   -1.1453 H   0  0  0  0  0  0  0  0  0  0  0  0
   -2.2304   -2.1795    0.3515 H   0  0  0  0  0  0  0  0  0  0  0  0
   -3.7412   -1.2724    0.3976 H   0  0  0  0  0  0  0  0  0  0  0  0
    1.7212   -1.2934   -1.4288 H   0  0  0  0  0  0  0  0  0  0  0  0
    1.7052    0.4241   -1.7806 H   0  0  0  0  0  0  0  0  0  0  0  0
    4.0202   -0.3593   -1.2414 H   0  0  0  0  0  0  0  0  0  0  0  0
    3.4929    0.8026   -0.0308 H   0  0  0  0  0  0  0  0  0  0  0  0
    3.4912   -0.9219    0.3390 H   0  0  0  0  0  0  0  0  0  0  0  0
    0.7111    2.1178    0.1498 H   0  0  0  0  0  0  0  0  0  0  0  0
  7  8  1  0
  7  1  1  0
  2  1  2  0
  1  3  1  6
  3  4  1  0
  5  4  1  0
  4  6  1  0
  1  9  1  0
  4 10  1  1
  5 11  1  0
  5 12  1  0
  5 13  1  0
  6 14  1  0
  6 15  1  0
  6 16  1  0
  7 17  1  0
  7 18  1  0
  8 19  1  0
  8 20  1  0
  8 21  1  0
  9 22  1  0
M  END
