
     RDKit          3D

 15 15  0  0  0  0  0  0  0  0999 V2000
    0.7646    2.2922    0.0105 C   0  0  0  0  0  0  0  0  0  0  0  0
    1.4316    0.9504    0.0030 C   0  0  0  0  0  0  0  0  0  0  0  0
    0.7307   -0.2545   -0.0634 C   0  0  0  0  0  0  0  0  0  0  0  0
    1.3727   -1.4855   -0.0724 C   0  0  0  0  0  0  0  0  0  0  0  0
    2.7582   -1.5341   -0.0133 C   0  0  0  0  0  0  0  0  0  0  0  0
    3.4843   -0.3547    0.0539 C   0  0  0  0  0  0  0  0  0  0  0  0
    2.8235    0.8640    0.0619 C   0  0  0  0  0  0  0  0  0  0  0  0
   -1.3791   -0.2543   -0.1569 I   0  0  0  0  0  0  0  0  0  0  0  0
    0.1922    2.4596   -0.9034 H   0  0  0  0  0  0  0  0  0  0  0  0
    0.0725    2.3935    0.8478 H   0  0  0  0  0  0  0  0  0  0  0  0
    1.5032    3.0880    0.0903 H   0  0  0  0  0  0  0  0  0  0  0  0
    0.8059   -2.4052   -0.1260 H   0  0  0  0  0  0  0  0  0  0  0  0
    3.2601   -2.4925   -0.0206 H   0  0  0  0  0  0  0  0  0  0  0  0
    4.5649   -0.3809    0.0994 H   0  0  0  0  0  0  0  0  0  0  0  0
    3.3979    1.7808    0.1157 H   0  0  0  0  0  0  0  0  0  0  0  0
  1  2  1  0
  1  9  1  0
  1 10  1  0
  1 11  1  0
  2  3  2  0
  2  7  1  0
  3  4  1  0
  3  8  1  0
  4  5  2  0
  4 12  1  0
  5  6  1  0
  5 13  1  0
  6  7  2  0
  6 14  1  0
  7 15  1  0
M  END
