
     RDKit          3D

 35 37  0  0  0  0  0  0  0  0999 V2000
    2.5098    2.8404    0.7910 O   0  0  0  0  0  0  0  0  0  0  0  0
   -3.2179    3.2388   -0.9513 O   0  0  0  0  0  0  0  0  0  0  0  0
    3.2924    0.6831    0.1631 C   0  0  0  0  0  0  0  0  0  0  0  0
    4.3824   -0.1080   -0.1973 C   0  0  0  0  0  0  0  0  0  0  0  0
    4.1829   -1.4459   -0.4971 C   0  0  0  0  0  0  0  0  0  0  0  0
    2.9130   -1.9989   -0.4349 C   0  0  0  0  0  0  0  0  0  0  0  0
    1.8138   -1.2214   -0.0692 C   0  0  0  0  0  0  0  0  0  0  0  0
    0.4472   -1.7877    0.0055 C   0  0  0  0  0  0  0  0  0  0  0  0
   -0.5534   -0.9147   -0.0221 N   0  0  0  0  0  0  0  0  0  0  0  0
    3.4346    2.1252    0.4883 C   0  0  0  0  0  0  0  0  0  0  0  0
    4.6865    2.5518    0.4090 O   0  0  0  0  0  0  0  0  0  0  0  0
   -1.8138   -1.3285    0.0432 C   0  0  0  0  0  0  0  0  0  0  0  0
   -2.8596   -0.2799    0.0071 C   0  0  0  0  0  0  0  0  0  0  0  0
   -4.1627   -0.5366    0.4309 C   0  0  0  0  0  0  0  0  0  0  0  0
   -5.1163    0.4705    0.3809 C   0  0  0  0  0  0  0  0  0  0  0  0
   -4.7978    1.7346   -0.0860 C   0  0  0  0  0  0  0  0  0  0  0  0
   -3.4949    1.9974   -0.5052 C   0  0  0  0  0  0  0  0  0  0  0  0
   -2.5333    0.9956   -0.4532 C   0  0  0  0  0  0  0  0  0  0  0  0
    2.0207    0.1243    0.2209 C   0  0  0  0  0  0  0  0  0  0  0  0
    0.2167   -3.1580    0.1161 C   0  0  0  0  0  0  0  0  0  0  0  0
   -1.0935   -3.6018    0.1682 C   0  0  0  0  0  0  0  0  0  0  0  0
   -2.1289   -2.6850    0.1249 C   0  0  0  0  0  0  0  0  0  0  0  0
   -2.2944    3.2995   -1.2197 H   0  0  0  0  0  0  0  0  0  0  0  0
    5.3801    0.3048   -0.2500 H   0  0  0  0  0  0  0  0  0  0  0  0
    5.0226   -2.0627   -0.7872 H   0  0  0  0  0  0  0  0  0  0  0  0
    2.7890   -3.0426   -0.6909 H   0  0  0  0  0  0  0  0  0  0  0  0
    4.7291    3.4964    0.6197 H   0  0  0  0  0  0  0  0  0  0  0  0
   -4.4432   -1.5074    0.8160 H   0  0  0  0  0  0  0  0  0  0  0  0
   -6.1251    0.2671    0.7156 H   0  0  0  0  0  0  0  0  0  0  0  0
   -5.5469    2.5152   -0.1254 H   0  0  0  0  0  0  0  0  0  0  0  0
   -1.5184    1.2005   -0.7736 H   0  0  0  0  0  0  0  0  0  0  0  0
    1.1745    0.7378    0.4981 H   0  0  0  0  0  0  0  0  0  0  0  0
    1.0297   -3.8675    0.1717 H   0  0  0  0  0  0  0  0  0  0  0  0
   -1.3057   -4.6600    0.2428 H   0  0  0  0  0  0  0  0  0  0  0  0
   -3.1545   -3.0249    0.1456 H   0  0  0  0  0  0  0  0  0  0  0  0
  2 17  1  0
  5  6  2  0
  5  4  1  0
  6  7  1  0
 17 18  2  0
 17 16  1  0
 18 13  1  0
  4  3  2  0
 16 15  2  0
 13 12  1  0
 13 14  2  0
  9 12  2  0
  9  8  1  0
 12 22  1  0
  7  8  1  0
  7 19  2  0
  8 20  2  0
 22 21  2  0
 21 20  1  0
 15 14  1  0
  3 19  1  0
  3 10  1  0
  1 10  2  0
 10 11  1  0
  2 23  1  0
  4 24  1  0
  5 25  1  0
  6 26  1  0
 11 27  1  0
 14 28  1  0
 15 29  1  0
 16 30  1  0
 18 31  1  0
 19 32  1  0
 20 33  1  0
 21 34  1  0
 22 35  1  0
M  END
