
     RDKit          3D

 48 52  0  0  0  0  0  0  0  0999 V2000
   -3.0686   -0.3581    0.8293 C   0  0  0  0  0  0  0  0  0  0  0  0
   -3.6517    0.5397   -0.2329 C   0  0  0  0  0  0  0  0  0  0  0  0
   -4.9264    1.0754   -0.0637 C   0  0  0  0  0  0  0  0  0  0  0  0
   -5.5092    1.9063   -1.0066 C   0  0  0  0  0  0  0  0  0  0  0  0
   -4.8068    2.2218   -2.1599 C   0  0  0  0  0  0  0  0  0  0  0  0
   -3.5358    1.7040   -2.3536 C   0  0  0  0  0  0  0  0  0  0  0  0
   -2.9696    0.8726   -1.3978 C   0  0  0  0  0  0  0  0  0  0  0  0
    0.9006   -1.7061    0.0320 C   0  0  0  0  0  0  0  0  0  0  0  0
    2.1930   -2.1981   -0.1062 C   0  0  0  0  0  0  0  0  0  0  0  0
    2.3874   -3.4285   -0.7071 C   0  0  0  0  0  0  0  0  0  0  0  0
    1.3116   -4.1798   -1.1688 C   0  0  0  0  0  0  0  0  0  0  0  0
    2.8308    0.6961    1.0406 C   0  0  0  0  0  0  0  0  0  0  0  0
    3.4427    0.8710   -0.1943 C   0  0  0  0  0  0  0  0  0  0  0  0
    4.8348    1.0420   -0.2621 C   0  0  0  0  0  0  0  0  0  0  0  0
    6.7150    1.3612   -1.6773 C   0  0  0  0  0  0  0  0  0  0  0  0
    5.5824    1.0521    0.9041 C   0  0  0  0  0  0  0  0  0  0  0  0
    4.9576    0.8937    2.1396 C   0  0  0  0  0  0  0  0  0  0  0  0
    3.5905    0.7188    2.2114 C   0  0  0  0  0  0  0  0  0  0  0  0
    0.6081   -0.4719    0.6180 N   0  0  0  0  0  0  0  0  0  0  0  0
   -0.6672   -0.0868    0.8813 C   0  0  0  0  0  0  0  0  0  0  0  0
   -1.7403   -0.8477    0.5103 N   0  0  0  0  0  0  0  0  0  0  0  0
   -5.8255    0.6986    1.3742 Cl  0  0  0  0  0  0  0  0  0  0  0  0
   -1.5842   -2.0225   -0.1917 C   0  0  0  0  0  0  0  0  0  0  0  0
   -0.1926   -2.4649   -0.3967 C   0  0  0  0  0  0  0  0  0  0  0  0
    0.0285   -3.6998   -1.0054 C   0  0  0  0  0  0  0  0  0  0  0  0
   -2.5463   -2.6487   -0.5847 O   0  0  0  0  0  0  0  0  0  0  0  0
   -0.7022    1.0596    1.4859 N   0  0  0  0  0  0  0  0  0  0  0  0
    0.5886    1.4615    1.6244 N   0  0  0  0  0  0  0  0  0  0  0  0
    1.3725    0.5685    1.1071 C   0  0  0  0  0  0  0  0  0  0  0  0
    5.3197    1.1926   -1.5106 O   0  0  0  0  0  0  0  0  0  0  0  0
    2.6753    0.8568   -1.2962 O   0  0  0  0  0  0  0  0  0  0  0  0
   -3.0078    0.1740    1.7787 H   0  0  0  0  0  0  0  0  0  0  0  0
   -3.7140   -1.2196    0.9945 H   0  0  0  0  0  0  0  0  0  0  0  0
   -6.5014    2.3030   -0.8401 H   0  0  0  0  0  0  0  0  0  0  0  0
   -5.2570    2.8699   -2.8995 H   0  0  0  0  0  0  0  0  0  0  0  0
   -2.9793    1.9453   -3.2492 H   0  0  0  0  0  0  0  0  0  0  0  0
   -1.9765    0.4831   -1.5770 H   0  0  0  0  0  0  0  0  0  0  0  0
    3.0459   -1.6503    0.2612 H   0  0  0  0  0  0  0  0  0  0  0  0
    3.3956   -3.8054   -0.8122 H   0  0  0  0  0  0  0  0  0  0  0  0
    1.4789   -5.1375   -1.6414 H   0  0  0  0  0  0  0  0  0  0  0  0
    6.8884    1.4635   -2.7451 H   0  0  0  0  0  0  0  0  0  0  0  0
    7.0746    2.2600   -1.1710 H   0  0  0  0  0  0  0  0  0  0  0  0
    7.2722    0.4970   -1.3077 H   0  0  0  0  0  0  0  0  0  0  0  0
    6.6555    1.1837    0.8693 H   0  0  0  0  0  0  0  0  0  0  0  0
    5.5543    0.9074    3.0410 H   0  0  0  0  0  0  0  0  0  0  0  0
    3.0990    0.5866    3.1659 H   0  0  0  0  0  0  0  0  0  0  0  0
   -0.8193   -4.2813   -1.3402 H   0  0  0  0  0  0  0  0  0  0  0  0
    3.2200    0.9412   -2.0892 H   0  0  0  0  0  0  0  0  0  0  0  0
 15 30  1  0
 30 14  1  0
 31 13  1  0
 14 13  2  0
 14 16  1  0
 13 12  1  0
 16 17  2  0
 12 29  1  0
 12 18  2  0
 17 18  1  0
 28 29  2  0
 28 27  1  0
 29 19  1  0
 19  8  1  0
 19 20  1  0
 27 20  2  0
  9  8  2  0
  9 10  1  0
  8 24  1  0
 20 21  1  0
 10 11  2  0
 24 23  1  0
 24 25  2  0
 21  1  1  0
 21 23  1  0
 11 25  1  0
  1  2  1  0
 23 26  2  0
 22  3  1  0
  2  3  2  0
  2  7  1  0
  3  4  1  0
  7  6  2  0
  4  5  2  0
  6  5  1  0
  1 32  1  0
  1 33  1  0
  4 34  1  0
  5 35  1  0
  6 36  1  0
  7 37  1  0
  9 38  1  0
 10 39  1  0
 11 40  1  0
 15 41  1  0
 15 42  1  0
 15 43  1  0
 16 44  1  0
 17 45  1  0
 18 46  1  0
 25 47  1  0
 31 48  1  0
M  END
