
     RDKit          3D

 58 62  0  0  0  0  0  0  0  0999 V2000
   -5.8498    0.4648    0.8978 C   0  0  0  0  0  0  0  0  0  0  0  0
   -7.0249   -0.1491    1.0294 N   0  0  0  0  0  0  0  0  0  0  0  0
   -7.9677    0.6841    1.4337 C   0  0  0  0  0  0  0  0  0  0  0  0
   -7.8645    1.9834    1.7003 N   0  0  0  0  0  0  0  0  0  0  0  0
   -6.6771    2.5849    1.5678 C   0  0  0  0  0  0  0  0  0  0  0  0
   -5.5855    1.8025    1.1465 C   0  0  0  0  0  0  0  0  0  0  0  0
   -4.2635    2.0847    0.9306 N   0  0  0  0  0  0  0  0  0  0  0  0
   -3.7438    0.9498    0.5615 C   0  0  0  0  0  0  0  0  0  0  0  0
   -4.6572   -0.0701    0.5051 N   0  0  0  0  0  0  0  0  0  0  0  0
   -6.5676    3.8843    1.8491 N   0  0  0  0  0  0  0  0  0  0  0  0
   -4.4177   -1.4819    0.2109 C   0  0  2  0  0  0  0  0  0  0  0  0
   -3.0649   -1.6648   -0.0704 O   0  0  0  0  0  0  0  0  0  0  0  0
   -2.8464   -1.8532   -1.4634 C   0  0  1  0  0  0  0  0  0  0  0  0
   -4.1888   -1.5659   -2.1358 C   0  0  2  0  0  0  0  0  0  0  0  0
   -5.1814   -1.9390   -1.0289 C   0  0  1  0  0  0  0  0  0  0  0  0
   -4.3184   -2.3275   -3.3007 O   0  0  0  0  0  0  0  0  0  0  0  0
   -5.3298   -3.3282   -0.9318 O   0  0  0  0  0  0  0  0  0  0  0  0
   -1.7423   -0.9345   -1.9569 C   0  0  0  0  0  0  0  0  0  0  0  0
   -0.5394   -1.0625   -1.1666 N   0  0  0  0  0  0  0  0  0  0  0  0
    0.3989   -2.0227   -1.2069 C   0  0  0  0  0  0  0  0  0  0  0  0
    1.2486   -1.7036   -0.1800 C   0  0  0  0  0  0  0  0  0  0  0  0
    0.7779   -0.5843    0.4129 N   0  0  0  0  0  0  0  0  0  0  0  0
   -0.2971   -0.2100   -0.1853 N   0  0  0  0  0  0  0  0  0  0  0  0
    2.4945   -2.3947    0.2604 C   0  0  0  0  0  0  0  0  0  0  0  0
    3.6836   -1.5998    0.0262 N   0  0  0  0  0  0  0  0  0  0  0  0
    4.2486   -0.8327    0.9561 C   0  0  0  0  0  0  0  0  0  0  0  0
    5.4527   -0.0386    0.5906 C   0  0  0  0  0  0  0  0  0  0  0  0
    3.8113   -0.7841    2.1150 O   0  0  0  0  0  0  0  0  0  0  0  0
    6.0963    0.6725    1.6186 C   0  0  0  0  0  0  0  0  0  0  0  0
    7.2597    1.4234    1.3266 C   0  0  0  0  0  0  0  0  0  0  0  0
    7.7473    1.4683    0.0444 C   0  0  0  0  0  0  0  0  0  0  0  0
    7.0833    0.7665   -0.9646 C   0  0  0  0  0  0  0  0  0  0  0  0
    5.9546    0.0227   -0.7076 C   0  0  0  0  0  0  0  0  0  0  0  0
    5.6795    0.6798    2.8680 O   0  0  0  0  0  0  0  0  0  0  0  0
    7.8179    2.0591    2.3666 O   0  0  0  0  0  0  0  0  0  0  0  0
    7.5998    0.8241   -2.3129 N   0  0  0  0  0  0  0  0  0  0  0  0
    8.6051    1.4688   -2.5093 O   0  0  0  0  0  0  0  0  0  0  0  0
    7.0064    0.2260   -3.1821 O   0  0  0  0  0  0  0  0  0  0  0  0
   -8.9569    0.2590    1.5663 H   0  0  0  0  0  0  0  0  0  0  0  0
   -2.6982    0.7993    0.3374 H   0  0  0  0  0  0  0  0  0  0  0  0
   -7.3853    4.4205    2.0837 H   0  0  0  0  0  0  0  0  0  0  0  0
   -5.7079    4.3780    1.6854 H   0  0  0  0  0  0  0  0  0  0  0  0
   -4.6963   -2.0589    1.0964 H   0  0  0  0  0  0  0  0  0  0  0  0
   -2.5546   -2.8956   -1.6358 H   0  0  0  0  0  0  0  0  0  0  0  0
   -4.2798   -0.4924   -2.3458 H   0  0  0  0  0  0  0  0  0  0  0  0
   -6.1452   -1.4295   -1.1397 H   0  0  0  0  0  0  0  0  0  0  0  0
   -4.9797   -1.9186   -3.8681 H   0  0  0  0  0  0  0  0  0  0  0  0
   -5.4010   -3.6813   -1.8270 H   0  0  0  0  0  0  0  0  0  0  0  0
   -1.5129   -1.1750   -2.9949 H   0  0  0  0  0  0  0  0  0  0  0  0
   -2.0443    0.1116   -1.9169 H   0  0  0  0  0  0  0  0  0  0  0  0
    0.4009   -2.8201   -1.9309 H   0  0  0  0  0  0  0  0  0  0  0  0
    2.4411   -2.6423    1.3191 H   0  0  0  0  0  0  0  0  0  0  0  0
    2.6051   -3.3314   -0.2838 H   0  0  0  0  0  0  0  0  0  0  0  0
    4.0505   -1.6147   -0.9099 H   0  0  0  0  0  0  0  0  0  0  0  0
    8.6361    2.0452   -0.1751 H   0  0  0  0  0  0  0  0  0  0  0  0
    5.4735   -0.4968   -1.5226 H   0  0  0  0  0  0  0  0  0  0  0  0
    4.8513    0.1208    2.8865 H   0  0  0  0  0  0  0  0  0  0  0  0
    8.6140    2.5280    2.0910 H   0  0  0  0  0  0  0  0  0  0  0  0
  1  2  2  0
  1  6  1  0
  1  9  1  0
  2  3  1  0
  3  4  2  0
  4  5  1  0
  5  6  2  0
  5 10  1  0
  6  7  1  0
  7  8  2  0
  8  9  1  0
  9 11  1  0
 11 12  1  0
 11 15  1  0
 12 13  1  0
 13 14  1  0
 13 18  1  0
 14 15  1  0
 14 16  1  0
 15 17  1  0
 18 19  1  0
 19 20  1  0
 19 23  1  0
 20 21  2  0
 21 22  1  0
 21 24  1  0
 22 23  2  0
 24 25  1  0
 25 26  1  0
 26 27  1  0
 26 28  2  0
 27 29  2  0
 27 33  1  0
 29 30  1  0
 29 34  1  0
 30 31  2  0
 30 35  1  0
 31 32  1  0
 32 33  2  0
 32 36  1  0
 36 37  1  0
 36 38  2  0
  3 39  1  0
  8 40  1  0
 10 41  1  0
 10 42  1  0
 11 43  1  1
 13 44  1  1
 14 45  1  6
 15 46  1  6
 16 47  1  0
 17 48  1  0
 18 49  1  0
 18 50  1  0
 20 51  1  0
 24 52  1  0
 24 53  1  0
 25 54  1  0
 31 55  1  0
 33 56  1  0
 34 57  1  0
 35 58  1  0
M  CHG  2  36   1  37  -1
M  END
