
     RDKit          3D

 19 18  0  0  0  0  0  0  0  0999 V2000
    3.9371   -0.5876    0.0146 C   0  0  0  0  0  0  0  0  0  0  0  0
    2.7440    0.3592    0.0146 C   0  0  0  0  0  0  0  0  0  0  0  0
    1.4282   -0.4053    0.0108 C   0  0  0  0  0  0  0  0  0  0  0  0
    0.0313    0.7543    0.0131 S   0  0  0  0  0  0  0  0  0  0  0  0
   -1.3479   -0.4243    0.0147 C   0  0  0  0  0  0  0  0  0  0  0  0
   -2.6585    0.3415    0.0151 C   0  0  0  0  0  0  0  0  0  0  0  0
   -3.7069   -0.6005    0.0162 O   0  0  0  0  0  0  0  0  0  0  0  0
    3.9279   -1.2327    0.8944 H   0  0  0  0  0  0  0  0  0  0  0  0
    3.9318   -1.2279   -0.8687 H   0  0  0  0  0  0  0  0  0  0  0  0
    4.8766   -0.0348    0.0181 H   0  0  0  0  0  0  0  0  0  0  0  0
    2.7868    1.0086    0.8926 H   0  0  0  0  0  0  0  0  0  0  0  0
    2.7899    1.0126   -0.8601 H   0  0  0  0  0  0  0  0  0  0  0  0
    1.3609   -1.0431   -0.8738 H   0  0  0  0  0  0  0  0  0  0  0  0
    1.3588   -1.0481    0.8916 H   0  0  0  0  0  0  0  0  0  0  0  0
   -1.2807   -1.0600   -0.8709 H   0  0  0  0  0  0  0  0  0  0  0  0
   -1.2795   -1.0595    0.9005 H   0  0  0  0  0  0  0  0  0  0  0  0
   -2.6981    0.9927    0.8972 H   0  0  0  0  0  0  0  0  0  0  0  0
   -2.6990    0.9916   -0.8678 H   0  0  0  0  0  0  0  0  0  0  0  0
   -4.5398   -0.1202    0.0193 H   0  0  0  0  0  0  0  0  0  0  0  0
  1  2  1  0
  2  3  1  0
  3  4  1  0
  4  5  1  0
  5  6  1  0
  6  7  1  0
  1  8  1  0
  1  9  1  0
  1 10  1  0
  2 11  1  0
  2 12  1  0
  3 13  1  0
  3 14  1  0
  5 15  1  0
  5 16  1  0
  6 17  1  0
  6 18  1  0
  7 19  1  0
M  END
