
     RDKit          3D

 51 52  0  0  0  0  0  0  0  0999 V2000
  -18.7289   -0.0519   68.2417 O   0  0  0  0  0  0  0  0  0  0  0  0
  -18.5365   -0.6180   69.3067 C   0  0  0  0  0  0  0  0  0  0  0  0
  -19.6643   -1.1159   70.1807 C   0  0  2  0  0  0  0  0  0  0  0  0
  -20.1082    0.0164   71.1351 C   0  0  0  0  0  0  0  0  0  0  0  0
  -20.8578   -0.5349   72.3550 C   0  0  0  0  0  0  0  0  0  0  0  0
  -21.6322   -1.8028   72.0116 C   0  0  2  0  0  0  0  0  0  0  0  0
  -22.5463   -2.2438   73.1460 C   0  0  0  0  0  0  0  0  0  0  0  0
  -20.6471   -2.9186   71.6231 C   0  0  0  0  0  0  0  0  0  0  0  0
  -19.3620   -2.3812   70.9803 C   0  0  0  0  0  0  0  0  0  0  0  0
  -17.2798   -0.7963   69.7792 N   0  0  0  0  0  0  0  0  0  0  0  0
  -16.1340   -0.2569   69.0893 C   0  0  1  0  0  0  0  0  0  0  0  0
  -14.8859   -0.3647   69.9728 C   0  0  0  0  0  0  0  0  0  0  0  0
  -14.9343    0.5962   71.1527 C   0  0  0  0  0  0  0  0  0  0  0  0
  -13.4858    0.4706   72.2332 S   0  0  0  0  0  0  0  0  0  0  0  0
  -13.8377   -1.0885   73.0778 C   0  0  0  0  0  0  0  0  0  0  0  0
  -15.8614   -0.9466   67.7523 C   0  0  0  0  0  0  0  0  0  0  0  0
  -15.3347   -0.3447   66.8395 O   0  0  0  0  0  0  0  0  0  0  0  0
  -16.1842   -2.2662   67.7232 N   0  0  0  0  0  0  0  0  0  0  0  0
  -15.9910   -3.1919   66.7090 C   0  0  0  0  0  0  0  0  0  0  0  0
  -15.4292   -2.9117   65.4634 C   0  0  0  0  0  0  0  0  0  0  0  0
  -15.2990   -3.9524   64.5566 C   0  0  0  0  0  0  0  0  0  0  0  0
  -15.6726   -5.2057   64.7808 N   0  0  0  0  0  0  0  0  0  0  0  0
  -16.2097   -5.4605   65.9703 C   0  0  0  0  0  0  0  0  0  0  0  0
  -16.3888   -4.5082   66.9538 C   0  0  0  0  0  0  0  0  0  0  0  0
  -20.4882   -1.3343   69.4952 H   0  0  0  0  0  0  0  0  0  0  0  0
  -17.1383   -1.2588   70.6634 H   0  0  0  0  0  0  0  0  0  0  0  0
  -19.2372    0.5844   71.4729 H   0  0  0  0  0  0  0  0  0  0  0  0
  -20.7409    0.7148   70.5844 H   0  0  0  0  0  0  0  0  0  0  0  0
  -18.9109   -3.1501   70.3487 H   0  0  0  0  0  0  0  0  0  0  0  0
  -18.6334   -2.1598   71.7679 H   0  0  0  0  0  0  0  0  0  0  0  0
  -20.1488   -0.7598   73.1590 H   0  0  0  0  0  0  0  0  0  0  0  0
  -21.5289    0.2321   72.7489 H   0  0  0  0  0  0  0  0  0  0  0  0
  -22.2648   -1.5839   71.1425 H   0  0  0  0  0  0  0  0  0  0  0  0
  -21.9803   -2.3898   74.0690 H   0  0  0  0  0  0  0  0  0  0  0  0
  -23.3218   -1.5019   73.3440 H   0  0  0  0  0  0  0  0  0  0  0  0
  -23.0419   -3.1876   72.9111 H   0  0  0  0  0  0  0  0  0  0  0  0
  -20.3790   -3.4939   72.5137 H   0  0  0  0  0  0  0  0  0  0  0  0
  -21.1415   -3.6159   70.9425 H   0  0  0  0  0  0  0  0  0  0  0  0
  -16.3069    0.7961   68.8496 H   0  0  0  0  0  0  0  0  0  0  0  0
  -14.7690   -1.3980   70.3120 H   0  0  0  0  0  0  0  0  0  0  0  0
  -14.0074   -0.1332   69.3693 H   0  0  0  0  0  0  0  0  0  0  0  0
  -14.9485    1.6255   70.7895 H   0  0  0  0  0  0  0  0  0  0  0  0
  -15.8302    0.4627   71.7630 H   0  0  0  0  0  0  0  0  0  0  0  0
  -13.8205   -1.9369   72.3958 H   0  0  0  0  0  0  0  0  0  0  0  0
  -13.0612   -1.2348   73.8264 H   0  0  0  0  0  0  0  0  0  0  0  0
  -14.8029   -1.0477   73.5810 H   0  0  0  0  0  0  0  0  0  0  0  0
  -16.6134   -2.6311   68.5617 H   0  0  0  0  0  0  0  0  0  0  0  0
  -15.0990   -1.9252   65.1868 H   0  0  0  0  0  0  0  0  0  0  0  0
  -16.8320   -4.7910   67.9006 H   0  0  0  0  0  0  0  0  0  0  0  0
  -14.8601   -3.7449   63.5866 H   0  0  0  0  0  0  0  0  0  0  0  0
  -16.5173   -6.4831   66.1583 H   0  0  0  0  0  0  0  0  0  0  0  0
  1  2  2  0
  2  3  1  0
  2 10  1  0
  3  4  1  0
  3  9  1  0
  4  5  1  0
  5  6  1  0
  6  7  1  0
  6  8  1  0
  8  9  1  0
 10 11  1  0
 11 12  1  0
 11 16  1  0
 12 13  1  0
 13 14  1  0
 14 15  1  0
 16 17  2  0
 16 18  1  0
 18 19  1  0
 19 20  2  0
 19 24  1  0
 20 21  1  0
 21 22  2  0
 22 23  1  0
 23 24  2  0
  3 25  1  6
 10 26  1  0
  4 27  1  0
  4 28  1  0
  9 29  1  0
  9 30  1  0
  5 31  1  0
  5 32  1  0
  6 33  1  6
  7 34  1  0
  7 35  1  0
  7 36  1  0
  8 37  1  0
  8 38  1  0
 11 39  1  6
 12 40  1  0
 12 41  1  0
 13 42  1  0
 13 43  1  0
 15 44  1  0
 15 45  1  0
 15 46  1  0
 18 47  1  0
 20 48  1  0
 24 49  1  0
 21 50  1  0
 23 51  1  0
M  END
