
     RDKit          3D

 31 32  0  0  0  0  0  0  0  0999 V2000
   -3.6244   -0.7848    0.1802 C   0  0  0  0  0  0  0  0  0  0  0  0
   -4.8314   -1.3928    0.2625 N   0  0  0  0  0  0  0  0  0  0  0  0
    0.3848    2.0032   -1.4921 O   0  0  0  0  0  0  0  0  0  0  0  0
    0.3432    1.3872   -0.1742 S   0  0  1  0  0  0  0  0  0  0  0  0
   -3.0776   -0.1116    1.2877 C   0  0  0  0  0  0  0  0  0  0  0  0
    1.5470    0.1739   -0.2512 N   0  0  0  0  0  0  0  0  0  0  0  0
    0.5812    2.2186    0.9896 O   0  0  0  0  0  0  0  0  0  0  0  0
   -1.8648    0.5346    1.1938 C   0  0  0  0  0  0  0  0  0  0  0  0
   -1.1725    0.5372   -0.0127 C   0  0  0  0  0  0  0  0  0  0  0  0
   -1.6994   -0.1172   -1.1249 C   0  0  0  0  0  0  0  0  0  0  0  0
   -2.9039   -0.7767   -1.0289 C   0  0  0  0  0  0  0  0  0  0  0  0
    2.3229    0.0595   -1.5006 C   0  0  0  0  0  0  0  0  0  0  0  0
    3.5507   -0.8074   -1.3093 C   0  0  0  0  0  0  0  0  0  0  0  0
    3.1726   -2.1109   -0.6345 C   0  0  0  0  0  0  0  0  0  0  0  0
    2.6526   -1.7962    0.7562 C   0  0  0  0  0  0  0  0  0  0  0  0
    1.6370   -0.6831    0.8213 C   0  0  0  0  0  0  0  0  0  0  0  0
   -5.2290   -1.5686    1.1694 H   0  0  0  0  0  0  0  0  0  0  0  0
   -5.0957   -2.0491   -0.4520 H   0  0  0  0  0  0  0  0  0  0  0  0
   -3.6138   -0.1074    2.2285 H   0  0  0  0  0  0  0  0  0  0  0  0
   -1.4635    1.0375    2.0620 H   0  0  0  0  0  0  0  0  0  0  0  0
   -1.1767   -0.1164   -2.0729 H   0  0  0  0  0  0  0  0  0  0  0  0
   -3.3058   -1.2857   -1.8958 H   0  0  0  0  0  0  0  0  0  0  0  0
    1.6902   -0.3716   -2.2792 H   0  0  0  0  0  0  0  0  0  0  0  0
    2.6226    1.0536   -1.8216 H   0  0  0  0  0  0  0  0  0  0  0  0
    3.9893   -0.9749   -2.2939 H   0  0  0  0  0  0  0  0  0  0  0  0
    4.2964   -0.2789   -0.7094 H   0  0  0  0  0  0  0  0  0  0  0  0
    2.4089   -2.6281   -1.2219 H   0  0  0  0  0  0  0  0  0  0  0  0
    4.0281   -2.7827   -0.5640 H   0  0  0  0  0  0  0  0  0  0  0  0
    2.2033   -2.6665    1.2361 H   0  0  0  0  0  0  0  0  0  0  0  0
    3.4829   -1.4852    1.3991 H   0  0  0  0  0  0  0  0  0  0  0  0
    0.9295   -0.5284    1.7965 O   0  0  0  0  0  0  0  0  0  0  0  0
  1  2  1  0
  1  5  2  0
  1 11  1  0
  3  4  2  0
  4  6  1  0
  4  7  2  0
  4  9  1  1
  5  8  1  0
  6 12  1  0
  6 16  1  0
  8  9  2  0
 31 16  2  0
  9 10  1  0
 10 11  2  0
 12 13  1  0
 13 14  1  0
 14 15  1  0
 15 16  1  0
  2 17  1  0
  2 18  1  0
  5 19  1  0
  8 20  1  0
 10 21  1  0
 11 22  1  0
 12 23  1  0
 12 24  1  0
 13 25  1  0
 13 26  1  0
 14 27  1  0
 14 28  1  0
 15 29  1  0
 15 30  1  0
M  END
