
     RDKit          3D

 49 51  0  0  0  0  0  0  0  0999 V2000
   -2.8991   -0.7794    0.0155 C   0  0  0  0  0  0  0  0  0  0  0  0
   -1.4410   -0.6992    0.3806 C   0  0  0  0  0  0  0  0  0  0  0  0
   -0.6906    0.3386   -0.4530 C   0  0  1  0  0  0  0  0  0  0  0  0
   -1.2207    1.7669   -0.2740 C   0  0  0  0  0  0  0  0  0  0  0  0
    0.9424    1.9527    0.2703 C   0  0  0  0  0  0  0  0  0  0  0  0
    1.7066    0.0600   -1.2664 C   0  0  0  0  0  0  0  0  0  0  0  0
    5.3356    1.2003   -1.2036 C   0  0  0  0  0  0  0  0  0  0  0  0
    5.0948   -0.6847    0.2687 C   0  0  0  0  0  0  0  0  0  0  0  0
    3.7511   -0.7604   -0.0553 C   0  0  0  0  0  0  0  0  0  0  0  0
   -5.6044   -0.8415   -0.7312 C   0  0  0  0  0  0  0  0  0  0  0  0
    3.1749    0.1432   -0.9546 C   0  0  0  0  0  0  0  0  0  0  0  0
    3.9815    1.1177   -1.5203 C   0  0  0  0  0  0  0  0  0  0  0  0
    5.9023    0.3089   -0.3130 C   0  0  0  0  0  0  0  0  0  0  0  0
    5.0007   -2.5032    1.7979 C   0  0  0  0  0  0  0  0  0  0  0  0
   -3.3086   -1.4561   -1.1248 C   0  0  0  0  0  0  0  0  0  0  0  0
   -4.6486   -1.4886   -1.4947 C   0  0  0  0  0  0  0  0  0  0  0  0
   -5.2044   -0.1571    0.4268 C   0  0  0  0  0  0  0  0  0  0  0  0
   -3.8662   -0.1355    0.7902 C   0  0  0  0  0  0  0  0  0  0  0  0
    0.8084    0.4697   -0.0934 C   0  0  2  0  0  0  0  0  0  0  0  0
   -6.2091    0.4409    1.1058 O   0  0  0  0  0  0  0  0  0  0  0  0
   -0.0987    2.6091   -0.4241 O   0  0  0  0  0  0  0  0  0  0  0  0
    7.2171    0.4046   -0.0186 O   0  0  0  0  0  0  0  0  0  0  0  0
   -6.8995   -0.8839   -1.1136 O   0  0  0  0  0  0  0  0  0  0  0  0
   -1.3297   -0.4569    1.4419 H   0  0  0  0  0  0  0  0  0  0  0  0
   -0.9716   -1.6756    0.2346 H   0  0  0  0  0  0  0  0  0  0  0  0
   -0.7793    0.0575   -1.5080 H   0  0  0  0  0  0  0  0  0  0  0  0
   -1.9785    2.0477   -1.0065 H   0  0  0  0  0  0  0  0  0  0  0  0
   -1.6575    1.8906    0.7292 H   0  0  0  0  0  0  0  0  0  0  0  0
    0.8275    2.0893    1.3545 H   0  0  0  0  0  0  0  0  0  0  0  0
    1.8973    2.3926   -0.0240 H   0  0  0  0  0  0  0  0  0  0  0  0
    1.4787    0.6956   -2.1272 H   0  0  0  0  0  0  0  0  0  0  0  0
    1.4458   -0.9613   -1.5617 H   0  0  0  0  0  0  0  0  0  0  0  0
    5.9570    1.9652   -1.6528 H   0  0  0  0  0  0  0  0  0  0  0  0
    3.1270   -1.5276    0.3870 H   0  0  0  0  0  0  0  0  0  0  0  0
   -5.2071    2.0205    2.0196 H   0  0  0  0  0  0  0  0  0  0  0  0
   -6.8284    1.6195    2.6169 H   0  0  0  0  0  0  0  0  0  0  0  0
   -5.4524    0.5858    3.0413 H   0  0  0  0  0  0  0  0  0  0  0  0
    3.5578    1.8283   -2.2197 H   0  0  0  0  0  0  0  0  0  0  0  0
    4.2023   -2.0706    2.4063 H   0  0  0  0  0  0  0  0  0  0  0  0
    4.5639   -3.2239    1.1019 H   0  0  0  0  0  0  0  0  0  0  0  0
    5.6983   -3.0229    2.4494 H   0  0  0  0  0  0  0  0  0  0  0  0
   -2.5802   -1.9718   -1.7393 H   0  0  0  0  0  0  0  0  0  0  0  0
   -4.9577   -2.0206   -2.3862 H   0  0  0  0  0  0  0  0  0  0  0  0
   -3.5561    0.3790    1.6914 H   0  0  0  0  0  0  0  0  0  0  0  0
    1.0511   -0.1522    0.7734 H   0  0  0  0  0  0  0  0  0  0  0  0
    7.4586   -0.2676    0.6300 H   0  0  0  0  0  0  0  0  0  0  0  0
   -7.4459   -0.3952   -0.4865 H   0  0  0  0  0  0  0  0  0  0  0  0
    5.7424   -1.5063    1.1245 O   0  0  0  0  0  0  0  0  0  0  0  0
   -5.8929    1.2021    2.2536 C   0  0  0  0  0  0  0  0  0  0  0  0
 14 48  1  0
 48  8  1  0
  8  9  2  0
  8 13  1  0
 22 13  1  0
  9 11  1  0
 13  7  2  0
 11  6  1  0
 11 12  2  0
  7 12  1  0
  6 19  1  0
  4 21  1  0
  4  3  1  0
 21  5  1  0
 19  3  1  0
 19  5  1  0
  3  2  1  0
 49 20  1  0
  2  1  1  0
 18  1  2  0
 18 17  1  0
 20 17  1  0
  1 15  1  0
 17 10  2  0
 15 16  2  0
 10 23  1  0
 10 16  1  0
  2 24  1  0
  2 25  1  0
  3 26  1  6
  4 27  1  0
  4 28  1  0
  5 29  1  0
  5 30  1  0
  6 31  1  0
  6 32  1  0
  7 33  1  0
  9 34  1  0
 49 35  1  0
 49 36  1  0
 49 37  1  0
 12 38  1  0
 14 39  1  0
 14 40  1  0
 14 41  1  0
 15 42  1  0
 16 43  1  0
 18 44  1  0
 19 45  1  1
 22 46  1  0
 23 47  1  0
M  END
