
     RDKit          3D

 30 31  0  0  0  0  0  0  0  0999 V2000
    2.0393   -1.1369    0.2113 N   0  0  0  0  0  0  0  0  0  0  0  0
    0.8134   -1.6062   -0.1095 C   0  0  0  0  0  0  0  0  0  0  0  0
    0.7008   -2.8672   -0.5158 N   0  0  0  0  0  0  0  0  0  0  0  0
   -0.2623   -0.7017    0.0156 C   0  0  0  0  0  0  0  0  0  0  0  0
   -1.6061   -1.0188   -0.2928 C   0  0  0  0  0  0  0  0  0  0  0  0
   -2.6606    0.0318   -0.1324 C   0  0  0  0  0  0  0  0  0  0  0  0
   -3.1766    2.1760    0.4724 C   0  0  0  0  0  0  0  0  0  0  0  0
   -2.2741    1.2208    0.3121 N   0  0  0  0  0  0  0  0  0  0  0  0
   -4.5233    1.9886    0.1945 C   0  0  0  0  0  0  0  0  0  0  0  0
   -4.9313    0.7479   -0.2720 C   0  0  0  0  0  0  0  0  0  0  0  0
   -3.9873   -0.2521   -0.4409 C   0  0  0  0  0  0  0  0  0  0  0  0
   -1.9520   -2.1413   -0.6936 O   0  0  0  0  0  0  0  0  0  0  0  0
    0.3791    0.8362    0.5947 S   0  0  0  0  0  0  0  0  0  0  0  0
    1.9675    0.1138    0.5975 C   0  0  0  0  0  0  0  0  0  0  0  0
    3.0290    0.8084    0.9943 N   0  0  0  0  0  0  0  0  0  0  0  0
    4.3790    0.2743    0.9688 C   0  0  0  0  0  0  0  0  0  0  0  0
    5.0242    0.4189   -0.3767 C   0  0  0  0  0  0  0  0  0  0  0  0
    6.1599    1.0719   -0.5855 C   0  0  0  0  0  0  0  0  0  0  0  0
    1.5252   -3.4299   -0.6335 H   0  0  0  0  0  0  0  0  0  0  0  0
   -0.2003   -3.2228   -0.7893 H   0  0  0  0  0  0  0  0  0  0  0  0
   -2.8151    3.1298    0.8382 H   0  0  0  0  0  0  0  0  0  0  0  0
   -5.2284    2.7947    0.3417 H   0  0  0  0  0  0  0  0  0  0  0  0
   -5.9720    0.5606   -0.5004 H   0  0  0  0  0  0  0  0  0  0  0  0
   -4.2708   -1.2299   -0.8023 H   0  0  0  0  0  0  0  0  0  0  0  0
    2.9251    1.7944    1.1727 H   0  0  0  0  0  0  0  0  0  0  0  0
    4.9551    0.8003    1.7296 H   0  0  0  0  0  0  0  0  0  0  0  0
    4.3347   -0.7758    1.2593 H   0  0  0  0  0  0  0  0  0  0  0  0
    4.5085   -0.0543   -1.2066 H   0  0  0  0  0  0  0  0  0  0  0  0
    6.5984    1.1446   -1.5720 H   0  0  0  0  0  0  0  0  0  0  0  0
    6.6973    1.5547    0.2227 H   0  0  0  0  0  0  0  0  0  0  0  0
  1  2  1  0
  1 14  2  0
  2  3  1  0
  2  4  2  0
  4  5  1  0
  4 13  1  0
  5  6  1  0
  5 12  2  0
  6  8  1  0
  6 11  2  0
  7  8  2  0
  7  9  1  0
  9 10  2  0
 10 11  1  0
 13 14  1  0
 14 15  1  0
 15 16  1  0
 16 17  1  0
 17 18  2  0
  3 19  1  0
  3 20  1  0
  7 21  1  0
  9 22  1  0
 10 23  1  0
 11 24  1  0
 15 25  1  0
 16 26  1  0
 16 27  1  0
 17 28  1  0
 18 29  1  0
 18 30  1  0
M  END
