
     RDKit          3D

 44 46  0  0  0  0  0  0  0  0999 V2000
   -3.4406   -3.7789    0.3775 O   0  0  0  0  0  0  0  0  0  0  0  0
   -3.8573   -2.6679   -0.2217 C   0  0  0  0  0  0  0  0  0  0  0  0
   -4.7526   -2.6521   -1.0293 O   0  0  0  0  0  0  0  0  0  0  0  0
   -3.0795   -1.4642    0.2329 C   0  0  0  0  0  0  0  0  0  0  0  0
   -3.5283   -0.1642   -0.4280 C   0  0  0  0  0  0  0  0  0  0  0  0
   -2.6725    0.9845    0.0324 C   0  0  0  0  0  0  0  0  0  0  0  0
   -1.3623    1.0872   -0.4175 C   0  0  0  0  0  0  0  0  0  0  0  0
   -3.1521    1.9326    0.9329 C   0  0  0  0  0  0  0  0  0  0  0  0
   -2.3260    2.9566    1.3721 C   0  0  0  0  0  0  0  0  0  0  0  0
   -1.0081    3.0325    0.9437 C   0  0  0  0  0  0  0  0  0  0  0  0
   -0.5156    2.0916    0.0433 C   0  0  0  0  0  0  0  0  0  0  0  0
    0.8125    2.1800   -0.4318 N   0  0  0  0  0  0  0  0  0  0  0  0
    1.2900    3.4681   -0.9227 C   0  0  0  0  0  0  0  0  0  0  0  0
    2.2784    4.1656   -0.0003 C   0  0  0  0  0  0  0  0  0  0  0  0
    1.6461    1.0900   -0.3707 C   0  0  0  0  0  0  0  0  0  0  0  0
    1.2433    0.0463    0.3137 N   0  0  0  0  0  0  0  0  0  0  0  0
    2.0136   -1.0594    0.3701 C   0  0  0  0  0  0  0  0  0  0  0  0
    1.5465   -2.1809    1.0936 C   0  0  0  0  0  0  0  0  0  0  0  0
    2.3040   -3.3208    1.1734 C   0  0  0  0  0  0  0  0  0  0  0  0
    3.5597   -3.4003    0.5388 C   0  0  0  0  0  0  0  0  0  0  0  0
    4.0361   -2.3261   -0.1676 C   0  0  0  0  0  0  0  0  0  0  0  0
    3.2757   -1.1438   -0.2644 C   0  0  0  0  0  0  0  0  0  0  0  0
    3.7006    0.0023   -0.9780 C   0  0  0  0  0  0  0  0  0  0  0  0
    2.9112    1.1069   -1.0407 C   0  0  0  0  0  0  0  0  0  0  0  0
   -3.9631   -4.5351    0.0709 H   0  0  0  0  0  0  0  0  0  0  0  0
   -3.1662   -1.3897    1.3208 H   0  0  0  0  0  0  0  0  0  0  0  0
   -2.0181   -1.6452    0.0355 H   0  0  0  0  0  0  0  0  0  0  0  0
   -3.4613   -0.2643   -1.5136 H   0  0  0  0  0  0  0  0  0  0  0  0
   -4.5754    0.0309   -0.1907 H   0  0  0  0  0  0  0  0  0  0  0  0
   -0.9889    0.3655   -1.1333 H   0  0  0  0  0  0  0  0  0  0  0  0
   -4.1736    1.8699    1.2882 H   0  0  0  0  0  0  0  0  0  0  0  0
   -2.7036    3.6942    2.0686 H   0  0  0  0  0  0  0  0  0  0  0  0
   -0.3679    3.8203    1.3196 H   0  0  0  0  0  0  0  0  0  0  0  0
    1.7250    3.3426   -1.9173 H   0  0  0  0  0  0  0  0  0  0  0  0
    0.4155    4.0997   -1.0680 H   0  0  0  0  0  0  0  0  0  0  0  0
    2.5817    5.1158   -0.4400 H   0  0  0  0  0  0  0  0  0  0  0  0
    1.8372    4.3722    0.9745 H   0  0  0  0  0  0  0  0  0  0  0  0
    3.1796    3.5732    0.1594 H   0  0  0  0  0  0  0  0  0  0  0  0
    0.5812   -2.1165    1.5803 H   0  0  0  0  0  0  0  0  0  0  0  0
    1.9343   -4.1725    1.7300 H   0  0  0  0  0  0  0  0  0  0  0  0
    4.1429   -4.3088    0.6099 H   0  0  0  0  0  0  0  0  0  0  0  0
    4.9996   -2.3750   -0.6609 H   0  0  0  0  0  0  0  0  0  0  0  0
    4.6579   -0.0074   -1.4852 H   0  0  0  0  0  0  0  0  0  0  0  0
    3.2454    1.9688   -1.5987 H   0  0  0  0  0  0  0  0  0  0  0  0
  3  2  2  0
  2  4  1  0
  2  1  1  0
  4  5  1  0
  8  9  1  0
  8  6  2  0
  9 10  2  0
  5  6  1  0
  6  7  1  0
 10 11  1  0
  7 11  2  0
 11 12  1  0
 14 13  1  0
 12 13  1  0
 12 15  1  0
 15 16  2  0
 15 24  1  0
 16 17  1  0
 24 23  2  0
 17 18  2  0
 17 22  1  0
 23 22  1  0
 18 19  1  0
 22 21  2  0
 19 20  2  0
 21 20  1  0
  1 25  1  0
  4 26  1  0
  4 27  1  0
  5 28  1  0
  5 29  1  0
  7 30  1  0
  8 31  1  0
  9 32  1  0
 10 33  1  0
 13 34  1  0
 13 35  1  0
 14 36  1  0
 14 37  1  0
 14 38  1  0
 18 39  1  0
 19 40  1  0
 20 41  1  0
 21 42  1  0
 23 43  1  0
 24 44  1  0
M  END
