
     RDKit          3D

 34 35  0  0  0  0  0  0  0  0999 V2000
    1.1037   -1.7245    2.9820 O   0  0  0  0  0  0  0  0  0  0  0  0
    0.5750   -0.6472    2.8143 C   0  0  0  0  0  0  0  0  0  0  0  0
    0.0986    0.0946    3.8049 O   0  0  0  0  0  0  0  0  0  0  0  0
    0.1914   -0.4154    5.1420 C   0  0  0  0  0  0  0  0  0  0  0  0
   -0.4509    0.5946    6.0618 C   0  0  0  0  0  0  0  0  0  0  0  0
    0.3866   -0.0178    1.5145 C   0  0  0  0  0  0  0  0  0  0  0  0
    0.8419   -0.5422    0.3133 C   0  0  0  0  0  0  0  0  0  0  0  0
    1.6108   -1.7749    0.0098 C   0  0  0  0  0  0  0  0  0  0  0  0
   -0.2683    1.1966    1.1733 C   0  0  0  0  0  0  0  0  0  0  0  0
   -0.9538    2.1895    2.0458 C   0  0  0  0  0  0  0  0  0  0  0  0
   -0.2163    1.3902   -0.1232 N   0  0  0  0  0  0  0  0  0  0  0  0
    0.4540    0.3362   -0.6262 N   0  0  0  0  0  0  0  0  0  0  0  0
    0.6713    0.2657   -2.0201 C   0  0  0  0  0  0  0  0  0  0  0  0
   -0.0196   -0.6548   -2.8022 C   0  0  0  0  0  0  0  0  0  0  0  0
   -1.1598   -1.7229   -2.0708 Cl  0  0  0  0  0  0  0  0  0  0  0  0
    0.1953   -0.7145   -4.1704 C   0  0  0  0  0  0  0  0  0  0  0  0
    1.0938    0.1628   -4.7582 C   0  0  0  0  0  0  0  0  0  0  0  0
    1.7755    1.0945   -3.9870 C   0  0  0  0  0  0  0  0  0  0  0  0
    1.5653    1.1420   -2.6184 C   0  0  0  0  0  0  0  0  0  0  0  0
    1.2395   -0.5725    5.4059 H   0  0  0  0  0  0  0  0  0  0  0  0
   -0.3183   -1.3791    5.2056 H   0  0  0  0  0  0  0  0  0  0  0  0
   -0.4064    0.2262    7.0863 H   0  0  0  0  0  0  0  0  0  0  0  0
    0.0663    1.5536    6.0285 H   0  0  0  0  0  0  0  0  0  0  0  0
   -1.4988    0.7553    5.8081 H   0  0  0  0  0  0  0  0  0  0  0  0
    1.9913   -1.7696   -1.0099 H   0  0  0  0  0  0  0  0  0  0  0  0
    2.4546   -1.8731    0.6882 H   0  0  0  0  0  0  0  0  0  0  0  0
    0.9867   -2.6597    0.1335 H   0  0  0  0  0  0  0  0  0  0  0  0
   -0.2632    2.6380    2.7595 H   0  0  0  0  0  0  0  0  0  0  0  0
   -1.3793    2.9852    1.4369 H   0  0  0  0  0  0  0  0  0  0  0  0
   -1.7558    1.7284    2.6212 H   0  0  0  0  0  0  0  0  0  0  0  0
   -0.3409   -1.4363   -4.7708 H   0  0  0  0  0  0  0  0  0  0  0  0
    1.2583    0.1153   -5.8262 H   0  0  0  0  0  0  0  0  0  0  0  0
    2.4741    1.7782   -4.4493 H   0  0  0  0  0  0  0  0  0  0  0  0
    2.0928    1.8569   -2.0011 H   0  0  0  0  0  0  0  0  0  0  0  0
  1  2  2  0
  2  3  1  0
  2  6  1  0
  3  4  1  0
  4  5  1  0
  4 20  1  0
  4 21  1  0
  5 22  1  0
  5 23  1  0
  5 24  1  0
  6  7  2  0
  6  9  1  0
  7  8  1  0
  7 12  1  0
  8 25  1  0
  8 26  1  0
  8 27  1  0
  9 10  1  0
  9 11  2  0
 10 28  1  0
 10 29  1  0
 10 30  1  0
 11 12  1  0
 12 13  1  0
 13 14  2  0
 13 19  1  0
 14 15  1  0
 14 16  1  0
 16 17  2  0
 16 31  1  0
 17 18  1  0
 17 32  1  0
 18 19  2  0
 18 33  1  0
 19 34  1  0
M  END
