
     RDKit          3D

 30 32  0  0  0  0  0  0  0  0999 V2000
    0.7038   -0.0648   -0.0589 C   0  0  0  0  0  0  0  0  0  0  0  0
    2.0492   -0.5895   -0.0253 C   0  0  0  0  0  0  0  0  0  0  0  0
    0.8484    1.3197    0.0502 C   0  0  0  0  0  0  0  0  0  0  0  0
    2.8783    0.5287    0.0999 C   0  0  0  0  0  0  0  0  0  0  0  0
   -0.5593   -0.6261   -0.1656 C   0  0  0  0  0  0  0  0  0  0  0  0
   -1.6656    0.2210   -0.1627 C   0  0  0  0  0  0  0  0  0  0  0  0
   -2.8685   -0.3800   -0.2706 O   0  0  0  0  0  0  0  0  0  0  0  0
    4.2562    0.4403    0.1668 C   0  0  0  0  0  0  0  0  0  0  0  0
    3.9943   -1.9699   -0.0254 C   0  0  0  0  0  0  0  0  0  0  0  0
    4.8010   -0.8349    0.1012 C   0  0  0  0  0  0  0  0  0  0  0  0
   -4.0497    0.4058   -0.2343 C   0  0  0  0  0  0  0  0  0  0  0  0
   -5.2316   -0.5331   -0.2968 C   0  0  0  0  0  0  0  0  0  0  0  0
   -0.2313    2.1745    0.0531 C   0  0  0  0  0  0  0  0  0  0  0  0
    2.6144   -1.8590   -0.0899 C   0  0  0  0  0  0  0  0  0  0  0  0
   -1.4970    1.6088   -0.0547 C   0  0  0  0  0  0  0  0  0  0  0  0
   -5.3007   -1.3780    0.8838 N   0  0  0  0  0  0  0  0  0  0  0  0
    2.1605    1.6803    0.1462 O   0  0  0  0  0  0  0  0  0  0  0  0
   -0.6958   -1.6974   -0.2481 H   0  0  0  0  0  0  0  0  0  0  0  0
    4.8808    1.3179    0.2653 H   0  0  0  0  0  0  0  0  0  0  0  0
    4.4565   -2.9469   -0.0737 H   0  0  0  0  0  0  0  0  0  0  0  0
    5.8757   -0.9506    0.1487 H   0  0  0  0  0  0  0  0  0  0  0  0
   -4.0914    0.9954    0.6882 H   0  0  0  0  0  0  0  0  0  0  0  0
   -4.0796    1.0972   -1.0837 H   0  0  0  0  0  0  0  0  0  0  0  0
   -6.1286    0.0885   -0.3330 H   0  0  0  0  0  0  0  0  0  0  0  0
   -5.1998   -1.0853   -1.2466 H   0  0  0  0  0  0  0  0  0  0  0  0
   -0.1137    3.2468    0.1351 H   0  0  0  0  0  0  0  0  0  0  0  0
    1.9931   -2.7398   -0.1899 H   0  0  0  0  0  0  0  0  0  0  0  0
   -2.3497    2.2727   -0.0546 H   0  0  0  0  0  0  0  0  0  0  0  0
   -6.1499   -1.9266    0.8532 H   0  0  0  0  0  0  0  0  0  0  0  0
   -4.5419   -2.0469    0.8685 H   0  0  0  0  0  0  0  0  0  0  0  0
 10  9  2  0
 10  8  1  0
  9 14  1  0
  8  4  2  0
 14  2  2  0
  4  2  1  0
  4 17  1  0
  2  1  1  0
 17  3  1  0
  1  5  2  0
  1  3  1  0
  5  6  1  0
  3 13  2  0
 11 12  1  0
 11  7  1  0
 13 15  1  0
  6 15  2  0
  6  7  1  0
 12 16  1  0
  5 18  1  0
  8 19  1  0
  9 20  1  0
 10 21  1  0
 11 22  1  0
 11 23  1  0
 12 24  1  0
 12 25  1  0
 13 26  1  0
 14 27  1  0
 15 28  1  0
 16 29  1  0
 16 30  1  0
M  END
