
     RDKit          3D

 33 36  0  0  0  0  0  0  0  0999 V2000
    1.3279   -1.2502   -0.5248 C   0  0  0  0  0  0  0  0  0  0  0  0
    2.4950   -2.1476   -0.9446 C   0  0  0  0  0  0  0  0  0  0  0  0
    3.6744   -1.4853   -0.3001 C   0  0  0  0  0  0  0  0  0  0  0  0
    4.9566   -1.9621   -0.1105 C   0  0  0  0  0  0  0  0  0  0  0  0
    5.9033   -1.1403    0.4952 C   0  0  0  0  0  0  0  0  0  0  0  0
    5.5515    0.1409    0.8981 C   0  0  0  0  0  0  0  0  0  0  0  0
    4.2638    0.6350    0.7085 C   0  0  0  0  0  0  0  0  0  0  0  0
    3.3296   -0.1969    0.1044 C   0  0  0  0  0  0  0  0  0  0  0  0
    1.9657    0.0295   -0.1606 N   0  0  0  0  0  0  0  0  0  0  0  0
    1.3944    1.2556   -0.2108 C   0  0  0  0  0  0  0  0  0  0  0  0
    2.0371    2.2912   -0.1201 O   0  0  0  0  0  0  0  0  0  0  0  0
   -0.0810    1.3317   -0.3826 C   0  0  0  0  0  0  0  0  0  0  0  0
   -0.9319    0.3830    0.0931 N   0  0  0  0  0  0  0  0  0  0  0  0
   -0.6774    2.4083   -0.9704 C   0  0  0  0  0  0  0  0  0  0  0  0
   -2.3688    2.2121   -0.9456 S   0  0  0  0  0  0  0  0  0  0  0  0
   -2.1701    0.6982   -0.1219 C   0  0  0  0  0  0  0  0  0  0  0  0
   -3.3049   -0.1175    0.2733 C   0  0  0  0  0  0  0  0  0  0  0  0
   -4.6756    0.2446    0.1041 C   0  0  0  0  0  0  0  0  0  0  0  0
   -5.5247   -0.7098    0.5644 C   0  0  0  0  0  0  0  0  0  0  0  0
   -4.6755   -2.0538    1.2056 S   0  0  0  0  0  0  0  0  0  0  0  0
   -3.1651   -1.3459    0.8615 C   0  0  0  0  0  0  0  0  0  0  0  0
    0.6027   -1.1100   -1.3207 H   0  0  0  0  0  0  0  0  0  0  0  0
    2.3462   -3.1758   -0.6170 H   0  0  0  0  0  0  0  0  0  0  0  0
    0.8082   -1.6610    0.3400 H   0  0  0  0  0  0  0  0  0  0  0  0
    2.6131   -2.1643   -2.0311 H   0  0  0  0  0  0  0  0  0  0  0  0
    5.2194   -2.9624   -0.4313 H   0  0  0  0  0  0  0  0  0  0  0  0
    6.9117   -1.4993    0.6537 H   0  0  0  0  0  0  0  0  0  0  0  0
    6.2893    0.7749    1.3728 H   0  0  0  0  0  0  0  0  0  0  0  0
    4.0173    1.6316    1.0363 H   0  0  0  0  0  0  0  0  0  0  0  0
   -0.2138    3.2780   -1.4071 H   0  0  0  0  0  0  0  0  0  0  0  0
   -5.0172    1.1718   -0.3356 H   0  0  0  0  0  0  0  0  0  0  0  0
   -2.2449   -1.8572    1.0987 H   0  0  0  0  0  0  0  0  0  0  0  0
   -6.6033   -0.6928    0.5619 H   0  0  0  0  0  0  0  0  0  0  0  0
  1  2  1  0
  1  9  1  0
  2  3  1  0
  3  4  2  0
  3  8  1  0
  4  5  1  0
  5  6  2  0
  6  7  1  0
  7  8  2  0
  8  9  1  0
  9 10  1  0
 10 11  2  0
 10 12  1  0
 12 13  1  0
 12 14  2  0
 13 16  2  0
 14 15  1  0
 15 16  1  0
 16 17  1  0
 17 18  1  0
 17 21  2  0
 18 19  2  0
 19 20  1  0
 20 21  1  0
  1 22  1  0
  1 24  1  0
  2 23  1  0
  2 25  1  0
  4 26  1  0
  5 27  1  0
  6 28  1  0
  7 29  1  0
 14 30  1  0
 18 31  1  0
 21 32  1  0
 19 33  1  0
M  END
