
     RDKit          3D

 32 34  0  0  0  0  0  0  0  0999 V2000
    0.3107    0.4310   -0.2347 C   0  0  0  0  0  0  0  0  0  0  0  0
   -0.1806    0.2844   -1.5555 C   0  0  0  0  0  0  0  0  0  0  0  0
   -1.4147    0.5888   -2.0577 N   0  0  0  0  0  0  0  0  0  0  0  0
   -1.5584    0.3419   -3.3119 C   0  0  0  0  0  0  0  0  0  0  0  0
   -0.5943   -0.1802   -4.1177 N   0  0  0  0  0  0  0  0  0  0  0  0
    0.6898   -0.5238   -3.7160 C   0  0  0  0  0  0  0  0  0  0  0  0
    1.5151   -0.9858   -4.4901 O   0  0  0  0  0  0  0  0  0  0  0  0
    0.8468   -0.2504   -2.3257 C   0  0  0  0  0  0  0  0  0  0  0  0
    1.9270   -0.4232   -1.5214 N   0  0  0  0  0  0  0  0  0  0  0  0
    1.6137   -0.0136   -0.2676 C   0  0  0  0  0  0  0  0  0  0  0  0
    1.3915   -0.3329    3.6517 C   0  0  0  0  0  0  0  0  0  0  0  0
    2.1420    0.6916    4.2576 O   0  0  0  0  0  0  0  0  0  0  0  0
    0.1242    0.2514    3.0789 C   0  0  1  0  0  0  0  0  0  0  0  0
    0.4267    1.1712    2.0399 O   0  0  0  0  0  0  0  0  0  0  0  0
   -0.4440    0.9841    0.9321 C   0  0  2  0  0  0  0  0  0  0  0  0
   -1.5480    0.0462    1.4157 C   0  0  2  0  0  0  0  0  0  0  0  0
   -2.5468    0.8196    2.0333 O   0  0  0  0  0  0  0  0  0  0  0  0
   -0.7860   -0.7982    2.4328 C   0  0  2  0  0  0  0  0  0  0  0  0
   -1.6674   -1.4296    3.3197 O   0  0  0  0  0  0  0  0  0  0  0  0
   -2.5002    0.5489   -3.8038 H   0  0  0  0  0  0  0  0  0  0  0  0
   -0.8262   -0.3303   -5.0910 H   0  0  0  0  0  0  0  0  0  0  0  0
    2.8202   -0.7916   -1.8055 H   0  0  0  0  0  0  0  0  0  0  0  0
    2.3474   -0.0594    0.5200 H   0  0  0  0  0  0  0  0  0  0  0  0
    1.9520   -0.8333    2.8505 H   0  0  0  0  0  0  0  0  0  0  0  0
    1.1101   -1.1102    4.3756 H   0  0  0  0  0  0  0  0  0  0  0  0
    2.9414    0.3030    4.6241 H   0  0  0  0  0  0  0  0  0  0  0  0
   -0.8817    1.9495    0.6509 H   0  0  0  0  0  0  0  0  0  0  0  0
   -1.9564   -0.5575    0.5969 H   0  0  0  0  0  0  0  0  0  0  0  0
   -3.1220    0.2308    2.5337 H   0  0  0  0  0  0  0  0  0  0  0  0
   -0.1739   -1.5318    1.8898 H   0  0  0  0  0  0  0  0  0  0  0  0
   -1.2212   -2.1708    3.7380 H   0  0  0  0  0  0  0  0  0  0  0  0
   -0.4307    0.7608    3.8794 H   0  0  0  0  0  0  0  0  0  0  0  0
  1  2  1  0
  1 10  2  0
  1 15  1  0
  2  3  1  0
  2  8  2  0
  3  4  2  0
  4  5  1  0
  4 20  1  0
  5  6  1  0
  5 21  1  0
  6  7  2  0
  6  8  1  0
  8  9  1  0
  9 10  1  0
  9 22  1  0
 10 23  1  0
 11 12  1  0
 11 13  1  0
 11 24  1  0
 11 25  1  0
 12 26  1  0
 13 14  1  0
 13 18  1  0
 13 32  1  1
 14 15  1  0
 15 16  1  0
 15 27  1  6
 16 17  1  0
 16 18  1  0
 16 28  1  6
 17 29  1  0
 18 19  1  0
 18 30  1  6
 19 31  1  0
M  END
