
     RDKit          3D

 38 41  0  0  0  0  0  0  0  0999 V2000
   -3.5088    2.3090    0.0919 N   0  0  0  0  0  0  0  0  0  0  0  0
    2.3745    1.1050   -0.4692 C   0  0  0  0  0  0  0  0  0  0  0  0
   -3.4069   -0.0497    0.3341 N   0  0  0  0  0  0  0  0  0  0  0  0
   -0.0092    1.5787    0.0384 C   0  0  0  0  0  0  0  0  0  0  0  0
    1.3127   -0.1038    1.3081 C   0  0  0  0  0  0  0  0  0  0  0  0
   -2.1821    2.2717   -0.0071 C   0  0  0  0  0  0  0  0  0  0  0  0
   -2.2926   -2.4884    0.4028 C   0  0  0  0  0  0  0  0  0  0  0  0
   -0.0723    2.9374   -0.1212 C   0  0  0  0  0  0  0  0  0  0  0  0
    5.6643    0.9522   -1.5986 N   0  0  0  0  0  0  0  0  0  0  0  0
   -0.6098   -1.5694   -1.0584 C   0  0  0  0  0  0  0  0  0  0  0  0
    2.4992   -0.7682    1.5791 C   0  0  0  0  0  0  0  0  0  0  0  0
    3.6379   -0.5028    0.8372 C   0  0  0  0  0  0  0  0  0  0  0  0
    3.5663    0.4405   -0.1866 C   0  0  0  0  0  0  0  0  0  0  0  0
    1.2324    0.8409    0.2813 C   0  0  0  0  0  0  0  0  0  0  0  0
   -1.3725    3.3456   -0.1612 N   0  0  0  0  0  0  0  0  0  0  0  0
   -1.3735    1.1244    0.0810 C   0  0  0  0  0  0  0  0  0  0  0  0
   -2.0886   -0.0901    0.1645 C   0  0  0  0  0  0  0  0  0  0  0  0
   -4.0367    1.1228    0.3074 C   0  0  0  0  0  0  0  0  0  0  0  0
   -1.4862   -1.3194    0.0847 N   0  0  0  0  0  0  0  0  0  0  0  0
   -1.3788   -3.6816    0.6074 C   0  0  0  0  0  0  0  0  0  0  0  0
   -0.5784   -3.9313   -0.5259 O   0  0  0  0  0  0  0  0  0  0  0  0
    0.2245   -2.8119   -0.8216 C   0  0  0  0  0  0  0  0  0  0  0  0
    2.3380    1.8188   -1.2819 H   0  0  0  0  0  0  0  0  0  0  0  0
    0.4365   -0.3187    1.9052 H   0  0  0  0  0  0  0  0  0  0  0  0
   -2.8531   -2.3116    1.3197 H   0  0  0  0  0  0  0  0  0  0  0  0
   -3.0194   -2.7013   -0.3915 H   0  0  0  0  0  0  0  0  0  0  0  0
    0.7311    3.6550   -0.1613 H   0  0  0  0  0  0  0  0  0  0  0  0
   -1.2155   -1.6959   -1.9662 H   0  0  0  0  0  0  0  0  0  0  0  0
    0.0567   -0.7279   -1.2321 H   0  0  0  0  0  0  0  0  0  0  0  0
    2.5360   -1.4961    2.3779 H   0  0  0  0  0  0  0  0  0  0  0  0
    4.5664   -1.0172    1.0436 H   0  0  0  0  0  0  0  0  0  0  0  0
   -1.6816    4.3030   -0.2212 H   0  0  0  0  0  0  0  0  0  0  0  0
   -5.1106    1.0869    0.4547 H   0  0  0  0  0  0  0  0  0  0  0  0
   -0.7498   -3.5114    1.4930 H   0  0  0  0  0  0  0  0  0  0  0  0
   -1.9793   -4.5740    0.7876 H   0  0  0  0  0  0  0  0  0  0  0  0
    0.7934   -3.0423   -1.7234 H   0  0  0  0  0  0  0  0  0  0  0  0
    0.9387   -2.6250   -0.0086 H   0  0  0  0  0  0  0  0  0  0  0  0
    4.7275    0.7238   -0.9678 C   0  0  0  0  0  0  0  0  0  0  0  0
  9 38  3  0
 38 13  1  0
 13 12  1  0
 13  2  2  0
 12 11  2  0
  2 14  1  0
 11  5  1  0
 20 21  1  0
 20  7  1  0
 14  5  2  0
 14  4  1  0
 21 22  1  0
  7 19  1  0
  4  8  2  0
  4 16  1  0
  8 15  1  0
 22 10  1  0
 19 10  1  0
 19 17  1  0
 16 17  2  0
 16  6  1  0
 15  6  1  0
 17  3  1  0
  6  1  2  0
  3 18  2  0
  1 18  1  0
  2 23  1  0
  5 24  1  0
  7 25  1  0
  7 26  1  0
  8 27  1  0
 10 28  1  0
 10 29  1  0
 11 30  1  0
 12 31  1  0
 15 32  1  0
 18 33  1  0
 20 34  1  0
 20 35  1  0
 22 36  1  0
 22 37  1  0
M  END
