
     RDKit          3D

 67 70  0  0  0  0  0  0  0  0999 V2000
   -0.8194    1.5129    1.3120 C   0  0  2  0  0  0  0  0  0  0  0  0
   -1.4740    2.6582    0.4927 C   0  0  2  0  0  0  0  0  0  0  0  0
   -1.7947    3.7274    1.5405 C   0  0  0  0  0  0  0  0  0  0  0  0
   -1.9924    2.9568    2.7504 N   0  0  0  0  0  0  0  0  0  0  0  0
   -0.9038    1.9971    2.7676 C   0  0  0  0  0  0  0  0  0  0  0  0
    0.5533    1.2877    0.9027 N   0  0  0  0  0  0  0  0  0  0  0  0
    1.1400    0.1299    1.5387 C   0  0  0  0  0  0  0  0  0  0  0  0
    2.5444   -0.1336    1.0676 C   0  0  0  0  0  0  0  0  0  0  0  0
    3.3491    0.8793    0.5507 C   0  0  0  0  0  0  0  0  0  0  0  0
    4.6480    0.6156    0.1370 C   0  0  0  0  0  0  0  0  0  0  0  0
    5.1642   -0.6688    0.2468 C   0  0  0  0  0  0  0  0  0  0  0  0
    4.3705   -1.6880    0.7647 C   0  0  0  0  0  0  0  0  0  0  0  0
    3.0735   -1.4193    1.1611 C   0  0  0  0  0  0  0  0  0  0  0  0
   -3.8335    0.1949    2.2015 C   0  0  0  0  0  0  0  0  0  0  0  0
   -3.9122   -1.1094    2.6613 C   0  0  0  0  0  0  0  0  0  0  0  0
   -4.2052   -2.1366    1.7759 C   0  0  0  0  0  0  0  0  0  0  0  0
   -4.3343   -3.5445    2.2659 C   0  0  1  0  0  0  0  0  0  0  0  0
   -5.6046   -3.8537    2.5759 F   0  0  0  0  0  0  0  0  0  0  0  0
   -3.9400   -4.4386    1.3509 F   0  0  0  0  0  0  0  0  0  0  0  0
   -3.6090   -3.7694    3.3672 F   0  0  0  0  0  0  0  0  0  0  0  0
   -2.6371    2.2156   -0.2809 N   0  0  0  0  0  0  0  0  0  0  0  0
   -3.9156    1.9159    0.3685 C   0  0  0  0  0  0  0  0  0  0  0  0
   -4.0322    0.4923    0.8585 C   0  0  0  0  0  0  0  0  0  0  0  0
   -4.4377   -1.8519    0.4359 C   0  0  0  0  0  0  0  0  0  0  0  0
   -4.3502   -0.5457   -0.0150 C   0  0  0  0  0  0  0  0  0  0  0  0
    2.3561   -1.1388   -2.9737 C   0  0  0  0  0  0  0  0  0  0  0  0
   -2.5057    2.2904   -1.9104 S   0  0  1  0  0  0  0  0  0  0  0  0
   -3.6809    1.6500   -2.4852 O   0  0  0  0  0  0  0  0  0  0  0  0
   -2.1924    3.6445   -2.3464 O   0  0  0  0  0  0  0  0  0  0  0  0
   -1.0759    1.2933   -2.2648 C   0  0  0  0  0  0  0  0  0  0  0  0
   -1.0937   -0.0556   -1.9254 C   0  0  0  0  0  0  0  0  0  0  0  0
    0.0238   -0.8325   -2.1706 C   0  0  0  0  0  0  0  0  0  0  0  0
    1.1586    1.0875   -3.0834 C   0  0  0  0  0  0  0  0  0  0  0  0
    0.0344    1.8705   -2.8605 C   0  0  0  0  0  0  0  0  0  0  0  0
    3.5487   -0.5219   -2.9842 N   0  0  0  0  0  0  0  0  0  0  0  0
    2.2185   -2.3361   -3.1546 O   0  0  0  0  0  0  0  0  0  0  0  0
    6.5386   -0.9959   -0.2380 C   0  0  1  0  0  0  0  0  0  0  0  0
    7.2179   -1.7506    0.6356 F   0  0  0  0  0  0  0  0  0  0  0  0
    6.5012   -1.6946   -1.3892 F   0  0  0  0  0  0  0  0  0  0  0  0
    7.2770    0.0913   -0.4760 F   0  0  0  0  0  0  0  0  0  0  0  0
    1.1661   -0.2583   -2.7294 C   0  0  0  0  0  0  0  0  0  0  0  0
   -1.4286    0.6042    1.2011 H   0  0  0  0  0  0  0  0  0  0  0  0
   -0.7488    3.0802   -0.2055 H   0  0  0  0  0  0  0  0  0  0  0  0
   -0.9355    4.4112    1.6018 H   0  0  0  0  0  0  0  0  0  0  0  0
   -2.6689    4.3307    1.2883 H   0  0  0  0  0  0  0  0  0  0  0  0
   -1.9970    3.5389    3.5781 H   0  0  0  0  0  0  0  0  0  0  0  0
   -1.1109    1.1896    3.4717 H   0  0  0  0  0  0  0  0  0  0  0  0
    0.0626    2.4483    3.0393 H   0  0  0  0  0  0  0  0  0  0  0  0
    0.5844    1.1506   -0.0989 H   0  0  0  0  0  0  0  0  0  0  0  0
    1.1675    0.2989    2.6210 H   0  0  0  0  0  0  0  0  0  0  0  0
    0.5411   -0.7836    1.3931 H   0  0  0  0  0  0  0  0  0  0  0  0
    2.9597    1.8852    0.4670 H   0  0  0  0  0  0  0  0  0  0  0  0
    5.2421    1.4261   -0.2637 H   0  0  0  0  0  0  0  0  0  0  0  0
    4.7470   -2.6994    0.8495 H   0  0  0  0  0  0  0  0  0  0  0  0
    2.4637   -2.2268    1.5471 H   0  0  0  0  0  0  0  0  0  0  0  0
   -3.5901    0.9933    2.8893 H   0  0  0  0  0  0  0  0  0  0  0  0
   -3.7435   -1.3063    3.7121 H   0  0  0  0  0  0  0  0  0  0  0  0
   -4.0202    2.5977    1.2106 H   0  0  0  0  0  0  0  0  0  0  0  0
   -4.7325    2.1440   -0.3134 H   0  0  0  0  0  0  0  0  0  0  0  0
   -4.6789   -2.6378   -0.2681 H   0  0  0  0  0  0  0  0  0  0  0  0
   -4.5412   -0.3393   -1.0607 H   0  0  0  0  0  0  0  0  0  0  0  0
   -1.9625   -0.5005   -1.4658 H   0  0  0  0  0  0  0  0  0  0  0  0
    0.0141   -1.8824   -1.9100 H   0  0  0  0  0  0  0  0  0  0  0  0
    2.0159    1.5454   -3.5558 H   0  0  0  0  0  0  0  0  0  0  0  0
    0.0420    2.9148   -3.1376 H   0  0  0  0  0  0  0  0  0  0  0  0
    4.3800   -1.0839   -3.0720 H   0  0  0  0  0  0  0  0  0  0  0  0
    3.6715    0.4024   -2.6080 H   0  0  0  0  0  0  0  0  0  0  0  0
  1  2  1  0
  1  5  1  0
  1  6  1  0
  2  3  1  0
  2 21  1  0
  3  4  1  0
  4  5  1  0
  6  7  1  0
  7  8  1  0
  8  9  2  0
  8 13  1  0
  9 10  1  0
 10 11  2  0
 11 12  1  0
 11 37  1  0
 12 13  2  0
 14 15  2  0
 14 23  1  0
 15 16  1  0
 16 17  1  0
 16 24  2  0
 17 18  1  1
 17 19  1  0
 17 20  1  0
 21 22  1  0
 27 21  1  1
 22 23  1  0
 23 25  2  0
 24 25  1  0
 26 35  1  0
 26 36  2  0
 26 41  1  0
 27 28  2  0
 27 29  2  0
 27 30  1  0
 30 31  2  0
 30 34  1  0
 31 32  1  0
 32 41  2  0
 33 34  2  0
 33 41  1  0
 37 38  1  1
 37 39  1  0
 37 40  1  0
  1 42  1  1
  2 43  1  6
  3 44  1  0
  3 45  1  0
  4 46  1  0
  5 47  1  0
  5 48  1  0
  6 49  1  0
  7 50  1  0
  7 51  1  0
  9 52  1  0
 10 53  1  0
 12 54  1  0
 13 55  1  0
 14 56  1  0
 15 57  1  0
 22 58  1  0
 22 59  1  0
 24 60  1  0
 25 61  1  0
 31 62  1  0
 32 63  1  0
 33 64  1  0
 34 65  1  0
 35 66  1  0
 35 67  1  0
M  END
