
     RDKit          3D

108113  0  0  0  0  0  0  0  0999 V2000
   -4.1485    6.0322    0.4398 C   0  0  0  0  0  0  0  0  0  0  0  0
   -5.3843    6.0031   -0.1866 C   0  0  0  0  0  0  0  0  0  0  0  0
   -5.8602    4.5768   -0.2756 C   0  0  2  0  0  0  0  0  0  0  0  0
   -4.6968    3.8340    0.3707 C   0  0  0  0  0  0  0  0  0  0  0  0
   -6.0492    4.1746   -1.7435 C   0  0  0  0  0  0  0  0  0  0  0  0
   -7.1564    4.4035    0.5295 C   0  0  0  0  0  0  0  0  0  0  0  0
   -3.4548    7.2086    0.6599 C   0  0  0  0  0  0  0  0  0  0  0  0
   -4.0563    8.3874    0.2278 C   0  0  0  0  0  0  0  0  0  0  0  0
   -5.2970    8.3764   -0.3989 C   0  0  0  0  0  0  0  0  0  0  0  0
   -5.9725    7.1754   -0.6121 C   0  0  0  0  0  0  0  0  0  0  0  0
   -4.5340    2.4664    0.5387 C   0  0  0  0  0  0  0  0  0  0  0  0
   -5.4707    1.4925    0.2136 C   0  0  0  0  0  0  0  0  0  0  0  0
   -5.2642    0.1342    0.4119 C   0  0  0  0  0  0  0  0  0  0  0  0
   -6.2417   -0.8041    0.1145 C   0  0  0  0  0  0  0  0  0  0  0  0
   -6.0768   -2.1713    0.3108 C   0  0  0  0  0  0  0  0  0  0  0  0
   -7.0281   -3.1476    0.0584 C   0  0  0  0  0  0  0  0  0  0  0  0
   -8.4433   -2.9902   -0.4802 C   0  0  1  0  0  0  0  0  0  0  0  0
   -8.9034   -4.4243   -0.5174 C   0  0  0  0  0  0  0  0  0  0  0  0
   -3.7810    4.7258    0.7762 N   0  0  0  0  0  0  0  0  0  0  0  0
   -7.8865   -5.2429   -0.0481 C   0  0  0  0  0  0  0  0  0  0  0  0
   -6.7881   -4.4459    0.2900 N   0  0  0  0  0  0  0  0  0  0  0  0
  -10.1024   -4.9727   -0.9219 C   0  0  0  0  0  0  0  0  0  0  0  0
  -10.2654   -6.3552   -0.8464 C   0  0  0  0  0  0  0  0  0  0  0  0
   -9.2375   -7.1612   -0.3724 C   0  0  0  0  0  0  0  0  0  0  0  0
   -8.0231   -6.6173    0.0360 C   0  0  0  0  0  0  0  0  0  0  0  0
   -5.5424   -4.9619    0.8132 C   0  0  0  0  0  0  0  0  0  0  0  0
   -9.3198   -2.1796    0.4853 C   0  0  0  0  0  0  0  0  0  0  0  0
   -8.4559   -2.3890   -1.8915 C   0  0  0  0  0  0  0  0  0  0  0  0
   10.1513   -1.4436    0.0727 C   0  0  1  0  0  0  0  0  0  0  0  0
   11.3151   -1.6780   -0.8857 C   0  0  0  0  0  0  0  0  0  0  0  0
   12.0584   -2.9684   -0.5699 C   0  0  1  0  0  0  0  0  0  0  0  0
   11.0940   -4.1446   -0.6121 C   0  0  2  0  0  0  0  0  0  0  0  0
    9.9351   -3.9424    0.3603 C   0  0  1  0  0  0  0  0  0  0  0  0
    9.1970   -2.6384    0.0580 C   0  0  1  0  0  0  0  0  0  0  0  0
   13.0817   -3.2369   -1.5082 O   0  0  0  0  0  0  0  0  0  0  0  0
   11.7214   -5.3557   -0.2556 O   0  0  0  0  0  0  0  0  0  0  0  0
    9.0079   -5.0001    0.2602 O   0  0  0  0  0  0  0  0  0  0  0  0
    7.2455   -1.2742    0.7189 N   0  0  0  0  0  0  0  0  0  0  0  0
    7.3659   -0.1691    1.4330 N   0  0  0  0  0  0  0  0  0  0  0  0
    6.5936    0.7248    0.9196 N   0  0  0  0  0  0  0  0  0  0  0  0
    5.9571    0.2011   -0.1509 C   0  0  0  0  0  0  0  0  0  0  0  0
    6.3744   -1.0967   -0.2891 C   0  0  0  0  0  0  0  0  0  0  0  0
    4.9635    0.9640   -0.9599 C   0  0  0  0  0  0  0  0  0  0  0  0
    3.7870    1.2970   -0.1898 N   0  0  0  0  0  0  0  0  0  0  0  0
    3.3903    2.5512    0.0884 C   0  0  0  0  0  0  0  0  0  0  0  0
    2.1571    2.6563    0.9574 C   0  0  0  0  0  0  0  0  0  0  0  0
    3.9642    3.5474   -0.3320 O   0  0  0  0  0  0  0  0  0  0  0  0
   -6.8080    4.8119   -2.1984 H   0  0  0  0  0  0  0  0  0  0  0  0
   -5.1257    4.2928   -2.3102 H   0  0  0  0  0  0  0  0  0  0  0  0
   -6.3802    3.1427   -1.8469 H   0  0  0  0  0  0  0  0  0  0  0  0
   -7.9296    5.0514    0.1160 H   0  0  0  0  0  0  0  0  0  0  0  0
   -7.5291    3.3816    0.4880 H   0  0  0  0  0  0  0  0  0  0  0  0
   -7.0122    4.6729    1.5755 H   0  0  0  0  0  0  0  0  0  0  0  0
   -2.4869    7.2288    1.1430 H   0  0  0  0  0  0  0  0  0  0  0  0
   -3.5438    9.3273    0.3836 H   0  0  0  0  0  0  0  0  0  0  0  0
   -5.7410    9.3075   -0.7240 H   0  0  0  0  0  0  0  0  0  0  0  0
   -6.9373    7.1694   -1.1052 H   0  0  0  0  0  0  0  0  0  0  0  0
   -3.6055    2.1131    0.9709 H   0  0  0  0  0  0  0  0  0  0  0  0
   -6.4267    1.7813   -0.2064 H   0  0  0  0  0  0  0  0  0  0  0  0
   -4.3178   -0.2022    0.8236 H   0  0  0  0  0  0  0  0  0  0  0  0
   -7.1748   -0.4228   -0.2838 H   0  0  0  0  0  0  0  0  0  0  0  0
   -5.1187   -2.4920    0.7026 H   0  0  0  0  0  0  0  0  0  0  0  0
  -10.9068   -4.3505   -1.2950 H   0  0  0  0  0  0  0  0  0  0  0  0
  -11.1981   -6.8032   -1.1614 H   0  0  0  0  0  0  0  0  0  0  0  0
   -9.3778   -8.2326   -0.3194 H   0  0  0  0  0  0  0  0  0  0  0  0
   -7.2315   -7.2594    0.3985 H   0  0  0  0  0  0  0  0  0  0  0  0
   -5.6369   -6.0254    1.0007 H   0  0  0  0  0  0  0  0  0  0  0  0
   -4.7326   -4.8041    0.1017 H   0  0  0  0  0  0  0  0  0  0  0  0
   -5.2936   -4.4716    1.7527 H   0  0  0  0  0  0  0  0  0  0  0  0
   -9.0013   -1.1402    0.5482 H   0  0  0  0  0  0  0  0  0  0  0  0
  -10.3521   -2.1899    0.1357 H   0  0  0  0  0  0  0  0  0  0  0  0
   -9.2989   -2.6026    1.4894 H   0  0  0  0  0  0  0  0  0  0  0  0
   -7.8244   -2.9595   -2.5718 H   0  0  0  0  0  0  0  0  0  0  0  0
   -9.4739   -2.4032   -2.2814 H   0  0  0  0  0  0  0  0  0  0  0  0
   -8.1166   -1.3547   -1.8968 H   0  0  0  0  0  0  0  0  0  0  0  0
    9.6038   -0.5582   -0.2753 H   0  0  0  0  0  0  0  0  0  0  0  0
   10.9287   -1.7187   -1.9090 H   0  0  0  0  0  0  0  0  0  0  0  0
   12.0006   -0.8258   -0.8443 H   0  0  0  0  0  0  0  0  0  0  0  0
   12.4787   -2.9047    0.4428 H   0  0  0  0  0  0  0  0  0  0  0  0
   10.6738   -4.2078   -1.6303 H   0  0  0  0  0  0  0  0  0  0  0  0
   10.3471   -3.8926    1.3797 H   0  0  0  0  0  0  0  0  0  0  0  0
    8.7949   -2.7111   -0.9604 H   0  0  0  0  0  0  0  0  0  0  0  0
   13.8174   -2.6425   -1.3333 H   0  0  0  0  0  0  0  0  0  0  0  0
   12.4232   -5.5304   -0.8906 H   0  0  0  0  0  0  0  0  0  0  0  0
    9.4758   -5.8234    0.4338 H   0  0  0  0  0  0  0  0  0  0  0  0
    6.1211   -1.8722   -0.9924 H   0  0  0  0  0  0  0  0  0  0  0  0
    5.4009    1.8922   -1.3244 H   0  0  0  0  0  0  0  0  0  0  0  0
    4.6814    0.3764   -1.8354 H   0  0  0  0  0  0  0  0  0  0  0  0
    3.2550    0.5305    0.1891 H   0  0  0  0  0  0  0  0  0  0  0  0
    1.8053    1.6705    1.2700 H   0  0  0  0  0  0  0  0  0  0  0  0
    2.4428    3.1908    1.8681 H   0  0  0  0  0  0  0  0  0  0  0  0
    1.0236    3.4066    0.2616 C   0  0  0  0  0  0  0  0  0  0  0  0
   -0.1789    3.5777    1.1799 C   0  0  0  0  0  0  0  0  0  0  0  0
   -1.3788    4.1941    0.4745 C   0  0  0  0  0  0  0  0  0  0  0  0
   -2.5327    4.4122    1.4460 C   0  0  0  0  0  0  0  0  0  0  0  0
    1.3766    4.3856   -0.0702 H   0  0  0  0  0  0  0  0  0  0  0  0
    0.7241    2.8588   -0.6372 H   0  0  0  0  0  0  0  0  0  0  0  0
   -0.4702    2.6031    1.5849 H   0  0  0  0  0  0  0  0  0  0  0  0
    0.1076    4.1922    2.0397 H   0  0  0  0  0  0  0  0  0  0  0  0
   -1.1006    5.1458    0.0136 H   0  0  0  0  0  0  0  0  0  0  0  0
   -1.7016    3.5361   -0.3376 H   0  0  0  0  0  0  0  0  0  0  0  0
    8.0226   -2.4593    1.0223 C   0  0  0  0  0  0  0  0  0  0  0  0
   10.5935   -1.2603    1.4016 O   0  0  0  0  0  0  0  0  0  0  0  0
   -2.3119    5.2300    2.1324 H   0  0  0  0  0  0  0  0  0  0  0  0
   -2.6870    3.5326    2.0710 H   0  0  0  0  0  0  0  0  0  0  0  0
   11.1027   -0.4448    1.4422 H   0  0  0  0  0  0  0  0  0  0  0  0
    7.3526   -3.3146    0.9694 H   0  0  0  0  0  0  0  0  0  0  0  0
    8.3659   -2.3643    2.0507 H   0  0  0  0  0  0  0  0  0  0  0  0
 24 25  2  0
 24 23  1  0
 25 20  1  0
 23 22  2  0
 26 21  1  0
 20 21  1  0
 20 18  2  0
 21 16  1  0
 22 18  1  0
 18 17  1  0
 16 17  1  0
 16 15  2  0
 17 28  1  6
 17 27  1  0
 15 14  1  0
 35 31  1  0
 30 31  1  0
 30 29  1  0
 31 32  1  0
 29103  1  0
 29 34  1  0
 14 13  2  0
 13 12  1  0
 32 36  1  0
 32 33  1  0
 34 33  1  0
 34102  1  0
 12 11  2  0
 33 37  1  0
102 38  1  0
 11  4  1  0
 42 38  1  0
 42 41  2  0
 38 39  1  0
 46 45  1  0
 44 45  1  0
 44 43  1  0
  3  5  1  6
 41 43  1  0
 41 40  1  0
  4  3  1  0
  4 19  2  0
 45 47  2  0
 39 40  2  0
 95 19  1  0
  3  6  1  0
  3  2  1  0
 19  1  1  0
  1  2  2  0
  1  7  1  0
  2 10  1  0
 10  9  2  0
  7  8  2  0
  8  9  1  0
  5 48  1  0
  5 49  1  0
  5 50  1  0
  6 51  1  0
  6 52  1  0
  6 53  1  0
  7 54  1  0
  8 55  1  0
  9 56  1  0
 10 57  1  0
 11 58  1  0
 12 59  1  0
 13 60  1  0
 14 61  1  0
 15 62  1  0
 22 63  1  0
 23 64  1  0
 24 65  1  0
 25 66  1  0
 26 67  1  0
 26 68  1  0
 26 69  1  0
 27 70  1  0
 27 71  1  0
 27 72  1  0
 28 73  1  0
 28 74  1  0
 28 75  1  0
 95104  1  0
 95105  1  0
 29 76  1  6
 30 77  1  0
 30 78  1  0
 31 79  1  1
 32 80  1  6
 33 81  1  1
 34 82  1  6
103106  1  0
 35 83  1  0
 36 84  1  0
 37 85  1  0
102107  1  0
102108  1  0
 42 86  1  0
 43 87  1  0
 43 88  1  0
 44 89  1  0
 46 90  1  0
 46 91  1  0
 46 92  1  0
 92 93  1  0
 93 94  1  0
 94 95  1  0
 92 96  1  0
 92 97  1  0
 93 98  1  0
 93 99  1  0
 94100  1  0
 94101  1  0
M  CHG  1  19   1
M  END
