
     RDKit          3D

 76 77  0  0  0  0  0  0  0  0999 V2000
   -3.1155   -3.8250   -1.6412 C   0  0  0  0  0  0  0  0  0  0  0  0
   -4.2538   -2.8523   -1.3696 C   0  0  2  0  0  0  0  0  0  0  0  0
   -1.4014   -1.2243   -0.3508 C   0  0  0  0  0  0  0  0  0  0  0  0
    2.9226    2.0263    1.7397 N   0  0  0  0  0  0  0  0  0  0  0  0
    2.5505    0.7738    1.1440 C   0  0  1  0  0  0  0  0  0  0  0  0
    1.3038    0.9263    0.2602 C   0  0  0  0  0  0  0  0  0  0  0  0
    0.7976    2.0047    0.0181 O   0  0  0  0  0  0  0  0  0  0  0  0
    3.7030    0.0623    0.4054 C   0  0  0  0  0  0  0  0  0  0  0  0
    4.9112   -0.1003    1.2842 C   0  0  0  0  0  0  0  0  0  0  0  0
    4.9542   -1.1146    2.2394 C   0  0  0  0  0  0  0  0  0  0  0  0
    5.9999    0.7616    1.1827 C   0  0  0  0  0  0  0  0  0  0  0  0
    6.0522   -1.2620    3.0753 C   0  0  0  0  0  0  0  0  0  0  0  0
    7.1024    0.6172    2.0157 C   0  0  0  0  0  0  0  0  0  0  0  0
    7.1317   -0.3939    2.9666 C   0  0  0  0  0  0  0  0  0  0  0  0
    0.8124   -0.2473   -0.1826 N   0  0  0  0  0  0  0  0  0  0  0  0
   -0.3334   -0.3720   -1.0363 C   0  0  1  0  0  0  0  0  0  0  0  0
   -1.1175   -2.0091    0.5387 O   0  0  0  0  0  0  0  0  0  0  0  0
    0.0480   -1.0114   -2.3884 C   0  0  0  0  0  0  0  0  0  0  0  0
    1.1482   -0.2445   -3.0635 C   0  0  0  0  0  0  0  0  0  0  0  0
    0.8700    0.9426   -3.7371 C   0  0  0  0  0  0  0  0  0  0  0  0
    2.4687   -0.6761   -2.9927 C   0  0  0  0  0  0  0  0  0  0  0  0
    1.8868    1.6822   -4.3232 C   0  0  0  0  0  0  0  0  0  0  0  0
    3.4905    0.0611   -3.5769 C   0  0  0  0  0  0  0  0  0  0  0  0
    3.2027    1.2442   -4.2421 C   0  0  0  0  0  0  0  0  0  0  0  0
   -2.6392   -1.0676   -0.8484 N   0  0  0  0  0  0  0  0  0  0  0  0
   -3.8131   -1.7675   -0.3661 C   0  0  1  0  0  0  0  0  0  0  0  0
   -5.4095   -3.5134   -0.9312 O   0  0  0  0  0  0  0  0  0  0  0  0
   -4.9365   -0.7698   -0.0906 C   0  0  0  0  0  0  0  0  0  0  0  0
   -4.5471    0.2903    0.9315 C   0  0  0  0  0  0  0  0  0  0  0  0
   -5.7173    1.2147    1.2195 C   0  0  0  0  0  0  0  0  0  0  0  0
   -5.3236    2.2486    2.1608 N   0  0  0  0  0  0  0  0  0  0  0  0
   -6.1341    3.1986    2.6065 C   0  0  0  0  0  0  0  0  0  0  0  0
   -5.6841    4.0994    3.4711 N   0  0  0  0  0  0  0  0  0  0  0  0
   -7.3915    3.2568    2.1906 N   0  0  0  0  0  0  0  0  0  0  0  0
    3.7346    3.0556   -0.1052 O   0  0  0  0  0  0  0  0  0  0  0  0
    3.7418    4.2758    1.9541 C   0  0  0  0  0  0  0  0  0  0  0  0
   -2.2559   -3.3237   -2.0774 H   0  0  0  0  0  0  0  0  0  0  0  0
   -2.8017   -4.3397   -0.7323 H   0  0  0  0  0  0  0  0  0  0  0  0
   -4.5232   -2.3616   -2.3108 H   0  0  0  0  0  0  0  0  0  0  0  0
    2.6840    2.1505    2.7089 H   0  0  0  0  0  0  0  0  0  0  0  0
    2.2572    0.1314    1.9803 H   0  0  0  0  0  0  0  0  0  0  0  0
    3.3558   -0.9235    0.0900 H   0  0  0  0  0  0  0  0  0  0  0  0
    3.9523    0.6071   -0.5028 H   0  0  0  0  0  0  0  0  0  0  0  0
    4.1210   -1.8032    2.3273 H   0  0  0  0  0  0  0  0  0  0  0  0
    5.9871    1.5537    0.4447 H   0  0  0  0  0  0  0  0  0  0  0  0
    6.0673   -2.0581    3.8085 H   0  0  0  0  0  0  0  0  0  0  0  0
    7.9408    1.2952    1.9188 H   0  0  0  0  0  0  0  0  0  0  0  0
    7.9910   -0.5086    3.6148 H   0  0  0  0  0  0  0  0  0  0  0  0
    1.2309   -1.1053    0.1405 H   0  0  0  0  0  0  0  0  0  0  0  0
   -0.7253    0.6308   -1.2157 H   0  0  0  0  0  0  0  0  0  0  0  0
    0.3574   -2.0465   -2.2190 H   0  0  0  0  0  0  0  0  0  0  0  0
   -0.8367   -1.0450   -3.0280 H   0  0  0  0  0  0  0  0  0  0  0  0
   -0.1537    1.2928   -3.8081 H   0  0  0  0  0  0  0  0  0  0  0  0
    2.7062   -1.6005   -2.4791 H   0  0  0  0  0  0  0  0  0  0  0  0
    1.6514    2.6007   -4.8455 H   0  0  0  0  0  0  0  0  0  0  0  0
    4.5122   -0.2906   -3.5103 H   0  0  0  0  0  0  0  0  0  0  0  0
    3.9973    1.8203   -4.6985 H   0  0  0  0  0  0  0  0  0  0  0  0
   -2.7821   -0.3731   -1.5670 H   0  0  0  0  0  0  0  0  0  0  0  0
   -3.5317   -2.2547    0.5725 H   0  0  0  0  0  0  0  0  0  0  0  0
   -5.2119   -3.9750   -0.1080 H   0  0  0  0  0  0  0  0  0  0  0  0
   -5.2348   -0.2905   -1.0299 H   0  0  0  0  0  0  0  0  0  0  0  0
   -5.8088   -1.3167    0.2687 H   0  0  0  0  0  0  0  0  0  0  0  0
   -4.2248   -0.1901    1.8602 H   0  0  0  0  0  0  0  0  0  0  0  0
   -3.7042    0.8806    0.5641 H   0  0  0  0  0  0  0  0  0  0  0  0
   -6.0610    1.6730    0.2875 H   0  0  0  0  0  0  0  0  0  0  0  0
   -6.5488    0.6371    1.6326 H   0  0  0  0  0  0  0  0  0  0  0  0
   -4.3776    2.2392    2.5088 H   0  0  0  0  0  0  0  0  0  0  0  0
   -4.7422    4.0616    3.8210 H   0  0  0  0  0  0  0  0  0  0  0  0
   -6.2867    4.8122    3.8449 H   0  0  0  0  0  0  0  0  0  0  0  0
   -7.7662    2.6017    1.5259 H   0  0  0  0  0  0  0  0  0  0  0  0
    4.7701    4.2184    2.3164 H   0  0  0  0  0  0  0  0  0  0  0  0
    3.6464    5.1894    1.3712 H   0  0  0  0  0  0  0  0  0  0  0  0
    3.0871    4.3412    2.8217 H   0  0  0  0  0  0  0  0  0  0  0  0
   -3.6282   -5.0804   -2.8175 Cl  0  0  0  0  0  0  0  0  0  0  0  0
   -8.0158    3.9701    2.5267 H   0  0  0  0  0  0  0  0  0  0  0  0
    3.4540    3.0757    1.0830 C   0  0  0  0  0  0  0  0  0  0  0  0
 22 20  2  0
 22 24  1  0
 20 19  1  0
 24 23  2  0
  1  2  1  0
 19 18  1  0
 19 21  2  0
 18 16  1  0
 14 13  2  0
 14 12  1  0
 13 11  1  0
 23 21  1  0
 27  2  1  0
  2 26  1  0
 12 10  2  0
 17  3  2  0
 16  3  1  0
 16 15  1  0
  3 25  1  0
 11  9  2  0
 15  6  1  0
 25 26  1  0
 26 28  1  0
 10  9  1  0
  9  8  1  0
 36 76  1  0
  6  5  1  0
  6  7  2  0
  5  8  1  0
  5  4  1  0
 28 29  1  0
 76  4  1  0
 76 35  2  0
 29 30  1  0
 30 31  1  0
 31 32  1  0
 32 34  2  0
 32 33  1  0
  1 37  1  0
  1 38  1  0
  2 39  1  6
  4 40  1  0
  5 41  1  1
  8 42  1  0
  8 43  1  0
 10 44  1  0
 11 45  1  0
 12 46  1  0
 13 47  1  0
 14 48  1  0
 15 49  1  0
 16 50  1  6
 18 51  1  0
 18 52  1  0
 20 53  1  0
 21 54  1  0
 22 55  1  0
 23 56  1  0
 24 57  1  0
 25 58  1  0
 26 59  1  1
 27 60  1  0
 28 61  1  0
 28 62  1  0
 29 63  1  0
 29 64  1  0
 30 65  1  0
 30 66  1  0
 31 67  1  0
 33 68  1  0
 33 69  1  0
 34 70  1  0
 34 75  1  0
 36 71  1  0
 36 72  1  0
 36 73  1  0
  1 74  1  0
M  CHG  1  34   1
M  END
