
     RDKit          3D

 30 31  0  0  0  0  0  0  0  0999 V2000
    1.2177   -0.1535    0.3437 C   0  0  0  0  0  0  0  0  0  0  0  0
    3.8988    0.3155   -0.1377 C   0  0  0  0  0  0  0  0  0  0  0  0
    3.2445   -0.6515   -0.8767 C   0  0  0  0  0  0  0  0  0  0  0  0
   -1.0612    0.4061   -0.4792 C   0  0  0  0  0  0  0  0  0  0  0  0
   -3.3863    1.0875   -0.1457 C   0  0  0  0  0  0  0  0  0  0  0  0
   -4.8272    0.6627    0.0154 C   0  0  0  0  0  0  0  0  0  0  0  0
   -2.7501   -1.3139   -0.3698 C   0  0  0  0  0  0  0  0  0  0  0  0
   -1.9092   -2.0142    0.6826 C   0  0  0  0  0  0  0  0  0  0  0  0
   -0.2529   -0.3585    0.5715 C   0  0  1  0  0  0  0  0  0  0  0  0
    1.9099    0.8102    1.0687 C   0  0  0  0  0  0  0  0  0  0  0  0
    3.2556    1.0562    0.8337 C   0  0  0  0  0  0  0  0  0  0  0  0
    1.8984   -0.8789   -0.6312 C   0  0  0  0  0  0  0  0  0  0  0  0
    5.2029    0.5390   -0.3698 F   0  0  0  0  0  0  0  0  0  0  0  0
   -2.4717    0.1086   -0.3369 N   0  0  0  0  0  0  0  0  0  0  0  0
   -3.0702    2.2698   -0.1068 O   0  0  0  0  0  0  0  0  0  0  0  0
   -0.5352   -1.7397    0.5144 O   0  0  0  0  0  0  0  0  0  0  0  0
    3.7750   -1.2169   -1.6316 H   0  0  0  0  0  0  0  0  0  0  0  0
   -0.8965    1.4749   -0.3679 H   0  0  0  0  0  0  0  0  0  0  0  0
   -0.7243    0.1148   -1.4814 H   0  0  0  0  0  0  0  0  0  0  0  0
   -5.1814    0.0907   -0.8427 H   0  0  0  0  0  0  0  0  0  0  0  0
   -4.9669    0.0423    0.9018 H   0  0  0  0  0  0  0  0  0  0  0  0
   -5.4474    1.5489    0.1185 H   0  0  0  0  0  0  0  0  0  0  0  0
   -2.5104   -1.7075   -1.3632 H   0  0  0  0  0  0  0  0  0  0  0  0
   -3.8009   -1.5151   -0.1819 H   0  0  0  0  0  0  0  0  0  0  0  0
   -2.2448   -1.7017    1.6810 H   0  0  0  0  0  0  0  0  0  0  0  0
   -2.0345   -3.0947    0.6049 H   0  0  0  0  0  0  0  0  0  0  0  0
   -0.5275    0.0387    1.5611 H   0  0  0  0  0  0  0  0  0  0  0  0
    1.3973    1.3809    1.8338 H   0  0  0  0  0  0  0  0  0  0  0  0
    3.7927    1.8053    1.4003 H   0  0  0  0  0  0  0  0  0  0  0  0
    1.3831   -1.6352   -1.2090 H   0  0  0  0  0  0  0  0  0  0  0  0
 15  5  2  0
  5  6  1  0
  5 14  1  0
 14  7  1  0
  7  8  1  0
  8 16  1  0
 16  9  1  0
  1 10  2  0
 10 11  1  0
 11  2  2  0
  2 13  1  0
  2  3  1  0
  3 12  2  0
  9  1  1  0
  9  4  1  0
 14  4  1  0
  1 12  1  0
  3 17  1  0
  4 18  1  0
  4 19  1  0
  6 20  1  0
  6 21  1  0
  6 22  1  0
  7 23  1  0
  7 24  1  0
  8 25  1  0
  8 26  1  0
  9 27  1  1
 10 28  1  0
 11 29  1  0
 12 30  1  0
M  END
