
     RDKit          3D

 22 21  0  0  0  0  0  0  0  0999 V2000
   -0.0364   -1.7777   -0.2214 O   0  0  0  0  0  0  0  0  0  0  0  0
    1.2768    1.5710    0.5166 O   0  0  0  0  0  0  0  0  0  0  0  0
   -1.3883    0.4705   -1.4412 O   0  0  0  0  0  0  0  0  0  0  0  0
   -0.0210   -0.4797    0.3364 C   0  0  1  0  0  0  0  0  0  0  0  0
    1.2716    0.2714   -0.0282 C   0  0  2  0  0  0  0  0  0  0  0  0
   -1.2823    0.3070   -0.0418 C   0  0  2  0  0  0  0  0  0  0  0  0
    2.5012   -0.5181    0.3960 C   0  0  0  0  0  0  0  0  0  0  0  0
   -2.5172   -0.3388    0.5622 C   0  0  0  0  0  0  0  0  0  0  0  0
    0.1099   -1.7062   -1.1713 H   0  0  0  0  0  0  0  0  0  0  0  0
   -1.7736   -0.3246   -1.8234 H   0  0  0  0  0  0  0  0  0  0  0  0
    4.4167   -0.3715    0.1766 H   0  0  0  0  0  0  0  0  0  0  0  0
   -4.4212    0.0049    0.5988 H   0  0  0  0  0  0  0  0  0  0  0  0
   -0.0320   -0.6239    1.4244 H   0  0  0  0  0  0  0  0  0  0  0  0
    1.3019    0.4068   -1.1159 H   0  0  0  0  0  0  0  0  0  0  0  0
   -1.1885    1.3133    0.3755 H   0  0  0  0  0  0  0  0  0  0  0  0
    2.4529   -1.5234   -0.0343 H   0  0  0  0  0  0  0  0  0  0  0  0
    2.4845   -0.6410    1.4905 H   0  0  0  0  0  0  0  0  0  0  0  0
   -2.3547   -0.4462    1.6430 H   0  0  0  0  0  0  0  0  0  0  0  0
   -2.6411   -1.3535    0.1593 H   0  0  0  0  0  0  0  0  0  0  0  0
    1.3189    1.5000    1.4768 H   0  0  0  0  0  0  0  0  0  0  0  0
    3.6524    0.1735   -0.0292 O   0  0  0  0  0  0  0  0  0  0  0  0
   -3.6390    0.4660    0.2834 O   0  0  0  0  0  0  0  0  0  0  0  0
 21  7  1  0
  7  5  1  0
  2  5  1  0
  8 22  1  0
  8  6  1  0
  5  4  1  0
  6  4  1  0
  6  3  1  0
  4  1  1  0
  1  9  1  0
  2 20  1  0
  3 10  1  0
 21 11  1  0
 22 12  1  0
  4 13  1  1
  5 14  1  6
  6 15  1  1
  7 16  1  0
  7 17  1  0
  8 18  1  0
  8 19  1  0
M  END
