
     RDKit          3D

 51 53  0  0  0  0  0  0  0  0999 V2000
    3.8659   -1.3377   -0.1455 N   0  0  0  0  0  0  0  0  0  0  0  0
    4.1297   -0.2352    0.5599 C   0  0  0  0  0  0  0  0  0  0  0  0
    5.4053    0.1010    0.9736 C   0  0  0  0  0  0  0  0  0  0  0  0
    6.4718   -0.7455    0.6461 C   0  0  0  0  0  0  0  0  0  0  0  0
    6.1962   -1.8869   -0.0775 C   0  0  0  0  0  0  0  0  0  0  0  0
    4.8685   -2.1495   -0.4598 C   0  0  0  0  0  0  0  0  0  0  0  0
    2.9525    0.6443    0.8711 C   0  0  0  0  0  0  0  0  0  0  0  0
    2.3426    1.2609   -0.3945 C   0  0  0  0  0  0  0  0  0  0  0  0
    1.1179    2.0659   -0.0723 C   0  0  0  0  0  0  0  0  0  0  0  0
    0.0014    1.3833    0.1670 N   0  0  0  0  0  0  0  0  0  0  0  0
   -1.1104    2.0345    0.4984 C   0  0  0  0  0  0  0  0  0  0  0  0
   -1.1480    3.4207    0.6100 C   0  0  0  0  0  0  0  0  0  0  0  0
    0.0110    4.1387    0.3617 C   0  0  0  0  0  0  0  0  0  0  0  0
    1.1640    3.4544    0.0131 C   0  0  0  0  0  0  0  0  0  0  0  0
   -2.3409    1.1989    0.7033 C   0  0  0  0  0  0  0  0  0  0  0  0
   -2.9060    0.7066   -0.6366 C   0  0  0  0  0  0  0  0  0  0  0  0
   -4.0967   -0.1844   -0.4376 C   0  0  0  0  0  0  0  0  0  0  0  0
   -3.9281   -1.5273   -0.0859 C   0  0  0  0  0  0  0  0  0  0  0  0
   -5.0483   -2.3152    0.1152 C   0  0  0  0  0  0  0  0  0  0  0  0
   -6.2912   -1.8419   -0.0047 N   0  0  0  0  0  0  0  0  0  0  0  0
   -6.4619   -0.5646   -0.3287 C   0  0  0  0  0  0  0  0  0  0  0  0
   -5.3808    0.3036   -0.5594 C   0  0  0  0  0  0  0  0  0  0  0  0
   -7.7470   -0.1057   -0.3876 N   0  0  0  0  0  0  0  0  0  0  0  0
   -4.9216   -3.7682    0.4608 C   0  0  0  0  0  0  0  0  0  0  0  0
    7.8699   -0.4039    1.0614 C   0  0  0  0  0  0  0  0  0  0  0  0
    4.5540   -3.2913   -1.1394 N   0  0  0  0  0  0  0  0  0  0  0  0
    5.5749    1.0063    1.5431 H   0  0  0  0  0  0  0  0  0  0  0  0
    6.9864   -2.5752   -0.3540 H   0  0  0  0  0  0  0  0  0  0  0  0
    2.1864    0.0534    1.3804 H   0  0  0  0  0  0  0  0  0  0  0  0
    3.2520    1.4394    1.5570 H   0  0  0  0  0  0  0  0  0  0  0  0
    3.0864    1.8891   -0.8890 H   0  0  0  0  0  0  0  0  0  0  0  0
    2.0794    0.4599   -1.0879 H   0  0  0  0  0  0  0  0  0  0  0  0
   -2.0670    3.9218    0.8848 H   0  0  0  0  0  0  0  0  0  0  0  0
    0.0151    5.2184    0.4375 H   0  0  0  0  0  0  0  0  0  0  0  0
    2.0855    3.9839   -0.1911 H   0  0  0  0  0  0  0  0  0  0  0  0
   -2.0911    0.3383    1.3284 H   0  0  0  0  0  0  0  0  0  0  0  0
   -3.1039    1.7739    1.2318 H   0  0  0  0  0  0  0  0  0  0  0  0
   -3.1823    1.5663   -1.2513 H   0  0  0  0  0  0  0  0  0  0  0  0
   -2.1240    0.1639   -1.1721 H   0  0  0  0  0  0  0  0  0  0  0  0
   -2.9361   -1.9491    0.0212 H   0  0  0  0  0  0  0  0  0  0  0  0
   -5.5591    1.3382   -0.8285 H   0  0  0  0  0  0  0  0  0  0  0  0
   -8.4635   -0.8067   -0.4826 H   0  0  0  0  0  0  0  0  0  0  0  0
   -7.9176    0.7292   -0.9224 H   0  0  0  0  0  0  0  0  0  0  0  0
   -5.5259   -4.0159    1.3341 H   0  0  0  0  0  0  0  0  0  0  0  0
   -5.2775   -4.3912   -0.3622 H   0  0  0  0  0  0  0  0  0  0  0  0
   -3.8890   -4.0434    0.6675 H   0  0  0  0  0  0  0  0  0  0  0  0
    7.9183   -0.1745    2.1264 H   0  0  0  0  0  0  0  0  0  0  0  0
    8.5637   -1.2174    0.8562 H   0  0  0  0  0  0  0  0  0  0  0  0
    8.2228    0.4803    0.5280 H   0  0  0  0  0  0  0  0  0  0  0  0
    5.2957   -3.7568   -1.6348 H   0  0  0  0  0  0  0  0  0  0  0  0
    3.6728   -3.2893   -1.6267 H   0  0  0  0  0  0  0  0  0  0  0  0
  6  1  2  0
  2  1  1  0
  3  2  2  0
  2  7  1  0
  4  3  1  0
  3 27  1  0
 25  4  1  0
  4  5  2  0
  5  6  1  0
  5 28  1  0
  6 26  1  0
  7  8  1  0
  7 29  1  0
  7 30  1  0
  9  8  1  0
  8 31  1  0
  8 32  1  0
 14  9  1  0
  9 10  2  0
 11 10  1  0
 12 11  2  0
 11 15  1  0
 13 12  1  0
 12 33  1  0
 13 14  2  0
 13 34  1  0
 14 35  1  0
 15 16  1  0
 15 36  1  0
 15 37  1  0
 16 17  1  0
 16 38  1  0
 16 39  1  0
 18 17  2  0
 17 22  1  0
 18 19  1  0
 18 40  1  0
 24 19  1  0
 19 20  2  0
 20 21  1  0
 22 21  2  0
 21 23  1  0
 22 41  1  0
 23 42  1  0
 23 43  1  0
 24 44  1  0
 24 45  1  0
 24 46  1  0
 25 47  1  0
 25 48  1  0
 25 49  1  0
 26 50  1  0
 26 51  1  0
M  END
