
     RDKit          3D

 53 56  0  0  0  0  0  0  0  0999 V2000
   -4.8135    4.3415   -0.8929 O   0  0  0  0  0  0  0  0  0  0  0  0
   -5.6623    3.7308   -1.8371 C   0  0  0  0  0  0  0  0  0  0  0  0
   -5.2509    2.2940   -2.0273 C   0  0  0  0  0  0  0  0  0  0  0  0
   -5.4604    1.5746   -0.8345 O   0  0  0  0  0  0  0  0  0  0  0  0
   -5.0920    0.2286   -0.9398 C   0  0  0  0  0  0  0  0  0  0  0  0
   -5.3218   -0.4177    0.4196 C   0  0  0  0  0  0  0  0  0  0  0  0
   -4.9412   -1.8140    0.4176 N   0  0  0  0  0  0  0  0  0  0  0  0
   -5.8371   -2.8325    0.2884 C   0  0  0  0  0  0  0  0  0  0  0  0
   -5.1980   -4.0357    0.1755 C   0  0  0  0  0  0  0  0  0  0  0  0
   -3.8110   -3.7473    0.2228 C   0  0  0  0  0  0  0  0  0  0  0  0
   -2.7564   -4.5783    0.1342 N   0  0  0  0  0  0  0  0  0  0  0  0
   -1.5937   -3.9773    0.1944 C   0  0  0  0  0  0  0  0  0  0  0  0
   -1.3555   -2.6726    0.3502 N   0  0  0  0  0  0  0  0  0  0  0  0
   -2.3738   -1.8359    0.4550 C   0  0  0  0  0  0  0  0  0  0  0  0
   -2.1145   -0.5036    0.6256 N   0  0  0  0  0  0  0  0  0  0  0  0
   -0.8439    0.0754    0.6611 C   0  0  0  0  0  0  0  0  0  0  0  0
    0.1534   -0.2331   -0.2556 C   0  0  0  0  0  0  0  0  0  0  0  0
    1.3478    0.3437   -0.2292 N   0  0  0  0  0  0  0  0  0  0  0  0
    1.6138    1.2554    0.6698 C   0  0  0  0  0  0  0  0  0  0  0  0
    2.8225    1.8499    0.6964 O   0  0  0  0  0  0  0  0  0  0  0  0
    3.7770    1.4330   -0.2013 C   0  0  0  0  0  0  0  0  0  0  0  0
    3.9322    2.1179   -1.3959 C   0  0  0  0  0  0  0  0  0  0  0  0
    4.9419    1.7367   -2.2643 C   0  0  0  0  0  0  0  0  0  0  0  0
    5.7841    0.6788   -1.9491 C   0  0  0  0  0  0  0  0  0  0  0  0
    5.6115    0.0036   -0.7491 C   0  0  0  0  0  0  0  0  0  0  0  0
    4.6039    0.3778    0.1337 C   0  0  0  0  0  0  0  0  0  0  0  0
    6.4961   -1.1410   -0.3629 C   0  0  1  0  0  0  0  0  0  0  0  0
    7.1585   -0.8905    0.7754 F   0  0  0  0  0  0  0  0  0  0  0  0
    5.7890   -2.2604   -0.1523 F   0  0  0  0  0  0  0  0  0  0  0  0
    7.4095   -1.4239   -1.2940 F   0  0  0  0  0  0  0  0  0  0  0  0
    0.6743    1.6577    1.6186 C   0  0  0  0  0  0  0  0  0  0  0  0
    1.0671    2.8709    2.7731 Cl  0  0  0  0  0  0  0  0  0  0  0  0
   -0.5620    1.0499    1.6175 C   0  0  0  0  0  0  0  0  0  0  0  0
   -3.6777   -2.3542    0.3747 C   0  0  0  0  0  0  0  0  0  0  0  0
   -5.1060    5.2489   -0.7721 H   0  0  0  0  0  0  0  0  0  0  0  0
   -6.7144    3.7696   -1.5265 H   0  0  0  0  0  0  0  0  0  0  0  0
   -5.6038    4.2185   -2.8184 H   0  0  0  0  0  0  0  0  0  0  0  0
   -5.8422    1.8703   -2.8501 H   0  0  0  0  0  0  0  0  0  0  0  0
   -4.1958    2.2401   -2.3315 H   0  0  0  0  0  0  0  0  0  0  0  0
   -5.6886   -0.2974   -1.6981 H   0  0  0  0  0  0  0  0  0  0  0  0
   -4.0390    0.1281   -1.2399 H   0  0  0  0  0  0  0  0  0  0  0  0
   -4.7921    0.1199    1.2081 H   0  0  0  0  0  0  0  0  0  0  0  0
   -6.3788   -0.3678    0.6793 H   0  0  0  0  0  0  0  0  0  0  0  0
   -6.8945   -2.6181    0.2875 H   0  0  0  0  0  0  0  0  0  0  0  0
   -5.6617   -5.0028    0.0703 H   0  0  0  0  0  0  0  0  0  0  0  0
   -0.7117   -4.6044    0.1162 H   0  0  0  0  0  0  0  0  0  0  0  0
   -2.8463    0.0569    1.0289 H   0  0  0  0  0  0  0  0  0  0  0  0
   -0.0106   -0.9650   -1.0336 H   0  0  0  0  0  0  0  0  0  0  0  0
    3.2756    2.9429   -1.6405 H   0  0  0  0  0  0  0  0  0  0  0  0
    5.0736    2.2653   -3.1983 H   0  0  0  0  0  0  0  0  0  0  0  0
    6.5626    0.3985   -2.6445 H   0  0  0  0  0  0  0  0  0  0  0  0
    4.4585   -0.1349    1.0768 H   0  0  0  0  0  0  0  0  0  0  0  0
   -1.3044    1.3281    2.3547 H   0  0  0  0  0  0  0  0  0  0  0  0
  1  2  1  0
  1 35  1  0
  2  3  1  0
  2 36  1  0
  2 37  1  0
  4  3  1  0
  3 38  1  0
  3 39  1  0
  4  5  1  0
  6  5  1  0
  5 40  1  0
  5 41  1  0
  6  7  1  0
  6 42  1  0
  6 43  1  0
 34  7  1  0
  7  8  1  0
  8  9  2  0
  8 44  1  0
 10  9  1  0
  9 45  1  0
 34 10  2  0
 11 10  1  0
 12 11  2  0
 13 12  1  0
 12 46  1  0
 13 14  2  0
 15 14  1  0
 14 34  1  0
 16 15  1  0
 15 47  1  0
 33 16  1  0
 16 17  2  0
 18 17  1  0
 17 48  1  0
 19 18  2  0
 20 19  1  0
 31 19  1  0
 20 21  1  0
 26 21  1  0
 21 22  2  0
 22 23  1  0
 22 49  1  0
 24 23  2  0
 23 50  1  0
 25 24  1  0
 24 51  1  0
 27 25  1  0
 26 25  2  0
 26 52  1  0
 27 29  1  1
 28 27  1  0
 27 30  1  0
 32 31  1  0
 31 33  2  0
 33 53  1  0
M  END
