
     RDKit          3D

  9  9  0  0  0  0  0  0  0  0999 V2000
   -1.8339    0.0303    0.0388 Cl  0  0  0  0  0  0  0  0  0  0  0  0
   -0.1319   -0.0574    0.0317 C   0  0  0  0  0  0  0  0  0  0  0  0
    0.6305    1.0494    0.0237 N   0  0  0  0  0  0  0  0  0  0  0  0
    1.9314    0.6294    0.0209 C   0  0  0  0  0  0  0  0  0  0  0  0
    1.8694   -0.7329    0.0266 C   0  0  0  0  0  0  0  0  0  0  0  0
    0.5648   -1.1522    0.0334 N   0  0  0  0  0  0  0  0  0  0  0  0
    0.3089    2.0053    0.0251 H   0  0  0  0  0  0  0  0  0  0  0  0
    2.7568    1.3198    0.0143 H   0  0  0  0  0  0  0  0  0  0  0  0
    2.6876   -1.4349    0.0270 H   0  0  0  0  0  0  0  0  0  0  0  0
  6  5  1  0
  6  2  2  0
  5  4  2  0
  2  1  1  0
  2  3  1  0
  4  3  1  0
  3  7  1  0
  4  8  1  0
  5  9  1  0
M  END
