
     RDKit          3D

 47 48  0  0  0  0  0  0  0  0999 V2000
    2.9552    1.0836   -4.6177 C   0  0  0  0  0  0  0  0  0  0  0  0
    3.0616    2.2924   -3.9539 C   0  0  0  0  0  0  0  0  0  0  0  0
    4.2628    2.8024   -3.4864 C   0  0  0  0  0  0  0  0  0  0  0  0
    5.4022    2.0318   -3.7148 C   0  0  0  0  0  0  0  0  0  0  0  0
    5.3243    0.8245   -4.3729 C   0  0  0  0  0  0  0  0  0  0  0  0
    4.1040    0.3515   -4.8236 C   0  0  0  0  0  0  0  0  0  0  0  0
    6.4262    0.0984   -4.5890 F   0  0  0  0  0  0  0  0  0  0  0  0
    1.9332    2.9897   -3.7513 F   0  0  0  0  0  0  0  0  0  0  0  0
    4.3662    4.1058   -2.7483 C   0  0  0  0  0  0  0  0  0  0  0  0
    4.4716    3.9487   -1.2235 C   0  0  2  0  0  0  0  0  0  0  0  0
    3.2595    3.1979   -0.6678 C   0  0  0  0  0  0  0  0  0  0  0  0
    3.3830    2.8490    0.7999 C   0  0  0  0  0  0  0  0  0  0  0  0
    2.2972    2.2855    1.3949 N   0  0  0  0  0  0  0  0  0  0  0  0
    4.6809    5.2693   -0.6554 N   0  0  0  0  0  0  0  0  0  0  0  0
    4.4048    3.0686    1.4318 O   0  0  0  0  0  0  0  0  0  0  0  0
    1.2741    1.5913    0.6248 C   0  0  0  0  0  0  0  0  0  0  0  0
    1.6982    0.1676    0.2931 C   0  0  0  0  0  0  0  0  0  0  0  0
    2.0384   -0.6661    1.5221 C   0  0  0  0  0  0  0  0  0  0  0  0
    3.2554   -0.2844    2.2283 N   0  0  0  0  0  0  0  0  0  0  0  0
    3.4374    0.8043    3.0005 C   0  0  0  0  0  0  0  0  0  0  0  0
    2.3936    1.9065    2.7976 C   0  0  1  0  0  0  0  0  0  0  0  0
    2.6065    3.0623    3.7716 C   0  0  0  0  0  0  0  0  0  0  0  0
    4.3541    0.9039    3.7982 O   0  0  0  0  0  0  0  0  0  0  0  0
    4.0473   -0.8193   -5.4611 F   0  0  0  0  0  0  0  0  0  0  0  0
    1.6226    4.1873    3.5914 C   0  0  2  0  0  0  0  0  0  0  0  0
    1.8376    4.9119    2.4837 F   0  0  0  0  0  0  0  0  0  0  0  0
    1.6834    5.0485    4.6201 F   0  0  0  0  0  0  0  0  0  0  0  0
    0.3509    3.7577    3.5254 F   0  0  0  0  0  0  0  0  0  0  0  0
    1.9974    0.7198   -4.9661 H   0  0  0  0  0  0  0  0  0  0  0  0
    6.3685    2.3856   -3.3769 H   0  0  0  0  0  0  0  0  0  0  0  0
    3.5187    4.7527   -2.9861 H   0  0  0  0  0  0  0  0  0  0  0  0
    5.2607    4.6312   -3.0875 H   0  0  0  0  0  0  0  0  0  0  0  0
    5.3681    3.3597   -1.0104 H   0  0  0  0  0  0  0  0  0  0  0  0
    2.3546    3.7930   -0.8291 H   0  0  0  0  0  0  0  0  0  0  0  0
    3.1137    2.2664   -1.2231 H   0  0  0  0  0  0  0  0  0  0  0  0
    4.8612    5.1867    0.3363 H   0  0  0  0  0  0  0  0  0  0  0  0
    3.8354    5.8216   -0.7471 H   0  0  0  0  0  0  0  0  0  0  0  0
    1.0391    2.1467   -0.2804 H   0  0  0  0  0  0  0  0  0  0  0  0
    0.3555    1.5814    1.2148 H   0  0  0  0  0  0  0  0  0  0  0  0
    2.5531    0.1712   -0.3890 H   0  0  0  0  0  0  0  0  0  0  0  0
    0.8776   -0.3274   -0.2311 H   0  0  0  0  0  0  0  0  0  0  0  0
    1.1856   -0.6756    2.2088 H   0  0  0  0  0  0  0  0  0  0  0  0
    2.1884   -1.6975    1.2103 H   0  0  0  0  0  0  0  0  0  0  0  0
    3.9327   -1.0195    2.3671 H   0  0  0  0  0  0  0  0  0  0  0  0
    1.4269    1.4601    3.0499 H   0  0  0  0  0  0  0  0  0  0  0  0
    3.6143    3.4677    3.7121 H   0  0  0  0  0  0  0  0  0  0  0  0
    2.4760    2.6735    4.7835 H   0  0  0  0  0  0  0  0  0  0  0  0
  1  2  2  0
  1  6  1  0
  1 29  1  0
  2  8  1  0
  2  3  1  0
  3  9  1  0
  3  4  2  0
  4  5  1  0
  4 30  1  0
  5  6  2  0
  5  7  1  0
  6 24  1  0
  9 10  1  0
  9 31  1  0
  9 32  1  0
 10 11  1  0
 10 14  1  0
 10 33  1  6
 11 12  1  0
 11 34  1  0
 11 35  1  0
 12 13  1  0
 12 15  2  0
 13 16  1  0
 13 21  1  0
 14 36  1  0
 14 37  1  0
 16 17  1  0
 16 38  1  0
 16 39  1  0
 17 18  1  0
 17 40  1  0
 17 41  1  0
 18 19  1  0
 18 42  1  0
 18 43  1  0
 19 20  1  0
 19 44  1  0
 20 21  1  0
 20 23  2  0
 21 22  1  0
 21 45  1  1
 22 25  1  0
 22 46  1  0
 22 47  1  0
 25 28  1  6
 25 26  1  0
 25 27  1  0
M  END
