
     RDKit          3D

 37 38  0  0  0  0  0  0  0  0999 V2000
   -6.6466   -0.5344    0.1467 O   0  0  0  0  0  0  0  0  0  0  0  0
   -5.6104   -0.0415    0.6034 C   0  0  0  0  0  0  0  0  0  0  0  0
   -4.1645   -0.4471    0.3270 C   0  0  1  0  0  0  0  0  0  0  0  0
   -4.0275   -1.8169   -0.1024 N   0  0  0  0  0  0  0  0  0  0  0  0
   -3.5746    0.5689   -0.6718 C   0  0  0  0  0  0  0  0  0  0  0  0
   -2.0890    0.5343   -0.6786 C   0  0  0  0  0  0  0  0  0  0  0  0
   -1.3637    1.3924    0.1598 C   0  0  0  0  0  0  0  0  0  0  0  0
    0.0242    1.3735    0.1669 C   0  0  0  0  0  0  0  0  0  0  0  0
    0.7046    0.4787   -0.6812 C   0  0  0  0  0  0  0  0  0  0  0  0
   -0.0065   -0.3836   -1.5231 C   0  0  0  0  0  0  0  0  0  0  0  0
   -1.4000   -0.3482   -1.5142 C   0  0  0  0  0  0  0  0  0  0  0  0
    2.0815    0.5425   -0.5945 O   0  0  0  0  0  0  0  0  0  0  0  0
    2.7339   -0.6714   -0.1939 C   0  0  0  0  0  0  0  0  0  0  0  0
    4.1766   -0.3671    0.0436 C   0  0  0  0  0  0  0  0  0  0  0  0
    4.8773    0.5377   -0.7604 C   0  0  0  0  0  0  0  0  0  0  0  0
    6.2247    0.7968   -0.5081 C   0  0  0  0  0  0  0  0  0  0  0  0
    6.8761    0.1561    0.5449 C   0  0  0  0  0  0  0  0  0  0  0  0
    6.1789   -0.7465    1.3483 C   0  0  0  0  0  0  0  0  0  0  0  0
    4.8335   -1.0088    1.1004 C   0  0  0  0  0  0  0  0  0  0  0  0
   -3.6104   -0.3388    1.3093 H   0  0  0  0  0  0  0  0  0  0  0  0
   -4.1848   -2.4450    0.6610 H   0  0  0  0  0  0  0  0  0  0  0  0
   -3.9668    0.3632   -1.7027 H   0  0  0  0  0  0  0  0  0  0  0  0
   -3.9317    1.5906   -0.3685 H   0  0  0  0  0  0  0  0  0  0  0  0
   -1.8991    2.0908    0.8215 H   0  0  0  0  0  0  0  0  0  0  0  0
    0.6006    2.0428    0.8208 H   0  0  0  0  0  0  0  0  0  0  0  0
    0.5113   -1.0863   -2.1892 H   0  0  0  0  0  0  0  0  0  0  0  0
   -1.9622   -1.0254   -2.1756 H   0  0  0  0  0  0  0  0  0  0  0  0
    2.2470   -1.0626    0.7394 H   0  0  0  0  0  0  0  0  0  0  0  0
    2.6333   -1.4305   -1.0181 H   0  0  0  0  0  0  0  0  0  0  0  0
    4.3599    1.0416   -1.5914 H   0  0  0  0  0  0  0  0  0  0  0  0
    6.7724    1.5089   -1.1428 H   0  0  0  0  0  0  0  0  0  0  0  0
    7.9385    0.3615    0.7428 H   0  0  0  0  0  0  0  0  0  0  0  0
    6.6912   -1.2529    2.1796 H   0  0  0  0  0  0  0  0  0  0  0  0
    4.2866   -1.7211    1.7357 H   0  0  0  0  0  0  0  0  0  0  0  0
   -5.7512    0.9997    1.4669 O   0  0  0  0  0  0  0  0  0  0  0  0
   -6.6948    1.1973    1.5910 H   0  0  0  0  0  0  0  0  0  0  0  0
   -4.6664   -2.0304   -0.8427 H   0  0  0  0  0  0  0  0  0  0  0  0
  1  2  2  0
  2  3  1  0
  3  5  1  0
  3  4  1  0
  3 20  1  1
  4 21  1  0
  5  6  1  0
  5 22  1  0
  5 23  1  0
  6 11  2  0
  6  7  1  0
  7  8  2  0
  7 24  1  0
  8  9  1  0
  8 25  1  0
 10  9  2  0
  9 12  1  0
 11 10  1  0
 10 26  1  0
 11 27  1  0
 12 13  1  0
 13 14  1  0
 13 28  1  0
 13 29  1  0
 15 14  2  0
 14 19  1  0
 16 15  1  0
 15 30  1  0
 16 17  2  0
 16 31  1  0
 17 18  1  0
 17 32  1  0
 18 19  2  0
 18 33  1  0
 19 34  1  0
  2 35  1  0
 35 36  1  0
  4 37  1  0
M  END
