
     RDKit          3D

 31 32  0  0  0  0  0  0  0  0999 V2000
   -2.3640   -0.7841    1.2175 N   0  0  0  0  0  0  0  0  0  0  0  0
   -2.4943    0.3822    0.3606 C   0  0  2  0  0  0  0  0  0  0  0  0
   -3.9037    0.9114    0.3287 C   0  0  0  0  0  0  0  0  0  0  0  0
    1.4753   -0.6179   -0.2224 C   0  0  0  0  0  0  0  0  0  0  0  0
    1.7817   -1.9767   -0.3153 C   0  0  0  0  0  0  0  0  0  0  0  0
    3.0838   -2.4150   -0.1345 C   0  0  0  0  0  0  0  0  0  0  0  0
    3.8089   -0.1683    0.2218 C   0  0  0  0  0  0  0  0  0  0  0  0
   -3.9646    2.0819   -0.2885 O   0  0  0  0  0  0  0  0  0  0  0  0
   -4.8653    0.3399    0.7786 O   0  0  0  0  0  0  0  0  0  0  0  0
   -2.0200   -0.0784   -1.0273 C   0  0  0  0  0  0  0  0  0  0  0  0
   -1.3286   -1.6500    0.6402 C   0  0  0  0  0  0  0  0  0  0  0  0
   -0.8569   -0.9804   -0.6614 C   0  0  2  0  0  0  0  0  0  0  0  0
    0.2550   -0.1194   -0.4352 O   0  0  0  0  0  0  0  0  0  0  0  0
    4.1064   -1.5170    0.1330 C   0  0  0  0  0  0  0  0  0  0  0  0
    2.5048    0.3003    0.0621 C   0  0  0  0  0  0  0  0  0  0  0  0
    2.2149    1.7446    0.2405 C   0  0  0  0  0  0  0  0  0  0  0  0
    3.2697    2.5022   -0.0527 O   0  0  0  0  0  0  0  0  0  0  0  0
    1.1697    2.2077    0.6250 O   0  0  0  0  0  0  0  0  0  0  0  0
   -3.2447   -1.2809    1.2422 H   0  0  0  0  0  0  0  0  0  0  0  0
   -1.8383    1.1876    0.7104 H   0  0  0  0  0  0  0  0  0  0  0  0
    1.0129   -2.7062   -0.5287 H   0  0  0  0  0  0  0  0  0  0  0  0
    3.2937   -3.4742   -0.2070 H   0  0  0  0  0  0  0  0  0  0  0  0
    4.6046    0.5308    0.4389 H   0  0  0  0  0  0  0  0  0  0  0  0
   -4.8825    2.3892   -0.3346 H   0  0  0  0  0  0  0  0  0  0  0  0
   -2.7932   -0.6821   -1.5092 H   0  0  0  0  0  0  0  0  0  0  0  0
   -1.7433    0.7301   -1.7026 H   0  0  0  0  0  0  0  0  0  0  0  0
   -0.4961   -1.7920    1.3343 H   0  0  0  0  0  0  0  0  0  0  0  0
   -1.7316   -2.6406    0.4218 H   0  0  0  0  0  0  0  0  0  0  0  0
   -0.6283   -1.7004   -1.4522 H   0  0  0  0  0  0  0  0  0  0  0  0
    5.1216   -1.8608    0.2745 H   0  0  0  0  0  0  0  0  0  0  0  0
    3.0637    3.4298    0.1351 H   0  0  0  0  0  0  0  0  0  0  0  0
 14  7  2  0
 14  6  1  0
  7 15  1  0
  6  5  2  0
 15 16  1  0
 15  4  2  0
  5  4  1  0
 16 18  2  0
 16 17  1  0
  4 13  1  0
 12 10  1  0
 12 13  1  0
 12 11  1  0
 10  2  1  0
 11  1  1  0
  9  3  2  0
  2  3  1  0
  2  1  1  0
  3  8  1  0
  1 19  1  0
  2 20  1  1
  5 21  1  0
  6 22  1  0
  7 23  1  0
  8 24  1  0
 10 25  1  0
 10 26  1  0
 11 27  1  0
 11 28  1  0
 12 29  1  6
 14 30  1  0
 17 31  1  0
M  END
