
     RDKit          3D

 42 44  0  0  0  0  0  0  0  0999 V2000
    1.6356   -0.7480    1.2031 O   0  0  0  0  0  0  0  0  0  0  0  0
    2.2325   -0.0012    0.4480 C   0  0  0  0  0  0  0  0  0  0  0  0
    1.6654    1.1051   -0.0942 N   0  0  0  0  0  0  0  0  0  0  0  0
    0.3355    1.5159    0.1366 C   0  0  0  0  0  0  0  0  0  0  0  0
   -0.7280    0.6723   -0.1405 C   0  0  0  0  0  0  0  0  0  0  0  0
   -2.0477    1.0651    0.0708 C   0  0  0  0  0  0  0  0  0  0  0  0
   -2.2661    2.3577    0.5514 C   0  0  0  0  0  0  0  0  0  0  0  0
   -1.2150    3.2120    0.8227 C   0  0  0  0  0  0  0  0  0  0  0  0
    0.1115    2.8090    0.6368 C   0  0  0  0  0  0  0  0  0  0  0  0
    1.1629    3.6626    0.8770 N   0  0  0  0  0  0  0  0  0  0  0  0
   -3.1669    0.1452   -0.2032 C   0  0  0  0  0  0  0  0  0  0  0  0
   -4.3925    0.6181   -0.6776 C   0  0  0  0  0  0  0  0  0  0  0  0
   -5.4505   -0.2414   -0.9319 C   0  0  0  0  0  0  0  0  0  0  0  0
   -5.2734   -1.5937   -0.7134 C   0  0  0  0  0  0  0  0  0  0  0  0
   -6.2920   -2.4345   -0.9601 F   0  0  0  0  0  0  0  0  0  0  0  0
   -4.0785   -2.1053   -0.2469 C   0  0  0  0  0  0  0  0  0  0  0  0
   -3.0350   -1.2292    0.0086 C   0  0  0  0  0  0  0  0  0  0  0  0
    3.6596   -0.2561    0.0088 C   0  0  1  0  0  0  0  0  0  0  0  0
    4.5388   -0.7132    1.1701 C   0  0  0  0  0  0  0  0  0  0  0  0
    5.9243   -1.0772    0.6606 C   0  0  0  0  0  0  0  0  0  0  0  0
    5.8766   -2.0659   -0.3450 O   0  0  0  0  0  0  0  0  0  0  0  0
    5.1221   -1.6526   -1.4624 C   0  0  0  0  0  0  0  0  0  0  0  0
    3.6844   -1.3239   -1.0922 C   0  0  0  0  0  0  0  0  0  0  0  0
    2.2387    1.6881   -0.6863 H   0  0  0  0  0  0  0  0  0  0  0  0
   -0.5141   -0.3036   -0.5573 H   0  0  0  0  0  0  0  0  0  0  0  0
   -3.2749    2.7010    0.7443 H   0  0  0  0  0  0  0  0  0  0  0  0
   -1.4185    4.2024    1.2118 H   0  0  0  0  0  0  0  0  0  0  0  0
    0.9468    4.4585    1.4560 H   0  0  0  0  0  0  0  0  0  0  0  0
    2.0305    3.2283    1.1512 H   0  0  0  0  0  0  0  0  0  0  0  0
   -4.5277    1.6746   -0.8706 H   0  0  0  0  0  0  0  0  0  0  0  0
   -6.3932    0.1373   -1.3043 H   0  0  0  0  0  0  0  0  0  0  0  0
   -3.9640   -3.1672   -0.0735 H   0  0  0  0  0  0  0  0  0  0  0  0
   -2.1083   -1.6286    0.4007 H   0  0  0  0  0  0  0  0  0  0  0  0
    4.0833    0.6673   -0.4046 H   0  0  0  0  0  0  0  0  0  0  0  0
    4.6306    0.0740    1.9223 H   0  0  0  0  0  0  0  0  0  0  0  0
    4.0879   -1.5796    1.6596 H   0  0  0  0  0  0  0  0  0  0  0  0
    6.4281   -0.1735    0.2854 H   0  0  0  0  0  0  0  0  0  0  0  0
    6.5355   -1.4773    1.4714 H   0  0  0  0  0  0  0  0  0  0  0  0
    5.5866   -0.7742   -1.9345 H   0  0  0  0  0  0  0  0  0  0  0  0
    5.1519   -2.4674   -2.1875 H   0  0  0  0  0  0  0  0  0  0  0  0
    3.1762   -2.2273   -0.7425 H   0  0  0  0  0  0  0  0  0  0  0  0
    3.1561   -0.9763   -1.9833 H   0  0  0  0  0  0  0  0  0  0  0  0
 10  9  1  0
 20 19  1  0
 20 21  1  0
  1  2  2  0
 18 19  1  0
 18  2  1  0
 18 23  1  0
  2  3  1  0
 22 21  1  0
 22 23  1  0
  9  8  2  0
  9  4  1  0
  8  7  1  0
  3  4  1  0
  4  5  2  0
  7  6  2  0
  5  6  1  0
  6 11  1  0
 11 12  2  0
 11 17  1  0
 12 13  1  0
 17 16  2  0
 13 14  2  0
 16 14  1  0
 14 15  1  0
  3 24  1  0
  5 25  1  0
  7 26  1  0
  8 27  1  0
 10 28  1  0
 10 29  1  0
 12 30  1  0
 13 31  1  0
 16 32  1  0
 17 33  1  0
 18 34  1  6
 19 35  1  0
 19 36  1  0
 20 37  1  0
 20 38  1  0
 22 39  1  0
 22 40  1  0
 23 41  1  0
 23 42  1  0
M  END
