
     RDKit          3D

 52 53  0  0  0  0  0  0  0  0999 V2000
    6.7635    1.8913    1.0392 N   0  0  0  0  0  0  0  0  0  0  0  0
    5.5479    1.6075    0.4859 C   0  0  0  0  0  0  0  0  0  0  0  0
    4.8409    2.5880   -0.2323 C   0  0  0  0  0  0  0  0  0  0  0  0
    3.6424    2.2481   -0.8240 C   0  0  0  0  0  0  0  0  0  0  0  0
    2.8599    3.2465   -1.6211 C   0  0  0  0  0  0  0  0  0  0  0  0
    3.1752    0.9360   -0.6782 C   0  0  0  0  0  0  0  0  0  0  0  0
    5.0957    0.3668    0.6220 N   0  0  0  0  0  0  0  0  0  0  0  0
    3.9328    0.0430    0.0536 C   0  0  0  0  0  0  0  0  0  0  0  0
    3.5139   -1.3836    0.2923 C   0  0  0  0  0  0  0  0  0  0  0  0
    2.3251   -1.6755   -0.3869 O   0  0  0  0  0  0  0  0  0  0  0  0
    1.4680   -2.6343    0.2003 C   0  0  2  0  0  0  0  0  0  0  0  0
    1.8261   -4.0570   -0.2119 C   0  0  0  0  0  0  0  0  0  0  0  0
    3.1429   -4.4461    0.2632 N   0  0  0  0  0  0  0  0  0  0  0  0
    0.0390   -2.2993   -0.2038 C   0  0  0  0  0  0  0  0  0  0  0  0
   -0.4043   -0.9279    0.2682 C   0  0  0  0  0  0  0  0  0  0  0  0
   -1.7793   -0.7846   -0.0058 O   0  0  0  0  0  0  0  0  0  0  0  0
   -2.2897    0.4558    0.3846 C   0  0  0  0  0  0  0  0  0  0  0  0
   -3.7631    0.5434    0.0954 C   0  0  0  0  0  0  0  0  0  0  0  0
   -4.3133    1.7092    0.4385 N   0  0  0  0  0  0  0  0  0  0  0  0
   -5.6132    1.8837    0.2336 C   0  0  0  0  0  0  0  0  0  0  0  0
   -6.1558    3.0689    0.6403 N   0  0  0  0  0  0  0  0  0  0  0  0
   -6.4222    0.8832   -0.3332 C   0  0  0  0  0  0  0  0  0  0  0  0
   -4.4762   -0.4951   -0.4696 C   0  0  0  0  0  0  0  0  0  0  0  0
   -5.8477   -0.3173   -0.6936 C   0  0  0  0  0  0  0  0  0  0  0  0
   -6.6581   -1.4042   -1.3312 C   0  0  0  0  0  0  0  0  0  0  0  0
    7.0805    1.2670    1.7627 H   0  0  0  0  0  0  0  0  0  0  0  0
    6.9841    2.8587    1.2061 H   0  0  0  0  0  0  0  0  0  0  0  0
    5.2350    3.5940   -0.3125 H   0  0  0  0  0  0  0  0  0  0  0  0
    3.0189    3.0893   -2.6898 H   0  0  0  0  0  0  0  0  0  0  0  0
    1.7899    3.1472   -1.4385 H   0  0  0  0  0  0  0  0  0  0  0  0
    3.1549    4.2690   -1.3908 H   0  0  0  0  0  0  0  0  0  0  0  0
    2.2377    0.6375   -1.1250 H   0  0  0  0  0  0  0  0  0  0  0  0
    4.3264   -2.0517   -0.0121 H   0  0  0  0  0  0  0  0  0  0  0  0
    3.3958   -1.5269    1.3756 H   0  0  0  0  0  0  0  0  0  0  0  0
    1.5401   -2.5634    1.2982 H   0  0  0  0  0  0  0  0  0  0  0  0
    1.0203   -4.7183    0.1382 H   0  0  0  0  0  0  0  0  0  0  0  0
    1.8197   -4.1151   -1.3041 H   0  0  0  0  0  0  0  0  0  0  0  0
    3.1244   -4.5384    1.2716 H   0  0  0  0  0  0  0  0  0  0  0  0
    3.3672   -5.3671   -0.0909 H   0  0  0  0  0  0  0  0  0  0  0  0
   -0.0683   -2.3761   -1.2905 H   0  0  0  0  0  0  0  0  0  0  0  0
   -0.6209   -3.0521    0.2348 H   0  0  0  0  0  0  0  0  0  0  0  0
   -0.2159   -0.8227    1.3470 H   0  0  0  0  0  0  0  0  0  0  0  0
    0.1665   -0.1368   -0.2334 H   0  0  0  0  0  0  0  0  0  0  0  0
   -2.1334    0.6302    1.4597 H   0  0  0  0  0  0  0  0  0  0  0  0
   -1.7782    1.2795   -0.1353 H   0  0  0  0  0  0  0  0  0  0  0  0
   -5.5094    3.8278    0.7812 H   0  0  0  0  0  0  0  0  0  0  0  0
   -7.0274    3.3463    0.2209 H   0  0  0  0  0  0  0  0  0  0  0  0
   -7.4805    1.0602   -0.4834 H   0  0  0  0  0  0  0  0  0  0  0  0
   -3.9953   -1.4252   -0.7381 H   0  0  0  0  0  0  0  0  0  0  0  0
   -6.4928   -1.4181   -2.4103 H   0  0  0  0  0  0  0  0  0  0  0  0
   -6.3722   -2.3847   -0.9510 H   0  0  0  0  0  0  0  0  0  0  0  0
   -7.7249   -1.2672   -1.1612 H   0  0  0  0  0  0  0  0  0  0  0  0
  5  4  1  0
  4  3  1  0
  4  6  2  0
  3  2  2  0
  6  8  1  0
  2  1  1  0
  2  7  1  0
  8  7  2  0
  8  9  1  0
 14 11  1  0
 14 15  1  0
 10  9  1  0
 10 11  1  0
 11 12  1  0
 15 16  1  0
 12 13  1  0
 16 17  1  0
 21 20  1  0
 20 19  2  0
 20 22  1  0
 19 18  1  0
 17 18  1  0
 22 24  2  0
 18 23  2  0
 24 23  1  0
 24 25  1  0
  1 26  1  0
  1 27  1  0
  3 28  1  0
  5 29  1  0
  5 30  1  0
  5 31  1  0
  6 32  1  0
  9 33  1  0
  9 34  1  0
 11 35  1  1
 12 36  1  0
 12 37  1  0
 13 38  1  0
 13 39  1  0
 14 40  1  0
 14 41  1  0
 15 42  1  0
 15 43  1  0
 17 44  1  0
 17 45  1  0
 21 46  1  0
 21 47  1  0
 22 48  1  0
 23 49  1  0
 25 50  1  0
 25 51  1  0
 25 52  1  0
M  END
