
     RDKit          3D

 46 49  0  0  0  0  0  0  0  0999 V2000
    0.0211    0.8640   -0.1211 N   0  0  0  0  0  0  0  0  0  0  0  0
    1.7228   -0.2044    2.0542 N   0  0  0  0  0  0  0  0  0  0  0  0
    3.6990    0.7001    0.1155 C   0  0  0  0  0  0  0  0  0  0  0  0
    6.0732    0.1381    0.0892 C   0  0  0  0  0  0  0  0  0  0  0  0
    6.8463   -0.8843   -0.7358 C   0  0  0  0  0  0  0  0  0  0  0  0
    4.5274   -1.3927   -0.9854 C   0  0  0  0  0  0  0  0  0  0  0  0
    5.8851   -2.0642   -0.8236 C   0  0  0  0  0  0  0  0  0  0  0  0
   -1.0800    1.6162   -0.1048 C   0  0  0  0  0  0  0  0  0  0  0  0
   -4.8689   -0.0707    0.3445 C   0  0  0  0  0  0  0  0  0  0  0  0
   -4.1585   -1.9602   -1.0341 C   0  0  0  0  0  0  0  0  0  0  0  0
   -2.4061    0.9387    0.0714 C   0  0  0  0  0  0  0  0  0  0  0  0
   -1.0622    2.8352   -0.2440 O   0  0  0  0  0  0  0  0  0  0  0  0
   -3.4177    1.6094    0.8111 C   0  0  0  0  0  0  0  0  0  0  0  0
   -4.6104    1.1106    0.9539 N   0  0  0  0  0  0  0  0  0  0  0  0
   -3.8660   -0.7321   -0.4044 C   0  0  0  0  0  0  0  0  0  0  0  0
   -2.6292   -0.2002   -0.5179 N   0  0  0  0  0  0  0  0  0  0  0  0
   -5.4090   -2.5021   -0.9134 C   0  0  0  0  0  0  0  0  0  0  0  0
   -6.1493   -0.6511    0.4539 C   0  0  0  0  0  0  0  0  0  0  0  0
   -6.4096   -1.8435   -0.1659 C   0  0  0  0  0  0  0  0  0  0  0  0
    1.3235    1.4910   -0.3188 C   0  0  0  0  0  0  0  0  0  0  0  0
    2.2876    0.3117   -0.2826 C   0  0  2  0  0  0  0  0  0  0  0  0
    1.5969   -0.6673    0.6852 C   0  0  2  0  0  0  0  0  0  0  0  0
    0.1479   -0.5467    0.2324 C   0  0  0  0  0  0  0  0  0  0  0  0
    3.9340    1.7355    0.7299 O   0  0  0  0  0  0  0  0  0  0  0  0
    4.6759   -0.1528   -0.2250 N   0  0  0  0  0  0  0  0  0  0  0  0
    1.1883   -0.8140    2.6607 H   0  0  0  0  0  0  0  0  0  0  0  0
    2.6818   -0.2864    2.3687 H   0  0  0  0  0  0  0  0  0  0  0  0
    6.3259    1.1659   -0.1711 H   0  0  0  0  0  0  0  0  0  0  0  0
    7.0483   -0.4871   -1.7328 H   0  0  0  0  0  0  0  0  0  0  0  0
    7.8020   -1.1414   -0.2812 H   0  0  0  0  0  0  0  0  0  0  0  0
    4.3153   -1.1798   -2.0377 H   0  0  0  0  0  0  0  0  0  0  0  0
    3.7201   -2.0124   -0.5981 H   0  0  0  0  0  0  0  0  0  0  0  0
    6.1040   -2.7447   -1.6455 H   0  0  0  0  0  0  0  0  0  0  0  0
    5.9060   -2.6426    0.1025 H   0  0  0  0  0  0  0  0  0  0  0  0
   -3.3812   -2.4523   -1.6040 H   0  0  0  0  0  0  0  0  0  0  0  0
   -3.2055    2.5577    1.2904 H   0  0  0  0  0  0  0  0  0  0  0  0
   -5.6392   -3.4444   -1.3920 H   0  0  0  0  0  0  0  0  0  0  0  0
   -6.9071   -0.1372    1.0306 H   0  0  0  0  0  0  0  0  0  0  0  0
   -7.3918   -2.2898   -0.0861 H   0  0  0  0  0  0  0  0  0  0  0  0
    1.3612    2.0255   -1.2686 H   0  0  0  0  0  0  0  0  0  0  0  0
    1.5304    2.2046    0.4788 H   0  0  0  0  0  0  0  0  0  0  0  0
    2.3052   -0.1612   -1.2691 H   0  0  0  0  0  0  0  0  0  0  0  0
    1.9457   -1.6955    0.5305 H   0  0  0  0  0  0  0  0  0  0  0  0
   -0.5498   -0.8329    1.0187 H   0  0  0  0  0  0  0  0  0  0  0  0
   -0.0357   -1.1892   -0.6298 H   0  0  0  0  0  0  0  0  0  0  0  0
    6.2560    0.0119    1.1600 H   0  0  0  0  0  0  0  0  0  0  0  0
  1  8  1  0
  1 20  1  0
  1 23  1  0
  2 22  1  0
  3 21  1  0
  3 24  2  0
  3 25  1  0
  4  5  1  0
  4 25  1  0
  5  7  1  0
  6  7  1  0
  6 25  1  0
  8 11  1  0
  8 12  2  0
  9 14  1  0
  9 15  1  0
  9 18  2  0
 10 15  2  0
 10 17  1  0
 11 13  1  0
 11 16  2  0
 13 14  2  0
 15 16  1  0
 17 19  2  0
 18 19  1  0
 20 21  1  0
 21 22  1  0
 22 23  1  0
  2 26  1  0
  2 27  1  0
  4 46  1  0
  4 28  1  0
  5 29  1  0
  5 30  1  0
  6 31  1  0
  6 32  1  0
  7 33  1  0
  7 34  1  0
 10 35  1  0
 13 36  1  0
 17 37  1  0
 18 38  1  0
 19 39  1  0
 20 40  1  0
 20 41  1  0
 21 42  1  6
 22 43  1  1
 23 44  1  0
 23 45  1  0
M  END
