
     RDKit          3D

 53 52  0  0  0  0  0  0  0  0999 V2000
    6.9238    0.2783    1.4725 O   0  0  0  0  0  0  0  0  0  0  0  0
    7.0079    0.4044    0.0765 C   0  0  0  0  0  0  0  0  0  0  0  0
    4.1849    1.0653   -1.3130 O   0  0  0  0  0  0  0  0  0  0  0  0
    6.7096   -2.0676   -0.5594 C   0  0  0  0  0  0  0  0  0  0  0  0
    6.7852   -2.5351    0.7622 O   0  0  0  0  0  0  0  0  0  0  0  0
    4.8364   -0.6872   -0.0865 O   0  0  0  0  0  0  0  0  0  0  0  0
   -9.6887   -2.9235    0.3208 C   0  0  0  0  0  0  0  0  0  0  0  0
   -8.4806   -2.3768   -0.4280 C   0  0  0  0  0  0  0  0  0  0  0  0
   -7.9024   -1.1176    0.2064 C   0  0  0  0  0  0  0  0  0  0  0  0
   -6.6893   -0.5751   -0.5398 C   0  0  0  0  0  0  0  0  0  0  0  0
   -6.0978    0.6787    0.0915 C   0  0  0  0  0  0  0  0  0  0  0  0
    3.9468    0.2087   -0.4978 C   0  0  0  0  0  0  0  0  0  0  0  0
   -4.8684    1.1918   -0.6623 C   0  0  0  0  0  0  0  0  0  0  0  0
    6.1682   -0.6552   -0.6188 C   0  0  1  0  0  0  0  0  0  0  0  0
   -4.3202    2.4558   -0.0766 C   0  0  0  0  0  0  0  0  0  0  0  0
   -3.1718    2.6111    0.5812 C   0  0  0  0  0  0  0  0  0  0  0  0
   -2.1438    1.5643    0.8769 C   0  0  0  0  0  0  0  0  0  0  0  0
   -0.8194    1.8220    0.1567 C   0  0  0  0  0  0  0  0  0  0  0  0
    0.2482    0.7960    0.5132 C   0  0  0  0  0  0  0  0  0  0  0  0
    1.5723    1.0433   -0.1983 C   0  0  0  0  0  0  0  0  0  0  0  0
    2.6168    0.0046    0.1766 C   0  0  0  0  0  0  0  0  0  0  0  0
    7.2964    1.0755    1.8585 H   0  0  0  0  0  0  0  0  0  0  0  0
    6.6665    1.3908   -0.2555 H   0  0  0  0  0  0  0  0  0  0  0  0
    8.0367    0.2924   -0.2932 H   0  0  0  0  0  0  0  0  0  0  0  0
    6.1417   -0.3887   -1.6802 H   0  0  0  0  0  0  0  0  0  0  0  0
    7.6925   -2.0481   -1.0492 H   0  0  0  0  0  0  0  0  0  0  0  0
    6.0652   -2.7043   -1.1797 H   0  0  0  0  0  0  0  0  0  0  0  0
    7.0747   -3.4512    0.7291 H   0  0  0  0  0  0  0  0  0  0  0  0
    2.2629   -1.0013   -0.0728 H   0  0  0  0  0  0  0  0  0  0  0  0
    2.7796   -0.0048    1.2589 H   0  0  0  0  0  0  0  0  0  0  0  0
    1.4116    1.0337   -1.2795 H   0  0  0  0  0  0  0  0  0  0  0  0
    1.9384    2.0429    0.0522 H   0  0  0  0  0  0  0  0  0  0  0  0
    0.4092    0.8033    1.5967 H   0  0  0  0  0  0  0  0  0  0  0  0
   -0.1173   -0.2071    0.2672 H   0  0  0  0  0  0  0  0  0  0  0  0
   -0.9907    1.8160   -0.9243 H   0  0  0  0  0  0  0  0  0  0  0  0
   -0.4589    2.8262    0.4042 H   0  0  0  0  0  0  0  0  0  0  0  0
   -1.9563    1.5511    1.9563 H   0  0  0  0  0  0  0  0  0  0  0  0
   -2.5092    0.5676    0.6192 H   0  0  0  0  0  0  0  0  0  0  0  0
   -2.9284    3.6078    0.9414 H   0  0  0  0  0  0  0  0  0  0  0  0
   -4.9538    3.3313   -0.1961 H   0  0  0  0  0  0  0  0  0  0  0  0
   -4.1097    0.4065   -0.6879 H   0  0  0  0  0  0  0  0  0  0  0  0
   -5.1498    1.3788   -1.7043 H   0  0  0  0  0  0  0  0  0  0  0  0
   -6.8587    1.4656    0.1295 H   0  0  0  0  0  0  0  0  0  0  0  0
   -5.8190    0.4722    1.1296 H   0  0  0  0  0  0  0  0  0  0  0  0
   -5.9180   -1.3519   -0.5880 H   0  0  0  0  0  0  0  0  0  0  0  0
   -6.9679   -0.3602   -1.5773 H   0  0  0  0  0  0  0  0  0  0  0  0
   -8.6781   -0.3451    0.2520 H   0  0  0  0  0  0  0  0  0  0  0  0
   -7.6253   -1.3303    1.2449 H   0  0  0  0  0  0  0  0  0  0  0  0
   -7.7032   -3.1457   -0.4759 H   0  0  0  0  0  0  0  0  0  0  0  0
   -8.7596   -2.1637   -1.4645 H   0  0  0  0  0  0  0  0  0  0  0  0
  -10.0815   -3.8212   -0.1582 H   0  0  0  0  0  0  0  0  0  0  0  0
   -9.4316   -3.1844    1.3491 H   0  0  0  0  0  0  0  0  0  0  0  0
  -10.4957   -2.1896    0.3603 H   0  0  0  0  0  0  0  0  0  0  0  0
  1  2  1  0
  2 14  1  0
  3 12  2  0
  4  5  1  0
  4 14  1  0
  6 12  1  0
  6 14  1  0
 21 20  1  0
 21 12  1  0
 20 19  1  0
 19 18  1  0
 18 17  1  0
 17 16  1  0
 16 15  2  0
 15 13  1  0
 13 11  1  0
 11 10  1  0
 10  9  1  0
  9  8  1  0
  8  7  1  0
  1 22  1  0
  2 23  1  0
  2 24  1  0
 14 25  1  6
  4 26  1  0
  4 27  1  0
  5 28  1  0
 21 29  1  0
 21 30  1  0
 20 31  1  0
 20 32  1  0
 19 33  1  0
 19 34  1  0
 18 35  1  0
 18 36  1  0
 17 37  1  0
 17 38  1  0
 16 39  1  0
 15 40  1  0
 13 41  1  0
 13 42  1  0
 11 43  1  0
 11 44  1  0
 10 45  1  0
 10 46  1  0
  9 47  1  0
  9 48  1  0
  8 49  1  0
  8 50  1  0
  7 51  1  0
  7 52  1  0
  7 53  1  0
M  END
