
     RDKit          3D

 52 55  0  0  0  0  0  0  0  0999 V2000
    1.8121    0.4998    0.5125 C   0  0  0  0  0  0  0  0  0  0  0  0
   -0.2372   -0.6105   -0.1829 N   0  0  0  0  0  0  0  0  0  0  0  0
    0.3051   -0.8493   -1.5216 C   0  0  0  0  0  0  0  0  0  0  0  0
   -4.8701   -1.0481    0.4767 C   0  0  0  0  0  0  0  0  0  0  0  0
   -6.2315   -1.0339    0.6015 C   0  0  0  0  0  0  0  0  0  0  0  0
   -4.9984    1.2896   -0.0846 C   0  0  0  0  0  0  0  0  0  0  0  0
   -3.0608    2.6330   -0.5674 C   0  0  0  0  0  0  0  0  0  0  0  0
    4.0319   -0.3398   -2.2085 O   0  0  0  0  0  0  0  0  0  0  0  0
    4.6847   -0.0309    0.0687 C   0  0  1  0  0  0  0  0  0  0  0  0
    5.9174   -0.8771   -0.2465 C   0  0  0  0  0  0  0  0  0  0  0  0
    6.9344   -0.8032    0.8876 C   0  0  0  0  0  0  0  0  0  0  0  0
    7.3433    0.6372    1.1745 C   0  0  0  0  0  0  0  0  0  0  0  0
    6.1244    1.5046    1.4672 C   0  0  0  0  0  0  0  0  0  0  0  0
    5.0923    1.4255    0.3467 C   0  0  0  0  0  0  0  0  0  0  0  0
    2.3799    0.2071   -0.7862 N   0  0  0  0  0  0  0  0  0  0  0  0
    0.7584   -0.5300    0.8847 C   0  0  0  0  0  0  0  0  0  0  0  0
    1.3712    0.1891   -1.8259 C   0  0  0  0  0  0  0  0  0  0  0  0
   -1.7493   -1.1396    0.1616 S   0  0  1  0  0  0  0  0  0  0  0  0
   -2.1631   -2.1094   -0.8426 O   0  0  0  0  0  0  0  0  0  0  0  0
   -1.8052   -1.5189    1.5656 O   0  0  0  0  0  0  0  0  0  0  0  0
   -2.7897    0.2892   -0.0500 C   0  0  0  0  0  0  0  0  0  0  0  0
   -4.1959    0.1413    0.1172 C   0  0  0  0  0  0  0  0  0  0  0  0
   -7.0011    0.0564    0.3998 N   0  0  0  0  0  0  0  0  0  0  0  0
   -6.3987    1.1650    0.0722 C   0  0  0  0  0  0  0  0  0  0  0  0
   -4.4144    2.5274   -0.4310 C   0  0  0  0  0  0  0  0  0  0  0  0
   -2.2445    1.5018   -0.3727 C   0  0  0  0  0  0  0  0  0  0  0  0
    2.5673    0.5122    1.2913 H   0  0  0  0  0  0  0  0  0  0  0  0
    1.3595    1.4964    0.4874 H   0  0  0  0  0  0  0  0  0  0  0  0
    0.7329   -1.8544   -1.5873 H   0  0  0  0  0  0  0  0  0  0  0  0
   -0.4835   -0.7670   -2.2672 H   0  0  0  0  0  0  0  0  0  0  0  0
   -4.3483   -1.9742    0.6646 H   0  0  0  0  0  0  0  0  0  0  0  0
   -6.7548   -1.9404    0.8803 H   0  0  0  0  0  0  0  0  0  0  0  0
   -2.6017    3.5759   -0.8287 H   0  0  0  0  0  0  0  0  0  0  0  0
    4.2397   -0.4402    0.9818 H   0  0  0  0  0  0  0  0  0  0  0  0
    5.6232   -1.9151   -0.4191 H   0  0  0  0  0  0  0  0  0  0  0  0
    6.3796   -0.5239   -1.1718 H   0  0  0  0  0  0  0  0  0  0  0  0
    6.5073   -1.2472    1.7937 H   0  0  0  0  0  0  0  0  0  0  0  0
    7.8117   -1.4029    0.6334 H   0  0  0  0  0  0  0  0  0  0  0  0
    8.0425    0.6755    2.0131 H   0  0  0  0  0  0  0  0  0  0  0  0
    7.8752    1.0420    0.3067 H   0  0  0  0  0  0  0  0  0  0  0  0
    5.6630    1.1776    2.4054 H   0  0  0  0  0  0  0  0  0  0  0  0
    6.4245    2.5444    1.6161 H   0  0  0  0  0  0  0  0  0  0  0  0
    5.5102    1.8554   -0.5698 H   0  0  0  0  0  0  0  0  0  0  0  0
    4.2209    2.0328    0.6059 H   0  0  0  0  0  0  0  0  0  0  0  0
    1.2320   -1.5039    1.0449 H   0  0  0  0  0  0  0  0  0  0  0  0
    0.2877   -0.2221    1.8155 H   0  0  0  0  0  0  0  0  0  0  0  0
    1.8269   -0.0399   -2.7846 H   0  0  0  0  0  0  0  0  0  0  0  0
    0.9139    1.1810   -1.9007 H   0  0  0  0  0  0  0  0  0  0  0  0
   -7.0192    2.0421   -0.0874 H   0  0  0  0  0  0  0  0  0  0  0  0
   -5.0552    3.3867   -0.5845 H   0  0  0  0  0  0  0  0  0  0  0  0
   -1.1740    1.6046   -0.4830 H   0  0  0  0  0  0  0  0  0  0  0  0
    3.6755   -0.0816   -1.0664 C   0  0  0  0  0  0  0  0  0  0  0  0
 13 12  1  0
 13 14  1  0
 12 11  1  0
 14  9  1  0
 11 10  1  0
  9 10  1  0
  9 52  1  0
 24 23  2  0
 24  6  1  0
 23  5  1  0
  8 52  2  0
 52 15  1  0
  5  4  2  0
 25  6  1  0
 25  7  2  0
  6 22  2  0
 15 17  1  0
 15  1  1  0
  7 26  1  0
  4 22  1  0
 22 21  1  0
 17  3  1  0
  1 16  1  0
 26 21  2  0
 18 21  1  1
  2 16  1  0
  2  3  1  0
  2 18  1  0
 18 19  2  0
 18 20  2  0
  1 27  1  0
  1 28  1  0
  3 29  1  0
  3 30  1  0
  4 31  1  0
  5 32  1  0
  7 33  1  0
  9 34  1  1
 10 35  1  0
 10 36  1  0
 11 37  1  0
 11 38  1  0
 12 39  1  0
 12 40  1  0
 13 41  1  0
 13 42  1  0
 14 43  1  0
 14 44  1  0
 16 45  1  0
 16 46  1  0
 17 47  1  0
 17 48  1  0
 24 49  1  0
 25 50  1  0
 26 51  1  0
M  END
