
     RDKit          3D

 32 33  0  0  0  0  0  0  0  0999 V2000
   -0.4035   -2.1191   -0.0449 C   0  0  0  0  0  0  0  0  0  0  0  0
    0.6164   -1.1678   -0.0087 C   0  0  0  0  0  0  0  0  0  0  0  0
    0.2858    0.2055   -0.1025 C   0  0  0  0  0  0  0  0  0  0  0  0
   -1.0716    0.5669   -0.1072 C   0  0  0  0  0  0  0  0  0  0  0  0
   -2.0695   -0.4138   -0.1552 C   0  0  0  0  0  0  0  0  0  0  0  0
   -1.7299   -1.7662   -0.1453 C   0  0  0  0  0  0  0  0  0  0  0  0
    1.9929   -1.5496    0.1808 C   0  0  0  0  0  0  0  0  0  0  0  0
    2.9242   -0.5821    0.2903 C   0  0  0  0  0  0  0  0  0  0  0  0
    2.6204    0.8196    0.1184 C   0  0  0  0  0  0  0  0  0  0  0  0
    1.3059    1.1459   -0.1676 N   0  0  0  0  0  0  0  0  0  0  0  0
    3.4865    1.6869    0.1689 O   0  0  0  0  0  0  0  0  0  0  0  0
    1.0870    2.4930   -0.6931 C   0  0  0  0  0  0  0  0  0  0  0  0
    2.3667   -2.9931    0.2949 C   0  0  0  0  0  0  0  0  0  0  0  0
   -1.4764    1.8627   -0.0318 O   0  0  0  0  0  0  0  0  0  0  0  0
   -1.6688    2.3239    1.2997 C   0  0  0  0  0  0  0  0  0  0  0  0
   -3.3260    0.0481   -0.1851 O   0  0  0  0  0  0  0  0  0  0  0  0
   -4.3918   -0.8838   -0.1996 C   0  0  0  0  0  0  0  0  0  0  0  0
   -0.1549   -3.1699    0.0109 H   0  0  0  0  0  0  0  0  0  0  0  0
   -2.4829   -2.5398   -0.1809 H   0  0  0  0  0  0  0  0  0  0  0  0
    3.9638   -0.8238    0.4694 H   0  0  0  0  0  0  0  0  0  0  0  0
    0.7918    3.2027    0.0776 H   0  0  0  0  0  0  0  0  0  0  0  0
    2.0175    2.8412   -1.1285 H   0  0  0  0  0  0  0  0  0  0  0  0
    0.3354    2.4708   -1.4735 H   0  0  0  0  0  0  0  0  0  0  0  0
    2.0679   -3.5495   -0.5946 H   0  0  0  0  0  0  0  0  0  0  0  0
    3.4414   -3.1070    0.4203 H   0  0  0  0  0  0  0  0  0  0  0  0
    1.8750   -3.4634    1.1481 H   0  0  0  0  0  0  0  0  0  0  0  0
   -2.4595    1.7679    1.8088 H   0  0  0  0  0  0  0  0  0  0  0  0
   -0.7519    2.2484    1.8906 H   0  0  0  0  0  0  0  0  0  0  0  0
   -1.9591    3.3708    1.2366 H   0  0  0  0  0  0  0  0  0  0  0  0
   -4.3667   -1.5187   -1.0884 H   0  0  0  0  0  0  0  0  0  0  0  0
   -4.3934   -1.5160    0.6913 H   0  0  0  0  0  0  0  0  0  0  0  0
   -5.3078   -0.2989   -0.2150 H   0  0  0  0  0  0  0  0  0  0  0  0
  2  1  2  0
  6  1  1  0
  1 18  1  0
  3  2  1  0
  2  7  1  0
 10  3  1  0
  4  3  2  0
 14  4  1  0
  4  5  1  0
 16  5  1  0
  5  6  2  0
  6 19  1  0
  8  7  2  0
  7 13  1  0
  9  8  1  0
  8 20  1  0
 11  9  2  0
 10  9  1  0
 12 10  1  0
 12 21  1  0
 12 22  1  0
 12 23  1  0
 13 24  1  0
 13 25  1  0
 13 26  1  0
 14 15  1  0
 15 27  1  0
 15 28  1  0
 15 29  1  0
 16 17  1  0
 17 30  1  0
 17 31  1  0
 17 32  1  0
M  END
