
     RDKit          3D

 58 61  0  0  0  0  0  0  0  0999 V2000
   -4.4977    2.0869   -3.0548 C   0  0  0  0  0  0  0  0  0  0  0  0
    0.7537    0.9363   -0.1028 C   0  0  0  0  0  0  0  0  0  0  0  0
    0.7922   -1.3803    0.6798 C   0  0  0  0  0  0  0  0  0  0  0  0
    2.8973   -1.5248    1.4382 C   0  0  0  0  0  0  0  0  0  0  0  0
    1.7485   -2.2524    1.2906 C   0  0  0  0  0  0  0  0  0  0  0  0
    1.4959   -3.6689    1.6811 C   0  0  0  0  0  0  0  0  0  0  0  0
    4.5725    0.3930   -1.4226 C   0  0  0  0  0  0  0  0  0  0  0  0
    6.8752    0.1663   -1.8872 C   0  0  0  0  0  0  0  0  0  0  0  0
   -6.4459    0.0018    2.1415 C   0  0  0  0  0  0  0  0  0  0  0  0
   -7.3945   -0.9882    1.9152 C   0  0  0  0  0  0  0  0  0  0  0  0
   -7.4839   -1.5773    0.6614 C   0  0  0  0  0  0  0  0  0  0  0  0
   -6.6286   -1.1777   -0.3582 C   0  0  0  0  0  0  0  0  0  0  0  0
   -5.6790   -0.1860   -0.1417 C   0  0  0  0  0  0  0  0  0  0  0  0
   -5.5958    0.3995    1.1193 C   0  0  0  0  0  0  0  0  0  0  0  0
   -4.7893    0.2805   -1.2742 C   0  0  1  0  0  0  0  0  0  0  0  0
   -5.2581    1.6322   -1.8163 C   0  0  0  0  0  0  0  0  0  0  0  0
   -1.2177   -0.4856   -0.2840 C   0  0  0  0  0  0  0  0  0  0  0  0
   -0.5622    0.7474   -0.4732 C   0  0  0  0  0  0  0  0  0  0  0  0
    1.4260   -0.1357    0.4796 C   0  0  0  0  0  0  0  0  0  0  0  0
   -0.5312   -1.5500    0.2838 C   0  0  0  0  0  0  0  0  0  0  0  0
    4.8147    0.5703   -0.0679 C   0  0  0  0  0  0  0  0  0  0  0  0
    5.5734    0.1851   -2.3503 C   0  0  0  0  0  0  0  0  0  0  0  0
    7.1868    0.3481   -0.5549 C   0  0  0  0  0  0  0  0  0  0  0  0
    6.1443    0.5469    0.3390 C   0  0  0  0  0  0  0  0  0  0  0  0
    7.8618   -0.0334   -2.7698 F   0  0  0  0  0  0  0  0  0  0  0  0
   -3.3986    0.3734   -0.8795 N   0  0  0  0  0  0  0  0  0  0  0  0
    2.7034   -0.2442    0.9446 N   0  0  0  0  0  0  0  0  0  0  0  0
   -4.5469    1.3346   -3.8438 H   0  0  0  0  0  0  0  0  0  0  0  0
   -4.9238    3.0098   -3.4481 H   0  0  0  0  0  0  0  0  0  0  0  0
   -3.4449    2.2769   -2.8446 H   0  0  0  0  0  0  0  0  0  0  0  0
    1.2317    1.8909   -0.2777 H   0  0  0  0  0  0  0  0  0  0  0  0
    0.7408   -3.7426    2.4670 H   0  0  0  0  0  0  0  0  0  0  0  0
    1.1323   -4.2553    0.8347 H   0  0  0  0  0  0  0  0  0  0  0  0
    2.3967   -4.1578    2.0498 H   0  0  0  0  0  0  0  0  0  0  0  0
   -6.3688    0.4663    3.1164 H   0  0  0  0  0  0  0  0  0  0  0  0
   -8.0577   -1.2990    2.7122 H   0  0  0  0  0  0  0  0  0  0  0  0
   -8.2163   -2.3534    0.4790 H   0  0  0  0  0  0  0  0  0  0  0  0
   -6.6996   -1.6464   -1.3332 H   0  0  0  0  0  0  0  0  0  0  0  0
   -4.8595    1.1716    1.3105 H   0  0  0  0  0  0  0  0  0  0  0  0
   -4.8567   -0.4507   -2.0844 H   0  0  0  0  0  0  0  0  0  0  0  0
   -5.1821    2.3867   -1.0260 H   0  0  0  0  0  0  0  0  0  0  0  0
   -6.3208    1.5451   -2.0506 H   0  0  0  0  0  0  0  0  0  0  0  0
   -1.0714    1.5737   -0.9523 H   0  0  0  0  0  0  0  0  0  0  0  0
   -1.0256   -2.5033    0.4233 H   0  0  0  0  0  0  0  0  0  0  0  0
    5.3436    0.0493   -3.3990 H   0  0  0  0  0  0  0  0  0  0  0  0
    8.2148    0.3331   -0.2195 H   0  0  0  0  0  0  0  0  0  0  0  0
    6.3747    0.6904    1.3874 H   0  0  0  0  0  0  0  0  0  0  0  0
   -3.0650    1.2685   -0.5608 H   0  0  0  0  0  0  0  0  0  0  0  0
   -2.6275   -0.7187   -0.7070 C   0  0  0  0  0  0  0  0  0  0  0  0
    4.1957   -1.9283    2.0371 C   0  0  0  0  0  0  0  0  0  0  0  0
    3.7020    0.8005    0.9232 C   0  0  0  0  0  0  0  0  0  0  0  0
   -3.0614   -1.8485   -0.8956 O   0  0  0  0  0  0  0  0  0  0  0  0
    3.3091    0.4279   -1.8645 F   0  0  0  0  0  0  0  0  0  0  0  0
    4.1348    0.9060    1.9195 H   0  0  0  0  0  0  0  0  0  0  0  0
    3.1965    1.7443    0.7179 H   0  0  0  0  0  0  0  0  0  0  0  0
    5.0058   -1.9344    1.3061 H   0  0  0  0  0  0  0  0  0  0  0  0
    4.4938   -1.2631    2.8502 H   0  0  0  0  0  0  0  0  0  0  0  0
    4.1227   -2.9311    2.4525 H   0  0  0  0  0  0  0  0  0  0  0  0
 25  8  1  0
  8 22  1  0
  8 23  2  0
 22  7  2  0
 23 24  1  0
  7 53  1  0
  7 21  1  0
 24 21  2  0
 21 51  1  0
 51 27  1  0
 50  4  1  0
 27  4  1  0
 27 19  1  0
  4  5  2  0
 19  2  2  0
 19  3  1  0
  2 18  1  0
  5  3  1  0
  5  6  1  0
  3 20  2  0
 18 17  2  0
 20 17  1  0
 17 49  1  0
 49 52  2  0
 49 26  1  0
 26 15  1  0
 14  9  2  0
 14 13  1  0
  9 10  1  0
 15 13  1  0
 15 16  1  0
 13 12  2  0
 10 11  2  0
 16  1  1  0
 12 11  1  0
  1 28  1  0
  1 29  1  0
  1 30  1  0
  2 31  1  0
  6 32  1  0
  6 33  1  0
  6 34  1  0
 51 54  1  0
 51 55  1  0
  9 35  1  0
 10 36  1  0
 11 37  1  0
 12 38  1  0
 14 39  1  0
 15 40  1  6
 16 41  1  0
 16 42  1  0
 18 43  1  0
 20 44  1  0
 50 56  1  0
 50 57  1  0
 50 58  1  0
 22 45  1  0
 23 46  1  0
 24 47  1  0
 26 48  1  0
M  END
