
     RDKit          3D

 28 30  0  0  0  0  0  0  0  0999 V2000
    4.4035    1.5355   -1.1167 Cl  0  0  0  0  0  0  0  0  0  0  0  0
    3.4768   -1.9661    0.5357 C   0  0  0  0  0  0  0  0  0  0  0  0
    2.0918   -1.9633    0.4865 C   0  0  0  0  0  0  0  0  0  0  0  0
    1.4028   -0.8767   -0.0536 C   0  0  0  0  0  0  0  0  0  0  0  0
    2.1338    0.2042   -0.5471 C   0  0  0  0  0  0  0  0  0  0  0  0
    3.5168    0.1851   -0.4870 C   0  0  0  0  0  0  0  0  0  0  0  0
    4.2065   -0.8906    0.0496 C   0  0  0  0  0  0  0  0  0  0  0  0
   -0.0719   -0.8633   -0.1033 C   0  0  0  0  0  0  0  0  0  0  0  0
   -0.7898   -2.0508   -0.3671 C   0  0  0  0  0  0  0  0  0  0  0  0
   -2.1572   -2.0592   -0.4214 C   0  0  0  0  0  0  0  0  0  0  0  0
   -2.8911   -0.8745   -0.2111 C   0  0  0  0  0  0  0  0  0  0  0  0
   -2.1832    0.3145    0.0540 C   0  0  0  0  0  0  0  0  0  0  0  0
   -0.7807    0.3006    0.1051 C   0  0  0  0  0  0  0  0  0  0  0  0
   -2.9911    1.4882    0.2659 C   0  0  0  0  0  0  0  0  0  0  0  0
   -4.3109    1.4152    0.2057 N   0  0  0  0  0  0  0  0  0  0  0  0
   -4.8553    0.2225   -0.0581 C   0  0  0  0  0  0  0  0  0  0  0  0
   -4.2484   -0.9120   -0.2693 N   0  0  0  0  0  0  0  0  0  0  0  0
   -2.4462    2.6749    0.5301 N   0  0  0  0  0  0  0  0  0  0  0  0
    1.5446   -2.8053    0.8897 H   0  0  0  0  0  0  0  0  0  0  0  0
    1.6260    1.0479   -0.9955 H   0  0  0  0  0  0  0  0  0  0  0  0
    5.2871   -0.8927    0.0874 H   0  0  0  0  0  0  0  0  0  0  0  0
   -0.2494   -2.9713   -0.5496 H   0  0  0  0  0  0  0  0  0  0  0  0
   -2.6965   -2.9724   -0.6372 H   0  0  0  0  0  0  0  0  0  0  0  0
   -0.2338    1.2069    0.3338 H   0  0  0  0  0  0  0  0  0  0  0  0
   -5.9405    0.2100   -0.0990 H   0  0  0  0  0  0  0  0  0  0  0  0
   -1.4551    2.8311    0.5623 H   0  0  0  0  0  0  0  0  0  0  0  0
   -3.0428    3.4750    0.6576 H   0  0  0  0  0  0  0  0  0  0  0  0
    3.9977   -2.8121    0.9635 H   0  0  0  0  0  0  0  0  0  0  0  0
  2  3  2  0
  2  7  1  0
  3  4  1  0
  7  6  2  0
  9 10  2  0
  9  8  1  0
 10 11  1  0
  4  8  1  0
  4  5  2  0
  8 13  2  0
  6  5  1  0
  6  1  1  0
 11 17  2  0
 11 12  1  0
 17 16  1  0
 13 12  1  0
 12 14  2  0
 16 15  2  0
 14 15  1  0
 14 18  1  0
  2 28  1  0
  3 19  1  0
  5 20  1  0
  7 21  1  0
  9 22  1  0
 10 23  1  0
 13 24  1  0
 16 25  1  0
 18 26  1  0
 18 27  1  0
M  END
