
     RDKit          3D

 55 55  0  0  0  0  0  0  0  0999 V2000
   -1.1906    8.1986   -0.4011 C   0  0  0  0  0  0  0  0  0  0  0  0
   -0.2843    6.9821   -0.5289 C   0  0  0  0  0  0  0  0  0  0  0  0
   -1.0382    5.6671   -0.3747 C   0  0  0  0  0  0  0  0  0  0  0  0
   -0.1408    4.4453   -0.5257 C   0  0  0  0  0  0  0  0  0  0  0  0
   -0.9053    3.1455   -0.3485 C   0  0  0  0  0  0  0  0  0  0  0  0
   -0.0918    1.8919   -0.5388 C   0  0  0  0  0  0  0  0  0  0  0  0
   -0.8351    0.6257   -0.3763 C   0  0  0  0  0  0  0  0  0  0  0  0
   -0.3359   -0.5416   -0.7836 C   0  0  0  0  0  0  0  0  0  0  0  0
   -1.0550   -1.8416   -0.7081 C   0  0  2  0  0  0  0  0  0  0  0  0
   -0.3364   -2.8600    0.1995 C   0  0  2  0  0  0  0  0  0  0  0  0
    1.0260   -2.8651   -0.1607 O   0  0  0  0  0  0  0  0  0  0  0  0
   -1.0015   -4.1745   -0.1727 C   0  0  0  0  0  0  0  0  0  0  0  0
   -1.2083   -4.0576   -1.6611 C   0  0  0  0  0  0  0  0  0  0  0  0
   -1.3706   -4.9723   -2.4301 O   0  0  0  0  0  0  0  0  0  0  0  0
   -1.2100   -2.5835   -2.0535 C   0  0  1  0  0  0  0  0  0  0  0  0
   -2.4696   -2.2436   -2.8490 C   0  0  0  0  0  0  0  0  0  0  0  0
   -2.5283   -0.8718   -3.4526 C   0  0  0  0  0  0  0  0  0  0  0  0
   -1.5062   -0.0586   -3.6927 C   0  0  0  0  0  0  0  0  0  0  0  0
   -1.6269    1.3192   -4.2604 C   0  0  0  0  0  0  0  0  0  0  0  0
   -0.8190    1.4991   -5.5453 C   0  0  0  0  0  0  0  0  0  0  0  0
   -0.7669    2.9394   -6.0314 C   0  0  0  0  0  0  0  0  0  0  0  0
   -2.0828    3.4718   -6.5299 C   0  0  0  0  0  0  0  0  0  0  0  0
   -2.0791    4.7988   -6.6180 O   0  0  0  0  0  0  0  0  0  0  0  0
    1.0873    1.9219   -0.8342 O   0  0  0  0  0  0  0  0  0  0  0  0
   -3.0308    2.7973   -6.8484 O   0  0  0  0  0  0  0  0  0  0  0  0
   -0.6304    9.1296   -0.4967 H   0  0  0  0  0  0  0  0  0  0  0  0
   -1.6933    8.2149    0.5679 H   0  0  0  0  0  0  0  0  0  0  0  0
   -1.9637    8.1972   -1.1716 H   0  0  0  0  0  0  0  0  0  0  0  0
    0.5088    7.0348    0.2233 H   0  0  0  0  0  0  0  0  0  0  0  0
    0.2189    6.9988   -1.5009 H   0  0  0  0  0  0  0  0  0  0  0  0
   -1.8434    5.6230   -1.1166 H   0  0  0  0  0  0  0  0  0  0  0  0
   -1.5289    5.6449    0.6050 H   0  0  0  0  0  0  0  0  0  0  0  0
    0.3321    4.4634   -1.5118 H   0  0  0  0  0  0  0  0  0  0  0  0
    0.6719    4.4968    0.2043 H   0  0  0  0  0  0  0  0  0  0  0  0
   -1.3724    3.0975    0.6427 H   0  0  0  0  0  0  0  0  0  0  0  0
   -1.7482    3.0952   -1.0503 H   0  0  0  0  0  0  0  0  0  0  0  0
   -1.8427    0.6872    0.0223 H   0  0  0  0  0  0  0  0  0  0  0  0
    0.6605   -0.5600   -1.2151 H   0  0  0  0  0  0  0  0  0  0  0  0
   -2.0518   -1.6794   -0.2833 H   0  0  0  0  0  0  0  0  0  0  0  0
   -0.4743   -2.6058    1.2556 H   0  0  0  0  0  0  0  0  0  0  0  0
    1.4727   -3.5555    0.3394 H   0  0  0  0  0  0  0  0  0  0  0  0
   -1.9924   -4.2395    0.2923 H   0  0  0  0  0  0  0  0  0  0  0  0
   -0.4484   -5.0692    0.1179 H   0  0  0  0  0  0  0  0  0  0  0  0
   -0.3230   -2.4291   -2.6809 H   0  0  0  0  0  0  0  0  0  0  0  0
   -3.3381   -2.3695   -2.1943 H   0  0  0  0  0  0  0  0  0  0  0  0
   -2.5958   -2.9864   -3.6438 H   0  0  0  0  0  0  0  0  0  0  0  0
   -3.5282   -0.5327   -3.7136 H   0  0  0  0  0  0  0  0  0  0  0  0
   -0.4949   -0.3730   -3.4488 H   0  0  0  0  0  0  0  0  0  0  0  0
   -1.2614    2.0379   -3.5159 H   0  0  0  0  0  0  0  0  0  0  0  0
   -2.6785    1.5595   -4.4311 H   0  0  0  0  0  0  0  0  0  0  0  0
    0.2082    1.1690   -5.3705 H   0  0  0  0  0  0  0  0  0  0  0  0
   -1.2190    0.8517   -6.3288 H   0  0  0  0  0  0  0  0  0  0  0  0
   -0.0595    3.0267   -6.8631 H   0  0  0  0  0  0  0  0  0  0  0  0
   -0.3823    3.5991   -5.2494 H   0  0  0  0  0  0  0  0  0  0  0  0
   -2.9238    5.1090   -6.9773 H   0  0  0  0  0  0  0  0  0  0  0  0
  1  2  1  0
  1 26  1  0
  1 27  1  0
  1 28  1  0
  2  3  1  0
  2 29  1  0
  2 30  1  0
  3  4  1  0
  3 31  1  0
  3 32  1  0
  4  5  1  0
  4 33  1  0
  4 34  1  0
  5  6  1  0
  5 35  1  0
  5 36  1  0
  6  7  1  0
  6 24  2  0
  7  8  2  0
  7 37  1  0
  8  9  1  0
  8 38  1  0
  9 10  1  0
  9 15  1  0
  9 39  1  1
 10 11  1  0
 10 12  1  0
 10 40  1  1
 11 41  1  0
 12 13  1  0
 12 42  1  0
 12 43  1  0
 13 14  2  0
 13 15  1  0
 15 16  1  0
 15 44  1  6
 16 17  1  0
 16 45  1  0
 16 46  1  0
 17 18  2  0
 17 47  1  0
 18 19  1  0
 18 48  1  0
 19 20  1  0
 19 49  1  0
 19 50  1  0
 20 21  1  0
 20 51  1  0
 20 52  1  0
 21 22  1  0
 21 53  1  0
 21 54  1  0
 22 23  1  0
 22 25  2  0
 23 55  1  0
M  END
