
     RDKit          3D

 15 14  0  0  0  0  0  0  0  0999 V2000
   -0.1896   -1.0926   -0.0020 C   0  0  0  0  0  0  0  0  0  0  0  0
   -0.3760   -0.3953    1.3297 C   0  0  0  0  0  0  0  0  0  0  0  0
    0.7746   -0.2604    2.0154 N   0  0  0  0  0  0  0  0  0  0  0  0
    0.8039    0.5395    3.1166 O   0  0  0  0  0  0  0  0  0  0  0  0
   -1.4574   -0.0109    1.7270 O   0  0  0  0  0  0  0  0  0  0  0  0
    1.4265    0.8853   -1.0785 O   0  0  0  0  0  0  0  0  0  0  0  0
    0.0881   -0.7885   -2.6003 O   0  0  0  0  0  0  0  0  0  0  0  0
   -1.0668    1.1426   -1.3269 O   0  0  0  0  0  0  0  0  0  0  0  0
    0.1732    0.1263   -1.2886 P   0  0  1  0  0  0  0  0  0  0  0  0
    0.6358   -1.8074    0.0225 H   0  0  0  0  0  0  0  0  0  0  0  0
   -1.1012   -1.6403   -0.2437 H   0  0  0  0  0  0  0  0  0  0  0  0
    1.6739   -0.4056    1.5772 H   0  0  0  0  0  0  0  0  0  0  0  0
    0.7769   -0.0537    3.8782 H   0  0  0  0  0  0  0  0  0  0  0  0
    0.3568   -0.3432   -3.4165 H   0  0  0  0  0  0  0  0  0  0  0  0
   -1.9373    0.7430   -1.4550 H   0  0  0  0  0  0  0  0  0  0  0  0
  1  2  1  0
  1  9  1  0
  1 10  1  0
  1 11  1  0
  2  3  1  0
  2  5  2  0
  3  4  1  0
  3 12  1  0
  4 13  1  0
  6  9  2  0
  9  7  1  6
  7 14  1  0
  8  9  1  0
  8 15  1  0
M  END
