
     RDKit          3D

 31 33  0  0  0  0  0  0  0  0999 V2000
   -2.3318   -1.1337   -0.3445 C   0  0  0  0  0  0  0  0  0  0  0  0
   -3.7013   -1.3246   -0.3123 C   0  0  0  0  0  0  0  0  0  0  0  0
   -4.5670   -0.2918    0.0486 C   0  0  0  0  0  0  0  0  0  0  0  0
   -6.0520   -0.4958    0.0530 C   0  0  0  0  0  0  0  0  0  0  0  0
   -4.0109    0.9402    0.3833 C   0  0  0  0  0  0  0  0  0  0  0  0
   -2.6407    1.1431    0.3446 C   0  0  0  0  0  0  0  0  0  0  0  0
   -1.7831    0.1081   -0.0243 C   0  0  0  0  0  0  0  0  0  0  0  0
   -0.3218    0.2804   -0.0704 C   0  0  0  0  0  0  0  0  0  0  0  0
    0.4492   -0.7362    0.0898 N   0  0  0  0  0  0  0  0  0  0  0  0
    1.8024   -0.5352    0.0360 C   0  0  0  0  0  0  0  0  0  0  0  0
    2.6541   -1.6520    0.1993 C   0  0  0  0  0  0  0  0  0  0  0  0
    2.0683   -2.8431    0.3889 O   0  0  0  0  0  0  0  0  0  0  0  0
    4.0244   -1.4752    0.1570 C   0  0  0  0  0  0  0  0  0  0  0  0
    4.5777   -0.2083   -0.0439 C   0  0  0  0  0  0  0  0  0  0  0  0
    3.7677    0.8931   -0.2051 C   0  0  0  0  0  0  0  0  0  0  0  0
    2.3816    0.7258   -0.1644 C   0  0  0  0  0  0  0  0  0  0  0  0
    1.4937    1.8687   -0.3466 C   0  0  0  0  0  0  0  0  0  0  0  0
    1.8527    3.0156   -0.5437 O   0  0  0  0  0  0  0  0  0  0  0  0
    0.1585    1.5404   -0.2927 N   0  0  0  0  0  0  0  0  0  0  0  0
   -1.6789   -1.9490   -0.6257 H   0  0  0  0  0  0  0  0  0  0  0  0
   -4.1055   -2.2945   -0.5755 H   0  0  0  0  0  0  0  0  0  0  0  0
   -6.3139   -1.5261    0.2908 H   0  0  0  0  0  0  0  0  0  0  0  0
   -6.5434    0.1564    0.7740 H   0  0  0  0  0  0  0  0  0  0  0  0
   -6.4747   -0.2717   -0.9287 H   0  0  0  0  0  0  0  0  0  0  0  0
   -4.6550    1.7565    0.6864 H   0  0  0  0  0  0  0  0  0  0  0  0
   -2.2567    2.1120    0.6392 H   0  0  0  0  0  0  0  0  0  0  0  0
   -0.4929    2.2948   -0.4676 H   0  0  0  0  0  0  0  0  0  0  0  0
    2.7377   -3.5290    0.4943 H   0  0  0  0  0  0  0  0  0  0  0  0
    4.6799   -2.3297    0.2820 H   0  0  0  0  0  0  0  0  0  0  0  0
    5.6537   -0.1024   -0.0711 H   0  0  0  0  0  0  0  0  0  0  0  0
    4.1906    1.8753   -0.3641 H   0  0  0  0  0  0  0  0  0  0  0  0
  1  2  2  0
  1  7  1  0
  2  3  1  0
  3  4  1  0
  3  5  2  0
  5  6  1  0
  6  7  2  0
  7  8  1  0
  8  9  2  0
  8 19  1  0
  9 10  1  0
 10 11  2  0
 10 16  1  0
 11 12  1  0
 11 13  1  0
 13 14  2  0
 14 15  1  0
 15 16  2  0
 16 17  1  0
 17 18  2  0
 17 19  1  0
  1 20  1  0
  2 21  1  0
  4 22  1  0
  4 23  1  0
  4 24  1  0
  5 25  1  0
  6 26  1  0
 19 27  1  0
 12 28  1  0
 13 29  1  0
 14 30  1  0
 15 31  1  0
M  END
