
     RDKit          3D

 25 26  0  0  0  0  0  0  0  0999 V2000
   -0.3218    0.0208    0.0293 C   0  0  0  0  0  0  0  0  0  0  0  0
   -1.7737   -0.0439    0.0223 C   0  0  0  0  0  0  0  0  0  0  0  0
    0.6513   -0.9217    0.0458 C   0  0  0  0  0  0  0  0  0  0  0  0
    0.2545    1.2521    0.0237 O   0  0  0  0  0  0  0  0  0  0  0  0
   -2.5569    1.1131    0.0232 C   0  0  0  0  0  0  0  0  0  0  0  0
   -2.4115   -1.2880    0.0143 C   0  0  0  0  0  0  0  0  0  0  0  0
    1.8944   -0.2154    0.0452 C   0  0  0  0  0  0  0  0  0  0  0  0
    1.5857    1.1178    0.0334 C   0  0  0  0  0  0  0  0  0  0  0  0
   -3.9411    1.0219    0.0161 C   0  0  0  0  0  0  0  0  0  0  0  0
   -3.7931   -1.3724    0.0077 C   0  0  0  0  0  0  0  0  0  0  0  0
    3.2385   -0.7863    0.0498 C   0  0  0  0  0  0  0  0  0  0  0  0
    2.3861    2.3613    0.0120 C   0  0  0  0  0  0  0  0  0  0  0  0
   -4.5662   -0.2172    0.0091 C   0  0  0  0  0  0  0  0  0  0  0  0
    4.2644   -0.1483   -0.0155 O   0  0  0  0  0  0  0  0  0  0  0  0
    3.2110   -2.1121    0.1321 O   0  0  0  0  0  0  0  0  0  0  0  0
    0.5137   -1.9905    0.0545 H   0  0  0  0  0  0  0  0  0  0  0  0
   -2.0949    2.0916    0.0299 H   0  0  0  0  0  0  0  0  0  0  0  0
   -1.8252   -2.1982    0.0123 H   0  0  0  0  0  0  0  0  0  0  0  0
   -4.5339    1.9273    0.0155 H   0  0  0  0  0  0  0  0  0  0  0  0
   -4.2682   -2.3447    0.0016 H   0  0  0  0  0  0  0  0  0  0  0  0
    2.4810    2.7458   -1.0061 H   0  0  0  0  0  0  0  0  0  0  0  0
    1.9139    3.1360    0.6152 H   0  0  0  0  0  0  0  0  0  0  0  0
    3.3865    2.1824    0.3931 H   0  0  0  0  0  0  0  0  0  0  0  0
   -5.6460   -0.2834    0.0043 H   0  0  0  0  0  0  0  0  0  0  0  0
    4.1152   -2.4600    0.1290 H   0  0  0  0  0  0  0  0  0  0  0  0
 14 11  2  0
 11 15  1  0
 11  7  1  0
  3  7  1  0
  3  1  2  0
  6 10  2  0
  6  2  1  0
 10 13  1  0
  7  8  2  0
  1  2  1  0
  1  4  1  0
  2  5  2  0
 13  9  2  0
  8  4  1  0
  8 12  1  0
  5  9  1  0
  3 16  1  0
  5 17  1  0
  6 18  1  0
  9 19  1  0
 10 20  1  0
 12 21  1  0
 12 22  1  0
 12 23  1  0
 13 24  1  0
 15 25  1  0
M  END
