
     RDKit          3D

 56 55  0  0  0  0  0  0  0  0999 V2000
    5.4282   -3.8836   -1.1355 O   0  0  0  0  0  0  0  0  0  0  0  0
    5.2824   -3.8513    0.0612 C   0  0  0  0  0  0  0  0  0  0  0  0
    5.3956   -4.9301    0.8320 O   0  0  0  0  0  0  0  0  0  0  0  0
    4.9521   -2.6237    0.8634 C   0  0  0  0  0  0  0  0  0  0  0  0
    4.8460   -1.3577    0.0294 C   0  0  0  0  0  0  0  0  0  0  0  0
    4.5112   -0.1527    0.9001 C   0  0  0  0  0  0  0  0  0  0  0  0
    4.3434    1.1429    0.1066 C   0  0  2  0  0  0  0  0  0  0  0  0
    5.4948    1.4606   -0.6546 O   0  0  0  0  0  0  0  0  0  0  0  0
    3.9852    2.2745    1.0261 C   0  0  0  0  0  0  0  0  0  0  0  0
    2.7940    2.8755    1.1418 C   0  0  0  0  0  0  0  0  0  0  0  0
    1.5994    2.5706    0.3825 C   0  0  0  0  0  0  0  0  0  0  0  0
    0.4201    3.1849    0.5824 C   0  0  0  0  0  0  0  0  0  0  0  0
   -0.7734    2.8808   -0.1768 C   0  0  0  0  0  0  0  0  0  0  0  0
   -1.9681    3.4422    0.0357 C   0  0  0  0  0  0  0  0  0  0  0  0
   -3.1987    3.0996   -0.7490 C   0  0  2  0  0  0  0  0  0  0  0  0
   -5.1633   -5.1886    1.2012 C   0  0  0  0  0  0  0  0  0  0  0  0
   -3.7785    4.2525   -1.3282 O   0  0  0  0  0  0  0  0  0  0  0  0
   -5.8968   -3.8639    1.0444 C   0  0  0  0  0  0  0  0  0  0  0  0
   -5.1315   -2.8618    0.1897 C   0  0  0  0  0  0  0  0  0  0  0  0
   -5.8466   -1.5251    0.0430 C   0  0  0  0  0  0  0  0  0  0  0  0
   -5.0808   -0.5378   -0.8383 C   0  0  0  0  0  0  0  0  0  0  0  0
   -5.8194    0.7492   -1.0292 C   0  0  0  0  0  0  0  0  0  0  0  0
   -4.2004    2.3202    0.1140 C   0  0  0  0  0  0  0  0  0  0  0  0
    5.6120   -5.7025    0.2888 H   0  0  0  0  0  0  0  0  0  0  0  0
    4.0164   -2.8125    1.4000 H   0  0  0  0  0  0  0  0  0  0  0  0
    5.7147   -2.5096    1.6401 H   0  0  0  0  0  0  0  0  0  0  0  0
    5.7834   -1.1860   -0.5019 H   0  0  0  0  0  0  0  0  0  0  0  0
    4.0710   -1.4790   -0.7325 H   0  0  0  0  0  0  0  0  0  0  0  0
    3.5786   -0.3411    1.4403 H   0  0  0  0  0  0  0  0  0  0  0  0
    5.2835   -0.0145    1.6665 H   0  0  0  0  0  0  0  0  0  0  0  0
    3.5510    0.9882   -0.6304 H   0  0  0  0  0  0  0  0  0  0  0  0
    6.2433    1.5413   -0.0530 H   0  0  0  0  0  0  0  0  0  0  0  0
    4.7878    2.6122    1.6774 H   0  0  0  0  0  0  0  0  0  0  0  0
    2.6968    3.6686    1.8773 H   0  0  0  0  0  0  0  0  0  0  0  0
    1.6578    1.8061   -0.3856 H   0  0  0  0  0  0  0  0  0  0  0  0
    0.3397    3.9512    1.3493 H   0  0  0  0  0  0  0  0  0  0  0  0
   -0.6723    2.1382   -0.9651 H   0  0  0  0  0  0  0  0  0  0  0  0
   -2.0821    4.1807    0.8279 H   0  0  0  0  0  0  0  0  0  0  0  0
   -2.9112    2.4600   -1.5897 H   0  0  0  0  0  0  0  0  0  0  0  0
   -4.1427    4.7981   -0.6226 H   0  0  0  0  0  0  0  0  0  0  0  0
   -3.6980    1.4279    0.4909 H   0  0  0  0  0  0  0  0  0  0  0  0
   -4.4536    2.9184    0.9978 H   0  0  0  0  0  0  0  0  0  0  0  0
   -6.1155    2.7932   -0.8597 H   0  0  0  0  0  0  0  0  0  0  0  0
   -6.7701    0.6599   -1.5497 H   0  0  0  0  0  0  0  0  0  0  0  0
   -4.0889   -0.3666   -0.4141 H   0  0  0  0  0  0  0  0  0  0  0  0
   -4.9140   -0.9993   -1.8181 H   0  0  0  0  0  0  0  0  0  0  0  0
   -6.8470   -1.6875   -0.3728 H   0  0  0  0  0  0  0  0  0  0  0  0
   -5.9989   -1.0806    1.0318 H   0  0  0  0  0  0  0  0  0  0  0  0
   -4.9728   -5.6510    0.2305 H   0  0  0  0  0  0  0  0  0  0  0  0
   -4.1980   -5.0493    1.6919 H   0  0  0  0  0  0  0  0  0  0  0  0
   -5.7383   -5.8984    1.7970 H   0  0  0  0  0  0  0  0  0  0  0  0
   -4.1406   -2.6949    0.6269 H   0  0  0  0  0  0  0  0  0  0  0  0
   -4.9540   -3.2922   -0.8024 H   0  0  0  0  0  0  0  0  0  0  0  0
   -6.8818   -4.0395    0.6010 H   0  0  0  0  0  0  0  0  0  0  0  0
   -6.0845   -3.4284    2.0309 H   0  0  0  0  0  0  0  0  0  0  0  0
   -5.4527    1.9658   -0.6272 C   0  0  0  0  0  0  0  0  0  0  0  0
  1  2  2  0
  2  3  1  0
  2  4  1  0
  4  5  1  0
  5  6  1  0
  6  7  1  0
  7  8  1  0
  7  9  1  0
  9 10  2  0
 10 11  1  0
 11 12  2  0
 12 13  1  0
 13 14  2  0
 14 15  1  0
 15 17  1  0
 15 23  1  0
 23 56  1  0
 56 22  2  0
 22 21  1  0
 21 20  1  0
 20 19  1  0
 19 18  1  0
 18 16  1  0
  3 24  1  0
  4 25  1  0
  4 26  1  0
  5 27  1  0
  5 28  1  0
  6 29  1  0
  6 30  1  0
  7 31  1  6
  8 32  1  0
  9 33  1  0
 10 34  1  0
 11 35  1  0
 12 36  1  0
 13 37  1  0
 14 38  1  0
 15 39  1  6
 17 40  1  0
 23 41  1  0
 23 42  1  0
 56 43  1  0
 22 44  1  0
 21 45  1  0
 21 46  1  0
 20 47  1  0
 20 48  1  0
 19 52  1  0
 19 53  1  0
 18 54  1  0
 18 55  1  0
 16 49  1  0
 16 50  1  0
 16 51  1  0
M  END
