
     RDKit          3D

 24 25  0  0  0  0  0  0  0  0999 V2000
   -2.2165   -3.0383   -0.2554 O   0  0  0  0  0  0  0  0  0  0  0  0
   -1.2864   -2.2817   -0.2304 C   0  0  0  0  0  0  0  0  0  0  0  0
   -1.2604   -0.9395   -0.4757 N   0  0  0  0  0  0  0  0  0  0  0  0
   -2.4336   -0.1432   -0.7619 C   0  0  0  0  0  0  0  0  0  0  0  0
   -3.0162    0.4503    0.5124 C   0  0  0  0  0  0  0  0  0  0  0  0
   -4.2273    1.2968    0.2374 C   0  0  0  0  0  0  0  0  0  0  0  0
   -4.6952    1.4865   -0.8572 O   0  0  0  0  0  0  0  0  0  0  0  0
   -4.7292    1.8138    1.3503 O   0  0  0  0  0  0  0  0  0  0  0  0
   -0.0149   -2.6762    0.0682 O   0  0  0  0  0  0  0  0  0  0  0  0
    0.7889   -1.5821    0.0289 C   0  0  0  0  0  0  0  0  0  0  0  0
    0.0256   -0.4734   -0.3052 C   0  0  0  0  0  0  0  0  0  0  0  0
    2.1348   -1.5131    0.2689 C   0  0  0  0  0  0  0  0  0  0  0  0
    2.7198   -0.2511    0.1616 C   0  0  0  0  0  0  0  0  0  0  0  0
    4.4100   -0.1042    0.4533 Cl  0  0  0  0  0  0  0  0  0  0  0  0
    1.9618    0.8689   -0.1732 C   0  0  0  0  0  0  0  0  0  0  0  0
    2.7102    2.4142   -0.2990 Cl  0  0  0  0  0  0  0  0  0  0  0  0
    0.5918    0.7766   -0.4130 C   0  0  0  0  0  0  0  0  0  0  0  0
   -2.1478    0.6362   -1.4673 H   0  0  0  0  0  0  0  0  0  0  0  0
   -3.1569   -0.7802   -1.2671 H   0  0  0  0  0  0  0  0  0  0  0  0
   -3.2964   -0.3451    1.2083 H   0  0  0  0  0  0  0  0  0  0  0  0
   -2.2727    1.0598    1.0343 H   0  0  0  0  0  0  0  0  0  0  0  0
   -5.5135    2.3454    1.1470 H   0  0  0  0  0  0  0  0  0  0  0  0
    2.7201   -2.3838    0.5291 H   0  0  0  0  0  0  0  0  0  0  0  0
    0.0174    1.6553   -0.6713 H   0  0  0  0  0  0  0  0  0  0  0  0
  1  2  2  0
  2  3  1  0
  2  9  1  0
  3  4  1  0
  3 11  1  0
  4  5  1  0
  5  6  1  0
  6  7  2  0
  6  8  1  0
  9 10  1  0
 10 11  2  0
 10 12  1  0
 11 17  1  0
 12 13  2  0
 13 14  1  0
 13 15  1  0
 15 16  1  0
 15 17  2  0
  4 18  1  0
  4 19  1  0
  5 20  1  0
  5 21  1  0
  8 22  1  0
 12 23  1  0
 17 24  1  0
M  END
