
     RDKit          3D

 90 90  0  0  0  0  0  0  0  0999 V2000
    4.3687   -0.0437    0.3644 C   0  0  0  0  0  0  0  0  0  0  0  0
    4.4869   -0.7184    1.4030 O   0  0  0  0  0  0  0  0  0  0  0  0
    5.4731    0.1654   -0.4353 O   0  0  0  0  0  0  0  0  0  0  0  0
    6.6904   -0.4342    0.0582 C   0  0  0  0  0  0  0  0  0  0  0  0
    7.7667   -0.1356   -0.9294 C   0  0  0  0  0  0  0  0  0  0  0  0
    7.8120    1.0877   -1.6052 C   0  0  0  0  0  0  0  0  0  0  0  0
    8.8510    1.3556   -2.4959 C   0  0  0  0  0  0  0  0  0  0  0  0
    9.8506    0.4072   -2.7108 C   0  0  0  0  0  0  0  0  0  0  0  0
    9.8075   -0.8141   -2.0376 C   0  0  0  0  0  0  0  0  0  0  0  0
    8.7667   -1.0895   -1.1526 C   0  0  0  0  0  0  0  0  0  0  0  0
    3.2414    0.5856   -0.1121 N   0  0  0  0  0  0  0  0  0  0  0  0
    1.9645    0.3766    0.5185 C   0  0  2  0  0  0  0  0  0  0  0  0
    0.9578   -0.2519   -0.4831 C   0  0  0  0  0  0  0  0  0  0  0  0
    0.9596    0.0574   -1.6910 O   0  0  0  0  0  0  0  0  0  0  0  0
    1.3019    1.6688    1.0254 C   0  0  0  0  0  0  0  0  0  0  0  0
    2.1184    2.4021    2.0771 C   0  0  1  0  0  0  0  0  0  0  0  0
    1.3730    3.6528    2.5022 C   0  0  0  0  0  0  0  0  0  0  0  0
    2.4131    1.5289    3.2785 C   0  0  0  0  0  0  0  0  0  0  0  0
    0.0513   -1.1522    0.0334 N   0  0  0  0  0  0  0  0  0  0  0  0
   -1.0083   -1.7197   -0.7566 C   0  0  2  0  0  0  0  0  0  0  0  0
   -2.3870   -1.3639   -0.1385 C   0  0  0  0  0  0  0  0  0  0  0  0
   -2.5684   -1.3502    1.0915 O   0  0  0  0  0  0  0  0  0  0  0  0
   -0.9763   -3.2539   -0.8544 C   0  0  0  0  0  0  0  0  0  0  0  0
    0.2778   -3.7931   -1.5234 C   0  0  1  0  0  0  0  0  0  0  0  0
    0.2171   -5.3082   -1.5522 C   0  0  0  0  0  0  0  0  0  0  0  0
    0.4544   -3.2461   -2.9244 C   0  0  0  0  0  0  0  0  0  0  0  0
   -3.8885    3.5654    1.3802 C   0  0  0  0  0  0  0  0  0  0  0  0
   -3.8754    3.2402    2.6997 O   0  0  0  0  0  0  0  0  0  0  0  0
   -2.9736    3.9871    3.5407 C   0  0  0  0  0  0  0  0  0  0  0  0
   -3.2322    3.5178    4.9511 C   0  0  0  0  0  0  0  0  0  0  0  0
   -4.8697    2.7479    0.5592 C   0  0  1  0  0  0  0  0  0  0  0  0
   -5.3520    3.5276   -0.5123 O   0  0  0  0  0  0  0  0  0  0  0  0
   -4.1668    1.4801    0.0710 C   0  0  0  0  0  0  0  0  0  0  0  0
   -5.1227    0.3130   -0.0301 C   0  0  0  0  0  0  0  0  0  0  0  0
   -6.2700    0.3468    0.4403 O   0  0  0  0  0  0  0  0  0  0  0  0
   -4.7099   -0.8545   -0.7554 N   0  0  0  0  0  0  0  0  0  0  0  0
   -3.3860   -0.9899   -1.0497 N   0  0  0  0  0  0  0  0  0  0  0  0
   -5.4716   -2.0787   -0.4416 C   0  0  0  0  0  0  0  0  0  0  0  0
   -5.3674   -3.1831   -1.5001 C   0  0  1  0  0  0  0  0  0  0  0  0
   -6.1709   -4.3760   -1.0195 C   0  0  0  0  0  0  0  0  0  0  0  0
   -5.8683   -2.7179   -2.8495 C   0  0  0  0  0  0  0  0  0  0  0  0
    6.9255    0.0152    1.0607 H   0  0  0  0  0  0  0  0  0  0  0  0
    6.5230   -1.5376    0.1779 H   0  0  0  0  0  0  0  0  0  0  0  0
    7.0178    1.8306   -1.4354 H   0  0  0  0  0  0  0  0  0  0  0  0
    8.8806    2.3175   -3.0285 H   0  0  0  0  0  0  0  0  0  0  0  0
   10.6714    0.6208   -3.4110 H   0  0  0  0  0  0  0  0  0  0  0  0
   10.5944   -1.5637   -2.2068 H   0  0  0  0  0  0  0  0  0  0  0  0
    8.7318   -2.0560   -0.6280 H   0  0  0  0  0  0  0  0  0  0  0  0
    3.2622    1.0225   -1.0053 H   0  0  0  0  0  0  0  0  0  0  0  0
    2.1213   -0.3187    1.4006 H   0  0  0  0  0  0  0  0  0  0  0  0
    1.1127    2.3573    0.1597 H   0  0  0  0  0  0  0  0  0  0  0  0
    0.3072    1.3851    1.4615 H   0  0  0  0  0  0  0  0  0  0  0  0
    3.0985    2.7172    1.6187 H   0  0  0  0  0  0  0  0  0  0  0  0
    0.3979    3.3874    2.9781 H   0  0  0  0  0  0  0  0  0  0  0  0
    1.9806    4.2302    3.2397 H   0  0  0  0  0  0  0  0  0  0  0  0
    1.1692    4.3063    1.6201 H   0  0  0  0  0  0  0  0  0  0  0  0
    3.1246    0.7098    3.0054 H   0  0  0  0  0  0  0  0  0  0  0  0
    2.8787    2.1388    4.0902 H   0  0  0  0  0  0  0  0  0  0  0  0
    1.4748    1.0728    3.6759 H   0  0  0  0  0  0  0  0  0  0  0  0
    0.0459   -1.3578    1.0057 H   0  0  0  0  0  0  0  0  0  0  0  0
   -0.9252   -1.2895   -1.8028 H   0  0  0  0  0  0  0  0  0  0  0  0
   -1.0667   -3.6968    0.1727 H   0  0  0  0  0  0  0  0  0  0  0  0
   -1.8777   -3.5722   -1.4433 H   0  0  0  0  0  0  0  0  0  0  0  0
    1.1728   -3.4897   -0.9093 H   0  0  0  0  0  0  0  0  0  0  0  0
   -0.6446   -5.6553   -2.1715 H   0  0  0  0  0  0  0  0  0  0  0  0
    1.1567   -5.7216   -1.9914 H   0  0  0  0  0  0  0  0  0  0  0  0
    0.0992   -5.7153   -0.5194 H   0  0  0  0  0  0  0  0  0  0  0  0
   -0.4723   -3.3980   -3.5281 H   0  0  0  0  0  0  0  0  0  0  0  0
    0.6909   -2.1531   -2.8944 H   0  0  0  0  0  0  0  0  0  0  0  0
    1.2973   -3.7706   -3.4365 H   0  0  0  0  0  0  0  0  0  0  0  0
   -1.9234    3.7724    3.2105 H   0  0  0  0  0  0  0  0  0  0  0  0
   -3.1832    5.0811    3.4140 H   0  0  0  0  0  0  0  0  0  0  0  0
   -2.5282    4.0399    5.6422 H   0  0  0  0  0  0  0  0  0  0  0  0
   -4.2815    3.7475    5.2546 H   0  0  0  0  0  0  0  0  0  0  0  0
   -3.0771    2.4154    5.0329 H   0  0  0  0  0  0  0  0  0  0  0  0
   -5.7857    2.4984    1.1727 H   0  0  0  0  0  0  0  0  0  0  0  0
   -4.5898    3.9045   -0.9758 H   0  0  0  0  0  0  0  0  0  0  0  0
   -3.6930    1.6870   -0.9250 H   0  0  0  0  0  0  0  0  0  0  0  0
   -3.3599    1.1830    0.7967 H   0  0  0  0  0  0  0  0  0  0  0  0
   -3.2498   -1.2349   -2.0136 H   0  0  0  0  0  0  0  0  0  0  0  0
   -5.1397   -2.4961    0.5524 H   0  0  0  0  0  0  0  0  0  0  0  0
   -6.5512   -1.7644   -0.3541 H   0  0  0  0  0  0  0  0  0  0  0  0
   -4.2930   -3.5069   -1.6040 H   0  0  0  0  0  0  0  0  0  0  0  0
   -7.2481   -4.1040   -0.9066 H   0  0  0  0  0  0  0  0  0  0  0  0
   -6.0925   -5.2110   -1.7566 H   0  0  0  0  0  0  0  0  0  0  0  0
   -5.7900   -4.7347   -0.0332 H   0  0  0  0  0  0  0  0  0  0  0  0
   -6.9063   -2.3145   -2.7639 H   0  0  0  0  0  0  0  0  0  0  0  0
   -5.2131   -1.9148   -3.2640 H   0  0  0  0  0  0  0  0  0  0  0  0
   -5.8787   -3.5711   -3.5707 H   0  0  0  0  0  0  0  0  0  0  0  0
   -3.1428    4.4561    0.9655 O   0  0  0  0  0  0  0  0  0  0  0  0
 11 12  1  0
 11 49  1  0
 12 13  1  0
 12 15  1  0
 12 50  1  1
 13 14  2  0
 15 16  1  0
 15 51  1  0
 15 52  1  0
 16 17  1  0
 16 18  1  0
 16 53  1  6
 17 54  1  0
 17 55  1  0
 17 56  1  0
 18 57  1  0
 18 58  1  0
 18 59  1  0
 19 20  1  0
 19 60  1  0
 20 21  1  0
 20 23  1  0
 20 61  1  6
 21 22  2  0
 23 24  1  0
 23 62  1  0
 23 63  1  0
 24 25  1  0
 24 26  1  0
 24 64  1  1
 25 65  1  0
 25 66  1  0
 25 67  1  0
 26 68  1  0
 26 69  1  0
 26 70  1  0
 90 27  2  0
 27 28  1  0
 27 31  1  0
 28 29  1  0
 29 30  1  0
 31 32  1  0
 31 33  1  0
 33 34  1  0
 34 35  2  0
 34 36  1  0
 36 37  1  0
 36 38  1  0
 38 39  1  0
 39 40  1  0
 39 41  1  0
 29 71  1  0
 29 72  1  0
 30 73  1  0
 30 74  1  0
 30 75  1  0
 31 76  1  1
 32 77  1  0
 33 78  1  0
 33 79  1  0
 37 80  1  0
 38 81  1  0
 38 82  1  0
 39 83  1  6
 40 84  1  0
 40 85  1  0
 40 86  1  0
 41 87  1  0
 41 88  1  0
 41 89  1  0
  1  2  2  0
  1  3  1  0
  3  4  1  0
  4  5  1  0
  4 42  1  0
  4 43  1  0
  5  6  2  0
  5 10  1  0
  6  7  1  0
  6 44  1  0
  7  8  2  0
  7 45  1  0
  8  9  1  0
  8 46  1  0
  9 10  2  0
  9 47  1  0
 10 48  1  0
 11  1  1  0
 13 19  1  0
 21 37  1  0
M  END
