
     RDKit          3D

 56 58  0  0  0  0  0  0  0  0999 V2000
   -0.8505   -2.0418    0.8477 C   0  0  0  0  0  0  0  0  0  0  0  0
   -0.7182   -2.0505   -0.5447 N   0  0  0  0  0  0  0  0  0  0  0  0
   -0.3561   -0.5234   -2.2085 O   0  0  0  0  0  0  0  0  0  0  0  0
   -0.4835   -0.8092   -1.0375 C   0  0  0  0  0  0  0  0  0  0  0  0
   -0.5986   -0.7691    1.2417 N   0  0  0  0  0  0  0  0  0  0  0  0
   -0.3810    0.1441    0.1440 C   0  0  1  0  0  0  0  0  0  0  0  0
   -1.1414   -3.0904    1.5030 N   0  0  0  0  0  0  0  0  0  0  0  0
    1.0293    0.7584    0.1800 C   0  0  0  0  0  0  0  0  0  0  0  0
   -2.8871    0.9203    0.3366 C   0  0  1  0  0  0  0  0  0  0  0  0
   -3.6828    2.2085    0.5698 C   0  0  0  0  0  0  0  0  0  0  0  0
   -5.1530    1.9343    0.8669 C   0  0  0  0  0  0  0  0  0  0  0  0
   -5.7981    1.1090   -0.2404 C   0  0  0  0  0  0  0  0  0  0  0  0
   -5.0154   -0.1753   -0.4852 C   0  0  0  0  0  0  0  0  0  0  0  0
   -3.5454    0.1107   -0.7814 C   0  0  0  0  0  0  0  0  0  0  0  0
   -1.4226    1.2746    0.0784 C   0  0  0  0  0  0  0  0  0  0  0  0
    2.1686   -0.2533    0.1867 C   0  0  0  0  0  0  0  0  0  0  0  0
    3.5434    0.3655    0.4389 C   0  0  1  0  0  0  0  0  0  0  0  0
    4.6023   -0.7300    0.5761 C   0  0  0  0  0  0  0  0  0  0  0  0
    5.9970   -0.1620    0.8188 C   0  0  0  0  0  0  0  0  0  0  0  0
    6.3904    0.8241   -0.2751 C   0  0  0  0  0  0  0  0  0  0  0  0
    5.3480    1.9289   -0.4095 C   0  0  0  0  0  0  0  0  0  0  0  0
    3.9545    1.3550   -0.6518 C   0  0  0  0  0  0  0  0  0  0  0  0
   -0.8993   -3.2215   -1.3655 C   0  0  0  0  0  0  0  0  0  0  0  0
   -0.7615   -0.4627    2.1863 H   0  0  0  0  0  0  0  0  0  0  0  0
   -1.1844   -2.8965    2.4967 H   0  0  0  0  0  0  0  0  0  0  0  0
    1.1200    1.4374   -0.6711 H   0  0  0  0  0  0  0  0  0  0  0  0
    1.0890    1.3834    1.0771 H   0  0  0  0  0  0  0  0  0  0  0  0
   -2.9408    0.3295    1.2601 H   0  0  0  0  0  0  0  0  0  0  0  0
   -3.2342    2.7748    1.3912 H   0  0  0  0  0  0  0  0  0  0  0  0
   -3.6039    2.8417   -0.3221 H   0  0  0  0  0  0  0  0  0  0  0  0
   -5.2330    1.3936    1.8163 H   0  0  0  0  0  0  0  0  0  0  0  0
   -5.6893    2.8770    1.0020 H   0  0  0  0  0  0  0  0  0  0  0  0
   -6.8369    0.8801    0.0103 H   0  0  0  0  0  0  0  0  0  0  0  0
   -5.8223    1.6984   -1.1638 H   0  0  0  0  0  0  0  0  0  0  0  0
   -5.0855   -0.8171    0.3996 H   0  0  0  0  0  0  0  0  0  0  0  0
   -5.4574   -0.7384   -1.3111 H   0  0  0  0  0  0  0  0  0  0  0  0
   -3.4676    0.6694   -1.7215 H   0  0  0  0  0  0  0  0  0  0  0  0
   -3.0313   -0.8386   -0.9415 H   0  0  0  0  0  0  0  0  0  0  0  0
   -1.1196    2.0190    0.8223 H   0  0  0  0  0  0  0  0  0  0  0  0
   -1.3240    1.7704   -0.8922 H   0  0  0  0  0  0  0  0  0  0  0  0
    1.9831   -0.9996    0.9650 H   0  0  0  0  0  0  0  0  0  0  0  0
    2.2004   -0.7954   -0.7655 H   0  0  0  0  0  0  0  0  0  0  0  0
    3.5010    0.9128    1.3918 H   0  0  0  0  0  0  0  0  0  0  0  0
    4.3292   -1.4107    1.3878 H   0  0  0  0  0  0  0  0  0  0  0  0
    4.6092   -1.3316   -0.3412 H   0  0  0  0  0  0  0  0  0  0  0  0
    6.0156    0.3470    1.7890 H   0  0  0  0  0  0  0  0  0  0  0  0
    6.7269   -0.9731    0.8812 H   0  0  0  0  0  0  0  0  0  0  0  0
    7.3744    1.2519   -0.0669 H   0  0  0  0  0  0  0  0  0  0  0  0
    6.4774    0.2912   -1.2285 H   0  0  0  0  0  0  0  0  0  0  0  0
    5.3372    2.5286    0.5075 H   0  0  0  0  0  0  0  0  0  0  0  0
    5.6166    2.6108   -1.2203 H   0  0  0  0  0  0  0  0  0  0  0  0
    3.9369    0.8402   -1.6209 H   0  0  0  0  0  0  0  0  0  0  0  0
    3.2299    2.1700   -0.7220 H   0  0  0  0  0  0  0  0  0  0  0  0
   -0.8845   -4.0987   -0.7267 H   0  0  0  0  0  0  0  0  0  0  0  0
   -1.8525   -3.1869   -1.8935 H   0  0  0  0  0  0  0  0  0  0  0  0
   -0.0955   -3.2982   -2.0947 H   0  0  0  0  0  0  0  0  0  0  0  0
  1  2  1  0
  1  5  1  0
  1  7  2  0
  2  4  1  0
  2 23  1  0
  3  4  2  0
  4  6  1  0
  5  6  1  0
  6  8  1  1
  6 15  1  0
  8 16  1  0
  9 10  1  0
  9 14  1  0
  9 15  1  0
 10 11  1  0
 11 12  1  0
 12 13  1  0
 13 14  1  0
 16 17  1  0
 17 18  1  0
 17 22  1  0
 18 19  1  0
 19 20  1  0
 20 21  1  0
 21 22  1  0
  5 24  1  0
  7 25  1  0
  8 26  1  0
  8 27  1  0
  9 28  1  1
 10 29  1  0
 10 30  1  0
 11 31  1  0
 11 32  1  0
 12 33  1  0
 12 34  1  0
 13 35  1  0
 13 36  1  0
 14 37  1  0
 14 38  1  0
 15 39  1  0
 15 40  1  0
 16 41  1  0
 16 42  1  0
 17 43  1  1
 18 44  1  0
 18 45  1  0
 19 46  1  0
 19 47  1  0
 20 48  1  0
 20 49  1  0
 21 50  1  0
 21 51  1  0
 22 52  1  0
 22 53  1  0
 23 54  1  0
 23 55  1  0
 23 56  1  0
M  END
