
     RDKit          3D

 29 31  0  0  0  0  0  0  0  0999 V2000
   -4.7817   -0.7642   -0.5961 Cl  0  0  0  0  0  0  0  0  0  0  0  0
    3.0666   -2.4592   -0.5087 C   0  0  0  0  0  0  0  0  0  0  0  0
    3.3956   -1.6318   -1.5818 C   0  0  0  0  0  0  0  0  0  0  0  0
   -2.3278    0.3205   -0.8928 C   0  0  0  0  0  0  0  0  0  0  0  0
   -2.9644   -0.3082    1.3481 C   0  0  0  0  0  0  0  0  0  0  0  0
    2.3975   -1.9642    0.5948 C   0  0  0  0  0  0  0  0  0  0  0  0
    3.0549   -0.2933   -1.5282 C   0  0  0  0  0  0  0  0  0  0  0  0
   -1.1020    0.7647   -0.4142 C   0  0  0  0  0  0  0  0  0  0  0  0
   -1.7367    0.1375    1.8061 C   0  0  0  0  0  0  0  0  0  0  0  0
    1.2813    2.0195    0.6950 N   0  0  0  0  0  0  0  0  0  0  0  0
    1.4169   -0.0679    1.7401 N   0  0  0  0  0  0  0  0  0  0  0  0
    2.0757    1.6682   -0.3423 C   0  0  0  0  0  0  0  0  0  0  0  0
   -3.2472   -0.2148   -0.0068 C   0  0  0  0  0  0  0  0  0  0  0  0
   -0.7889    0.6701    0.9359 C   0  0  0  0  0  0  0  0  0  0  0  0
    2.0405   -0.6134    0.6465 C   0  0  0  0  0  0  0  0  0  0  0  0
    2.3787    0.2248   -0.4264 C   0  0  0  0  0  0  0  0  0  0  0  0
    0.5611    1.0764    1.5122 C   0  0  2  0  0  0  0  0  0  0  0  0
    3.3306   -3.5087   -0.5371 H   0  0  0  0  0  0  0  0  0  0  0  0
    3.9134   -2.0318   -2.4425 H   0  0  0  0  0  0  0  0  0  0  0  0
   -2.5596    0.3979   -1.9464 H   0  0  0  0  0  0  0  0  0  0  0  0
   -3.6923   -0.7135    2.0378 H   0  0  0  0  0  0  0  0  0  0  0  0
    2.1418   -2.6187    1.4190 H   0  0  0  0  0  0  0  0  0  0  0  0
    3.3129    0.3676   -2.3454 H   0  0  0  0  0  0  0  0  0  0  0  0
   -0.4064    1.1983   -1.1198 H   0  0  0  0  0  0  0  0  0  0  0  0
   -1.5201    0.0723    2.8666 H   0  0  0  0  0  0  0  0  0  0  0  0
    1.0060    2.9864    0.7720 H   0  0  0  0  0  0  0  0  0  0  0  0
    1.0613   -0.7247    2.4183 H   0  0  0  0  0  0  0  0  0  0  0  0
    0.3853    1.5484    2.4800 H   0  0  0  0  0  0  0  0  0  0  0  0
    2.5285    2.4913   -1.1262 O   0  0  0  0  0  0  0  0  0  0  0  0
  1 13  1  0
 29 12  2  0
  2  3  2  0
  2  6  1  0
  3  7  1  0
  4  8  2  0
  4 13  1  0
  5  9  1  0
  5 13  2  0
  6 15  2  0
  7 16  2  0
  8 14  1  0
  9 14  2  0
 10 12  1  0
 10 17  1  0
 11 15  1  0
 11 17  1  0
 12 16  1  0
 14 17  1  0
 15 16  1  0
  2 18  1  0
  3 19  1  0
  4 20  1  0
  5 21  1  0
  6 22  1  0
  7 23  1  0
  8 24  1  0
  9 25  1  0
 10 26  1  0
 11 27  1  0
 17 28  1  1
M  END
