
     RDKit          3D

 10  9  0  0  0  0  0  0  0  0999 V2000
   -1.9843   -0.2010    0.6133 C   0  0  0  0  0  0  0  0  0  0  0  0
   -0.6902    0.0656    0.6869 C   0  0  0  0  0  0  0  0  0  0  0  0
    0.0407    0.4676    1.9284 C   0  0  0  0  0  0  0  0  0  0  0  0
    0.3978   -0.0232   -0.8694 Br  0  0  0  0  0  0  0  0  0  0  0  0
    1.1001   -0.4234    2.1639 O   0  0  0  0  0  0  0  0  0  0  0  0
   -2.4904   -0.4559   -0.3070 H   0  0  0  0  0  0  0  0  0  0  0  0
   -2.5827   -0.1628    1.5148 H   0  0  0  0  0  0  0  0  0  0  0  0
   -0.6887    0.4707    2.7483 H   0  0  0  0  0  0  0  0  0  0  0  0
    0.3960    1.4980    1.8127 H   0  0  0  0  0  0  0  0  0  0  0  0
    1.7567    0.0265    2.7023 H   0  0  0  0  0  0  0  0  0  0  0  0
  1  2  2  0
  1  6  1  0
  1  7  1  0
  2  3  1  0
  2  4  1  0
  3  5  1  0
  3  8  1  0
  3  9  1  0
  5 10  1  0
M  END
