
     RDKit          3D

 51 53  0  0  0  0  0  0  0  0999 V2000
    8.8356   -3.7583   -0.8461 O   0  0  0  0  0  0  0  0  0  0  0  0
    8.0073   -3.0438   -0.0885 C   0  0  0  0  0  0  0  0  0  0  0  0
    8.0208   -3.0878    1.1166 O   0  0  0  0  0  0  0  0  0  0  0  0
    7.0820   -2.1959   -0.9162 C   0  0  0  0  0  0  0  0  0  0  0  0
    6.0682   -1.4152   -0.0963 C   0  0  0  0  0  0  0  0  0  0  0  0
    5.1692   -0.5584   -0.9794 C   0  0  0  0  0  0  0  0  0  0  0  0
    4.1061    0.1837   -0.1809 C   0  0  0  0  0  0  0  0  0  0  0  0
    3.2639    1.0859   -1.0737 C   0  0  0  0  0  0  0  0  0  0  0  0
    2.1430    1.6910   -0.3750 N   0  0  0  0  0  0  0  0  0  0  0  0
    2.0990    2.8275    0.4071 C   0  0  0  0  0  0  0  0  0  0  0  0
    0.8435    2.9766    0.9445 C   0  0  0  0  0  0  0  0  0  0  0  0
    0.0650    1.8827    0.4977 C   0  0  0  0  0  0  0  0  0  0  0  0
   -1.2656    1.5007    0.7065 C   0  0  0  0  0  0  0  0  0  0  0  0
   -1.7248    0.3434    0.1113 C   0  0  0  0  0  0  0  0  0  0  0  0
   -3.0130    0.0016    0.3645 O   0  0  0  0  0  0  0  0  0  0  0  0
   -3.6201   -0.9880   -0.4441 C   0  0  0  0  0  0  0  0  0  0  0  0
   -5.0886   -0.9550   -0.1442 C   0  0  0  0  0  0  0  0  0  0  0  0
   -5.7261   -1.9098    0.6472 C   0  0  0  0  0  0  0  0  0  0  0  0
   -4.8224   -3.2154    1.3436 Cl  0  0  0  0  0  0  0  0  0  0  0  0
   -7.0856   -1.8613    0.9173 C   0  0  0  0  0  0  0  0  0  0  0  0
   -7.8419   -0.8256    0.3973 C   0  0  0  0  0  0  0  0  0  0  0  0
   -7.2480    0.1542   -0.3818 C   0  0  0  0  0  0  0  0  0  0  0  0
   -5.8891    0.0786   -0.6346 C   0  0  0  0  0  0  0  0  0  0  0  0
   -5.1726    1.3236   -1.6011 Cl  0  0  0  0  0  0  0  0  0  0  0  0
   -0.8689   -0.4365   -0.6958 C   0  0  0  0  0  0  0  0  0  0  0  0
    0.4420   -0.0690   -0.9169 C   0  0  0  0  0  0  0  0  0  0  0  0
    0.9102    1.1005   -0.3174 C   0  0  0  0  0  0  0  0  0  0  0  0
    3.1847    3.7795    0.6755 C   0  0  0  0  0  0  0  0  0  0  0  0
    4.3523    3.4559    0.1414 O   0  0  0  0  0  0  0  0  0  0  0  0
    3.0146    4.7733    1.3426 O   0  0  0  0  0  0  0  0  0  0  0  0
    9.4215   -4.2892   -0.2860 H   0  0  0  0  0  0  0  0  0  0  0  0
    7.6954   -1.5168   -1.5177 H   0  0  0  0  0  0  0  0  0  0  0  0
    6.5755   -2.8461   -1.6368 H   0  0  0  0  0  0  0  0  0  0  0  0
    5.4535   -2.1060    0.4866 H   0  0  0  0  0  0  0  0  0  0  0  0
    6.5840   -0.7740    0.6228 H   0  0  0  0  0  0  0  0  0  0  0  0
    5.7820    0.1592   -1.5351 H   0  0  0  0  0  0  0  0  0  0  0  0
    4.6825   -1.1908   -1.7295 H   0  0  0  0  0  0  0  0  0  0  0  0
    3.4535   -0.5385    0.3193 H   0  0  0  0  0  0  0  0  0  0  0  0
    4.5762    0.7804    0.6049 H   0  0  0  0  0  0  0  0  0  0  0  0
    3.8706    1.8614   -1.5332 H   0  0  0  0  0  0  0  0  0  0  0  0
    2.8487    0.5065   -1.8991 H   0  0  0  0  0  0  0  0  0  0  0  0
    0.5271    3.7835    1.5857 H   0  0  0  0  0  0  0  0  0  0  0  0
   -1.9254    2.0971    1.3245 H   0  0  0  0  0  0  0  0  0  0  0  0
   -3.4554   -0.7827   -1.5066 H   0  0  0  0  0  0  0  0  0  0  0  0
   -3.2056   -1.9767   -0.2377 H   0  0  0  0  0  0  0  0  0  0  0  0
   -7.5468   -2.6228    1.5301 H   0  0  0  0  0  0  0  0  0  0  0  0
   -8.9024   -0.7790    0.6034 H   0  0  0  0  0  0  0  0  0  0  0  0
   -7.8344    0.9675   -0.7858 H   0  0  0  0  0  0  0  0  0  0  0  0
   -1.2224   -1.3504   -1.1534 H   0  0  0  0  0  0  0  0  0  0  0  0
    1.0706   -0.6913   -1.5398 H   0  0  0  0  0  0  0  0  0  0  0  0
    5.0157    4.1251    0.3693 H   0  0  0  0  0  0  0  0  0  0  0  0
  1  2  1  0
  1 31  1  0
  2  3  2  0
  2  4  1  0
  4  5  1  0
  4 32  1  0
  4 33  1  0
  5  6  1  0
  5 34  1  0
  5 35  1  0
  6  7  1  0
  6 36  1  0
  6 37  1  0
  7  8  1  0
  7 38  1  0
  7 39  1  0
  8  9  1  0
  8 40  1  0
  8 41  1  0
  9 10  1  0
  9 27  1  0
 10 11  2  0
 10 28  1  0
 11 12  1  0
 11 42  1  0
 12 13  1  0
 12 27  2  0
 13 14  2  0
 13 43  1  0
 14 15  1  0
 14 25  1  0
 15 16  1  0
 16 17  1  0
 16 44  1  0
 16 45  1  0
 17 18  2  0
 17 23  1  0
 18 19  1  0
 18 20  1  0
 20 21  2  0
 20 46  1  0
 21 22  1  0
 21 47  1  0
 22 23  2  0
 22 48  1  0
 23 24  1  0
 25 26  2  0
 25 49  1  0
 26 27  1  0
 26 50  1  0
 28 29  1  0
 28 30  2  0
 29 51  1  0
M  END
