
     RDKit          3D

 41 43  0  0  0  0  0  0  0  0999 V2000
    4.3840    0.5724   -0.1093 C   0  0  0  0  0  0  0  0  0  0  0  0
    0.4232    0.7735   -2.1793 O   0  0  0  0  0  0  0  0  0  0  0  0
   -3.4266   -1.7300    0.3559 C   0  0  0  0  0  0  0  0  0  0  0  0
   -2.4664   -2.6000   -0.0747 C   0  0  0  0  0  0  0  0  0  0  0  0
    1.4830   -0.2745    1.3622 C   0  0  1  0  0  0  0  0  0  0  0  0
    2.9652   -0.4762    1.6717 C   0  0  0  0  0  0  0  0  0  0  0  0
   -3.1858   -0.3393    0.3489 C   0  0  0  0  0  0  0  0  0  0  0  0
   -1.9507    0.1818   -0.1060 C   0  0  0  0  0  0  0  0  0  0  0  0
   -0.9734   -0.7596   -0.5347 C   0  0  0  0  0  0  0  0  0  0  0  0
    0.7900    0.3236    2.5757 C   0  0  0  0  0  0  0  0  0  0  0  0
    1.3799   -1.4214   -1.4640 O   0  0  0  0  0  0  0  0  0  0  0  0
    1.2563    0.5399    0.1671 N   0  0  0  0  0  0  0  0  0  0  0  0
    3.8070   -0.6850    0.4598 N   0  0  0  0  0  0  0  0  0  0  0  0
    3.3709    1.4383   -0.8290 C   0  0  0  0  0  0  0  0  0  0  0  0
    2.0825    1.7252   -0.0660 C   0  0  0  0  0  0  0  0  0  0  0  0
   -1.2273   -2.1070   -0.5213 C   0  0  0  0  0  0  0  0  0  0  0  0
   -4.1729    0.5689    0.7982 C   0  0  0  0  0  0  0  0  0  0  0  0
   -4.0174    1.8628    0.8210 N   0  0  0  0  0  0  0  0  0  0  0  0
   -2.8401    2.3552    0.3823 C   0  0  0  0  0  0  0  0  0  0  0  0
   -1.8070    1.5866   -0.0784 C   0  0  0  0  0  0  0  0  0  0  0  0
    4.8367    1.0976    0.7299 H   0  0  0  0  0  0  0  0  0  0  0  0
    5.1779    0.2712   -0.7886 H   0  0  0  0  0  0  0  0  0  0  0  0
   -2.6423   -3.6662   -0.0724 H   0  0  0  0  0  0  0  0  0  0  0  0
    1.0538   -1.2626    1.1825 H   0  0  0  0  0  0  0  0  0  0  0  0
    3.3866    0.3759    2.2029 H   0  0  0  0  0  0  0  0  0  0  0  0
    3.0764   -1.3497    2.3097 H   0  0  0  0  0  0  0  0  0  0  0  0
   -0.2863    0.3615    2.4167 H   0  0  0  0  0  0  0  0  0  0  0  0
    0.9819   -0.2846    3.4597 H   0  0  0  0  0  0  0  0  0  0  0  0
    1.1477    1.3337    2.7764 H   0  0  0  0  0  0  0  0  0  0  0  0
    3.2897   -1.2013   -0.2591 H   0  0  0  0  0  0  0  0  0  0  0  0
    3.8671    2.3883   -1.0345 H   0  0  0  0  0  0  0  0  0  0  0  0
    3.1383    1.0079   -1.8045 H   0  0  0  0  0  0  0  0  0  0  0  0
    1.5021    2.4713   -0.6057 H   0  0  0  0  0  0  0  0  0  0  0  0
    2.2890    2.1629    0.9128 H   0  0  0  0  0  0  0  0  0  0  0  0
   -0.4725   -2.8092   -0.8475 H   0  0  0  0  0  0  0  0  0  0  0  0
   -5.1215    0.1731    1.1487 H   0  0  0  0  0  0  0  0  0  0  0  0
   -2.7369    3.4331    0.4071 H   0  0  0  0  0  0  0  0  0  0  0  0
   -0.9099    2.0812   -0.4150 H   0  0  0  0  0  0  0  0  0  0  0  0
    4.5841   -1.2954    0.7131 H   0  0  0  0  0  0  0  0  0  0  0  0
    0.6025   -0.2256   -1.1387 S   0  0  1  0  0  0  0  0  0  0  0  0
   -4.3822   -2.0952    0.7106 H   0  0  0  0  0  0  0  0  0  0  0  0
  6  5  1  0
  6 13  1  0
 10  5  1  0
  5 12  1  0
 13  1  1  0
 11 40  2  0
 12 40  1  0
 12 15  1  0
  1 14  1  0
 40  2  2  0
 40  9  1  1
 15 14  1  0
  9 16  2  0
  9  8  1  0
 16  4  1  0
  8 20  1  0
  8  7  2  0
  4  3  2  0
 20 19  2  0
  3  7  1  0
  7 17  1  0
 19 18  1  0
 17 18  2  0
  1 21  1  0
  1 22  1  0
  3 41  1  0
  4 23  1  0
  5 24  1  6
  6 25  1  0
  6 26  1  0
 10 27  1  0
 10 28  1  0
 10 29  1  0
 13 30  1  0
 14 31  1  0
 14 32  1  0
 15 33  1  0
 15 34  1  0
 16 35  1  0
 17 36  1  0
 19 37  1  0
 20 38  1  0
 13 39  1  0
M  CHG  1  13   1
M  END
