
     RDKit          3D

 17 17  0  0  0  0  0  0  0  0999 V2000
    0.1463    0.6719    0.0385 N   0  0  0  0  0  0  0  0  0  0  0  0
    0.4781    2.0947    0.0362 C   0  0  0  0  0  0  0  0  0  0  0  0
   -1.4362   -1.0352    0.0936 N   0  0  0  0  0  0  0  0  0  0  0  0
   -1.2030    0.3132    0.0931 C   0  0  0  0  0  0  0  0  0  0  0  0
   -2.0919    1.1269    0.1361 O   0  0  0  0  0  0  0  0  0  0  0  0
    1.1474   -0.2402   -0.0140 C   0  0  0  0  0  0  0  0  0  0  0  0
    2.3944    0.1615   -0.0671 N   0  0  0  0  0  0  0  0  0  0  0  0
    0.8315   -1.6217   -0.0103 C   0  0  0  0  0  0  0  0  0  0  0  0
   -0.4684   -1.9705    0.0437 C   0  0  0  0  0  0  0  0  0  0  0  0
    1.0832    2.3396    0.9078 H   0  0  0  0  0  0  0  0  0  0  0  0
    1.0123    2.3535   -0.8767 H   0  0  0  0  0  0  0  0  0  0  0  0
   -0.4342    2.6750    0.0773 H   0  0  0  0  0  0  0  0  0  0  0  0
   -2.4053   -1.3221    0.1321 H   0  0  0  0  0  0  0  0  0  0  0  0
    2.6740    1.1295   -0.0777 H   0  0  0  0  0  0  0  0  0  0  0  0
    3.1358   -0.5202   -0.1103 H   0  0  0  0  0  0  0  0  0  0  0  0
    1.6158   -2.3599   -0.0509 H   0  0  0  0  0  0  0  0  0  0  0  0
   -0.7979   -2.9985    0.0506 H   0  0  0  0  0  0  0  0  0  0  0  0
  1  2  1  0
  1  4  1  0
  1  6  2  0
  2 10  1  0
  2 11  1  0
  2 12  1  0
  3  4  1  0
  3  9  1  0
  3 13  1  0
  4  5  2  0
  6  7  1  0
  6  8  1  0
  7 14  1  0
  7 15  1  0
  8  9  2  0
  8 16  1  0
  9 17  1  0
M  CHG  1   1   1
M  END
