
     RDKit          3D

 49 51  0  0  0  0  0  0  0  0999 V2000
   -5.6548    1.6067    0.3817 N   0  0  0  0  0  0  0  0  0  0  0  0
   -5.9046   -0.3353    1.2243 C   0  0  0  0  0  0  0  0  0  0  0  0
   -6.5080    0.8062    1.0470 N   0  0  0  0  0  0  0  0  0  0  0  0
   -3.5828    2.6571   -1.3080 C   0  0  0  0  0  0  0  0  0  0  0  0
   -3.3995    1.5154   -0.5372 C   0  0  0  0  0  0  0  0  0  0  0  0
   -1.2436    2.5804   -1.8053 C   0  0  0  0  0  0  0  0  0  0  0  0
    2.5794    0.1454    0.4524 C   0  0  0  0  0  0  0  0  0  0  0  0
   -2.4723    3.1945   -1.9415 C   0  0  0  0  0  0  0  0  0  0  0  0
    2.1925   -3.7531   -2.2973 C   0  0  0  0  0  0  0  0  0  0  0  0
    3.7713   -2.0928   -0.6874 C   0  0  0  0  0  0  0  0  0  0  0  0
   -3.2161   -1.6750    2.1153 C   0  0  0  0  0  0  0  0  0  0  0  0
   -4.3729   -2.6800    0.1006 C   0  0  0  0  0  0  0  0  0  0  0  0
   -4.6659   -0.3133    0.6887 N   0  0  0  0  0  0  0  0  0  0  0  0
   -4.5487    0.9376    0.1679 C   0  0  0  0  0  0  0  0  0  0  0  0
   -1.1710    1.4344   -1.0101 C   0  0  0  0  0  0  0  0  0  0  0  0
   -2.2152    0.9307   -0.3825 N   0  0  0  0  0  0  0  0  0  0  0  0
    0.3489   -0.4605   -0.4868 C   0  0  0  0  0  0  0  0  0  0  0  0
   -0.4779   -1.3237   -0.2997 O   0  0  0  0  0  0  0  0  0  0  0  0
    1.8153   -0.7132   -0.3219 C   0  0  0  0  0  0  0  0  0  0  0  0
    3.9228   -0.1212    0.6682 C   0  0  0  0  0  0  0  0  0  0  0  0
    4.5183   -1.2374    0.0986 C   0  0  0  0  0  0  0  0  0  0  0  0
    2.4132   -1.8454   -0.9043 C   0  0  0  0  0  0  0  0  0  0  0  0
    1.6375   -2.6098   -1.6649 O   0  0  0  0  0  0  0  0  0  0  0  0
    4.8969    0.9677    1.6537 S   0  0  1  0  0  0  0  0  0  0  0  0
    6.2337    1.0728    1.0869 O   0  0  0  0  0  0  0  0  0  0  0  0
    4.1327    2.1924    1.8533 O   0  0  0  0  0  0  0  0  0  0  0  0
    5.0686    0.0817    3.0383 N   0  0  0  0  0  0  0  0  0  0  0  0
   -6.3242   -1.1911    1.7283 H   0  0  0  0  0  0  0  0  0  0  0  0
   -4.5593    3.1071   -1.4097 H   0  0  0  0  0  0  0  0  0  0  0  0
   -0.3652    2.9695   -2.3032 H   0  0  0  0  0  0  0  0  0  0  0  0
    2.1166    1.0141    0.9034 H   0  0  0  0  0  0  0  0  0  0  0  0
   -2.5683    4.0833   -2.5502 H   0  0  0  0  0  0  0  0  0  0  0  0
    0.8583    1.3805   -1.1610 H   0  0  0  0  0  0  0  0  0  0  0  0
    2.9851   -3.4818   -2.9976 H   0  0  0  0  0  0  0  0  0  0  0  0
    2.5827   -4.4663   -1.5687 H   0  0  0  0  0  0  0  0  0  0  0  0
    1.3790   -4.2186   -2.8461 H   0  0  0  0  0  0  0  0  0  0  0  0
    4.2614   -2.9484   -1.1293 H   0  0  0  0  0  0  0  0  0  0  0  0
   -2.7626   -0.7707    2.5202 H   0  0  0  0  0  0  0  0  0  0  0  0
   -4.0173   -1.9931    2.7853 H   0  0  0  0  0  0  0  0  0  0  0  0
   -2.4564   -2.4559    2.1062 H   0  0  0  0  0  0  0  0  0  0  0  0
   -2.8838   -1.1421    0.0841 H   0  0  0  0  0  0  0  0  0  0  0  0
   -5.2047   -3.0471    0.7035 H   0  0  0  0  0  0  0  0  0  0  0  0
   -4.7361   -2.4885   -0.9091 H   0  0  0  0  0  0  0  0  0  0  0  0
   -3.6336   -3.4786    0.0438 H   0  0  0  0  0  0  0  0  0  0  0  0
    5.5671   -1.4502    0.2565 H   0  0  0  0  0  0  0  0  0  0  0  0
    4.2084    0.0263    3.5746 H   0  0  0  0  0  0  0  0  0  0  0  0
    5.8165    0.4481    3.6207 H   0  0  0  0  0  0  0  0  0  0  0  0
    0.0730    0.8279   -0.8507 N   0  0  0  0  0  0  0  0  0  0  0  0
   -3.7236   -1.4432    0.7010 C   0  0  1  0  0  0  0  0  0  0  0  0
  1  3  1  0
  1 14  2  0
  2  3  2  0
  2 13  1  0
  4  5  2  0
  4  8  1  0
  5 14  1  0
  5 16  1  0
  6  8  2  0
  6 15  1  0
  7 19  2  0
  7 20  1  0
 48 15  1  0
 48 17  1  0
  9 23  1  0
 10 21  1  0
 10 22  2  0
 11 49  1  0
 49 12  1  0
 49 13  1  0
 13 14  1  0
 15 16  2  0
 17 18  2  0
 17 19  1  0
 19 22  1  0
 20 21  2  0
 20 24  1  0
 22 23  1  0
 24 25  2  0
 24 26  2  0
 24 27  1  1
  2 28  1  0
  4 29  1  0
  6 30  1  0
  7 31  1  0
  8 32  1  0
 48 33  1  0
  9 34  1  0
  9 35  1  0
  9 36  1  0
 10 37  1  0
 11 38  1  0
 11 39  1  0
 11 40  1  0
 49 41  1  6
 12 42  1  0
 12 43  1  0
 12 44  1  0
 21 45  1  0
 27 47  1  0
 27 46  1  0
M  END
