
     RDKit          3D

 79 84  0  0  0  0  0  0  0  0999 V2000
   -9.7486    2.8637   -2.7558 C   0  0  0  0  0  0  0  0  0  0  0  0
   -9.3844    1.6081   -2.2853 C   0  0  0  0  0  0  0  0  0  0  0  0
   -9.0702    1.4151   -0.9443 C   0  0  0  0  0  0  0  0  0  0  0  0
   -9.5928   -0.4496    0.6698 C   0  0  0  0  0  0  0  0  0  0  0  0
   -9.7961    3.9452   -1.8874 C   0  0  0  0  0  0  0  0  0  0  0  0
   -9.4807    3.7634   -0.5466 C   0  0  0  0  0  0  0  0  0  0  0  0
   -9.1242    2.5066   -0.0788 C   0  0  0  0  0  0  0  0  0  0  0  0
    0.4052   -2.5729    0.4398 C   0  0  0  0  0  0  0  0  0  0  0  0
    0.6795   -3.9451    0.3802 C   0  0  0  0  0  0  0  0  0  0  0  0
    6.9901    0.3371   -0.0740 C   0  0  0  0  0  0  0  0  0  0  0  0
    2.7652   -2.0527    0.4904 C   0  0  0  0  0  0  0  0  0  0  0  0
    5.7841    0.1918    0.5963 C   0  0  0  0  0  0  0  0  0  0  0  0
   -3.4662    0.0334    1.7272 N   0  0  0  0  0  0  0  0  0  0  0  0
   -2.7670    0.7647    2.6186 N   0  0  0  0  0  0  0  0  0  0  0  0
   -1.5136    0.4509    2.6744 C   0  0  0  0  0  0  0  0  0  0  0  0
   -0.8492   -0.4893    1.9743 N   0  0  0  0  0  0  0  0  0  0  0  0
   -1.5378   -1.2010    1.1120 C   0  0  0  0  0  0  0  0  0  0  0  0
   -2.9364   -0.9695    0.9335 C   0  0  0  0  0  0  0  0  0  0  0  0
   -3.9655   -1.5023    0.1678 C   0  0  0  0  0  0  0  0  0  0  0  0
   -5.1234   -0.7782    0.5285 C   0  0  0  0  0  0  0  0  0  0  0  0
   -4.7766    0.1609    1.4915 C   0  0  0  0  0  0  0  0  0  0  0  0
   -7.2803    0.0883   -0.0100 N   0  0  0  0  0  0  0  0  0  0  0  0
   -8.6721    0.0475   -0.4420 C   0  0  2  0  0  0  0  0  0  0  0  0
   -0.9424   -2.1743    0.3980 N   0  0  0  0  0  0  0  0  0  0  0  0
    2.0141   -4.3259    0.3722 C   0  0  0  0  0  0  0  0  0  0  0  0
    3.0579   -3.4140    0.4317 C   0  0  0  0  0  0  0  0  0  0  0  0
    1.4323   -1.6428    0.4863 C   0  0  0  0  0  0  0  0  0  0  0  0
   -0.4222   -4.9625    0.3382 C   0  0  0  0  0  0  0  0  0  0  0  0
    3.7210   -1.0334    0.5563 N   0  0  0  0  0  0  0  0  0  0  0  0
    5.0709   -1.1150    0.4512 C   0  0  0  0  0  0  0  0  0  0  0  0
    5.6773   -2.1514    0.2393 O   0  0  0  0  0  0  0  0  0  0  0  0
    7.7266    1.5272   -0.0048 C   0  0  0  0  0  0  0  0  0  0  0  0
    7.2113    2.5620    0.7871 C   0  0  0  0  0  0  0  0  0  0  0  0
    6.0108    2.4077    1.4643 C   0  0  0  0  0  0  0  0  0  0  0  0
    5.2857    1.2318    1.3807 C   0  0  0  0  0  0  0  0  0  0  0  0
    8.9040    1.6638   -0.7315 N   0  0  0  0  0  0  0  0  0  0  0  0
    9.8552    0.5601   -0.7017 C   0  0  0  0  0  0  0  0  0  0  0  0
   10.8665    0.7086   -1.8205 C   0  0  0  0  0  0  0  0  0  0  0  0
   11.5307    1.9497   -1.7565 O   0  0  0  0  0  0  0  0  0  0  0  0
   10.6025    3.0057   -1.8368 C   0  0  0  0  0  0  0  0  0  0  0  0
    9.5731    2.9504   -0.7225 C   0  0  0  0  0  0  0  0  0  0  0  0
   -9.9912    2.9961   -3.8022 H   0  0  0  0  0  0  0  0  0  0  0  0
   -9.3451    0.7696   -2.9702 H   0  0  0  0  0  0  0  0  0  0  0  0
  -10.6182   -0.5166    0.3057 H   0  0  0  0  0  0  0  0  0  0  0  0
   -9.2893   -1.4403    1.0070 H   0  0  0  0  0  0  0  0  0  0  0  0
   -9.5813    0.2217    1.5290 H   0  0  0  0  0  0  0  0  0  0  0  0
  -10.0770    4.9244   -2.2525 H   0  0  0  0  0  0  0  0  0  0  0  0
   -9.5147    4.6006    0.1383 H   0  0  0  0  0  0  0  0  0  0  0  0
   -8.8897    2.3822    0.9722 H   0  0  0  0  0  0  0  0  0  0  0  0
   -0.9286    1.0229    3.3838 H   0  0  0  0  0  0  0  0  0  0  0  0
   -5.3701    0.8748    2.0393 H   0  0  0  0  0  0  0  0  0  0  0  0
   -6.8655    0.9902    0.1627 H   0  0  0  0  0  0  0  0  0  0  0  0
   -8.7375   -0.6517   -1.2787 H   0  0  0  0  0  0  0  0  0  0  0  0
   -1.5417   -2.7376   -0.1827 H   0  0  0  0  0  0  0  0  0  0  0  0
    2.2540   -5.3813    0.3286 H   0  0  0  0  0  0  0  0  0  0  0  0
    4.0734   -3.7722    0.4315 H   0  0  0  0  0  0  0  0  0  0  0  0
    1.1997   -0.5873    0.5180 H   0  0  0  0  0  0  0  0  0  0  0  0
   -1.0048   -4.9070   -0.5856 H   0  0  0  0  0  0  0  0  0  0  0  0
   -0.0162   -5.9707    0.3939 H   0  0  0  0  0  0  0  0  0  0  0  0
   -1.1193   -4.8394    1.1689 H   0  0  0  0  0  0  0  0  0  0  0  0
    3.3344   -0.1045    0.6259 H   0  0  0  0  0  0  0  0  0  0  0  0
    7.7455    3.4951    0.8976 H   0  0  0  0  0  0  0  0  0  0  0  0
    5.6487    3.2179    2.0837 H   0  0  0  0  0  0  0  0  0  0  0  0
    4.3706    1.1290    1.9493 H   0  0  0  0  0  0  0  0  0  0  0  0
   10.3744    0.5244    0.2671 H   0  0  0  0  0  0  0  0  0  0  0  0
    9.3463   -0.3928   -0.8318 H   0  0  0  0  0  0  0  0  0  0  0  0
   11.6203   -0.0751   -1.7385 H   0  0  0  0  0  0  0  0  0  0  0  0
   10.3584    0.5935   -2.7881 H   0  0  0  0  0  0  0  0  0  0  0  0
   11.1594    3.9415   -1.7734 H   0  0  0  0  0  0  0  0  0  0  0  0
   10.0832    2.9864   -2.8054 H   0  0  0  0  0  0  0  0  0  0  0  0
    8.8491    3.7461   -0.9030 H   0  0  0  0  0  0  0  0  0  0  0  0
   10.0528    3.1555    0.2464 H   0  0  0  0  0  0  0  0  0  0  0  0
   -6.4953   -1.0040    0.0250 C   0  0  0  0  0  0  0  0  0  0  0  0
   -3.8510   -2.5846   -0.8580 C   0  0  0  0  0  0  0  0  0  0  0  0
   -6.8866   -2.1123   -0.3223 O   0  0  0  0  0  0  0  0  0  0  0  0
    7.3403   -0.4829   -0.6860 H   0  0  0  0  0  0  0  0  0  0  0  0
   -3.6869   -3.5639   -0.4010 H   0  0  0  0  0  0  0  0  0  0  0  0
   -4.7590   -2.6639   -1.4473 H   0  0  0  0  0  0  0  0  0  0  0  0
   -3.0352   -2.3953   -1.5579 H   0  0  0  0  0  0  0  0  0  0  0  0
  5  1  2  0
  1  2  1  0
  1 42  1  0
  2  3  2  0
  2 43  1  0
  7  3  1  0
  3 23  1  0
  4 23  1  0
  4 44  1  0
  4 45  1  0
  4 46  1  0
  5  6  1  0
  5 47  1  0
  6  7  2  0
  6 48  1  0
  7 49  1  0
 24  8  1  0
  8  9  2  0
  8 27  1  0
 28  9  1  0
  9 25  1  0
 22 73  1  0
 73 75  2  0
 73 20  1  0
 12 10  2  0
 10 32  1  0
 10 76  1  0
 27 11  2  0
 11 26  1  0
 11 29  1  0
 30 12  1  0
 12 35  1  0
 21 13  1  0
 13 14  1  0
 13 18  1  0
 14 15  2  0
 15 16  1  0
 15 50  1  0
 17 16  2  0
 18 17  1  0
 17 24  1  0
 19 18  2  0
 20 19  1  0
 19 74  1  0
 21 20  2  0
 21 51  1  0
 74 77  1  0
 74 78  1  0
 74 79  1  0
 23 22  1  0
 22 52  1  0
 23 53  1  6
 24 54  1  0
 25 26  2  0
 25 55  1  0
 26 56  1  0
 27 57  1  0
 28 58  1  0
 28 59  1  0
 28 60  1  0
 29 30  1  0
 29 61  1  0
 31 30  2  0
 32 33  2  0
 32 36  1  0
 34 33  1  0
 33 62  1  0
 35 34  2  0
 34 63  1  0
 35 64  1  0
 37 36  1  0
 36 41  1  0
 37 38  1  0
 37 65  1  0
 37 66  1  0
 38 39  1  0
 38 67  1  0
 38 68  1  0
 39 40  1  0
 41 40  1  0
 40 69  1  0
 40 70  1  0
 41 71  1  0
 41 72  1  0
M  END
