
     RDKit          3D

 28 27  0  0  0  0  0  0  0  0999 V2000
    1.3690    2.0167    0.9804 N   0  0  0  0  0  0  0  0  0  0  0  0
    1.9561    0.8320    0.3950 C   0  0  1  0  0  0  0  0  0  0  0  0
    1.2677    0.2861   -0.8764 C   0  0  0  0  0  0  0  0  0  0  0  0
   -0.0117   -0.4098   -0.5431 C   0  0  0  0  0  0  0  0  0  0  0  0
   -0.0136   -1.8588   -0.5004 C   0  0  0  0  0  0  0  0  0  0  0  0
    0.9732   -2.6086    0.0314 C   0  0  0  0  0  0  0  0  0  0  0  0
    0.8468   -3.9779   -0.0417 O   0  0  0  0  0  0  0  0  0  0  0  0
   -1.1484    0.3254   -0.4954 C   0  0  0  0  0  0  0  0  0  0  0  0
   -2.4338   -0.1317   -0.0297 C   0  0  0  0  0  0  0  0  0  0  0  0
   -3.5398    0.6161   -0.2000 C   0  0  0  0  0  0  0  0  0  0  0  0
   -4.7532    0.0813    0.2705 O   0  0  0  0  0  0  0  0  0  0  0  0
   -5.7493    0.8765    0.0304 O   0  0  0  0  0  0  0  0  0  0  0  0
    3.4122    1.0715    0.0348 C   0  0  0  0  0  0  0  0  0  0  0  0
    3.9647    2.1052   -0.3449 O   0  0  0  0  0  0  0  0  0  0  0  0
    4.1870   -0.0413    0.1630 O   0  0  0  0  0  0  0  0  0  0  0  0
    0.9883    2.6178    0.2749 H   0  0  0  0  0  0  0  0  0  0  0  0
    0.6475    1.7519    1.6248 H   0  0  0  0  0  0  0  0  0  0  0  0
    1.9214    0.0246    1.1890 H   0  0  0  0  0  0  0  0  0  0  0  0
    1.0738    1.1358   -1.5845 H   0  0  0  0  0  0  0  0  0  0  0  0
    1.9735   -0.4171   -1.3923 H   0  0  0  0  0  0  0  0  0  0  0  0
   -0.8449   -2.3671   -1.0172 H   0  0  0  0  0  0  0  0  0  0  0  0
    1.8002   -2.2215    0.6465 H   0  0  0  0  0  0  0  0  0  0  0  0
    1.5590   -4.3612    0.4882 H   0  0  0  0  0  0  0  0  0  0  0  0
   -1.1159    1.3761   -0.8390 H   0  0  0  0  0  0  0  0  0  0  0  0
   -2.4630   -1.0005    0.6475 H   0  0  0  0  0  0  0  0  0  0  0  0
   -3.6135    1.5920   -0.6956 H   0  0  0  0  0  0  0  0  0  0  0  0
   -6.0147    1.2742    0.8904 H   0  0  0  0  0  0  0  0  0  0  0  0
    5.1042    0.1700   -0.0794 H   0  0  0  0  0  0  0  0  0  0  0  0
  1  2  1  0
  1 16  1  0
  1 17  1  0
  2 13  1  0
  2  3  1  0
  2 18  1  1
  3  4  1  0
  3 19  1  0
  3 20  1  0
  4  8  2  0
  4  5  1  0
  5  6  2  0
  5 21  1  0
  6  7  1  0
  6 22  1  0
  7 23  1  0
  8  9  1  0
  8 24  1  0
  9 10  2  0
  9 25  1  0
 10 11  1  0
 10 26  1  0
 11 12  1  0
 12 27  1  0
 13 14  2  0
 13 15  1  0
 15 28  1  0
M  END
