
     RDKit          3D

 66 65  0  0  0  0  0  0  0  0999 V2000
   -9.3774    2.4939    0.5440 P   0  0  0  0  0  0  0  0  0  0  0  0
   -8.7041    2.8203    2.0080 O   0  0  0  0  0  0  0  0  0  0  0  0
   -9.3755    3.9855   -0.1273 O   0  0  0  0  0  0  0  0  0  0  0  0
   -8.0243    2.0129   -0.2465 O   0  0  0  0  0  0  0  0  0  0  0  0
   -7.5353    0.7060    0.0249 C   0  0  0  0  0  0  0  0  0  0  0  0
   -6.9643    0.0969   -1.2582 C   0  0  1  0  0  0  0  0  0  0  0  0
   -8.0552    0.0225   -2.3298 C   0  0  0  0  0  0  0  0  0  0  0  0
   -5.8110    0.9543   -1.7844 C   0  0  0  0  0  0  0  0  0  0  0  0
   -6.4662   -1.3510   -0.9885 C   0  0  2  0  0  0  0  0  0  0  0  0
   -7.4950   -2.2108   -0.5773 O   0  0  0  0  0  0  0  0  0  0  0  0
   -5.3408   -1.4174    0.0453 C   0  0  0  0  0  0  0  0  0  0  0  0
   -5.6087   -1.5264    1.2371 O   0  0  0  0  0  0  0  0  0  0  0  0
   -4.0915   -1.3657   -0.4217 N   0  0  0  0  0  0  0  0  0  0  0  0
   -2.9312   -1.3272    0.4458 C   0  0  0  0  0  0  0  0  0  0  0  0
   -1.6671   -1.5762   -0.3624 C   0  0  0  0  0  0  0  0  0  0  0  0
   -0.4316   -1.4367    0.5022 C   0  0  0  0  0  0  0  0  0  0  0  0
   -0.3068   -0.5203    1.3024 O   0  0  0  0  0  0  0  0  0  0  0  0
    0.5052   -2.3813    0.3204 N   0  0  0  0  0  0  0  0  0  0  0  0
    1.7774   -2.3744    1.0020 C   0  0  0  0  0  0  0  0  0  0  0  0
    2.8204   -1.5495    0.2555 C   0  0  0  0  0  0  0  0  0  0  0  0
    4.3623   -1.5323    1.2122 S   0  0  0  0  0  0  0  0  0  0  0  0
    5.4678   -0.7533    0.0015 C   0  0  0  0  0  0  0  0  0  0  0  0
    6.8417   -0.5955    0.6266 C   0  0  0  0  0  0  0  0  0  0  0  0
    7.8648    0.0177   -0.3005 C   0  0  0  0  0  0  0  0  0  0  0  0
    7.6043    0.2991   -1.4477 O   0  0  0  0  0  0  0  0  0  0  0  0
    9.2245    0.2534    0.3052 C   0  0  0  0  0  0  0  0  0  0  0  0
   10.2788    0.7550   -0.6686 C   0  0  0  0  0  0  0  0  0  0  0  0
   11.6078    0.9619    0.0387 C   0  0  0  0  0  0  0  0  0  0  0  0
   12.7270    1.4603   -0.8388 C   0  0  0  0  0  0  0  0  0  0  0  0
   12.5543    1.7624   -1.9987 O   0  0  0  0  0  0  0  0  0  0  0  0
   14.0781    1.5437   -0.1820 C   0  0  0  0  0  0  0  0  0  0  0  0
   -9.2897    2.5492    2.7243 H   0  0  0  0  0  0  0  0  0  0  0  0
  -10.2732    4.2795   -0.3182 H   0  0  0  0  0  0  0  0  0  0  0  0
   -6.7712    0.7721    0.8034 H   0  0  0  0  0  0  0  0  0  0  0  0
   -8.3405    0.0656    0.4082 H   0  0  0  0  0  0  0  0  0  0  0  0
   -8.3774    1.0201   -2.6251 H   0  0  0  0  0  0  0  0  0  0  0  0
   -7.6820   -0.4778   -3.2260 H   0  0  0  0  0  0  0  0  0  0  0  0
   -8.9327   -0.5241   -1.9838 H   0  0  0  0  0  0  0  0  0  0  0  0
   -5.0222    1.0978   -1.0444 H   0  0  0  0  0  0  0  0  0  0  0  0
   -5.3621    0.5034   -2.6728 H   0  0  0  0  0  0  0  0  0  0  0  0
   -6.1708    1.9414   -2.0727 H   0  0  0  0  0  0  0  0  0  0  0  0
   -6.0946   -1.7324   -1.9465 H   0  0  0  0  0  0  0  0  0  0  0  0
   -7.5434   -2.1727    0.3863 H   0  0  0  0  0  0  0  0  0  0  0  0
   -3.9491   -1.2778   -1.4155 H   0  0  0  0  0  0  0  0  0  0  0  0
   -2.8706   -0.3611    0.9507 H   0  0  0  0  0  0  0  0  0  0  0  0
   -3.0359   -2.0921    1.2167 H   0  0  0  0  0  0  0  0  0  0  0  0
   -1.7104   -2.5582   -0.8378 H   0  0  0  0  0  0  0  0  0  0  0  0
   -1.5873   -0.8360   -1.1654 H   0  0  0  0  0  0  0  0  0  0  0  0
    0.3516   -3.0910   -0.3770 H   0  0  0  0  0  0  0  0  0  0  0  0
    1.6377   -1.9860    2.0111 H   0  0  0  0  0  0  0  0  0  0  0  0
    2.1165   -3.4059    1.0953 H   0  0  0  0  0  0  0  0  0  0  0  0
    3.0128   -1.9873   -0.7259 H   0  0  0  0  0  0  0  0  0  0  0  0
    2.4657   -0.5277    0.1117 H   0  0  0  0  0  0  0  0  0  0  0  0
    5.5150   -1.3797   -0.8901 H   0  0  0  0  0  0  0  0  0  0  0  0
    5.0575    0.2157   -0.2859 H   0  0  0  0  0  0  0  0  0  0  0  0
    6.7904    0.0173    1.5322 H   0  0  0  0  0  0  0  0  0  0  0  0
    7.2321   -1.5650    0.9546 H   0  0  0  0  0  0  0  0  0  0  0  0
    9.0943    0.9618    1.1318 H   0  0  0  0  0  0  0  0  0  0  0  0
    9.5471   -0.6781    0.7831 H   0  0  0  0  0  0  0  0  0  0  0  0
   10.3997    0.0383   -1.4833 H   0  0  0  0  0  0  0  0  0  0  0  0
    9.9506    1.6922   -1.1211 H   0  0  0  0  0  0  0  0  0  0  0  0
   11.5006    1.6778    0.8621 H   0  0  0  0  0  0  0  0  0  0  0  0
   11.9455    0.0363    0.5185 H   0  0  0  0  0  0  0  0  0  0  0  0
   14.4724    0.5333   -0.0487 H   0  0  0  0  0  0  0  0  0  0  0  0
   14.7828    2.1148   -0.7829 H   0  0  0  0  0  0  0  0  0  0  0  0
   14.0051    1.9836    0.8131 H   0  0  0  0  0  0  0  0  0  0  0  0
  1  2  1  0
  1  3  1  0
  1  4  1  0
  4  5  1  0
  6  5  1  1
  6  7  1  0
  6  8  1  0
  6  9  1  0
  9 10  1  0
  9 11  1  0
 11 12  2  0
 11 13  1  0
 13 14  1  0
 14 15  1  0
 15 16  1  0
 16 17  2  0
 16 18  1  0
 18 19  1  0
 19 20  1  0
 20 21  1  0
 21 22  1  0
 22 23  1  0
 23 24  1  0
 24 25  2  0
 24 26  1  0
 26 27  1  0
 27 28  1  0
 28 29  1  0
 29 30  2  0
 29 31  1  0
  2 32  1  0
  3 33  1  0
  5 34  1  0
  5 35  1  0
  7 36  1  0
  7 37  1  0
  7 38  1  0
  8 39  1  0
  8 40  1  0
  8 41  1  0
  9 42  1  6
 10 43  1  0
 13 44  1  0
 14 45  1  0
 14 46  1  0
 15 47  1  0
 15 48  1  0
 18 49  1  0
 19 50  1  0
 19 51  1  0
 20 52  1  0
 20 53  1  0
 22 54  1  0
 22 55  1  0
 23 56  1  0
 23 57  1  0
 26 58  1  0
 26 59  1  0
 27 60  1  0
 27 61  1  0
 28 62  1  0
 28 63  1  0
 31 64  1  0
 31 65  1  0
 31 66  1  0
M  END
