
     RDKit          3D

 44 43  0  0  0  0  0  0  0  0999 V2000
    3.1008   -0.5618    0.5516 C   0  0  0  0  0  0  0  0  0  0  0  0
    3.6076   -1.0478    1.5315 O   0  0  0  0  0  0  0  0  0  0  0  0
    3.6992    0.5303   -0.2913 C   0  0  0  0  0  0  0  0  0  0  0  0
    5.0761    0.9800    0.1689 C   0  0  0  0  0  0  0  0  0  0  0  0
    5.6328    2.0890   -0.7161 C   0  0  0  0  0  0  0  0  0  0  0  0
    7.0087    2.5589   -0.2670 C   0  0  0  0  0  0  0  0  0  0  0  0
   -2.1903   -1.2063    0.0053 C   0  0  0  0  0  0  0  0  0  0  0  0
   -2.7628   -2.2583   -0.1316 O   0  0  0  0  0  0  0  0  0  0  0  0
   -2.8608    0.1364    0.1204 C   0  0  0  0  0  0  0  0  0  0  0  0
   -4.3655    0.0895   -0.0885 C   0  0  0  0  0  0  0  0  0  0  0  0
   -5.0066    1.4612    0.0811 C   0  0  0  0  0  0  0  0  0  0  0  0
   -6.5141    1.4417   -0.1363 C   0  0  0  0  0  0  0  0  0  0  0  0
   -7.1556    2.8090    0.0541 C   0  0  0  0  0  0  0  0  0  0  0  0
    1.2156   -1.9701    0.7797 C   0  0  0  0  0  0  0  0  0  0  0  0
    1.9143   -0.9389    0.0848 O   0  0  0  0  0  0  0  0  0  0  0  0
   -0.0573   -2.2794    0.0256 C   0  0  1  0  0  0  0  0  0  0  0  0
   -0.8672   -1.0930    0.0863 O   0  0  0  0  0  0  0  0  0  0  0  0
    0.1757   -2.7037   -1.4133 C   0  0  0  0  0  0  0  0  0  0  0  0
    3.7341    0.1825   -1.3285 H   0  0  0  0  0  0  0  0  0  0  0  0
    3.0023    1.3748   -0.2917 H   0  0  0  0  0  0  0  0  0  0  0  0
    5.0259    1.3325    1.2028 H   0  0  0  0  0  0  0  0  0  0  0  0
    5.7664    0.1320    0.1650 H   0  0  0  0  0  0  0  0  0  0  0  0
    5.6847    1.7365   -1.7508 H   0  0  0  0  0  0  0  0  0  0  0  0
    4.9378    2.9342   -0.7194 H   0  0  0  0  0  0  0  0  0  0  0  0
    6.9814    2.9387    0.7560 H   0  0  0  0  0  0  0  0  0  0  0  0
    7.7331    1.7433   -0.2964 H   0  0  0  0  0  0  0  0  0  0  0  0
    7.3857    3.3582   -0.9057 H   0  0  0  0  0  0  0  0  0  0  0  0
   -2.6249    0.5431    1.1094 H   0  0  0  0  0  0  0  0  0  0  0  0
   -2.3925    0.8201   -0.5941 H   0  0  0  0  0  0  0  0  0  0  0  0
   -4.5874   -0.2953   -1.0879 H   0  0  0  0  0  0  0  0  0  0  0  0
   -4.8170   -0.6103    0.6195 H   0  0  0  0  0  0  0  0  0  0  0  0
   -4.7906    1.8432    1.0849 H   0  0  0  0  0  0  0  0  0  0  0  0
   -6.7282    1.0718   -1.1435 H   0  0  0  0  0  0  0  0  0  0  0  0
   -8.2326    2.7738   -0.1133 H   0  0  0  0  0  0  0  0  0  0  0  0
   -6.9906    3.1852    1.0657 H   0  0  0  0  0  0  0  0  0  0  0  0
   -6.7376    3.5409   -0.6398 H   0  0  0  0  0  0  0  0  0  0  0  0
    1.8194   -2.8788    0.8325 H   0  0  0  0  0  0  0  0  0  0  0  0
    0.9879   -1.6550    1.8010 H   0  0  0  0  0  0  0  0  0  0  0  0
   -0.5506   -3.0877    0.5724 H   0  0  0  0  0  0  0  0  0  0  0  0
    0.6078   -1.8995   -2.0074 H   0  0  0  0  0  0  0  0  0  0  0  0
    0.8601   -3.5523   -1.4408 H   0  0  0  0  0  0  0  0  0  0  0  0
   -0.7540   -3.0178   -1.8844 H   0  0  0  0  0  0  0  0  0  0  0  0
   -4.5487    2.1706   -0.6170 H   0  0  0  0  0  0  0  0  0  0  0  0
   -6.9691    0.7234    0.5527 H   0  0  0  0  0  0  0  0  0  0  0  0
  1  2  2  0
  1  3  1  0
  3  4  1  0
  3 19  1  0
  3 20  1  0
  4  5  1  0
  4 21  1  0
  4 22  1  0
  5  6  1  0
  5 23  1  0
  5 24  1  0
  6 25  1  0
  6 26  1  0
  6 27  1  0
  7  8  2  0
  7  9  1  0
  9 10  1  0
  9 28  1  0
  9 29  1  0
 10 11  1  0
 10 30  1  0
 10 31  1  0
 11 12  1  0
 11 32  1  0
 12 13  1  0
 12 33  1  0
 13 34  1  0
 13 35  1  0
 13 36  1  0
 14 15  1  0
 14 37  1  0
 14 38  1  0
 15  1  1  0
 16 14  1  0
 16 39  1  1
 17 16  1  0
 17  7  1  0
 18 16  1  0
 18 40  1  0
 18 41  1  0
 18 42  1  0
 11 43  1  0
 12 44  1  0
M  END
