
     RDKit          3D

 25 24  0  0  0  0  0  0  0  0999 V2000
    3.0212    1.3156    0.0699 N   0  0  0  0  0  0  0  0  0  0  0  0
    2.5871   -0.0659    0.1354 C   0  0  1  0  0  0  0  0  0  0  0  0
    1.2225   -0.3647   -0.5027 C   0  0  0  0  0  0  0  0  0  0  0  0
    0.1051    0.4211    0.1469 C   0  0  0  0  0  0  0  0  0  0  0  0
   -1.2460   -0.0401   -0.3582 C   0  0  0  0  0  0  0  0  0  0  0  0
   -2.3573    0.7787    0.2930 C   0  0  0  0  0  0  0  0  0  0  0  0
   -3.7033    0.5607   -0.1955 N   0  0  0  0  0  0  0  0  0  0  0  0
   -4.2419   -0.5714   -0.1734 N   0  0  0  0  0  0  0  0  0  0  0  0
   -4.9003   -1.4938   -0.2482 N   0  0  0  0  0  0  0  0  0  0  0  0
    3.6289   -1.0096   -0.5047 C   0  0  0  0  0  0  0  0  0  0  0  0
    4.8052   -1.0983    0.2677 O   0  0  0  0  0  0  0  0  0  0  0  0
    3.0497    1.6351   -0.8786 H   0  0  0  0  0  0  0  0  0  0  0  0
    2.3983    1.9002    0.5915 H   0  0  0  0  0  0  0  0  0  0  0  0
    2.5272   -0.3330    1.2342 H   0  0  0  0  0  0  0  0  0  0  0  0
    1.2575   -0.1378   -1.6001 H   0  0  0  0  0  0  0  0  0  0  0  0
    1.0152   -1.4621   -0.3955 H   0  0  0  0  0  0  0  0  0  0  0  0
    0.1542    0.2967    1.2613 H   0  0  0  0  0  0  0  0  0  0  0  0
    0.2253    1.5154   -0.0714 H   0  0  0  0  0  0  0  0  0  0  0  0
   -1.2874    0.0713   -1.4735 H   0  0  0  0  0  0  0  0  0  0  0  0
   -1.3810   -1.1285   -0.1242 H   0  0  0  0  0  0  0  0  0  0  0  0
   -2.2969    0.6429    1.4123 H   0  0  0  0  0  0  0  0  0  0  0  0
   -2.1975    1.8735    0.0699 H   0  0  0  0  0  0  0  0  0  0  0  0
    3.2252   -2.0572   -0.5262 H   0  0  0  0  0  0  0  0  0  0  0  0
    3.8727   -0.6822   -1.5505 H   0  0  0  0  0  0  0  0  0  0  0  0
    5.1481   -0.2035    0.3850 H   0  0  0  0  0  0  0  0  0  0  0  0
  1  2  1  0
  1 12  1  0
  1 13  1  0
  2  3  1  0
  2 10  1  0
  2 14  1  1
  3  4  1  0
  3 15  1  0
  3 16  1  0
  4  5  1  0
  4 17  1  0
  4 18  1  0
  5  6  1  0
  5 19  1  0
  5 20  1  0
  6  7  1  0
  6 21  1  0
  6 22  1  0
  7  8  2  0
  8  9  2  0
 10 11  1  0
 10 23  1  0
 10 24  1  0
 11 25  1  0
M  CHG  2   8   1   9  -1
M  END
