
     RDKit          3D

 25 25  0  0  0  0  0  0  0  0999 V2000
    5.1504    0.3279   -0.3529 S   0  0  0  0  0  0  0  0  0  0  0  0
    3.7686   -0.8383   -0.2210 C   0  0  0  0  0  0  0  0  0  0  0  0
    2.4774   -0.0502   -0.2647 C   0  0  0  0  0  0  0  0  0  0  0  0
    2.4606    1.1480   -0.4570 O   0  0  0  0  0  0  0  0  0  0  0  0
    1.3754   -0.8213   -0.0720 N   0  0  0  0  0  0  0  0  0  0  0  0
    0.0336   -0.4535   -0.0492 C   0  0  0  0  0  0  0  0  0  0  0  0
   -0.4333    0.8499   -0.2469 C   0  0  0  0  0  0  0  0  0  0  0  0
   -1.7917    1.1028   -0.1985 C   0  0  0  0  0  0  0  0  0  0  0  0
   -2.7217    0.0911    0.0388 C   0  0  0  0  0  0  0  0  0  0  0  0
   -4.1691    0.4170    0.0799 C   0  0  0  0  0  0  0  0  0  0  0  0
   -4.5499    1.5629   -0.0568 O   0  0  0  0  0  0  0  0  0  0  0  0
   -5.1444   -0.7092    0.2934 C   0  0  0  0  0  0  0  0  0  0  0  0
   -2.2437   -1.2055    0.2316 C   0  0  0  0  0  0  0  0  0  0  0  0
   -0.8912   -1.4747    0.1898 C   0  0  0  0  0  0  0  0  0  0  0  0
    6.1105   -0.5962   -0.2358 H   0  0  0  0  0  0  0  0  0  0  0  0
    3.7876   -1.5536   -1.0458 H   0  0  0  0  0  0  0  0  0  0  0  0
    3.8284   -1.4062    0.7087 H   0  0  0  0  0  0  0  0  0  0  0  0
    1.5458   -1.8043    0.0853 H   0  0  0  0  0  0  0  0  0  0  0  0
    0.2474    1.6631   -0.4343 H   0  0  0  0  0  0  0  0  0  0  0  0
   -2.1333    2.1176   -0.3537 H   0  0  0  0  0  0  0  0  0  0  0  0
   -6.1654   -0.3373    0.2536 H   0  0  0  0  0  0  0  0  0  0  0  0
   -5.0184   -1.4842   -0.4638 H   0  0  0  0  0  0  0  0  0  0  0  0
   -4.9832   -1.1825    1.2638 H   0  0  0  0  0  0  0  0  0  0  0  0
   -2.9234   -2.0261    0.4178 H   0  0  0  0  0  0  0  0  0  0  0  0
   -0.5443   -2.4888    0.3470 H   0  0  0  0  0  0  0  0  0  0  0  0
 12 10  1  0
 10 11  2  0
 10  9  1  0
  8  9  2  0
  8  7  1  0
  9 13  1  0
  7  6  2  0
 13 14  2  0
  6 14  1  0
  6  5  1  0
  5  3  1  0
  1  2  1  0
  3  4  2  0
  3  2  1  0
  1 15  1  0
  2 16  1  0
  2 17  1  0
  5 18  1  0
  7 19  1  0
  8 20  1  0
 12 21  1  0
 12 22  1  0
 12 23  1  0
 13 24  1  0
 14 25  1  0
M  END
