
     RDKit          3D

 38 41  0  0  0  0  0  0  0  0999 V2000
    2.0035    0.9940    1.0860 C   0  0  0  0  0  0  0  0  0  0  0  0
    3.1325   -0.6648    0.1035 C   0  0  0  0  0  0  0  0  0  0  0  0
    4.3101   -2.4335   -0.7098 C   0  0  0  0  0  0  0  0  0  0  0  0
    1.9233   -1.1689   -0.4246 C   0  0  0  0  0  0  0  0  0  0  0  0
    0.7490   -0.3732   -0.1981 C   0  0  0  0  0  0  0  0  0  0  0  0
   -1.6563   -0.2491   -0.1803 C   0  0  0  0  0  0  0  0  0  0  0  0
   -1.8616   -0.4330    1.1841 C   0  0  0  0  0  0  0  0  0  0  0  0
   -4.0664    0.4996    1.0244 C   0  0  0  0  0  0  0  0  0  0  0  0
   -3.8741    0.6519   -0.3439 C   0  0  0  0  0  0  0  0  0  0  0  0
   -2.6838    0.2861   -0.9604 C   0  0  0  0  0  0  0  0  0  0  0  0
   -1.1410    0.1704   -2.9442 C   0  0  0  0  0  0  0  0  0  0  0  0
   -0.5207   -1.0016   -2.2021 C   0  0  0  0  0  0  0  0  0  0  0  0
   -3.0444   -0.0567    1.7938 C   0  0  0  0  0  0  0  0  0  0  0  0
   -5.5050    0.7346    2.8960 C   0  0  0  0  0  0  0  0  0  0  0  0
   -2.5566    0.4218   -2.4540 C   0  0  0  0  0  0  0  0  0  0  0  0
    3.1522   -3.0757   -1.1760 C   0  0  0  0  0  0  0  0  0  0  0  0
    1.9498   -2.4373   -1.0295 C   0  0  0  0  0  0  0  0  0  0  0  0
    3.1585    0.4554    0.8645 N   0  0  0  0  0  0  0  0  0  0  0  0
    4.3092   -1.2845   -0.0783 N   0  0  0  0  0  0  0  0  0  0  0  0
   -0.4434   -0.6800   -0.7746 N   0  0  0  0  0  0  0  0  0  0  0  0
    0.8131    0.6712    0.6078 N   0  0  0  0  0  0  0  0  0  0  0  0
    1.9991    2.3765    2.1348 Cl  0  0  0  0  0  0  0  0  0  0  0  0
    5.2754   -2.9078   -0.8493 H   0  0  0  0  0  0  0  0  0  0  0  0
   -1.0877   -0.8838    1.7909 H   0  0  0  0  0  0  0  0  0  0  0  0
   -4.6750    1.0689   -0.9447 H   0  0  0  0  0  0  0  0  0  0  0  0
   -0.5122    1.0519   -2.7968 H   0  0  0  0  0  0  0  0  0  0  0  0
   -1.1431   -0.0436   -4.0138 H   0  0  0  0  0  0  0  0  0  0  0  0
   -1.1111   -1.9105   -2.3402 H   0  0  0  0  0  0  0  0  0  0  0  0
    0.4755   -1.1878   -2.5919 H   0  0  0  0  0  0  0  0  0  0  0  0
   -3.1530   -0.2164    2.8576 H   0  0  0  0  0  0  0  0  0  0  0  0
   -4.7954    1.2958    3.5097 H   0  0  0  0  0  0  0  0  0  0  0  0
   -6.5053    1.1190    3.0784 H   0  0  0  0  0  0  0  0  0  0  0  0
   -5.4731   -0.3166    3.1948 H   0  0  0  0  0  0  0  0  0  0  0  0
   -3.2356   -0.2985   -2.9200 H   0  0  0  0  0  0  0  0  0  0  0  0
   -2.9008    1.4090   -2.7680 H   0  0  0  0  0  0  0  0  0  0  0  0
    3.2202   -4.0524   -1.6328 H   0  0  0  0  0  0  0  0  0  0  0  0
    1.0372   -2.9181   -1.3536 H   0  0  0  0  0  0  0  0  0  0  0  0
   -5.2566    0.8991    1.5142 O   0  0  0  0  0  0  0  0  0  0  0  0
 38 14  1  0
 38  8  1  0
  9  8  2  0
  9 10  1  0
  8 13  1  0
 15 10  1  0
 15 11  1  0
 10  6  2  0
 13  7  2  0
 11 12  1  0
  6  7  1  0
  6 20  1  0
 17 16  2  0
 17  4  1  0
 16  3  1  0
 12 20  1  0
 20  5  1  0
  4  5  2  0
  4  2  1  0
  3 19  2  0
  5 21  1  0
  2 19  1  0
  2 18  2  0
 21  1  2  0
  1 18  1  0
  1 22  1  0
  3 23  1  0
  7 24  1  0
  9 25  1  0
 11 26  1  0
 11 27  1  0
 12 28  1  0
 12 29  1  0
 13 30  1  0
 14 31  1  0
 14 32  1  0
 14 33  1  0
 15 34  1  0
 15 35  1  0
 16 36  1  0
 17 37  1  0
M  END
