
     RDKit          3D

 65 69  0  0  0  0  0  0  0  0999 V2000
   -6.7362    0.0956    0.3604 Cl  0  0  0  0  0  0  0  0  0  0  0  0
   -5.0102    0.1429    0.5051 C   0  0  0  0  0  0  0  0  0  0  0  0
   -4.2658    0.8264   -0.4458 C   0  0  0  0  0  0  0  0  0  0  0  0
   -2.8888    0.8507   -0.3191 C   0  0  0  0  0  0  0  0  0  0  0  0
   -2.2549    0.2034    0.7378 C   0  0  0  0  0  0  0  0  0  0  0  0
   -0.7740    0.2408    0.8491 C   0  0  0  0  0  0  0  0  0  0  0  0
   -0.2322   -0.6013    1.7705 N   0  0  0  0  0  0  0  0  0  0  0  0
   -0.9638   -1.7052    2.3913 C   0  0  2  0  0  0  0  0  0  0  0  0
   -0.1732   -2.1556    3.6130 C   0  0  0  0  0  0  0  0  0  0  0  0
   -1.1217   -2.8716    1.4145 C   0  0  0  0  0  0  0  0  0  0  0  0
   -2.3235   -1.1630    2.8238 C   0  0  0  0  0  0  0  0  0  0  0  0
   -3.0170   -0.4818    1.6840 C   0  0  0  0  0  0  0  0  0  0  0  0
   -4.4015   -0.5101    1.5625 C   0  0  0  0  0  0  0  0  0  0  0  0
   -0.1526    1.0799    0.1106 N   0  0  0  0  0  0  0  0  0  0  0  0
    1.2698    1.1658    0.1051 C   0  0  1  0  0  0  0  0  0  0  0  0
    1.8148    0.5206   -1.1938 C   0  0  0  0  0  0  0  0  0  0  0  0
    1.5190   -0.9439   -1.2929 C   0  0  0  0  0  0  0  0  0  0  0  0
    2.1984   -1.9723   -0.5486 C   0  0  0  0  0  0  0  0  0  0  0  0
    1.7579   -3.2206   -0.8856 C   0  0  0  0  0  0  0  0  0  0  0  0
    0.5102   -3.1682   -2.0513 S   0  0  0  0  0  0  0  0  0  0  0  0
    0.5591   -1.4493   -2.1246 C   0  0  0  0  0  0  0  0  0  0  0  0
   -0.3407   -0.7134   -3.0652 C   0  0  0  0  0  0  0  0  0  0  0  0
    0.2867   -0.4833   -4.4419 C   0  0  0  0  0  0  0  0  0  0  0  0
   -0.6327    0.2982   -5.3679 C   0  0  0  0  0  0  0  0  0  0  0  0
    3.1908   -1.7613    0.5049 C   0  0  0  0  0  0  0  0  0  0  0  0
    3.3709   -2.5664    1.6164 C   0  0  0  0  0  0  0  0  0  0  0  0
    4.3846   -2.0396    2.3147 N   0  0  0  0  0  0  0  0  0  0  0  0
    4.8878   -0.9455    1.7592 N   0  0  0  0  0  0  0  0  0  0  0  0
    4.1774   -0.7605    0.6634 C   0  0  0  0  0  0  0  0  0  0  0  0
    1.7361    2.5970    0.1478 C   0  0  0  0  0  0  0  0  0  0  0  0
    0.8947    3.5633    0.1482 N   0  0  0  0  0  0  0  0  0  0  0  0
    1.3712    4.8666    0.1500 C   0  0  0  0  0  0  0  0  0  0  0  0
    2.8218    5.0749   -0.1820 C   0  0  0  0  0  0  0  0  0  0  0  0
    3.6312    3.8546    0.0389 C   0  0  0  0  0  0  0  0  0  0  0  0
    3.1331    2.6952    0.2045 N   0  0  0  0  0  0  0  0  0  0  0  0
    0.6236    5.7887    0.3803 O   0  0  0  0  0  0  0  0  0  0  0  0
   -4.7508    1.3255   -1.2733 H   0  0  0  0  0  0  0  0  0  0  0  0
   -2.2892    1.3758   -1.0493 H   0  0  0  0  0  0  0  0  0  0  0  0
    0.7665   -0.7359    1.7321 H   0  0  0  0  0  0  0  0  0  0  0  0
   -0.0524   -1.3427    4.3303 H   0  0  0  0  0  0  0  0  0  0  0  0
   -0.6834   -2.9795    4.1128 H   0  0  0  0  0  0  0  0  0  0  0  0
    0.8206   -2.5100    3.3294 H   0  0  0  0  0  0  0  0  0  0  0  0
   -0.1440   -3.2243    1.0854 H   0  0  0  0  0  0  0  0  0  0  0  0
   -1.6478   -3.7036    1.8847 H   0  0  0  0  0  0  0  0  0  0  0  0
   -1.6756   -2.5789    0.5217 H   0  0  0  0  0  0  0  0  0  0  0  0
   -2.9381   -1.9735    3.2197 H   0  0  0  0  0  0  0  0  0  0  0  0
   -2.1794   -0.4444    3.6378 H   0  0  0  0  0  0  0  0  0  0  0  0
   -4.9963   -1.0447    2.2921 H   0  0  0  0  0  0  0  0  0  0  0  0
    1.7864    0.6916    0.9546 H   0  0  0  0  0  0  0  0  0  0  0  0
    1.3628    1.0484   -2.0347 H   0  0  0  0  0  0  0  0  0  0  0  0
    2.8877    0.6922   -1.2734 H   0  0  0  0  0  0  0  0  0  0  0  0
    2.1024   -4.1660   -0.4947 H   0  0  0  0  0  0  0  0  0  0  0  0
   -1.2817   -1.2580   -3.1819 H   0  0  0  0  0  0  0  0  0  0  0  0
   -0.6101    0.2452   -2.6154 H   0  0  0  0  0  0  0  0  0  0  0  0
    1.2333    0.0515   -4.3218 H   0  0  0  0  0  0  0  0  0  0  0  0
    0.5380   -1.4482   -4.8902 H   0  0  0  0  0  0  0  0  0  0  0  0
   -0.1646    0.4718   -6.3370 H   0  0  0  0  0  0  0  0  0  0  0  0
   -1.5680   -0.2365   -5.5428 H   0  0  0  0  0  0  0  0  0  0  0  0
   -0.8844    1.2712   -4.9420 H   0  0  0  0  0  0  0  0  0  0  0  0
    2.8545   -3.4540    1.9448 H   0  0  0  0  0  0  0  0  0  0  0  0
    4.7638   -2.3838    3.1823 H   0  0  0  0  0  0  0  0  0  0  0  0
    4.3932    0.0813    0.0248 H   0  0  0  0  0  0  0  0  0  0  0  0
    2.9093    5.3464   -1.2439 H   0  0  0  0  0  0  0  0  0  0  0  0
    3.2387    5.9229    0.3645 H   0  0  0  0  0  0  0  0  0  0  0  0
    4.7130    3.9524    0.0557 H   0  0  0  0  0  0  0  0  0  0  0  0
  1  2  1  0
  3  2  2  0
  3  4  1  0
 34 33  1  0
 34 35  2  0
  2 13  1  0
 33 32  1  0
  4  5  2  0
 28 27  1  0
 28 29  2  0
 35 30  1  0
 13 12  2  0
 27 26  1  0
 32 36  2  0
 32 31  1  0
  5 12  1  0
  5  6  1  0
 29 25  1  0
 12 11  1  0
 30 31  2  0
 30 15  1  0
 14  6  2  0
 14 15  1  0
  6  7  1  0
 26 25  2  0
 25 18  1  0
 15 16  1  0
 16 17  1  0
 11  8  1  0
  7  8  1  0
  8 10  1  6
  8  9  1  0
 18 17  1  0
 18 19  2  0
 17 21  2  0
 19 20  1  0
 21 22  1  0
 21 20  1  0
 22 23  1  0
 23 24  1  0
  3 37  1  0
  4 38  1  0
  7 39  1  0
  9 40  1  0
  9 41  1  0
  9 42  1  0
 10 43  1  0
 10 44  1  0
 10 45  1  0
 11 46  1  0
 11 47  1  0
 13 48  1  0
 15 49  1  1
 16 50  1  0
 16 51  1  0
 19 52  1  0
 22 53  1  0
 22 54  1  0
 23 55  1  0
 23 56  1  0
 24 57  1  0
 24 58  1  0
 24 59  1  0
 26 60  1  0
 27 61  1  0
 29 62  1  0
 33 63  1  0
 33 64  1  0
 34 65  1  0
M  END
