
     RDKit          3D

 45 45  0  0  0  0  0  0  0  0999 V2000
   -0.1733    1.2759   -0.6160 C   0  0  1  0  0  0  0  0  0  0  0  0
   -0.3595   -0.1543   -0.0735 C   0  0  1  0  0  0  0  0  0  0  0  0
   -1.4641   -0.6791   -0.8586 N   0  0  0  0  0  0  0  0  0  0  0  0
   -2.4128    0.4046   -0.9919 C   0  0  2  0  0  0  0  0  0  0  0  0
   -1.6290    1.7400   -0.7836 C   0  0  0  0  0  0  0  0  0  0  0  0
   -3.5236    0.2788    0.0287 C   0  0  0  0  0  0  0  0  0  0  0  0
   -4.4668    1.1918   -0.1838 O   0  0  0  0  0  0  0  0  0  0  0  0
   -3.5628   -0.5203    0.9273 O   0  0  0  0  0  0  0  0  0  0  0  0
    2.0831   -0.3062    0.1591 N   0  0  0  0  0  0  0  0  0  0  0  0
    2.9861    0.0839   -0.7630 C   0  0  0  0  0  0  0  0  0  0  0  0
    4.2203    0.7466   -0.2059 C   0  0  0  0  0  0  0  0  0  0  0  0
    2.8368   -0.0953   -1.9636 O   0  0  0  0  0  0  0  0  0  0  0  0
    0.8779   -1.0594   -0.1339 C   0  0  1  0  0  0  0  0  0  0  0  0
    0.7996   -2.2285    0.8521 C   0  0  0  0  0  0  0  0  0  0  0  0
   -0.3794   -3.1902    0.6983 C   0  0  1  0  0  0  0  0  0  0  0  0
   -0.3380   -3.9271   -0.6365 C   0  0  0  0  0  0  0  0  0  0  0  0
   -0.3717   -4.1888    1.8523 C   0  0  0  0  0  0  0  0  0  0  0  0
    0.5957    2.1784    0.3073 C   0  0  0  0  0  0  0  0  0  0  0  0
    0.3942    2.2613    1.4951 O   0  0  0  0  0  0  0  0  0  0  0  0
    1.5071    2.9010   -0.3294 O   0  0  0  0  0  0  0  0  0  0  0  0
    2.2753    3.8220    0.4450 C   0  0  0  0  0  0  0  0  0  0  0  0
    0.3167    1.2290   -1.5914 H   0  0  0  0  0  0  0  0  0  0  0  0
   -0.6880   -0.0787    0.9709 H   0  0  0  0  0  0  0  0  0  0  0  0
   -1.1276   -0.9279   -1.7811 H   0  0  0  0  0  0  0  0  0  0  0  0
   -2.8692    0.3803   -1.9838 H   0  0  0  0  0  0  0  0  0  0  0  0
   -1.9688    2.2735    0.1056 H   0  0  0  0  0  0  0  0  0  0  0  0
   -1.7494    2.4135   -1.6296 H   0  0  0  0  0  0  0  0  0  0  0  0
   -5.1590    1.1189    0.4903 H   0  0  0  0  0  0  0  0  0  0  0  0
    2.3146   -0.1731    1.1313 H   0  0  0  0  0  0  0  0  0  0  0  0
    4.1320    1.0253    0.8427 H   0  0  0  0  0  0  0  0  0  0  0  0
    5.0656    0.0636   -0.3024 H   0  0  0  0  0  0  0  0  0  0  0  0
    4.4544    1.6371   -0.7866 H   0  0  0  0  0  0  0  0  0  0  0  0
    0.9857   -1.4336   -1.1553 H   0  0  0  0  0  0  0  0  0  0  0  0
    1.7306   -2.8014    0.7750 H   0  0  0  0  0  0  0  0  0  0  0  0
    0.7812   -1.8098    1.8659 H   0  0  0  0  0  0  0  0  0  0  0  0
   -1.3074   -2.6139    0.7443 H   0  0  0  0  0  0  0  0  0  0  0  0
    0.5829   -4.5092   -0.7293 H   0  0  0  0  0  0  0  0  0  0  0  0
   -1.1764   -4.6205   -0.7265 H   0  0  0  0  0  0  0  0  0  0  0  0
   -0.3877   -3.2474   -1.4876 H   0  0  0  0  0  0  0  0  0  0  0  0
   -0.4191   -3.6840    2.8191 H   0  0  0  0  0  0  0  0  0  0  0  0
   -1.2233   -4.8679    1.7891 H   0  0  0  0  0  0  0  0  0  0  0  0
    0.5373   -4.7956    1.8395 H   0  0  0  0  0  0  0  0  0  0  0  0
    1.6398    4.5605    0.9332 H   0  0  0  0  0  0  0  0  0  0  0  0
    2.8726    3.3101    1.1997 H   0  0  0  0  0  0  0  0  0  0  0  0
    2.9359    4.3231   -0.2560 H   0  0  0  0  0  0  0  0  0  0  0  0
  1  2  1  0
  1  5  1  0
  1 18  1  0
  1 22  1  6
  2  3  1  0
  2 13  1  0
  2 23  1  1
  3  4  1  0
  3 24  1  0
  4  5  1  0
  4  6  1  0
  4 25  1  6
  5 26  1  0
  5 27  1  0
  6  7  1  0
  6  8  2  0
  7 28  1  0
  9 10  1  0
  9 13  1  0
  9 29  1  0
 10 11  1  0
 10 12  2  0
 11 30  1  0
 11 31  1  0
 11 32  1  0
 13 14  1  0
 13 33  1  6
 14 15  1  0
 14 34  1  0
 14 35  1  0
 15 16  1  0
 15 17  1  0
 15 36  1  6
 16 37  1  0
 16 38  1  0
 16 39  1  0
 17 40  1  0
 17 41  1  0
 17 42  1  0
 18 19  2  0
 18 20  1  0
 20 21  1  0
 21 43  1  0
 21 44  1  0
 21 45  1  0
M  END
