
     RDKit          3D

 19 19  0  0  0  0  0  0  0  0999 V2000
   -1.4210    1.4663    0.1351 F   0  0  0  0  0  0  0  0  0  0  0  0
   -1.4713    0.1301    0.0503 C   0  0  0  0  0  0  0  0  0  0  0  0
   -2.8416   -0.4293    0.0126 C   0  0  0  0  0  0  0  0  0  0  0  0
   -3.0722   -1.6118   -0.0498 O   0  0  0  0  0  0  0  0  0  0  0  0
   -3.7623    0.5162    0.0544 O   0  0  0  0  0  0  0  0  0  0  0  0
   -0.3790   -0.6317    0.0038 C   0  0  0  0  0  0  0  0  0  0  0  0
    1.0287   -0.2579    0.0267 C   0  0  0  0  0  0  0  0  0  0  0  0
    1.5063    1.0565    0.1147 C   0  0  0  0  0  0  0  0  0  0  0  0
    2.8687    1.3071    0.1265 C   0  0  0  0  0  0  0  0  0  0  0  0
    3.7818    0.2621    0.0514 C   0  0  0  0  0  0  0  0  0  0  0  0
    3.3226   -1.0450   -0.0351 C   0  0  0  0  0  0  0  0  0  0  0  0
    1.9612   -1.2997   -0.0470 C   0  0  0  0  0  0  0  0  0  0  0  0
   -4.6465    0.1191    0.0359 H   0  0  0  0  0  0  0  0  0  0  0  0
   -0.5770   -1.6945   -0.0643 H   0  0  0  0  0  0  0  0  0  0  0  0
    0.8269    1.8925    0.1740 H   0  0  0  0  0  0  0  0  0  0  0  0
    3.2195    2.3285    0.1947 H   0  0  0  0  0  0  0  0  0  0  0  0
    4.8444    0.4661    0.0604 H   0  0  0  0  0  0  0  0  0  0  0  0
    4.0242   -1.8665   -0.0928 H   0  0  0  0  0  0  0  0  0  0  0  0
    1.6100   -2.3222   -0.1155 H   0  0  0  0  0  0  0  0  0  0  0  0
  4  3  2  0
  3  5  1  0
  3  2  1  0
  1  2  1  0
  2  6  2  0
  6  7  1  0
 12  7  2  0
 12 11  1  0
  7  8  1  0
 11 10  2  0
  8  9  2  0
 10  9  1  0
  5 13  1  0
  6 14  1  0
  8 15  1  0
  9 16  1  0
 10 17  1  0
 11 18  1  0
 12 19  1  0
M  END
