
     RDKit          3D

 38 39  0  0  0  0  0  0  0  0999 V2000
    6.0170   -0.4422   -1.5802 C   0  0  0  0  0  0  0  0  0  0  0  0
    5.0697    0.7761    0.7204 C   0  0  0  0  0  0  0  0  0  0  0  0
    4.6721   -0.5293   -1.2510 C   0  0  0  0  0  0  0  0  0  0  0  0
    6.8945    0.2558   -0.7608 C   0  0  0  0  0  0  0  0  0  0  0  0
    6.4142    0.8653    0.3910 C   0  0  0  0  0  0  0  0  0  0  0  0
    4.1765    0.0783   -0.0954 C   0  0  0  0  0  0  0  0  0  0  0  0
    2.7448   -0.0147    0.2536 C   0  0  0  0  0  0  0  0  0  0  0  0
   -4.2499   -1.2075    0.8522 O   0  0  0  0  0  0  0  0  0  0  0  0
    2.0195   -1.1831    0.0130 C   0  0  0  0  0  0  0  0  0  0  0  0
    0.7285    0.9726    1.1586 C   0  0  0  0  0  0  0  0  0  0  0  0
   -2.3194    0.0197   -0.0002 C   0  0  0  0  0  0  0  0  0  0  0  0
   -3.8138    0.0169    0.3001 C   0  0  1  0  0  0  0  0  0  0  0  0
    0.0048   -0.1924    0.9185 C   0  0  0  0  0  0  0  0  0  0  0  0
    2.0739    1.0615    0.8348 C   0  0  0  0  0  0  0  0  0  0  0  0
    0.6759   -1.2682    0.3409 C   0  0  0  0  0  0  0  0  0  0  0  0
   -1.4619   -0.2760    1.2316 C   0  0  0  0  0  0  0  0  0  0  0  0
   -4.6164    0.3645   -0.9490 C   0  0  0  0  0  0  0  0  0  0  0  0
   -6.0905    0.4817   -0.6701 C   0  0  0  0  0  0  0  0  0  0  0  0
   -6.5627    0.9212    0.3488 O   0  0  0  0  0  0  0  0  0  0  0  0
   -6.8324    0.0791   -1.6961 O   0  0  0  0  0  0  0  0  0  0  0  0
    6.3778   -0.9147   -2.4846 H   0  0  0  0  0  0  0  0  0  0  0  0
    3.9984   -1.0609   -1.9117 H   0  0  0  0  0  0  0  0  0  0  0  0
    7.9434    0.3247   -1.0180 H   0  0  0  0  0  0  0  0  0  0  0  0
    4.7160    1.2381    1.6339 H   0  0  0  0  0  0  0  0  0  0  0  0
    7.0893    1.4065    1.0413 H   0  0  0  0  0  0  0  0  0  0  0  0
    2.5143   -2.0465   -0.4145 H   0  0  0  0  0  0  0  0  0  0  0  0
    2.6008    1.9890    1.0236 H   0  0  0  0  0  0  0  0  0  0  0  0
   -4.0131    0.7707    1.0670 H   0  0  0  0  0  0  0  0  0  0  0  0
    0.1418   -2.1922    0.1510 H   0  0  0  0  0  0  0  0  0  0  0  0
    0.2328    1.8280    1.6025 H   0  0  0  0  0  0  0  0  0  0  0  0
   -2.0989   -0.7104   -0.7879 H   0  0  0  0  0  0  0  0  0  0  0  0
   -2.0463    0.9986   -0.4039 H   0  0  0  0  0  0  0  0  0  0  0  0
   -1.7112    0.4363    2.0228 H   0  0  0  0  0  0  0  0  0  0  0  0
   -1.7009   -1.2707    1.6135 H   0  0  0  0  0  0  0  0  0  0  0  0
   -4.2889    1.3322   -1.3443 H   0  0  0  0  0  0  0  0  0  0  0  0
   -4.4337   -0.3671   -1.7399 H   0  0  0  0  0  0  0  0  0  0  0  0
   -7.7713    0.2153   -1.4977 H   0  0  0  0  0  0  0  0  0  0  0  0
   -4.0157   -1.9161    0.2422 H   0  0  0  0  0  0  0  0  0  0  0  0
  1  3  2  0
  1  4  1  0
  2  5  1  0
  2  6  2  0
  3  6  1  0
  4  5  2  0
  6  7  1  0
  7  9  2  0
  7 14  1  0
  8 12  1  0
  9 15  1  0
 10 13  1  0
 10 14  2  0
 11 12  1  0
 11 16  1  0
 12 17  1  0
 13 15  2  0
 13 16  1  0
 17 18  1  0
 18 19  2  0
 18 20  1  0
  1 21  1  0
  3 22  1  0
  4 23  1  0
  2 24  1  0
  5 25  1  0
  9 26  1  0
 14 27  1  0
  8 38  1  0
 12 28  1  1
 15 29  1  0
 10 30  1  0
 11 31  1  0
 11 32  1  0
 16 33  1  0
 16 34  1  0
 17 35  1  0
 17 36  1  0
 20 37  1  0
M  END
