
     RDKit          3D

 61 63  0  0  0  0  0  0  0  0999 V2000
    6.8173   -5.8381   -5.6488 C   0  0  0  0  0  0  0  0  0  0  0  0
    5.6588   -5.8382   -5.0062 N   0  0  0  0  0  0  0  0  0  0  0  0
    5.6767   -5.9020   -3.6807 C   0  0  0  0  0  0  0  0  0  0  0  0
    6.8444   -5.9521   -2.9349 C   0  0  0  0  0  0  0  0  0  0  0  0
    8.0531   -5.9517   -3.6176 C   0  0  0  0  0  0  0  0  0  0  0  0
    8.0440   -5.8957   -5.0009 C   0  0  0  0  0  0  0  0  0  0  0  0
    4.3134   -5.8661   -3.0353 C   0  0  1  0  0  0  0  0  0  0  0  0
    3.6387   -4.5096   -3.1774 C   0  0  0  0  0  0  0  0  0  0  0  0
    3.5227   -6.8226   -3.6049 F   0  0  0  0  0  0  0  0  0  0  0  0
    4.4096   -6.2058   -1.7224 F   0  0  0  0  0  0  0  0  0  0  0  0
    2.3483   -4.4550   -2.5599 N   0  0  0  0  0  0  0  0  0  0  0  0
    2.1445   -4.0094   -1.3010 C   0  0  0  0  0  0  0  0  0  0  0  0
    0.7062   -4.0033   -0.8183 C   0  0  2  0  0  0  0  0  0  0  0  0
    0.5314   -2.8093   -0.0511 N   0  0  0  0  0  0  0  0  0  0  0  0
    1.5270   -2.5543    0.8606 C   0  0  0  0  0  0  0  0  0  0  0  0
    2.7749   -3.0053    0.6438 C   0  0  0  0  0  0  0  0  0  0  0  0
    3.1112   -3.6185   -0.5472 N   0  0  0  0  0  0  0  0  0  0  0  0
   -0.7381   -2.1153   -0.0843 C   0  0  0  0  0  0  0  0  0  0  0  0
   -1.8357   -2.7889    0.7357 C   0  0  0  0  0  0  0  0  0  0  0  0
   -3.0119   -1.9467    0.7466 N   0  0  0  0  0  0  0  0  0  0  0  0
   -4.1364   -2.5508    1.4380 C   0  0  0  0  0  0  0  0  0  0  0  0
   -5.3214   -1.5929    1.5213 C   0  0  1  0  0  0  0  0  0  0  0  0
   -5.7409   -1.1086    0.1335 C   0  0  0  0  0  0  0  0  0  0  0  0
   -6.9551   -0.1953    0.2036 C   0  0  0  0  0  0  0  0  0  0  0  0
   -6.2227   -2.6498    3.6622 C   0  0  0  0  0  0  0  0  0  0  0  0
   -8.0916   -0.8765    0.9450 C   0  0  2  0  0  0  0  0  0  0  0  0
   -6.5241   -2.2262    2.2317 C   0  0  1  0  0  0  0  0  0  0  0  0
    0.3997   -5.1953   -0.1396 O   0  0  0  0  0  0  0  0  0  0  0  0
   -9.2077    0.0380    1.1017 N   0  0  0  0  0  0  0  0  0  0  0  0
    1.1283   -1.6748    2.2981 Cl  0  0  0  0  0  0  0  0  0  0  0  0
   -7.6196   -1.2632    2.2625 N   0  0  0  0  0  0  0  0  0  0  0  0
    6.7710   -5.7889   -6.7305 H   0  0  0  0  0  0  0  0  0  0  0  0
    6.8264   -5.9901   -1.8554 H   0  0  0  0  0  0  0  0  0  0  0  0
    8.9859   -5.9942   -3.0715 H   0  0  0  0  0  0  0  0  0  0  0  0
    8.9620   -5.8926   -5.5717 H   0  0  0  0  0  0  0  0  0  0  0  0
    3.5466   -4.2894   -4.2420 H   0  0  0  0  0  0  0  0  0  0  0  0
    4.2814   -3.7463   -2.7379 H   0  0  0  0  0  0  0  0  0  0  0  0
    1.5635   -4.8174   -3.0741 H   0  0  0  0  0  0  0  0  0  0  0  0
    0.0130   -3.9585   -1.6602 H   0  0  0  0  0  0  0  0  0  0  0  0
    3.5584   -2.8707    1.3760 H   0  0  0  0  0  0  0  0  0  0  0  0
   -0.5861   -1.0917    0.2620 H   0  0  0  0  0  0  0  0  0  0  0  0
   -1.0558   -2.0428   -1.1268 H   0  0  0  0  0  0  0  0  0  0  0  0
   -2.0964   -3.7461    0.2756 H   0  0  0  0  0  0  0  0  0  0  0  0
   -1.4577   -3.0214    1.7429 H   0  0  0  0  0  0  0  0  0  0  0  0
   -2.7830   -1.0734    1.2099 H   0  0  0  0  0  0  0  0  0  0  0  0
   -4.4353   -3.4516    0.8890 H   0  0  0  0  0  0  0  0  0  0  0  0
   -3.8528   -2.8836    2.4472 H   0  0  0  0  0  0  0  0  0  0  0  0
   -5.0166   -0.7214    2.1194 H   0  0  0  0  0  0  0  0  0  0  0  0
   -5.9764   -1.9808   -0.4889 H   0  0  0  0  0  0  0  0  0  0  0  0
   -4.9101   -0.5996   -0.3552 H   0  0  0  0  0  0  0  0  0  0  0  0
   -6.7038    0.7312    0.7293 H   0  0  0  0  0  0  0  0  0  0  0  0
   -7.2848    0.0804   -0.8022 H   0  0  0  0  0  0  0  0  0  0  0  0
   -7.1305   -2.9964    4.1607 H   0  0  0  0  0  0  0  0  0  0  0  0
   -5.5066   -3.4688    3.7040 H   0  0  0  0  0  0  0  0  0  0  0  0
   -5.8208   -1.8147    4.2394 H   0  0  0  0  0  0  0  0  0  0  0  0
   -8.3763   -1.7750    0.3597 H   0  0  0  0  0  0  0  0  0  0  0  0
   -6.8030   -3.1295    1.6574 H   0  0  0  0  0  0  0  0  0  0  0  0
    1.0379   -5.3322    0.5704 H   0  0  0  0  0  0  0  0  0  0  0  0
  -10.0072   -0.4609    1.4759 H   0  0  0  0  0  0  0  0  0  0  0  0
   -9.4991    0.3519    0.1836 H   0  0  0  0  0  0  0  0  0  0  0  0
   -8.3906   -1.6807    2.7733 H   0  0  0  0  0  0  0  0  0  0  0  0
  1  2  2  0
  1  6  1  0
  1 32  1  0
  2  3  1  0
  3  4  2  0
  3  7  1  0
  4  5  1  0
  4 33  1  0
  5  6  2  0
  5 34  1  0
  6 35  1  0
  7  8  1  0
  7  9  1  6
  7 10  1  0
  8 11  1  0
  8 36  1  0
  8 37  1  0
 11 12  1  0
 11 38  1  0
 12 13  1  0
 12 17  2  0
 13 14  1  0
 13 28  1  0
 13 39  1  6
 14 15  1  0
 14 18  1  0
 15 16  2  0
 15 30  1  0
 16 17  1  0
 16 40  1  0
 18 19  1  0
 18 41  1  0
 18 42  1  0
 19 20  1  0
 19 43  1  0
 19 44  1  0
 20 21  1  0
 20 45  1  0
 21 22  1  0
 21 46  1  0
 21 47  1  0
 22 23  1  0
 22 27  1  0
 22 48  1  1
 23 24  1  0
 23 49  1  0
 23 50  1  0
 24 26  1  0
 24 51  1  0
 24 52  1  0
 25 27  1  0
 25 53  1  0
 25 54  1  0
 25 55  1  0
 26 29  1  0
 26 31  1  0
 26 56  1  6
 27 31  1  0
 27 57  1  6
 28 58  1  0
 29 59  1  0
 29 60  1  0
 61 31  1  0
M  END
