
     RDKit          3D

 43 45  0  0  0  0  0  0  0  0999 V2000
    1.2323   -0.4223    0.0624 N   0  0  0  0  0  0  0  0  0  0  0  0
   -0.1001   -0.0202    0.1305 C   0  0  0  0  0  0  0  0  0  0  0  0
   -1.0667   -1.0317    0.0546 C   0  0  0  0  0  0  0  0  0  0  0  0
   -2.4113   -0.7404    0.1233 C   0  0  0  0  0  0  0  0  0  0  0  0
   -2.8627    0.5752    0.2802 C   0  0  0  0  0  0  0  0  0  0  0  0
   -1.8935    1.5725    0.3526 C   0  0  0  0  0  0  0  0  0  0  0  0
   -0.5349    1.2961    0.2771 C   0  0  0  0  0  0  0  0  0  0  0  0
   -4.3057    0.8780    0.3420 C   0  0  0  0  0  0  0  0  0  0  0  0
   -4.7893    2.1892    0.8936 C   0  0  0  0  0  0  0  0  0  0  0  0
   -5.0932   -0.0334   -0.0894 N   0  0  0  0  0  0  0  0  0  0  0  0
   -6.4129    0.1696   -0.0481 N   0  0  0  0  0  0  0  0  0  0  0  0
   -7.2780   -0.7610   -0.5887 C   0  0  0  0  0  0  0  0  0  0  0  0
   -6.8461   -1.8177   -1.1569 N   0  0  0  0  0  0  0  0  0  0  0  0
   -8.5891   -0.3581   -0.4698 N   0  0  0  0  0  0  0  0  0  0  0  0
    2.3460    1.5610    0.0964 O   0  0  0  0  0  0  0  0  0  0  0  0
    2.3657    0.3389    0.0758 C   0  0  0  0  0  0  0  0  0  0  0  0
    3.6259   -0.4042    0.0604 C   0  0  0  0  0  0  0  0  0  0  0  0
    3.8263   -1.7516    0.2626 C   0  0  0  0  0  0  0  0  0  0  0  0
    5.1428   -2.0342    0.1954 N   0  0  0  0  0  0  0  0  0  0  0  0
    5.8533   -0.8884   -0.0483 C   0  0  0  0  0  0  0  0  0  0  0  0
    7.2259   -0.7073   -0.1967 C   0  0  0  0  0  0  0  0  0  0  0  0
    7.6711    0.5766   -0.4414 C   0  0  0  0  0  0  0  0  0  0  0  0
    6.7709    1.6493   -0.5371 C   0  0  0  0  0  0  0  0  0  0  0  0
    5.4104    1.4634   -0.3877 C   0  0  0  0  0  0  0  0  0  0  0  0
    4.9295    0.1723   -0.1360 C   0  0  0  0  0  0  0  0  0  0  0  0
   -0.7551   -2.0642   -0.0561 H   0  0  0  0  0  0  0  0  0  0  0  0
    0.1669    2.1107    0.3308 H   0  0  0  0  0  0  0  0  0  0  0  0
   -3.1276   -1.5485    0.0653 H   0  0  0  0  0  0  0  0  0  0  0  0
   -2.1818    2.6100    0.4574 H   0  0  0  0  0  0  0  0  0  0  0  0
   -5.2325    2.8134    0.1133 H   0  0  0  0  0  0  0  0  0  0  0  0
   -5.5558    2.0313    1.6564 H   0  0  0  0  0  0  0  0  0  0  0  0
   -3.9978    2.7652    1.3624 H   0  0  0  0  0  0  0  0  0  0  0  0
   -7.6246   -2.3985   -1.4461 H   0  0  0  0  0  0  0  0  0  0  0  0
   -8.8281    0.1822    0.3483 H   0  0  0  0  0  0  0  0  0  0  0  0
   -9.2730   -1.0739   -0.6559 H   0  0  0  0  0  0  0  0  0  0  0  0
    3.1213   -2.5421    0.4684 H   0  0  0  0  0  0  0  0  0  0  0  0
    5.5354   -2.9530    0.3232 H   0  0  0  0  0  0  0  0  0  0  0  0
    7.9154   -1.5382   -0.1240 H   0  0  0  0  0  0  0  0  0  0  0  0
    8.7311    0.7584   -0.5612 H   0  0  0  0  0  0  0  0  0  0  0  0
    7.1534    2.6428   -0.7321 H   0  0  0  0  0  0  0  0  0  0  0  0
    4.7311    2.3000   -0.4615 H   0  0  0  0  0  0  0  0  0  0  0  0
   -6.7852    1.0790    0.1900 H   0  0  0  0  0  0  0  0  0  0  0  0
    1.3548   -1.4175   -0.0397 H   0  0  0  0  0  0  0  0  0  0  0  0
  1  2  1  0
  1 16  1  0
  2  3  2  0
  2  7  1  0
  3  4  1  0
  4  5  2  0
  5  6  1  0
  5  8  1  0
  6  7  2  0
  8  9  1  0
  8 10  2  0
 10 11  1  0
 11 12  1  0
 12 13  2  0
 12 14  1  0
 15 16  2  0
 16 17  1  0
 17 18  2  0
 17 25  1  0
 18 19  1  0
 19 20  1  0
 20 21  1  0
 20 25  2  0
 21 22  2  0
 22 23  1  0
 23 24  2  0
 24 25  1  0
  3 26  1  0
  7 27  1  0
  4 28  1  0
  6 29  1  0
  9 30  1  0
  9 31  1  0
  9 32  1  0
 13 33  1  0
 14 34  1  0
 14 35  1  0
 18 36  1  0
 19 37  1  0
 21 38  1  0
 22 39  1  0
 23 40  1  0
 24 41  1  0
 11 42  1  0
  1 43  1  0
M  END
