
     RDKit          3D

 56 59  0  0  0  0  0  0  0  0999 V2000
   -1.7578    0.1862   -4.6077 C   0  0  0  0  0  0  0  0  0  0  0  0
   -0.4821    0.6789   -5.2313 C   0  0  0  0  0  0  0  0  0  0  0  0
    0.7436    0.3494   -4.5069 C   0  0  0  0  0  0  0  0  0  0  0  0
    0.7570   -0.2319   -3.2970 C   0  0  0  0  0  0  0  0  0  0  0  0
    2.0327   -0.7622   -2.7225 C   0  0  0  0  0  0  0  0  0  0  0  0
    2.2500   -0.3754   -1.2662 C   0  0  0  0  0  0  0  0  0  0  0  0
   -1.6973    0.2630   -3.0895 C   0  0  0  0  0  0  0  0  0  0  0  0
    1.0168   -0.6118   -0.3962 C   0  0  2  0  0  0  0  0  0  0  0  0
   -0.2283    0.0145   -1.0439 C   0  0  1  0  0  0  0  0  0  0  0  0
   -0.5019   -0.4991   -2.4933 C   0  0  2  0  0  0  0  0  0  0  0  0
   -1.4689    0.0283   -0.1257 C   0  0  2  0  0  0  0  0  0  0  0  0
   -1.1576    0.5396    1.2879 C   0  0  0  0  0  0  0  0  0  0  0  0
    0.0342   -0.1643    1.9297 C   0  0  1  0  0  0  0  0  0  0  0  0
    1.2352   -0.0092    0.9867 C   0  0  1  0  0  0  0  0  0  0  0  0
    2.4172   -0.4972    1.8193 C   0  0  0  0  0  0  0  0  0  0  0  0
    2.0572   -0.0741    3.2618 C   0  0  0  0  0  0  0  0  0  0  0  0
    0.6261    0.5087    3.2119 C   0  0  2  0  0  0  0  0  0  0  0  0
   -0.2714   -1.6377    2.2414 C   0  0  0  0  0  0  0  0  0  0  0  0
   -0.7586   -2.0185   -2.5885 C   0  0  0  0  0  0  0  0  0  0  0  0
   -0.1972    0.2157    4.4665 C   0  0  0  0  0  0  0  0  0  0  0  0
   -1.3082    1.1925    4.7829 C   0  0  0  0  0  0  0  0  0  0  0  0
    0.0796    1.3829   -1.2083 F   0  0  0  0  0  0  0  0  0  0  0  0
   -0.4555    1.2510   -6.3076 O   0  0  0  0  0  0  0  0  0  0  0  0
   -2.0284   -1.2622   -0.1189 O   0  0  0  0  0  0  0  0  0  0  0  0
    0.6411    1.9044    2.9987 O   0  0  0  0  0  0  0  0  0  0  0  0
    0.0082   -0.7393    5.1755 O   0  0  0  0  0  0  0  0  0  0  0  0
   -2.0888    0.6721    5.8190 O   0  0  0  0  0  0  0  0  0  0  0  0
   -2.6037    0.7591   -4.9903 H   0  0  0  0  0  0  0  0  0  0  0  0
   -1.9062   -0.8479   -4.9394 H   0  0  0  0  0  0  0  0  0  0  0  0
    1.6799    0.5215   -5.0289 H   0  0  0  0  0  0  0  0  0  0  0  0
    2.8804   -0.4444   -3.3313 H   0  0  0  0  0  0  0  0  0  0  0  0
    1.9935   -1.8548   -2.7982 H   0  0  0  0  0  0  0  0  0  0  0  0
    2.5442    0.6754   -1.2058 H   0  0  0  0  0  0  0  0  0  0  0  0
    3.0890   -0.9490   -0.8678 H   0  0  0  0  0  0  0  0  0  0  0  0
   -1.6489    1.3164   -2.8083 H   0  0  0  0  0  0  0  0  0  0  0  0
   -2.6266   -0.1298   -2.6742 H   0  0  0  0  0  0  0  0  0  0  0  0
    0.8506   -1.6897   -0.3056 H   0  0  0  0  0  0  0  0  0  0  0  0
   -2.1802    0.7394   -0.5676 H   0  0  0  0  0  0  0  0  0  0  0  0
   -2.0694    0.4328    1.8878 H   0  0  0  0  0  0  0  0  0  0  0  0
   -0.9666    1.6120    1.2251 H   0  0  0  0  0  0  0  0  0  0  0  0
    1.3821    1.0645    0.8344 H   0  0  0  0  0  0  0  0  0  0  0  0
    2.5289   -1.5819    1.7480 H   0  0  0  0  0  0  0  0  0  0  0  0
    3.3604   -0.0599    1.4925 H   0  0  0  0  0  0  0  0  0  0  0  0
    2.1083   -0.9219    3.9422 H   0  0  0  0  0  0  0  0  0  0  0  0
    2.7490    0.6745    3.6546 H   0  0  0  0  0  0  0  0  0  0  0  0
   -0.3167   -2.2397    1.3393 H   0  0  0  0  0  0  0  0  0  0  0  0
    0.4746   -2.0918    2.8920 H   0  0  0  0  0  0  0  0  0  0  0  0
   -1.2372   -1.7407    2.7393 H   0  0  0  0  0  0  0  0  0  0  0  0
   -0.6734   -2.3397   -3.6274 H   0  0  0  0  0  0  0  0  0  0  0  0
   -0.0448   -2.6072   -2.0152 H   0  0  0  0  0  0  0  0  0  0  0  0
   -1.7537   -2.2713   -2.2386 H   0  0  0  0  0  0  0  0  0  0  0  0
   -0.8477    2.1542    5.0468 H   0  0  0  0  0  0  0  0  0  0  0  0
   -1.8868    1.3807    3.8676 H   0  0  0  0  0  0  0  0  0  0  0  0
   -2.7483   -1.2731    0.5200 H   0  0  0  0  0  0  0  0  0  0  0  0
    1.2909    2.3022    3.5877 H   0  0  0  0  0  0  0  0  0  0  0  0
   -2.7560    1.3288    6.0373 H   0  0  0  0  0  0  0  0  0  0  0  0
  1  2  1  0
  1  7  1  0
  1 28  1  0
  1 29  1  0
  2  3  1  0
  2 23  2  0
  3  4  2  0
  3 30  1  0
  4  5  1  0
  4 10  1  0
  5  6  1  0
  5 31  1  0
  5 32  1  0
  6  8  1  0
  6 33  1  0
  6 34  1  0
  7 10  1  0
  7 35  1  0
  7 36  1  0
  8  9  1  0
  8 14  1  0
  8 37  1  1
  9 10  1  0
  9 11  1  0
  9 22  1  6
 10 19  1  1
 11 12  1  0
 11 24  1  0
 11 38  1  6
 12 13  1  0
 12 39  1  0
 12 40  1  0
 13 14  1  0
 13 17  1  0
 13 18  1  1
 14 15  1  0
 14 41  1  6
 15 16  1  0
 15 42  1  0
 15 43  1  0
 16 17  1  0
 16 44  1  0
 16 45  1  0
 17 20  1  0
 17 25  1  6
 18 46  1  0
 18 47  1  0
 18 48  1  0
 19 49  1  0
 19 50  1  0
 19 51  1  0
 20 21  1  0
 20 26  2  0
 21 27  1  0
 21 52  1  0
 21 53  1  0
 24 54  1  0
 25 55  1  0
 27 56  1  0
M  END
