
     RDKit          3D

 81 84  0  0  0  0  0  0  0  0999 V2000
    6.2391   -0.1889   -0.2705 O   0  0  0  0  0  0  0  0  0  0  0  0
    5.0126   -0.6963    0.3305 S   0  0  1  0  0  0  0  0  0  0  0  0
    5.1302   -1.6381    1.4391 O   0  0  0  0  0  0  0  0  0  0  0  0
    4.0221    0.6510    0.8848 C   0  0  0  0  0  0  0  0  0  0  0  0
    3.1940    0.5029    1.9853 C   0  0  0  0  0  0  0  0  0  0  0  0
    2.3206    1.5188    2.3405 C   0  0  0  0  0  0  0  0  0  0  0  0
    2.2842    2.6950    1.5924 C   0  0  0  0  0  0  0  0  0  0  0  0
    3.1495    2.8488    0.5005 C   0  0  0  0  0  0  0  0  0  0  0  0
    4.0063    1.8316    0.1437 C   0  0  0  0  0  0  0  0  0  0  0  0
    1.4667    3.7202    1.8461 O   0  0  0  0  0  0  0  0  0  0  0  0
    0.5657    3.6225    2.9377 C   0  0  0  0  0  0  0  0  0  0  0  0
    4.1057   -1.3135   -0.8957 N   0  0  0  0  0  0  0  0  0  0  0  0
    4.7708   -1.8490   -2.0823 C   0  0  0  0  0  0  0  0  0  0  0  0
    5.6539   -3.0784   -1.8662 C   0  0  1  0  0  0  0  0  0  0  0  0
    4.9260   -4.2202   -1.1671 C   0  0  0  0  0  0  0  0  0  0  0  0
    6.2010   -3.5269   -3.2175 C   0  0  0  0  0  0  0  0  0  0  0  0
    2.7392   -1.7129   -0.5797 C   0  0  0  0  0  0  0  0  0  0  0  0
    1.7137   -0.6960   -1.0776 C   0  0  1  0  0  0  0  0  0  0  0  0
    1.5959   -0.6986   -2.4827 O   0  0  0  0  0  0  0  0  0  0  0  0
    0.3628   -0.8547   -0.3735 C   0  0  2  0  0  0  0  0  0  0  0  0
   -0.2996   -2.2261   -0.6068 C   0  0  0  0  0  0  0  0  0  0  0  0
   -1.6131   -2.3205    0.1123 C   0  0  0  0  0  0  0  0  0  0  0  0
   -0.5096    0.2160   -0.7902 N   0  0  0  0  0  0  0  0  0  0  0  0
   -1.3091    0.8866    0.0615 C   0  0  0  0  0  0  0  0  0  0  0  0
   -1.2660    0.8305    1.2710 O   0  0  0  0  0  0  0  0  0  0  0  0
   -2.1644    1.6585   -0.6251 O   0  0  0  0  0  0  0  0  0  0  0  0
   -3.1280    2.4034    0.1097 C   0  0  2  0  0  0  0  0  0  0  0  0
   -4.2912    2.7814   -0.8154 C   0  0  1  0  0  0  0  0  0  0  0  0
   -3.9645    4.2235   -1.2692 C   0  0  1  0  0  0  0  0  0  0  0  0
   -2.7426    4.5682   -0.6565 O   0  0  0  0  0  0  0  0  0  0  0  0
   -2.5835    3.7689    0.4966 C   0  0  0  0  0  0  0  0  0  0  0  0
   -3.8372    4.2195   -2.6499 O   0  0  0  0  0  0  0  0  0  0  0  0
   -3.6193    2.8840   -3.0976 C   0  0  0  0  0  0  0  0  0  0  0  0
   -4.4256    2.0234   -2.1350 C   0  0  0  0  0  0  0  0  0  0  0  0
   -1.6816   -2.7678    1.4242 C   0  0  0  0  0  0  0  0  0  0  0  0
   -2.8755   -2.7686    2.1312 C   0  0  0  0  0  0  0  0  0  0  0  0
   -4.0452   -2.3004    1.5395 C   0  0  0  0  0  0  0  0  0  0  0  0
   -5.2431   -2.2491    2.1387 O   0  0  0  0  0  0  0  0  0  0  0  0
   -5.3463   -2.7115    3.4724 C   0  0  0  0  0  0  0  0  0  0  0  0
   -3.9745   -1.8541    0.2171 C   0  0  0  0  0  0  0  0  0  0  0  0
   -2.7871   -1.8734   -0.4886 C   0  0  0  0  0  0  0  0  0  0  0  0
   -5.4148   -1.2599   -0.5381 Cl  0  0  0  0  0  0  0  0  0  0  0  0
    3.2096   -0.4044    2.5738 H   0  0  0  0  0  0  0  0  0  0  0  0
    1.6728    1.3720    3.1926 H   0  0  0  0  0  0  0  0  0  0  0  0
    3.1300    3.7687   -0.0695 H   0  0  0  0  0  0  0  0  0  0  0  0
    4.6514    1.9540   -0.7161 H   0  0  0  0  0  0  0  0  0  0  0  0
   -0.0034    4.5482    2.9465 H   0  0  0  0  0  0  0  0  0  0  0  0
   -0.1199    2.7813    2.8184 H   0  0  0  0  0  0  0  0  0  0  0  0
    1.0940    3.5252    3.8890 H   0  0  0  0  0  0  0  0  0  0  0  0
    3.9709   -2.0882   -2.7849 H   0  0  0  0  0  0  0  0  0  0  0  0
    5.3548   -1.0572   -2.5541 H   0  0  0  0  0  0  0  0  0  0  0  0
    6.5030   -2.7795   -1.2424 H   0  0  0  0  0  0  0  0  0  0  0  0
    4.5870   -3.9413   -0.1687 H   0  0  0  0  0  0  0  0  0  0  0  0
    4.0570   -4.5482   -1.7425 H   0  0  0  0  0  0  0  0  0  0  0  0
    5.5870   -5.0811   -1.0556 H   0  0  0  0  0  0  0  0  0  0  0  0
    6.7192   -2.7162   -3.7324 H   0  0  0  0  0  0  0  0  0  0  0  0
    6.9076   -4.3484   -3.0984 H   0  0  0  0  0  0  0  0  0  0  0  0
    5.3955   -3.8740   -3.8693 H   0  0  0  0  0  0  0  0  0  0  0  0
    2.5531   -2.6961   -1.0192 H   0  0  0  0  0  0  0  0  0  0  0  0
    2.6208   -1.8608    0.4966 H   0  0  0  0  0  0  0  0  0  0  0  0
    2.0728    0.3030   -0.8241 H   0  0  0  0  0  0  0  0  0  0  0  0
    1.3408   -1.5787   -2.7801 H   0  0  0  0  0  0  0  0  0  0  0  0
    0.5414   -0.7314    0.6967 H   0  0  0  0  0  0  0  0  0  0  0  0
   -0.4504   -2.3893   -1.6781 H   0  0  0  0  0  0  0  0  0  0  0  0
    0.3692   -3.0155   -0.2558 H   0  0  0  0  0  0  0  0  0  0  0  0
   -0.6860    0.3101   -1.7793 H   0  0  0  0  0  0  0  0  0  0  0  0
   -3.4618    1.8330    0.9763 H   0  0  0  0  0  0  0  0  0  0  0  0
   -5.2132    2.7514   -0.2351 H   0  0  0  0  0  0  0  0  0  0  0  0
   -4.7324    4.9588   -1.0037 H   0  0  0  0  0  0  0  0  0  0  0  0
   -3.1581    4.1622    1.3447 H   0  0  0  0  0  0  0  0  0  0  0  0
   -1.5299    3.7592    0.7790 H   0  0  0  0  0  0  0  0  0  0  0  0
   -3.9584    2.8141   -4.1314 H   0  0  0  0  0  0  0  0  0  0  0  0
   -2.5552    2.6298   -3.0717 H   0  0  0  0  0  0  0  0  0  0  0  0
   -4.0780    0.9935   -2.0899 H   0  0  0  0  0  0  0  0  0  0  0  0
   -5.4739    2.0033   -2.4366 H   0  0  0  0  0  0  0  0  0  0  0  0
   -0.7840   -3.1224    1.9170 H   0  0  0  0  0  0  0  0  0  0  0  0
   -2.8817   -3.1342    3.1491 H   0  0  0  0  0  0  0  0  0  0  0  0
   -4.7201   -2.1318    4.1547 H   0  0  0  0  0  0  0  0  0  0  0  0
   -6.3872   -2.5882    3.7594 H   0  0  0  0  0  0  0  0  0  0  0  0
   -5.0794   -3.7676    3.5587 H   0  0  0  0  0  0  0  0  0  0  0  0
   -2.7778   -1.5326   -1.5165 H   0  0  0  0  0  0  0  0  0  0  0  0
 11 10  1  0
 10  7  1  0
  7  8  2  0
  7  6  1  0
  8  9  1  0
 15 14  1  0
  6  5  2  0
 19 18  1  0
  9  4  2  0
 17 18  1  0
 17 12  1  0
 13 14  1  0
 13 12  1  0
 14 16  1  0
  5  4  1  0
 18 20  1  0
  4  2  1  0
  2 12  1  6
  2  3  2  0
  2  1  2  0
 20 21  1  0
 20 23  1  0
 21 22  1  0
 23 24  1  0
 22 41  1  0
 22 35  2  0
 24 26  1  0
 24 25  2  0
 41 40  2  0
 26 27  1  0
 35 36  1  0
 30 31  1  0
 30 29  1  0
 31 27  1  0
 27 28  1  0
 40 42  1  0
 40 37  1  0
 32 33  1  0
 32 29  1  0
 33 34  1  0
 29 28  1  0
 36 37  2  0
 34 28  1  0
 37 38  1  0
 38 39  1  0
  5 43  1  0
  6 44  1  0
  8 45  1  0
  9 46  1  0
 11 47  1  0
 11 48  1  0
 11 49  1  0
 13 50  1  0
 13 51  1  0
 14 52  1  1
 15 53  1  0
 15 54  1  0
 15 55  1  0
 16 56  1  0
 16 57  1  0
 16 58  1  0
 17 59  1  0
 17 60  1  0
 18 61  1  1
 19 62  1  0
 20 63  1  1
 21 64  1  0
 21 65  1  0
 23 66  1  0
 27 67  1  1
 28 68  1  1
 29 69  1  6
 31 70  1  0
 31 71  1  0
 33 72  1  0
 33 73  1  0
 34 74  1  0
 34 75  1  0
 35 76  1  0
 36 77  1  0
 39 78  1  0
 39 79  1  0
 39 80  1  0
 41 81  1  0
M  END
