
     RDKit          3D

 47 49  0  0  0  0  0  0  0  0999 V2000
   -1.7782    1.2354   -0.7580 C   0  0  0  0  0  0  0  0  0  0  0  0
   -2.9497    1.9718   -0.1387 C   0  0  0  0  0  0  0  0  0  0  0  0
   -4.1552    1.0814   -0.0118 C   0  0  0  0  0  0  0  0  0  0  0  0
   -5.4244    1.6407    0.1310 C   0  0  0  0  0  0  0  0  0  0  0  0
   -6.5347    0.8188    0.2260 C   0  0  0  0  0  0  0  0  0  0  0  0
   -6.3923   -0.5587    0.1725 C   0  0  0  0  0  0  0  0  0  0  0  0
   -5.1293   -1.1352    0.0206 C   0  0  0  0  0  0  0  0  0  0  0  0
   -5.0070   -2.5073   -0.1133 N   0  0  0  0  0  0  0  0  0  0  0  0
   -3.9972   -0.3011   -0.0559 C   0  0  0  0  0  0  0  0  0  0  0  0
   -2.6383   -0.9259   -0.2346 C   0  0  0  0  0  0  0  0  0  0  0  0
   -1.5492    0.0049   -0.0264 N   0  0  0  0  0  0  0  0  0  0  0  0
   -0.2710   -0.6113   -0.3359 C   0  0  0  0  0  0  0  0  0  0  0  0
    0.8955    0.0741    0.3637 C   0  0  0  0  0  0  0  0  0  0  0  0
    2.2218   -0.5060   -0.0865 C   0  0  0  0  0  0  0  0  0  0  0  0
    3.2644    0.1398    0.6071 O   0  0  0  0  0  0  0  0  0  0  0  0
    4.5571   -0.3257    0.2889 C   0  0  2  0  0  0  0  0  0  0  0  0
    5.5207    0.1841    1.3488 C   0  0  0  0  0  0  0  0  0  0  0  0
    6.9452   -0.2233    0.9998 C   0  0  0  0  0  0  0  0  0  0  0  0
    7.3296    0.2348   -0.2776 O   0  0  0  0  0  0  0  0  0  0  0  0
    6.4904   -0.2701   -1.2923 C   0  0  0  0  0  0  0  0  0  0  0  0
    5.0357    0.1302   -1.0870 C   0  0  0  0  0  0  0  0  0  0  0  0
   -1.9701    1.0434   -1.8281 H   0  0  0  0  0  0  0  0  0  0  0  0
   -0.8885    1.8634   -0.7078 H   0  0  0  0  0  0  0  0  0  0  0  0
   -2.6556    2.3428    0.8479 H   0  0  0  0  0  0  0  0  0  0  0  0
   -3.2014    2.8504   -0.7371 H   0  0  0  0  0  0  0  0  0  0  0  0
   -5.5352    2.7181    0.1577 H   0  0  0  0  0  0  0  0  0  0  0  0
   -7.5223    1.2483    0.3396 H   0  0  0  0  0  0  0  0  0  0  0  0
   -7.2641   -1.1991    0.2424 H   0  0  0  0  0  0  0  0  0  0  0  0
   -5.8066   -3.0325    0.2041 H   0  0  0  0  0  0  0  0  0  0  0  0
   -4.1542   -2.9193    0.2316 H   0  0  0  0  0  0  0  0  0  0  0  0
   -2.5079   -1.7457    0.4811 H   0  0  0  0  0  0  0  0  0  0  0  0
   -2.5954   -1.3920   -1.2374 H   0  0  0  0  0  0  0  0  0  0  0  0
   -0.3096   -1.6535   -0.0074 H   0  0  0  0  0  0  0  0  0  0  0  0
   -0.0958   -0.6433   -1.4251 H   0  0  0  0  0  0  0  0  0  0  0  0
    0.8943    1.1468    0.1529 H   0  0  0  0  0  0  0  0  0  0  0  0
    0.7833   -0.0405    1.4447 H   0  0  0  0  0  0  0  0  0  0  0  0
    2.2526   -1.5892    0.1028 H   0  0  0  0  0  0  0  0  0  0  0  0
    2.3237   -0.3760   -1.1720 H   0  0  0  0  0  0  0  0  0  0  0  0
    4.5687   -1.4285    0.3105 H   0  0  0  0  0  0  0  0  0  0  0  0
    5.4525    1.2746    1.4150 H   0  0  0  0  0  0  0  0  0  0  0  0
    5.2621   -0.2216    2.3300 H   0  0  0  0  0  0  0  0  0  0  0  0
    7.6504    0.1980    1.7177 H   0  0  0  0  0  0  0  0  0  0  0  0
    7.0362   -1.3186    1.0546 H   0  0  0  0  0  0  0  0  0  0  0  0
    6.8632    0.1204   -2.2402 H   0  0  0  0  0  0  0  0  0  0  0  0
    6.5662   -1.3670   -1.3388 H   0  0  0  0  0  0  0  0  0  0  0  0
    4.4398   -0.3133   -1.8885 H   0  0  0  0  0  0  0  0  0  0  0  0
    4.9328    1.2173   -1.1652 H   0  0  0  0  0  0  0  0  0  0  0  0
  6  5  2  0
  6  7  1  0
  5  4  1  0
  8  7  1  0
  7  9  2  0
  4  3  2  0
  9  3  1  0
  9 10  1  0
  3  2  1  0
 10 11  1  0
  2  1  1  0
  1 11  1  0
 11 12  1  0
 12 13  1  0
 13 14  1  0
 14 15  1  0
 15 16  1  0
 21 16  1  0
 21 20  1  0
 16 17  1  0
 20 19  1  0
 17 18  1  0
 19 18  1  0
  1 22  1  0
  1 23  1  0
  2 24  1  0
  2 25  1  0
  4 26  1  0
  5 27  1  0
  6 28  1  0
  8 29  1  0
  8 30  1  0
 10 31  1  0
 10 32  1  0
 12 33  1  0
 12 34  1  0
 13 35  1  0
 13 36  1  0
 14 37  1  0
 14 38  1  0
 16 39  1  6
 17 40  1  0
 17 41  1  0
 18 42  1  0
 18 43  1  0
 20 44  1  0
 20 45  1  0
 21 46  1  0
 21 47  1  0
M  END
