
     RDKit          3D

 54 56  0  0  0  0  0  0  0  0999 V2000
    1.1620    2.7427   -0.2043 C   0  0  0  0  0  0  0  0  0  0  0  0
   -0.0031    3.4543    0.0986 C   0  0  0  0  0  0  0  0  0  0  0  0
    0.0147    4.8329    0.1869 N   0  0  0  0  0  0  0  0  0  0  0  0
   -1.1742    2.7366    0.3634 C   0  0  0  0  0  0  0  0  0  0  0  0
   -1.1855    1.3479    0.3304 C   0  0  0  0  0  0  0  0  0  0  0  0
   -0.0119    0.6606    0.0309 C   0  0  0  0  0  0  0  0  0  0  0  0
    1.1650    1.3539   -0.2383 C   0  0  0  0  0  0  0  0  0  0  0  0
   -2.4691    0.6003    0.5624 C   0  0  0  0  0  0  0  0  0  0  0  0
    2.4429    0.6117   -0.5150 C   0  0  0  0  0  0  0  0  0  0  0  0
    3.2891    0.4434    0.7547 C   0  0  0  0  0  0  0  0  0  0  0  0
    5.4970   -2.3381   -0.0508 C   0  0  0  0  0  0  0  0  0  0  0  0
    4.4138   -1.6224    0.2289 N   0  0  0  0  0  0  0  0  0  0  0  0
    4.5544   -0.3192    0.4838 C   0  0  0  0  0  0  0  0  0  0  0  0
    5.7821    0.3174    0.4723 C   0  0  0  0  0  0  0  0  0  0  0  0
    6.9322   -0.4278    0.1862 C   0  0  0  0  0  0  0  0  0  0  0  0
    6.7846   -1.7729   -0.0800 C   0  0  0  0  0  0  0  0  0  0  0  0
    8.2807    0.2249    0.1810 C   0  0  0  0  0  0  0  0  0  0  0  0
   -3.3050    0.4945   -0.7211 C   0  0  0  0  0  0  0  0  0  0  0  0
   -4.5697   -0.2864   -0.5051 C   0  0  0  0  0  0  0  0  0  0  0  0
   -5.8020    0.3412   -0.4913 C   0  0  0  0  0  0  0  0  0  0  0  0
   -6.9515   -0.4223   -0.2555 C   0  0  0  0  0  0  0  0  0  0  0  0
   -6.7997   -1.7773   -0.0472 C   0  0  0  0  0  0  0  0  0  0  0  0
   -5.5081   -2.3331   -0.0792 C   0  0  0  0  0  0  0  0  0  0  0  0
   -4.4242   -1.5976   -0.3008 N   0  0  0  0  0  0  0  0  0  0  0  0
   -5.3260   -3.6772    0.0732 N   0  0  0  0  0  0  0  0  0  0  0  0
   -8.3048    0.2202   -0.2467 C   0  0  0  0  0  0  0  0  0  0  0  0
    2.0774    3.2860   -0.4173 H   0  0  0  0  0  0  0  0  0  0  0  0
    0.7582    5.2877   -0.3188 H   0  0  0  0  0  0  0  0  0  0  0  0
   -0.8697    5.2880    0.0260 H   0  0  0  0  0  0  0  0  0  0  0  0
   -2.0875    3.2745    0.5979 H   0  0  0  0  0  0  0  0  0  0  0  0
   -0.0153   -0.4238    0.0034 H   0  0  0  0  0  0  0  0  0  0  0  0
   -2.2554   -0.4058    0.9293 H   0  0  0  0  0  0  0  0  0  0  0  0
   -3.0616    1.1013    1.3325 H   0  0  0  0  0  0  0  0  0  0  0  0
    2.2214   -0.3756   -0.9257 H   0  0  0  0  0  0  0  0  0  0  0  0
    3.0317    1.1445   -1.2664 H   0  0  0  0  0  0  0  0  0  0  0  0
    3.5292    1.4263    1.1660 H   0  0  0  0  0  0  0  0  0  0  0  0
    2.6988   -0.0859    1.5075 H   0  0  0  0  0  0  0  0  0  0  0  0
    5.8493    1.3775    0.6832 H   0  0  0  0  0  0  0  0  0  0  0  0
    7.6452   -2.3915   -0.3060 H   0  0  0  0  0  0  0  0  0  0  0  0
    6.1025   -4.2695   -0.2571 H   0  0  0  0  0  0  0  0  0  0  0  0
    4.4408   -4.0622   -0.0503 H   0  0  0  0  0  0  0  0  0  0  0  0
    8.5349    0.5933    1.1761 H   0  0  0  0  0  0  0  0  0  0  0  0
    9.0627   -0.4652   -0.1315 H   0  0  0  0  0  0  0  0  0  0  0  0
    8.2962    1.0839   -0.4909 H   0  0  0  0  0  0  0  0  0  0  0  0
   -3.5454    1.4967   -1.0823 H   0  0  0  0  0  0  0  0  0  0  0  0
   -2.7061    0.0079   -1.4958 H   0  0  0  0  0  0  0  0  0  0  0  0
   -5.8724    1.4095   -0.6541 H   0  0  0  0  0  0  0  0  0  0  0  0
   -7.6599   -2.4095    0.1377 H   0  0  0  0  0  0  0  0  0  0  0  0
   -6.0565   -4.2018    0.5242 H   0  0  0  0  0  0  0  0  0  0  0  0
   -4.3947   -3.9774    0.3093 H   0  0  0  0  0  0  0  0  0  0  0  0
   -8.5881    0.5318   -1.2535 H   0  0  0  0  0  0  0  0  0  0  0  0
   -9.0724   -0.4593    0.1203 H   0  0  0  0  0  0  0  0  0  0  0  0
   -8.3110    1.1138    0.3782 H   0  0  0  0  0  0  0  0  0  0  0  0
    5.3107   -3.6567   -0.3553 N   0  0  0  0  0  0  0  0  0  0  0  0
  7  1  2  0
  1  2  1  0
  1 27  1  0
  2  4  2  0
  2  3  1  0
  3 28  1  0
  3 29  1  0
  5  4  1  0
  4 30  1  0
  6  5  2  0
  5  8  1  0
  7  6  1  0
  6 31  1  0
  9  7  1  0
 18  8  1  0
  8 32  1  0
  8 33  1  0
 10  9  1  0
  9 34  1  0
  9 35  1  0
 10 13  1  0
 10 36  1  0
 10 37  1  0
 12 11  2  0
 54 11  1  0
 11 16  1  0
 12 13  1  0
 13 14  2  0
 14 15  1  0
 14 38  1  0
 16 15  2  0
 15 17  1  0
 16 39  1  0
 54 40  1  0
 54 41  1  0
 17 42  1  0
 17 43  1  0
 17 44  1  0
 18 19  1  0
 18 45  1  0
 18 46  1  0
 24 19  1  0
 19 20  2  0
 20 21  1  0
 20 47  1  0
 22 21  2  0
 21 26  1  0
 23 22  1  0
 22 48  1  0
 24 23  2  0
 25 23  1  0
 25 49  1  0
 25 50  1  0
 26 51  1  0
 26 52  1  0
 26 53  1  0
M  END
