
     RDKit          3D

 34 33  0  0  0  0  0  0  0  0999 V2000
    0.9659    1.5269    1.1009 C   0  0  0  0  0  0  0  0  0  0  0  0
   -0.2550    2.1484    0.4746 C   0  0  0  0  0  0  0  0  0  0  0  0
   -2.2167    1.6763   -0.7013 C   0  0  0  0  0  0  0  0  0  0  0  0
    2.9411    0.3704    0.6123 C   0  0  0  0  0  0  0  0  0  0  0  0
    3.6731   -0.2841   -0.5425 C   0  0  0  0  0  0  0  0  0  0  0  0
    4.9898   -0.8767   -0.1303 C   0  0  0  0  0  0  0  0  0  0  0  0
    5.6140   -1.4490   -1.1536 O   0  0  0  0  0  0  0  0  0  0  0  0
   -3.0252    0.5673   -1.3237 C   0  0  0  0  0  0  0  0  0  0  0  0
   -4.4003   -1.2663   -0.8291 C   0  0  0  0  0  0  0  0  0  0  0  0
   -4.9912   -2.0473    0.3223 C   0  0  0  0  0  0  0  0  0  0  0  0
    5.4435   -0.8477    0.9868 O   0  0  0  0  0  0  0  0  0  0  0  0
    1.7450    0.9082    0.1081 O   0  0  0  0  0  0  0  0  0  0  0  0
   -1.0761    1.1487   -0.0734 O   0  0  0  0  0  0  0  0  0  0  0  0
   -3.5404   -0.2720   -0.3230 O   0  0  0  0  0  0  0  0  0  0  0  0
   -5.8263   -1.2019    1.1616 N   0  0  0  0  0  0  0  0  0  0  0  0
    1.5297    2.3232    1.6062 H   0  0  0  0  0  0  0  0  0  0  0  0
    0.6705    0.8052    1.8759 H   0  0  0  0  0  0  0  0  0  0  0  0
   -0.7857    2.7162    1.2518 H   0  0  0  0  0  0  0  0  0  0  0  0
    0.0476    2.8729   -0.2953 H   0  0  0  0  0  0  0  0  0  0  0  0
   -1.9380    2.3796   -1.4987 H   0  0  0  0  0  0  0  0  0  0  0  0
   -2.8383    2.2359    0.0129 H   0  0  0  0  0  0  0  0  0  0  0  0
    2.7375   -0.3672    1.3999 H   0  0  0  0  0  0  0  0  0  0  0  0
    3.5613    1.1570    1.0620 H   0  0  0  0  0  0  0  0  0  0  0  0
    3.0596   -1.0743   -0.9849 H   0  0  0  0  0  0  0  0  0  0  0  0
    3.8535    0.4434   -1.3394 H   0  0  0  0  0  0  0  0  0  0  0  0
    6.4601   -1.8187   -0.8601 H   0  0  0  0  0  0  0  0  0  0  0  0
   -3.8349    1.0281   -1.9069 H   0  0  0  0  0  0  0  0  0  0  0  0
   -2.4050    0.0018   -2.0344 H   0  0  0  0  0  0  0  0  0  0  0  0
   -3.8573   -1.9503   -1.4965 H   0  0  0  0  0  0  0  0  0  0  0  0
   -5.2088   -0.8115   -1.4194 H   0  0  0  0  0  0  0  0  0  0  0  0
   -5.6124   -2.8359   -0.1079 H   0  0  0  0  0  0  0  0  0  0  0  0
   -4.1802   -2.5534    0.8650 H   0  0  0  0  0  0  0  0  0  0  0  0
   -6.2615   -1.7675    1.8784 H   0  0  0  0  0  0  0  0  0  0  0  0
   -5.2427   -0.5382    1.6542 H   0  0  0  0  0  0  0  0  0  0  0  0
 11  6  2  0
  6  7  1  0
  6  5  1  0
  4 12  1  0
  4  5  1  0
 12  1  1  0
  1  2  1  0
  2 13  1  0
 13  3  1  0
 10 15  1  0
 10  9  1  0
  3  8  1  0
  8 14  1  0
  9 14  1  0
  1 16  1  0
  1 17  1  0
  2 18  1  0
  2 19  1  0
  3 20  1  0
  3 21  1  0
  4 22  1  0
  4 23  1  0
  5 24  1  0
  5 25  1  0
  7 26  1  0
  8 27  1  0
  8 28  1  0
  9 29  1  0
  9 30  1  0
 10 31  1  0
 10 32  1  0
 15 33  1  0
 15 34  1  0
M  END
