
     RDKit          3D

 41 43  0  0  0  0  0  0  0  0999 V2000
    4.0808   -0.8021   -0.2504 C   0  0  0  0  0  0  0  0  0  0  0  0
    5.3584   -0.9487   -0.7610 C   0  0  0  0  0  0  0  0  0  0  0  0
    5.6486   -2.1327   -1.9917 Cl  0  0  0  0  0  0  0  0  0  0  0  0
    6.4211   -0.1748   -0.3191 C   0  0  0  0  0  0  0  0  0  0  0  0
    6.1625    0.7645    0.6644 C   0  0  0  0  0  0  0  0  0  0  0  0
    7.4607    1.7579    1.2348 Cl  0  0  0  0  0  0  0  0  0  0  0  0
    4.8939    0.9372    1.1953 C   0  0  0  0  0  0  0  0  0  0  0  0
    3.8452    0.1468    0.7406 C   0  0  0  0  0  0  0  0  0  0  0  0
    2.4699    0.2974    1.3367 C   0  0  0  0  0  0  0  0  0  0  0  0
    1.4363    0.1764    0.3319 N   0  0  0  0  0  0  0  0  0  0  0  0
    0.0980    0.1913    0.8904 C   0  0  0  0  0  0  0  0  0  0  0  0
   -0.9414    0.0139   -0.2047 C   0  0  0  0  0  0  0  0  0  0  0  0
   -2.3541    0.0158    0.3538 C   0  0  0  0  0  0  0  0  0  0  0  0
   -3.3113   -0.2024   -0.7121 N   0  0  0  0  0  0  0  0  0  0  0  0
   -4.6443   -0.2075   -0.5005 C   0  0  0  0  0  0  0  0  0  0  0  0
   -5.2056    0.3280    0.6200 N   0  0  0  0  0  0  0  0  0  0  0  0
   -6.5706    0.1967    0.4910 C   0  0  0  0  0  0  0  0  0  0  0  0
   -7.6264    0.5608    1.3076 C   0  0  0  0  0  0  0  0  0  0  0  0
   -8.9062    0.2649    0.8503 C   0  0  0  0  0  0  0  0  0  0  0  0
   -9.1049   -0.3699   -0.3783 C   0  0  0  0  0  0  0  0  0  0  0  0
   -8.0366   -0.7303   -1.1901 C   0  0  0  0  0  0  0  0  0  0  0  0
   -6.7481   -0.4425   -0.7499 C   0  0  0  0  0  0  0  0  0  0  0  0
   -5.5318   -0.6833   -1.3431 N   0  0  0  0  0  0  0  0  0  0  0  0
    3.2667   -1.4120   -0.6171 H   0  0  0  0  0  0  0  0  0  0  0  0
    7.4131   -0.2978   -0.7304 H   0  0  0  0  0  0  0  0  0  0  0  0
    4.7208    1.6865    1.9569 H   0  0  0  0  0  0  0  0  0  0  0  0
    2.3215   -0.5010    2.0712 H   0  0  0  0  0  0  0  0  0  0  0  0
    2.4241    1.2396    1.9026 H   0  0  0  0  0  0  0  0  0  0  0  0
    1.5288    0.9397   -0.3287 H   0  0  0  0  0  0  0  0  0  0  0  0
    0.0171   -0.6340    1.6042 H   0  0  0  0  0  0  0  0  0  0  0  0
   -0.1145    1.1118    1.4565 H   0  0  0  0  0  0  0  0  0  0  0  0
   -0.8446    0.8146   -0.9434 H   0  0  0  0  0  0  0  0  0  0  0  0
   -0.7517   -0.9297   -0.7245 H   0  0  0  0  0  0  0  0  0  0  0  0
   -2.4455   -0.7466    1.1374 H   0  0  0  0  0  0  0  0  0  0  0  0
   -2.5514    0.9846    0.8212 H   0  0  0  0  0  0  0  0  0  0  0  0
   -3.0159   -0.8066   -1.4635 H   0  0  0  0  0  0  0  0  0  0  0  0
   -4.7221    0.7481    1.3971 H   0  0  0  0  0  0  0  0  0  0  0  0
   -7.4682    1.0552    2.2574 H   0  0  0  0  0  0  0  0  0  0  0  0
   -9.7616    0.5317    1.4573 H   0  0  0  0  0  0  0  0  0  0  0  0
  -10.1144   -0.5834   -0.7054 H   0  0  0  0  0  0  0  0  0  0  0  0
   -8.2010   -1.2226   -2.1404 H   0  0  0  0  0  0  0  0  0  0  0  0
  6  5  1  0
  5  4  2  0
  5  7  1  0
  4  2  1  0
  7  8  2  0
  2  3  1  0
  2  1  2  0
  8  1  1  0
  8  9  1  0
  9 10  1  0
 10 11  1  0
 11 12  1  0
 12 13  1  0
 13 14  1  0
 14 15  1  0
 15 16  1  0
 15 23  2  0
 16 17  1  0
 23 22  1  0
 17 22  2  0
 17 18  1  0
 22 21  1  0
 18 19  2  0
 21 20  2  0
 19 20  1  0
  1 24  1  0
  4 25  1  0
  7 26  1  0
  9 27  1  0
  9 28  1  0
 10 29  1  0
 11 30  1  0
 11 31  1  0
 12 32  1  0
 12 33  1  0
 13 34  1  0
 13 35  1  0
 14 36  1  0
 16 37  1  0
 18 38  1  0
 19 39  1  0
 20 40  1  0
 21 41  1  0
M  END
