
     RDKit          3D

 31 32  0  0  0  0  0  0  0  0999 V2000
    4.5028    1.7867    0.4735 C   0  0  0  0  0  0  0  0  0  0  0  0
    3.5507    0.6656    0.1733 C   0  0  0  0  0  0  0  0  0  0  0  0
    4.0230   -0.6041   -0.1543 C   0  0  0  0  0  0  0  0  0  0  0  0
    3.1266   -1.6163   -0.4596 C   0  0  0  0  0  0  0  0  0  0  0  0
    1.7555   -1.4001   -0.4458 C   0  0  0  0  0  0  0  0  0  0  0  0
    1.2690   -0.1378   -0.1046 C   0  0  0  0  0  0  0  0  0  0  0  0
   -0.0866    0.1963   -0.1006 N   0  0  0  0  0  0  0  0  0  0  0  0
   -1.1403   -0.6545    0.1470 C   0  0  0  0  0  0  0  0  0  0  0  0
   -0.9904   -1.8394    0.4216 O   0  0  0  0  0  0  0  0  0  0  0  0
   -2.3591   -0.0815    0.0657 N   0  0  0  0  0  0  0  0  0  0  0  0
   -3.5647   -0.8439    0.3664 C   0  0  0  0  0  0  0  0  0  0  0  0
   -4.6509    0.2247    0.3885 C   0  0  0  0  0  0  0  0  0  0  0  0
   -4.1545    1.2481   -0.6273 C   0  0  0  0  0  0  0  0  0  0  0  0
   -2.6486    1.2745   -0.3850 C   0  0  0  0  0  0  0  0  0  0  0  0
    2.1786    0.8784    0.2013 C   0  0  0  0  0  0  0  0  0  0  0  0
    4.8931    2.2225   -0.4484 H   0  0  0  0  0  0  0  0  0  0  0  0
    4.0197    2.5867    1.0329 H   0  0  0  0  0  0  0  0  0  0  0  0
    5.3593    1.4393    1.0516 H   0  0  0  0  0  0  0  0  0  0  0  0
    5.0888   -0.7971   -0.1741 H   0  0  0  0  0  0  0  0  0  0  0  0
    1.8013    1.8590    0.4733 H   0  0  0  0  0  0  0  0  0  0  0  0
    3.4970   -2.5990   -0.7228 H   0  0  0  0  0  0  0  0  0  0  0  0
    1.0849   -2.2046   -0.7026 H   0  0  0  0  0  0  0  0  0  0  0  0
   -0.2738    1.1869   -0.0913 H   0  0  0  0  0  0  0  0  0  0  0  0
   -3.7572   -1.5908   -0.4098 H   0  0  0  0  0  0  0  0  0  0  0  0
   -3.4762   -1.3700    1.3172 H   0  0  0  0  0  0  0  0  0  0  0  0
   -2.3896    2.0120    0.3829 H   0  0  0  0  0  0  0  0  0  0  0  0
   -2.0949    1.5244   -1.2925 H   0  0  0  0  0  0  0  0  0  0  0  0
   -5.6321   -0.1815    0.1462 H   0  0  0  0  0  0  0  0  0  0  0  0
   -4.7115    0.6775    1.3804 H   0  0  0  0  0  0  0  0  0  0  0  0
   -4.3625    0.9049   -1.6428 H   0  0  0  0  0  0  0  0  0  0  0  0
   -4.6048    2.2325   -0.5074 H   0  0  0  0  0  0  0  0  0  0  0  0
  1  2  1  0
  2  3  2  0
  2 15  1  0
  3  4  1  0
  4  5  2  0
  5  6  1  0
  6  7  1  0
  6 15  2  0
  7  8  1  0
  8  9  2  0
  8 10  1  0
 10 11  1  0
 10 14  1  0
 11 12  1  0
 12 13  1  0
 13 14  1  0
  1 16  1  0
  1 17  1  0
  1 18  1  0
  3 19  1  0
 15 20  1  0
  4 21  1  0
  5 22  1  0
  7 23  1  0
 11 24  1  0
 11 25  1  0
 14 26  1  0
 14 27  1  0
 12 28  1  0
 12 29  1  0
 13 30  1  0
 13 31  1  0
M  END
