
     RDKit          3D

 19 20  0  0  0  0  0  0  0  0999 V2000
    0.0136    0.4707   -0.0249 C   0  0  0  0  0  0  0  0  0  0  0  0
   -1.0035    1.4502   -0.0548 C   0  0  0  0  0  0  0  0  0  0  0  0
   -2.3148    1.0643   -0.0271 C   0  0  0  0  0  0  0  0  0  0  0  0
   -2.7125   -0.2257    0.0279 N   0  0  0  0  0  0  0  0  0  0  0  0
   -1.7872   -1.1454    0.0448 C   0  0  0  0  0  0  0  0  0  0  0  0
   -0.3956   -0.8839    0.0143 C   0  0  0  0  0  0  0  0  0  0  0  0
    0.5541   -1.9270    0.0141 C   0  0  0  0  0  0  0  0  0  0  0  0
    1.8842   -1.6067   -0.0228 C   0  0  0  0  0  0  0  0  0  0  0  0
    2.3100   -0.2679   -0.0445 C   0  0  0  0  0  0  0  0  0  0  0  0
    1.4098    0.7801   -0.0427 C   0  0  0  0  0  0  0  0  0  0  0  0
    1.8276    2.0885   -0.1179 N   0  0  0  0  0  0  0  0  0  0  0  0
   -0.7750    2.5061   -0.1095 H   0  0  0  0  0  0  0  0  0  0  0  0
   -3.1031    1.8068   -0.0522 H   0  0  0  0  0  0  0  0  0  0  0  0
   -2.1197   -2.1795    0.0843 H   0  0  0  0  0  0  0  0  0  0  0  0
    0.2243   -2.9577    0.0419 H   0  0  0  0  0  0  0  0  0  0  0  0
    2.6320   -2.3888   -0.0247 H   0  0  0  0  0  0  0  0  0  0  0  0
    3.3723   -0.0545   -0.0583 H   0  0  0  0  0  0  0  0  0  0  0  0
    2.8064    2.2345    0.0728 H   0  0  0  0  0  0  0  0  0  0  0  0
    1.2608    2.7731    0.3559 H   0  0  0  0  0  0  0  0  0  0  0  0
  1  2  2  0
  1  6  1  0
  1 10  1  0
  2  3  1  0
  2 12  1  0
  3  4  2  0
  3 13  1  0
  4  5  1  0
  5  6  2  0
  5 14  1  0
  6  7  1  0
  7  8  2  0
  7 15  1  0
  8  9  1  0
  8 16  1  0
  9 10  2  0
  9 17  1  0
 10 11  1  0
 11 18  1  0
 11 19  1  0
M  END
