
     RDKit          3D

 33 35  0  0  0  0  0  0  0  0999 V2000
    6.8936    0.5607   -0.1789 C   0  0  0  0  0  0  0  0  0  0  0  0
    5.4670    0.6288   -0.1723 O   0  0  0  0  0  0  0  0  0  0  0  0
    4.8012   -0.4766    0.1079 C   0  0  0  0  0  0  0  0  0  0  0  0
    5.3275   -1.5319    0.3651 O   0  0  0  0  0  0  0  0  0  0  0  0
    3.3273   -0.2800    0.0748 C   0  0  0  0  0  0  0  0  0  0  0  0
    2.5097   -1.3596    0.4039 C   0  0  0  0  0  0  0  0  0  0  0  0
    1.1348   -1.2269    0.3904 C   0  0  0  0  0  0  0  0  0  0  0  0
    2.7454    0.9351   -0.2747 C   0  0  0  0  0  0  0  0  0  0  0  0
    1.3670    1.0697   -0.2828 C   0  0  0  0  0  0  0  0  0  0  0  0
    0.5497   -0.0067    0.0544 C   0  0  0  0  0  0  0  0  0  0  0  0
   -0.9217    0.1043    0.0530 C   0  0  0  0  0  0  0  0  0  0  0  0
   -3.0014   -0.8067   -0.1558 C   0  0  0  0  0  0  0  0  0  0  0  0
   -3.7915   -1.9422   -0.3831 C   0  0  0  0  0  0  0  0  0  0  0  0
   -5.1652   -1.8381   -0.3892 C   0  0  0  0  0  0  0  0  0  0  0  0
   -5.7902   -0.6054   -0.1690 C   0  0  0  0  0  0  0  0  0  0  0  0
   -5.0281    0.5203    0.0555 C   0  0  0  0  0  0  0  0  0  0  0  0
   -3.6341    0.4279    0.0615 C   0  0  0  0  0  0  0  0  0  0  0  0
   -2.8111    1.6055    0.3050 C   0  0  0  0  0  0  0  0  0  0  0  0
   -1.4593    1.3364    0.2868 N   0  0  0  0  0  0  0  0  0  0  0  0
   -3.2261    2.7295    0.5186 O   0  0  0  0  0  0  0  0  0  0  0  0
   -1.6349   -0.9433   -0.1603 N   0  0  0  0  0  0  0  0  0  0  0  0
    7.2363    1.5598   -0.4295 H   0  0  0  0  0  0  0  0  0  0  0  0
    7.2821    0.2791    0.7994 H   0  0  0  0  0  0  0  0  0  0  0  0
    7.2529   -0.1447   -0.9273 H   0  0  0  0  0  0  0  0  0  0  0  0
    2.9488   -2.3080    0.6811 H   0  0  0  0  0  0  0  0  0  0  0  0
    3.3522    1.7861   -0.5491 H   0  0  0  0  0  0  0  0  0  0  0  0
    0.5092   -2.0690    0.6523 H   0  0  0  0  0  0  0  0  0  0  0  0
    0.9475    2.0202   -0.5862 H   0  0  0  0  0  0  0  0  0  0  0  0
   -0.8471    2.1134    0.5014 H   0  0  0  0  0  0  0  0  0  0  0  0
   -3.3037   -2.8929   -0.5546 H   0  0  0  0  0  0  0  0  0  0  0  0
   -5.7679   -2.7190   -0.5671 H   0  0  0  0  0  0  0  0  0  0  0  0
   -6.8695   -0.5379   -0.1755 H   0  0  0  0  0  0  0  0  0  0  0  0
   -5.5016    1.4775    0.2293 H   0  0  0  0  0  0  0  0  0  0  0  0
  1  2  1  0
  2  3  1  0
  3  4  2  0
  3  5  1  0
  5  6  2  0
  5  8  1  0
  6  7  1  0
  7 10  2  0
  8  9  2  0
  9 10  1  0
 10 11  1  0
 11 19  1  0
 11 21  2  0
 12 13  2  0
 12 17  1  0
 12 21  1  0
 13 14  1  0
 14 15  2  0
 15 16  1  0
 16 17  2  0
 17 18  1  0
 18 20  2  0
 18 19  1  0
  1 22  1  0
  1 23  1  0
  1 24  1  0
  6 25  1  0
  8 26  1  0
  7 27  1  0
  9 28  1  0
 19 29  1  0
 13 30  1  0
 14 31  1  0
 15 32  1  0
 16 33  1  0
M  END
