
     RDKit          3D

 29 29  0  0  0  0  0  0  0  0999 V2000
    0.4102   -0.0526    1.6326 N   0  0  0  0  0  0  0  0  0  0  0  0
    0.2139   -0.0414    0.2011 C   0  0  2  0  0  0  0  0  0  0  0  0
    1.4144    0.6530   -0.4368 C   0  0  2  0  0  0  0  0  0  0  0  0
    1.4621    0.5672   -1.8089 O   0  0  0  0  0  0  0  0  0  0  0  0
   -1.0804    0.6161   -0.2933 C   0  0  0  0  0  0  0  0  0  0  0  0
   -2.3178   -0.0265    0.3073 C   0  0  2  0  0  0  0  0  0  0  0  0
   -2.5659   -1.4833   -0.0848 C   0  0  0  0  0  0  0  0  0  0  0  0
   -4.0856   -1.6296    0.0078 C   0  0  0  0  0  0  0  0  0  0  0  0
   -4.5397   -0.2839   -0.2744 N   0  0  0  0  0  0  0  0  0  0  0  0
   -3.6085    0.6673   -0.1028 C   0  0  0  0  0  0  0  0  0  0  0  0
   -3.7716    1.8699   -0.2334 O   0  0  0  0  0  0  0  0  0  0  0  0
    0.1911    0.8468    2.0438 H   0  0  0  0  0  0  0  0  0  0  0  0
    0.2302   -1.0865   -0.1288 H   0  0  0  0  0  0  0  0  0  0  0  0
    1.4562    1.7092   -0.1551 H   0  0  0  0  0  0  0  0  0  0  0  0
    1.2232   -0.3239   -2.0920 H   0  0  0  0  0  0  0  0  0  0  0  0
   -1.0614    1.6809   -0.0421 H   0  0  0  0  0  0  0  0  0  0  0  0
   -1.1276    0.5461   -1.3864 H   0  0  0  0  0  0  0  0  0  0  0  0
   -2.2731    0.0566    1.4017 H   0  0  0  0  0  0  0  0  0  0  0  0
   -2.2407   -1.6474   -1.1154 H   0  0  0  0  0  0  0  0  0  0  0  0
   -2.0452   -2.2008    0.5473 H   0  0  0  0  0  0  0  0  0  0  0  0
   -4.4854   -2.3387   -0.7162 H   0  0  0  0  0  0  0  0  0  0  0  0
   -4.3998   -1.9520    1.0045 H   0  0  0  0  0  0  0  0  0  0  0  0
   -5.5093   -0.0597   -0.4361 H   0  0  0  0  0  0  0  0  0  0  0  0
    2.9617   -0.0618    0.2943 S   0  0  1  0  0  0  0  0  0  0  0  0
    3.3622    0.5667    1.5407 O   0  0  0  0  0  0  0  0  0  0  0  0
    2.8979   -1.5103    0.2075 O   0  0  0  0  0  0  0  0  0  0  0  0
    3.9885    0.4440   -0.8422 O   0  0  0  0  0  0  0  0  0  0  0  0
    4.8172    0.7514   -0.4406 H   0  0  0  0  0  0  0  0  0  0  0  0
   -0.1838   -0.7394    2.0757 H   0  0  0  0  0  0  0  0  0  0  0  0
  1  2  1  0
  4  3  1  0
  2  3  1  0
  2  5  1  0
  5  6  1  0
  6  7  1  0
  6 10  1  0
  7  8  1  0
 10 11  2  0
 10  9  1  0
  8  9  1  0
  1 12  1  0
  2 13  1  6
  3 14  1  6
  4 15  1  0
  5 16  1  0
  5 17  1  0
  6 18  1  1
  7 19  1  0
  7 20  1  0
  8 21  1  0
  8 22  1  0
  9 23  1  0
  3 24  1  0
 24 25  2  0
 24 26  2  0
 24 27  1  6
 27 28  1  0
  1 29  1  0
M  END
