
     RDKit          3D

 51 54  0  0  0  0  0  0  0  0999 V2000
    6.1415    1.5628   -1.2392 C   0  0  0  0  0  0  0  0  0  0  0  0
    4.8951    0.7502   -1.0526 C   0  0  0  0  0  0  0  0  0  0  0  0
    4.4064   -0.0183   -2.0753 C   0  0  0  0  0  0  0  0  0  0  0  0
    3.2441   -0.7979   -1.9204 C   0  0  0  0  0  0  0  0  0  0  0  0
    2.5497   -0.8179   -0.7423 C   0  0  0  0  0  0  0  0  0  0  0  0
    1.3199   -1.6728   -0.6166 C   0  0  0  0  0  0  0  0  0  0  0  0
    0.0115   -0.9118   -0.6043 C   0  0  0  0  0  0  0  0  0  0  0  0
   -0.0271    0.3644   -1.0736 C   0  0  0  0  0  0  0  0  0  0  0  0
   -1.2148    1.1689   -1.1072 C   0  0  0  0  0  0  0  0  0  0  0  0
   -1.2900    2.3233   -1.4952 O   0  0  0  0  0  0  0  0  0  0  0  0
   -2.3506    0.5190   -0.6355 N   0  0  0  0  0  0  0  0  0  0  0  0
   -2.3398   -0.7343   -0.1300 C   0  0  0  0  0  0  0  0  0  0  0  0
   -3.8987   -1.1931    0.5080 S   0  0  0  0  0  0  0  0  0  0  0  0
   -4.6814    0.1493   -0.4394 C   0  0  0  0  0  0  0  0  0  0  0  0
   -3.6077    1.2289   -0.5037 C   0  0  1  0  0  0  0  0  0  0  0  0
   -3.5612    2.0909    0.7536 C   0  0  0  0  0  0  0  0  0  0  0  0
   -4.6405    2.8430    0.8372 O   0  0  0  0  0  0  0  0  0  0  0  0
   -2.6633    2.0646    1.5489 O   0  0  0  0  0  0  0  0  0  0  0  0
   -1.2076   -1.4925   -0.1341 C   0  0  0  0  0  0  0  0  0  0  0  0
   -1.3324   -2.8596    0.3739 N   0  0  1  0  0  0  0  0  0  0  0  0
   -0.7806   -3.9369   -0.5083 C   0  0  0  0  0  0  0  0  0  0  0  0
   -0.8802   -3.0046    1.7906 C   0  0  0  0  0  0  0  0  0  0  0  0
    3.0203   -0.0325    0.3495 C   0  0  0  0  0  0  0  0  0  0  0  0
    2.3520   -0.0062    1.5962 C   0  0  0  0  0  0  0  0  0  0  0  0
    2.8173    0.7498    2.6380 C   0  0  0  0  0  0  0  0  0  0  0  0
    3.9793    1.5262    2.4818 C   0  0  0  0  0  0  0  0  0  0  0  0
    4.6498    1.5234    1.2884 C   0  0  0  0  0  0  0  0  0  0  0  0
    4.1969    0.7520    0.1917 C   0  0  0  0  0  0  0  0  0  0  0  0
    5.9702    2.6234   -1.0471 H   0  0  0  0  0  0  0  0  0  0  0  0
    6.9372    1.2397   -0.5649 H   0  0  0  0  0  0  0  0  0  0  0  0
    6.5133    1.4671   -2.2579 H   0  0  0  0  0  0  0  0  0  0  0  0
    4.9210   -0.0320   -3.0284 H   0  0  0  0  0  0  0  0  0  0  0  0
    2.8977   -1.3939   -2.7567 H   0  0  0  0  0  0  0  0  0  0  0  0
    1.2973   -2.3619   -1.4643 H   0  0  0  0  0  0  0  0  0  0  0  0
    1.4088   -2.2982    0.2743 H   0  0  0  0  0  0  0  0  0  0  0  0
    0.8746    0.8379   -1.4352 H   0  0  0  0  0  0  0  0  0  0  0  0
   -4.9326   -0.2112   -1.4345 H   0  0  0  0  0  0  0  0  0  0  0  0
   -5.5862    0.4659    0.0723 H   0  0  0  0  0  0  0  0  0  0  0  0
   -3.7720    1.8642   -1.3755 H   0  0  0  0  0  0  0  0  0  0  0  0
   -4.6293    3.3738    1.6489 H   0  0  0  0  0  0  0  0  0  0  0  0
    0.2897   -4.0256   -0.3737 H   0  0  0  0  0  0  0  0  0  0  0  0
   -1.2541   -4.8676   -0.2115 H   0  0  0  0  0  0  0  0  0  0  0  0
   -1.0258   -3.7063   -1.5395 H   0  0  0  0  0  0  0  0  0  0  0  0
   -1.4005   -2.2735    2.4016 H   0  0  0  0  0  0  0  0  0  0  0  0
   -1.1172   -4.0100    2.1263 H   0  0  0  0  0  0  0  0  0  0  0  0
    0.1908   -2.8424    1.8508 H   0  0  0  0  0  0  0  0  0  0  0  0
    1.4560   -0.5944    1.7428 H   0  0  0  0  0  0  0  0  0  0  0  0
    2.2903    0.7495    3.5831 H   0  0  0  0  0  0  0  0  0  0  0  0
    4.3425    2.1255    3.3063 H   0  0  0  0  0  0  0  0  0  0  0  0
    5.5422    2.1259    1.1847 H   0  0  0  0  0  0  0  0  0  0  0  0
   -2.3356   -3.0665    0.3845 H   0  0  0  0  0  0  0  0  0  0  0  0
 26 25  1  0
 26 27  2  0
 25 24  2  0
 27 28  1  0
 24 23  1  0
 28 23  1  0
 28  2  2  0
 23  5  2  0
  1  2  1  0
  2  3  1  0
  5  6  1  0
  5  4  1  0
  3  4  2  0
  6  7  1  0
 22 20  1  0
  7  8  2  0
  7 19  1  0
 18 16  2  0
 20 19  1  0
 20 21  1  0
  8  9  1  0
 19 12  2  0
  9 10  2  0
  9 11  1  0
 12 11  1  0
 12 13  1  0
 16 17  1  0
 16 15  1  0
 11 15  1  0
 13 14  1  0
 15 14  1  0
  1 29  1  0
  1 30  1  0
  1 31  1  0
  3 32  1  0
  4 33  1  0
  6 34  1  0
  6 35  1  0
  8 36  1  0
 14 37  1  0
 14 38  1  0
 15 39  1  6
 17 40  1  0
 21 41  1  0
 21 42  1  0
 21 43  1  0
 22 44  1  0
 22 45  1  0
 22 46  1  0
 24 47  1  0
 25 48  1  0
 26 49  1  0
 27 50  1  0
 20 51  1  1
M  CHG  1  20   1
M  END
