
     RDKit          3D

 58 60  0  0  0  0  0  0  0  0999 V2000
    5.6722   -1.1431    3.2834 C   0  0  0  0  0  0  0  0  0  0  0  0
    4.9544   -0.3965    2.3255 O   0  0  0  0  0  0  0  0  0  0  0  0
    4.6043   -1.0018    1.1662 C   0  0  0  0  0  0  0  0  0  0  0  0
    4.9400   -2.3061    0.8361 C   0  0  0  0  0  0  0  0  0  0  0  0
    4.5569   -2.8567   -0.3854 C   0  0  0  0  0  0  0  0  0  0  0  0
    3.8332   -2.0936   -1.2886 C   0  0  0  0  0  0  0  0  0  0  0  0
    3.4140   -2.5253   -2.5003 O   0  0  0  0  0  0  0  0  0  0  0  0
    3.7383   -3.8444   -2.8825 C   0  0  0  0  0  0  0  0  0  0  0  0
    3.4958   -0.7818   -0.9507 C   0  0  0  0  0  0  0  0  0  0  0  0
    3.8613   -0.2286    0.2610 C   0  0  0  0  0  0  0  0  0  0  0  0
    3.5399    1.2079    0.5943 C   0  0  1  0  0  0  0  0  0  0  0  0
    4.6554    2.1659    0.1442 C   0  0  0  0  0  0  0  0  0  0  0  0
    3.9197    3.4500   -0.2123 C   0  0  0  0  0  0  0  0  0  0  0  0
    2.6447    2.9344   -0.8641 C   0  0  0  0  0  0  0  0  0  0  0  0
    2.3601    1.7233   -0.0989 N   0  0  0  0  0  0  0  0  0  0  0  0
    1.1436    1.2201    0.1515 C   0  0  0  0  0  0  0  0  0  0  0  0
    0.9627    0.2897    0.9261 O   0  0  0  0  0  0  0  0  0  0  0  0
   -0.0123    1.8675   -0.5930 C   0  0  0  0  0  0  0  0  0  0  0  0
   -1.2021    1.0983   -0.3799 N   0  0  0  0  0  0  0  0  0  0  0  0
   -2.3873    1.4678   -0.9247 C   0  0  0  0  0  0  0  0  0  0  0  0
   -2.4865    2.4223   -1.6910 O   0  0  0  0  0  0  0  0  0  0  0  0
   -3.4536    0.7105   -0.5490 N   0  0  0  0  0  0  0  0  0  0  0  0
   -4.7389    0.8421   -1.2075 C   0  0  0  0  0  0  0  0  0  0  0  0
   -5.8113    0.1625   -0.4043 C   0  0  0  0  0  0  0  0  0  0  0  0
   -6.2870    0.7249    0.7792 C   0  0  0  0  0  0  0  0  0  0  0  0
   -7.2623    0.1011    1.5358 C   0  0  0  0  0  0  0  0  0  0  0  0
   -7.8024   -1.1283    1.1327 C   0  0  0  0  0  0  0  0  0  0  0  0
   -8.8154   -1.7265    1.8521 N   0  0  0  0  0  0  0  0  0  0  0  0
   -7.3229   -1.6987   -0.0507 C   0  0  0  0  0  0  0  0  0  0  0  0
   -6.3456   -1.0592   -0.7981 C   0  0  0  0  0  0  0  0  0  0  0  0
    5.8259   -0.4874    4.1371 H   0  0  0  0  0  0  0  0  0  0  0  0
    5.1179   -2.0255    3.6142 H   0  0  0  0  0  0  0  0  0  0  0  0
    6.6478   -1.4630    2.9071 H   0  0  0  0  0  0  0  0  0  0  0  0
    5.5092   -2.9259    1.5156 H   0  0  0  0  0  0  0  0  0  0  0  0
    4.8420   -3.8776   -0.5988 H   0  0  0  0  0  0  0  0  0  0  0  0
    3.3179   -3.9948   -3.8741 H   0  0  0  0  0  0  0  0  0  0  0  0
    4.8194   -4.0035   -2.9324 H   0  0  0  0  0  0  0  0  0  0  0  0
    3.3076   -4.5862   -2.2037 H   0  0  0  0  0  0  0  0  0  0  0  0
    2.9273   -0.1930   -1.6615 H   0  0  0  0  0  0  0  0  0  0  0  0
    3.3818    1.3060    1.6710 H   0  0  0  0  0  0  0  0  0  0  0  0
    5.4100    2.2920    0.9192 H   0  0  0  0  0  0  0  0  0  0  0  0
    5.1542    1.7649   -0.7410 H   0  0  0  0  0  0  0  0  0  0  0  0
    3.6734    4.0175    0.6871 H   0  0  0  0  0  0  0  0  0  0  0  0
    4.4897    4.0981   -0.8765 H   0  0  0  0  0  0  0  0  0  0  0  0
    1.8279    3.6514   -0.7984 H   0  0  0  0  0  0  0  0  0  0  0  0
    2.8050    2.7000   -1.9207 H   0  0  0  0  0  0  0  0  0  0  0  0
   -0.1247    2.8998   -0.2380 H   0  0  0  0  0  0  0  0  0  0  0  0
    0.2311    1.9338   -1.6577 H   0  0  0  0  0  0  0  0  0  0  0  0
   -1.1573    0.3853    0.3315 H   0  0  0  0  0  0  0  0  0  0  0  0
   -3.2770   -0.1696   -0.0902 H   0  0  0  0  0  0  0  0  0  0  0  0
   -4.9642    1.9036   -1.3141 H   0  0  0  0  0  0  0  0  0  0  0  0
   -4.7149    0.4215   -2.2189 H   0  0  0  0  0  0  0  0  0  0  0  0
   -5.8899    1.6761    1.1154 H   0  0  0  0  0  0  0  0  0  0  0  0
   -7.6161    0.5688    2.4476 H   0  0  0  0  0  0  0  0  0  0  0  0
   -8.8602   -1.4834    2.8286 H   0  0  0  0  0  0  0  0  0  0  0  0
   -8.9214   -2.7184    1.7121 H   0  0  0  0  0  0  0  0  0  0  0  0
   -7.7197   -2.6503   -0.3849 H   0  0  0  0  0  0  0  0  0  0  0  0
   -5.9944   -1.5288   -1.7103 H   0  0  0  0  0  0  0  0  0  0  0  0
  1  2  1  0
  2  3  1  0
  4  3  2  0
  4  5  1  0
  3 10  1  0
  5  6  2  0
 10 11  1  0
 10  9  2  0
 11 12  1  0
 11 15  1  0
  6  9  1  0
  6  7  1  0
 12 13  1  0
 21 20  2  0
  8  7  1  0
 18 19  1  0
 18 16  1  0
 20 19  1  0
 20 22  1  0
 15 16  1  0
 15 14  1  0
 23 22  1  0
 23 24  1  0
 13 14  1  0
 16 17  2  0
 24 25  2  0
 24 30  1  0
 25 26  1  0
 30 29  2  0
 26 27  2  0
 29 27  1  0
 27 28  1  0
  1 31  1  0
  1 32  1  0
  1 33  1  0
  4 34  1  0
  5 35  1  0
  8 36  1  0
  8 37  1  0
  8 38  1  0
  9 39  1  0
 11 40  1  1
 12 41  1  0
 12 42  1  0
 13 43  1  0
 13 44  1  0
 14 45  1  0
 14 46  1  0
 18 47  1  0
 18 48  1  0
 19 49  1  0
 22 50  1  0
 23 51  1  0
 23 52  1  0
 25 53  1  0
 26 54  1  0
 28 55  1  0
 28 56  1  0
 29 57  1  0
 30 58  1  0
M  END
