
     RDKit          3D

 69 73  0  0  0  0  0  0  0  0999 V2000
   -6.6158    2.1943   -0.4403 O   0  0  0  0  0  0  0  0  0  0  0  0
   -5.6789    1.4145   -0.4262 C   0  0  0  0  0  0  0  0  0  0  0  0
   -4.4703    1.7397    0.1162 N   0  0  0  0  0  0  0  0  0  0  0  0
   -4.1799    3.0902    0.6060 C   0  0  1  0  0  0  0  0  0  0  0  0
   -3.5079    3.0328    1.9699 C   0  0  0  0  0  0  0  0  0  0  0  0
   -3.3510    3.8650   -0.4089 C   0  0  0  0  0  0  0  0  0  0  0  0
   -5.7245    0.0384   -1.0529 C   0  0  2  0  0  0  0  0  0  0  0  0
   -7.1403   -0.4821   -1.2454 C   0  0  0  0  0  0  0  0  0  0  0  0
   -7.7159   -1.0439    0.0172 C   0  0  0  0  0  0  0  0  0  0  0  0
   -6.9885   -1.3474    1.0878 C   0  0  0  0  0  0  0  0  0  0  0  0
   -5.5026   -1.1760    1.1599 C   0  0  0  0  0  0  0  0  0  0  0  0
   -4.8809   -0.9242   -0.2230 C   0  0  2  0  0  0  0  0  0  0  0  0
   -3.5147   -0.3235   -0.0829 C   0  0  0  0  0  0  0  0  0  0  0  0
   -3.3718    0.9362    0.0669 N   0  0  0  0  0  0  0  0  0  0  0  0
   -2.3015   -1.1530   -0.0651 C   0  0  0  0  0  0  0  0  0  0  0  0
   -1.0323   -0.5636   -0.0697 C   0  0  0  0  0  0  0  0  0  0  0  0
    0.1297   -1.3103   -0.0060 C   0  0  0  0  0  0  0  0  0  0  0  0
    0.0354   -2.7139    0.0605 C   0  0  0  0  0  0  0  0  0  0  0  0
    1.1919   -3.3900    0.0967 O   0  0  0  0  0  0  0  0  0  0  0  0
    1.1554   -4.8029    0.1705 C   0  0  0  0  0  0  0  0  0  0  0  0
   -1.2182   -3.3153    0.0625 C   0  0  0  0  0  0  0  0  0  0  0  0
   -2.3677   -2.5404   -0.0019 C   0  0  0  0  0  0  0  0  0  0  0  0
    1.4426   -0.6285   -0.0314 C   0  0  0  0  0  0  0  0  0  0  0  0
    1.7507    0.2479   -1.0709 C   0  0  0  0  0  0  0  0  0  0  0  0
    2.9559    0.9308   -1.0915 C   0  0  0  0  0  0  0  0  0  0  0  0
    3.8946    0.7327   -0.0835 C   0  0  0  0  0  0  0  0  0  0  0  0
    3.5863   -0.1319    0.9638 C   0  0  0  0  0  0  0  0  0  0  0  0
    2.3750   -0.8027    0.9904 C   0  0  0  0  0  0  0  0  0  0  0  0
    5.1551    1.5340   -0.1176 C   0  0  0  0  0  0  0  0  0  0  0  0
    5.1161    2.7282   -0.3962 O   0  0  0  0  0  0  0  0  0  0  0  0
    6.3091    0.9095    0.1640 N   0  0  0  0  0  0  0  0  0  0  0  0
    7.5622    1.6506    0.1484 C   0  0  0  0  0  0  0  0  0  0  0  0
    8.6096    0.5881    0.4954 C   0  0  2  0  0  0  0  0  0  0  0  0
    9.8830    0.8505   -0.0285 O   0  0  0  0  0  0  0  0  0  0  0  0
    8.0116   -0.6735   -0.1061 C   0  0  0  0  0  0  0  0  0  0  0  0
    6.5370   -0.5365    0.2408 C   0  0  0  0  0  0  0  0  0  0  0  0
   -5.2499    0.1485   -2.0373 H   0  0  0  0  0  0  0  0  0  0  0  0
   -5.1456    3.5793    0.7189 H   0  0  0  0  0  0  0  0  0  0  0  0
   -2.5095    2.6007    1.9055 H   0  0  0  0  0  0  0  0  0  0  0  0
   -3.4117    4.0419    2.3715 H   0  0  0  0  0  0  0  0  0  0  0  0
   -4.0936    2.4445    2.6773 H   0  0  0  0  0  0  0  0  0  0  0  0
   -3.8760    3.9597   -1.3600 H   0  0  0  0  0  0  0  0  0  0  0  0
   -3.1473    4.8695   -0.0372 H   0  0  0  0  0  0  0  0  0  0  0  0
   -2.3948    3.3732   -0.5909 H   0  0  0  0  0  0  0  0  0  0  0  0
   -7.7835    0.3098   -1.6320 H   0  0  0  0  0  0  0  0  0  0  0  0
   -7.1317   -1.2561   -2.0193 H   0  0  0  0  0  0  0  0  0  0  0  0
   -4.8344   -1.8715   -0.7631 H   0  0  0  0  0  0  0  0  0  0  0  0
   -8.7871   -1.2121    0.0369 H   0  0  0  0  0  0  0  0  0  0  0  0
   -7.4759   -1.7407    1.9730 H   0  0  0  0  0  0  0  0  0  0  0  0
   -5.2651   -0.3608    1.8534 H   0  0  0  0  0  0  0  0  0  0  0  0
   -5.0497   -2.0673    1.6028 H   0  0  0  0  0  0  0  0  0  0  0  0
   -0.9555    0.5154   -0.1121 H   0  0  0  0  0  0  0  0  0  0  0  0
   -3.3200   -3.0538    0.0053 H   0  0  0  0  0  0  0  0  0  0  0  0
   -1.3222   -4.3904    0.1071 H   0  0  0  0  0  0  0  0  0  0  0  0
    2.1898   -5.1345    0.2019 H   0  0  0  0  0  0  0  0  0  0  0  0
    0.6448   -5.1494    1.0723 H   0  0  0  0  0  0  0  0  0  0  0  0
    0.6690   -5.2433   -0.7035 H   0  0  0  0  0  0  0  0  0  0  0  0
    1.0413    0.3930   -1.8760 H   0  0  0  0  0  0  0  0  0  0  0  0
    2.1488   -1.4505    1.8269 H   0  0  0  0  0  0  0  0  0  0  0  0
    3.1699    1.6114   -1.9053 H   0  0  0  0  0  0  0  0  0  0  0  0
    4.2795   -0.2695    1.7831 H   0  0  0  0  0  0  0  0  0  0  0  0
    7.7646    2.0595   -0.8469 H   0  0  0  0  0  0  0  0  0  0  0  0
    7.5432    2.4787    0.8586 H   0  0  0  0  0  0  0  0  0  0  0  0
    6.3467   -0.9107    1.2494 H   0  0  0  0  0  0  0  0  0  0  0  0
    5.8891   -1.0790   -0.4456 H   0  0  0  0  0  0  0  0  0  0  0  0
    8.6499    0.4732    1.5872 H   0  0  0  0  0  0  0  0  0  0  0  0
   10.2739    1.5764    0.4673 H   0  0  0  0  0  0  0  0  0  0  0  0
    8.1506   -0.6662   -1.1906 H   0  0  0  0  0  0  0  0  0  0  0  0
    8.4441   -1.5907    0.2922 H   0  0  0  0  0  0  0  0  0  0  0  0
  1  2  2  0
  2  3  1  0
  2  7  1  0
  3  4  1  0
  3 14  1  0
  4  5  1  0
  4  6  1  0
  7  8  1  0
  7 12  1  0
  8  9  1  0
  9 10  2  0
 10 11  1  0
 11 12  1  0
 12 13  1  0
 13 14  2  0
 13 15  1  0
 15 16  2  0
 15 22  1  0
 16 17  1  0
 17 18  2  0
 17 23  1  0
 18 19  1  0
 18 21  1  0
 19 20  1  0
 21 22  2  0
 23 24  2  0
 23 28  1  0
 24 25  1  0
 25 26  2  0
 26 27  1  0
 26 29  1  0
 27 28  2  0
 29 30  2  0
 29 31  1  0
 31 32  1  0
 31 36  1  0
 32 33  1  0
 33 34  1  0
 33 35  1  0
 35 36  1  0
  7 37  1  6
  4 38  1  1
  5 39  1  0
  5 40  1  0
  5 41  1  0
  6 42  1  0
  6 43  1  0
  6 44  1  0
  8 45  1  0
  8 46  1  0
 12 47  1  6
  9 48  1  0
 10 49  1  0
 11 50  1  0
 11 51  1  0
 16 52  1  0
 22 53  1  0
 21 54  1  0
 20 55  1  0
 20 56  1  0
 20 57  1  0
 24 58  1  0
 28 59  1  0
 25 60  1  0
 27 61  1  0
 32 62  1  0
 32 63  1  0
 36 64  1  0
 36 65  1  0
 33 66  1  1
 34 67  1  0
 35 68  1  0
 35 69  1  0
M  END
