
     RDKit          3D

 32 34  0  0  0  0  0  0  0  0999 V2000
   -2.9107   -2.2123   -0.8858 C   0  0  0  0  0  0  0  0  0  0  0  0
    3.9037   -2.2355    0.8723 C   0  0  0  0  0  0  0  0  0  0  0  0
   -1.9970   -1.1724   -0.9444 C   0  0  0  0  0  0  0  0  0  0  0  0
    2.5153   -1.9818    0.9521 C   0  0  0  0  0  0  0  0  0  0  0  0
   -3.8879   -2.1811    0.0974 C   0  0  0  0  0  0  0  0  0  0  0  0
   -3.1224   -0.2010    0.9132 C   0  0  0  0  0  0  0  0  0  0  0  0
    4.5785   -1.2343    0.2396 C   0  0  0  0  0  0  0  0  0  0  0  0
   -2.0959   -0.1334   -0.0250 C   0  0  0  0  0  0  0  0  0  0  0  0
    2.1414   -0.7802    0.3973 C   0  0  0  0  0  0  0  0  0  0  0  0
   -1.2051    1.0585   -0.0588 C   0  0  0  0  0  0  0  0  0  0  0  0
    0.2617    0.8781   -0.0119 C   0  0  0  0  0  0  0  0  0  0  0  0
    0.7733   -0.3222    0.3243 C   0  0  0  0  0  0  0  0  0  0  0  0
    1.0576    2.1123   -0.3168 C   0  0  0  0  0  0  0  0  0  0  0  0
    0.3712    3.3234    0.3036 C   0  0  0  0  0  0  0  0  0  0  0  0
   -1.0613    3.4161   -0.1836 C   0  0  0  0  0  0  0  0  0  0  0  0
   -3.9944   -1.1972    0.9837 N   0  0  0  0  0  0  0  0  0  0  0  0
   -1.8052    2.1783   -0.1520 N   0  0  0  0  0  0  0  0  0  0  0  0
    3.5315    0.0243   -0.2516 S   0  0  0  0  0  0  0  0  0  0  0  0
   -2.8700   -3.0311   -1.5904 H   0  0  0  0  0  0  0  0  0  0  0  0
   -1.2256   -1.1655   -1.7042 H   0  0  0  0  0  0  0  0  0  0  0  0
    1.8031   -2.6592    1.4032 H   0  0  0  0  0  0  0  0  0  0  0  0
   -4.6141   -2.9825    0.1720 H   0  0  0  0  0  0  0  0  0  0  0  0
   -3.2306    0.5920    1.6456 H   0  0  0  0  0  0  0  0  0  0  0  0
    5.6364   -1.1685    0.0368 H   0  0  0  0  0  0  0  0  0  0  0  0
    0.0768   -1.1070    0.5981 H   0  0  0  0  0  0  0  0  0  0  0  0
    2.0733    2.0397    0.0694 H   0  0  0  0  0  0  0  0  0  0  0  0
    1.1401    2.2460   -1.4010 H   0  0  0  0  0  0  0  0  0  0  0  0
    0.3909    3.2293    1.3927 H   0  0  0  0  0  0  0  0  0  0  0  0
    0.9105    4.2378    0.0516 H   0  0  0  0  0  0  0  0  0  0  0  0
   -1.6199    4.1530    0.3984 H   0  0  0  0  0  0  0  0  0  0  0  0
   -1.0860    3.7808   -1.2171 H   0  0  0  0  0  0  0  0  0  0  0  0
    4.3801   -3.1228    1.2625 H   0  0  0  0  0  0  0  0  0  0  0  0
  1  5  2  0
  1  3  1  0
  5 16  1  0
  3  8  2  0
 16  6  2  0
  8  6  1  0
  8 10  1  0
 17 10  2  0
 17 15  1  0
 10 11  1  0
 15 14  1  0
 14 13  1  0
 11 13  1  0
 11 12  2  0
 12  9  1  0
  9 18  1  0
  9  4  2  0
 18  7  1  0
  4  2  1  0
  7  2  2  0
  1 19  1  0
  2 32  1  0
  3 20  1  0
  4 21  1  0
  5 22  1  0
  6 23  1  0
  7 24  1  0
 12 25  1  0
 13 26  1  0
 13 27  1  0
 14 28  1  0
 14 29  1  0
 15 30  1  0
 15 31  1  0
M  END
