
     RDKit          3D

 37 39  0  0  0  0  0  0  0  0999 V2000
   -3.8041   -2.9271    0.3080 O   0  0  0  0  0  0  0  0  0  0  0  0
   -2.7476   -2.1956    0.0047 C   0  0  0  0  0  0  0  0  0  0  0  0
   -1.6752   -2.6372   -0.3060 O   0  0  0  0  0  0  0  0  0  0  0  0
   -3.0622   -0.7316    0.0791 C   0  0  0  0  0  0  0  0  0  0  0  0
   -4.3844   -0.4127   -0.1037 N   0  0  0  0  0  0  0  0  0  0  0  0
   -4.8727    0.8609   -0.1079 C   0  0  0  0  0  0  0  0  0  0  0  0
   -6.0428    1.1251   -0.2863 O   0  0  0  0  0  0  0  0  0  0  0  0
   -3.9129    1.8152    0.1064 N   0  0  0  0  0  0  0  0  0  0  0  0
   -2.5658    1.6113    0.3149 C   0  0  0  0  0  0  0  0  0  0  0  0
   -1.8221    2.5565    0.4901 O   0  0  0  0  0  0  0  0  0  0  0  0
   -2.1232    0.2135    0.3036 C   0  0  0  0  0  0  0  0  0  0  0  0
   -0.6616   -0.0183    0.5313 C   0  0  0  0  0  0  0  0  0  0  0  0
    0.1563    0.1289   -0.7617 C   0  0  0  0  0  0  0  0  0  0  0  0
    1.6182   -0.1038   -0.5144 C   0  0  0  0  0  0  0  0  0  0  0  0
    2.5141    0.9325   -0.4799 C   0  0  0  0  0  0  0  0  0  0  0  0
    3.8869    0.7162   -0.2125 C   0  0  0  0  0  0  0  0  0  0  0  0
    4.8196    1.7799   -0.1788 C   0  0  0  0  0  0  0  0  0  0  0  0
    6.1417    1.5410    0.0826 C   0  0  0  0  0  0  0  0  0  0  0  0
    6.5951    0.2266    0.3227 C   0  0  0  0  0  0  0  0  0  0  0  0
    5.7152   -0.8217    0.2966 C   0  0  0  0  0  0  0  0  0  0  0  0
    4.3436   -0.6049    0.0292 C   0  0  0  0  0  0  0  0  0  0  0  0
    3.4050   -1.6641   -0.0100 C   0  0  0  0  0  0  0  0  0  0  0  0
    2.0870   -1.4197   -0.2734 C   0  0  0  0  0  0  0  0  0  0  0  0
   -3.6049   -3.8726    0.2210 H   0  0  0  0  0  0  0  0  0  0  0  0
   -4.2335    2.7763    0.1053 H   0  0  0  0  0  0  0  0  0  0  0  0
   -0.3056    0.7145    1.2573 H   0  0  0  0  0  0  0  0  0  0  0  0
   -0.4851   -0.9971    0.9703 H   0  0  0  0  0  0  0  0  0  0  0  0
   -0.2162   -0.5831   -1.5012 H   0  0  0  0  0  0  0  0  0  0  0  0
    0.0055    1.1274   -1.1748 H   0  0  0  0  0  0  0  0  0  0  0  0
    2.1746    1.9462   -0.6643 H   0  0  0  0  0  0  0  0  0  0  0  0
    4.4722    2.7892   -0.3645 H   0  0  0  0  0  0  0  0  0  0  0  0
    6.8468    2.3615    0.1065 H   0  0  0  0  0  0  0  0  0  0  0  0
    7.6433    0.0509    0.5264 H   0  0  0  0  0  0  0  0  0  0  0  0
    6.0609   -1.8317    0.4817 H   0  0  0  0  0  0  0  0  0  0  0  0
    3.7465   -2.6764    0.1703 H   0  0  0  0  0  0  0  0  0  0  0  0
    1.3819   -2.2422   -0.3040 H   0  0  0  0  0  0  0  0  0  0  0  0
   -5.0588   -1.1470   -0.2677 H   0  0  0  0  0  0  0  0  0  0  0  0
 17 18  2  0
 17 16  1  0
 18 19  1  0
 19 20  2  0
 16 15  2  0
 16 21  1  0
 15 14  1  0
 20 21  1  0
 21 22  2  0
 14 13  1  0
 14 23  2  0
 13 12  1  0
 22 23  1  0
 12 11  1  0
 10  9  2  0
 11  9  1  0
 11  4  2  0
  9  8  1  0
  3  2  2  0
  4  2  1  0
  4  5  1  0
  2  1  1  0
  8  6  1  0
  5  6  1  0
  6  7  2  0
  1 24  1  0
  8 25  1  0
 12 26  1  0
 12 27  1  0
 13 28  1  0
 13 29  1  0
 15 30  1  0
 17 31  1  0
 18 32  1  0
 19 33  1  0
 20 34  1  0
 22 35  1  0
 23 36  1  0
  5 37  1  0
M  END
