
     RDKit          3D

 61 65  0  0  0  0  0  0  0  0999 V2000
    6.4293    3.0540    1.0931 N   0  0  0  0  0  0  0  0  0  0  0  0
    5.5334    4.0461    0.5270 C   0  0  0  0  0  0  0  0  0  0  0  0
    4.1354    3.5149    0.3342 C   0  0  0  0  0  0  0  0  0  0  0  0
    3.6149    2.5105    1.1464 C   0  0  0  0  0  0  0  0  0  0  0  0
    2.3221    2.0465    0.9631 C   0  0  0  0  0  0  0  0  0  0  0  0
    1.5082    2.5758   -0.0366 C   0  0  0  0  0  0  0  0  0  0  0  0
    2.0192    3.5961   -0.8362 C   0  0  0  0  0  0  0  0  0  0  0  0
    3.3173    4.0477   -0.6592 C   0  0  0  0  0  0  0  0  0  0  0  0
    0.1206    2.1086   -0.2292 C   0  0  0  0  0  0  0  0  0  0  0  0
   -0.2606    0.7639   -0.2470 C   0  0  0  0  0  0  0  0  0  0  0  0
    0.6908   -0.3642   -0.2530 C   0  0  0  0  0  0  0  0  0  0  0  0
    0.4341   -1.4963    0.5196 C   0  0  0  0  0  0  0  0  0  0  0  0
    1.3026   -2.5722    0.5106 C   0  0  0  0  0  0  0  0  0  0  0  0
    2.4456   -2.5677   -0.2933 C   0  0  0  0  0  0  0  0  0  0  0  0
    3.3656   -3.7034   -0.3141 C   0  0  0  0  0  0  0  0  0  0  0  0
    3.2014   -4.9140    0.2865 C   0  0  0  0  0  0  0  0  0  0  0  0
    4.2576   -5.7102    0.0473 O   0  0  0  0  0  0  0  0  0  0  0  0
    5.1244   -5.0159   -0.7187 C   0  0  0  0  0  0  0  0  0  0  0  0
    4.6380   -3.7833   -0.9757 C   0  0  0  0  0  0  0  0  0  0  0  0
    2.6830   -1.4423   -1.0845 C   0  0  0  0  0  0  0  0  0  0  0  0
    1.8249   -0.3569   -1.0609 C   0  0  0  0  0  0  0  0  0  0  0  0
   -1.5526    0.4257   -0.2899 N   0  0  0  0  0  0  0  0  0  0  0  0
   -2.4511    1.3739   -0.3757 C   0  0  0  0  0  0  0  0  0  0  0  0
   -2.0716    2.7232   -0.4655 C   0  0  0  0  0  0  0  0  0  0  0  0
   -0.8093    3.0601   -0.3760 N   0  0  0  0  0  0  0  0  0  0  0  0
   -3.7462    1.0889   -0.4007 O   0  0  0  0  0  0  0  0  0  0  0  0
   -4.1434   -0.2811   -0.3225 C   0  0  0  0  0  0  0  0  0  0  0  0
   -5.6566   -0.3486   -0.3677 C   0  0  1  0  0  0  0  0  0  0  0  0
   -6.0938   -1.8141   -0.3868 C   0  0  0  0  0  0  0  0  0  0  0  0
   -7.6163   -1.9319   -0.3627 C   0  0  0  0  0  0  0  0  0  0  0  0
   -8.2465   -1.2251    0.7400 N   0  0  0  0  0  0  0  0  0  0  0  0
   -7.8345    0.1686    0.7839 C   0  0  0  0  0  0  0  0  0  0  0  0
   -6.3203    0.3732    0.8044 C   0  0  0  0  0  0  0  0  0  0  0  0
    6.5973    2.3224    0.4138 H   0  0  0  0  0  0  0  0  0  0  0  0
    7.3282    3.4825    1.2710 H   0  0  0  0  0  0  0  0  0  0  0  0
    5.4898    4.8908    1.2217 H   0  0  0  0  0  0  0  0  0  0  0  0
    5.8786    4.4649   -0.4281 H   0  0  0  0  0  0  0  0  0  0  0  0
    4.2304    2.0855    1.9282 H   0  0  0  0  0  0  0  0  0  0  0  0
    1.9424    1.2673    1.6119 H   0  0  0  0  0  0  0  0  0  0  0  0
    1.4037    4.0255   -1.6166 H   0  0  0  0  0  0  0  0  0  0  0  0
    3.7025    4.8250   -1.3093 H   0  0  0  0  0  0  0  0  0  0  0  0
   -0.4476   -1.5271    1.1468 H   0  0  0  0  0  0  0  0  0  0  0  0
    1.0838   -3.4225    1.1443 H   0  0  0  0  0  0  0  0  0  0  0  0
    2.4096   -5.3338    0.8867 H   0  0  0  0  0  0  0  0  0  0  0  0
    6.0351   -5.5187   -1.0012 H   0  0  0  0  0  0  0  0  0  0  0  0
    5.1269   -3.0201   -1.5590 H   0  0  0  0  0  0  0  0  0  0  0  0
    3.5454   -1.4091   -1.7373 H   0  0  0  0  0  0  0  0  0  0  0  0
    2.0388    0.4956   -1.6922 H   0  0  0  0  0  0  0  0  0  0  0  0
   -2.8091    3.5065   -0.5982 H   0  0  0  0  0  0  0  0  0  0  0  0
   -3.7074   -0.8409   -1.1556 H   0  0  0  0  0  0  0  0  0  0  0  0
   -3.7684   -0.7257    0.6055 H   0  0  0  0  0  0  0  0  0  0  0  0
   -5.9966    0.1157   -1.3031 H   0  0  0  0  0  0  0  0  0  0  0  0
   -5.6986   -2.3188   -1.2734 H   0  0  0  0  0  0  0  0  0  0  0  0
   -5.6789   -2.3324    0.4862 H   0  0  0  0  0  0  0  0  0  0  0  0
   -8.0217   -1.5295   -1.2980 H   0  0  0  0  0  0  0  0  0  0  0  0
   -7.9109   -2.9825   -0.3216 H   0  0  0  0  0  0  0  0  0  0  0  0
   -7.9803   -1.6725    1.6103 H   0  0  0  0  0  0  0  0  0  0  0  0
   -8.2517    0.6710   -0.0964 H   0  0  0  0  0  0  0  0  0  0  0  0
   -8.2892    0.6416    1.6568 H   0  0  0  0  0  0  0  0  0  0  0  0
   -5.9131   -0.0174    1.7452 H   0  0  0  0  0  0  0  0  0  0  0  0
   -6.0973    1.4425    0.7824 H   0  0  0  0  0  0  0  0  0  0  0  0
 31 32  1  0
 31 30  1  0
 32 33  1  0
 30 29  1  0
 33 28  1  0
 29 28  1  0
 28 27  1  0
 27 26  1  0
 26 23  1  0
 23 22  2  0
 23 24  1  0
 22 10  1  0
 24 25  2  0
 21 20  2  0
 21 11  1  0
 20 14  1  0
 10 11  1  0
 10  9  2  0
 16 17  1  0
 16 15  2  0
 11 12  2  0
 25  9  1  0
  9  6  1  0
 14 15  1  0
 14 13  2  0
 17 18  1  0
 15 19  1  0
 12 13  1  0
  6  5  2  0
  6  7  1  0
 18 19  2  0
  5  4  1  0
  7  8  2  0
  4  3  2  0
  8  3  1  0
  3  2  1  0
  2  1  1  0
  1 34  1  0
  1 35  1  0
  2 36  1  0
  2 37  1  0
  4 38  1  0
  5 39  1  0
  7 40  1  0
  8 41  1  0
 12 42  1  0
 13 43  1  0
 16 44  1  0
 18 45  1  0
 19 46  1  0
 20 47  1  0
 21 48  1  0
 24 49  1  0
 27 50  1  0
 27 51  1  0
 28 52  1  6
 29 53  1  0
 29 54  1  0
 30 55  1  0
 30 56  1  0
 31 57  1  0
 32 58  1  0
 32 59  1  0
 33 60  1  0
 33 61  1  0
M  END
