
     RDKit          3D

 25 25  0  0  0  0  0  0  0  0999 V2000
   -0.4745   -0.0139    3.2507 N   0  0  0  0  0  0  0  0  0  0  0  0
    0.5132   -0.4047    2.2543 C   0  0  0  0  0  0  0  0  0  0  0  0
    0.2691    0.2743    0.9123 C   0  0  1  0  0  0  0  0  0  0  0  0
    1.3742   -0.0758   -0.0825 C   0  0  0  0  0  0  0  0  0  0  0  0
    1.1556    0.6023   -1.4303 C   0  0  0  0  0  0  0  0  0  0  0  0
   -0.2107    0.2832   -2.0346 C   0  0  2  0  0  0  0  0  0  0  0  0
   -1.3146    0.6039   -1.0280 C   0  0  0  0  0  0  0  0  0  0  0  0
   -1.0964   -0.0701    0.3223 C   0  0  0  0  0  0  0  0  0  0  0  0
   -0.2693   -1.1288   -2.3977 N   0  0  0  0  0  0  0  0  0  0  0  0
   -0.3748    0.9755    3.4443 H   0  0  0  0  0  0  0  0  0  0  0  0
   -0.2706   -0.4814    4.1251 H   0  0  0  0  0  0  0  0  0  0  0  0
    1.5476   -0.1950    2.5675 H   0  0  0  0  0  0  0  0  0  0  0  0
    0.4489   -1.4891    2.1160 H   0  0  0  0  0  0  0  0  0  0  0  0
    0.3048    1.3622    1.0756 H   0  0  0  0  0  0  0  0  0  0  0  0
    2.3475    0.2186    0.3216 H   0  0  0  0  0  0  0  0  0  0  0  0
    1.4082   -1.1612   -0.2176 H   0  0  0  0  0  0  0  0  0  0  0  0
    1.2354    1.6874   -1.3079 H   0  0  0  0  0  0  0  0  0  0  0  0
    1.9459    0.3174   -2.1327 H   0  0  0  0  0  0  0  0  0  0  0  0
   -0.3506    0.9379   -2.9087 H   0  0  0  0  0  0  0  0  0  0  0  0
   -1.3538    1.6895   -0.8916 H   0  0  0  0  0  0  0  0  0  0  0  0
   -2.2860    0.3159   -1.4430 H   0  0  0  0  0  0  0  0  0  0  0  0
   -1.1707   -1.1564    0.2081 H   0  0  0  0  0  0  0  0  0  0  0  0
   -1.8857    0.2235    1.0170 H   0  0  0  0  0  0  0  0  0  0  0  0
   -1.1489   -1.3196   -2.8626 H   0  0  0  0  0  0  0  0  0  0  0  0
    0.4504   -1.3297   -3.0817 H   0  0  0  0  0  0  0  0  0  0  0  0
  1  2  1  0
  1 10  1  0
  1 11  1  0
  2  3  1  0
  2 12  1  0
  2 13  1  0
  3  4  1  0
  3  8  1  0
  3 14  1  1
  4  5  1  0
  4 15  1  0
  4 16  1  0
  5  6  1  0
  5 17  1  0
  5 18  1  0
  6  7  1  0
  6  9  1  0
  6 19  1  6
  7  8  1  0
  7 20  1  0
  7 21  1  0
  8 22  1  0
  8 23  1  0
  9 24  1  0
  9 25  1  0
M  END
