
     RDKit          3D

 17 16  0  0  0  0  0  0  0  0999 V2000
   -2.7645    0.0865   -0.0047 Cl  0  0  0  0  0  0  0  0  0  0  0  0
   -1.1510   -0.7244    0.0251 C   0  0  0  0  0  0  0  0  0  0  0  0
   -0.0276    0.2877    0.0037 C   0  0  0  0  0  0  0  0  0  0  0  0
    1.3313   -0.4056    0.0273 C   0  0  0  0  0  0  0  0  0  0  0  0
    2.4945    0.5792    0.0083 C   0  0  0  0  0  0  0  0  0  0  0  0
    3.8481   -0.1165    0.0366 C   0  0  0  0  0  0  0  0  0  0  0  0
   -1.1261   -1.3338    0.9264 H   0  0  0  0  0  0  0  0  0  0  0  0
   -1.1167   -1.3815   -0.8416 H   0  0  0  0  0  0  0  0  0  0  0  0
   -0.1116    0.9088   -0.8919 H   0  0  0  0  0  0  0  0  0  0  0  0
   -0.1195    0.9543    0.8652 H   0  0  0  0  0  0  0  0  0  0  0  0
    1.4060   -1.0372    0.9191 H   0  0  0  0  0  0  0  0  0  0  0  0
    1.4146   -1.0799   -0.8317 H   0  0  0  0  0  0  0  0  0  0  0  0
    2.4212    1.2079   -0.8841 H   0  0  0  0  0  0  0  0  0  0  0  0
    2.4093    1.2549    0.8644 H   0  0  0  0  0  0  0  0  0  0  0  0
    4.6688    0.6011    0.0168 H   0  0  0  0  0  0  0  0  0  0  0  0
    3.9600   -0.7227    0.9378 H   0  0  0  0  0  0  0  0  0  0  0  0
    3.9681   -0.7801   -0.8221 H   0  0  0  0  0  0  0  0  0  0  0  0
  2  1  1  0
  3  2  1  0
  2  7  1  0
  2  8  1  0
  4  3  1  0
  3  9  1  0
  3 10  1  0
  5  4  1  0
  4 11  1  0
  4 12  1  0
  5  6  1  0
  5 13  1  0
  5 14  1  0
  6 15  1  0
  6 16  1  0
  6 17  1  0
M  END
