
     RDKit          3D

 44 45  0  0  0  0  0  0  0  0999 V2000
    0.0835    0.7800   -0.5663 N   0  0  0  0  0  0  0  0  0  0  0  0
   -0.4024   -2.0391    0.1105 C   0  0  0  0  0  0  0  0  0  0  0  0
   -0.1774   -2.6673   -1.0344 O   0  0  0  0  0  0  0  0  0  0  0  0
   -1.4894   -0.9815    0.0487 C   0  0  2  0  0  0  0  0  0  0  0  0
    4.0242   -1.0228    1.2844 C   0  0  0  0  0  0  0  0  0  0  0  0
    3.5934   -1.7016   -0.0131 C   0  0  0  0  0  0  0  0  0  0  0  0
    2.9872   -0.5677   -0.8391 C   0  0  0  0  0  0  0  0  0  0  0  0
   -2.2641   -0.9746   -1.2672 C   0  0  0  0  0  0  0  0  0  0  0  0
   -3.5100   -0.0878   -1.3201 C   0  0  0  0  0  0  0  0  0  0  0  0
   -4.4575   -0.2137   -0.1187 C   0  0  0  0  0  0  0  0  0  0  0  0
   -4.3573    0.8958    0.9277 C   0  0  0  0  0  0  0  0  0  0  0  0
   -3.0432    1.0548    1.6917 C   0  0  0  0  0  0  0  0  0  0  0  0
   -1.8386    1.4722    0.8391 C   0  0  0  0  0  0  0  0  0  0  0  0
   -0.8540    0.3545    0.4739 C   0  0  2  0  0  0  0  0  0  0  0  0
    2.9132   -0.0141    1.5458 C   0  0  0  0  0  0  0  0  0  0  0  0
    2.5593    0.3916    0.1826 N   0  0  0  0  0  0  0  0  0  0  0  0
    0.2113   -2.2948    1.1195 O   0  0  0  0  0  0  0  0  0  0  0  0
    1.8983    2.1966   -1.4101 O   0  0  0  0  0  0  0  0  0  0  0  0
    1.3408    2.3471    1.0380 O   0  0  0  0  0  0  0  0  0  0  0  0
    1.4928    1.5524   -0.1717 S   0  0  1  0  0  0  0  0  0  0  0  0
   -0.3579    1.2243   -1.3638 H   0  0  0  0  0  0  0  0  0  0  0  0
    0.5052   -3.3437   -0.9072 H   0  0  0  0  0  0  0  0  0  0  0  0
   -2.1784   -1.2617    0.8523 H   0  0  0  0  0  0  0  0  0  0  0  0
    4.9749   -0.5034    1.1475 H   0  0  0  0  0  0  0  0  0  0  0  0
    4.4155   -2.1879   -0.5358 H   0  0  0  0  0  0  0  0  0  0  0  0
    2.8370   -2.4586    0.1977 H   0  0  0  0  0  0  0  0  0  0  0  0
    3.7243   -0.1101   -1.5016 H   0  0  0  0  0  0  0  0  0  0  0  0
    2.1467   -0.9057   -1.4480 H   0  0  0  0  0  0  0  0  0  0  0  0
   -1.6048   -0.7150   -2.0993 H   0  0  0  0  0  0  0  0  0  0  0  0
   -2.5928   -1.9989   -1.4589 H   0  0  0  0  0  0  0  0  0  0  0  0
   -3.2416    0.9588   -1.4779 H   0  0  0  0  0  0  0  0  0  0  0  0
   -4.0461   -0.3770   -2.2268 H   0  0  0  0  0  0  0  0  0  0  0  0
   -5.4862   -0.2070   -0.4871 H   0  0  0  0  0  0  0  0  0  0  0  0
   -4.3338   -1.1931    0.3570 H   0  0  0  0  0  0  0  0  0  0  0  0
   -4.5827    1.8504    0.4393 H   0  0  0  0  0  0  0  0  0  0  0  0
   -5.1555    0.7430    1.6596 H   0  0  0  0  0  0  0  0  0  0  0  0
   -3.2060    1.8233    2.4504 H   0  0  0  0  0  0  0  0  0  0  0  0
   -2.8219    0.1434    2.2565 H   0  0  0  0  0  0  0  0  0  0  0  0
   -2.1838    1.9767   -0.0658 H   0  0  0  0  0  0  0  0  0  0  0  0
   -1.2545    2.2192    1.3775 H   0  0  0  0  0  0  0  0  0  0  0  0
   -0.2737    0.1399    1.3743 H   0  0  0  0  0  0  0  0  0  0  0  0
    2.0718   -0.4841    2.0607 H   0  0  0  0  0  0  0  0  0  0  0  0
    3.2512    0.8367    2.1340 H   0  0  0  0  0  0  0  0  0  0  0  0
    4.1391   -1.7213    2.1123 H   0  0  0  0  0  0  0  0  0  0  0  0
  5  6  1  0
  5 15  1  0
  6  7  1  0
 15 16  1  0
  7 16  1  0
 12 13  1  0
 12 11  1  0
 16 20  1  0
 13 14  1  0
 11 10  1  0
  1 14  1  0
 20  1  1  6
 14  4  1  0
 20 19  2  0
 20 18  2  0
 10  9  1  0
  9  8  1  0
  4  8  1  0
  4  2  1  0
 17  2  2  0
  2  3  1  0
  1 21  1  0
  3 22  1  0
  4 23  1  1
  5 44  1  0
  5 24  1  0
  6 25  1  0
  6 26  1  0
  7 27  1  0
  7 28  1  0
  8 29  1  0
  8 30  1  0
  9 31  1  0
  9 32  1  0
 10 33  1  0
 10 34  1  0
 11 35  1  0
 11 36  1  0
 12 37  1  0
 12 38  1  0
 13 39  1  0
 13 40  1  0
 14 41  1  1
 15 42  1  0
 15 43  1  0
M  END
