
     RDKit          3D

 36 37  0  0  0  0  0  0  0  0999 V2000
   -6.2141   -0.2621   -0.8935 N   0  0  0  0  0  0  0  0  0  0  0  0
   -5.1252   -0.8851   -0.1712 C   0  0  1  0  0  0  0  0  0  0  0  0
   -3.8932    0.0032   -0.2768 C   0  0  0  0  0  0  0  0  0  0  0  0
   -3.9487    1.2006   -0.4171 O   0  0  0  0  0  0  0  0  0  0  0  0
   -5.4093   -1.1555    1.3125 C   0  0  0  0  0  0  0  0  0  0  0  0
    5.0584   -0.5497    0.5917 C   0  0  0  0  0  0  0  0  0  0  0  0
    3.1234    0.4795    1.2333 C   0  0  0  0  0  0  0  0  0  0  0  0
    3.0799   -0.9797   -0.6613 C   0  0  0  0  0  0  0  0  0  0  0  0
    0.7729    2.6223   -0.2525 C   0  0  0  0  0  0  0  0  0  0  0  0
    4.4446   -1.2133   -0.4783 C   0  0  0  0  0  0  0  0  0  0  0  0
    2.4104   -0.1172    0.1949 C   0  0  0  0  0  0  0  0  0  0  0  0
   -1.4466   -0.1649   -0.0942 C   0  0  0  0  0  0  0  0  0  0  0  0
    0.2296    1.2502   -0.0992 C   0  0  0  0  0  0  0  0  0  0  0  0
    0.9709    0.1096    0.0485 C   0  0  0  0  0  0  0  0  0  0  0  0
    4.4152    0.2630    1.4150 N   0  0  0  0  0  0  0  0  0  0  0  0
   -1.1265    1.0772   -0.1711 N   0  0  0  0  0  0  0  0  0  0  0  0
   -2.7123   -0.6934   -0.1415 N   0  0  0  0  0  0  0  0  0  0  0  0
    1.9662    2.8199   -0.3305 O   0  0  0  0  0  0  0  0  0  0  0  0
   -0.0953   -1.2467    0.0913 S   0  0  0  0  0  0  0  0  0  0  0  0
   -7.0072   -0.8910   -0.8940 H   0  0  0  0  0  0  0  0  0  0  0  0
   -6.5179    0.5708   -0.4034 H   0  0  0  0  0  0  0  0  0  0  0  0
   -4.9083   -1.8404   -0.6594 H   0  0  0  0  0  0  0  0  0  0  0  0
   -6.2718   -1.8155    1.4047 H   0  0  0  0  0  0  0  0  0  0  0  0
   -4.5706   -1.6339    1.8198 H   0  0  0  0  0  0  0  0  0  0  0  0
   -5.6365   -0.2250    1.8357 H   0  0  0  0  0  0  0  0  0  0  0  0
    0.2655    4.6925   -0.4283 H   0  0  0  0  0  0  0  0  0  0  0  0
   -0.9220    3.5827   -1.1514 H   0  0  0  0  0  0  0  0  0  0  0  0
   -0.8459    3.7451    0.5857 H   0  0  0  0  0  0  0  0  0  0  0  0
    6.1177   -0.6994    0.7789 H   0  0  0  0  0  0  0  0  0  0  0  0
    2.6246    1.1352    1.9371 H   0  0  0  0  0  0  0  0  0  0  0  0
    2.5526   -1.4584   -1.4787 H   0  0  0  0  0  0  0  0  0  0  0  0
    6.0379   -2.3624   -0.9814 H   0  0  0  0  0  0  0  0  0  0  0  0
    4.6408   -2.7150   -1.8286 H   0  0  0  0  0  0  0  0  0  0  0  0
   -2.7840   -1.6983   -0.0797 H   0  0  0  0  0  0  0  0  0  0  0  0
    5.1625   -2.0096   -1.3336 N   0  0  0  0  0  0  0  0  0  0  0  0
   -0.2352    3.7333   -0.3183 C   0  0  0  0  0  0  0  0  0  0  0  0
 35 10  1  0
 10  6  2  0
 10  8  1  0
  6 15  1  0
  8 11  2  0
  4  3  2  0
 15  7  2  0
 19 14  1  0
 19 12  1  0
 11  7  1  0
 11 14  1  0
  5  2  1  0
  3  2  1  0
  3 17  1  0
 14 13  2  0
  2  1  1  0
 12 17  1  0
 12 16  2  0
 13 16  1  0
 13  9  1  0
 36  9  1  0
  9 18  2  0
  1 20  1  0
  1 21  1  0
  2 22  1  6
  5 23  1  0
  5 24  1  0
  5 25  1  0
 36 26  1  0
 36 27  1  0
 36 28  1  0
  6 29  1  0
  7 30  1  0
  8 31  1  0
 35 32  1  0
 35 33  1  0
 17 34  1  0
M  END
