
     RDKit          3D

 39 40  0  0  0  0  0  0  0  0999 V2000
   -4.1017   -0.7020    0.9982 C   0  0  0  0  0  0  0  0  0  0  0  0
   -6.3498   -0.3552    0.2638 C   0  0  0  0  0  0  0  0  0  0  0  0
   -4.7121    1.2797   -0.2198 C   0  0  0  0  0  0  0  0  0  0  0  0
   -6.0369    0.8696   -0.3061 C   0  0  0  0  0  0  0  0  0  0  0  0
    3.8642    0.0213   -0.1955 C   0  0  0  0  0  0  0  0  0  0  0  0
    3.4556    1.3475   -0.0595 C   0  0  0  0  0  0  0  0  0  0  0  0
    2.1118    1.6897    0.1324 C   0  0  0  0  0  0  0  0  0  0  0  0
    1.1418    0.6530    0.1934 C   0  0  0  0  0  0  0  0  0  0  0  0
    1.5535   -0.6582    0.0742 C   0  0  0  0  0  0  0  0  0  0  0  0
    2.9057   -0.9521   -0.1202 C   0  0  0  0  0  0  0  0  0  0  0  0
   -0.1658    1.0723    0.3743 N   0  0  0  0  0  0  0  0  0  0  0  0
   -1.2992    0.2960    0.3320 C   0  0  0  0  0  0  0  0  0  0  0  0
   -1.2871   -0.9104    0.1739 O   0  0  0  0  0  0  0  0  0  0  0  0
   -3.7413    0.5117    0.4208 C   0  0  0  0  0  0  0  0  0  0  0  0
   -5.4154   -1.1383    0.9078 C   0  0  0  0  0  0  0  0  0  0  0  0
   -7.0758    1.6932   -1.0051 C   0  0  0  0  0  0  0  0  0  0  0  0
   -7.6209   -0.7922    0.1884 F   0  0  0  0  0  0  0  0  0  0  0  0
    3.3740   -2.6505   -0.2885 S   0  0  1  0  0  0  0  0  0  0  0  0
    2.3487   -3.3568   -1.0405 O   0  0  0  0  0  0  0  0  0  0  0  0
    4.7447   -2.6805   -0.7786 O   0  0  0  0  0  0  0  0  0  0  0  0
    3.2314   -3.1694    1.2694 N   0  0  0  0  0  0  0  0  0  0  0  0
    4.4640    2.3730   -0.1287 N   0  0  0  0  0  0  0  0  0  0  0  0
    5.6080    2.0524   -0.3104 O   0  0  0  0  0  0  0  0  0  0  0  0
    4.1144    3.5373    0.0023 O   0  0  0  0  0  0  0  0  0  0  0  0
   -3.3819   -1.3059    1.5290 H   0  0  0  0  0  0  0  0  0  0  0  0
   -4.4300    2.2260   -0.6674 H   0  0  0  0  0  0  0  0  0  0  0  0
    4.9053   -0.2187   -0.3532 H   0  0  0  0  0  0  0  0  0  0  0  0
    0.8294   -1.4542    0.1272 H   0  0  0  0  0  0  0  0  0  0  0  0
    2.3919    3.5529    0.2175 H   0  0  0  0  0  0  0  0  0  0  0  0
   -0.2851    2.0660    0.5060 H   0  0  0  0  0  0  0  0  0  0  0  0
   -2.3677    2.0328    0.4530 H   0  0  0  0  0  0  0  0  0  0  0  0
   -5.7093   -2.0813    1.3502 H   0  0  0  0  0  0  0  0  0  0  0  0
   -7.9440    1.8741   -0.3711 H   0  0  0  0  0  0  0  0  0  0  0  0
   -6.6693    2.6594   -1.2971 H   0  0  0  0  0  0  0  0  0  0  0  0
   -7.4323    1.1961   -1.9084 H   0  0  0  0  0  0  0  0  0  0  0  0
    3.1293   -4.1787    1.3218 H   0  0  0  0  0  0  0  0  0  0  0  0
    3.9926   -2.8575    1.8638 H   0  0  0  0  0  0  0  0  0  0  0  0
   -2.4384    1.0280    0.4973 N   0  0  0  0  0  0  0  0  0  0  0  0
    1.6489    2.9181    0.2651 O   0  0  0  0  0  0  0  0  0  0  0  0
 24 22  2  0
 39  7  1  0
 22 23  1  0
 22  6  1  0
  7  6  1  0
  7  8  2  0
  6  5  2  0
  8 11  1  0
  8  9  1  0
  1 15  2  0
  1 14  1  0
  5 10  1  0
 38 14  1  0
 38 12  1  0
 11 12  1  0
 15  2  1  0
 14  3  2  0
 12 13  2  0
  2 17  1  0
  2  4  2  0
  3  4  1  0
  4 16  1  0
  9 10  2  0
 10 18  1  0
 18 21  1  1
 18 20  2  0
 18 19  2  0
  1 25  1  0
  3 26  1  0
  5 27  1  0
  9 28  1  0
 39 29  1  0
 11 30  1  0
 38 31  1  0
 15 32  1  0
 16 33  1  0
 16 34  1  0
 16 35  1  0
 21 36  1  0
 21 37  1  0
M  CHG  2  22   1  23  -1
M  END
