
     RDKit          3D

 45 48  0  0  0  0  0  0  0  0999 V2000
    0.3196   -3.6598   -0.3613 O   0  0  0  0  0  0  0  0  0  0  0  0
    0.0997   -2.4715   -0.1843 C   0  0  0  0  0  0  0  0  0  0  0  0
   -1.1632   -2.0510    0.0805 N   0  0  0  0  0  0  0  0  0  0  0  0
   -1.6978   -0.7554    0.0582 C   0  0  0  0  0  0  0  0  0  0  0  0
   -1.0472    0.3115    0.6709 C   0  0  0  0  0  0  0  0  0  0  0  0
   -1.6675    1.5564    0.6925 C   0  0  0  0  0  0  0  0  0  0  0  0
   -2.9259    1.7339    0.1424 C   0  0  0  0  0  0  0  0  0  0  0  0
   -2.9498   -0.5606   -0.5148 C   0  0  0  0  0  0  0  0  0  0  0  0
   -3.5819    0.6738   -0.4720 C   0  0  0  0  0  0  0  0  0  0  0  0
   -4.9457    0.8474   -1.0679 C   0  0  0  0  0  0  0  0  0  0  0  0
   -6.0488    0.6112   -0.0620 C   0  0  0  0  0  0  0  0  0  0  0  0
   -7.2408    0.7478   -0.6253 O   0  0  0  0  0  0  0  0  0  0  0  0
   -8.3895    0.5480    0.1995 C   0  0  0  0  0  0  0  0  0  0  0  0
   -5.8831    0.3354    1.0979 O   0  0  0  0  0  0  0  0  0  0  0  0
    1.2135   -1.4890   -0.2476 C   0  0  0  0  0  0  0  0  0  0  0  0
    1.2783   -0.3140    0.5113 C   0  0  0  0  0  0  0  0  0  0  0  0
    0.2014    0.1211    1.2826 N   0  0  0  0  0  0  0  0  0  0  0  0
    2.3290   -1.8575   -1.0012 C   0  0  0  0  0  0  0  0  0  0  0  0
    3.4856   -1.1072   -1.0072 C   0  0  0  0  0  0  0  0  0  0  0  0
    3.5768    0.0352   -0.2052 C   0  0  0  0  0  0  0  0  0  0  0  0
    2.4653    0.4156    0.5396 C   0  0  0  0  0  0  0  0  0  0  0  0
    4.7674    0.8759   -0.1641 C   0  0  0  0  0  0  0  0  0  0  0  0
    6.0675    0.4299   -0.1962 N   0  0  0  0  0  0  0  0  0  0  0  0
    6.5482   -0.9353   -0.2113 C   0  0  0  0  0  0  0  0  0  0  0  0
    6.8566    1.5213   -0.1426 C   0  0  0  0  0  0  0  0  0  0  0  0
    6.1673    2.6336   -0.0872 N   0  0  0  0  0  0  0  0  0  0  0  0
    4.8659    2.2448   -0.0957 C   0  0  0  0  0  0  0  0  0  0  0  0
   -1.8454   -2.7971    0.0633 H   0  0  0  0  0  0  0  0  0  0  0  0
   -1.1596    2.3906    1.1614 H   0  0  0  0  0  0  0  0  0  0  0  0
   -3.3902    2.7116    0.1818 H   0  0  0  0  0  0  0  0  0  0  0  0
   -3.4433   -1.4004   -0.9913 H   0  0  0  0  0  0  0  0  0  0  0  0
   -5.0672    1.8541   -1.4775 H   0  0  0  0  0  0  0  0  0  0  0  0
   -5.0945    0.1621   -1.9065 H   0  0  0  0  0  0  0  0  0  0  0  0
   -9.2497    0.6695   -0.4520 H   0  0  0  0  0  0  0  0  0  0  0  0
   -8.4015   -0.4524    0.6310 H   0  0  0  0  0  0  0  0  0  0  0  0
   -8.4369    1.2850    1.0008 H   0  0  0  0  0  0  0  0  0  0  0  0
    0.4499    0.8943    1.8833 H   0  0  0  0  0  0  0  0  0  0  0  0
    2.2835   -2.7566   -1.6005 H   0  0  0  0  0  0  0  0  0  0  0  0
    4.3050   -1.4088   -1.6443 H   0  0  0  0  0  0  0  0  0  0  0  0
    2.5214    1.2964    1.1680 H   0  0  0  0  0  0  0  0  0  0  0  0
    6.5157   -1.3582   -1.2134 H   0  0  0  0  0  0  0  0  0  0  0  0
    7.5785   -0.9460    0.1338 H   0  0  0  0  0  0  0  0  0  0  0  0
    5.9536   -1.5533    0.4569 H   0  0  0  0  0  0  0  0  0  0  0  0
    7.9337    1.4423   -0.1372 H   0  0  0  0  0  0  0  0  0  0  0  0
    4.0536    2.9559   -0.0757 H   0  0  0  0  0  0  0  0  0  0  0  0
 10 11  1  0
 10  9  1  0
 14 11  2  0
 11 12  1  0
  8  9  1  0
  8  4  2  0
  9  7  2  0
  1  2  2  0
  3  4  1  0
  3  2  1  0
 12 13  1  0
  4  5  1  0
  2 15  1  0
  7  6  1  0
 18 15  1  0
 18 19  2  0
 15 16  2  0
  5  6  2  0
  5 17  1  0
 19 20  1  0
 16 17  1  0
 16 21  1  0
 20 21  2  0
 20 22  1  0
 22 23  1  0
 22 27  2  0
 24 23  1  0
 23 25  1  0
 27 26  1  0
 25 26  2  0
  3 28  1  0
  6 29  1  0
  7 30  1  0
  8 31  1  0
 10 32  1  0
 10 33  1  0
 13 34  1  0
 13 35  1  0
 13 36  1  0
 17 37  1  0
 18 38  1  0
 19 39  1  0
 21 40  1  0
 24 41  1  0
 24 42  1  0
 24 43  1  0
 25 44  1  0
 27 45  1  0
M  END
