
     RDKit          3D

 44 46  0  0  0  0  0  0  0  0999 V2000
    7.9518    0.8969    1.0266 N   0  0  0  0  0  0  0  0  0  0  0  0
    7.4820   -0.3592    0.4732 C   0  0  0  0  0  0  0  0  0  0  0  0
    6.0176   -0.3202    0.1166 C   0  0  0  0  0  0  0  0  0  0  0  0
    5.5265   -1.1341   -0.9022 C   0  0  0  0  0  0  0  0  0  0  0  0
    4.1816   -1.1351   -1.2311 C   0  0  0  0  0  0  0  0  0  0  0  0
    3.2815   -0.3278   -0.5392 C   0  0  0  0  0  0  0  0  0  0  0  0
    3.7714    0.4965    0.4716 C   0  0  0  0  0  0  0  0  0  0  0  0
    5.1208    0.5011    0.7930 C   0  0  0  0  0  0  0  0  0  0  0  0
    1.8397   -0.3647   -0.9451 C   0  0  0  0  0  0  0  0  0  0  0  0
    1.5235   -0.7131   -2.0803 O   0  0  0  0  0  0  0  0  0  0  0  0
    0.9529   -0.0021   -0.0132 N   0  0  0  0  0  0  0  0  0  0  0  0
   -0.4839    0.0230   -0.2137 C   0  0  1  0  0  0  0  0  0  0  0  0
   -1.0845   -1.3770   -0.0820 C   0  0  0  0  0  0  0  0  0  0  0  0
   -2.5785   -1.3410   -0.2324 C   0  0  0  0  0  0  0  0  0  0  0  0
   -3.3058   -0.2227    0.2446 C   0  0  0  0  0  0  0  0  0  0  0  0
   -2.7078    0.8121    0.7717 O   0  0  0  0  0  0  0  0  0  0  0  0
   -1.1915    1.0073    0.8700 B   0  0  2  0  0  0  0  0  0  0  0  0
   -0.9321    2.3961    0.5404 O   0  0  0  0  0  0  0  0  0  0  0  0
   -0.7532    0.6051    2.2004 O   0  0  0  0  0  0  0  0  0  0  0  0
   -4.7173   -0.2281    0.1100 C   0  0  0  0  0  0  0  0  0  0  0  0
   -5.3571   -1.3136   -0.5029 C   0  0  0  0  0  0  0  0  0  0  0  0
   -4.6397   -2.3932   -0.9688 C   0  0  0  0  0  0  0  0  0  0  0  0
   -3.2538   -2.3890   -0.8285 C   0  0  0  0  0  0  0  0  0  0  0  0
   -5.5303    0.8859    0.6363 C   0  0  0  0  0  0  0  0  0  0  0  0
   -5.1947    1.6826    1.4813 O   0  0  0  0  0  0  0  0  0  0  0  0
   -6.7469    0.9327    0.0813 O   0  0  0  0  0  0  0  0  0  0  0  0
    8.8990    0.7805    1.3617 H   0  0  0  0  0  0  0  0  0  0  0  0
    7.9960    1.5957    0.2958 H   0  0  0  0  0  0  0  0  0  0  0  0
    8.0437   -0.6976   -0.4080 H   0  0  0  0  0  0  0  0  0  0  0  0
    7.6285   -1.1345    1.2317 H   0  0  0  0  0  0  0  0  0  0  0  0
    6.2077   -1.7738   -1.4515 H   0  0  0  0  0  0  0  0  0  0  0  0
    5.4847    1.1584    1.5714 H   0  0  0  0  0  0  0  0  0  0  0  0
    3.8276   -1.7680   -2.0340 H   0  0  0  0  0  0  0  0  0  0  0  0
    3.1118    1.1695    1.0061 H   0  0  0  0  0  0  0  0  0  0  0  0
    1.2762    0.1747    0.9246 H   0  0  0  0  0  0  0  0  0  0  0  0
   -0.6724    0.3784   -1.2329 H   0  0  0  0  0  0  0  0  0  0  0  0
   -0.6625   -2.0676   -0.8174 H   0  0  0  0  0  0  0  0  0  0  0  0
   -0.8253   -1.7837    0.9023 H   0  0  0  0  0  0  0  0  0  0  0  0
   -2.6789   -3.2307   -1.1981 H   0  0  0  0  0  0  0  0  0  0  0  0
   -1.3646    2.9938    1.1570 H   0  0  0  0  0  0  0  0  0  0  0  0
   -1.0130    1.2399    2.8734 H   0  0  0  0  0  0  0  0  0  0  0  0
   -6.4335   -1.3152   -0.6041 H   0  0  0  0  0  0  0  0  0  0  0  0
   -5.1428   -3.2290   -1.4354 H   0  0  0  0  0  0  0  0  0  0  0  0
   -7.2558    1.6408    0.5011 H   0  0  0  0  0  0  0  0  0  0  0  0
  1  2  1  0
  2  3  1  0
  3  4  2  0
  3  8  1  0
  4  5  1  0
  5  6  2  0
  6  7  1  0
  6  9  1  0
  7  8  2  0
  9 10  2  0
  9 11  1  0
 11 12  1  0
 12 13  1  0
 12 17  1  0
 13 14  1  0
 14 15  2  0
 14 23  1  0
 15 16  1  0
 15 20  1  0
 16 17  1  0
 17 18  1  6
 17 19  1  0
 20 21  2  0
 20 24  1  0
 21 22  1  0
 22 23  2  0
 24 25  2  0
 24 26  1  0
  1 27  1  0
  1 28  1  0
  2 29  1  0
  2 30  1  0
  4 31  1  0
  8 32  1  0
  5 33  1  0
  7 34  1  0
 11 35  1  0
 12 36  1  6
 13 37  1  0
 13 38  1  0
 23 39  1  0
 18 40  1  0
 19 41  1  0
 21 42  1  0
 22 43  1  0
 26 44  1  0
M  CHG  1  17  -1
M  END
