
     RDKit          3D

 56 59  0  0  0  0  0  0  0  0999 V2000
    1.5735   -0.9539    0.1492 C   0  0  0  0  0  0  0  0  0  0  0  0
   -0.8659   -0.6089    0.0582 C   0  0  0  0  0  0  0  0  0  0  0  0
   -1.5884    1.5760   -0.0066 C   0  0  0  0  0  0  0  0  0  0  0  0
   -3.0462   -0.2870   -0.0506 C   0  0  0  0  0  0  0  0  0  0  0  0
   -4.3880   -0.5128   -0.1113 N   0  0  0  0  0  0  0  0  0  0  0  0
   -4.9815    0.7202   -0.1532 C   0  0  0  0  0  0  0  0  0  0  0  0
   -5.0551   -1.8119   -0.1098 C   0  0  1  0  0  0  0  0  0  0  0  0
   -5.8796   -1.9905    1.1572 C   0  0  0  0  0  0  0  0  0  0  0  0
    0.0549    4.9058   -0.1351 C   0  0  0  0  0  0  0  0  0  0  0  0
    2.0474    6.4116   -0.1364 C   0  0  0  0  0  0  0  0  0  0  0  0
    6.1239   -2.2233    0.5298 C   0  0  0  0  0  0  0  0  0  0  0  0
    2.3834   -2.2329   -0.0688 C   0  0  2  0  0  0  0  0  0  0  0  0
    1.4985   -3.2921    0.5696 C   0  0  1  0  0  0  0  0  0  0  0  0
    0.0906   -2.8712    0.1782 C   0  0  0  0  0  0  0  0  0  0  0  0
    0.2058   -1.4291    0.1178 N   0  0  0  0  0  0  0  0  0  0  0  0
   -0.5896    0.7086    0.0602 N   0  0  0  0  0  0  0  0  0  0  0  0
   -2.9089    1.0927   -0.0623 C   0  0  0  0  0  0  0  0  0  0  0  0
   -2.0659   -1.1834    0.0027 N   0  0  0  0  0  0  0  0  0  0  0  0
   -4.1333    1.7065   -0.1273 N   0  0  0  0  0  0  0  0  0  0  0  0
   -5.8840   -1.9943   -1.3729 C   0  0  0  0  0  0  0  0  0  0  0  0
   -1.3476    2.9006   -0.0175 N   0  0  0  0  0  0  0  0  0  0  0  0
   -0.1162    3.5437    0.0144 C   0  0  0  0  0  0  0  0  0  0  0  0
    1.3768    5.1384   -0.0288 N   0  0  0  0  0  0  0  0  0  0  0  0
    2.0703    4.0324    0.1727 N   0  0  0  0  0  0  0  0  0  0  0  0
    1.1873    3.0462    0.2054 C   0  0  0  0  0  0  0  0  0  0  0  0
    1.8028   -4.5644    0.1173 F   0  0  0  0  0  0  0  0  0  0  0  0
    3.7128   -2.1660    0.4660 N   0  0  0  0  0  0  0  0  0  0  0  0
    4.8384   -2.3079   -0.2644 C   0  0  0  0  0  0  0  0  0  0  0  0
    7.2382   -1.5227   -0.2324 C   0  0  0  0  0  0  0  0  0  0  0  0
    4.8295   -2.5065   -1.4700 O   0  0  0  0  0  0  0  0  0  0  0  0
    1.8224   -0.4967    1.1137 H   0  0  0  0  0  0  0  0  0  0  0  0
    1.7692   -0.2154   -0.6279 H   0  0  0  0  0  0  0  0  0  0  0  0
   -6.0544    0.8306   -0.2026 H   0  0  0  0  0  0  0  0  0  0  0  0
   -4.2481   -2.5461   -0.1107 H   0  0  0  0  0  0  0  0  0  0  0  0
   -6.6948   -1.2670    1.2099 H   0  0  0  0  0  0  0  0  0  0  0  0
   -6.3196   -2.9874    1.1741 H   0  0  0  0  0  0  0  0  0  0  0  0
   -5.2627   -1.8791    2.0487 H   0  0  0  0  0  0  0  0  0  0  0  0
   -0.6601    5.6954   -0.3017 H   0  0  0  0  0  0  0  0  0  0  0  0
    2.6406    6.6011    0.7558 H   0  0  0  0  0  0  0  0  0  0  0  0
    2.6978    6.4281   -1.0091 H   0  0  0  0  0  0  0  0  0  0  0  0
    1.3030    7.1959   -0.2372 H   0  0  0  0  0  0  0  0  0  0  0  0
    5.9504   -1.7292    1.4879 H   0  0  0  0  0  0  0  0  0  0  0  0
    6.4261   -3.2477    0.7685 H   0  0  0  0  0  0  0  0  0  0  0  0
    2.4592   -2.4394   -1.1378 H   0  0  0  0  0  0  0  0  0  0  0  0
    1.6200   -3.2897    1.6568 H   0  0  0  0  0  0  0  0  0  0  0  0
   -0.1812   -3.3036   -0.7911 H   0  0  0  0  0  0  0  0  0  0  0  0
   -0.6576   -3.1858    0.9056 H   0  0  0  0  0  0  0  0  0  0  0  0
   -5.2717   -1.8800   -2.2671 H   0  0  0  0  0  0  0  0  0  0  0  0
   -6.3179   -2.9938   -1.3862 H   0  0  0  0  0  0  0  0  0  0  0  0
   -6.7058   -1.2779   -1.4235 H   0  0  0  0  0  0  0  0  0  0  0  0
   -2.1595    3.4948   -0.0851 H   0  0  0  0  0  0  0  0  0  0  0  0
    1.4999    2.0295    0.3640 H   0  0  0  0  0  0  0  0  0  0  0  0
    3.8063   -1.9783    1.4523 H   0  0  0  0  0  0  0  0  0  0  0  0
    7.4768   -2.0423   -1.1588 H   0  0  0  0  0  0  0  0  0  0  0  0
    6.9664   -0.4967   -0.4815 H   0  0  0  0  0  0  0  0  0  0  0  0
    8.1436   -1.4882    0.3723 H   0  0  0  0  0  0  0  0  0  0  0  0
 20  7  1  0
  8  7  1  0
  7  5  1  0
  6  5  1  0
  6 19  2  0
  5  4  1  0
 19 17  1  0
  4 17  2  0
  4 18  1  0
 17  3  1  0
 18  2  2  0
  3 21  1  0
  3 16  2  0
 21 22  1  0
  2 16  1  0
  2 15  1  0
 26 13  1  0
 22 25  1  0
 22  9  2  0
 14 15  1  0
 14 13  1  0
 25 24  2  0
 15  1  1  0
 13 12  1  0
  9 23  1  0
 24 23  1  0
  1 12  1  0
 23 10  1  0
 12 27  1  0
 27 28  1  0
 28 30  2  0
 28 11  1  0
 11 29  1  0
  1 31  1  0
  1 32  1  0
  6 33  1  0
  7 34  1  1
  8 35  1  0
  8 36  1  0
  8 37  1  0
  9 38  1  0
 10 39  1  0
 10 40  1  0
 10 41  1  0
 11 42  1  0
 11 43  1  0
 12 44  1  6
 13 45  1  1
 14 46  1  0
 14 47  1  0
 20 48  1  0
 20 49  1  0
 20 50  1  0
 21 51  1  0
 25 52  1  0
 27 53  1  0
 29 54  1  0
 29 55  1  0
 29 56  1  0
M  END
