
     RDKit          3D

 44 45  0  0  0  0  0  0  0  0999 V2000
   -4.2439    0.8287   -0.3908 C   0  0  0  0  0  0  0  0  0  0  0  0
   -3.0979    0.0079   -0.8692 C   0  0  0  0  0  0  0  0  0  0  0  0
   -1.8247    0.2504   -0.0488 C   0  0  1  0  0  0  0  0  0  0  0  0
   -0.7526   -0.7391   -0.5001 C   0  0  0  0  0  0  0  0  0  0  0  0
   -0.2006   -0.6238   -1.5829 O   0  0  0  0  0  0  0  0  0  0  0  0
   -1.3951    1.6259   -0.1859 N   0  0  0  0  0  0  0  0  0  0  0  0
    2.1132    0.1197    0.9742 C   0  0  0  0  0  0  0  0  0  0  0  0
    2.5164    1.3266    0.4306 C   0  0  0  0  0  0  0  0  0  0  0  0
    3.1863    1.3260   -0.7836 C   0  0  0  0  0  0  0  0  0  0  0  0
    3.6176    2.5886   -1.3567 N   0  0  0  0  0  0  0  0  0  0  0  0
    3.3815    3.6041   -0.7438 O   0  0  0  0  0  0  0  0  0  0  0  0
    4.1919    2.5654   -2.4206 O   0  0  0  0  0  0  0  0  0  0  0  0
    3.4614    0.1446   -1.4586 C   0  0  0  0  0  0  0  0  0  0  0  0
    3.0413   -1.0480   -0.9028 C   0  0  0  0  0  0  0  0  0  0  0  0
    2.3589   -1.0775    0.3096 C   0  0  0  0  0  0  0  0  0  0  0  0
    1.8529   -2.3969    0.8468 C   0  0  1  0  0  0  0  0  0  0  0  0
    1.7861   -2.4142    2.2471 O   0  0  0  0  0  0  0  0  0  0  0  0
    0.5178   -2.7511    0.1540 C   0  0  1  0  0  0  0  0  0  0  0  0
   -0.0341   -4.1164    0.5417 C   0  0  0  0  0  0  0  0  0  0  0  0
   -0.5547   -4.0771    1.8508 O   0  0  0  0  0  0  0  0  0  0  0  0
   -0.4776   -1.7269    0.3749 N   0  0  0  0  0  0  0  0  0  0  0  0
   -4.8701    1.8634   -1.0271 C   0  0  0  0  0  0  0  0  0  0  0  0
   -5.8450    2.2852   -0.1684 N   0  0  0  0  0  0  0  0  0  0  0  0
   -5.7769    1.5131    0.9312 C   0  0  0  0  0  0  0  0  0  0  0  0
   -4.8212    0.6225    0.8332 N   0  0  0  0  0  0  0  0  0  0  0  0
   -3.3550   -1.0545   -0.8181 H   0  0  0  0  0  0  0  0  0  0  0  0
   -2.8971    0.2314   -1.9203 H   0  0  0  0  0  0  0  0  0  0  0  0
   -2.0621    0.0773    1.0050 H   0  0  0  0  0  0  0  0  0  0  0  0
   -0.6129    1.8112    0.4294 H   0  0  0  0  0  0  0  0  0  0  0  0
   -1.0618    1.7846   -1.1295 H   0  0  0  0  0  0  0  0  0  0  0  0
    2.3130    2.2481    0.9568 H   0  0  0  0  0  0  0  0  0  0  0  0
    3.9947    0.1447   -2.3980 H   0  0  0  0  0  0  0  0  0  0  0  0
    3.2492   -1.9736   -1.4254 H   0  0  0  0  0  0  0  0  0  0  0  0
    2.5701   -3.1754    0.5646 H   0  0  0  0  0  0  0  0  0  0  0  0
    0.9576   -2.0265    2.5460 H   0  0  0  0  0  0  0  0  0  0  0  0
    0.7247   -2.7940   -0.9171 H   0  0  0  0  0  0  0  0  0  0  0  0
   -0.8108   -4.3782   -0.1845 H   0  0  0  0  0  0  0  0  0  0  0  0
    0.7663   -4.8600    0.4404 H   0  0  0  0  0  0  0  0  0  0  0  0
   -1.1870   -4.7940    1.9487 H   0  0  0  0  0  0  0  0  0  0  0  0
   -1.0467   -1.7962    1.2046 H   0  0  0  0  0  0  0  0  0  0  0  0
   -4.7077    2.3194   -1.9891 H   0  0  0  0  0  0  0  0  0  0  0  0
   -6.4992    3.0339   -0.3298 H   0  0  0  0  0  0  0  0  0  0  0  0
   -6.4435    1.6404    1.7701 H   0  0  0  0  0  0  0  0  0  0  0  0
    1.6023    0.1300    1.9274 H   0  0  0  0  0  0  0  0  0  0  0  0
 20 19  1  0
  5  4  2  0
  4  3  1  0
  4 21  1  0
 18 19  1  0
 18 21  1  0
 18 16  1  0
  3  6  1  0
  3  2  1  0
 14 13  2  0
 14 15  1  0
 13  9  1  0
 22 23  1  0
 22  1  2  0
 23 24  1  0
 16 15  1  0
 16 17  1  0
 15  7  2  0
 12 10  2  0
  1  2  1  0
  1 25  1  0
 24 25  2  0
  9 10  1  0
  9  8  2  0
 10 11  1  0
  7  8  1  0
  2 26  1  0
  2 27  1  0
  3 28  1  1
  6 29  1  0
  6 30  1  0
  7 44  1  0
  8 31  1  0
 13 32  1  0
 14 33  1  0
 16 34  1  1
 17 35  1  0
 18 36  1  6
 19 37  1  0
 19 38  1  0
 20 39  1  0
 21 40  1  0
 22 41  1  0
 23 42  1  0
 24 43  1  0
M  CHG  2  10   1  11  -1
M  END
