
     RDKit          3D

 61 65  0  0  0  0  0  0  0  0999 V2000
   -8.6276    0.7557    1.0065 O   0  0  0  0  0  0  0  0  0  0  0  0
   -8.4416   -0.2702    0.1856 C   0  0  0  0  0  0  0  0  0  0  0  0
   -9.3275   -0.7444   -0.4870 O   0  0  0  0  0  0  0  0  0  0  0  0
   -7.0490   -0.7645    0.1800 C   0  0  0  0  0  0  0  0  0  0  0  0
   -6.7205   -1.8348   -0.6517 C   0  0  0  0  0  0  0  0  0  0  0  0
   -5.4333   -2.3235   -0.6913 C   0  0  0  0  0  0  0  0  0  0  0  0
   -6.0474   -0.2060    0.9698 C   0  0  0  0  0  0  0  0  0  0  0  0
   -4.7492   -0.6871    0.9383 C   0  0  0  0  0  0  0  0  0  0  0  0
   -4.4261   -1.7564    0.0988 C   0  0  0  0  0  0  0  0  0  0  0  0
   -3.1591   -2.3176   -0.0172 N   0  0  0  0  0  0  0  0  0  0  0  0
   -1.9948   -1.9391    0.5781 C   0  0  0  0  0  0  0  0  0  0  0  0
   -1.8936   -0.9773    1.3162 O   0  0  0  0  0  0  0  0  0  0  0  0
   -0.8102   -2.7855    0.2413 C   0  0  0  0  0  0  0  0  0  0  0  0
   -0.9082   -4.1303   -0.1070 C   0  0  0  0  0  0  0  0  0  0  0  0
    0.2427   -4.8519   -0.3878 C   0  0  0  0  0  0  0  0  0  0  0  0
    0.4426   -2.1863    0.3194 C   0  0  0  0  0  0  0  0  0  0  0  0
    1.6018   -2.9005    0.0321 C   0  0  0  0  0  0  0  0  0  0  0  0
    1.4854   -4.2433   -0.3310 C   0  0  0  0  0  0  0  0  0  0  0  0
    2.9122   -2.2240    0.1135 C   0  0  0  0  0  0  0  0  0  0  0  0
    4.0565   -2.9272    0.3138 C   0  0  0  0  0  0  0  0  0  0  0  0
    2.8860   -0.8646    0.0015 N   0  0  0  0  0  0  0  0  0  0  0  0
    3.9965   -0.1893    0.0788 C   0  0  0  0  0  0  0  0  0  0  0  0
    5.2499   -0.8554    0.2688 C   0  0  0  0  0  0  0  0  0  0  0  0
    6.4683   -0.3711    0.3675 N   0  0  0  0  0  0  0  0  0  0  0  0
    7.2592   -1.4557    0.5509 C   0  0  0  0  0  0  0  0  0  0  0  0
    6.5206   -2.6135    0.5656 C   0  0  0  0  0  0  0  0  0  0  0  0
    5.2296   -2.2154    0.3818 N   0  0  0  0  0  0  0  0  0  0  0  0
    4.0545    1.1583   -0.0114 N   0  0  0  0  0  0  0  0  0  0  0  0
    3.0325    2.0948   -0.1737 C   0  0  0  0  0  0  0  0  0  0  0  0
    3.3942    3.4373    0.0226 C   0  0  0  0  0  0  0  0  0  0  0  0
    2.4719    4.4543   -0.1290 C   0  0  0  0  0  0  0  0  0  0  0  0
    2.7391    5.7599    0.0469 O   0  0  0  0  0  0  0  0  0  0  0  0
    4.0456    6.1312    0.4366 C   0  0  0  0  0  0  0  0  0  0  0  0
    1.7269    1.7929   -0.5254 C   0  0  0  0  0  0  0  0  0  0  0  0
    0.7973    2.8234   -0.6765 C   0  0  0  0  0  0  0  0  0  0  0  0
    1.1416    4.1470   -0.4850 C   0  0  0  0  0  0  0  0  0  0  0  0
    0.3079    5.2001   -0.6066 O   0  0  0  0  0  0  0  0  0  0  0  0
   -1.0345    4.9383   -0.9570 C   0  0  0  0  0  0  0  0  0  0  0  0
   -9.5526    1.0406    0.9732 H   0  0  0  0  0  0  0  0  0  0  0  0
   -7.4753   -2.2912   -1.2775 H   0  0  0  0  0  0  0  0  0  0  0  0
   -5.2006   -3.1573   -1.3425 H   0  0  0  0  0  0  0  0  0  0  0  0
   -6.2619    0.6237    1.6291 H   0  0  0  0  0  0  0  0  0  0  0  0
   -4.0064   -0.2237    1.5646 H   0  0  0  0  0  0  0  0  0  0  0  0
   -3.0990   -3.0718   -0.6846 H   0  0  0  0  0  0  0  0  0  0  0  0
   -1.8630   -4.6394   -0.1451 H   0  0  0  0  0  0  0  0  0  0  0  0
    0.1677   -5.8961   -0.6593 H   0  0  0  0  0  0  0  0  0  0  0  0
    0.5197   -1.1465    0.6052 H   0  0  0  0  0  0  0  0  0  0  0  0
    2.3638   -4.8215   -0.5871 H   0  0  0  0  0  0  0  0  0  0  0  0
    4.1241   -3.9955    0.4421 H   0  0  0  0  0  0  0  0  0  0  0  0
    8.3284   -1.3672    0.6640 H   0  0  0  0  0  0  0  0  0  0  0  0
    6.7946   -3.6475    0.6853 H   0  0  0  0  0  0  0  0  0  0  0  0
    4.9797    1.5444    0.1093 H   0  0  0  0  0  0  0  0  0  0  0  0
    4.4160    3.6648    0.3004 H   0  0  0  0  0  0  0  0  0  0  0  0
    4.3309    5.6766    1.3889 H   0  0  0  0  0  0  0  0  0  0  0  0
    4.7897    5.8640   -0.3186 H   0  0  0  0  0  0  0  0  0  0  0  0
    4.0378    7.2121    0.5521 H   0  0  0  0  0  0  0  0  0  0  0  0
    1.4163    0.7753   -0.6892 H   0  0  0  0  0  0  0  0  0  0  0  0
   -0.2127    2.5520   -0.9522 H   0  0  0  0  0  0  0  0  0  0  0  0
   -1.5395    5.9007   -0.9928 H   0  0  0  0  0  0  0  0  0  0  0  0
   -1.1161    4.4619   -1.9380 H   0  0  0  0  0  0  0  0  0  0  0  0
   -1.5341    4.3054   -0.2183 H   0  0  0  0  0  0  0  0  0  0  0  0
 12 11  2  0
 14 15  2  0
 14 13  1  0
 15 18  1  0
 11 13  1  0
 11 10  1  0
 13 16  2  0
 18 17  2  0
  8  7  1  0
  8  9  2  0
  7  4  2  0
  3  2  2  0
 16 17  1  0
 10  9  1  0
 17 19  1  0
  9  6  1  0
 33 32  1  0
  4  2  1  0
  4  5  1  0
  2  1  1  0
 32 31  1  0
  6  5  2  0
 19 20  2  0
 19 21  1  0
 38 37  1  0
 20 27  1  0
 21 22  2  0
 31 30  2  0
 31 36  1  0
 30 29  1  0
 37 36  1  0
 27 23  1  0
 27 26  1  0
 22 23  1  0
 22 28  1  0
 36 35  2  0
 23 24  2  0
 29 28  1  0
 29 34  2  0
 26 25  2  0
 35 34  1  0
 24 25  1  0
  1 39  1  0
  5 40  1  0
  6 41  1  0
  7 42  1  0
  8 43  1  0
 10 44  1  0
 14 45  1  0
 15 46  1  0
 16 47  1  0
 18 48  1  0
 20 49  1  0
 25 50  1  0
 26 51  1  0
 28 52  1  0
 30 53  1  0
 33 54  1  0
 33 55  1  0
 33 56  1  0
 34 57  1  0
 35 58  1  0
 38 59  1  0
 38 60  1  0
 38 61  1  0
M  END
