
     RDKit          3D

 33 34  0  0  0  0  0  0  0  0999 V2000
    4.5524    1.6270    0.0166 C   0  0  0  0  0  0  0  0  0  0  0  0
    2.5650    0.1687    0.1521 N   0  0  0  0  0  0  0  0  0  0  0  0
    3.7331    0.6645    0.8595 C   0  0  0  0  0  0  0  0  0  0  0  0
   -4.5395    1.4637   -1.2393 N   0  0  0  0  0  0  0  0  0  0  0  0
    2.6026   -0.9222   -0.6896 C   0  0  0  0  0  0  0  0  0  0  0  0
    1.2201   -1.1475   -1.2401 C   0  0  0  0  0  0  0  0  0  0  0  0
    0.3855    0.0256   -0.7217 C   0  0  2  0  0  0  0  0  0  0  0  0
    1.3281    0.7665    0.2107 C   0  0  0  0  0  0  0  0  0  0  0  0
   -0.9039   -0.3455   -0.0391 C   0  0  0  0  0  0  0  0  0  0  0  0
   -0.8938   -1.1536    1.0953 C   0  0  0  0  0  0  0  0  0  0  0  0
   -2.0867   -1.4934    1.7134 C   0  0  0  0  0  0  0  0  0  0  0  0
   -3.2941   -1.0340    1.2037 C   0  0  0  0  0  0  0  0  0  0  0  0
   -3.3244   -0.2348    0.0656 C   0  0  0  0  0  0  0  0  0  0  0  0
   -4.6460    0.2159   -0.5063 C   0  0  0  0  0  0  0  0  0  0  0  0
   -2.1177    0.1072   -0.5406 C   0  0  0  0  0  0  0  0  0  0  0  0
    5.4333    1.9446    0.5737 H   0  0  0  0  0  0  0  0  0  0  0  0
    4.8908    1.1559   -0.9057 H   0  0  0  0  0  0  0  0  0  0  0  0
    3.9785    2.5167   -0.2411 H   0  0  0  0  0  0  0  0  0  0  0  0
    4.3315   -0.1957    1.1560 H   0  0  0  0  0  0  0  0  0  0  0  0
    3.3876    1.1472    1.7719 H   0  0  0  0  0  0  0  0  0  0  0  0
   -5.4174    1.6516   -1.7050 H   0  0  0  0  0  0  0  0  0  0  0  0
   -4.3966    2.2283   -0.5914 H   0  0  0  0  0  0  0  0  0  0  0  0
    1.2565   -1.1945   -2.3281 H   0  0  0  0  0  0  0  0  0  0  0  0
    0.8541   -2.1145   -0.8890 H   0  0  0  0  0  0  0  0  0  0  0  0
    0.1654    0.7154   -1.5414 H   0  0  0  0  0  0  0  0  0  0  0  0
    0.0418   -1.5163    1.5067 H   0  0  0  0  0  0  0  0  0  0  0  0
   -2.0767   -2.1128    2.6010 H   0  0  0  0  0  0  0  0  0  0  0  0
   -4.2209   -1.2978    1.7000 H   0  0  0  0  0  0  0  0  0  0  0  0
   -5.3857    0.2376    0.3050 H   0  0  0  0  0  0  0  0  0  0  0  0
   -4.9962   -0.5505   -1.2046 H   0  0  0  0  0  0  0  0  0  0  0  0
   -2.1315    0.7422   -1.4180 H   0  0  0  0  0  0  0  0  0  0  0  0
    3.5949   -1.5729   -0.9100 O   0  0  0  0  0  0  0  0  0  0  0  0
    1.0620    1.7264    0.8905 O   0  0  0  0  0  0  0  0  0  0  0  0
  1  3  1  0
  2  3  1  0
  2  5  1  0
  2  8  1  0
 32  5  2  0
  4 14  1  0
 33  8  2  0
  5  6  1  0
  6  7  1  0
  7  8  1  0
  7  9  1  0
  9 10  2  0
  9 15  1  0
 10 11  1  0
 11 12  2  0
 12 13  1  0
 13 14  1  0
 13 15  2  0
  1 16  1  0
  1 17  1  0
  1 18  1  0
  3 19  1  0
  3 20  1  0
  4 21  1  0
  4 22  1  0
  6 23  1  0
  6 24  1  0
  7 25  1  6
 10 26  1  0
 11 27  1  0
 12 28  1  0
 14 29  1  0
 14 30  1  0
 15 31  1  0
M  END
