
     RDKit          3D

 61 64  0  0  0  0  0  0  0  0999 V2000
    2.3889   -2.8735   -0.7082 O   0  0  0  0  0  0  0  0  0  0  0  0
    1.9074   -1.5710   -1.1295 S   0  0  2  0  0  0  0  0  0  0  0  0
    1.8646   -1.2915   -2.5541 O   0  0  0  0  0  0  0  0  0  0  0  0
    2.7328   -0.2675   -0.3191 C   0  0  0  0  0  0  0  0  0  0  0  0
    4.1049   -0.3565   -0.1107 C   0  0  0  0  0  0  0  0  0  0  0  0
    4.7663    0.7366    0.4291 C   0  0  0  0  0  0  0  0  0  0  0  0
    6.0854    0.8014    0.6704 O   0  0  0  0  0  0  0  0  0  0  0  0
    6.9145   -0.3091    0.3837 C   0  0  2  0  0  0  0  0  0  0  0  0
    6.8435   -1.3697    1.4747 C   0  0  0  0  0  0  0  0  0  0  0  0
    8.3352    0.2480    0.3105 C   0  0  0  0  0  0  0  0  0  0  0  0
    8.6950    1.1740    1.0151 O   0  0  0  0  0  0  0  0  0  0  0  0
    9.1321   -0.4096   -0.5386 N   0  0  0  0  0  0  0  0  0  0  0  0
    4.0332    1.8912    0.7430 C   0  0  0  0  0  0  0  0  0  0  0  0
    0.4177   -1.3429   -0.4496 N   0  0  0  0  0  0  0  0  0  0  0  0
   -0.1163   -0.0757   -0.3234 C   0  0  0  0  0  0  0  0  0  0  0  0
    0.6078    0.9677   -0.1417 N   0  0  0  0  0  0  0  0  0  0  0  0
    1.9735    0.8611   -0.0049 C   0  0  0  0  0  0  0  0  0  0  0  0
    2.6773    1.9509    0.5294 C   0  0  0  0  0  0  0  0  0  0  0  0
   -1.5880    0.0211   -0.3677 C   0  0  0  0  0  0  0  0  0  0  0  0
   -2.2510    1.2319   -0.3102 C   0  0  0  0  0  0  0  0  0  0  0  0
   -1.6159    2.3710   -0.1624 O   0  0  0  0  0  0  0  0  0  0  0  0
   -2.3850   -1.1864   -0.4519 C   0  0  0  0  0  0  0  0  0  0  0  0
   -1.9301   -2.3349   -0.4577 O   0  0  0  0  0  0  0  0  0  0  0  0
   -3.7494   -1.0193   -0.5144 N   0  0  0  0  0  0  0  0  0  0  0  0
   -4.6365   -2.1845   -0.5486 C   0  0  0  0  0  0  0  0  0  0  0  0
   -5.0140   -2.6418    0.8530 C   0  0  0  0  0  0  0  0  0  0  0  0
   -6.0487   -3.7682    0.8571 C   0  0  1  0  0  0  0  0  0  0  0  0
   -5.5056   -5.0438    0.2189 C   0  0  0  0  0  0  0  0  0  0  0  0
   -6.5072   -4.0449    2.2853 C   0  0  0  0  0  0  0  0  0  0  0  0
   -4.3645    0.1370   -0.4916 N   0  0  0  0  0  0  0  0  0  0  0  0
   -3.6863    1.2329   -0.4103 C   0  0  0  0  0  0  0  0  0  0  0  0
   -4.4409    2.4866   -0.3765 C   0  0  0  0  0  0  0  0  0  0  0  0
   -4.2689    3.6116   -1.1394 C   0  0  0  0  0  0  0  0  0  0  0  0
   -5.7737    2.6630    0.6969 S   0  0  0  0  0  0  0  0  0  0  0  0
   -6.0977    4.2405    0.1265 C   0  0  0  0  0  0  0  0  0  0  0  0
   -5.2216    4.6199   -0.8450 C   0  0  0  0  0  0  0  0  0  0  0  0
    4.6230   -1.2675   -0.3783 H   0  0  0  0  0  0  0  0  0  0  0  0
    6.6442   -0.7425   -0.5859 H   0  0  0  0  0  0  0  0  0  0  0  0
    7.5041   -2.2010    1.2303 H   0  0  0  0  0  0  0  0  0  0  0  0
    7.1514   -0.9561    2.4350 H   0  0  0  0  0  0  0  0  0  0  0  0
    5.8369   -1.7731    1.5817 H   0  0  0  0  0  0  0  0  0  0  0  0
    8.7864   -1.1344   -1.1437 H   0  0  0  0  0  0  0  0  0  0  0  0
   10.1085   -0.1732   -0.6120 H   0  0  0  0  0  0  0  0  0  0  0  0
    4.5515    2.7446    1.1611 H   0  0  0  0  0  0  0  0  0  0  0  0
   -0.2727   -2.1112   -0.5128 H   0  0  0  0  0  0  0  0  0  0  0  0
    2.1258    2.8456    0.7869 H   0  0  0  0  0  0  0  0  0  0  0  0
   -2.2420    3.1058   -0.0569 H   0  0  0  0  0  0  0  0  0  0  0  0
   -5.5206   -1.8734   -1.1034 H   0  0  0  0  0  0  0  0  0  0  0  0
   -4.1463   -2.9704   -1.1168 H   0  0  0  0  0  0  0  0  0  0  0  0
   -4.1187   -2.9709    1.3903 H   0  0  0  0  0  0  0  0  0  0  0  0
   -5.4160   -1.7836    1.3996 H   0  0  0  0  0  0  0  0  0  0  0  0
   -6.9181   -3.4331    0.2790 H   0  0  0  0  0  0  0  0  0  0  0  0
   -5.2340   -4.9063   -0.8285 H   0  0  0  0  0  0  0  0  0  0  0  0
   -4.6145   -5.3867    0.7503 H   0  0  0  0  0  0  0  0  0  0  0  0
   -6.2448   -5.8452    0.2569 H   0  0  0  0  0  0  0  0  0  0  0  0
   -6.9116   -3.1484    2.7581 H   0  0  0  0  0  0  0  0  0  0  0  0
   -7.2832   -4.8113    2.3096 H   0  0  0  0  0  0  0  0  0  0  0  0
   -5.6742   -4.3971    2.8988 H   0  0  0  0  0  0  0  0  0  0  0  0
   -3.5201    3.7050   -1.9151 H   0  0  0  0  0  0  0  0  0  0  0  0
   -6.9169    4.8088    0.5393 H   0  0  0  0  0  0  0  0  0  0  0  0
   -5.2560    5.5786   -1.3407 H   0  0  0  0  0  0  0  0  0  0  0  0
  1  2  2  0
  2  3  2  0
  2  4  1  0
  2 14  1  1
  4  5  1  0
  4 17  2  0
  5  6  2  0
  6  7  1  0
  6 13  1  0
  7  8  1  0
  8  9  1  0
  8 10  1  0
 10 11  2  0
 10 12  1  0
 13 18  2  0
 14 15  1  0
 15 16  2  0
 15 19  1  0
 16 17  1  0
 17 18  1  0
 19 20  2  0
 19 22  1  0
 20 21  1  0
 20 31  1  0
 22 23  2  0
 22 24  1  0
 24 25  1  0
 24 30  1  0
 25 26  1  0
 26 27  1  0
 27 28  1  0
 27 29  1  0
 30 31  2  0
 31 32  1  0
 32 33  2  0
 32 34  1  0
 33 36  1  0
 34 35  1  0
 35 36  2  0
  5 37  1  0
  8 38  1  6
  9 39  1  0
  9 40  1  0
  9 41  1  0
 12 42  1  0
 12 43  1  0
 13 44  1  0
 14 45  1  0
 18 46  1  0
 21 47  1  0
 25 48  1  0
 25 49  1  0
 26 50  1  0
 26 51  1  0
 27 52  1  6
 28 53  1  0
 28 54  1  0
 28 55  1  0
 29 56  1  0
 29 57  1  0
 29 58  1  0
 33 59  1  0
 35 60  1  0
 36 61  1  0
M  END
