
     RDKit          3D

 61 64  0  0  0  0  0  0  0  0999 V2000
    6.1427   -1.0132    0.6612 N   0  0  0  0  0  0  0  0  0  0  0  0
    7.3168   -0.4485   -0.3821 S   0  0  1  0  0  0  0  0  0  0  0  0
    8.5824   -0.7307    0.2703 O   0  0  0  0  0  0  0  0  0  0  0  0
    7.0347   -1.0095   -1.6914 O   0  0  0  0  0  0  0  0  0  0  0  0
    7.0889    1.3109   -0.4701 C   0  0  0  0  0  0  0  0  0  0  0  0
    4.7764   -0.8875    0.3177 C   0  0  0  0  0  0  0  0  0  0  0  0
    4.2370   -1.6808   -0.7040 C   0  0  0  0  0  0  0  0  0  0  0  0
    2.9037   -1.5830   -1.0310 C   0  0  0  0  0  0  0  0  0  0  0  0
    2.0596   -0.7152   -0.3285 C   0  0  0  0  0  0  0  0  0  0  0  0
    0.6614   -0.5898   -0.6195 C   0  0  0  0  0  0  0  0  0  0  0  0
   -0.0989    0.2393    0.1092 C   0  0  0  0  0  0  0  0  0  0  0  0
    0.4313    0.9782    1.1189 O   0  0  0  0  0  0  0  0  0  0  0  0
    1.7403    0.9614    1.4617 C   0  0  0  0  0  0  0  0  0  0  0  0
    2.0893    1.6798    2.3625 O   0  0  0  0  0  0  0  0  0  0  0  0
    2.6021    0.0575    0.7051 C   0  0  0  0  0  0  0  0  0  0  0  0
    3.9592   -0.0181    1.0150 C   0  0  0  0  0  0  0  0  0  0  0  0
   -1.5487    0.4118   -0.0542 C   0  0  0  0  0  0  0  0  0  0  0  0
   -2.1469    1.6796   -0.1062 C   0  0  0  0  0  0  0  0  0  0  0  0
   -3.5424    1.8098   -0.1753 C   0  0  0  0  0  0  0  0  0  0  0  0
   -4.2786    0.6288   -0.2484 C   0  0  0  0  0  0  0  0  0  0  0  0
   -3.7057   -0.6413   -0.2599 C   0  0  0  0  0  0  0  0  0  0  0  0
   -2.3271   -0.7366   -0.1364 C   0  0  0  0  0  0  0  0  0  0  0  0
   -4.5641   -1.8296   -0.4134 C   0  0  0  0  0  0  0  0  0  0  0  0
   -4.3444   -2.9833    0.4383 C   0  0  0  0  0  0  0  0  0  0  0  0
   -3.4794   -3.0808    1.3045 O   0  0  0  0  0  0  0  0  0  0  0  0
   -5.2225   -4.0250    0.2186 N   0  0  0  0  0  0  0  0  0  0  0  0
   -6.2228   -4.0383   -0.6892 C   0  0  0  0  0  0  0  0  0  0  0  0
   -6.4360   -2.9612   -1.4848 C   0  0  0  0  0  0  0  0  0  0  0  0
   -5.5802   -1.8491   -1.3294 C   0  0  0  0  0  0  0  0  0  0  0  0
   -4.2509    3.1697   -0.1330 C   0  0  1  0  0  0  0  0  0  0  0  0
   -3.8167    4.0705   -1.2997 C   0  0  0  0  0  0  0  0  0  0  0  0
   -5.7728    3.0134   -0.2377 C   0  0  0  0  0  0  0  0  0  0  0  0
   -3.9620    3.8677    1.2042 C   0  0  0  0  0  0  0  0  0  0  0  0
   -1.3632    2.7877   -0.0613 O   0  0  0  0  0  0  0  0  0  0  0  0
   -0.5647    3.0421   -1.2106 C   0  0  0  0  0  0  0  0  0  0  0  0
    6.3545   -0.7735    1.6249 H   0  0  0  0  0  0  0  0  0  0  0  0
    7.2546    1.7432    0.5140 H   0  0  0  0  0  0  0  0  0  0  0  0
    7.8166    1.7043   -1.1780 H   0  0  0  0  0  0  0  0  0  0  0  0
    6.0821    1.5313   -0.8184 H   0  0  0  0  0  0  0  0  0  0  0  0
    4.8667   -2.3873   -1.2247 H   0  0  0  0  0  0  0  0  0  0  0  0
    2.4976   -2.1973   -1.8241 H   0  0  0  0  0  0  0  0  0  0  0  0
    0.2183   -1.1514   -1.4294 H   0  0  0  0  0  0  0  0  0  0  0  0
    4.3686    0.5957    1.8076 H   0  0  0  0  0  0  0  0  0  0  0  0
   -5.3564    0.6817   -0.2920 H   0  0  0  0  0  0  0  0  0  0  0  0
   -1.8423   -1.7016   -0.0981 H   0  0  0  0  0  0  0  0  0  0  0  0
   -5.0947   -4.8415    0.8016 H   0  0  0  0  0  0  0  0  0  0  0  0
   -6.8139   -4.9411   -0.7299 H   0  0  0  0  0  0  0  0  0  0  0  0
   -7.2296   -2.9641   -2.2153 H   0  0  0  0  0  0  0  0  0  0  0  0
   -5.7298   -0.9869   -1.9688 H   0  0  0  0  0  0  0  0  0  0  0  0
   -4.4779    4.9376   -1.3552 H   0  0  0  0  0  0  0  0  0  0  0  0
   -2.8043    4.4491   -1.1870 H   0  0  0  0  0  0  0  0  0  0  0  0
   -3.8838    3.5452   -2.2542 H   0  0  0  0  0  0  0  0  0  0  0  0
   -6.2326    4.0010   -0.1881 H   0  0  0  0  0  0  0  0  0  0  0  0
   -6.0797    2.5577   -1.1812 H   0  0  0  0  0  0  0  0  0  0  0  0
   -6.1905    2.4245    0.5805 H   0  0  0  0  0  0  0  0  0  0  0  0
   -4.3236    3.2689    2.0425 H   0  0  0  0  0  0  0  0  0  0  0  0
   -2.9020    4.0605    1.3546 H   0  0  0  0  0  0  0  0  0  0  0  0
   -4.4830    4.8270    1.2373 H   0  0  0  0  0  0  0  0  0  0  0  0
    0.2371    2.3114   -1.3394 H   0  0  0  0  0  0  0  0  0  0  0  0
   -1.1663    3.0576   -2.1218 H   0  0  0  0  0  0  0  0  0  0  0  0
   -0.1155    4.0226   -1.0688 H   0  0  0  0  0  0  0  0  0  0  0  0
 30 31  1  6
 28 27  2  0
 28 29  1  0
 27 26  1  0
 29 23  2  0
 26 24  1  0
 30 32  1  0
 30 33  1  0
 30 19  1  0
 23 24  1  0
 23 21  1  0
 20 19  1  0
 20 21  2  0
 24 25  2  0
 19 18  2  0
 21 22  1  0
 18 34  1  0
 18 17  1  0
 22 17  2  0
 34 35  1  0
 17 11  1  0
 11 12  1  0
 11 10  2  0
 12 13  1  0
 10  9  1  0
 13 14  2  0
 13 15  1  0
  9 15  2  0
  9  8  1  0
 15 16  1  0
  8  7  2  0
 16  6  2  0
  7  6  1  0
  6  1  1  0
  2  1  1  1
  4  2  2  0
  5  2  1  0
  2  3  2  0
  1 36  1  0
  5 37  1  0
  5 38  1  0
  5 39  1  0
  7 40  1  0
  8 41  1  0
 10 42  1  0
 16 43  1  0
 20 44  1  0
 22 45  1  0
 26 46  1  0
 27 47  1  0
 28 48  1  0
 29 49  1  0
 31 50  1  0
 31 51  1  0
 31 52  1  0
 32 53  1  0
 32 54  1  0
 32 55  1  0
 33 56  1  0
 33 57  1  0
 33 58  1  0
 35 59  1  0
 35 60  1  0
 35 61  1  0
M  END
