
     RDKit          3D

 32 31  0  0  0  0  0  0  0  0999 V2000
   -1.5072   -0.8318   -1.1170 N   0  0  0  0  0  0  0  0  0  0  0  0
   -0.2417   -0.1192   -0.9366 C   0  0  0  0  0  0  0  0  0  0  0  0
    1.1703   -1.3577   -0.9586 Si  0  0  2  0  0  0  0  0  0  0  0  0
    2.5475   -0.4340   -0.7767 O   0  0  0  0  0  0  0  0  0  0  0  0
    1.1798   -2.2407   -2.3719 O   0  0  0  0  0  0  0  0  0  0  0  0
    0.9923   -2.6303    0.4064 C   0  0  0  0  0  0  0  0  0  0  0  0
    1.0911   -2.0426    1.8266 C   0  0  2  0  0  0  0  0  0  0  0  0
    2.4903   -1.5237    2.0656 C   0  0  0  0  0  0  0  0  0  0  0  0
    3.4778   -2.2123    1.9719 O   0  0  0  0  0  0  0  0  0  0  0  0
    0.7028   -3.1024    2.8741 C   0  0  0  0  0  0  0  0  0  0  0  0
    0.4073   -2.6037    4.2919 C   0  0  2  0  0  0  0  0  0  0  0  0
   -0.7837   -1.6496    4.3287 C   0  0  0  0  0  0  0  0  0  0  0  0
    1.6154   -1.9804    4.9839 C   0  0  0  0  0  0  0  0  0  0  0  0
   -1.5559   -1.2081   -2.0547 H   0  0  0  0  0  0  0  0  0  0  0  0
   -2.2804   -0.1824   -1.0473 H   0  0  0  0  0  0  0  0  0  0  0  0
   -0.2514    0.3645    0.0454 H   0  0  0  0  0  0  0  0  0  0  0  0
   -0.0708    0.6907   -1.6617 H   0  0  0  0  0  0  0  0  0  0  0  0
    3.3834   -0.9106   -0.7606 H   0  0  0  0  0  0  0  0  0  0  0  0
    1.1880   -1.7291   -3.1871 H   0  0  0  0  0  0  0  0  0  0  0  0
    1.7220   -3.4369    0.2892 H   0  0  0  0  0  0  0  0  0  0  0  0
    0.0053   -3.0886    0.2927 H   0  0  0  0  0  0  0  0  0  0  0  0
    0.4050   -1.1949    1.9086 H   0  0  0  0  0  0  0  0  0  0  0  0
    2.5777   -0.4564    2.3350 H   0  0  0  0  0  0  0  0  0  0  0  0
    1.4867   -3.8656    2.9063 H   0  0  0  0  0  0  0  0  0  0  0  0
   -0.1932   -3.6064    2.5011 H   0  0  0  0  0  0  0  0  0  0  0  0
    0.1296   -3.4969    4.8628 H   0  0  0  0  0  0  0  0  0  0  0  0
   -1.6555   -2.0740    3.8280 H   0  0  0  0  0  0  0  0  0  0  0  0
   -1.0700   -1.4250    5.3573 H   0  0  0  0  0  0  0  0  0  0  0  0
   -0.5529   -0.6979    3.8447 H   0  0  0  0  0  0  0  0  0  0  0  0
    1.8893   -1.0221    4.5352 H   0  0  0  0  0  0  0  0  0  0  0  0
    2.4895   -2.6328    4.9458 H   0  0  0  0  0  0  0  0  0  0  0  0
    1.3983   -1.7815    6.0347 H   0  0  0  0  0  0  0  0  0  0  0  0
  1  2  1  0
  1 14  1  0
  1 15  1  0
  2  3  1  0
  2 16  1  0
  2 17  1  0
  3  4  1  1
  3  5  1  0
  3  6  1  0
  4 18  1  0
  5 19  1  0
  6  7  1  0
  6 20  1  0
  6 21  1  0
  7  8  1  0
  7 10  1  0
  7 22  1  6
  8  9  2  0
  8 23  1  0
 10 11  1  0
 10 24  1  0
 10 25  1  0
 11 12  1  0
 11 13  1  0
 11 26  1  1
 12 27  1  0
 12 28  1  0
 12 29  1  0
 13 30  1  0
 13 31  1  0
 13 32  1  0
M  END
