
     RDKit          3D

 63 62  0  0  0  0  0  0  0  0999 V2000
   13.6231    0.0721    0.2680 C   0  0  0  0  0  0  0  0  0  0  0  0
   12.3566    0.1083   -0.5764 C   0  0  0  0  0  0  0  0  0  0  0  0
   11.0869    0.0735    0.2659 C   0  0  0  0  0  0  0  0  0  0  0  0
    9.8086    0.1165   -0.5619 C   0  0  0  0  0  0  0  0  0  0  0  0
    8.5437    0.0668    0.2863 C   0  0  0  0  0  0  0  0  0  0  0  0
    7.2618    0.1278   -0.5349 C   0  0  0  0  0  0  0  0  0  0  0  0
    6.0011    0.0551    0.3176 C   0  0  0  0  0  0  0  0  0  0  0  0
    4.7157    0.1419   -0.4957 C   0  0  0  0  0  0  0  0  0  0  0  0
    3.4611    0.0394    0.3624 C   0  0  0  0  0  0  0  0  0  0  0  0
    2.1736    0.1533   -0.4433 C   0  0  0  0  0  0  0  0  0  0  0  0
    0.9321    0.0205    0.4308 C   0  0  0  0  0  0  0  0  0  0  0  0
   -0.3479    0.1477   -0.3944 C   0  0  0  0  0  0  0  0  0  0  0  0
   -1.8516   -0.0153    0.5896 P   0  0  1  0  0  0  0  0  0  0  0  0
   -1.8972   -1.6249    1.3859 C   0  0  0  0  0  0  0  0  0  0  0  0
   -1.9069    1.2642    1.8463 C   0  0  0  0  0  0  0  0  0  0  0  0
   -3.2665    0.1084   -0.5376 C   0  0  0  0  0  0  0  0  0  0  0  0
   -4.6384    0.0108    0.1666 C   0  0  1  0  0  0  0  0  0  0  0  0
   -5.5775    1.5808    0.1994 P   0  0  1  0  0  0  0  0  0  0  0  0
   -4.4708    2.7206    0.4291 O   0  0  0  0  0  0  0  0  0  0  0  0
   -6.0398    1.6922   -1.3250 O   0  0  0  0  0  0  0  0  0  0  0  0
   -6.6109    1.6302    1.2511 O   0  0  0  0  0  0  0  0  0  0  0  0
   -5.5750   -1.3679   -0.5910 P   0  0  1  0  0  0  0  0  0  0  0  0
   -5.5709   -1.3687   -2.0672 O   0  0  0  0  0  0  0  0  0  0  0  0
   -4.8505   -2.6918   -0.0465 O   0  0  0  0  0  0  0  0  0  0  0  0
   -6.9744   -1.2426    0.1614 O   0  0  0  0  0  0  0  0  0  0  0  0
   -4.1058    3.1487   -0.3558 H   0  0  0  0  0  0  0  0  0  0  0  0
   -6.6853    2.3905   -1.5079 H   0  0  0  0  0  0  0  0  0  0  0  0
   -4.5278   -0.2367    1.2293 H   0  0  0  0  0  0  0  0  0  0  0  0
   -3.1479    1.0285   -1.1105 H   0  0  0  0  0  0  0  0  0  0  0  0
   -3.1171   -0.6888   -1.2694 H   0  0  0  0  0  0  0  0  0  0  0  0
   -1.8439    2.2462    1.3831 H   0  0  0  0  0  0  0  0  0  0  0  0
   -2.8239    1.1948    2.4283 H   0  0  0  0  0  0  0  0  0  0  0  0
   -1.0626    1.1323    2.5209 H   0  0  0  0  0  0  0  0  0  0  0  0
   -1.0459   -1.7243    2.0571 H   0  0  0  0  0  0  0  0  0  0  0  0
   -2.8045   -1.7311    1.9777 H   0  0  0  0  0  0  0  0  0  0  0  0
   -1.8572   -2.4101    0.6332 H   0  0  0  0  0  0  0  0  0  0  0  0
   -0.3985    1.1179   -0.8958 H   0  0  0  0  0  0  0  0  0  0  0  0
   -0.3912   -0.6205   -1.1712 H   0  0  0  0  0  0  0  0  0  0  0  0
    0.9543   -0.9463    0.9407 H   0  0  0  0  0  0  0  0  0  0  0  0
    0.9552    0.7878    1.2093 H   0  0  0  0  0  0  0  0  0  0  0  0
    2.1504    1.1156   -0.9649 H   0  0  0  0  0  0  0  0  0  0  0  0
    2.1547   -0.6190   -1.2190 H   0  0  0  0  0  0  0  0  0  0  0  0
    3.4685   -0.9142    0.9018 H   0  0  0  0  0  0  0  0  0  0  0  0
    3.4794    0.8222    1.1284 H   0  0  0  0  0  0  0  0  0  0  0  0
    4.7012    1.0860   -1.0519 H   0  0  0  0  0  0  0  0  0  0  0  0
    4.7064   -0.6539   -1.2487 H   0  0  0  0  0  0  0  0  0  0  0  0
    6.0056   -0.8790    0.8910 H   0  0  0  0  0  0  0  0  0  0  0  0
    6.0163    0.8634    1.0573 H   0  0  0  0  0  0  0  0  0  0  0  0
    7.2512    1.0527   -1.1227 H   0  0  0  0  0  0  0  0  0  0  0  0
    7.2558   -0.6923   -1.2617 H   0  0  0  0  0  0  0  0  0  0  0  0
    8.5467   -0.8501    0.8868 H   0  0  0  0  0  0  0  0  0  0  0  0
    8.5546    0.8964    1.0023 H   0  0  0  0  0  0  0  0  0  0  0  0
    9.8018    1.0267   -1.1724 H   0  0  0  0  0  0  0  0  0  0  0  0
    9.8045   -0.7213   -1.2683 H   0  0  0  0  0  0  0  0  0  0  0  0
   11.0890   -0.8313    0.8848 H   0  0  0  0  0  0  0  0  0  0  0  0
   11.0945    0.9169    0.9656 H   0  0  0  0  0  0  0  0  0  0  0  0
   12.3541    1.0094   -1.1980 H   0  0  0  0  0  0  0  0  0  0  0  0
   12.3531   -0.7381   -1.2703 H   0  0  0  0  0  0  0  0  0  0  0  0
   13.6677    0.9265    0.9462 H   0  0  0  0  0  0  0  0  0  0  0  0
   13.6628   -0.8332    0.8770 H   0  0  0  0  0  0  0  0  0  0  0  0
   14.5219    0.0937   -0.3495 H   0  0  0  0  0  0  0  0  0  0  0  0
   -5.0158   -2.9261    0.8763 H   0  0  0  0  0  0  0  0  0  0  0  0
   -7.6804   -1.7983   -0.1997 H   0  0  0  0  0  0  0  0  0  0  0  0
  1  2  1  0
  1 59  1  0
  1 60  1  0
  1 61  1  0
  2  3  1  0
  2 57  1  0
  2 58  1  0
  3  4  1  0
  3 55  1  0
  3 56  1  0
  4  5  1  0
  4 53  1  0
  4 54  1  0
  5  6  1  0
  5 51  1  0
  5 52  1  0
  6  7  1  0
  6 49  1  0
  6 50  1  0
  7  8  1  0
  7 47  1  0
  7 48  1  0
  8  9  1  0
  8 45  1  0
  8 46  1  0
  9 10  1  0
  9 43  1  0
  9 44  1  0
 10 11  1  0
 10 41  1  0
 10 42  1  0
 11 12  1  0
 11 39  1  0
 11 40  1  0
 13 12  1  6
 12 37  1  0
 12 38  1  0
 13 16  1  0
 13 15  1  0
 13 14  1  0
 14 34  1  0
 14 35  1  0
 14 36  1  0
 15 31  1  0
 15 32  1  0
 15 33  1  0
 16 17  1  0
 16 29  1  0
 16 30  1  0
 17 18  1  0
 17 28  1  1
 17 22  1  0
 18 19  1  1
 18 21  2  0
 18 20  1  0
 19 26  1  0
 20 27  1  0
 22 23  2  0
 22 24  1  1
 22 25  1  0
 24 62  1  0
 25 63  1  0
M  CHG  1  13   1
M  END
