
     RDKit          3D

 48 49  0  0  0  0  0  0  0  0999 V2000
    1.4552   -1.2455   -1.6982 O   0  0  0  0  0  0  0  0  0  0  0  0
    1.7595   -0.4379   -0.8308 C   0  0  0  0  0  0  0  0  0  0  0  0
    2.8243   -0.6393    0.0151 N   0  0  0  0  0  0  0  0  0  0  0  0
    3.6344   -1.7786    0.0509 C   0  0  0  0  0  0  0  0  0  0  0  0
    4.9747   -1.6104    0.4021 C   0  0  0  0  0  0  0  0  0  0  0  0
    5.8182   -2.7042    0.5175 C   0  0  0  0  0  0  0  0  0  0  0  0
    5.3435   -3.9855    0.2730 C   0  0  0  0  0  0  0  0  0  0  0  0
    4.0101   -4.1537   -0.0753 C   0  0  0  0  0  0  0  0  0  0  0  0
    3.1526   -3.0678   -0.1816 C   0  0  0  0  0  0  0  0  0  0  0  0
    1.0680    0.7170   -0.6285 N   0  0  0  0  0  0  0  0  0  0  0  0
    1.2866    1.6324    0.4783 C   0  0  0  0  0  0  0  0  0  0  0  0
    2.2395    2.7767    0.1453 C   0  0  0  0  0  0  0  0  0  0  0  0
    2.3385    3.7912    1.2764 C   0  0  0  0  0  0  0  0  0  0  0  0
    3.2726    4.9466    0.9446 C   0  0  0  0  0  0  0  0  0  0  0  0
    0.0449    1.1098   -1.5780 C   0  0  0  0  0  0  0  0  0  0  0  0
   -1.3512    0.9066   -1.0459 C   0  0  0  0  0  0  0  0  0  0  0  0
   -2.1991    1.9912   -0.8506 C   0  0  0  0  0  0  0  0  0  0  0  0
   -3.4816    1.8124   -0.3549 C   0  0  0  0  0  0  0  0  0  0  0  0
   -3.9471    0.5359   -0.0598 C   0  0  0  0  0  0  0  0  0  0  0  0
   -3.0963   -0.5551   -0.2441 C   0  0  0  0  0  0  0  0  0  0  0  0
   -1.8135   -0.3692   -0.7298 C   0  0  0  0  0  0  0  0  0  0  0  0
   -5.3343    0.3999    0.4725 C   0  0  0  0  0  0  0  0  0  0  0  0
   -5.8856    1.2901    1.0934 O   0  0  0  0  0  0  0  0  0  0  0  0
   -5.9073   -0.7998    0.2232 N   0  0  0  0  0  0  0  0  0  0  0  0
   -7.2259   -0.9689    0.5258 O   0  0  0  0  0  0  0  0  0  0  0  0
    3.2033    0.1570    0.5008 H   0  0  0  0  0  0  0  0  0  0  0  0
    5.3591   -0.6143    0.5884 H   0  0  0  0  0  0  0  0  0  0  0  0
    2.1162   -3.2344   -0.4315 H   0  0  0  0  0  0  0  0  0  0  0  0
    6.8531   -2.5482    0.7935 H   0  0  0  0  0  0  0  0  0  0  0  0
    6.0009   -4.8403    0.3587 H   0  0  0  0  0  0  0  0  0  0  0  0
    3.6209   -5.1469   -0.2588 H   0  0  0  0  0  0  0  0  0  0  0  0
    0.3123    2.0409    0.7607 H   0  0  0  0  0  0  0  0  0  0  0  0
    1.6267    1.0837    1.3585 H   0  0  0  0  0  0  0  0  0  0  0  0
    0.1875    2.1638   -1.8294 H   0  0  0  0  0  0  0  0  0  0  0  0
    0.1799    0.5475   -2.5001 H   0  0  0  0  0  0  0  0  0  0  0  0
    3.2357    2.3844   -0.0848 H   0  0  0  0  0  0  0  0  0  0  0  0
    1.8931    3.2766   -0.7645 H   0  0  0  0  0  0  0  0  0  0  0  0
    1.3406    4.1789    1.5015 H   0  0  0  0  0  0  0  0  0  0  0  0
    2.6843    3.2918    2.1862 H   0  0  0  0  0  0  0  0  0  0  0  0
    3.3240    5.6641    1.7637 H   0  0  0  0  0  0  0  0  0  0  0  0
    4.2862    4.5909    0.7517 H   0  0  0  0  0  0  0  0  0  0  0  0
    2.9363    5.4824    0.0552 H   0  0  0  0  0  0  0  0  0  0  0  0
   -1.8539    2.9910   -1.0852 H   0  0  0  0  0  0  0  0  0  0  0  0
   -1.1669   -1.2270   -0.8638 H   0  0  0  0  0  0  0  0  0  0  0  0
   -4.1224    2.6711   -0.2047 H   0  0  0  0  0  0  0  0  0  0  0  0
   -3.4180   -1.5574    0.0083 H   0  0  0  0  0  0  0  0  0  0  0  0
   -5.5873   -1.3837   -0.5366 H   0  0  0  0  0  0  0  0  0  0  0  0
   -7.2457   -1.4875    1.3400 H   0  0  0  0  0  0  0  0  0  0  0  0
  1  2  2  0
  2  3  1  0
  2 10  1  0
  3  4  1  0
  4  5  2  0
  4  9  1  0
  5  6  1  0
  6  7  2  0
  7  8  1  0
  8  9  2  0
 10 11  1  0
 10 15  1  0
 11 12  1  0
 12 13  1  0
 13 14  1  0
 15 16  1  0
 16 17  2  0
 16 21  1  0
 17 18  1  0
 18 19  2  0
 19 20  1  0
 19 22  1  0
 20 21  2  0
 22 23  2  0
 22 24  1  0
 24 25  1  0
  3 26  1  0
  5 27  1  0
  9 28  1  0
  6 29  1  0
  7 30  1  0
  8 31  1  0
 11 32  1  0
 11 33  1  0
 15 34  1  0
 15 35  1  0
 12 36  1  0
 12 37  1  0
 13 38  1  0
 13 39  1  0
 14 40  1  0
 14 41  1  0
 14 42  1  0
 17 43  1  0
 21 44  1  0
 18 45  1  0
 20 46  1  0
 24 47  1  0
 25 48  1  0
M  END
