
     RDKit          3D

 60 60  0  0  0  0  0  0  0  0999 V2000
   -5.4468    1.9505    0.4132 C   0  0  0  0  0  0  0  0  0  0  0  0
   -6.5632   -4.6650    1.3646 O   0  0  0  0  0  0  0  0  0  0  0  0
   -4.5628    2.0491   -0.6554 C   0  0  0  0  0  0  0  0  0  0  0  0
   -8.3938   -3.8505    0.3868 O   0  0  0  0  0  0  0  0  0  0  0  0
   -4.5441    1.0244   -1.5980 C   0  0  0  0  0  0  0  0  0  0  0  0
   -2.3545    2.7945   -0.2862 O   0  0  0  0  0  0  0  0  0  0  0  0
   -5.3872   -0.0687   -1.4723 C   0  0  0  0  0  0  0  0  0  0  0  0
   -6.2741   -0.1706   -0.4020 C   0  0  0  0  0  0  0  0  0  0  0  0
   -6.2921    0.8561    0.5374 C   0  0  0  0  0  0  0  0  0  0  0  0
   -7.1508   -1.3815   -0.2416 C   0  0  0  0  0  0  0  0  0  0  0  0
   -6.4249   -2.4708    0.5417 C   0  0  0  0  0  0  0  0  0  0  0  0
   -7.2490   -3.7131    0.7395 C   0  0  0  0  0  0  0  0  0  0  0  0
   -3.6175    3.2059   -0.7720 C   0  0  0  0  0  0  0  0  0  0  0  0
   -1.3992    3.8257   -0.3713 C   0  0  0  0  0  0  0  0  0  0  0  0
   -0.1370    3.3628    0.1904 C   0  0  0  0  0  0  0  0  0  0  0  0
    0.9130    2.9995    0.6526 C   0  0  0  0  0  0  0  0  0  0  0  0
    2.1863    2.5582    1.2066 C   0  0  0  0  0  0  0  0  0  0  0  0
    3.0241    1.7289    0.2306 C   0  0  0  0  0  0  0  0  0  0  0  0
    4.3472    1.2990    0.8499 C   0  0  0  0  0  0  0  0  0  0  0  0
    5.2122    0.4701   -0.0899 C   0  0  0  0  0  0  0  0  0  0  0  0
    6.5417    0.0640    0.5343 C   0  0  0  0  0  0  0  0  0  0  0  0
    7.4192   -0.7713   -0.3884 C   0  0  0  0  0  0  0  0  0  0  0  0
    8.7465   -1.1658    0.2480 C   0  0  0  0  0  0  0  0  0  0  0  0
    9.6307   -2.0091   -0.6607 C   0  0  0  0  0  0  0  0  0  0  0  0
   10.9579   -2.3944   -0.0178 C   0  0  0  0  0  0  0  0  0  0  0  0
   11.8331   -3.2474   -0.9249 C   0  0  0  0  0  0  0  0  0  0  0  0
   -5.4809    2.7374    1.1575 H   0  0  0  0  0  0  0  0  0  0  0  0
   -7.1182   -5.4504    1.4813 H   0  0  0  0  0  0  0  0  0  0  0  0
   -3.8693    1.0825   -2.4442 H   0  0  0  0  0  0  0  0  0  0  0  0
   -5.3594   -0.8520   -2.2209 H   0  0  0  0  0  0  0  0  0  0  0  0
   -6.9764    0.8053    1.3763 H   0  0  0  0  0  0  0  0  0  0  0  0
   -8.0724   -1.1074    0.2745 H   0  0  0  0  0  0  0  0  0  0  0  0
   -7.4381   -1.7644   -1.2225 H   0  0  0  0  0  0  0  0  0  0  0  0
   -5.4930   -2.7474    0.0400 H   0  0  0  0  0  0  0  0  0  0  0  0
   -6.1286   -2.0975    1.5271 H   0  0  0  0  0  0  0  0  0  0  0  0
   -3.5370    3.5307   -1.8179 H   0  0  0  0  0  0  0  0  0  0  0  0
   -3.9898    4.0641   -0.1971 H   0  0  0  0  0  0  0  0  0  0  0  0
   -1.2462    4.1367   -1.4145 H   0  0  0  0  0  0  0  0  0  0  0  0
   -1.7352    4.7204    0.1717 H   0  0  0  0  0  0  0  0  0  0  0  0
    2.7550    3.4373    1.5243 H   0  0  0  0  0  0  0  0  0  0  0  0
    1.9983    1.9777    2.1147 H   0  0  0  0  0  0  0  0  0  0  0  0
    2.4546    0.8482   -0.0790 H   0  0  0  0  0  0  0  0  0  0  0  0
    3.2102    2.3129   -0.6748 H   0  0  0  0  0  0  0  0  0  0  0  0
    4.9031    2.1883    1.1670 H   0  0  0  0  0  0  0  0  0  0  0  0
    4.1503    0.7255    1.7623 H   0  0  0  0  0  0  0  0  0  0  0  0
    4.6638   -0.4279   -0.3951 H   0  0  0  0  0  0  0  0  0  0  0  0
    5.3995    1.0362   -1.0088 H   0  0  0  0  0  0  0  0  0  0  0  0
    7.0876    0.9646    0.8370 H   0  0  0  0  0  0  0  0  0  0  0  0
    6.3516   -0.4954    1.4572 H   0  0  0  0  0  0  0  0  0  0  0  0
    6.8772   -1.6752   -0.6885 H   0  0  0  0  0  0  0  0  0  0  0  0
    7.6108   -0.2148   -1.3125 H   0  0  0  0  0  0  0  0  0  0  0  0
    9.2882   -0.2601    0.5432 H   0  0  0  0  0  0  0  0  0  0  0  0
    8.5528   -1.7148    1.1764 H   0  0  0  0  0  0  0  0  0  0  0  0
    9.0928   -2.9180   -0.9532 H   0  0  0  0  0  0  0  0  0  0  0  0
    9.8244   -1.4627   -1.5907 H   0  0  0  0  0  0  0  0  0  0  0  0
   11.4977   -1.4855    0.2662 H   0  0  0  0  0  0  0  0  0  0  0  0
   10.7632   -2.9320    0.9154 H   0  0  0  0  0  0  0  0  0  0  0  0
   11.3318   -4.1793   -1.1929 H   0  0  0  0  0  0  0  0  0  0  0  0
   12.0681   -2.7237   -1.8534 H   0  0  0  0  0  0  0  0  0  0  0  0
   12.7771   -3.5066   -0.4443 H   0  0  0  0  0  0  0  0  0  0  0  0
  9  1  2  0
  1  3  1  0
  1 27  1  0
  2 12  1  0
  2 28  1  0
 13  3  1  0
  3  5  2  0
  4 12  2  0
  7  5  1  0
  5 29  1  0
 13  6  1  0
  6 14  1  0
  8  7  2  0
  7 30  1  0
  9  8  1  0
  8 10  1  0
  9 31  1  0
 11 10  1  0
 10 32  1  0
 10 33  1  0
 12 11  1  0
 11 34  1  0
 11 35  1  0
 13 36  1  0
 13 37  1  0
 14 15  1  0
 14 38  1  0
 14 39  1  0
 15 16  3  0
 16 17  1  0
 18 17  1  0
 17 40  1  0
 17 41  1  0
 19 18  1  0
 18 42  1  0
 18 43  1  0
 20 19  1  0
 19 44  1  0
 19 45  1  0
 21 20  1  0
 20 46  1  0
 20 47  1  0
 22 21  1  0
 21 48  1  0
 21 49  1  0
 23 22  1  0
 22 50  1  0
 22 51  1  0
 24 23  1  0
 23 52  1  0
 23 53  1  0
 24 25  1  0
 24 54  1  0
 24 55  1  0
 26 25  1  0
 25 56  1  0
 25 57  1  0
 26 58  1  0
 26 59  1  0
 26 60  1  0
M  END
