
     RDKit          3D

 31 31  0  0  0  0  0  0  0  0999 V2000
    3.9029   -0.4304    0.1156 O   0  0  0  0  0  0  0  0  0  0  0  0
    2.3066   -0.5564   -0.0970 P   0  0  1  0  0  0  0  0  0  0  0  0
    2.0346   -0.8445   -1.5276 O   0  0  0  0  0  0  0  0  0  0  0  0
    1.8171   -1.6649    0.9624 O   0  0  0  0  0  0  0  0  0  0  0  0
    1.5781    1.0019    0.5313 C   0  0  1  0  0  0  0  0  0  0  0  0
    2.3070    2.1539    0.0207 N   0  0  0  0  0  0  0  0  0  0  0  0
    0.1049    1.1449    0.1463 C   0  0  0  0  0  0  0  0  0  0  0  0
   -0.8549    0.1135    0.7270 C   0  0  0  0  0  0  0  0  0  0  0  0
   -2.3119    0.4456    0.4313 C   0  0  2  0  0  0  0  0  0  0  0  0
   -3.3035   -0.5491    1.0591 C   0  0  0  0  0  0  0  0  0  0  0  0
   -4.5390   -0.5767    0.1317 C   0  0  0  0  0  0  0  0  0  0  0  0
   -4.2127    0.3850   -1.0227 C   0  0  0  0  0  0  0  0  0  0  0  0
   -2.6883    0.4362   -1.0512 C   0  0  0  0  0  0  0  0  0  0  0  0
    4.1985   -0.3903    1.0343 H   0  0  0  0  0  0  0  0  0  0  0  0
    1.9556   -2.5776    0.6726 H   0  0  0  0  0  0  0  0  0  0  0  0
    1.6649    0.9970    1.6228 H   0  0  0  0  0  0  0  0  0  0  0  0
    3.2866    2.1159    0.2690 H   0  0  0  0  0  0  0  0  0  0  0  0
    2.2641    2.1803   -0.9911 H   0  0  0  0  0  0  0  0  0  0  0  0
   -0.1990    2.1414    0.4795 H   0  0  0  0  0  0  0  0  0  0  0  0
   -0.6455   -0.8831    0.3279 H   0  0  0  0  0  0  0  0  0  0  0  0
   -0.7084    0.0477    1.8100 H   0  0  0  0  0  0  0  0  0  0  0  0
   -2.5291    1.4473    0.8237 H   0  0  0  0  0  0  0  0  0  0  0  0
   -2.8457   -1.5407    1.1142 H   0  0  0  0  0  0  0  0  0  0  0  0
   -3.5554   -0.2670    2.0823 H   0  0  0  0  0  0  0  0  0  0  0  0
   -4.7042   -1.5854   -0.2507 H   0  0  0  0  0  0  0  0  0  0  0  0
   -5.4546   -0.2894    0.6505 H   0  0  0  0  0  0  0  0  0  0  0  0
   -4.6521    0.0712   -1.9708 H   0  0  0  0  0  0  0  0  0  0  0  0
   -4.6031    1.3829   -0.8047 H   0  0  0  0  0  0  0  0  0  0  0  0
   -2.3035    1.2974   -1.6008 H   0  0  0  0  0  0  0  0  0  0  0  0
   -2.2832   -0.4642   -1.5282 H   0  0  0  0  0  0  0  0  0  0  0  0
    0.0277    1.1509   -0.9452 H   0  0  0  0  0  0  0  0  0  0  0  0
  2  1  1  6
  2  3  2  0
  2  4  1  0
  2  5  1  0
  5  6  1  0
  5  7  1  0
  7  8  1  0
  8  9  1  0
  9 10  1  0
  9 13  1  0
 10 11  1  0
 11 12  1  0
 12 13  1  0
  1 14  1  0
  4 15  1  0
  5 16  1  1
  6 17  1  0
  6 18  1  0
  7 19  1  0
  8 20  1  0
  8 21  1  0
  9 22  1  1
 10 23  1  0
 10 24  1  0
 11 25  1  0
 11 26  1  0
 12 27  1  0
 12 28  1  0
 13 29  1  0
 13 30  1  0
  7 31  1  0
M  END
