
     RDKit          3D

 56 58  0  0  0  0  0  0  0  0999 V2000
   -5.1304   -1.8972   -0.7689 C   0  0  0  0  0  0  0  0  0  0  0  0
   -6.3581   -2.2238   -1.3304 C   0  0  0  0  0  0  0  0  0  0  0  0
   -7.5053   -1.5452   -0.9411 C   0  0  0  0  0  0  0  0  0  0  0  0
   -7.4152   -0.5410    0.0150 C   0  0  0  0  0  0  0  0  0  0  0  0
   -6.1861   -0.2195    0.5743 C   0  0  0  0  0  0  0  0  0  0  0  0
   -5.0276   -0.8920    0.1896 C   0  0  0  0  0  0  0  0  0  0  0  0
   -3.6912   -0.5053    0.7603 C   0  0  0  0  0  0  0  0  0  0  0  0
   -3.0896    0.6806    0.0001 C   0  0  0  0  0  0  0  0  0  0  0  0
   -1.7273    1.1235    0.5564 C   0  0  2  0  0  0  0  0  0  0  0  0
   -1.3635    2.4529   -0.0856 C   0  0  0  0  0  0  0  0  0  0  0  0
   -2.0031    3.4592    0.5030 O   0  0  0  0  0  0  0  0  0  0  0  0
   -0.6197    2.5957   -1.0203 O   0  0  0  0  0  0  0  0  0  0  0  0
   -6.1257    0.5630    1.3219 H   0  0  0  0  0  0  0  0  0  0  0  0
   -8.3042   -0.0076    0.3270 H   0  0  0  0  0  0  0  0  0  0  0  0
   -8.4631   -1.7967   -1.3779 H   0  0  0  0  0  0  0  0  0  0  0  0
   -6.4172   -3.0105   -2.0715 H   0  0  0  0  0  0  0  0  0  0  0  0
   -4.2407   -2.4344   -1.0777 H   0  0  0  0  0  0  0  0  0  0  0  0
   -3.7977   -0.2335    1.8139 H   0  0  0  0  0  0  0  0  0  0  0  0
   -3.0243   -1.3700    0.7234 H   0  0  0  0  0  0  0  0  0  0  0  0
   -2.9736    0.4288   -1.0576 H   0  0  0  0  0  0  0  0  0  0  0  0
   -3.7905    1.5156    0.0546 H   0  0  0  0  0  0  0  0  0  0  0  0
   -1.8578    1.3078    1.6339 H   0  0  0  0  0  0  0  0  0  0  0  0
   -1.8053    4.2905    0.0463 H   0  0  0  0  0  0  0  0  0  0  0  0
   -0.7213    0.1376    0.2530 N   0  0  0  0  0  0  0  0  0  0  0  0
    0.5356    0.2785    0.9600 C   0  0  1  0  0  0  0  0  0  0  0  0
    0.4595    0.0669    2.4788 C   0  0  0  0  0  0  0  0  0  0  0  0
    1.5045   -0.7634    0.4098 C   0  0  0  0  0  0  0  0  0  0  0  0
    1.0989   -1.8877    0.1484 O   0  0  0  0  0  0  0  0  0  0  0  0
   -1.0840   -0.7948    0.3972 H   0  0  0  0  0  0  0  0  0  0  0  0
    0.8963    1.2912    0.7807 H   0  0  0  0  0  0  0  0  0  0  0  0
    0.1355   -0.9482    2.7112 H   0  0  0  0  0  0  0  0  0  0  0  0
    1.4276    0.2326    2.9540 H   0  0  0  0  0  0  0  0  0  0  0  0
   -0.2460    0.7611    2.9349 H   0  0  0  0  0  0  0  0  0  0  0  0
    2.8096   -0.4459    0.3296 N   0  0  0  0  0  0  0  0  0  0  0  0
    3.8223   -1.4617    0.1096 C   0  0  1  0  0  0  0  0  0  0  0  0
    4.1511   -1.8217   -1.3387 C   0  0  0  0  0  0  0  0  0  0  0  0
    5.5708   -2.3692   -1.2137 C   0  0  0  0  0  0  0  0  0  0  0  0
    6.2568   -1.4560   -0.1777 C   0  0  0  0  0  0  0  0  0  0  0  0
    5.1136   -0.8354    0.6473 C   0  0  1  0  0  0  0  0  0  0  0  0
    4.8998    0.6653    0.4224 C   0  0  0  0  0  0  0  0  0  0  0  0
    3.3705    0.8778    0.5008 C   0  0  1  0  0  0  0  0  0  0  0  0
    2.9441    1.8198   -0.6089 C   0  0  0  0  0  0  0  0  0  0  0  0
    3.1722    3.0806   -0.2689 O   0  0  0  0  0  0  0  0  0  0  0  0
    2.5064    1.4717   -1.6727 O   0  0  0  0  0  0  0  0  0  0  0  0
    3.5502   -2.3663    0.6571 H   0  0  0  0  0  0  0  0  0  0  0  0
    3.0987    1.3048    1.4704 H   0  0  0  0  0  0  0  0  0  0  0  0
    3.4468   -2.5360   -1.7654 H   0  0  0  0  0  0  0  0  0  0  0  0
    4.1308   -0.9254   -1.9641 H   0  0  0  0  0  0  0  0  0  0  0  0
    5.2252   -1.0339    1.7147 H   0  0  0  0  0  0  0  0  0  0  0  0
    5.5334   -3.3951   -0.8387 H   0  0  0  0  0  0  0  0  0  0  0  0
    6.1018   -2.3989   -2.1655 H   0  0  0  0  0  0  0  0  0  0  0  0
    6.9543   -2.0129    0.4477 H   0  0  0  0  0  0  0  0  0  0  0  0
    6.8372   -0.6764   -0.6753 H   0  0  0  0  0  0  0  0  0  0  0  0
    5.4159    1.2835    1.1544 H   0  0  0  0  0  0  0  0  0  0  0  0
    5.2784    0.9499   -0.5621 H   0  0  0  0  0  0  0  0  0  0  0  0
    2.9552    3.6726   -1.0051 H   0  0  0  0  0  0  0  0  0  0  0  0
  5  4  1  0
  5  6  2  0
  4  3  2  0
  3  2  1  0
  2  1  2  0
  1  6  1  0
  6  7  1  0
  7  8  1  0
  8  9  1  0
  9 10  1  0
  9 24  1  0
 10 11  1  0
 10 12  2  0
 24 25  1  0
 25 26  1  0
 25 27  1  0
 27 28  2  0
 27 34  1  0
 34 35  1  0
 34 41  1  0
 35 36  1  0
 35 39  1  0
 36 37  1  0
 37 38  1  0
 38 39  1  0
 39 40  1  0
 40 41  1  0
 41 42  1  0
 42 43  1  0
 42 44  2  0
  5 13  1  0
  4 14  1  0
  3 15  1  0
  2 16  1  0
  1 17  1  0
  7 18  1  0
  7 19  1  0
  8 20  1  0
  8 21  1  0
  9 22  1  1
 24 29  1  0
 11 23  1  0
 25 30  1  1
 26 31  1  0
 26 32  1  0
 26 33  1  0
 35 45  1  1
 41 46  1  1
 36 47  1  0
 36 48  1  0
 39 49  1  1
 37 50  1  0
 37 51  1  0
 38 52  1  0
 38 53  1  0
 40 54  1  0
 40 55  1  0
 43 56  1  0
M  END
