
     RDKit          3D

 47 50  0  0  0  0  0  0  0  0999 V2000
    2.5235   -1.6840    0.1337 C   0  0  0  0  0  0  0  0  0  0  0  0
    2.8785   -2.9750    0.5532 C   0  0  0  0  0  0  0  0  0  0  0  0
    4.7433   -1.9629   -0.1109 C   0  0  0  0  0  0  0  0  0  0  0  0
    3.7348   -1.0641   -0.2869 C   0  0  0  0  0  0  0  0  0  0  0  0
   -3.1163    1.4887   -0.6698 C   0  0  0  0  0  0  0  0  0  0  0  0
   -0.7429    1.7348   -0.2801 C   0  0  0  0  0  0  0  0  0  0  0  0
   -1.9904    2.2875   -0.5306 C   0  0  0  0  0  0  0  0  0  0  0  0
   -0.6067    0.3282   -0.2147 C   0  0  0  0  0  0  0  0  0  0  0  0
   -1.7337   -0.4750   -0.3296 C   0  0  0  0  0  0  0  0  0  0  0  0
   -2.9721    0.1179   -0.5454 C   0  0  0  0  0  0  0  0  0  0  0  0
   -5.4623   -0.1972   -1.2760 O   0  0  0  0  0  0  0  0  0  0  0  0
   -3.9990   -2.2381   -1.0740 O   0  0  0  0  0  0  0  0  0  0  0  0
    4.2133   -3.1165    0.3991 N   0  0  0  0  0  0  0  0  0  0  0  0
    1.1514   -1.3755    0.2335 C   0  0  0  0  0  0  0  0  0  0  0  0
    0.7890   -3.4884    1.0472 C   0  0  0  0  0  0  0  0  0  0  0  0
    0.8106    2.6579    1.3022 C   0  0  0  0  0  0  0  0  0  0  0  0
    0.4754    3.7860   -0.7882 C   0  0  0  0  0  0  0  0  0  0  0  0
    2.2558    4.5011    0.6863 O   0  0  0  0  0  0  0  0  0  0  0  0
    0.6936   -0.1480   -0.1135 N   0  0  0  0  0  0  0  0  0  0  0  0
    2.1932    3.2750    1.3788 C   0  0  0  0  0  0  0  0  0  0  0  0
    1.8806    4.3443   -0.6640 C   0  0  0  0  0  0  0  0  0  0  0  0
   -4.8905   -1.1344    0.9595 N   0  0  0  0  0  0  0  0  0  0  0  0
   -4.4023   -0.9248   -0.5976 S   0  0  1  0  0  0  0  0  0  0  0  0
    3.9206    0.5181   -0.9262 Cl  0  0  0  0  0  0  0  0  0  0  0  0
    0.3114   -2.2959    0.6873 N   0  0  0  0  0  0  0  0  0  0  0  0
    2.0368   -3.9000    1.0158 N   0  0  0  0  0  0  0  0  0  0  0  0
    0.4195    2.5045   -0.1021 N   0  0  0  0  0  0  0  0  0  0  0  0
   -5.3201    0.0310    1.7199 C   0  0  0  0  0  0  0  0  0  0  0  0
    5.7967   -1.8679   -0.3136 H   0  0  0  0  0  0  0  0  0  0  0  0
   -4.0784    1.9430   -0.8606 H   0  0  0  0  0  0  0  0  0  0  0  0
   -2.0989    3.3612   -0.6039 H   0  0  0  0  0  0  0  0  0  0  0  0
   -1.6364   -1.5476   -0.2727 H   0  0  0  0  0  0  0  0  0  0  0  0
    0.0520   -4.1962    1.4098 H   0  0  0  0  0  0  0  0  0  0  0  0
    0.8267    1.6864    1.7991 H   0  0  0  0  0  0  0  0  0  0  0  0
    0.0855    3.2882    1.8367 H   0  0  0  0  0  0  0  0  0  0  0  0
   -0.2382    4.5113   -0.3719 H   0  0  0  0  0  0  0  0  0  0  0  0
    0.2334    3.6458   -1.8429 H   0  0  0  0  0  0  0  0  0  0  0  0
    1.3825    0.5511   -0.3654 H   0  0  0  0  0  0  0  0  0  0  0  0
    2.4509    3.4726    2.4200 H   0  0  0  0  0  0  0  0  0  0  0  0
    2.9298    2.5664    0.9768 H   0  0  0  0  0  0  0  0  0  0  0  0
    2.5821    3.6793   -1.1864 H   0  0  0  0  0  0  0  0  0  0  0  0
    1.9320    5.3270   -1.1343 H   0  0  0  0  0  0  0  0  0  0  0  0
   -4.2688   -1.7525    1.4688 H   0  0  0  0  0  0  0  0  0  0  0  0
   -4.5396    0.7879    1.8380 H   0  0  0  0  0  0  0  0  0  0  0  0
   -6.1878    0.4858    1.2492 H   0  0  0  0  0  0  0  0  0  0  0  0
   -5.6145   -0.3129    2.7077 H   0  0  0  0  0  0  0  0  0  0  0  0
    4.7416   -3.9441    0.6284 H   0  0  0  0  0  0  0  0  0  0  0  0
 28 22  1  0
 26 15  1  0
 26  2  2  0
 23 22  1  1
 15 25  2  0
 13  2  1  0
 13  3  1  0
  2  1  1  0
 25 14  1  0
  3  4  2  0
 16 20  1  0
 16 27  1  0
  1 14  2  0
  1  4  1  0
 14 19  1  0
 20 18  1  0
  4 24  1  0
 19  8  1  0
  9  8  2  0
  9 10  1  0
  8  6  1  0
 11 23  2  0
 23 10  1  0
 23 12  2  0
 10  5  2  0
  6 27  1  0
  6  7  2  0
 27 17  1  0
 18 21  1  0
  5  7  1  0
 17 21  1  0
  3 29  1  0
  5 30  1  0
  7 31  1  0
  9 32  1  0
 15 33  1  0
 16 34  1  0
 16 35  1  0
 17 36  1  0
 17 37  1  0
 19 38  1  0
 20 39  1  0
 20 40  1  0
 21 41  1  0
 21 42  1  0
 22 43  1  0
 28 44  1  0
 28 45  1  0
 28 46  1  0
 13 47  1  0
M  END
