
     RDKit          3D

 56 60  0  0  0  0  0  0  0  0999 V2000
    3.8918    2.5506    1.1786 C   0  0  0  0  0  0  0  0  0  0  0  0
    1.1752    3.8462   -0.8395 C   0  0  0  0  0  0  0  0  0  0  0  0
    0.3519    1.8496   -2.1087 C   0  0  0  0  0  0  0  0  0  0  0  0
   -1.5646    1.5544   -0.4947 C   0  0  0  0  0  0  0  0  0  0  0  0
   -3.5617   -1.4600    0.6604 C   0  0  0  0  0  0  0  0  0  0  0  0
   -5.8030   -1.6190    1.4830 C   0  0  0  0  0  0  0  0  0  0  0  0
   -7.7663   -0.9585    0.0709 C   0  0  0  0  0  0  0  0  0  0  0  0
   -5.4136   -0.9547   -0.7889 C   0  0  0  0  0  0  0  0  0  0  0  0
   -0.7113   -0.3792   -1.6127 C   0  0  0  0  0  0  0  0  0  0  0  0
    5.3494   -2.9776    0.8052 C   0  0  0  0  0  0  0  0  0  0  0  0
    4.4999   -3.1246   -0.2281 N   0  0  0  0  0  0  0  0  0  0  0  0
    3.8336   -2.0004   -0.5287 N   0  0  0  0  0  0  0  0  0  0  0  0
    4.2710   -1.1038    0.3367 C   0  0  0  0  0  0  0  0  0  0  0  0
    3.7586    0.2704    0.3247 C   0  0  0  0  0  0  0  0  0  0  0  0
    2.7007    0.6170   -0.5056 C   0  0  0  0  0  0  0  0  0  0  0  0
    2.2518    1.9328   -0.4845 C   0  0  0  0  0  0  0  0  0  0  0  0
    2.8270    2.9174    0.3495 C   0  0  0  0  0  0  0  0  0  0  0  0
    4.3419    1.2475    1.1586 C   0  0  0  0  0  0  0  0  0  0  0  0
    2.1185    4.1324    0.1036 C   0  0  0  0  0  0  0  0  0  0  0  0
    1.2527    2.5286   -1.2054 N   0  0  0  0  0  0  0  0  0  0  0  0
   -0.6578    0.9891   -1.3907 C   0  0  0  0  0  0  0  0  0  0  0  0
   -2.4970    0.7680    0.1590 C   0  0  0  0  0  0  0  0  0  0  0  0
   -2.5537   -0.6082   -0.0652 C   0  0  0  0  0  0  0  0  0  0  0  0
   -4.9055   -0.9282    0.5725 N   0  0  0  0  0  0  0  0  0  0  0  0
   -7.1876   -0.9889    1.4795 C   0  0  0  0  0  0  0  0  0  0  0  0
   -6.7797   -0.2923   -0.8791 C   0  0  0  0  0  0  0  0  0  0  0  0
   -1.6535   -1.1678   -0.9608 C   0  0  0  0  0  0  0  0  0  0  0  0
    5.2325   -1.6610    1.2094 C   0  0  0  0  0  0  0  0  0  0  0  0
    4.3612    3.2770    1.8301 H   0  0  0  0  0  0  0  0  0  0  0  0
    0.4424    4.4924   -1.2978 H   0  0  0  0  0  0  0  0  0  0  0  0
   -0.1514    2.6156   -2.7006 H   0  0  0  0  0  0  0  0  0  0  0  0
    0.9319    1.2436   -2.8082 H   0  0  0  0  0  0  0  0  0  0  0  0
   -1.5443    2.6218   -0.3063 H   0  0  0  0  0  0  0  0  0  0  0  0
   -3.4961   -2.4972    0.2882 H   0  0  0  0  0  0  0  0  0  0  0  0
   -3.2895   -1.5011    1.7202 H   0  0  0  0  0  0  0  0  0  0  0  0
   -5.8927   -2.6899    1.2234 H   0  0  0  0  0  0  0  0  0  0  0  0
   -5.3787   -1.5752    2.4894 H   0  0  0  0  0  0  0  0  0  0  0  0
   -7.9575   -1.9830   -0.2663 H   0  0  0  0  0  0  0  0  0  0  0  0
   -8.7271   -0.4389    0.0604 H   0  0  0  0  0  0  0  0  0  0  0  0
   -4.7096   -0.4330   -1.4400 H   0  0  0  0  0  0  0  0  0  0  0  0
   -5.4859   -1.9924   -1.1643 H   0  0  0  0  0  0  0  0  0  0  0  0
   -0.0209   -0.8412   -2.3094 H   0  0  0  0  0  0  0  0  0  0  0  0
    5.7873   -4.9170    1.1586 H   0  0  0  0  0  0  0  0  0  0  0  0
    6.5470   -3.8359    2.1581 H   0  0  0  0  0  0  0  0  0  0  0  0
    4.3412   -3.9591   -0.7696 H   0  0  0  0  0  0  0  0  0  0  0  0
    2.2431   -0.1256   -1.1462 H   0  0  0  0  0  0  0  0  0  0  0  0
    5.1717    0.9735    1.7970 H   0  0  0  0  0  0  0  0  0  0  0  0
    2.2894    5.0942    0.5604 H   0  0  0  0  0  0  0  0  0  0  0  0
   -3.2041    1.2259    0.8399 H   0  0  0  0  0  0  0  0  0  0  0  0
   -7.8384   -1.5475    2.1559 H   0  0  0  0  0  0  0  0  0  0  0  0
   -7.1170    0.0304    1.8708 H   0  0  0  0  0  0  0  0  0  0  0  0
   -7.1367   -0.3429   -1.9102 H   0  0  0  0  0  0  0  0  0  0  0  0
   -6.6795    0.7673   -0.6251 H   0  0  0  0  0  0  0  0  0  0  0  0
   -1.6845   -2.2330   -1.1579 H   0  0  0  0  0  0  0  0  0  0  0  0
    5.7570   -1.1911    2.0248 H   0  0  0  0  0  0  0  0  0  0  0  0
    6.1743   -3.9880    1.2342 N   0  0  0  0  0  0  0  0  0  0  0  0
 25  6  1  0
 25  7  1  0
  6 24  1  0
  7 26  1  0
 24  5  1  0
 24  8  1  0
  5 23  1  0
 26  8  1  0
 23 22  1  0
 23 27  2  0
 22  4  2  0
  4 21  1  0
 27  9  1  0
  9 21  2  0
 21  3  1  0
  2 19  2  0
  2 20  1  0
 19 17  1  0
 20  3  1  0
 20 16  1  0
 17 16  1  0
 17  1  2  0
 16 15  2  0
  1 18  1  0
 15 14  1  0
 18 14  2  0
 14 13  1  0
 28 13  1  0
 28 10  2  0
 13 12  2  0
 10 56  1  0
 10 11  1  0
 12 11  1  0
  1 29  1  0
  2 30  1  0
  3 31  1  0
  3 32  1  0
  4 33  1  0
  5 34  1  0
  5 35  1  0
  6 36  1  0
  6 37  1  0
  7 38  1  0
  7 39  1  0
  8 40  1  0
  8 41  1  0
  9 42  1  0
 56 43  1  0
 56 44  1  0
 11 45  1  0
 15 46  1  0
 18 47  1  0
 19 48  1  0
 22 49  1  0
 25 50  1  0
 25 51  1  0
 26 52  1  0
 26 53  1  0
 27 54  1  0
 28 55  1  0
M  END
