
     RDKit          3D

 41 43  0  0  0  0  0  0  0  0999 V2000
    2.0002    2.5914   -0.3791 O   0  0  0  0  0  0  0  0  0  0  0  0
    3.1121    2.2777   -0.0514 C   0  0  0  0  0  0  0  0  0  0  0  0
    4.0831    3.1279    0.2266 O   0  0  0  0  0  0  0  0  0  0  0  0
    3.5802    0.8597    0.0794 C   0  0  0  0  0  0  0  0  0  0  0  0
    4.9319    0.6798   -0.0746 N   0  0  0  0  0  0  0  0  0  0  0  0
    5.5566   -0.5314   -0.0168 C   0  0  0  0  0  0  0  0  0  0  0  0
    6.7512   -0.6728   -0.1710 O   0  0  0  0  0  0  0  0  0  0  0  0
    4.7034   -1.5746    0.2308 N   0  0  0  0  0  0  0  0  0  0  0  0
    3.3380   -1.5119    0.4075 C   0  0  0  0  0  0  0  0  0  0  0  0
    2.6979   -2.5251    0.6102 O   0  0  0  0  0  0  0  0  0  0  0  0
    2.7455   -0.1726    0.3304 C   0  0  0  0  0  0  0  0  0  0  0  0
    1.2633   -0.0916    0.5278 C   0  0  0  0  0  0  0  0  0  0  0  0
    0.4904   -0.3435   -0.7763 C   0  0  0  0  0  0  0  0  0  0  0  0
   -0.9912   -0.2309   -0.5650 C   0  0  0  0  0  0  0  0  0  0  0  0
   -1.7954   -1.3384   -0.4950 C   0  0  0  0  0  0  0  0  0  0  0  0
   -1.5803    1.0441   -0.3992 C   0  0  0  0  0  0  0  0  0  0  0  0
   -2.9219    1.1836   -0.1735 C   0  0  0  0  0  0  0  0  0  0  0  0
   -3.7622    0.0483   -0.0982 C   0  0  0  0  0  0  0  0  0  0  0  0
   -3.1871   -1.2365   -0.2633 C   0  0  0  0  0  0  0  0  0  0  0  0
   -4.0097   -2.3872   -0.1951 C   0  0  0  0  0  0  0  0  0  0  0  0
   -5.3492   -2.2527    0.0312 C   0  0  0  0  0  0  0  0  0  0  0  0
   -5.9415   -0.9834    0.1959 C   0  0  0  0  0  0  0  0  0  0  0  0
   -5.1671    0.1501    0.1320 C   0  0  0  0  0  0  0  0  0  0  0  0
   -5.6365    1.4008    0.2723 O   0  0  0  0  0  0  0  0  0  0  0  0
   -7.0217    1.5827    0.4899 C   0  0  0  0  0  0  0  0  0  0  0  0
    3.7857    4.0429    0.1012 H   0  0  0  0  0  0  0  0  0  0  0  0
    5.5232    1.4757   -0.2691 H   0  0  0  0  0  0  0  0  0  0  0  0
    5.1260   -2.4939    0.2791 H   0  0  0  0  0  0  0  0  0  0  0  0
    0.9724   -0.8456    1.2606 H   0  0  0  0  0  0  0  0  0  0  0  0
    0.9791    0.8714    0.9464 H   0  0  0  0  0  0  0  0  0  0  0  0
    0.8133    0.3796   -1.5279 H   0  0  0  0  0  0  0  0  0  0  0  0
    0.7360   -1.3352   -1.1604 H   0  0  0  0  0  0  0  0  0  0  0  0
   -1.3664   -2.3265   -0.6239 H   0  0  0  0  0  0  0  0  0  0  0  0
   -0.9529    1.9259   -0.4587 H   0  0  0  0  0  0  0  0  0  0  0  0
   -3.3380    2.1746   -0.0540 H   0  0  0  0  0  0  0  0  0  0  0  0
   -3.5656   -3.3661   -0.3259 H   0  0  0  0  0  0  0  0  0  0  0  0
   -5.9821   -3.1288    0.0880 H   0  0  0  0  0  0  0  0  0  0  0  0
   -7.0069   -0.9275    0.3707 H   0  0  0  0  0  0  0  0  0  0  0  0
   -7.1832    2.6541    0.5764 H   0  0  0  0  0  0  0  0  0  0  0  0
   -7.6162    1.2006   -0.3440 H   0  0  0  0  0  0  0  0  0  0  0  0
   -7.3540    1.0982    1.4112 H   0  0  0  0  0  0  0  0  0  0  0  0
 21 20  2  0
 21 22  1  0
 20 19  1  0
 22 23  2  0
 19 15  2  0
 19 18  1  0
 15 14  1  0
 23 18  1  0
 23 24  1  0
 18 17  2  0
 14 13  1  0
 14 16  2  0
 13 12  1  0
 25 24  1  0
 17 16  1  0
 12 11  1  0
 10  9  2  0
 11  9  1  0
 11  4  2  0
  9  8  1  0
  4  2  1  0
  4  5  1  0
  2  1  2  0
  2  3  1  0
  8  6  1  0
  5  6  1  0
  6  7  2  0
  3 26  1  0
  5 27  1  0
  8 28  1  0
 12 29  1  0
 12 30  1  0
 13 31  1  0
 13 32  1  0
 15 33  1  0
 16 34  1  0
 17 35  1  0
 20 36  1  0
 21 37  1  0
 22 38  1  0
 25 39  1  0
 25 40  1  0
 25 41  1  0
M  END
