
     RDKit          3D

 25 25  0  0  0  0  0  0  0  0999 V2000
   -0.0265   -0.6683   -1.1834 C   0  0  0  0  0  0  0  0  0  0  0  0
   -1.2235   -0.3285   -0.5597 C   0  0  0  0  0  0  0  0  0  0  0  0
   -1.2835   -0.0802    0.8050 C   0  0  0  0  0  0  0  0  0  0  0  0
   -0.1221   -0.1765    1.5569 C   0  0  0  0  0  0  0  0  0  0  0  0
   -0.1941    0.1871    3.6295 I   0  0  0  0  0  0  0  0  0  0  0  0
    1.0850   -0.5160    0.9636 C   0  0  0  0  0  0  0  0  0  0  0  0
    1.1221   -0.7552   -0.4034 C   0  0  0  0  0  0  0  0  0  0  0  0
    0.0183   -0.9034   -2.6642 C   0  0  0  0  0  0  0  0  0  0  0  0
    0.2435    0.3999   -3.4452 C   0  0  1  0  0  0  0  0  0  0  0  0
    1.5314    0.9687   -3.1187 N   0  0  0  0  0  0  0  0  0  0  0  0
    0.0952    0.0948   -4.9353 C   0  0  0  0  0  0  0  0  0  0  0  0
    0.9273   -0.5453   -5.5553 O   0  0  0  0  0  0  0  0  0  0  0  0
   -1.0420    0.5652   -5.4702 N   0  0  0  0  0  0  0  0  0  0  0  0
   -1.2769    0.4575   -6.8072 O   0  0  0  0  0  0  0  0  0  0  0  0
   -2.1333   -0.2593   -1.1447 H   0  0  0  0  0  0  0  0  0  0  0  0
   -2.2287    0.1798    1.2615 H   0  0  0  0  0  0  0  0  0  0  0  0
    1.9928   -0.5960    1.5467 H   0  0  0  0  0  0  0  0  0  0  0  0
    2.0653   -1.0246   -0.8615 H   0  0  0  0  0  0  0  0  0  0  0  0
   -0.9190   -1.3588   -2.9930 H   0  0  0  0  0  0  0  0  0  0  0  0
    0.8165   -1.6079   -2.9112 H   0  0  0  0  0  0  0  0  0  0  0  0
   -0.5259    1.1161   -3.1391 H   0  0  0  0  0  0  0  0  0  0  0  0
    2.2696    0.3886   -3.4997 H   0  0  0  0  0  0  0  0  0  0  0  0
    1.6321    1.8790   -3.5501 H   0  0  0  0  0  0  0  0  0  0  0  0
   -1.6523    1.2014   -4.9782 H   0  0  0  0  0  0  0  0  0  0  0  0
   -1.8210   -0.3323   -6.9229 H   0  0  0  0  0  0  0  0  0  0  0  0
  1  2  2  0
  1  7  1  0
  1  8  1  0
  2  3  1  0
  2 15  1  0
  3  4  2  0
  3 16  1  0
  4  5  1  0
  4  6  1  0
  6  7  2  0
  6 17  1  0
  7 18  1  0
  8  9  1  0
  8 19  1  0
  8 20  1  0
  9 10  1  0
  9 11  1  0
  9 21  1  1
 10 22  1  0
 10 23  1  0
 11 12  2  0
 11 13  1  0
 13 14  1  0
 13 24  1  0
 14 25  1  0
M  END
