
     RDKit          3D

 19 19  0  0  0  0  0  0  0  0999 V2000
    2.3455    1.2192    0.1108 C   0  0  0  0  0  0  0  0  0  0  0  0
    1.6236   -0.0303    0.0280 N   0  0  0  0  0  0  0  0  0  0  0  0
    2.3451   -1.2805   -0.0453 C   0  0  0  0  0  0  0  0  0  0  0  0
    0.2716   -0.0296    0.0228 C   0  0  0  0  0  0  0  0  0  0  0  0
   -0.4792    1.1631    0.0684 C   0  0  0  0  0  0  0  0  0  0  0  0
   -1.8575    1.0973    0.0587 C   0  0  0  0  0  0  0  0  0  0  0  0
   -2.5673   -0.0279    0.0100 N   0  0  0  0  0  0  0  0  0  0  0  0
   -1.8585   -1.1540   -0.0320 C   0  0  0  0  0  0  0  0  0  0  0  0
   -0.4802   -1.2215   -0.0287 C   0  0  0  0  0  0  0  0  0  0  0  0
    2.0981    1.7728    1.0199 H   0  0  0  0  0  0  0  0  0  0  0  0
    3.4127    1.0192    0.1254 H   0  0  0  0  0  0  0  0  0  0  0  0
    2.1414    1.8696   -0.7438 H   0  0  0  0  0  0  0  0  0  0  0  0
    2.1017   -1.8378   -0.9532 H   0  0  0  0  0  0  0  0  0  0  0  0
    3.4126   -1.0815   -0.0560 H   0  0  0  0  0  0  0  0  0  0  0  0
    2.1363   -1.9273    0.8110 H   0  0  0  0  0  0  0  0  0  0  0  0
   -0.0042    2.1331    0.1088 H   0  0  0  0  0  0  0  0  0  0  0  0
   -2.4243    2.0224    0.0925 H   0  0  0  0  0  0  0  0  0  0  0  0
   -2.4261   -2.0785   -0.0713 H   0  0  0  0  0  0  0  0  0  0  0  0
   -0.0061   -2.1921   -0.0647 H   0  0  0  0  0  0  0  0  0  0  0  0
  3  2  1  0
  9  8  1  0
  9  4  2  0
  8  7  2  0
  2  4  1  0
  2  1  1  0
  4  5  1  0
  7  6  1  0
  5  6  2  0
  1 10  1  0
  1 11  1  0
  1 12  1  0
  3 13  1  0
  3 14  1  0
  3 15  1  0
  5 16  1  0
  6 17  1  0
  8 18  1  0
  9 19  1  0
M  END
