
     RDKit          3D

 34 35  0  0  0  0  0  0  0  0999 V2000
   -1.2133    1.1340   -0.3025 C   0  0  0  0  0  0  0  0  0  0  0  0
   -1.7514    2.0889   -1.1497 C   0  0  0  0  0  0  0  0  0  0  0  0
   -2.4874    3.1325   -0.6072 C   0  0  0  0  0  0  0  0  0  0  0  0
    0.4748   -0.5189   -0.2386 C   0  0  0  0  0  0  0  0  0  0  0  0
    2.5397   -0.3204    1.0283 C   0  0  0  0  0  0  0  0  0  0  0  0
   -2.1245    2.2561    1.5971 C   0  0  0  0  0  0  0  0  0  0  0  0
   -1.3961    1.1981    1.0699 C   0  0  0  0  0  0  0  0  0  0  0  0
   -0.5208    0.0988   -0.9019 O   0  0  0  0  0  0  0  0  0  0  0  0
    1.5052    0.2205    0.1545 N   0  0  0  0  0  0  0  0  0  0  0  0
    1.8050    1.5660   -0.3230 C   0  0  0  0  0  0  0  0  0  0  0  0
    3.1970    1.5768   -0.9392 C   0  0  0  0  0  0  0  0  0  0  0  0
    4.1743    1.0916   -0.0505 O   0  0  0  0  0  0  0  0  0  0  0  0
    3.8907   -0.2320    0.3433 C   0  0  0  0  0  0  0  0  0  0  0  0
    0.4413   -1.7982   -0.0385 N   0  0  0  0  0  0  0  0  0  0  0  0
   -0.9446   -2.6099   -0.3223 S   0  0  1  0  0  0  0  0  0  0  0  0
   -0.4618   -4.0636    0.3036 N   0  0  0  0  0  0  0  0  0  0  0  0
   -2.0539   -2.0219    0.4220 O   0  0  0  0  0  0  0  0  0  0  0  0
   -1.1681   -2.8473   -1.7415 O   0  0  0  0  0  0  0  0  0  0  0  0
   -2.6712    3.2241    0.7661 C   0  0  0  0  0  0  0  0  0  0  0  0
   -1.5956    2.0167   -2.2186 H   0  0  0  0  0  0  0  0  0  0  0  0
   -2.9117    3.8802   -1.2641 H   0  0  0  0  0  0  0  0  0  0  0  0
    2.3081   -1.3506    1.2824 H   0  0  0  0  0  0  0  0  0  0  0  0
   -2.2699    2.3133    2.6677 H   0  0  0  0  0  0  0  0  0  0  0  0
   -0.9997    0.4367    1.7292 H   0  0  0  0  0  0  0  0  0  0  0  0
    1.0972    1.8930   -1.0794 H   0  0  0  0  0  0  0  0  0  0  0  0
    1.7476    2.2612    0.5183 H   0  0  0  0  0  0  0  0  0  0  0  0
    3.1813    0.9834   -1.8638 H   0  0  0  0  0  0  0  0  0  0  0  0
    3.4641    2.6017   -1.1985 H   0  0  0  0  0  0  0  0  0  0  0  0
    4.6717   -0.5463    1.0361 H   0  0  0  0  0  0  0  0  0  0  0  0
    3.9089   -0.9072   -0.5228 H   0  0  0  0  0  0  0  0  0  0  0  0
   -0.2952   -4.0124    1.3035 H   0  0  0  0  0  0  0  0  0  0  0  0
   -1.1592   -4.7769    0.1144 H   0  0  0  0  0  0  0  0  0  0  0  0
   -3.2387    4.0432    1.1865 H   0  0  0  0  0  0  0  0  0  0  0  0
    2.5447    0.2693    1.9495 H   0  0  0  0  0  0  0  0  0  0  0  0
  1  2  2  0
  1  7  1  0
  1  8  1  0
  2  3  1  0
  3 19  2  0
  4  8  1  0
  4  9  1  0
  4 14  2  0
  5  9  1  0
  5 13  1  0
  6  7  2  0
  6 19  1  0
  9 10  1  0
 10 11  1  0
 11 12  1  0
 12 13  1  0
 15 14  1  6
 15 16  1  0
 15 17  2  0
 15 18  2  0
  2 20  1  0
  3 21  1  0
  5 34  1  0
  5 22  1  0
  6 23  1  0
  7 24  1  0
 10 25  1  0
 10 26  1  0
 11 27  1  0
 11 28  1  0
 13 29  1  0
 13 30  1  0
 16 31  1  0
 16 32  1  0
 19 33  1  0
M  END
