
     RDKit          3D

 48 49  0  0  0  0  0  0  0  0999 V2000
   -3.8401   -2.0296   -1.4275 C   0  0  0  0  0  0  0  0  0  0  0  0
   -3.0959   -1.7262   -0.1261 C   0  0  0  0  0  0  0  0  0  0  0  0
   -2.7960   -0.2656    0.0212 C   0  0  0  0  0  0  0  0  0  0  0  0
   -3.7118    0.8085    0.2839 C   0  0  0  0  0  0  0  0  0  0  0  0
   -3.0128    2.0056    0.1025 C   0  0  0  0  0  0  0  0  0  0  0  0
    2.7375   -1.4103   -0.0261 C   0  0  0  0  0  0  0  0  0  0  0  0
    1.4575   -1.8651   -0.6834 C   0  0  0  0  0  0  0  0  0  0  0  0
    3.4773   -2.2873    0.7594 C   0  0  0  0  0  0  0  0  0  0  0  0
   -3.4164    3.4273    0.2631 C   0  0  0  0  0  0  0  0  0  0  0  0
   -5.1049    0.7835    0.7230 C   0  0  0  0  0  0  0  0  0  0  0  0
   -5.6999   -0.5058    1.2289 C   0  0  0  0  0  0  0  0  0  0  0  0
   -1.5919    0.3222   -0.2870 C   0  0  0  0  0  0  0  0  0  0  0  0
   -0.2970   -0.1951   -0.7783 C   0  0  0  0  0  0  0  0  0  0  0  0
   -1.7625    1.6832   -0.2467 N   0  0  0  0  0  0  0  0  0  0  0  0
    0.2755   -1.2289   -0.1233 N   0  0  0  0  0  0  0  0  0  0  0  0
   -5.7783    1.8025    0.7224 O   0  0  0  0  0  0  0  0  0  0  0  0
    0.2171    0.3342   -1.7600 O   0  0  0  0  0  0  0  0  0  0  0  0
    3.1887   -0.1036   -0.1802 C   0  0  0  0  0  0  0  0  0  0  0  0
    4.3653    0.3251    0.4246 C   0  0  0  0  0  0  0  0  0  0  0  0
    5.0911   -0.5651    1.2157 C   0  0  0  0  0  0  0  0  0  0  0  0
    4.6455   -1.8661    1.3809 C   0  0  0  0  0  0  0  0  0  0  0  0
    3.9659    2.5919   -0.1450 O   0  0  0  0  0  0  0  0  0  0  0  0
    6.0675    2.0393    0.4409 N   0  0  0  0  0  0  0  0  0  0  0  0
   -0.0599   -1.6465    1.2230 C   0  0  0  0  0  0  0  0  0  0  0  0
   -4.0602   -3.0947   -1.5051 H   0  0  0  0  0  0  0  0  0  0  0  0
   -4.7834   -1.4880   -1.4980 H   0  0  0  0  0  0  0  0  0  0  0  0
   -3.2352   -1.7478   -2.2899 H   0  0  0  0  0  0  0  0  0  0  0  0
   -3.6650   -2.1007    0.7249 H   0  0  0  0  0  0  0  0  0  0  0  0
   -2.1684   -2.2974   -0.1312 H   0  0  0  0  0  0  0  0  0  0  0  0
    1.4892   -1.6716   -1.7538 H   0  0  0  0  0  0  0  0  0  0  0  0
    1.3473   -2.9447   -0.5555 H   0  0  0  0  0  0  0  0  0  0  0  0
    3.1370   -3.3076    0.8923 H   0  0  0  0  0  0  0  0  0  0  0  0
   -3.8201    3.6167    1.2568 H   0  0  0  0  0  0  0  0  0  0  0  0
   -2.5610    4.0852    0.1141 H   0  0  0  0  0  0  0  0  0  0  0  0
   -4.1871    3.7052   -0.4543 H   0  0  0  0  0  0  0  0  0  0  0  0
   -5.0617   -0.9657    1.9838 H   0  0  0  0  0  0  0  0  0  0  0  0
   -6.6799   -0.3171    1.6629 H   0  0  0  0  0  0  0  0  0  0  0  0
   -5.8217   -1.2290    0.4213 H   0  0  0  0  0  0  0  0  0  0  0  0
   -1.0283    2.3535   -0.4196 H   0  0  0  0  0  0  0  0  0  0  0  0
    2.6241    0.5880   -0.7914 H   0  0  0  0  0  0  0  0  0  0  0  0
    5.9932   -0.2556    1.7273 H   0  0  0  0  0  0  0  0  0  0  0  0
    5.2039   -2.5514    2.0043 H   0  0  0  0  0  0  0  0  0  0  0  0
    6.7634    1.3364    0.6171 H   0  0  0  0  0  0  0  0  0  0  0  0
    6.3972    2.9804    0.2994 H   0  0  0  0  0  0  0  0  0  0  0  0
    0.8217   -1.5762    1.8625 H   0  0  0  0  0  0  0  0  0  0  0  0
   -0.8287   -1.0109    1.6488 H   0  0  0  0  0  0  0  0  0  0  0  0
   -0.4090   -2.6800    1.2393 H   0  0  0  0  0  0  0  0  0  0  0  0
    4.7780    1.7493    0.2136 C   0  0  0  0  0  0  0  0  0  0  0  0
 23 48  1  0
 22 48  2  0
 48 19  1  0
 19 18  2  0
 19 20  1  0
 18  6  1  0
 24 15  1  0
 20 21  2  0
  9  5  1  0
  6  7  1  0
  6  8  2  0
  7 15  1  0
 15 13  1  0
 14  5  1  0
 14 12  1  0
  5  4  2  0
 21  8  1  0
 12 13  1  0
 12  3  2  0
 13 17  2  0
  4 10  1  0
  4  3  1  0
 16 10  2  0
 10 11  1  0
  3  2  1  0
  2  1  1  0
  1 25  1  0
  1 26  1  0
  1 27  1  0
  2 28  1  0
  2 29  1  0
  7 30  1  0
  7 31  1  0
  8 32  1  0
  9 33  1  0
  9 34  1  0
  9 35  1  0
 11 36  1  0
 11 37  1  0
 11 38  1  0
 14 39  1  0
 18 40  1  0
 20 41  1  0
 21 42  1  0
 23 43  1  0
 23 44  1  0
 24 45  1  0
 24 46  1  0
 24 47  1  0
M  END
