
     RDKit          3D

 55 58  0  0  0  0  0  0  0  0999 V2000
   -5.6842    0.8861   -0.7525 O   0  0  0  0  0  0  0  0  0  0  0  0
   -4.9053    0.0591   -1.1490 C   0  0  0  0  0  0  0  0  0  0  0  0
   -5.1332   -1.2469   -1.1123 O   0  0  0  0  0  0  0  0  0  0  0  0
   -3.5367    0.3722   -1.7279 C   0  0  1  0  0  0  0  0  0  0  0  0
   -3.4704    1.7717   -2.0703 N   0  0  0  0  0  0  0  0  0  0  0  0
   -2.4654   -0.1129   -0.7303 C   0  0  0  0  0  0  0  0  0  0  0  0
   -0.8439    0.0426   -1.5171 S   0  0  0  0  0  0  0  0  0  0  0  0
    0.2639   -0.1477   -0.0355 C   0  0  1  0  0  0  0  0  0  0  0  0
    1.7108    0.0959   -0.4793 C   0  0  0  0  0  0  0  0  0  0  0  0
    2.0760    0.7025   -1.6767 C   0  0  0  0  0  0  0  0  0  0  0  0
    3.4045    0.9520   -1.9804 C   0  0  0  0  0  0  0  0  0  0  0  0
    4.4124    0.6051   -1.0842 C   0  0  0  0  0  0  0  0  0  0  0  0
    5.6749    0.8877   -1.4566 O   0  0  0  0  0  0  0  0  0  0  0  0
    6.7289    0.5521   -0.5764 C   0  0  0  0  0  0  0  0  0  0  0  0
    4.0624   -0.0019    0.1215 C   0  0  0  0  0  0  0  0  0  0  0  0
    2.7281   -0.2489    0.4045 C   0  0  0  0  0  0  0  0  0  0  0  0
   -0.0239    1.0080    0.9476 C   0  0  0  0  0  0  0  0  0  0  0  0
   -0.0668    2.2880    0.3778 C   0  0  0  0  0  0  0  0  0  0  0  0
   -0.1902    3.4364    1.1352 C   0  0  0  0  0  0  0  0  0  0  0  0
   -0.2682    3.3397    2.5172 C   0  0  0  0  0  0  0  0  0  0  0  0
   -0.2293    2.0867    3.0960 C   0  0  0  0  0  0  0  0  0  0  0  0
   -0.1085    0.9152    2.3403 C   0  0  0  0  0  0  0  0  0  0  0  0
   -0.1437   -0.3826    3.0889 C   0  0  0  0  0  0  0  0  0  0  0  0
   -1.1851   -1.3403    2.5219 C   0  0  0  0  0  0  0  0  0  0  0  0
   -0.6209   -2.1672    1.4062 C   0  0  0  0  0  0  0  0  0  0  0  0
    0.1028   -1.6325    0.3378 C   0  0  0  0  0  0  0  0  0  0  0  0
   -0.7617   -3.5570    1.5066 C   0  0  0  0  0  0  0  0  0  0  0  0
   -0.2080   -4.4237    0.5866 C   0  0  0  0  0  0  0  0  0  0  0  0
    0.5252   -3.8972   -0.4697 C   0  0  0  0  0  0  0  0  0  0  0  0
    0.6666   -2.5294   -0.5823 C   0  0  0  0  0  0  0  0  0  0  0  0
   -5.9960   -1.4260   -0.7088 H   0  0  0  0  0  0  0  0  0  0  0  0
   -3.4381   -0.2126   -2.6485 H   0  0  0  0  0  0  0  0  0  0  0  0
   -3.5093    2.3395   -1.2321 H   0  0  0  0  0  0  0  0  0  0  0  0
   -2.5776    1.9694   -2.5038 H   0  0  0  0  0  0  0  0  0  0  0  0
   -2.4926    0.5210    0.1599 H   0  0  0  0  0  0  0  0  0  0  0  0
   -2.6315   -1.1486   -0.4314 H   0  0  0  0  0  0  0  0  0  0  0  0
    1.3293    1.0014   -2.4014 H   0  0  0  0  0  0  0  0  0  0  0  0
    3.6645    1.4224   -2.9204 H   0  0  0  0  0  0  0  0  0  0  0  0
    6.6470    1.0782    0.3785 H   0  0  0  0  0  0  0  0  0  0  0  0
    6.7745   -0.5231   -0.3835 H   0  0  0  0  0  0  0  0  0  0  0  0
    7.6499    0.8585   -1.0661 H   0  0  0  0  0  0  0  0  0  0  0  0
    4.8097   -0.2867    0.8497 H   0  0  0  0  0  0  0  0  0  0  0  0
    2.4859   -0.7266    1.3463 H   0  0  0  0  0  0  0  0  0  0  0  0
   -0.0011    2.3930   -0.6961 H   0  0  0  0  0  0  0  0  0  0  0  0
   -0.2229    4.4008    0.6450 H   0  0  0  0  0  0  0  0  0  0  0  0
   -0.3657    4.2239    3.1335 H   0  0  0  0  0  0  0  0  0  0  0  0
   -0.3037    1.9970    4.1731 H   0  0  0  0  0  0  0  0  0  0  0  0
    0.8360   -0.8696    3.0943 H   0  0  0  0  0  0  0  0  0  0  0  0
   -1.5280   -2.0111    3.3106 H   0  0  0  0  0  0  0  0  0  0  0  0
   -1.3146   -3.9583    2.3475 H   0  0  0  0  0  0  0  0  0  0  0  0
   -0.3360   -5.4927    0.6963 H   0  0  0  0  0  0  0  0  0  0  0  0
    0.9818   -4.5465   -1.2052 H   0  0  0  0  0  0  0  0  0  0  0  0
    1.2266   -2.1427   -1.4238 H   0  0  0  0  0  0  0  0  0  0  0  0
   -0.3756   -0.1719    4.1337 H   0  0  0  0  0  0  0  0  0  0  0  0
   -2.0690   -0.7785    2.2066 H   0  0  0  0  0  0  0  0  0  0  0  0
 20 21  2  0
 20 19  1  0
 21 22  1  0
 19 18  2  0
 22 23  1  0
 22 17  2  0
 23 24  1  0
 24 25  1  0
 18 17  1  0
 17  8  1  0
 27 25  1  0
 27 28  2  0
 25 26  2  0
 28 29  1  0
 26  8  1  0
 26 30  1  0
  8  9  1  0
  8  7  1  6
 29 30  2  0
 10  9  2  0
 10 11  1  0
  9 16  1  0
 11 12  2  0
  7  6  1  0
  1  2  2  0
  6  4  1  0
 16 15  2  0
 12 15  1  0
 12 13  1  0
  2  4  1  0
  2  3  1  0
  4  5  1  0
 13 14  1  0
  3 31  1  0
  4 32  1  6
  5 33  1  0
  5 34  1  0
  6 35  1  0
  6 36  1  0
 10 37  1  0
 11 38  1  0
 14 39  1  0
 14 40  1  0
 14 41  1  0
 15 42  1  0
 16 43  1  0
 18 44  1  0
 19 45  1  0
 20 46  1  0
 21 47  1  0
 23 48  1  0
 24 49  1  0
 27 50  1  0
 28 51  1  0
 29 52  1  0
 30 53  1  0
 23 54  1  0
 24 55  1  0
M  END
