
     RDKit          3D

 34 35  0  0  0  0  0  0  0  0999 V2000
    2.3533    1.4330    0.8562 C   0  0  0  0  0  0  0  0  0  0  0  0
    2.6272   -0.6045   -0.3890 C   0  0  0  0  0  0  0  0  0  0  0  0
    0.6561   -2.0357   -0.9669 C   0  0  0  0  0  0  0  0  0  0  0  0
    4.6417    0.7835    0.0503 C   0  0  1  0  0  0  0  0  0  0  0  0
   -1.3736   -0.9250    1.5336 O   0  0  0  0  0  0  0  0  0  0  0  0
   -1.0259   -0.2038    0.6277 C   0  0  0  0  0  0  0  0  0  0  0  0
   -1.8305    0.5273   -0.1874 N   0  0  0  0  0  0  0  0  0  0  0  0
   -3.2229    0.5836   -0.2375 C   0  0  0  0  0  0  0  0  0  0  0  0
   -3.7993    1.3006   -1.2907 C   0  0  0  0  0  0  0  0  0  0  0  0
   -5.1755    1.3706   -1.3372 C   0  0  0  0  0  0  0  0  0  0  0  0
   -5.9270    0.7347   -0.3563 C   0  0  0  0  0  0  0  0  0  0  0  0
   -5.2601    0.0456    0.6465 C   0  0  0  0  0  0  0  0  0  0  0  0
   -6.0015   -0.6706    1.7330 C   0  0  0  0  0  0  0  0  0  0  0  0
   -3.9277   -0.0195    0.6981 N   0  0  0  0  0  0  0  0  0  0  0  0
    0.4391    0.0501    0.3755 C   0  0  0  0  0  0  0  0  0  0  0  0
    0.9920    1.1855    0.9471 C   0  0  0  0  0  0  0  0  0  0  0  0
    3.1714    0.5326    0.1922 C   0  0  0  0  0  0  0  0  0  0  0  0
    1.2627   -0.8520   -0.3024 C   0  0  0  0  0  0  0  0  0  0  0  0
   -0.5333   -2.1683   -1.1164 O   0  0  0  0  0  0  0  0  0  0  0  0
    1.5538   -2.9120   -1.3806 O   0  0  0  0  0  0  0  0  0  0  0  0
    4.9511    1.1954   -1.1868 F   0  0  0  0  0  0  0  0  0  0  0  0
    5.0816    1.7179    0.8958 F   0  0  0  0  0  0  0  0  0  0  0  0
    5.3566   -0.3248    0.2759 F   0  0  0  0  0  0  0  0  0  0  0  0
    2.7545    2.3272    1.3120 H   0  0  0  0  0  0  0  0  0  0  0  0
    3.2638   -1.2993   -0.9199 H   0  0  0  0  0  0  0  0  0  0  0  0
   -1.3594    1.0444   -0.9148 H   0  0  0  0  0  0  0  0  0  0  0  0
   -3.1872    1.7817   -2.0424 H   0  0  0  0  0  0  0  0  0  0  0  0
   -5.6632    1.9151   -2.1349 H   0  0  0  0  0  0  0  0  0  0  0  0
   -7.0075    0.7744   -0.3713 H   0  0  0  0  0  0  0  0  0  0  0  0
   -5.8120   -1.7441    1.6834 H   0  0  0  0  0  0  0  0  0  0  0  0
   -5.6706   -0.3315    2.7151 H   0  0  0  0  0  0  0  0  0  0  0  0
   -7.0757   -0.5125    1.6599 H   0  0  0  0  0  0  0  0  0  0  0  0
    0.3623    1.8880    1.4770 H   0  0  0  0  0  0  0  0  0  0  0  0
    1.1182   -3.6508   -1.8321 H   0  0  0  0  0  0  0  0  0  0  0  0
  4 23  1  1
 22  4  1  0
  4 17  1  0
  4 21  1  0
 19  3  2  0
  2 17  1  0
  2 18  2  0
  3 20  1  0
  3 18  1  0
 17  1  2  0
 18 15  1  0
  1 16  1  0
 15 16  2  0
 15  6  1  0
  6  7  1  0
  6  5  2  0
  7  8  1  0
  8 14  1  0
  8  9  2  0
 14 12  2  0
  9 10  1  0
 12 13  1  0
 12 11  1  0
 10 11  2  0
  1 24  1  0
  2 25  1  0
  7 26  1  0
  9 27  1  0
 10 28  1  0
 11 29  1  0
 13 30  1  0
 13 31  1  0
 13 32  1  0
 16 33  1  0
 20 34  1  0
M  END
