
     RDKit          3D

 55 57  0  0  0  0  0  0  0  0999 V2000
    6.0440   -1.7077    0.1993 N   0  0  0  0  0  0  0  0  0  0  0  0
    5.7001   -1.9423    1.4579 C   0  0  0  0  0  0  0  0  0  0  0  0
    6.3850   -2.8848    2.1208 N   0  0  0  0  0  0  0  0  0  0  0  0
    4.7126   -1.3456    2.1648 N   0  0  0  0  0  0  0  0  0  0  0  0
    4.0041   -0.4201    1.5598 C   0  0  0  0  0  0  0  0  0  0  0  0
    3.0163    0.2005    2.1942 N   0  0  0  0  0  0  0  0  0  0  0  0
    4.2887   -0.0633    0.1920 C   0  0  0  0  0  0  0  0  0  0  0  0
    3.5810    0.8842   -0.4205 N   0  0  0  0  0  0  0  0  0  0  0  0
    3.8795    1.1532   -1.6658 C   0  0  0  0  0  0  0  0  0  0  0  0
    4.9198    0.4447   -2.3070 C   0  0  0  0  0  0  0  0  0  0  0  0
    5.6305   -0.4818   -1.7180 N   0  0  0  0  0  0  0  0  0  0  0  0
    5.3320   -0.7649   -0.4315 C   0  0  0  0  0  0  0  0  0  0  0  0
    3.1098    2.2305   -2.3927 C   0  0  0  0  0  0  0  0  0  0  0  0
    1.9771    2.7237   -1.6565 N   0  0  0  0  0  0  0  0  0  0  0  0
    2.2149    3.8156   -0.7376 C   0  0  0  0  0  0  0  0  0  0  0  0
   -1.4669    0.3516   -1.1869 C   0  0  0  0  0  0  0  0  0  0  0  0
   -1.2656    1.5000   -0.4222 C   0  0  0  0  0  0  0  0  0  0  0  0
   -0.1309    2.2740   -0.5630 C   0  0  0  0  0  0  0  0  0  0  0  0
    0.8720    1.9351   -1.4914 C   0  0  0  0  0  0  0  0  0  0  0  0
    0.6664    0.7689   -2.2565 C   0  0  0  0  0  0  0  0  0  0  0  0
   -0.4772    0.0145   -2.1109 C   0  0  0  0  0  0  0  0  0  0  0  0
   -2.9897   -1.2897   -1.9653 O   0  0  0  0  0  0  0  0  0  0  0  0
   -3.4218   -0.3674    0.0364 N   0  0  0  0  0  0  0  0  0  0  0  0
   -4.5732   -1.2019    0.2365 C   0  0  1  0  0  0  0  0  0  0  0  0
   -4.1586   -2.6505    0.4575 C   0  0  0  0  0  0  0  0  0  0  0  0
   -5.1573   -3.4819    0.1978 O   0  0  0  0  0  0  0  0  0  0  0  0
   -3.0759   -2.9976    0.8502 O   0  0  0  0  0  0  0  0  0  0  0  0
   -5.4006   -0.7131    1.4284 C   0  0  0  0  0  0  0  0  0  0  0  0
   -5.9628    0.6782    1.1831 C   0  0  0  0  0  0  0  0  0  0  0  0
   -6.8430    1.1569    2.3047 C   0  0  0  0  0  0  0  0  0  0  0  0
   -7.0832    0.5377    3.3109 O   0  0  0  0  0  0  0  0  0  0  0  0
   -7.3376    2.3650    2.0580 O   0  0  0  0  0  0  0  0  0  0  0  0
    7.1895   -3.3126    1.6984 H   0  0  0  0  0  0  0  0  0  0  0  0
    6.2184   -3.0363    3.0993 H   0  0  0  0  0  0  0  0  0  0  0  0
    2.7908   -0.0281    3.1471 H   0  0  0  0  0  0  0  0  0  0  0  0
    2.4695    0.8963    1.7156 H   0  0  0  0  0  0  0  0  0  0  0  0
    5.1571    0.6647   -3.3437 H   0  0  0  0  0  0  0  0  0  0  0  0
    3.7775    3.0706   -2.5948 H   0  0  0  0  0  0  0  0  0  0  0  0
    2.8100    1.8697   -3.3798 H   0  0  0  0  0  0  0  0  0  0  0  0
    1.3920    4.5308   -0.7539 H   0  0  0  0  0  0  0  0  0  0  0  0
    2.3563    3.4766    0.2929 H   0  0  0  0  0  0  0  0  0  0  0  0
    3.1122    4.3468   -1.0433 H   0  0  0  0  0  0  0  0  0  0  0  0
   -2.0101    1.8302    0.2924 H   0  0  0  0  0  0  0  0  0  0  0  0
   -0.0347    3.1514    0.0594 H   0  0  0  0  0  0  0  0  0  0  0  0
    1.3990    0.4373   -2.9782 H   0  0  0  0  0  0  0  0  0  0  0  0
   -0.5947   -0.8681   -2.7260 H   0  0  0  0  0  0  0  0  0  0  0  0
   -3.0134    0.0661    0.8494 H   0  0  0  0  0  0  0  0  0  0  0  0
   -5.2000   -1.1644   -0.6582 H   0  0  0  0  0  0  0  0  0  0  0  0
   -4.8932   -4.3949    0.3880 H   0  0  0  0  0  0  0  0  0  0  0  0
   -6.2182   -1.4158    1.5901 H   0  0  0  0  0  0  0  0  0  0  0  0
   -4.7864   -0.7262    2.3325 H   0  0  0  0  0  0  0  0  0  0  0  0
   -5.1657    1.4132    1.0417 H   0  0  0  0  0  0  0  0  0  0  0  0
   -6.5476    0.6950    0.2582 H   0  0  0  0  0  0  0  0  0  0  0  0
   -7.9041    2.6473    2.7914 H   0  0  0  0  0  0  0  0  0  0  0  0
   -2.6695   -0.5032   -1.0822 C   0  0  0  0  0  0  0  0  0  0  0  0
 31 30  2  0
 32 30  1  0
 30 29  1  0
 27 25  2  0
 29 28  1  0
 25 26  1  0
 25 24  1  0
 28 24  1  0
 24 23  1  0
 11 10  2  0
 11 12  1  0
 10  9  1  0
  1 12  2  0
  1  2  1  0
 12  7  1  0
  3  2  1  0
 23 55  1  0
  2  4  2  0
  9 13  1  0
  9  8  2  0
 13 14  1  0
  7  8  1  0
  7  5  2  0
  4  5  1  0
  5  6  1  0
 17 18  1  0
 17 16  2  0
 18 19  2  0
 55 16  1  0
 55 22  2  0
 16 21  1  0
 19 14  1  0
 19 20  1  0
 14 15  1  0
 21 20  2  0
  3 33  1  0
  3 34  1  0
  6 35  1  0
  6 36  1  0
 10 37  1  0
 13 38  1  0
 13 39  1  0
 15 40  1  0
 15 41  1  0
 15 42  1  0
 17 43  1  0
 18 44  1  0
 20 45  1  0
 21 46  1  0
 23 47  1  0
 24 48  1  6
 26 49  1  0
 28 50  1  0
 28 51  1  0
 29 52  1  0
 29 53  1  0
 32 54  1  0
M  END
