
     RDKit          3D

 22 23  0  0  0  0  0  0  0  0999 V2000
   -2.9926   -1.2280    0.0536 C   0  0  0  0  0  0  0  0  0  0  0  0
   -1.7223   -0.5007    0.0265 C   0  0  0  0  0  0  0  0  0  0  0  0
   -0.4809   -1.1812   -0.0225 C   0  0  0  0  0  0  0  0  0  0  0  0
    0.6908   -0.4949   -0.0431 C   0  0  0  0  0  0  0  0  0  0  0  0
    0.7204    0.9315   -0.0157 C   0  0  0  0  0  0  0  0  0  0  0  0
    0.6367    3.7427    0.0451 C   0  0  0  0  0  0  0  0  0  0  0  0
   -0.5339    3.0321    0.0633 C   0  0  0  0  0  0  0  0  0  0  0  0
   -2.8719   -2.5386    0.0317 O   0  0  0  0  0  0  0  0  0  0  0  0
   -4.0797   -0.6695    0.0950 O   0  0  0  0  0  0  0  0  0  0  0  0
    2.3022   -1.4824   -0.1087 Br  0  0  0  0  0  0  0  0  0  0  0  0
    1.9067    1.6946   -0.0341 C   0  0  0  0  0  0  0  0  0  0  0  0
    1.8640    3.0647   -0.0041 C   0  0  0  0  0  0  0  0  0  0  0  0
   -0.5197    1.6216    0.0335 C   0  0  0  0  0  0  0  0  0  0  0  0
   -1.7451    0.8882    0.0538 C   0  0  0  0  0  0  0  0  0  0  0  0
   -2.8628    1.5915    0.1008 O   0  0  0  0  0  0  0  0  0  0  0  0
   -0.4778   -2.2620   -0.0434 H   0  0  0  0  0  0  0  0  0  0  0  0
    0.6158    4.8236    0.0682 H   0  0  0  0  0  0  0  0  0  0  0  0
   -1.4766    3.5592    0.1014 H   0  0  0  0  0  0  0  0  0  0  0  0
   -3.7453   -2.9586    0.0543 H   0  0  0  0  0  0  0  0  0  0  0  0
    2.8686    1.2033   -0.0727 H   0  0  0  0  0  0  0  0  0  0  0  0
    2.7880    3.6275   -0.0186 H   0  0  0  0  0  0  0  0  0  0  0  0
   -3.6202    0.9611    0.1102 H   0  0  0  0  0  0  0  0  0  0  0  0
  9  1  2  0
 15 14  1  0
  1  8  1  0
  1  2  1  0
 14  2  2  0
 14 13  1  0
  2  3  1  0
  7 13  2  0
  7  6  1  0
 13  5  1  0
  3  4  2  0
  6 12  2  0
  5  4  1  0
  5 11  2  0
  4 10  1  0
 12 11  1  0
  3 16  1  0
  6 17  1  0
  7 18  1  0
  8 19  1  0
 11 20  1  0
 12 21  1  0
 15 22  1  0
M  END
