
     RDKit          3D

 26 26  0  0  0  0  0  0  0  0999 V2000
    1.3436   -2.0267    0.0653 O   0  0  0  0  0  0  0  0  0  0  0  0
    1.5550   -0.8273    0.0042 C   0  0  0  0  0  0  0  0  0  0  0  0
    0.4434    0.1390   -0.0725 C   0  0  0  0  0  0  0  0  0  0  0  0
   -0.8255   -0.2982   -0.0311 C   0  0  0  0  0  0  0  0  0  0  0  0
   -1.9982    0.5316   -0.0931 C   0  0  0  0  0  0  0  0  0  0  0  0
   -1.7437    2.2517   -0.1927 Cl  0  0  0  0  0  0  0  0  0  0  0  0
   -3.2934    0.1297   -0.0543 C   0  0  0  0  0  0  0  0  0  0  0  0
   -4.3340    0.9502   -0.0784 O   0  0  0  0  0  0  0  0  0  0  0  0
   -3.7099   -1.3098    0.0276 C   0  0  0  0  0  0  0  0  0  0  0  0
   -4.9773   -1.4095    0.3704 O   0  0  0  0  0  0  0  0  0  0  0  0
   -2.9895   -2.2480   -0.1953 O   0  0  0  0  0  0  0  0  0  0  0  0
    2.9565   -0.3189    0.0021 C   0  0  0  0  0  0  0  0  0  0  0  0
    3.9962   -1.2529   -0.0348 C   0  0  0  0  0  0  0  0  0  0  0  0
    5.3169   -0.8405   -0.0320 C   0  0  0  0  0  0  0  0  0  0  0  0
    5.6240    0.5149    0.0139 C   0  0  0  0  0  0  0  0  0  0  0  0
    4.6020    1.4520    0.0532 C   0  0  0  0  0  0  0  0  0  0  0  0
    3.2774    1.0390    0.0454 C   0  0  0  0  0  0  0  0  0  0  0  0
    0.6604    1.1917   -0.1708 H   0  0  0  0  0  0  0  0  0  0  0  0
   -0.9993   -1.3606    0.0580 H   0  0  0  0  0  0  0  0  0  0  0  0
   -4.0563    1.8777   -0.1058 H   0  0  0  0  0  0  0  0  0  0  0  0
   -5.2336   -2.3439    0.4118 H   0  0  0  0  0  0  0  0  0  0  0  0
    3.7679   -2.3095   -0.0690 H   0  0  0  0  0  0  0  0  0  0  0  0
    6.1098   -1.5758   -0.0641 H   0  0  0  0  0  0  0  0  0  0  0  0
    6.6573    0.8371    0.0201 H   0  0  0  0  0  0  0  0  0  0  0  0
    4.8316    2.5086    0.0874 H   0  0  0  0  0  0  0  0  0  0  0  0
    2.5085    1.7972    0.0802 H   0  0  0  0  0  0  0  0  0  0  0  0
  8  7  1  0
  6  5  1  0
  7  9  1  0
  7  5  2  0
 11  9  2  0
  9 10  1  0
  5  4  1  0
  4  3  2  0
  3  2  1  0
  2  1  2  0
  2 12  1  0
 12 13  2  0
 12 17  1  0
 13 14  1  0
 17 16  2  0
 14 15  2  0
 16 15  1  0
  3 18  1  0
  4 19  1  0
  8 20  1  0
 10 21  1  0
 13 22  1  0
 14 23  1  0
 15 24  1  0
 16 25  1  0
 17 26  1  0
M  END
