
     RDKit          3D

 23 24  0  0  0  0  0  0  0  0999 V2000
    1.9690    0.0180   -0.0560 C   0  0  0  0  0  0  0  0  0  0  0  0
    4.1792    0.9004    0.1830 C   0  0  0  0  0  0  0  0  0  0  0  0
    2.8088    1.1067    0.1400 C   0  0  0  0  0  0  0  0  0  0  0  0
    4.7056   -0.3768    0.0425 C   0  0  0  0  0  0  0  0  0  0  0  0
    3.8535   -1.4557   -0.1487 C   0  0  0  0  0  0  0  0  0  0  0  0
   -0.4090   -0.6453    0.2235 C   0  0  0  0  0  0  0  0  0  0  0  0
   -2.9437   -0.4119    0.1612 C   0  0  0  0  0  0  0  0  0  0  0  0
    2.4814   -1.2632   -0.2057 C   0  0  0  0  0  0  0  0  0  0  0  0
    0.5680    0.2158   -0.1041 N   0  0  0  0  0  0  0  0  0  0  0  0
    0.0598    1.3730   -0.5257 N   0  0  0  0  0  0  0  0  0  0  0  0
   -1.2145    1.2836   -0.4769 N   0  0  0  0  0  0  0  0  0  0  0  0
   -1.5581    0.0578   -0.0220 C   0  0  0  0  0  0  0  0  0  0  0  0
   -3.8694    0.5102   -0.1567 N   0  0  0  0  0  0  0  0  0  0  0  0
   -5.1776    0.1436   -0.2215 O   0  0  0  0  0  0  0  0  0  0  0  0
   -3.1883   -1.5263    0.5874 O   0  0  0  0  0  0  0  0  0  0  0  0
    4.8369    1.7452    0.3368 H   0  0  0  0  0  0  0  0  0  0  0  0
    2.4024    2.1005    0.2663 H   0  0  0  0  0  0  0  0  0  0  0  0
    5.7757   -0.5299    0.0808 H   0  0  0  0  0  0  0  0  0  0  0  0
    4.2536   -2.4536   -0.2671 H   0  0  0  0  0  0  0  0  0  0  0  0
   -0.2306   -1.6340    0.6084 H   0  0  0  0  0  0  0  0  0  0  0  0
    1.8268   -2.1068   -0.3812 H   0  0  0  0  0  0  0  0  0  0  0  0
   -3.6310    1.3517   -0.6647 H   0  0  0  0  0  0  0  0  0  0  0  0
   -5.5837    0.4528    0.5989 H   0  0  0  0  0  0  0  0  0  0  0  0
  5  8  2  0
  5  4  1  0
  8  1  1  0
 10 11  2  0
 10  9  1  0
 11 12  1  0
  4  2  2  0
  1  9  1  0
  1  3  2  0
  9  6  1  0
 12  6  2  0
 12  7  1  0
  2  3  1  0
 13 14  1  0
 13  7  1  0
  7 15  2  0
  2 16  1  0
  3 17  1  0
  4 18  1  0
  5 19  1  0
  6 20  1  0
  8 21  1  0
 13 22  1  0
 14 23  1  0
M  END
