
     RDKit          3D

 46 48  0  0  0  0  0  0  0  0999 V2000
   -0.0800   -0.4675    1.9927 O   0  0  0  0  0  0  0  0  0  0  0  0
    2.2092    4.1747   -1.4989 C   0  0  0  0  0  0  0  0  0  0  0  0
    1.7638    1.0467    0.3159 C   0  0  0  0  0  0  0  0  0  0  0  0
    6.1683   -1.2139    0.9665 O   0  0  0  0  0  0  0  0  0  0  0  0
   -0.4268    0.4939    1.3354 C   0  0  0  0  0  0  0  0  0  0  0  0
   -2.0909   -0.5631   -0.4656 N   0  0  0  0  0  0  0  0  0  0  0  0
   -1.8594    0.9896    1.3281 C   0  0  0  0  0  0  0  0  0  0  0  0
   -2.6833    0.2953    0.2811 C   0  0  0  0  0  0  0  0  0  0  0  0
   -2.7945   -1.1991   -1.4065 N   0  0  0  0  0  0  0  0  0  0  0  0
   -4.1174   -1.0578   -1.7006 C   0  0  0  0  0  0  0  0  0  0  0  0
   -4.8064   -0.0795   -0.8589 C   0  0  0  0  0  0  0  0  0  0  0  0
   -6.1649    0.1743   -1.0482 C   0  0  0  0  0  0  0  0  0  0  0  0
   -6.8048    1.1020   -0.2532 C   0  0  0  0  0  0  0  0  0  0  0  0
    4.5638   -2.6801   -0.2538 N   0  0  0  0  0  0  0  0  0  0  0  0
   -6.0956    1.7843    0.7382 C   0  0  0  0  0  0  0  0  0  0  0  0
   -4.7525    1.5389    0.9343 C   0  0  0  0  0  0  0  0  0  0  0  0
   -4.0893    0.6005    0.1348 C   0  0  0  0  0  0  0  0  0  0  0  0
    4.1240   -2.1259    2.1209 O   0  0  0  0  0  0  0  0  0  0  0  0
    5.0331   -2.3530   -1.5937 C   0  0  0  0  0  0  0  0  0  0  0  0
    3.8592   -0.1184    0.4521 C   0  0  0  0  0  0  0  0  0  0  0  0
    2.4966   -0.0506    0.7365 C   0  0  0  0  0  0  0  0  0  0  0  0
    2.4181    2.0730   -0.4061 C   0  0  0  0  0  0  0  0  0  0  0  0
    1.6372    3.0919   -0.7831 O   0  0  0  0  0  0  0  0  0  0  0  0
    3.7747    1.9835   -0.6763 C   0  0  0  0  0  0  0  0  0  0  0  0
    4.5049    0.8850   -0.2449 C   0  0  0  0  0  0  0  0  0  0  0  0
    0.4018    1.2266    0.5504 N   0  0  0  0  0  0  0  0  0  0  0  0
   -4.6451   -1.7046   -2.5938 O   0  0  0  0  0  0  0  0  0  0  0  0
    2.9785    4.6793   -0.9109 H   0  0  0  0  0  0  0  0  0  0  0  0
    2.6384    3.8464   -2.4477 H   0  0  0  0  0  0  0  0  0  0  0  0
    1.3987    4.8703   -1.6968 H   0  0  0  0  0  0  0  0  0  0  0  0
   -2.2872    0.8023    2.3155 H   0  0  0  0  0  0  0  0  0  0  0  0
   -1.9051    2.0702    1.1679 H   0  0  0  0  0  0  0  0  0  0  0  0
   -2.2553   -1.8613   -1.9472 H   0  0  0  0  0  0  0  0  0  0  0  0
   -6.7094   -0.3558   -1.8175 H   0  0  0  0  0  0  0  0  0  0  0  0
   -7.8576    1.3036   -0.3973 H   0  0  0  0  0  0  0  0  0  0  0  0
    3.6337   -3.0845   -0.2379 H   0  0  0  0  0  0  0  0  0  0  0  0
   -6.6039    2.5113    1.3573 H   0  0  0  0  0  0  0  0  0  0  0  0
   -4.2193    2.0763    1.7070 H   0  0  0  0  0  0  0  0  0  0  0  0
    4.4954   -1.5169   -2.0481 H   0  0  0  0  0  0  0  0  0  0  0  0
    6.0953   -2.1231   -1.5733 H   0  0  0  0  0  0  0  0  0  0  0  0
    4.8904   -3.2319   -2.2168 H   0  0  0  0  0  0  0  0  0  0  0  0
    2.0143   -0.8416    1.2869 H   0  0  0  0  0  0  0  0  0  0  0  0
    4.2845    2.7664   -1.2195 H   0  0  0  0  0  0  0  0  0  0  0  0
    5.5636    0.8362   -0.4567 H   0  0  0  0  0  0  0  0  0  0  0  0
   -0.0112    2.0212    0.0860 H   0  0  0  0  0  0  0  0  0  0  0  0
    4.7568   -1.5614    0.9390 S   0  0  1  0  0  0  0  0  0  0  0  0
 18 46  2  0
  2 23  1  0
  7  5  1  0
  7  8  1  0
 23 22  1  0
 26  3  1  0
 26  5  1  0
 22  3  2  0
 22 24  1  0
  3 21  1  0
 24 25  2  0
  6  8  2  0
  6  9  1  0
 21 20  2  0
 25 20  1  0
 20 46  1  0
 46  4  2  0
 46 14  1  6
  5  1  2  0
  8 17  1  0
  9 10  1  0
 19 14  1  0
 17 16  1  0
 17 11  2  0
 10 27  2  0
 10 11  1  0
 16 15  2  0
 11 12  1  0
 15 13  1  0
 12 13  2  0
  2 28  1  0
  2 29  1  0
  2 30  1  0
  7 31  1  0
  7 32  1  0
  9 33  1  0
 12 34  1  0
 13 35  1  0
 14 36  1  0
 15 37  1  0
 16 38  1  0
 19 39  1  0
 19 40  1  0
 19 41  1  0
 21 42  1  0
 24 43  1  0
 25 44  1  0
 26 45  1  0
M  END
