
     RDKit          3D

 55 58  0  0  0  0  0  0  0  0999 V2000
   -2.4103   -2.8117   -0.6690 F   0  0  0  0  0  0  0  0  0  0  0  0
   -3.3116   -1.9367   -0.2064 C   0  0  1  0  0  0  0  0  0  0  0  0
   -4.1326   -1.6633   -1.2252 F   0  0  0  0  0  0  0  0  0  0  0  0
   -4.0416   -2.5953    0.7090 F   0  0  0  0  0  0  0  0  0  0  0  0
   -2.6661   -0.7128    0.3757 C   0  0  0  0  0  0  0  0  0  0  0  0
   -3.4070    0.4511    0.6207 C   0  0  0  0  0  0  0  0  0  0  0  0
   -4.8565    0.5901    0.3155 C   0  0  0  0  0  0  0  0  0  0  0  0
   -5.7804   -0.0256    1.1589 C   0  0  0  0  0  0  0  0  0  0  0  0
   -7.1434    0.1076    0.9468 C   0  0  0  0  0  0  0  0  0  0  0  0
   -7.5965    0.8678   -0.1221 C   0  0  0  0  0  0  0  0  0  0  0  0
   -6.6813    1.4946   -0.9527 C   0  0  0  0  0  0  0  0  0  0  0  0
   -5.3064    1.3770   -0.7522 C   0  0  0  0  0  0  0  0  0  0  0  0
   -4.3783    2.0774   -1.7112 C   0  0  0  0  0  0  0  0  0  0  0  0
   -4.1435    1.2826   -2.9950 C   0  0  0  0  0  0  0  0  0  0  0  0
   -1.3203   -0.7727    0.7160 C   0  0  0  0  0  0  0  0  0  0  0  0
   -0.6791    0.3029    1.3186 C   0  0  0  0  0  0  0  0  0  0  0  0
   -1.4124    1.4550    1.5632 C   0  0  0  0  0  0  0  0  0  0  0  0
   -2.7531    1.5243    1.2169 C   0  0  0  0  0  0  0  0  0  0  0  0
    0.7850    0.2221    1.6479 C   0  0  0  0  0  0  0  0  0  0  0  0
    1.5796    0.3785    0.4422 N   0  0  0  0  0  0  0  0  0  0  0  0
    3.0012    0.2558    0.6961 C   0  0  0  0  0  0  0  0  0  0  0  0
    3.7849    0.4447   -0.5979 C   0  0  0  0  0  0  0  0  0  0  0  0
    5.2507    0.2805   -0.3954 C   0  0  0  0  0  0  0  0  0  0  0  0
    6.0144   -0.4641   -1.2366 N   0  0  0  0  0  0  0  0  0  0  0  0
    7.3057   -0.4102   -0.7846 C   0  0  0  0  0  0  0  0  0  0  0  0
    7.2418    0.4024    0.3601 C   0  0  0  0  0  0  0  0  0  0  0  0
    5.9475    0.8151    0.5721 N   0  0  0  0  0  0  0  0  0  0  0  0
    8.4919   -0.9737   -1.2390 C   0  0  0  0  0  0  0  0  0  0  0  0
    9.6330   -0.6968   -0.5046 C   0  0  0  0  0  0  0  0  0  0  0  0
    9.5892    0.1128    0.6402 C   0  0  0  0  0  0  0  0  0  0  0  0
    8.4027    0.6696    1.0851 C   0  0  0  0  0  0  0  0  0  0  0  0
   -5.4280   -0.5999    2.0063 H   0  0  0  0  0  0  0  0  0  0  0  0
   -7.8442   -0.3739    1.6162 H   0  0  0  0  0  0  0  0  0  0  0  0
   -8.6577    0.9821   -0.3024 H   0  0  0  0  0  0  0  0  0  0  0  0
   -7.0387    2.0976   -1.7799 H   0  0  0  0  0  0  0  0  0  0  0  0
   -4.8116    3.0468   -1.9682 H   0  0  0  0  0  0  0  0  0  0  0  0
   -3.4182    2.2884   -1.2399 H   0  0  0  0  0  0  0  0  0  0  0  0
   -5.0846    1.0653   -3.5021 H   0  0  0  0  0  0  0  0  0  0  0  0
   -3.5140    1.8452   -3.6851 H   0  0  0  0  0  0  0  0  0  0  0  0
   -3.6494    0.3346   -2.7896 H   0  0  0  0  0  0  0  0  0  0  0  0
   -0.7455   -1.6693    0.5235 H   0  0  0  0  0  0  0  0  0  0  0  0
   -0.9372    2.3083    2.0321 H   0  0  0  0  0  0  0  0  0  0  0  0
   -3.3109    2.4298    1.4205 H   0  0  0  0  0  0  0  0  0  0  0  0
    1.0278    0.9647    2.4222 H   0  0  0  0  0  0  0  0  0  0  0  0
    1.0100   -0.7586    2.0762 H   0  0  0  0  0  0  0  0  0  0  0  0
    1.3903    1.2939    0.0486 H   0  0  0  0  0  0  0  0  0  0  0  0
    3.3677    0.9637    1.4524 H   0  0  0  0  0  0  0  0  0  0  0  0
    3.1941   -0.7460    1.0903 H   0  0  0  0  0  0  0  0  0  0  0  0
    3.4324   -0.2650   -1.3484 H   0  0  0  0  0  0  0  0  0  0  0  0
    3.5936    1.4453   -0.9993 H   0  0  0  0  0  0  0  0  0  0  0  0
    5.6816   -0.9630   -2.0465 H   0  0  0  0  0  0  0  0  0  0  0  0
    8.5265   -1.5995   -2.1212 H   0  0  0  0  0  0  0  0  0  0  0  0
   10.5801   -1.1148   -0.8201 H   0  0  0  0  0  0  0  0  0  0  0  0
   10.5049    0.3026    1.1851 H   0  0  0  0  0  0  0  0  0  0  0  0
    8.3727    1.2937    1.9693 H   0  0  0  0  0  0  0  0  0  0  0  0
  9 10  1  0
  9  8  2  0
 10 11  2  0
  8  7  1  0
 30 31  2  0
 30 29  1  0
 31 26  1  0
 11 12  1  0
  2  4  1  1
 29 28  2  0
  7 12  2  0
  7  6  1  0
 12 13  1  0
 26 27  1  0
 26 25  2  0
  2  1  1  0
  2  3  1  0
  2  5  1  0
 28 25  1  0
  6  5  2  0
  6 18  1  0
 27 23  2  0
 25 24  1  0
  5 15  1  0
 13 14  1  0
 18 17  2  0
 23 24  1  0
 23 22  1  0
 15 16  2  0
 17 16  1  0
 21 22  1  0
 21 20  1  0
 16 19  1  0
 20 19  1  0
  8 32  1  0
  9 33  1  0
 10 34  1  0
 11 35  1  0
 13 36  1  0
 13 37  1  0
 14 38  1  0
 14 39  1  0
 14 40  1  0
 15 41  1  0
 17 42  1  0
 18 43  1  0
 19 44  1  0
 19 45  1  0
 20 46  1  0
 21 47  1  0
 21 48  1  0
 22 49  1  0
 22 50  1  0
 24 51  1  0
 28 52  1  0
 29 53  1  0
 30 54  1  0
 31 55  1  0
M  END
