
     RDKit          3D

 20 20  0  0  0  0  0  0  0  0999 V2000
   -1.3033    1.1560   -0.0045 C   0  0  0  0  0  0  0  0  0  0  0  0
   -2.6744    1.3951    0.0026 C   0  0  0  0  0  0  0  0  0  0  0  0
   -3.5817    0.3486   -0.0028 C   0  0  0  0  0  0  0  0  0  0  0  0
   -3.1047   -0.9587   -0.0152 C   0  0  0  0  0  0  0  0  0  0  0  0
   -1.7449   -1.2139   -0.0218 C   0  0  0  0  0  0  0  0  0  0  0  0
   -0.8347   -0.1549   -0.0167 C   0  0  0  0  0  0  0  0  0  0  0  0
    0.4712   -0.4992   -0.0235 O   0  0  0  0  0  0  0  0  0  0  0  0
    1.4318    0.5194   -0.0164 C   0  0  0  0  0  0  0  0  0  0  0  0
    2.8076   -0.1304   -0.0200 C   0  0  0  0  0  0  0  0  0  0  0  0
    2.9627   -1.3377   -0.0176 O   0  0  0  0  0  0  0  0  0  0  0  0
    3.8108    0.7571   -0.0240 N   0  0  0  0  0  0  0  0  0  0  0  0
   -0.6283    2.0007   -0.0003 H   0  0  0  0  0  0  0  0  0  0  0  0
   -3.0254    2.4191    0.0131 H   0  0  0  0  0  0  0  0  0  0  0  0
   -4.6458    0.5429    0.0026 H   0  0  0  0  0  0  0  0  0  0  0  0
   -3.7990   -1.7890   -0.0194 H   0  0  0  0  0  0  0  0  0  0  0  0
   -1.3763   -2.2324   -0.0316 H   0  0  0  0  0  0  0  0  0  0  0  0
    1.3407    1.1712   -0.8941 H   0  0  0  0  0  0  0  0  0  0  0  0
    1.3417    1.1584    0.8709 H   0  0  0  0  0  0  0  0  0  0  0  0
    3.6493    1.7501   -0.0269 H   0  0  0  0  0  0  0  0  0  0  0  0
    4.7682    0.4455   -0.0239 H   0  0  0  0  0  0  0  0  0  0  0  0
  7  6  1  0
  7  8  1  0
 10  9  2  0
  5  6  1  0
  5  4  2  0
 11  9  1  0
  9  8  1  0
  6  1  2  0
  4  3  1  0
  1  2  1  0
  3  2  2  0
  1 12  1  0
  2 13  1  0
  3 14  1  0
  4 15  1  0
  5 16  1  0
  8 17  1  0
  8 18  1  0
 11 19  1  0
 11 20  1  0
M  END
