
     RDKit          3D

 20 20  0  0  0  0  0  0  0  0999 V2000
    2.3800   -0.7020    0.9495 N   0  0  0  0  0  0  0  0  0  0  0  0
    1.6766    0.3456    0.2255 C   0  0  1  0  0  0  0  0  0  0  0  0
    2.3017    0.5126   -1.1552 C   0  0  0  0  0  0  0  0  0  0  0  0
    0.1747    0.1533    0.1094 C   0  0  0  0  0  0  0  0  0  0  0  0
   -0.3726   -1.0761   -0.2539 C   0  0  0  0  0  0  0  0  0  0  0  0
   -1.7459   -1.2348   -0.3770 C   0  0  0  0  0  0  0  0  0  0  0  0
   -2.5992   -0.1651   -0.1332 C   0  0  0  0  0  0  0  0  0  0  0  0
   -2.0663    1.0633    0.2321 C   0  0  0  0  0  0  0  0  0  0  0  0
   -0.6905    1.2164    0.3519 C   0  0  0  0  0  0  0  0  0  0  0  0
    1.9022   -0.9067    1.8182 H   0  0  0  0  0  0  0  0  0  0  0  0
    2.3769   -1.5634    0.4165 H   0  0  0  0  0  0  0  0  0  0  0  0
    1.8377    1.2792    0.7745 H   0  0  0  0  0  0  0  0  0  0  0  0
    2.1773   -0.3911   -1.7567 H   0  0  0  0  0  0  0  0  0  0  0  0
    1.8393    1.3373   -1.6971 H   0  0  0  0  0  0  0  0  0  0  0  0
    3.3696    0.7173   -1.0699 H   0  0  0  0  0  0  0  0  0  0  0  0
    0.2741   -1.9258   -0.4413 H   0  0  0  0  0  0  0  0  0  0  0  0
   -2.1521   -2.1971   -0.6615 H   0  0  0  0  0  0  0  0  0  0  0  0
   -3.6705   -0.2909   -0.2225 H   0  0  0  0  0  0  0  0  0  0  0  0
   -2.7211    1.9024    0.4311 H   0  0  0  0  0  0  0  0  0  0  0  0
   -0.2839    2.1778    0.6460 H   0  0  0  0  0  0  0  0  0  0  0  0
  1  2  1  0
  2  3  1  0
  2  4  1  0
  5  4  2  0
  5  6  1  0
  4  9  1  0
  6  7  2  0
  9  8  2  0
  7  8  1  0
  1 10  1  0
  1 11  1  0
  2 12  1  1
  3 13  1  0
  3 14  1  0
  3 15  1  0
  5 16  1  0
  6 17  1  0
  7 18  1  0
  8 19  1  0
  9 20  1  0
M  END
