
     RDKit          3D

 29 30  0  0  0  0  0  0  0  0999 V2000
   -6.3647   -0.1468    0.1991 O   0  0  0  0  0  0  0  0  0  0  0  0
   -5.3279    0.6862    0.1307 C   0  0  0  0  0  0  0  0  0  0  0  0
   -5.4253    1.8865    0.2552 O   0  0  0  0  0  0  0  0  0  0  0  0
   -4.0732   -0.0026   -0.1090 C   0  0  0  0  0  0  0  0  0  0  0  0
   -2.8118    0.5452   -0.2438 C   0  0  0  0  0  0  0  0  0  0  0  0
   -1.9093   -0.5098   -0.4805 C   0  0  0  0  0  0  0  0  0  0  0  0
   -0.4293   -0.4100   -0.6608 C   0  0  0  0  0  0  0  0  0  0  0  0
    0.3105   -0.1701    0.6634 C   0  0  0  0  0  0  0  0  0  0  0  0
    1.7937   -0.0537    0.4586 C   0  0  0  0  0  0  0  0  0  0  0  0
    2.6104   -1.1814    0.4863 C   0  0  0  0  0  0  0  0  0  0  0  0
    2.3828    1.1782    0.1853 C   0  0  0  0  0  0  0  0  0  0  0  0
    3.7451    1.2910   -0.0522 C   0  0  0  0  0  0  0  0  0  0  0  0
    4.5304    0.1497   -0.0169 C   0  0  0  0  0  0  0  0  0  0  0  0
   -2.6607   -1.6712   -0.4770 C   0  0  0  0  0  0  0  0  0  0  0  0
    6.2372    0.2773   -0.3063 Cl  0  0  0  0  0  0  0  0  0  0  0  0
    3.9747   -1.0913    0.2511 C   0  0  0  0  0  0  0  0  0  0  0  0
   -3.9518   -1.3555   -0.2547 N   0  0  0  0  0  0  0  0  0  0  0  0
   -7.1803    0.3522    0.3526 H   0  0  0  0  0  0  0  0  0  0  0  0
   -2.5749    1.5967   -0.1828 H   0  0  0  0  0  0  0  0  0  0  0  0
   -0.0508   -1.3260   -1.1213 H   0  0  0  0  0  0  0  0  0  0  0  0
   -0.1932    0.4037   -1.3520 H   0  0  0  0  0  0  0  0  0  0  0  0
   -0.0737    0.7409    1.1284 H   0  0  0  0  0  0  0  0  0  0  0  0
    0.0914   -0.9919    1.3491 H   0  0  0  0  0  0  0  0  0  0  0  0
    2.1796   -2.1522    0.7015 H   0  0  0  0  0  0  0  0  0  0  0  0
    1.7700    2.0718    0.1608 H   0  0  0  0  0  0  0  0  0  0  0  0
    4.1856    2.2569   -0.2595 H   0  0  0  0  0  0  0  0  0  0  0  0
   -2.3531   -2.6948   -0.6216 H   0  0  0  0  0  0  0  0  0  0  0  0
    4.5944   -1.9774    0.2800 H   0  0  0  0  0  0  0  0  0  0  0  0
   -4.7058   -2.0221   -0.2131 H   0  0  0  0  0  0  0  0  0  0  0  0
  3  2  2  0
  2  1  1  0
  2  4  1  0
 17  4  1  0
 17 14  1  0
  4  5  2  0
 14  6  2  0
  5  6  1  0
  6  7  1  0
  7  8  1  0
 15 13  1  0
 16 13  1  0
 16 10  2  0
 13 12  2  0
 10  9  1  0
 12 11  1  0
  9 11  2  0
  9  8  1  0
  1 18  1  0
  5 19  1  0
  7 20  1  0
  7 21  1  0
  8 22  1  0
  8 23  1  0
 10 24  1  0
 11 25  1  0
 12 26  1  0
 14 27  1  0
 16 28  1  0
 17 29  1  0
M  END
