
     RDKit          3D

 52 54  0  0  0  0  0  0  0  0999 V2000
   -2.2937   -0.2033   -5.9353 C   0  0  0  0  0  0  0  0  0  0  0  0
   -3.6699   -0.0303   -6.0359 C   0  0  0  0  0  0  0  0  0  0  0  0
   -4.4810   -0.2582   -4.9346 C   0  0  0  0  0  0  0  0  0  0  0  0
   -3.9083   -0.6576   -3.7316 C   0  0  0  0  0  0  0  0  0  0  0  0
   -2.5357   -0.8245   -3.6331 C   0  0  0  0  0  0  0  0  0  0  0  0
   -1.7107   -0.6025   -4.7357 C   0  0  0  0  0  0  0  0  0  0  0  0
   -0.2153   -0.8063   -4.6332 C   0  0  0  0  0  0  0  0  0  0  0  0
    0.3994   -0.1536   -3.4227 C   0  0  0  0  0  0  0  0  0  0  0  0
    0.9938   -0.9243   -2.4291 C   0  0  0  0  0  0  0  0  0  0  0  0
    0.3732    1.2351   -3.2588 C   0  0  0  0  0  0  0  0  0  0  0  0
   -0.1804    2.0746   -4.1636 O   0  0  0  0  0  0  0  0  0  0  0  0
    0.9422    1.8086   -2.1266 C   0  0  0  0  0  0  0  0  0  0  0  0
    1.5303    1.0129   -1.1568 C   0  0  0  0  0  0  0  0  0  0  0  0
    1.5682   -0.3711   -1.2901 C   0  0  0  0  0  0  0  0  0  0  0  0
    2.2219   -1.2521   -0.2492 C   0  0  0  0  0  0  0  0  0  0  0  0
    1.9408   -0.8206    1.1680 C   0  0  0  0  0  0  0  0  0  0  0  0
    2.9009   -0.1283    1.9213 C   0  0  0  0  0  0  0  0  0  0  0  0
    4.2568    0.2010    1.3595 C   0  0  0  0  0  0  0  0  0  0  0  0
    2.6017    0.2795    3.2141 C   0  0  0  0  0  0  0  0  0  0  0  0
    0.6921   -1.0869    1.7369 C   0  0  0  0  0  0  0  0  0  0  0  0
   -0.3683   -1.8199    0.9659 C   0  0  0  0  0  0  0  0  0  0  0  0
    0.4059   -0.6723    3.0374 C   0  0  0  0  0  0  0  0  0  0  0  0
    1.3589    0.0132    3.7779 C   0  0  0  0  0  0  0  0  0  0  0  0
    1.1725    0.4597    5.0422 O   0  0  0  0  0  0  0  0  0  0  0  0
   -0.0734    0.2490    5.6416 C   0  0  0  0  0  0  0  0  0  0  0  0
   -0.0367    0.8804    7.0115 C   0  0  0  0  0  0  0  0  0  0  0  0
   -1.1979    0.7071    7.6249 O   0  0  0  0  0  0  0  0  0  0  0  0
    0.9060    1.4567    7.4819 O   0  0  0  0  0  0  0  0  0  0  0  0
   -1.6662   -0.0277   -6.8022 H   0  0  0  0  0  0  0  0  0  0  0  0
   -4.1040    0.2851   -6.9758 H   0  0  0  0  0  0  0  0  0  0  0  0
   -5.5524   -0.1250   -5.0092 H   0  0  0  0  0  0  0  0  0  0  0  0
   -4.5350   -0.8377   -2.8675 H   0  0  0  0  0  0  0  0  0  0  0  0
   -2.1000   -1.1320   -2.6894 H   0  0  0  0  0  0  0  0  0  0  0  0
    0.2614   -0.4452   -5.5503 H   0  0  0  0  0  0  0  0  0  0  0  0
   -0.0038   -1.8776   -4.5955 H   0  0  0  0  0  0  0  0  0  0  0  0
    1.0017   -2.0024   -2.5544 H   0  0  0  0  0  0  0  0  0  0  0  0
   -0.6883    1.5946   -4.8267 H   0  0  0  0  0  0  0  0  0  0  0  0
    0.9157    2.8848   -2.0058 H   0  0  0  0  0  0  0  0  0  0  0  0
    1.9519    1.4869   -0.2784 H   0  0  0  0  0  0  0  0  0  0  0  0
    3.2989   -1.2775   -0.4288 H   0  0  0  0  0  0  0  0  0  0  0  0
    1.8867   -2.2815   -0.3992 H   0  0  0  0  0  0  0  0  0  0  0  0
    4.8058   -0.6953    1.0662 H   0  0  0  0  0  0  0  0  0  0  0  0
    4.1865    0.8362    0.4740 H   0  0  0  0  0  0  0  0  0  0  0  0
    4.8623    0.7305    2.0933 H   0  0  0  0  0  0  0  0  0  0  0  0
    3.3405    0.8199    3.7944 H   0  0  0  0  0  0  0  0  0  0  0  0
   -0.6367   -1.2918    0.0491 H   0  0  0  0  0  0  0  0  0  0  0  0
   -0.0343   -2.8159    0.6680 H   0  0  0  0  0  0  0  0  0  0  0  0
   -1.2745   -1.9403    1.5576 H   0  0  0  0  0  0  0  0  0  0  0  0
   -0.5714   -0.8971    3.4454 H   0  0  0  0  0  0  0  0  0  0  0  0
   -0.8903    0.7006    5.0656 H   0  0  0  0  0  0  0  0  0  0  0  0
   -0.3063   -0.8176    5.7495 H   0  0  0  0  0  0  0  0  0  0  0  0
   -1.1776    1.1138    8.5042 H   0  0  0  0  0  0  0  0  0  0  0  0
  1  2  2  0
  1  6  1  0
  1 29  1  0
  2  3  1  0
  2 30  1  0
  3  4  2  0
  3 31  1  0
  4  5  1  0
  4 32  1  0
  5  6  2  0
  5 33  1  0
  6  7  1  0
  7  8  1  0
  7 34  1  0
  7 35  1  0
  8  9  2  0
  8 10  1  0
  9 14  1  0
  9 36  1  0
 10 11  1  0
 10 12  2  0
 11 37  1  0
 12 13  1  0
 12 38  1  0
 13 14  2  0
 13 39  1  0
 14 15  1  0
 15 16  1  0
 15 40  1  0
 15 41  1  0
 16 17  2  0
 16 20  1  0
 17 18  1  0
 17 19  1  0
 18 42  1  0
 18 43  1  0
 18 44  1  0
 19 23  2  0
 19 45  1  0
 20 21  1  0
 20 22  2  0
 21 46  1  0
 21 47  1  0
 21 48  1  0
 22 23  1  0
 22 49  1  0
 23 24  1  0
 24 25  1  0
 25 26  1  0
 25 50  1  0
 25 51  1  0
 26 27  1  0
 26 28  2  0
 27 52  1  0
M  END
