
     RDKit          3D

 53 56  0  0  0  0  0  0  0  0999 V2000
    3.8297    2.2529    0.9582 Cl  0  0  0  0  0  0  0  0  0  0  0  0
    3.0077    0.7893    0.5354 C   0  0  0  0  0  0  0  0  0  0  0  0
    3.6856   -0.2038   -0.1690 C   0  0  0  0  0  0  0  0  0  0  0  0
    5.1026   -0.0613   -0.5849 C   0  0  0  0  0  0  0  0  0  0  0  0
    5.3753    0.2288   -1.9192 C   0  0  0  0  0  0  0  0  0  0  0  0
    6.6820    0.3552   -2.3671 C   0  0  0  0  0  0  0  0  0  0  0  0
    7.7282    0.1896   -1.4713 C   0  0  0  0  0  0  0  0  0  0  0  0
    7.4582   -0.1052   -0.1427 C   0  0  0  0  0  0  0  0  0  0  0  0
    6.1524   -0.2370    0.3247 C   0  0  0  0  0  0  0  0  0  0  0  0
    5.9123   -0.6251    1.7588 C   0  0  0  0  0  0  0  0  0  0  0  0
    5.7567   -2.1355    1.9278 C   0  0  0  0  0  0  0  0  0  0  0  0
    1.6828    0.6432    0.9129 C   0  0  0  0  0  0  0  0  0  0  0  0
    0.9942   -0.5149    0.5724 C   0  0  0  0  0  0  0  0  0  0  0  0
    1.6451   -1.5104   -0.1454 C   0  0  0  0  0  0  0  0  0  0  0  0
    2.9728   -1.3517   -0.5062 C   0  0  0  0  0  0  0  0  0  0  0  0
   -0.4445   -0.6756    0.9559 C   0  0  0  0  0  0  0  0  0  0  0  0
   -1.3373   -0.0291   -0.0541 N   0  0  0  0  0  0  0  0  0  0  0  0
   -2.7825   -0.2294    0.2342 C   0  0  0  0  0  0  0  0  0  0  0  0
   -3.6337    0.4958   -0.7900 C   0  0  0  0  0  0  0  0  0  0  0  0
   -5.0802    0.2910   -0.5013 C   0  0  0  0  0  0  0  0  0  0  0  0
   -6.0411    1.0817   -1.0419 N   0  0  0  0  0  0  0  0  0  0  0  0
   -7.2506    0.6222   -0.5914 C   0  0  0  0  0  0  0  0  0  0  0  0
   -6.9298   -0.4681    0.2338 C   0  0  0  0  0  0  0  0  0  0  0  0
   -5.5655   -0.6450    0.2657 N   0  0  0  0  0  0  0  0  0  0  0  0
   -8.5588    1.0385   -0.8076 C   0  0  0  0  0  0  0  0  0  0  0  0
   -9.5528    0.3192   -0.1661 C   0  0  0  0  0  0  0  0  0  0  0  0
   -9.2512   -0.7739    0.6602 C   0  0  0  0  0  0  0  0  0  0  0  0
   -7.9452   -1.1801    0.8706 C   0  0  0  0  0  0  0  0  0  0  0  0
    4.5534    0.3589   -2.6125 H   0  0  0  0  0  0  0  0  0  0  0  0
    6.8790    0.5820   -3.4066 H   0  0  0  0  0  0  0  0  0  0  0  0
    8.7533    0.2886   -1.8044 H   0  0  0  0  0  0  0  0  0  0  0  0
    8.2800   -0.2374    0.5519 H   0  0  0  0  0  0  0  0  0  0  0  0
    6.7528   -0.2814    2.3653 H   0  0  0  0  0  0  0  0  0  0  0  0
    5.0285   -0.1225    2.1540 H   0  0  0  0  0  0  0  0  0  0  0  0
    5.5827   -2.3909    2.9734 H   0  0  0  0  0  0  0  0  0  0  0  0
    4.9158   -2.5162    1.3472 H   0  0  0  0  0  0  0  0  0  0  0  0
    6.6533   -2.6610    1.5978 H   0  0  0  0  0  0  0  0  0  0  0  0
    1.1897    1.4290    1.4715 H   0  0  0  0  0  0  0  0  0  0  0  0
    1.1197   -2.4173   -0.4173 H   0  0  0  0  0  0  0  0  0  0  0  0
    3.4774   -2.1365   -1.0544 H   0  0  0  0  0  0  0  0  0  0  0  0
   -0.7313   -1.7242    1.0014 H   0  0  0  0  0  0  0  0  0  0  0  0
   -0.6698   -0.2101    1.9134 H   0  0  0  0  0  0  0  0  0  0  0  0
   -1.1282    0.9705   -0.0977 H   0  0  0  0  0  0  0  0  0  0  0  0
   -2.9627   -1.3015    0.2242 H   0  0  0  0  0  0  0  0  0  0  0  0
   -2.9617    0.1465    1.2390 H   0  0  0  0  0  0  0  0  0  0  0  0
   -3.4084    1.5650   -0.7849 H   0  0  0  0  0  0  0  0  0  0  0  0
   -3.4104    0.1310   -1.7972 H   0  0  0  0  0  0  0  0  0  0  0  0
   -5.8882    1.8680   -1.6542 H   0  0  0  0  0  0  0  0  0  0  0  0
   -8.7924    1.8839   -1.4413 H   0  0  0  0  0  0  0  0  0  0  0  0
  -10.5864    0.6083   -0.3032 H   0  0  0  0  0  0  0  0  0  0  0  0
  -10.0595   -1.3088    1.1415 H   0  0  0  0  0  0  0  0  0  0  0  0
   -7.7164   -2.0242    1.5084 H   0  0  0  0  0  0  0  0  0  0  0  0
   -1.1158   -0.3961   -0.9817 H   0  0  0  0  0  0  0  0  0  0  0  0
 28 27  2  0
 28 23  1  0
 27 26  1  0
 24 23  1  0
 24 20  2  0
 23 22  2  0
 26 25  2  0
 20 19  1  0
 20 21  1  0
 22 25  1  0
 22 21  1  0
 19 18  1  0
  6  5  2  0
  6  7  1  0
  5  4  1  0
 18 17  1  0
 17 16  1  0
 14 15  2  0
 14 13  1  0
 15  3  1  0
  7  8  2  0
 16 13  1  0
  4  3  1  0
  4  9  2  0
 13 12  2  0
  3  2  2  0
  2 12  1  0
  2  1  1  0
  8  9  1  0
  9 10  1  0
 10 11  1  0
  5 29  1  0
  6 30  1  0
  7 31  1  0
  8 32  1  0
 10 33  1  0
 10 34  1  0
 11 35  1  0
 11 36  1  0
 11 37  1  0
 12 38  1  0
 14 39  1  0
 15 40  1  0
 16 41  1  0
 16 42  1  0
 17 43  1  0
 18 44  1  0
 18 45  1  0
 19 46  1  0
 19 47  1  0
 21 48  1  0
 25 49  1  0
 26 50  1  0
 27 51  1  0
 28 52  1  0
 17 53  1  0
M  CHG  1  17   1
M  END
