
     RDKit          3D

 34 36  0  0  0  0  0  0  0  0999 V2000
    3.2562   -2.8950   -0.3197 C   0  0  0  0  0  0  0  0  0  0  0  0
    2.2826   -1.9967    0.4264 C   0  0  0  0  0  0  0  0  0  0  0  0
    1.2767   -0.4268   -1.1993 C   0  0  0  0  0  0  0  0  0  0  0  0
   -0.1085   -0.1039   -0.7150 C   0  0  0  0  0  0  0  0  0  0  0  0
   -1.0458   -1.1391   -0.5661 C   0  0  0  0  0  0  0  0  0  0  0  0
   -2.3116   -0.8140   -0.1554 C   0  0  0  0  0  0  0  0  0  0  0  0
   -2.6668    0.4970    0.1049 C   0  0  0  0  0  0  0  0  0  0  0  0
   -1.7726    1.5289   -0.0187 C   0  0  0  0  0  0  0  0  0  0  0  0
    1.5831    2.4226    0.2699 C   0  0  0  0  0  0  0  0  0  0  0  0
    2.8832    1.7197   -0.1462 C   0  0  0  0  0  0  0  0  0  0  0  0
    3.0325    0.3079    0.3808 C   0  0  0  0  0  0  0  0  0  0  0  0
    2.2296   -0.6502   -0.1231 N   0  0  0  0  0  0  0  0  0  0  0  0
   -3.3938   -1.6186    0.0209 O   0  0  0  0  0  0  0  0  0  0  0  0
   -4.3910   -0.8025    0.6170 C   0  0  0  0  0  0  0  0  0  0  0  0
   -3.9729    0.5490    0.4599 O   0  0  0  0  0  0  0  0  0  0  0  0
   -0.4655    1.2203   -0.4411 C   0  0  0  0  0  0  0  0  0  0  0  0
    0.4511    2.2649   -0.6388 N   0  0  0  0  0  0  0  0  0  0  0  0
    3.2364   -3.9024    0.0972 H   0  0  0  0  0  0  0  0  0  0  0  0
    3.0008   -2.9703   -1.3779 H   0  0  0  0  0  0  0  0  0  0  0  0
    4.2754   -2.5175   -0.2407 H   0  0  0  0  0  0  0  0  0  0  0  0
    1.2757   -2.4156    0.3856 H   0  0  0  0  0  0  0  0  0  0  0  0
    2.5498   -1.9410    1.4797 H   0  0  0  0  0  0  0  0  0  0  0  0
    1.2540   -1.3323   -1.8093 H   0  0  0  0  0  0  0  0  0  0  0  0
    1.6335    0.3670   -1.8539 H   0  0  0  0  0  0  0  0  0  0  0  0
   -0.7782   -2.1617   -0.8006 H   0  0  0  0  0  0  0  0  0  0  0  0
   -2.0582    2.5510    0.1958 H   0  0  0  0  0  0  0  0  0  0  0  0
    1.3241    2.1419    1.2976 H   0  0  0  0  0  0  0  0  0  0  0  0
    1.7989    3.4900    0.2929 H   0  0  0  0  0  0  0  0  0  0  0  0
    2.9951    1.7744   -1.2310 H   0  0  0  0  0  0  0  0  0  0  0  0
    3.7142    2.2810    0.2805 H   0  0  0  0  0  0  0  0  0  0  0  0
   -5.3445   -0.9537    0.1112 H   0  0  0  0  0  0  0  0  0  0  0  0
   -4.4810   -1.0386    1.6831 H   0  0  0  0  0  0  0  0  0  0  0  0
   -0.0388    3.1446   -0.7081 H   0  0  0  0  0  0  0  0  0  0  0  0
    3.8415    0.0656    1.2711 O   0  0  0  0  0  0  0  0  0  0  0  0
 13  6  1  0
 13 14  1  0
  5  6  2  0
  5  4  1  0
  6  7  1  0
 14 15  1  0
  3  4  1  0
  3 12  1  0
  4 16  2  0
  2 12  1  0
  2  1  1  0
 12 11  1  0
  7 15  1  0
  7  8  2  0
 16  8  1  0
 16 17  1  0
 11 10  1  0
 11 34  2  0
 10  9  1  0
  9 17  1  0
  1 18  1  0
  1 19  1  0
  1 20  1  0
  2 21  1  0
  2 22  1  0
  3 23  1  0
  3 24  1  0
  5 25  1  0
  8 26  1  0
  9 27  1  0
  9 28  1  0
 10 29  1  0
 10 30  1  0
 14 31  1  0
 14 32  1  0
 17 33  1  0
M  END
