
     RDKit          3D

 61 63  0  0  0  0  0  0  0  0999 V2000
   -7.1259    0.4230    0.5380 N   0  0  0  0  0  0  0  0  0  0  0  0
   -5.7965    0.6817    0.2490 C   0  0  0  0  0  0  0  0  0  0  0  0
   -5.1808    1.8952    0.5763 C   0  0  0  0  0  0  0  0  0  0  0  0
   -3.8614    2.1134    0.2536 C   0  0  0  0  0  0  0  0  0  0  0  0
   -3.0888    1.1475   -0.4033 C   0  0  0  0  0  0  0  0  0  0  0  0
    1.5217    0.8894    0.7662 C   0  0  0  0  0  0  0  0  0  0  0  0
    4.2220    0.7369   -0.6813 C   0  0  0  0  0  0  0  0  0  0  0  0
    8.6326    2.1873    0.8391 C   0  0  0  0  0  0  0  0  0  0  0  0
    9.1087    0.8973    1.0836 C   0  0  0  0  0  0  0  0  0  0  0  0
   10.4328    0.7006    1.5612 C   0  0  0  0  0  0  0  0  0  0  0  0
    8.2555   -0.1804    0.8496 C   0  0  0  0  0  0  0  0  0  0  0  0
    6.9666   -0.0024    0.3859 C   0  0  0  0  0  0  0  0  0  0  0  0
   -5.0249   -0.2861   -0.3898 C   0  0  0  0  0  0  0  0  0  0  0  0
   -7.7654    1.3549    2.7488 C   0  0  0  0  0  0  0  0  0  0  0  0
   -7.9400    1.4150    1.2416 C   0  0  0  0  0  0  0  0  0  0  0  0
   -1.7695    1.4931   -0.7082 N   0  0  0  0  0  0  0  0  0  0  0  0
   -0.7853    0.7230   -1.2361 C   0  0  0  0  0  0  0  0  0  0  0  0
   -0.9210   -0.4583   -1.5047 O   0  0  0  0  0  0  0  0  0  0  0  0
    0.5193    1.4493   -1.4778 C   0  0  0  0  0  0  0  0  0  0  0  0
    1.6894    0.7865   -0.7467 C   0  0  1  0  0  0  0  0  0  0  0  0
    2.9912    1.4393   -1.2075 C   0  0  0  0  0  0  0  0  0  0  0  0
    4.3094   -0.4732   -0.6197 O   0  0  0  0  0  0  0  0  0  0  0  0
    5.2287    1.5851   -0.3137 N   0  0  0  0  0  0  0  0  0  0  0  0
    6.5022    1.2937    0.1443 C   0  0  0  0  0  0  0  0  0  0  0  0
    7.3527    2.3826    0.3774 C   0  0  0  0  0  0  0  0  0  0  0  0
   11.5095    0.5638    1.9489 N   0  0  0  0  0  0  0  0  0  0  0  0
   -3.6864   -0.0612   -0.7147 C   0  0  0  0  0  0  0  0  0  0  0  0
   -5.6194   -1.5760   -0.7374 C   0  0  0  0  0  0  0  0  0  0  0  0
   -4.9997   -2.4710   -1.2800 O   0  0  0  0  0  0  0  0  0  0  0  0
   -6.9505   -1.7250   -0.4105 N   0  0  0  0  0  0  0  0  0  0  0  0
   -7.5979   -3.0027   -0.7260 C   0  0  0  0  0  0  0  0  0  0  0  0
   -7.4753   -4.0152    0.3989 C   0  0  0  0  0  0  0  0  0  0  0  0
   -7.7106   -0.7861    0.2719 C   0  0  0  0  0  0  0  0  0  0  0  0
   -8.8534   -1.0352    0.6034 O   0  0  0  0  0  0  0  0  0  0  0  0
   -5.7117    2.6840    1.0867 H   0  0  0  0  0  0  0  0  0  0  0  0
   -3.4169    3.0648    0.5203 H   0  0  0  0  0  0  0  0  0  0  0  0
    0.5984    0.4161    1.1036 H   0  0  0  0  0  0  0  0  0  0  0  0
    2.3388    0.4007    1.2979 H   0  0  0  0  0  0  0  0  0  0  0  0
    1.4942    1.9339    1.0850 H   0  0  0  0  0  0  0  0  0  0  0  0
    9.2776    3.0370    1.0143 H   0  0  0  0  0  0  0  0  0  0  0  0
    6.3392   -0.8620    0.2222 H   0  0  0  0  0  0  0  0  0  0  0  0
   -6.7331    1.5373    3.0480 H   0  0  0  0  0  0  0  0  0  0  0  0
   -8.3874    2.1159    3.2195 H   0  0  0  0  0  0  0  0  0  0  0  0
   -8.0667    0.3836    3.1401 H   0  0  0  0  0  0  0  0  0  0  0  0
   -7.6872    2.3999    0.8540 H   0  0  0  0  0  0  0  0  0  0  0  0
   -8.9780    1.2447    0.9728 H   0  0  0  0  0  0  0  0  0  0  0  0
   -1.5228    2.4483   -0.4995 H   0  0  0  0  0  0  0  0  0  0  0  0
    0.6984    1.4270   -2.5569 H   0  0  0  0  0  0  0  0  0  0  0  0
    0.4504    2.5026   -1.1930 H   0  0  0  0  0  0  0  0  0  0  0  0
    1.7174   -0.2674   -1.0336 H   0  0  0  0  0  0  0  0  0  0  0  0
    2.9961    2.4985   -0.9361 H   0  0  0  0  0  0  0  0  0  0  0  0
    3.0576    1.4036   -2.3006 H   0  0  0  0  0  0  0  0  0  0  0  0
    5.0307    2.5696   -0.4134 H   0  0  0  0  0  0  0  0  0  0  0  0
    7.0026    3.3900    0.1935 H   0  0  0  0  0  0  0  0  0  0  0  0
   -3.1417   -0.8435   -1.2163 H   0  0  0  0  0  0  0  0  0  0  0  0
   -8.6414   -2.8050   -0.9542 H   0  0  0  0  0  0  0  0  0  0  0  0
   -7.1384   -3.3839   -1.6337 H   0  0  0  0  0  0  0  0  0  0  0  0
   -6.4330   -4.2420    0.6206 H   0  0  0  0  0  0  0  0  0  0  0  0
   -7.9539   -3.6603    1.3109 H   0  0  0  0  0  0  0  0  0  0  0  0
   -7.9633   -4.9448    0.1056 H   0  0  0  0  0  0  0  0  0  0  0  0
    8.8161   -1.7808    1.1482 Cl  0  0  0  0  0  0  0  0  0  0  0  0
 61 11  1  0
 26 10  3  0
 10  9  1  0
 11  9  1  0
 11 12  2  0
  9  8  2  0
 12 24  1  0
  8 25  1  0
 24 25  2  0
 24 23  1  0
 23  7  1  0
 22  7  2  0
  7 21  1  0
 21 20  1  0
  6 20  1  0
 32 31  1  0
 20 19  1  0
 15  1  1  0
 15 14  1  0
 34 33  2  0
  1 33  1  0
  1  2  1  0
  3  2  2  0
  3  4  1  0
 33 30  1  0
  2 13  1  0
  4  5  2  0
 30 31  1  0
 30 28  1  0
 13 28  1  0
 13 27  2  0
  5 16  1  0
  5 27  1  0
 28 29  2  0
 16 17  1  0
 19 17  1  0
 17 18  2  0
  3 35  1  0
  4 36  1  0
  6 37  1  0
  6 38  1  0
  6 39  1  0
  8 40  1  0
 12 41  1  0
 14 42  1  0
 14 43  1  0
 14 44  1  0
 15 45  1  0
 15 46  1  0
 16 47  1  0
 19 48  1  0
 19 49  1  0
 20 50  1  1
 21 51  1  0
 21 52  1  0
 23 53  1  0
 25 54  1  0
 27 55  1  0
 31 56  1  0
 31 57  1  0
 32 58  1  0
 32 59  1  0
 32 60  1  0
M  END
