
     RDKit          3D

 32 34  0  0  0  0  0  0  0  0999 V2000
   -2.4649    3.1549   -0.1251 C   0  0  0  0  0  0  0  0  0  0  0  0
   -2.8093    1.6943   -0.1458 C   0  0  0  0  0  0  0  0  0  0  0  0
   -3.9457    1.2874   -0.2222 O   0  0  0  0  0  0  0  0  0  0  0  0
   -1.7411    0.8129   -0.0693 N   0  0  0  0  0  0  0  0  0  0  0  0
   -0.4011    1.1817   -0.0054 C   0  0  0  0  0  0  0  0  0  0  0  0
    0.3930    0.0865    0.0564 C   0  0  0  0  0  0  0  0  0  0  0  0
    1.8397    0.0777    0.1603 C   0  0  0  0  0  0  0  0  0  0  0  0
    2.6272    0.8717    0.9486 C   0  0  0  0  0  0  0  0  0  0  0  0
    2.2489    1.8728    1.9756 C   0  0  0  0  0  0  0  0  0  0  0  0
    3.9320    0.6435    0.6613 N   0  0  0  0  0  0  0  0  0  0  0  0
    3.9920   -0.4360   -0.1853 N   0  0  0  0  0  0  0  0  0  0  0  0
    2.7285   -0.7448   -0.6354 C   0  0  0  0  0  0  0  0  0  0  0  0
    2.4879   -1.5430   -1.5365 O   0  0  0  0  0  0  0  0  0  0  0  0
   -0.4879   -1.0589    0.0317 C   0  0  0  0  0  0  0  0  0  0  0  0
   -0.2449   -2.4297    0.0972 C   0  0  0  0  0  0  0  0  0  0  0  0
   -1.3213   -3.2970    0.0684 C   0  0  0  0  0  0  0  0  0  0  0  0
   -2.6277   -2.8087   -0.0268 C   0  0  0  0  0  0  0  0  0  0  0  0
   -2.8950   -1.4503   -0.0848 C   0  0  0  0  0  0  0  0  0  0  0  0
   -1.8077   -0.5814   -0.0503 C   0  0  0  0  0  0  0  0  0  0  0  0
   -1.8195    3.4258   -0.9613 H   0  0  0  0  0  0  0  0  0  0  0  0
   -3.3801    3.7361   -0.1933 H   0  0  0  0  0  0  0  0  0  0  0  0
   -1.9472    3.4278    0.7952 H   0  0  0  0  0  0  0  0  0  0  0  0
   -0.1098    2.2186   -0.0315 H   0  0  0  0  0  0  0  0  0  0  0  0
    2.9788    1.9102    2.7839 H   0  0  0  0  0  0  0  0  0  0  0  0
    2.1902    2.8705    1.5381 H   0  0  0  0  0  0  0  0  0  0  0  0
    1.2736    1.6380    2.3971 H   0  0  0  0  0  0  0  0  0  0  0  0
    4.8075   -0.5081   -0.7770 H   0  0  0  0  0  0  0  0  0  0  0  0
    0.7654   -2.8081    0.1714 H   0  0  0  0  0  0  0  0  0  0  0  0
   -1.1539   -4.3650    0.1170 H   0  0  0  0  0  0  0  0  0  0  0  0
   -3.4546   -3.5060   -0.0530 H   0  0  0  0  0  0  0  0  0  0  0  0
   -3.9117   -1.0995   -0.1525 H   0  0  0  0  0  0  0  0  0  0  0  0
    4.6360    0.6773    1.3864 H   0  0  0  0  0  0  0  0  0  0  0  0
 11 12  1  0
 11 10  1  0
 13 12  2  0
 12  7  1  0
  1  2  1  0
 10  8  1  0
  5  6  2  0
  5  4  1  0
  7  8  2  0
  7  6  1  0
  8  9  1  0
  2  4  1  0
  2  3  2  0
  6 14  1  0
  4 19  1  0
 14 19  2  0
 14 15  1  0
 19 18  1  0
 15 16  2  0
 18 17  2  0
 16 17  1  0
  1 20  1  0
  1 21  1  0
  1 22  1  0
  5 23  1  0
  9 24  1  0
  9 25  1  0
  9 26  1  0
 11 27  1  0
 15 28  1  0
 16 29  1  0
 17 30  1  0
 18 31  1  0
 10 32  1  0
M  END
