
     RDKit          3D

 21 22  0  0  0  0  0  0  0  0999 V2000
    1.0521   -0.0367   -2.2445 N   0  0  0  0  0  0  0  0  0  0  0  0
   -1.1673    0.0777   -2.2420 N   0  0  0  0  0  0  0  0  0  0  0  0
   -0.0888    0.0215   -2.9717 C   0  0  0  0  0  0  0  0  0  0  0  0
   -0.7107    0.0538   -0.9431 C   0  0  0  0  0  0  0  0  0  0  0  0
    0.6874   -0.0189   -0.9244 C   0  0  0  0  0  0  0  0  0  0  0  0
    1.4108   -0.0593    0.2624 C   0  0  0  0  0  0  0  0  0  0  0  0
    0.7073   -0.0242    1.4558 C   0  0  0  0  0  0  0  0  0  0  0  0
   -0.7097    0.0549    1.4566 C   0  0  0  0  0  0  0  0  0  0  0  0
   -1.4108    0.0911    0.2632 C   0  0  0  0  0  0  0  0  0  0  0  0
    1.4535   -0.0800    2.7575 C   0  0  0  0  0  0  0  0  0  0  0  0
   -1.4530    0.1053    2.7611 C   0  0  0  0  0  0  0  0  0  0  0  0
    1.9868   -0.0931   -2.6162 H   0  0  0  0  0  0  0  0  0  0  0  0
   -0.0659    0.0210   -4.0512 H   0  0  0  0  0  0  0  0  0  0  0  0
    2.4923   -0.1162    0.2616 H   0  0  0  0  0  0  0  0  0  0  0  0
   -2.4930    0.1480    0.2660 H   0  0  0  0  0  0  0  0  0  0  0  0
    1.2467    0.7893    3.3851 H   0  0  0  0  0  0  0  0  0  0  0  0
    1.1795   -0.9615    3.3411 H   0  0  0  0  0  0  0  0  0  0  0  0
    2.5295   -0.1174    2.5925 H   0  0  0  0  0  0  0  0  0  0  0  0
   -1.2457   -0.7667    3.3849 H   0  0  0  0  0  0  0  0  0  0  0  0
   -1.1787    0.9841    3.3490 H   0  0  0  0  0  0  0  0  0  0  0  0
   -2.5292    0.1429    2.5974 H   0  0  0  0  0  0  0  0  0  0  0  0
  1  3  1  0
  1  5  1  0
  1 12  1  0
  2  3  2  0
  2  4  1  0
  3 13  1  0
  4  5  2  0
  4  9  1  0
  5  6  1  0
  6  7  2  0
  6 14  1  0
  7  8  1  0
  7 10  1  0
  8  9  2  0
  8 11  1  0
  9 15  1  0
 10 16  1  0
 10 17  1  0
 10 18  1  0
 11 19  1  0
 11 20  1  0
 11 21  1  0
M  END
