
     RDKit          3D

 29 28  0  0  0  0  0  0  0  0999 V2000
    1.1946   -0.1536    4.7653 O   0  0  0  0  0  0  0  0  0  0  0  0
    0.0202    0.0827    4.5657 C   0  0  0  0  0  0  0  0  0  0  0  0
   -0.8750    0.4889    5.6730 C   0  0  0  0  0  0  0  0  0  0  0  0
   -0.4805    0.2157    3.2788 N   0  0  0  0  0  0  0  0  0  0  0  0
    0.2482   -0.1250    2.1147 C   0  0  0  0  0  0  0  0  0  0  0  0
   -0.4878    0.1154    0.8390 C   0  0  0  0  0  0  0  0  0  0  0  0
    0.3537   -0.2668   -0.3032 C   0  0  0  0  0  0  0  0  0  0  0  0
   -0.3552    0.0079   -1.6068 C   0  0  0  0  0  0  0  0  0  0  0  0
    0.4592   -0.3611   -2.7460 C   0  0  2  0  0  0  0  0  0  0  0  0
    1.7704    0.1165   -2.7650 N   0  0  0  0  0  0  0  0  0  0  0  0
   -0.2453    0.0760   -3.9188 C   0  0  0  0  0  0  0  0  0  0  0  0
   -0.1898    1.1735   -4.5055 O   0  0  0  0  0  0  0  0  0  0  0  0
   -1.1695   -0.8244   -4.3612 O   0  0  0  0  0  0  0  0  0  0  0  0
   -0.2768    0.5432    6.6181 H   0  0  0  0  0  0  0  0  0  0  0  0
   -1.3225    1.4907    5.4686 H   0  0  0  0  0  0  0  0  0  0  0  0
   -1.6998   -0.2605    5.8078 H   0  0  0  0  0  0  0  0  0  0  0  0
   -1.4365    0.4674    3.1591 H   0  0  0  0  0  0  0  0  0  0  0  0
    1.2130    0.4576    2.0981 H   0  0  0  0  0  0  0  0  0  0  0  0
    0.5055   -1.2121    2.1712 H   0  0  0  0  0  0  0  0  0  0  0  0
   -1.4478   -0.4862    0.8237 H   0  0  0  0  0  0  0  0  0  0  0  0
   -0.7659    1.1814    0.7548 H   0  0  0  0  0  0  0  0  0  0  0  0
    1.3294    0.3133   -0.2553 H   0  0  0  0  0  0  0  0  0  0  0  0
    0.6155   -1.3732   -0.2331 H   0  0  0  0  0  0  0  0  0  0  0  0
   -1.3082   -0.5902   -1.6492 H   0  0  0  0  0  0  0  0  0  0  0  0
   -0.6395    1.1112   -1.6726 H   0  0  0  0  0  0  0  0  0  0  0  0
    0.5229   -1.4895   -2.7808 H   0  0  0  0  0  0  0  0  0  0  0  0
    1.8098    1.0921   -2.4928 H   0  0  0  0  0  0  0  0  0  0  0  0
    2.3463   -0.4317   -2.1484 H   0  0  0  0  0  0  0  0  0  0  0  0
   -1.6566   -0.4472   -5.1494 H   0  0  0  0  0  0  0  0  0  0  0  0
  1  2  2  0
  2  3  1  0
  2  4  1  0
  3 14  1  0
  3 15  1  0
  3 16  1  0
  4  5  1  0
  4 17  1  0
  5  6  1  0
  5 18  1  0
  5 19  1  0
  6  7  1  0
  6 20  1  0
  6 21  1  0
  7  8  1  0
  7 22  1  0
  7 23  1  0
  8  9  1  0
  8 24  1  0
  8 25  1  0
  9 10  1  0
  9 11  1  0
  9 26  1  6
 10 27  1  0
 10 28  1  0
 11 12  2  0
 11 13  1  0
 13 29  1  0
M  END
