
     RDKit          3D

 20 19  0  0  0  0  0  0  0  0999 V2000
   -2.5620    0.6286    0.5116 C   0  0  0  0  0  0  0  0  0  0  0  0
   -3.6086    0.5749   -0.1927 N   0  0  0  0  0  0  0  0  0  0  0  0
   -1.4562   -0.3888    0.3903 C   0  0  1  0  0  0  0  0  0  0  0  0
   -1.6982   -1.4486   -0.5642 N   0  0  0  0  0  0  0  0  0  0  0  0
   -0.1456    0.3408    0.0816 C   0  0  0  0  0  0  0  0  0  0  0  0
    1.0597   -0.5847    0.1353 C   0  0  0  0  0  0  0  0  0  0  0  0
    2.3583    0.1136   -0.2053 C   0  0  0  0  0  0  0  0  0  0  0  0
    2.4085    1.0671   -0.9707 O   0  0  0  0  0  0  0  0  0  0  0  0
    3.4519   -0.4081    0.3720 N   0  0  0  0  0  0  0  0  0  0  0  0
   -2.3830    1.4066    1.2608 H   0  0  0  0  0  0  0  0  0  0  0  0
   -4.2326    1.3427    0.0384 H   0  0  0  0  0  0  0  0  0  0  0  0
   -1.3545   -0.8443    1.3847 H   0  0  0  0  0  0  0  0  0  0  0  0
   -2.5603   -1.9224   -0.3236 H   0  0  0  0  0  0  0  0  0  0  0  0
   -1.8707   -1.0386   -1.4753 H   0  0  0  0  0  0  0  0  0  0  0  0
   -0.2193    0.8050   -0.9056 H   0  0  0  0  0  0  0  0  0  0  0  0
   -0.0179    1.1554    0.7995 H   0  0  0  0  0  0  0  0  0  0  0  0
    1.1278   -1.0556    1.1195 H   0  0  0  0  0  0  0  0  0  0  0  0
    0.9269   -1.4010   -0.5803 H   0  0  0  0  0  0  0  0  0  0  0  0
    3.4002   -1.1967    0.9920 H   0  0  0  0  0  0  0  0  0  0  0  0
    4.3658   -0.0436    0.1586 H   0  0  0  0  0  0  0  0  0  0  0  0
  8  7  2  0
  9  7  1  0
  7  6  1  0
  6  5  1  0
  5  3  1  0
  3  4  1  0
  3  1  1  0
  1  2  2  0
  1 10  1  0
  2 11  1  0
  3 12  1  1
  4 13  1  0
  4 14  1  0
  5 15  1  0
  5 16  1  0
  6 17  1  0
  6 18  1  0
  9 19  1  0
  9 20  1  0
M  END
