
     RDKit          3D

 43 45  0  0  0  0  0  0  0  0999 V2000
   -4.5581    3.1380   -0.6735 O   0  0  0  0  0  0  0  0  0  0  0  0
   -3.6786    2.2471   -0.2542 C   0  0  0  0  0  0  0  0  0  0  0  0
   -2.5464    2.4955    0.0591 O   0  0  0  0  0  0  0  0  0  0  0  0
   -4.2812    0.8756   -0.2021 C   0  0  0  0  0  0  0  0  0  0  0  0
   -5.6426    0.8476   -0.0342 N   0  0  0  0  0  0  0  0  0  0  0  0
   -6.3791   -0.2962    0.0669 C   0  0  0  0  0  0  0  0  0  0  0  0
   -7.5806   -0.3024    0.2309 O   0  0  0  0  0  0  0  0  0  0  0  0
   -5.6300   -1.4394   -0.0321 N   0  0  0  0  0  0  0  0  0  0  0  0
   -4.2665   -1.5310   -0.2121 C   0  0  0  0  0  0  0  0  0  0  0  0
   -3.7262   -2.6175   -0.2782 O   0  0  0  0  0  0  0  0  0  0  0  0
   -3.5503   -0.2554   -0.3089 C   0  0  0  0  0  0  0  0  0  0  0  0
   -2.0687   -0.3437   -0.5065 C   0  0  0  0  0  0  0  0  0  0  0  0
   -1.3233   -0.5311    0.8238 C   0  0  0  0  0  0  0  0  0  0  0  0
    0.1533   -0.6788    0.6036 C   0  0  0  0  0  0  0  0  0  0  0  0
    1.0003    0.3941    0.7179 C   0  0  0  0  0  0  0  0  0  0  0  0
    0.6863   -1.9382    0.2335 C   0  0  0  0  0  0  0  0  0  0  0  0
    2.0216   -2.0982   -0.0040 C   0  0  0  0  0  0  0  0  0  0  0  0
    2.9085   -1.0016    0.1127 C   0  0  0  0  0  0  0  0  0  0  0  0
    4.2914   -1.1340   -0.1223 C   0  0  0  0  0  0  0  0  0  0  0  0
    2.3865    0.2647    0.4793 C   0  0  0  0  0  0  0  0  0  0  0  0
    3.2763    1.3587    0.5967 C   0  0  0  0  0  0  0  0  0  0  0  0
    4.6136    1.2072    0.3645 C   0  0  0  0  0  0  0  0  0  0  0  0
    5.1364   -0.0577   -0.0014 C   0  0  0  0  0  0  0  0  0  0  0  0
    6.5813   -0.2714   -0.2637 C   0  0  0  0  0  0  0  0  0  0  0  0
    7.0577   -1.3317   -0.5938 O   0  0  0  0  0  0  0  0  0  0  0  0
    7.2966    0.8288   -0.0958 O   0  0  0  0  0  0  0  0  0  0  0  0
    8.7042    0.7425   -0.3177 C   0  0  0  0  0  0  0  0  0  0  0  0
   -4.1766    4.0300   -0.6629 H   0  0  0  0  0  0  0  0  0  0  0  0
   -6.1387   -2.3115    0.0493 H   0  0  0  0  0  0  0  0  0  0  0  0
   -1.8625   -1.1950   -1.1575 H   0  0  0  0  0  0  0  0  0  0  0  0
   -1.6837    0.5366   -1.0151 H   0  0  0  0  0  0  0  0  0  0  0  0
   -1.5177    0.3261    1.4688 H   0  0  0  0  0  0  0  0  0  0  0  0
   -1.7095   -1.4145    1.3365 H   0  0  0  0  0  0  0  0  0  0  0  0
    0.6083    1.3646    1.0027 H   0  0  0  0  0  0  0  0  0  0  0  0
    0.0175   -2.7863    0.1458 H   0  0  0  0  0  0  0  0  0  0  0  0
    2.4157   -3.0682   -0.2812 H   0  0  0  0  0  0  0  0  0  0  0  0
    4.6817   -2.1042   -0.4037 H   0  0  0  0  0  0  0  0  0  0  0  0
    2.8836    2.3283    0.8764 H   0  0  0  0  0  0  0  0  0  0  0  0
    5.2685    2.0611    0.4625 H   0  0  0  0  0  0  0  0  0  0  0  0
    8.9271    0.4535   -1.3442 H   0  0  0  0  0  0  0  0  0  0  0  0
    9.0962    1.7371   -0.1290 H   0  0  0  0  0  0  0  0  0  0  0  0
    9.1707    0.0339    0.3659 H   0  0  0  0  0  0  0  0  0  0  0  0
   -6.1544    1.7147    0.0501 H   0  0  0  0  0  0  0  0  0  0  0  0
  7  6  2  0
  6  5  1  0
  6  8  1  0
  5  4  1  0
  8  9  1  0
  3  2  2  0
  1  2  1  0
  4  2  1  0
  4 11  2  0
  9 11  1  0
  9 10  2  0
 11 12  1  0
 12 13  1  0
 16 17  2  0
 16 14  1  0
 17 18  1  0
 27 26  1  0
 13 14  1  0
 14 15  2  0
 18 19  1  0
 18 20  2  0
 19 23  2  0
 15 20  1  0
 20 21  1  0
 26 24  1  0
 23 24  1  0
 23 22  1  0
 24 25  2  0
 21 22  2  0
  1 28  1  0
  8 29  1  0
 12 30  1  0
 12 31  1  0
 13 32  1  0
 13 33  1  0
 15 34  1  0
 16 35  1  0
 17 36  1  0
 19 37  1  0
 21 38  1  0
 22 39  1  0
 27 40  1  0
 27 41  1  0
 27 42  1  0
  5 43  1  0
M  END
