
     RDKit          3D

 32 31  0  0  0  0  0  0  0  0999 V2000
    0.3881   -0.1558    0.2525 N   0  0  0  0  0  0  0  0  0  0  0  0
    1.6165   -0.7445   -0.2025 C   0  0  1  0  0  0  0  0  0  0  0  0
    2.8231    0.0557    0.2976 C   0  0  0  0  0  0  0  0  0  0  0  0
    2.8219    1.5032   -0.1805 C   0  0  0  0  0  0  0  0  0  0  0  0
    4.1119    2.2142    0.1920 C   0  0  0  0  0  0  0  0  0  0  0  0
    4.0811    3.5908   -0.2696 N   0  0  0  0  0  0  0  0  0  0  0  0
    1.7211   -2.1872    0.2690 C   0  0  0  0  0  0  0  0  0  0  0  0
    2.6105   -2.8637   -0.4440 O   0  0  0  0  0  0  0  0  0  0  0  0
   -0.8925   -1.4127   -1.0963 O   0  0  0  0  0  0  0  0  0  0  0  0
    1.1053   -2.6518    1.1921 O   0  0  0  0  0  0  0  0  0  0  0  0
   -2.0078    0.0678    0.4398 C   0  0  0  0  0  0  0  0  0  0  0  0
   -3.2067    0.0918   -0.4901 C   0  0  0  0  0  0  0  0  0  0  0  0
   -4.4303    0.6822    0.1521 C   0  0  0  0  0  0  0  0  0  0  0  0
   -5.4497    0.7355   -0.6988 O   0  0  0  0  0  0  0  0  0  0  0  0
   -4.5035    1.0642    1.2935 O   0  0  0  0  0  0  0  0  0  0  0  0
   -0.8037   -0.5720   -0.2137 C   0  0  0  0  0  0  0  0  0  0  0  0
    0.4162    0.4773    1.0359 H   0  0  0  0  0  0  0  0  0  0  0  0
    1.6359   -0.7415   -1.2964 H   0  0  0  0  0  0  0  0  0  0  0  0
    3.7290   -0.4392   -0.0588 H   0  0  0  0  0  0  0  0  0  0  0  0
    2.8594    0.0197    1.3913 H   0  0  0  0  0  0  0  0  0  0  0  0
    1.9787    2.0537    0.2437 H   0  0  0  0  0  0  0  0  0  0  0  0
    2.6965    1.5256   -1.2687 H   0  0  0  0  0  0  0  0  0  0  0  0
    4.9631    1.6372   -0.1986 H   0  0  0  0  0  0  0  0  0  0  0  0
    4.2191    2.2177    1.2803 H   0  0  0  0  0  0  0  0  0  0  0  0
    4.9171    4.0713    0.0377 H   0  0  0  0  0  0  0  0  0  0  0  0
    4.1169    3.6054   -1.2818 H   0  0  0  0  0  0  0  0  0  0  0  0
    2.7006   -3.7651   -0.0998 H   0  0  0  0  0  0  0  0  0  0  0  0
   -2.2382   -0.5071    1.3417 H   0  0  0  0  0  0  0  0  0  0  0  0
   -1.7576    1.0757    0.7750 H   0  0  0  0  0  0  0  0  0  0  0  0
   -2.9829    0.6634   -1.3949 H   0  0  0  0  0  0  0  0  0  0  0  0
   -3.4547   -0.9157   -0.8321 H   0  0  0  0  0  0  0  0  0  0  0  0
   -6.2253    1.1207   -0.2644 H   0  0  0  0  0  0  0  0  0  0  0  0
  1  2  1  0
  1 16  1  0
  1 17  1  0
  2  3  1  0
  2  7  1  0
  2 18  1  6
  3  4  1  0
  3 19  1  0
  3 20  1  0
  4  5  1  0
  4 21  1  0
  4 22  1  0
  5  6  1  0
  5 23  1  0
  5 24  1  0
  6 25  1  0
  6 26  1  0
  7  8  1  0
  7 10  2  0
  8 27  1  0
  9 16  2  0
 11 12  1  0
 11 16  1  0
 11 28  1  0
 11 29  1  0
 12 13  1  0
 12 30  1  0
 12 31  1  0
 13 14  1  0
 13 15  2  0
 14 32  1  0
M  END
