
     RDKit          3D

 52 55  0  0  0  0  0  0  0  0999 V2000
   -4.7778    1.2391    1.2307 O   0  0  0  0  0  0  0  0  0  0  0  0
   -5.1385    0.4522    0.3796 C   0  0  0  0  0  0  0  0  0  0  0  0
   -4.9190   -0.8711    0.3956 N   0  0  0  0  0  0  0  0  0  0  0  0
   -4.1171   -1.5065    1.4187 C   0  0  0  0  0  0  0  0  0  0  0  0
   -2.6504   -1.4835    1.1253 C   0  0  0  0  0  0  0  0  0  0  0  0
   -1.7753   -0.3827    1.1300 C   0  0  0  0  0  0  0  0  0  0  0  0
   -0.5496   -0.9123    0.7741 C   0  0  0  0  0  0  0  0  0  0  0  0
   -0.7570   -2.2324    0.5884 N   0  0  0  0  0  0  0  0  0  0  0  0
   -2.0123   -2.5943    0.7944 N   0  0  0  0  0  0  0  0  0  0  0  0
    0.7495   -0.3078    0.6089 C   0  0  0  0  0  0  0  0  0  0  0  0
    1.0183    1.3689    0.8754 S   0  0  0  0  0  0  0  0  0  0  0  0
    2.6917    1.1469    0.4763 C   0  0  0  0  0  0  0  0  0  0  0  0
    3.0018   -0.0741    0.1746 N   0  0  0  0  0  0  0  0  0  0  0  0
    1.9288   -0.9046    0.2435 C   0  0  0  0  0  0  0  0  0  0  0  0
    2.0315   -2.2739   -0.0451 N   0  0  0  0  0  0  0  0  0  0  0  0
    2.3677   -2.5357   -1.4473 C   0  0  0  0  0  0  0  0  0  0  0  0
    2.2548   -4.0219   -1.7448 C   0  0  0  0  0  0  0  0  0  0  0  0
    3.1292   -4.8368   -0.7996 C   0  0  0  0  0  0  0  0  0  0  0  0
    2.8107   -4.4883    0.6496 C   0  0  0  0  0  0  0  0  0  0  0  0
    2.9113   -2.9892    0.8823 C   0  0  0  0  0  0  0  0  0  0  0  0
    3.6436    2.2513    0.4945 C   0  0  0  0  0  0  0  0  0  0  0  0
    3.2666    3.5680    0.7461 C   0  0  0  0  0  0  0  0  0  0  0  0
    4.2348    4.5556    0.7463 C   0  0  0  0  0  0  0  0  0  0  0  0
    5.5500    4.1956    0.4944 C   0  0  0  0  0  0  0  0  0  0  0  0
    5.9253    2.9436    0.2522 N   0  0  0  0  0  0  0  0  0  0  0  0
    4.9970    2.0014    0.2529 C   0  0  0  0  0  0  0  0  0  0  0  0
   -5.8363    0.8080   -0.7108 O   0  0  0  0  0  0  0  0  0  0  0  0
   -6.1491    2.1924   -0.8287 C   0  0  0  0  0  0  0  0  0  0  0  0
   -6.8798    2.3708   -2.0745 C   0  0  0  0  0  0  0  0  0  0  0  0
   -7.4830    2.5501   -3.0967 C   0  0  0  0  0  0  0  0  0  0  0  0
   -5.1881   -1.4214   -0.4043 H   0  0  0  0  0  0  0  0  0  0  0  0
   -4.3220   -1.0285    2.3762 H   0  0  0  0  0  0  0  0  0  0  0  0
   -4.4464   -2.5413    1.5029 H   0  0  0  0  0  0  0  0  0  0  0  0
   -2.0099    0.6433    1.3619 H   0  0  0  0  0  0  0  0  0  0  0  0
    1.6788   -1.9699   -2.0773 H   0  0  0  0  0  0  0  0  0  0  0  0
    3.3845   -2.1861   -1.6772 H   0  0  0  0  0  0  0  0  0  0  0  0
    1.2094   -4.3305   -1.6442 H   0  0  0  0  0  0  0  0  0  0  0  0
    2.5383   -4.1985   -2.7842 H   0  0  0  0  0  0  0  0  0  0  0  0
    2.9910   -5.9055   -0.9754 H   0  0  0  0  0  0  0  0  0  0  0  0
    4.1834   -4.6193   -1.0010 H   0  0  0  0  0  0  0  0  0  0  0  0
    1.8004   -4.8266    0.8997 H   0  0  0  0  0  0  0  0  0  0  0  0
    3.4945   -4.9990    1.3305 H   0  0  0  0  0  0  0  0  0  0  0  0
    3.9560   -2.6658    0.7640 H   0  0  0  0  0  0  0  0  0  0  0  0
    2.6088   -2.7420    1.9016 H   0  0  0  0  0  0  0  0  0  0  0  0
    2.2336    3.8323    0.9386 H   0  0  0  0  0  0  0  0  0  0  0  0
    3.9759    5.5875    0.9362 H   0  0  0  0  0  0  0  0  0  0  0  0
    6.3308    4.9470    0.4880 H   0  0  0  0  0  0  0  0  0  0  0  0
    5.3283    0.9889    0.0544 H   0  0  0  0  0  0  0  0  0  0  0  0
   -6.7621    2.5289    0.0111 H   0  0  0  0  0  0  0  0  0  0  0  0
   -5.2417    2.8012   -0.8417 H   0  0  0  0  0  0  0  0  0  0  0  0
   -8.0183    2.7042   -4.0056 H   0  0  0  0  0  0  0  0  0  0  0  0
   -0.0341   -2.8908    0.3244 H   0  0  0  0  0  0  0  0  0  0  0  0
  2  1  2  0
 27  2  1  0
  2  3  1  0
  3  4  1  0
  3 31  1  0
  4  5  1  0
  4 32  1  0
  4 33  1  0
  5  9  2  0
  5  6  1  0
  6  7  2  0
  6 34  1  0
  8  7  1  0
  7 10  1  0
  9  8  1  0
 10 14  2  0
 10 11  1  0
 11 12  1  0
 13 12  2  0
 12 21  1  0
 14 13  1  0
 15 14  1  0
 20 15  1  0
 15 16  1  0
 17 16  1  0
 16 35  1  0
 16 36  1  0
 18 17  1  0
 17 37  1  0
 17 38  1  0
 19 18  1  0
 18 39  1  0
 18 40  1  0
 19 20  1  0
 19 41  1  0
 19 42  1  0
 20 43  1  0
 20 44  1  0
 21 26  1  0
 21 22  2  0
 22 23  1  0
 22 45  1  0
 23 24  2  0
 23 46  1  0
 25 24  1  0
 24 47  1  0
 26 25  2  0
 26 48  1  0
 28 27  1  0
 29 28  1  0
 28 49  1  0
 28 50  1  0
 30 29  3  0
 30 51  1  0
  8 52  1  0
M  END
