
     RDKit          3D

 23 23  0  0  0  0  0  0  0  0999 V2000
   -0.9769    1.7697   -0.3858 C   0  0  0  0  0  0  0  0  0  0  0  0
   -3.0687    0.0047    0.0587 C   0  0  0  0  0  0  0  0  0  0  0  0
   -1.5314   -1.7666    0.0426 F   0  0  0  0  0  0  0  0  0  0  0  0
   -1.7711   -0.4561   -0.0578 C   0  0  0  0  0  0  0  0  0  0  0  0
   -0.7033    0.4074   -0.2841 C   0  0  0  0  0  0  0  0  0  0  0  0
    0.5733   -0.1418   -0.4199 N   0  0  0  0  0  0  0  0  0  0  0  0
    1.7330    0.4042    0.0417 C   0  0  0  0  0  0  0  0  0  0  0  0
    2.9436   -0.4684   -0.2117 C   0  0  0  0  0  0  0  0  0  0  0  0
    4.2172    0.1321    0.3530 C   0  0  0  0  0  0  0  0  0  0  0  0
    5.5866   -1.0203   -0.0022 S   0  0  0  0  0  0  0  0  0  0  0  0
    1.7915    1.4816    0.5981 O   0  0  0  0  0  0  0  0  0  0  0  0
   -2.2768    2.2332   -0.2500 C   0  0  0  0  0  0  0  0  0  0  0  0
   -3.3318    1.3620   -0.0296 C   0  0  0  0  0  0  0  0  0  0  0  0
   -4.3353   -1.1307    0.3296 Cl  0  0  0  0  0  0  0  0  0  0  0  0
   -0.1804    2.4701   -0.5821 H   0  0  0  0  0  0  0  0  0  0  0  0
    0.6296   -1.0754   -0.7990 H   0  0  0  0  0  0  0  0  0  0  0  0
    2.7606   -1.4563    0.2220 H   0  0  0  0  0  0  0  0  0  0  0  0
    3.0406   -0.6225   -1.2906 H   0  0  0  0  0  0  0  0  0  0  0  0
    4.4312    1.0945   -0.1083 H   0  0  0  0  0  0  0  0  0  0  0  0
    4.1351    0.2739    1.4290 H   0  0  0  0  0  0  0  0  0  0  0  0
    6.5751   -0.2712    0.4973 H   0  0  0  0  0  0  0  0  0  0  0  0
   -2.4713    3.2938   -0.3294 H   0  0  0  0  0  0  0  0  0  0  0  0
   -4.3455    1.7251    0.0664 H   0  0  0  0  0  0  0  0  0  0  0  0
 12 13  1  0
 12  1  2  0
 13  2  2  0
  1  5  1  0
  2  4  1  0
  2 14  1  0
  5  4  2  0
  5  6  1  0
  4  3  1  0
  6  7  1  0
  7  8  1  0
  7 11  2  0
  8  9  1  0
  9 10  1  0
  1 15  1  0
  6 16  1  0
  8 17  1  0
  8 18  1  0
  9 19  1  0
  9 20  1  0
 10 21  1  0
 12 22  1  0
 13 23  1  0
M  END
