
     RDKit          3D

 62 61  0  0  0  0  0  0  0  0999 V2000
    9.4304   -1.8742   -0.3560 O   0  0  0  0  0  0  0  0  0  0  0  0
    8.5926   -0.8579   -0.1608 C   0  0  0  0  0  0  0  0  0  0  0  0
    8.9702    0.2670    0.0568 O   0  0  0  0  0  0  0  0  0  0  0  0
    7.1579   -1.2893   -0.2937 C   0  0  0  0  0  0  0  0  0  0  0  0
    6.1346   -0.3004    0.2560 C   0  0  2  0  0  0  0  0  0  0  0  0
    6.1977   -0.2298    1.7791 C   0  0  0  0  0  0  0  0  0  0  0  0
    4.7396   -0.6985   -0.2331 C   0  0  0  0  0  0  0  0  0  0  0  0
    3.6283    0.2702    0.1548 C   0  0  0  0  0  0  0  0  0  0  0  0
    2.3001   -0.0990   -0.4983 C   0  0  0  0  0  0  0  0  0  0  0  0
    1.0995    0.7417   -0.0592 C   0  0  1  0  0  0  0  0  0  0  0  0
    1.2932    2.2179   -0.3953 C   0  0  0  0  0  0  0  0  0  0  0  0
   -0.1837    0.1787   -0.6763 C   0  0  0  0  0  0  0  0  0  0  0  0
   -1.4736    0.7851   -0.1361 C   0  0  0  0  0  0  0  0  0  0  0  0
   -2.7204    0.0869   -0.6692 C   0  0  0  0  0  0  0  0  0  0  0  0
   -4.0379    0.6386   -0.1171 C   0  0  1  0  0  0  0  0  0  0  0  0
   -4.3437    2.0254   -0.6779 C   0  0  0  0  0  0  0  0  0  0  0  0
   -5.1818   -0.3439   -0.3794 C   0  0  0  0  0  0  0  0  0  0  0  0
   -6.5343    0.0909    0.1762 C   0  0  0  0  0  0  0  0  0  0  0  0
   -7.5891   -1.0063    0.0883 C   0  0  0  0  0  0  0  0  0  0  0  0
   -8.9481   -0.6329    0.6842 C   0  0  1  0  0  0  0  0  0  0  0  0
   -9.6302    0.4934   -0.0870 C   0  0  0  0  0  0  0  0  0  0  0  0
   -9.8627   -1.8527    0.7460 C   0  0  0  0  0  0  0  0  0  0  0  0
   10.3461   -1.5590   -0.3218 H   0  0  0  0  0  0  0  0  0  0  0  0
    6.9856   -1.4489   -1.3651 H   0  0  0  0  0  0  0  0  0  0  0  0
    7.0323   -2.2722    0.1703 H   0  0  0  0  0  0  0  0  0  0  0  0
    6.3614    0.6915   -0.1487 H   0  0  0  0  0  0  0  0  0  0  0  0
    5.9031   -1.1844    2.2233 H   0  0  0  0  0  0  0  0  0  0  0  0
    7.2016    0.0049    2.1338 H   0  0  0  0  0  0  0  0  0  0  0  0
    5.5309    0.5373    2.1731 H   0  0  0  0  0  0  0  0  0  0  0  0
    4.7606   -0.7859   -1.3251 H   0  0  0  0  0  0  0  0  0  0  0  0
    4.4996   -1.6991    0.1457 H   0  0  0  0  0  0  0  0  0  0  0  0
    3.4984    0.2806    1.2415 H   0  0  0  0  0  0  0  0  0  0  0  0
    3.9262    1.2845   -0.1287 H   0  0  0  0  0  0  0  0  0  0  0  0
    2.4016   -0.0352   -1.5886 H   0  0  0  0  0  0  0  0  0  0  0  0
    2.0888   -1.1512   -0.2759 H   0  0  0  0  0  0  0  0  0  0  0  0
    1.0053    0.6468    1.0311 H   0  0  0  0  0  0  0  0  0  0  0  0
    0.4353    2.8204   -0.0956 H   0  0  0  0  0  0  0  0  0  0  0  0
    2.1663    2.6365    0.1061 H   0  0  0  0  0  0  0  0  0  0  0  0
    1.4330    2.3526   -1.4713 H   0  0  0  0  0  0  0  0  0  0  0  0
   -0.1481    0.3004   -1.7658 H   0  0  0  0  0  0  0  0  0  0  0  0
   -0.2090   -0.9025   -0.4964 H   0  0  0  0  0  0  0  0  0  0  0  0
   -1.4710    0.7141    0.9579 H   0  0  0  0  0  0  0  0  0  0  0  0
   -1.5137    1.8527   -0.3683 H   0  0  0  0  0  0  0  0  0  0  0  0
   -2.7352    0.1400   -1.7646 H   0  0  0  0  0  0  0  0  0  0  0  0
   -2.6482   -0.9784   -0.4221 H   0  0  0  0  0  0  0  0  0  0  0  0
   -3.9265    0.7280    0.9718 H   0  0  0  0  0  0  0  0  0  0  0  0
   -5.2015    2.4843   -0.1855 H   0  0  0  0  0  0  0  0  0  0  0  0
   -3.5023    2.7075   -0.5523 H   0  0  0  0  0  0  0  0  0  0  0  0
   -4.5672    1.9702   -1.7467 H   0  0  0  0  0  0  0  0  0  0  0  0
   -5.2715   -0.5153   -1.4589 H   0  0  0  0  0  0  0  0  0  0  0  0
   -4.9133   -1.3117    0.0591 H   0  0  0  0  0  0  0  0  0  0  0  0
   -6.4150    0.3891    1.2243 H   0  0  0  0  0  0  0  0  0  0  0  0
   -6.8798    0.9811   -0.3554 H   0  0  0  0  0  0  0  0  0  0  0  0
   -7.7263   -1.3014   -0.9594 H   0  0  0  0  0  0  0  0  0  0  0  0
   -7.2124   -1.8953    0.6065 H   0  0  0  0  0  0  0  0  0  0  0  0
   -8.7776   -0.2878    1.7116 H   0  0  0  0  0  0  0  0  0  0  0  0
   -9.8315    0.1873   -1.1169 H   0  0  0  0  0  0  0  0  0  0  0  0
  -10.5854    0.7567    0.3706 H   0  0  0  0  0  0  0  0  0  0  0  0
   -9.0246    1.3997   -0.1240 H   0  0  0  0  0  0  0  0  0  0  0  0
   -9.4146   -2.6619    1.3256 H   0  0  0  0  0  0  0  0  0  0  0  0
  -10.8216   -1.6060    1.2061 H   0  0  0  0  0  0  0  0  0  0  0  0
  -10.0683   -2.2372   -0.2562 H   0  0  0  0  0  0  0  0  0  0  0  0
  1  2  1  0
  2  3  2  0
  2  4  1  0
  4  5  1  0
  5  6  1  0
  5  7  1  0
  7  8  1  0
  8  9  1  0
  9 10  1  0
 10 11  1  0
 10 12  1  0
 12 13  1  0
 13 14  1  0
 14 15  1  0
 15 16  1  0
 15 17  1  0
 17 18  1  0
 18 19  1  0
 19 20  1  0
 20 21  1  0
 20 22  1  0
  1 23  1  0
  4 24  1  0
  4 25  1  0
  5 26  1  6
  6 27  1  0
  6 28  1  0
  6 29  1  0
  7 30  1  0
  7 31  1  0
  8 32  1  0
  8 33  1  0
  9 34  1  0
  9 35  1  0
 10 36  1  1
 11 37  1  0
 11 38  1  0
 11 39  1  0
 12 40  1  0
 12 41  1  0
 13 42  1  0
 13 43  1  0
 14 44  1  0
 14 45  1  0
 15 46  1  1
 16 47  1  0
 16 48  1  0
 16 49  1  0
 17 50  1  0
 17 51  1  0
 18 52  1  0
 18 53  1  0
 19 54  1  0
 19 55  1  0
 20 56  1  1
 21 57  1  0
 21 58  1  0
 21 59  1  0
 22 60  1  0
 22 61  1  0
 22 62  1  0
M  END
