
     RDKit          3D

 48 51  0  0  0  0  0  0  0  0999 V2000
    2.3105    4.4333    0.7211 C   0  0  0  0  0  0  0  0  0  0  0  0
    0.9595    3.8299    0.4264 C   0  0  0  0  0  0  0  0  0  0  0  0
   -0.0098    4.5372    0.1829 O   0  0  0  0  0  0  0  0  0  0  0  0
    0.8914    2.3890    0.4493 C   0  0  0  0  0  0  0  0  0  0  0  0
    1.9085    1.4829    0.7181 C   0  0  0  0  0  0  0  0  0  0  0  0
    1.4107    0.1865    0.6405 C   0  0  0  0  0  0  0  0  0  0  0  0
    2.0789   -1.0906    0.9298 C   0  0  0  0  0  0  0  0  0  0  0  0
    1.6019   -1.8505    1.9991 C   0  0  0  0  0  0  0  0  0  0  0  0
    2.1601   -3.0752    2.3294 C   0  0  0  0  0  0  0  0  0  0  0  0
    3.2199   -3.5767    1.5903 C   0  0  0  0  0  0  0  0  0  0  0  0
    3.7071   -2.8527    0.5141 C   0  0  0  0  0  0  0  0  0  0  0  0
    3.1417   -1.6255    0.1894 C   0  0  0  0  0  0  0  0  0  0  0  0
    3.8376   -0.7813   -1.2225 S   0  0  1  0  0  0  0  0  0  0  0  0
    2.4940   -0.6310   -2.3765 C   0  0  0  0  0  0  0  0  0  0  0  0
    4.2810    0.5523   -0.8240 O   0  0  0  0  0  0  0  0  0  0  0  0
    4.8332   -1.6712   -1.8197 O   0  0  0  0  0  0  0  0  0  0  0  0
    0.0490    0.2997    0.3175 C   0  0  0  0  0  0  0  0  0  0  0  0
   -0.9499   -0.6615    0.1024 C   0  0  0  0  0  0  0  0  0  0  0  0
   -2.2109   -0.2491   -0.2240 C   0  0  0  0  0  0  0  0  0  0  0  0
   -3.1449   -1.1933   -0.4881 O   0  0  0  0  0  0  0  0  0  0  0  0
   -4.4605   -0.9537   -0.1756 C   0  0  0  0  0  0  0  0  0  0  0  0
   -4.8315   -0.4959    1.0822 C   0  0  0  0  0  0  0  0  0  0  0  0
   -6.1781   -0.3165    1.3641 C   0  0  0  0  0  0  0  0  0  0  0  0
   -7.1438   -0.5996    0.4065 C   0  0  0  0  0  0  0  0  0  0  0  0
   -6.7564   -1.0655   -0.8427 C   0  0  0  0  0  0  0  0  0  0  0  0
   -5.4120   -1.2389   -1.1428 C   0  0  0  0  0  0  0  0  0  0  0  0
   -2.4948    1.1336   -0.3424 C   0  0  0  0  0  0  0  0  0  0  0  0
   -1.5130    2.0461   -0.1330 C   0  0  0  0  0  0  0  0  0  0  0  0
   -0.2547    1.6411    0.1970 N   0  0  0  0  0  0  0  0  0  0  0  0
    2.2493    5.5184    0.6814 H   0  0  0  0  0  0  0  0  0  0  0  0
    2.6666    4.1393    1.7096 H   0  0  0  0  0  0  0  0  0  0  0  0
    3.0555    4.0994   -0.0023 H   0  0  0  0  0  0  0  0  0  0  0  0
    2.9174    1.7543    0.9785 H   0  0  0  0  0  0  0  0  0  0  0  0
    0.7818   -1.4591    2.5873 H   0  0  0  0  0  0  0  0  0  0  0  0
    1.7676   -3.6343    3.1685 H   0  0  0  0  0  0  0  0  0  0  0  0
    3.6637   -4.5303    1.8413 H   0  0  0  0  0  0  0  0  0  0  0  0
    4.5205   -3.2529   -0.0742 H   0  0  0  0  0  0  0  0  0  0  0  0
    1.6963   -0.0287   -1.9508 H   0  0  0  0  0  0  0  0  0  0  0  0
    2.8960   -0.1388   -3.2616 H   0  0  0  0  0  0  0  0  0  0  0  0
    2.1303   -1.6236   -2.6309 H   0  0  0  0  0  0  0  0  0  0  0  0
   -0.7075   -1.7120    0.1915 H   0  0  0  0  0  0  0  0  0  0  0  0
   -4.0841   -0.2893    1.8384 H   0  0  0  0  0  0  0  0  0  0  0  0
   -6.4724    0.0412    2.3421 H   0  0  0  0  0  0  0  0  0  0  0  0
   -8.1919   -0.4617    0.6355 H   0  0  0  0  0  0  0  0  0  0  0  0
   -7.5017   -1.2896   -1.5945 H   0  0  0  0  0  0  0  0  0  0  0  0
   -5.1025   -1.5971   -2.1162 H   0  0  0  0  0  0  0  0  0  0  0  0
   -3.4781    1.4886   -0.6154 H   0  0  0  0  0  0  0  0  0  0  0  0
   -1.6772    3.1057   -0.2236 H   0  0  0  0  0  0  0  0  0  0  0  0
 15 13  2  0
 13 14  1  6
 16 13  2  0
 13 12  1  0
 12 11  2  0
 12  7  1  0
 11 10  1  0
 22 23  2  0
 22 21  1  0
 23 24  1  0
  7  6  1  0
  7  8  2  0
  6  5  1  0
  6 17  2  0
  5  4  2  0
 10  9  2  0
 17 18  1  0
 17 29  1  0
  1  2  1  0
 18 19  2  0
  4 29  1  0
  4  2  1  0
 29 28  1  0
  2  3  2  0
 19 20  1  0
 19 27  1  0
 20 21  1  0
 28 27  2  0
 21 26  2  0
 24 25  2  0
  8  9  1  0
 26 25  1  0
  1 30  1  0
  1 31  1  0
  1 32  1  0
  5 33  1  0
  8 34  1  0
  9 35  1  0
 10 36  1  0
 11 37  1  0
 14 38  1  0
 14 39  1  0
 14 40  1  0
 18 41  1  0
 22 42  1  0
 23 43  1  0
 24 44  1  0
 25 45  1  0
 26 46  1  0
 27 47  1  0
 28 48  1  0
M  END
