
     RDKit          3D

 42 43  0  0  0  0  0  0  0  0999 V2000
   -8.3013    0.9211    0.9055 C   0  0  0  0  0  0  0  0  0  0  0  0
   -0.7590    1.8884   -0.7011 F   0  0  0  0  0  0  0  0  0  0  0  0
    6.0835    1.5954   -0.4029 C   0  0  0  0  0  0  0  0  0  0  0  0
    5.8909    1.4972    0.9685 C   0  0  0  0  0  0  0  0  0  0  0  0
    5.1807    0.9863   -1.2651 C   0  0  0  0  0  0  0  0  0  0  0  0
    4.8008    0.8056    1.4789 C   0  0  0  0  0  0  0  0  0  0  0  0
    4.0920    0.2832   -0.7692 C   0  0  0  0  0  0  0  0  0  0  0  0
   -0.3404   -1.6316   -0.0714 C   0  0  0  0  0  0  0  0  0  0  0  0
    1.0613    0.7325    0.2035 C   0  0  0  0  0  0  0  0  0  0  0  0
   -7.2574    0.5034   -0.1209 C   0  0  0  0  0  0  0  0  0  0  0  0
   -5.8497    0.4325    0.4582 C   0  0  0  0  0  0  0  0  0  0  0  0
   -4.7999    0.0146   -0.5635 C   0  0  0  0  0  0  0  0  0  0  0  0
   -3.3896   -0.0230    0.0105 C   0  0  0  0  0  0  0  0  0  0  0  0
   -2.3467   -0.4364   -1.0302 C   0  0  0  0  0  0  0  0  0  0  0  0
    2.8836   -0.5195    1.1595 O   0  0  0  0  0  0  0  0  0  0  0  0
    0.9450   -1.6626    0.4550 C   0  0  0  0  0  0  0  0  0  0  0  0
   -0.2132    0.7145   -0.3256 C   0  0  0  0  0  0  0  0  0  0  0  0
    3.9080    0.1988    0.6063 C   0  0  0  0  0  0  0  0  0  0  0  0
   -0.9490   -0.4481   -0.4807 C   0  0  0  0  0  0  0  0  0  0  0  0
    1.6446   -0.4630    0.5920 C   0  0  0  0  0  0  0  0  0  0  0  0
   -9.2970    0.9762    0.4637 H   0  0  0  0  0  0  0  0  0  0  0  0
   -8.3475    0.2120    1.7343 H   0  0  0  0  0  0  0  0  0  0  0  0
   -8.0721    1.9023    1.3258 H   0  0  0  0  0  0  0  0  0  0  0  0
    0.9818   -3.5518    0.7037 H   0  0  0  0  0  0  0  0  0  0  0  0
    6.9317    2.1386   -0.7976 H   0  0  0  0  0  0  0  0  0  0  0  0
    6.5875    1.9677    1.6501 H   0  0  0  0  0  0  0  0  0  0  0  0
    5.3253    1.0506   -2.3357 H   0  0  0  0  0  0  0  0  0  0  0  0
    4.6445    0.7321    2.5477 H   0  0  0  0  0  0  0  0  0  0  0  0
    3.4002   -0.1968   -1.4499 H   0  0  0  0  0  0  0  0  0  0  0  0
   -0.8852   -2.5629   -0.1868 H   0  0  0  0  0  0  0  0  0  0  0  0
    1.5925    1.6703    0.3120 H   0  0  0  0  0  0  0  0  0  0  0  0
   -7.5266   -0.4715   -0.5391 H   0  0  0  0  0  0  0  0  0  0  0  0
   -7.2677    1.2062   -0.9598 H   0  0  0  0  0  0  0  0  0  0  0  0
   -5.5801    1.4096    0.8741 H   0  0  0  0  0  0  0  0  0  0  0  0
   -5.8400   -0.2687    1.3003 H   0  0  0  0  0  0  0  0  0  0  0  0
   -5.0568   -0.9709   -0.9672 H   0  0  0  0  0  0  0  0  0  0  0  0
   -4.8240    0.7071   -1.4122 H   0  0  0  0  0  0  0  0  0  0  0  0
   -3.1345    0.9617    0.4128 H   0  0  0  0  0  0  0  0  0  0  0  0
   -3.3526   -0.7192    0.8543 H   0  0  0  0  0  0  0  0  0  0  0  0
   -2.5887   -1.4342   -1.4037 H   0  0  0  0  0  0  0  0  0  0  0  0
   -2.4053    0.2365   -1.8896 H   0  0  0  0  0  0  0  0  0  0  0  0
    1.5617   -2.7953    0.8453 O   0  0  0  0  0  0  0  0  0  0  0  0
 42 16  1  0
  4  6  1  0
  4  3  2  0
  6 18  2  0
  3  5  1  0
 16  8  2  0
 16 20  1  0
 18 15  1  0
 18  7  1  0
 15 20  1  0
  5  7  2  0
  8 19  1  0
 20  9  2  0
 19 14  1  0
 19 17  2  0
  9 17  1  0
 14 13  1  0
 17  2  1  0
 13 12  1  0
 10  1  1  0
 10 11  1  0
 12 11  1  0
  1 21  1  0
  1 22  1  0
  1 23  1  0
 42 24  1  0
  3 25  1  0
  4 26  1  0
  5 27  1  0
  6 28  1  0
  7 29  1  0
  8 30  1  0
  9 31  1  0
 10 32  1  0
 10 33  1  0
 11 34  1  0
 11 35  1  0
 12 36  1  0
 12 37  1  0
 13 38  1  0
 13 39  1  0
 14 40  1  0
 14 41  1  0
M  END
