
     RDKit          3D

 30 29  0  0  0  0  0  0  0  0999 V2000
    1.9591   -0.1908   -0.2905 C   0  0  2  0  0  0  0  0  0  0  0  0
    2.1948   -1.6109    0.2028 C   0  0  0  0  0  0  0  0  0  0  0  0
    3.1592   -2.2058   -0.4855 O   0  0  0  0  0  0  0  0  0  0  0  0
    1.6111   -2.1223    1.1222 O   0  0  0  0  0  0  0  0  0  0  0  0
    3.0595    0.7350    0.2394 C   0  0  0  0  0  0  0  0  0  0  0  0
    2.9509    2.1584   -0.2972 C   0  0  0  0  0  0  0  0  0  0  0  0
    4.1003    3.0333    0.1823 C   0  0  0  0  0  0  0  0  0  0  0  0
    0.6644    0.2753    0.1209 N   0  0  0  0  0  0  0  0  0  0  0  0
   -0.4683   -0.2582   -0.3744 C   0  0  0  0  0  0  0  0  0  0  0  0
   -0.4496   -1.1210   -1.2390 O   0  0  0  0  0  0  0  0  0  0  0  0
   -1.7445    0.3080    0.2092 C   0  0  0  0  0  0  0  0  0  0  0  0
   -2.9841   -0.3094   -0.4070 C   0  0  0  0  0  0  0  0  0  0  0  0
   -4.2570    0.2594    0.1551 C   0  0  0  0  0  0  0  0  0  0  0  0
   -5.3274   -0.2951   -0.4042 O   0  0  0  0  0  0  0  0  0  0  0  0
   -4.3253    1.1114    1.0058 O   0  0  0  0  0  0  0  0  0  0  0  0
    2.0152   -0.1971   -1.3832 H   0  0  0  0  0  0  0  0  0  0  0  0
    3.3315   -3.0896   -0.1271 H   0  0  0  0  0  0  0  0  0  0  0  0
    4.0279    0.3187   -0.0463 H   0  0  0  0  0  0  0  0  0  0  0  0
    3.0342    0.7418    1.3342 H   0  0  0  0  0  0  0  0  0  0  0  0
    2.0030    2.6081    0.0083 H   0  0  0  0  0  0  0  0  0  0  0  0
    2.9396    2.1306   -1.3905 H   0  0  0  0  0  0  0  0  0  0  0  0
    4.1323    3.0811    1.2721 H   0  0  0  0  0  0  0  0  0  0  0  0
    5.0618    2.6478   -0.1603 H   0  0  0  0  0  0  0  0  0  0  0  0
    4.0009    4.0530   -0.1903 H   0  0  0  0  0  0  0  0  0  0  0  0
    0.6076    0.9120    0.8999 H   0  0  0  0  0  0  0  0  0  0  0  0
   -1.7316    0.1491    1.2907 H   0  0  0  0  0  0  0  0  0  0  0  0
   -1.7411    1.3917    0.0669 H   0  0  0  0  0  0  0  0  0  0  0  0
   -2.9969   -0.1645   -1.4903 H   0  0  0  0  0  0  0  0  0  0  0  0
   -2.9993   -1.3917   -0.2560 H   0  0  0  0  0  0  0  0  0  0  0  0
   -6.1340    0.0870   -0.0273 H   0  0  0  0  0  0  0  0  0  0  0  0
  1  2  1  0
  1  5  1  0
  1  8  1  0
  1 16  1  6
  2  3  1  0
  2  4  2  0
  3 17  1  0
  5  6  1  0
  5 18  1  0
  5 19  1  0
  6  7  1  0
  6 20  1  0
  6 21  1  0
  7 22  1  0
  7 23  1  0
  7 24  1  0
  8  9  1  0
  8 25  1  0
  9 10  2  0
  9 11  1  0
 11 12  1  0
 11 26  1  0
 11 27  1  0
 12 13  1  0
 12 28  1  0
 12 29  1  0
 13 14  1  0
 13 15  2  0
 14 30  1  0
M  END
