
     RDKit          3D

 29 30  0  0  0  0  0  0  0  0999 V2000
   -3.8543   -0.4660    0.7273 C   0  0  0  0  0  0  0  0  0  0  0  0
   -3.7466   -1.5725    1.1994 O   0  0  0  0  0  0  0  0  0  0  0  0
   -2.7205    0.3001    0.1507 C   0  0  0  0  0  0  0  0  0  0  0  0
    3.3866   -0.1315   -0.1570 C   0  0  0  0  0  0  0  0  0  0  0  0
    4.6050    0.6840    0.1669 C   0  0  0  0  0  0  0  0  0  0  0  0
    2.1266    0.4551   -0.1314 C   0  0  0  0  0  0  0  0  0  0  0  0
   -1.4645   -0.2995    0.1437 C   0  0  0  0  0  0  0  0  0  0  0  0
   -2.8782    1.5846   -0.3662 C   0  0  0  0  0  0  0  0  0  0  0  0
   -1.7776    2.2525   -0.8799 C   0  0  0  0  0  0  0  0  0  0  0  0
   -0.5293    1.6499   -0.8847 C   0  0  0  0  0  0  0  0  0  0  0  0
   -0.3548    0.3627   -0.3731 C   0  0  0  0  0  0  0  0  0  0  0  0
    0.9729   -0.2847   -0.3861 C   0  0  0  0  0  0  0  0  0  0  0  0
    1.1015   -1.6464   -0.6628 C   0  0  0  0  0  0  0  0  0  0  0  0
    2.3525   -2.2433   -0.6860 C   0  0  0  0  0  0  0  0  0  0  0  0
    3.4912   -1.4908   -0.4331 C   0  0  0  0  0  0  0  0  0  0  0  0
    4.7869    0.6681    1.5687 O   0  0  0  0  0  0  0  0  0  0  0  0
   -5.0042    0.1900    0.6715 O   0  0  0  0  0  0  0  0  0  0  0  0
    5.4739    0.2665   -0.3556 H   0  0  0  0  0  0  0  0  0  0  0  0
    4.4684    1.7061   -0.2062 H   0  0  0  0  0  0  0  0  0  0  0  0
    2.0442    1.5112    0.1002 H   0  0  0  0  0  0  0  0  0  0  0  0
   -1.3491   -1.2907    0.5634 H   0  0  0  0  0  0  0  0  0  0  0  0
   -3.8446    2.0687   -0.3762 H   0  0  0  0  0  0  0  0  0  0  0  0
   -1.8964    3.2467   -1.2892 H   0  0  0  0  0  0  0  0  0  0  0  0
    0.3132    2.1801   -1.3110 H   0  0  0  0  0  0  0  0  0  0  0  0
    0.2237   -2.2397   -0.8865 H   0  0  0  0  0  0  0  0  0  0  0  0
    2.4404   -3.2982   -0.9114 H   0  0  0  0  0  0  0  0  0  0  0  0
    4.4664   -1.9622   -0.4611 H   0  0  0  0  0  0  0  0  0  0  0  0
    5.5487    1.2203    1.7705 H   0  0  0  0  0  0  0  0  0  0  0  0
   -5.7099   -0.3466    1.0619 H   0  0  0  0  0  0  0  0  0  0  0  0
 15 14  1  0
 15  4  2  0
 14 13  2  0
  5  4  1  0
  5 16  1  0
  4  6  1  0
  2  1  2  0
 13 12  1  0
  6 12  2  0
 12 11  1  0
  7 11  1  0
  7  3  2  0
  1 17  1  0
  1  3  1  0
 11 10  2  0
  3  8  1  0
 10  9  1  0
  8  9  2  0
  5 18  1  0
  5 19  1  0
  6 20  1  0
  7 21  1  0
  8 22  1  0
  9 23  1  0
 10 24  1  0
 13 25  1  0
 14 26  1  0
 15 27  1  0
 16 28  1  0
 17 29  1  0
M  END
