
     RDKit          3D

 46 49  0  0  0  0  0  0  0  0999 V2000
    6.3257   -1.7052   -0.0175 C   0  0  0  0  0  0  0  0  0  0  0  0
    5.0417   -1.6068   -0.5204 C   0  0  0  0  0  0  0  0  0  0  0  0
    4.2636   -0.4810   -0.3323 C   0  0  0  0  0  0  0  0  0  0  0  0
    4.7985    0.5820    0.3857 C   0  0  0  0  0  0  0  0  0  0  0  0
    6.0904    0.5040    0.9010 C   0  0  0  0  0  0  0  0  0  0  0  0
    6.8450   -0.6362    0.6988 C   0  0  0  0  0  0  0  0  0  0  0  0
    4.1202    1.7272    0.6351 O   0  0  0  0  0  0  0  0  0  0  0  0
    2.8663    1.9015    0.0935 C   0  0  0  0  0  0  0  0  0  0  0  0
    4.5329   -2.6310   -1.2066 F   0  0  0  0  0  0  0  0  0  0  0  0
    1.7656    1.6173    0.8767 C   0  0  0  0  0  0  0  0  0  0  0  0
    0.5293    1.8689    0.2924 C   0  0  0  0  0  0  0  0  0  0  0  0
    0.3893    2.3727   -1.0098 C   0  0  0  0  0  0  0  0  0  0  0  0
    1.5231    2.6415   -1.7754 C   0  0  0  0  0  0  0  0  0  0  0  0
    2.7613    2.3992   -1.2131 C   0  0  0  0  0  0  0  0  0  0  0  0
   -0.7448    1.7242    0.7649 N   0  0  0  0  0  0  0  0  0  0  0  0
   -1.5752    2.1321   -0.2363 C   0  0  0  0  0  0  0  0  0  0  0  0
   -0.9411    2.5225   -1.3072 N   0  0  0  0  0  0  0  0  0  0  0  0
   -1.0886    1.2602    2.0898 C   0  0  0  0  0  0  0  0  0  0  0  0
   -3.0575    2.1202   -0.1106 C   0  0  0  0  0  0  0  0  0  0  0  0
   -3.4681    0.7640   -0.0849 O   0  0  0  0  0  0  0  0  0  0  0  0
   -4.7854    0.4950    0.0356 C   0  0  0  0  0  0  0  0  0  0  0  0
   -5.1278   -0.8529    0.0915 C   0  0  0  0  0  0  0  0  0  0  0  0
   -6.4578   -1.2328    0.2055 C   0  0  0  0  0  0  0  0  0  0  0  0
   -7.4621   -0.2658    0.2691 C   0  0  0  0  0  0  0  0  0  0  0  0
   -7.1108    1.0710    0.2173 C   0  0  0  0  0  0  0  0  0  0  0  0
   -5.7827    1.4638    0.1004 C   0  0  0  0  0  0  0  0  0  0  0  0
   -6.7562   -2.6880    0.2580 C   0  0  0  0  0  0  0  0  0  0  0  0
   -5.9098   -3.5489    0.2282 O   0  0  0  0  0  0  0  0  0  0  0  0
   -8.0526   -2.9475    0.3407 O   0  0  0  0  0  0  0  0  0  0  0  0
    7.2455   -3.1382   -0.2842 Cl  0  0  0  0  0  0  0  0  0  0  0  0
    3.2624   -0.4583   -0.7429 H   0  0  0  0  0  0  0  0  0  0  0  0
    6.5011    1.3338    1.4603 H   0  0  0  0  0  0  0  0  0  0  0  0
    7.8470   -0.6964    1.1006 H   0  0  0  0  0  0  0  0  0  0  0  0
    1.8741    1.2343    1.8834 H   0  0  0  0  0  0  0  0  0  0  0  0
    1.4375    3.0327   -2.7806 H   0  0  0  0  0  0  0  0  0  0  0  0
    3.6645    2.6011   -1.7745 H   0  0  0  0  0  0  0  0  0  0  0  0
   -0.6814    1.9336    2.8421 H   0  0  0  0  0  0  0  0  0  0  0  0
   -2.1662    1.2205    2.2088 H   0  0  0  0  0  0  0  0  0  0  0  0
   -0.6895    0.2608    2.2544 H   0  0  0  0  0  0  0  0  0  0  0  0
   -3.3756    2.6399    0.7993 H   0  0  0  0  0  0  0  0  0  0  0  0
   -3.4753    2.6508   -0.9701 H   0  0  0  0  0  0  0  0  0  0  0  0
   -4.3455   -1.5994    0.0440 H   0  0  0  0  0  0  0  0  0  0  0  0
   -8.5028   -0.5417    0.3587 H   0  0  0  0  0  0  0  0  0  0  0  0
   -7.8792    1.8306    0.2661 H   0  0  0  0  0  0  0  0  0  0  0  0
   -5.5541    2.5201    0.0587 H   0  0  0  0  0  0  0  0  0  0  0  0
   -8.1964   -3.9053    0.3698 H   0  0  0  0  0  0  0  0  0  0  0  0
 28 27  2  0
 27 29  1  0
 27 23  1  0
 24 23  1  0
 24 25  2  0
 23 22  2  0
 25 26  1  0
 22 21  1  0
 26 21  2  0
 21 20  1  0
 20 19  1  0
 19 16  1  0
 16 17  2  0
 16 15  1  0
 17 12  1  0
 18 15  1  0
 15 11  1  0
 12 11  1  0
 12 13  2  0
 11 10  2  0
 13 14  1  0
 10  8  1  0
 14  8  2  0
  8  7  1  0
  7  4  1  0
  5  4  2  0
  5  6  1  0
  4  3  1  0
  6  1  2  0
  3  2  2  0
  1  2  1  0
  1 30  1  0
  2  9  1  0
  3 31  1  0
  5 32  1  0
  6 33  1  0
 10 34  1  0
 13 35  1  0
 14 36  1  0
 18 37  1  0
 18 38  1  0
 18 39  1  0
 19 40  1  0
 19 41  1  0
 22 42  1  0
 24 43  1  0
 25 44  1  0
 26 45  1  0
 29 46  1  0
M  END
