
     RDKit          3D

 24 24  0  0  0  0  0  0  0  0999 V2000
   -3.5302   -1.9281    0.6171 O   0  0  0  0  0  0  0  0  0  0  0  0
   -2.4620   -1.5231    0.2195 N   0  0  0  0  0  0  0  0  0  0  0  0
   -1.5443   -2.2529   -0.0889 O   0  0  0  0  0  0  0  0  0  0  0  0
   -2.2560   -0.1001    0.0979 C   0  0  0  0  0  0  0  0  0  0  0  0
   -3.3799    0.7115    0.2260 C   0  0  0  0  0  0  0  0  0  0  0  0
   -3.2640    2.0792    0.1103 C   0  0  0  0  0  0  0  0  0  0  0  0
   -2.0114    2.6281   -0.1318 C   0  0  0  0  0  0  0  0  0  0  0  0
   -0.8947    1.8228   -0.2538 C   0  0  0  0  0  0  0  0  0  0  0  0
   -0.9736    0.4292   -0.1425 C   0  0  0  0  0  0  0  0  0  0  0  0
    0.4474   -0.5947   -0.2837 S   0  0  0  0  0  0  0  0  0  0  0  0
    1.7806    0.6309   -0.2928 C   0  0  0  0  0  0  0  0  0  0  0  0
    3.0790   -0.1572   -0.2601 C   0  0  0  0  0  0  0  0  0  0  0  0
    3.1211   -1.3342   -0.5681 O   0  0  0  0  0  0  0  0  0  0  0  0
    4.1317    0.5811    0.1204 N   0  0  0  0  0  0  0  0  0  0  0  0
    5.4053    0.0433    0.1545 N   0  0  0  0  0  0  0  0  0  0  0  0
   -4.3461    0.2663    0.4113 H   0  0  0  0  0  0  0  0  0  0  0  0
   -4.1371    2.7090    0.2036 H   0  0  0  0  0  0  0  0  0  0  0  0
   -1.8962    3.6992   -0.2298 H   0  0  0  0  0  0  0  0  0  0  0  0
    0.0509    2.3031   -0.4497 H   0  0  0  0  0  0  0  0  0  0  0  0
    1.7592    1.2324   -1.2047 H   0  0  0  0  0  0  0  0  0  0  0  0
    1.7074    1.3038    0.5631 H   0  0  0  0  0  0  0  0  0  0  0  0
    3.9998    1.5574    0.3453 H   0  0  0  0  0  0  0  0  0  0  0  0
    5.9941    0.5413   -0.5007 H   0  0  0  0  0  0  0  0  0  0  0  0
    5.7912    0.1783    1.0796 H   0  0  0  0  0  0  0  0  0  0  0  0
  1  2  2  0
 13 12  2  0
 10  9  1  0
 10 11  1  0
  2  4  1  0
  2  3  1  0
 12 11  1  0
 12 14  1  0
  9  4  2  0
  9  8  1  0
  4  5  1  0
 15 14  1  0
  8  7  2  0
  5  6  2  0
  7  6  1  0
  5 16  1  0
  6 17  1  0
  7 18  1  0
  8 19  1  0
 11 20  1  0
 11 21  1  0
 14 22  1  0
 15 23  1  0
 15 24  1  0
M  CHG  2   2   1   3  -1
M  END
