
     RDKit          3D

 31 33  0  0  0  0  0  0  0  0999 V2000
   -1.0510    0.1920   -0.4896 C   0  0  0  0  0  0  0  0  0  0  0  0
   -2.0268   -0.0375   -1.4493 C   0  0  0  0  0  0  0  0  0  0  0  0
    0.8003   -1.9344   -1.9424 O   0  0  0  0  0  0  0  0  0  0  0  0
    3.3124   -0.6753    0.8817 N   0  0  0  0  0  0  0  0  0  0  0  0
    1.5343   -1.5099   -1.0712 C   0  0  0  0  0  0  0  0  0  0  0  0
    1.5012    2.3067    0.6799 C   0  0  0  0  0  0  0  0  0  0  0  0
    0.5736    2.0818   -0.2902 C   0  0  0  0  0  0  0  0  0  0  0  0
   -0.2301    3.1556   -0.7106 C   0  0  0  0  0  0  0  0  0  0  0  0
   -1.3549   -0.0492    0.8464 C   0  0  0  0  0  0  0  0  0  0  0  0
   -2.6055   -0.5119    1.2212 C   0  0  0  0  0  0  0  0  0  0  0  0
   -3.5641   -0.7316    0.2422 C   0  0  0  0  0  0  0  0  0  0  0  0
   -3.2880   -0.4969   -1.0941 C   0  0  0  0  0  0  0  0  0  0  0  0
    0.3133    0.7193   -0.8907 C   0  0  1  0  0  0  0  0  0  0  0  0
    1.4148   -0.2031   -0.4708 C   0  0  0  0  0  0  0  0  0  0  0  0
    2.3162    0.1445    0.4640 C   0  0  0  0  0  0  0  0  0  0  0  0
    3.4877   -1.9420    0.3783 C   0  0  0  0  0  0  0  0  0  0  0  0
    2.5748   -2.2861   -0.5815 N   0  0  0  0  0  0  0  0  0  0  0  0
   -0.8952    4.0324   -1.0678 N   0  0  0  0  0  0  0  0  0  0  0  0
    4.3734   -2.6762    0.7548 O   0  0  0  0  0  0  0  0  0  0  0  0
    2.3423    1.3271    1.0922 O   0  0  0  0  0  0  0  0  0  0  0  0
   -5.1338   -1.3071    0.7033 Cl  0  0  0  0  0  0  0  0  0  0  0  0
   -1.8062    0.1430   -2.4942 H   0  0  0  0  0  0  0  0  0  0  0  0
    3.9661   -0.3563    1.5855 H   0  0  0  0  0  0  0  0  0  0  0  0
   -0.6124    0.1230    1.6171 H   0  0  0  0  0  0  0  0  0  0  0  0
   -2.8310   -0.6957    2.2628 H   0  0  0  0  0  0  0  0  0  0  0  0
   -4.0401   -0.6705   -1.8517 H   0  0  0  0  0  0  0  0  0  0  0  0
    0.3293    0.8070   -1.9816 H   0  0  0  0  0  0  0  0  0  0  0  0
    2.6792   -3.2119   -0.9776 H   0  0  0  0  0  0  0  0  0  0  0  0
    1.2003    4.2659    1.1182 H   0  0  0  0  0  0  0  0  0  0  0  0
    2.5825    3.5733    1.8434 H   0  0  0  0  0  0  0  0  0  0  0  0
    1.7057    3.4316    1.3675 N   0  0  0  0  0  0  0  0  0  0  0  0
  3  5  2  0
 17  5  1  0
 17 16  1  0
  5 14  1  0
 19 16  2  0
 16  4  1  0
 14 13  1  0
 14 15  2  0
  9 10  2  0
  9  1  1  0
 10 11  1  0
 13  1  1  0
 13  7  1  0
  1  2  2  0
  4 15  1  0
 11 12  2  0
 11 21  1  0
  2 12  1  0
 15 20  1  0
  7  8  1  0
  7  6  2  0
 20  6  1  0
  8 18  3  0
  6 31  1  0
  2 22  1  0
  4 23  1  0
  9 24  1  0
 10 25  1  0
 12 26  1  0
 13 27  1  6
 17 28  1  0
 31 29  1  0
 31 30  1  0
M  END
