
     RDKit          3D

 33 35  0  0  0  0  0  0  0  0999 V2000
   -4.2118   -0.9685    0.3311 C   0  0  0  0  0  0  0  0  0  0  0  0
   -5.3259   -0.1804    0.0206 C   0  0  0  0  0  0  0  0  0  0  0  0
   -5.2099    1.1023   -0.5018 C   0  0  0  0  0  0  0  0  0  0  0  0
   -3.9620    1.6704   -0.7449 C   0  0  0  0  0  0  0  0  0  0  0  0
   -2.8635    0.8983   -0.4405 C   0  0  0  0  0  0  0  0  0  0  0  0
   -2.9797   -0.3824    0.0802 C   0  0  0  0  0  0  0  0  0  0  0  0
   -1.4280    1.2186   -0.5903 C   0  0  0  0  0  0  0  0  0  0  0  0
   -0.7434    0.0904   -0.1445 N   0  0  0  0  0  0  0  0  0  0  0  0
   -1.6155   -0.9181    0.2776 C   0  0  0  0  0  0  0  0  0  0  0  0
    0.6629   -0.0315   -0.1335 C   0  0  0  0  0  0  0  0  0  0  0  0
   -1.2662   -1.9838    0.7115 O   0  0  0  0  0  0  0  0  0  0  0  0
   -0.9184    2.2225   -1.0124 O   0  0  0  0  0  0  0  0  0  0  0  0
   -4.3679   -2.3455    0.8952 C   0  0  0  0  0  0  0  0  0  0  0  0
    1.2711   -1.0185   -0.9080 C   0  0  0  0  0  0  0  0  0  0  0  0
    2.6439   -1.1237   -0.8895 C   0  0  0  0  0  0  0  0  0  0  0  0
    3.4289   -0.2586   -0.1204 C   0  0  0  0  0  0  0  0  0  0  0  0
    2.8002    0.7347    0.6542 C   0  0  0  0  0  0  0  0  0  0  0  0
    1.4075    0.8336    0.6416 C   0  0  0  0  0  0  0  0  0  0  0  0
    3.4669    1.5938    1.4195 O   0  0  0  0  0  0  0  0  0  0  0  0
    4.8949   -0.3565   -0.0986 C   0  0  0  0  0  0  0  0  0  0  0  0
    5.6004    0.3794    0.5726 O   0  0  0  0  0  0  0  0  0  0  0  0
    5.3877   -1.3059   -0.8652 O   0  0  0  0  0  0  0  0  0  0  0  0
   -6.3148   -0.5860    0.1939 H   0  0  0  0  0  0  0  0  0  0  0  0
   -6.1075    1.6644   -0.7219 H   0  0  0  0  0  0  0  0  0  0  0  0
   -3.8655    2.6677   -1.1523 H   0  0  0  0  0  0  0  0  0  0  0  0
   -3.8616   -3.0890    0.2802 H   0  0  0  0  0  0  0  0  0  0  0  0
   -3.9418   -2.4140    1.8965 H   0  0  0  0  0  0  0  0  0  0  0  0
   -5.4198   -2.6161    0.9597 H   0  0  0  0  0  0  0  0  0  0  0  0
    0.6779   -1.6816   -1.5213 H   0  0  0  0  0  0  0  0  0  0  0  0
    3.1157   -1.8892   -1.4893 H   0  0  0  0  0  0  0  0  0  0  0  0
    0.9272    1.5865    1.2533 H   0  0  0  0  0  0  0  0  0  0  0  0
    4.4247    1.3999    1.3400 H   0  0  0  0  0  0  0  0  0  0  0  0
    6.3550   -1.3208   -0.8045 H   0  0  0  0  0  0  0  0  0  0  0  0
  6  1  2  0
 13  1  1  0
  1  2  1  0
  2  3  2  0
  2 23  1  0
  4  3  1  0
  3 24  1  0
  5  4  2  0
  4 25  1  0
  7  5  1  0
  6  5  1  0
  9  6  1  0
  8  7  1  0
  7 12  2  0
 10  8  1  0
  8  9  1  0
 11  9  2  0
 18 10  1  0
 14 10  2  0
 13 26  1  0
 13 27  1  0
 13 28  1  0
 15 14  1  0
 14 29  1  0
 16 15  2  0
 15 30  1  0
 20 16  1  0
 16 17  1  0
 19 17  1  0
 17 18  2  0
 18 31  1  0
 19 32  1  0
 21 20  2  0
 22 20  1  0
 22 33  1  0
M  END
