
     RDKit          3D

 33 35  0  0  0  0  0  0  0  0999 V2000
   66.8816   49.2795    5.5721 N   0  0  0  0  0  0  0  0  0  0  0  0
   67.7479   49.0251    6.5555 C   0  0  0  0  0  0  0  0  0  0  0  0
   68.5319   47.4026    8.1773 C   0  0  0  0  0  0  0  0  0  0  0  0
   69.4482   48.4205    8.5771 C   0  0  0  0  0  0  0  0  0  0  0  0
   69.4431   49.6291    7.9405 C   0  0  0  0  0  0  0  0  0  0  0  0
   70.4261   50.6975    8.3077 C   0  0  0  0  0  0  0  0  0  0  0  0
   71.4017   50.9921    7.1574 C   0  0  0  0  0  0  0  0  0  0  0  0
   72.2062   49.7821    6.7717 C   0  0  0  0  0  0  0  0  0  0  0  0
   73.3351   49.4219    7.5353 C   0  0  0  0  0  0  0  0  0  0  0  0
   74.0722   48.2888    7.2607 C   0  0  0  0  0  0  0  0  0  0  0  0
   73.6864   47.4686    6.1931 C   0  0  0  0  0  0  0  0  0  0  0  0
   74.1835   46.2518    5.6284 C   0  0  0  0  0  0  0  0  0  0  0  0
   73.3615   45.9409    4.5840 C   0  0  0  0  0  0  0  0  0  0  0  0
   72.3873   46.8920    4.4647 N   0  0  0  0  0  0  0  0  0  0  0  0
   72.5557   47.8391    5.4331 C   0  0  0  0  0  0  0  0  0  0  0  0
   71.8137   48.9860    5.7106 C   0  0  0  0  0  0  0  0  0  0  0  0
   68.5977   49.9473    6.9355 N   0  0  0  0  0  0  0  0  0  0  0  0
   67.6978   47.8000    7.1352 N   0  0  0  0  0  0  0  0  0  0  0  0
   68.4240   46.2742    8.6425 O   0  0  0  0  0  0  0  0  0  0  0  0
   66.9267   50.1655    5.1001 H   0  0  0  0  0  0  0  0  0  0  0  0
   66.2537   48.5825    5.2120 H   0  0  0  0  0  0  0  0  0  0  0  0
   67.0233   47.1210    6.8062 H   0  0  0  0  0  0  0  0  0  0  0  0
   70.1554   48.2123    9.3668 H   0  0  0  0  0  0  0  0  0  0  0  0
   69.8829   51.6145    8.5524 H   0  0  0  0  0  0  0  0  0  0  0  0
   70.9804   50.4008    9.1994 H   0  0  0  0  0  0  0  0  0  0  0  0
   70.8371   51.3607    6.2996 H   0  0  0  0  0  0  0  0  0  0  0  0
   72.0638   51.8019    7.4721 H   0  0  0  0  0  0  0  0  0  0  0  0
   73.6317   50.0589    8.3613 H   0  0  0  0  0  0  0  0  0  0  0  0
   70.9441   49.2472    5.1190 H   0  0  0  0  0  0  0  0  0  0  0  0
   74.9382   48.0400    7.8620 H   0  0  0  0  0  0  0  0  0  0  0  0
   75.0375   45.6806    5.9567 H   0  0  0  0  0  0  0  0  0  0  0  0
   73.3925   45.1029    3.9066 H   0  0  0  0  0  0  0  0  0  0  0  0
   71.6563   46.8851    3.7738 H   0  0  0  0  0  0  0  0  0  0  0  0
  1  2  1  0
  2 17  2  0
  2 18  1  0
  3  4  1  0
  3 18  1  0
  3 19  2  0
  4  5  2  0
  5  6  1  0
  5 17  1  0
  6  7  1  0
  7  8  1  0
  8  9  2  0
  8 16  1  0
  9 10  1  0
 10 11  2  0
 11 12  1  0
 11 15  1  0
 12 13  2  0
 13 14  1  0
 14 15  1  0
 15 16  2  0
  1 20  1  0
  1 21  1  0
 18 22  1  0
  4 23  1  0
  6 24  1  0
  6 25  1  0
  7 26  1  0
  7 27  1  0
  9 28  1  0
 16 29  1  0
 10 30  1  0
 12 31  1  0
 13 32  1  0
 14 33  1  0
M  END
