
     RDKit          3D

 21 22  0  0  0  0  0  0  0  0999 V2000
   -1.0952   -0.0548   -1.3183 C   0  0  2  0  0  0  0  0  0  0  0  0
    0.5633   -0.0548   -1.3183 C   0  0  2  0  0  0  0  0  0  0  0  0
    1.1221   -0.0548    0.0266 C   0  0  1  0  0  0  0  0  0  0  0  0
    0.3474    0.6372    0.9181 C   0  0  1  0  0  0  0  0  0  0  0  0
   -0.7694   -0.0622    1.2792 C   0  0  2  0  0  0  0  0  0  0  0  0
   -0.2360   -1.5072    1.4131 C   0  0  0  0  0  0  0  0  0  0  0  0
   -1.4784    0.8967   -1.8925 O   0  0  0  0  0  0  0  0  0  0  0  0
    1.0122    1.0759   -1.9912 O   0  0  0  0  0  0  0  0  0  0  0  0
    1.0643   -1.5017    0.5636 O   0  0  0  0  0  0  0  0  0  0  0  0
    1.2066    0.9306    2.2185 O   0  0  0  0  0  0  0  0  0  0  0  0
   -1.7614   -0.0567    0.2757 O   0  0  0  0  0  0  0  0  0  0  0  0
   -1.4420   -0.9385   -1.8401 H   0  0  0  0  0  0  0  0  0  0  0  0
    0.9130   -0.9360   -1.8423 H   0  0  0  0  0  0  0  0  0  0  0  0
    2.1396    0.3169    0.0260 H   0  0  0  0  0  0  0  0  0  0  0  0
    0.0476    1.5776    0.4717 H   0  0  0  0  0  0  0  0  0  0  0  0
   -1.1647    0.2945    2.2227 H   0  0  0  0  0  0  0  0  0  0  0  0
   -0.0132   -1.7360    2.4482 H   0  0  0  0  0  0  0  0  0  0  0  0
   -0.9504   -2.2152    1.0106 H   0  0  0  0  0  0  0  0  0  0  0  0
   -2.3160    0.7116   -2.2839 H   0  0  0  0  0  0  0  0  0  0  0  0
    1.5333    0.8145   -2.7323 H   0  0  0  0  0  0  0  0  0  0  0  0
    1.2773    1.8623    2.3450 H   0  0  0  0  0  0  0  0  0  0  0  0
  1  2  1  0
  1  7  1  0
  1 11  1  0
  1 12  1  6
  2  3  1  0
  2  8  1  0
  2 13  1  6
  3  4  1  0
  3  9  1  0
  3 14  1  6
  4  5  1  0
  4 10  1  0
  4 15  1  6
  5  6  1  0
  5 11  1  0
  5 16  1  1
  6  9  1  0
  6 17  1  0
  6 18  1  0
  7 19  1  0
  8 20  1  0
 10 21  1  0
M  END
