
     RDKit          3D

 63 67  0  0  0  0  0  0  0  0999 V2000
    4.9661    0.4809   -2.2400 C   0  0  0  0  0  0  0  0  0  0  0  0
    6.8075   -0.9747   -1.2765 C   0  0  0  0  0  0  0  0  0  0  0  0
    4.4784   -0.9906   -0.3874 C   0  0  0  0  0  0  0  0  0  0  0  0
    4.1867    0.5227    1.5321 C   0  0  0  0  0  0  0  0  0  0  0  0
    0.2700   -2.6137    1.7822 C   0  0  0  0  0  0  0  0  0  0  0  0
    2.6459   -2.2755    2.0139 C   0  0  0  0  0  0  0  0  0  0  0  0
    0.2070   -1.6184    0.8041 C   0  0  0  0  0  0  0  0  0  0  0  0
    7.2539    2.1050   -1.5208 O   0  0  0  0  0  0  0  0  0  0  0  0
    6.7985    1.9989   -0.3917 C   0  0  0  0  0  0  0  0  0  0  0  0
    7.1339    3.0409    0.6539 C   0  0  0  0  0  0  0  0  0  0  0  0
    5.9788    0.9793   -0.0197 N   0  0  0  0  0  0  0  0  0  0  0  0
    5.6705    0.7125    1.3694 C   0  0  0  0  0  0  0  0  0  0  0  0
    5.5984   -0.0913   -0.9587 C   0  0  2  0  0  0  0  0  0  0  0  0
    4.2004   -2.0245   -0.9721 O   0  0  0  0  0  0  0  0  0  0  0  0
    3.7636   -0.5715    0.6776 N   0  0  0  0  0  0  0  0  0  0  0  0
    2.5892   -1.2855    1.0431 C   0  0  0  0  0  0  0  0  0  0  0  0
    1.4806   -2.9340    2.3776 C   0  0  0  0  0  0  0  0  0  0  0  0
    1.3849   -0.9614    0.4414 C   0  0  0  0  0  0  0  0  0  0  0  0
   -1.0417   -1.1914    0.1782 C   0  0  0  0  0  0  0  0  0  0  0  0
   -1.3974    0.0827   -0.2401 C   0  0  0  0  0  0  0  0  0  0  0  0
   -2.6836    0.0366   -0.7939 C   0  0  0  0  0  0  0  0  0  0  0  0
   -3.1032   -1.2853   -0.7054 C   0  0  0  0  0  0  0  0  0  0  0  0
   -4.2763   -2.0253   -1.0461 C   0  0  0  0  0  0  0  0  0  0  0  0
   -5.3301   -1.4269   -1.5903 N   0  0  0  0  0  0  0  0  0  0  0  0
   -4.3242   -3.3249   -0.8150 N   0  0  0  0  0  0  0  0  0  0  0  0
   -3.2394   -3.8919   -0.2632 C   0  0  0  0  0  0  0  0  0  0  0  0
   -2.1279   -3.3337    0.1014 N   0  0  0  0  0  0  0  0  0  0  0  0
   -2.0901   -2.0050   -0.1132 N   0  0  0  0  0  0  0  0  0  0  0  0
   -3.4317    1.1588   -1.3462 C   0  0  0  0  0  0  0  0  0  0  0  0
   -3.8354    1.4246   -2.6361 C   0  0  0  0  0  0  0  0  0  0  0  0
   -4.4888    2.6656   -2.5573 C   0  0  0  0  0  0  0  0  0  0  0  0
   -4.4901    3.1305   -1.3259 N   0  0  0  0  0  0  0  0  0  0  0  0
   -3.8450    2.2170   -0.6013 N   0  0  0  0  0  0  0  0  0  0  0  0
   -3.7721    2.3650    0.8250 C   0  0  0  0  0  0  0  0  0  0  0  0
   -5.0162    1.8281    1.5032 C   0  0  1  0  0  0  0  0  0  0  0  0
   -5.2202    0.5364    1.2175 F   0  0  0  0  0  0  0  0  0  0  0  0
   -4.9026    1.9353    2.8311 F   0  0  0  0  0  0  0  0  0  0  0  0
   -6.1212    2.4853    1.1397 F   0  0  0  0  0  0  0  0  0  0  0  0
    5.6981    1.0155   -2.8346 H   0  0  0  0  0  0  0  0  0  0  0  0
    4.5661   -0.3300   -2.8455 H   0  0  0  0  0  0  0  0  0  0  0  0
    4.1504    1.1649   -1.9993 H   0  0  0  0  0  0  0  0  0  0  0  0
    7.5737   -0.3936   -1.7838 H   0  0  0  0  0  0  0  0  0  0  0  0
    7.2393   -1.3907   -0.3645 H   0  0  0  0  0  0  0  0  0  0  0  0
    6.5250   -1.8014   -1.9243 H   0  0  0  0  0  0  0  0  0  0  0  0
    3.9614    0.2659    2.5677 H   0  0  0  0  0  0  0  0  0  0  0  0
    3.6486    1.4425    1.2878 H   0  0  0  0  0  0  0  0  0  0  0  0
   -0.6249   -3.1334    2.0907 H   0  0  0  0  0  0  0  0  0  0  0  0
    3.5905   -2.5255    2.4801 H   0  0  0  0  0  0  0  0  0  0  0  0
    6.2451    3.4482    1.1357 H   0  0  0  0  0  0  0  0  0  0  0  0
    7.7775    2.6350    1.4356 H   0  0  0  0  0  0  0  0  0  0  0  0
    7.6671    3.8542    0.1691 H   0  0  0  0  0  0  0  0  0  0  0  0
    5.9978    1.5269    2.0058 H   0  0  0  0  0  0  0  0  0  0  0  0
    6.1985   -0.1866    1.7078 H   0  0  0  0  0  0  0  0  0  0  0  0
    1.5136   -3.7043    3.1363 H   0  0  0  0  0  0  0  0  0  0  0  0
    1.3685   -0.1962   -0.3247 H   0  0  0  0  0  0  0  0  0  0  0  0
   -0.7806    0.9631   -0.1437 H   0  0  0  0  0  0  0  0  0  0  0  0
   -6.1321   -1.9788   -1.8453 H   0  0  0  0  0  0  0  0  0  0  0  0
   -5.3334   -0.4510   -1.8331 H   0  0  0  0  0  0  0  0  0  0  0  0
   -3.2878   -4.9607   -0.0946 H   0  0  0  0  0  0  0  0  0  0  0  0
   -3.6505    0.8217   -3.5098 H   0  0  0  0  0  0  0  0  0  0  0  0
   -4.9425    3.2339   -3.3548 H   0  0  0  0  0  0  0  0  0  0  0  0
   -2.9058    1.8284    1.2085 H   0  0  0  0  0  0  0  0  0  0  0  0
   -3.6495    3.4196    1.0685 H   0  0  0  0  0  0  0  0  0  0  0  0
 35 37  1  1
 38 35  1  0
 36 35  1  0
 35 34  1  0
  8  9  2  0
 13  1  1  6
 34 33  1  0
 32 33  1  0
 32 31  2  0
 33 29  1  0
 24 23  1  0
  9 10  1  0
  9 11  1  0
 31 30  1  0
 29 30  2  0
 29 21  1  0
 23 25  2  0
 23 22  1  0
 13 11  1  0
 13  2  1  0
 13  3  1  0
 25 26  1  0
 11 12  1  0
 22 21  2  0
 22 28  1  0
 21 20  1  0
 26 27  2  0
  3 14  2  0
  3 15  1  0
 28 27  1  0
 28 19  1  0
 20 19  2  0
  4 15  1  0
  4 12  1  0
 15 16  1  0
 19  7  1  0
 18 16  2  0
 18  7  1  0
 16  6  1  0
  7  5  2  0
  6 17  2  0
  5 17  1  0
  1 39  1  0
  1 40  1  0
  1 41  1  0
  2 42  1  0
  2 43  1  0
  2 44  1  0
  4 45  1  0
  4 46  1  0
  5 47  1  0
  6 48  1  0
 10 49  1  0
 10 50  1  0
 10 51  1  0
 12 52  1  0
 12 53  1  0
 17 54  1  0
 18 55  1  0
 20 56  1  0
 24 57  1  0
 24 58  1  0
 26 59  1  0
 30 60  1  0
 31 61  1  0
 34 62  1  0
 34 63  1  0
M  END
