
     RDKit          3D

 27 27  0  0  0  0  0  0  0  0999 V2000
   -1.1514   -0.1617   -1.5710 C   0  0  1  0  0  0  0  0  0  0  0  0
   -1.5944   -0.0136   -2.7873 O   0  0  0  0  0  0  0  0  0  0  0  0
    0.3851   -0.1617   -1.5710 C   0  0  0  0  0  0  0  0  0  0  0  0
    0.9566   -0.1617   -0.1939 C   0  0  1  0  0  0  0  0  0  0  0  0
    2.3975   -0.0586   -0.2855 N   0  0  0  0  0  0  0  0  0  0  0  0
    0.4555    0.9428    0.6181 C   0  0  1  0  0  0  0  0  0  0  0  0
    0.9395    2.1498    0.0869 O   0  0  0  0  0  0  0  0  0  0  0  0
   -1.0162    0.9972    0.6532 C   0  0  1  0  0  0  0  0  0  0  0  0
   -1.6144    1.0202   -0.6973 O   0  0  0  0  0  0  0  0  0  0  0  0
   -1.5375   -0.2325    1.4018 C   0  0  0  0  0  0  0  0  0  0  0  0
    0.5691   -1.5491    0.5260 C   0  0  0  0  0  0  0  0  0  0  0  0
    0.9327    0.7926    1.9278 O   0  0  0  0  0  0  0  0  0  0  0  0
   -1.5171   -1.0913   -1.1521 H   0  0  0  0  0  0  0  0  0  0  0  0
   -2.4758   -0.3438   -2.8433 H   0  0  0  0  0  0  0  0  0  0  0  0
    0.7337   -1.0445   -2.0932 H   0  0  0  0  0  0  0  0  0  0  0  0
    0.7337    0.7211   -2.0932 H   0  0  0  0  0  0  0  0  0  0  0  0
    2.6925   -0.3146   -1.2070 H   0  0  0  0  0  0  0  0  0  0  0  0
    2.8193   -0.6729    0.3826 H   0  0  0  0  0  0  0  0  0  0  0  0
    0.8035    2.8444    0.7099 H   0  0  0  0  0  0  0  0  0  0  0  0
   -1.3195    1.8916    1.1840 H   0  0  0  0  0  0  0  0  0  0  0  0
   -2.4265    0.0347    1.9601 H   0  0  0  0  0  0  0  0  0  0  0  0
   -0.7760   -0.5894    2.0847 H   0  0  0  0  0  0  0  0  0  0  0  0
   -1.7790   -1.0130    0.6904 H   0  0  0  0  0  0  0  0  0  0  0  0
    0.6368   -1.4297    1.6006 H   0  0  0  0  0  0  0  0  0  0  0  0
   -0.4431   -1.8256    0.2564 H   0  0  0  0  0  0  0  0  0  0  0  0
    1.2530   -2.3256    0.2052 H   0  0  0  0  0  0  0  0  0  0  0  0
    1.3425    1.5946    2.2070 H   0  0  0  0  0  0  0  0  0  0  0  0
  9  1  1  0
  3  1  1  0
  1  2  1  0
  1 13  1  1
  2 14  1  0
  4  3  1  0
  3 15  1  0
  3 16  1  0
  6  4  1  0
  4  5  1  6
  4 11  1  0
  5 17  1  0
  5 18  1  0
  6 12  1  1
  7  6  1  0
  6  8  1  0
  7 19  1  0
 10  8  1  0
  8  9  1  0
  8 20  1  1
 10 21  1  0
 10 22  1  0
 10 23  1  0
 11 24  1  0
 11 25  1  0
 11 26  1  0
 12 27  1  0
M  END
