
     RDKit          3D

 33 35  0  0  0  0  0  0  0  0999 V2000
    7.4062    0.0879    0.1880 C   0  0  0  0  0  0  0  0  0  0  0  0
    8.5883   -0.6271    0.0924 C   0  0  0  0  0  0  0  0  0  0  0  0
    8.5670   -1.9700   -0.2649 C   0  0  0  0  0  0  0  0  0  0  0  0
    7.3566   -2.6009   -0.5268 C   0  0  0  0  0  0  0  0  0  0  0  0
    6.1684   -1.8959   -0.4341 C   0  0  0  0  0  0  0  0  0  0  0  0
    6.1859   -0.5438   -0.0751 C   0  0  0  0  0  0  0  0  0  0  0  0
    4.9710    0.1837    0.0251 C   0  0  0  0  0  0  0  0  0  0  0  0
    3.9384    0.8034    0.1150 C   0  0  0  0  0  0  0  0  0  0  0  0
    2.7510    1.5387    0.2338 C   0  0  0  0  0  0  0  0  0  0  0  0
    1.5891    0.9115   -0.0263 O   0  0  0  0  0  0  0  0  0  0  0  0
    2.5139    2.8419    0.5860 C   0  0  0  0  0  0  0  0  0  0  0  0
    1.1167    3.0155    0.5380 C   0  0  0  0  0  0  0  0  0  0  0  0
    0.6008    1.8098    0.1593 C   0  0  0  0  0  0  0  0  0  0  0  0
   -0.7610    1.3833   -0.0631 C   0  0  0  0  0  0  0  0  0  0  0  0
   -1.7255    2.0836    0.0798 O   0  0  0  0  0  0  0  0  0  0  0  0
   -0.8779   -0.3427   -0.5913 S   0  0  0  0  0  0  0  0  0  0  0  0
   -2.6067   -0.4091   -0.7660 C   0  0  0  0  0  0  0  0  0  0  0  0
   -3.4655   -0.6510    0.2473 N   0  0  0  0  0  0  0  0  0  0  0  0
   -4.6774   -0.6502   -0.3328 C   0  0  0  0  0  0  0  0  0  0  0  0
   -5.9588   -0.8661    0.3999 C   0  0  2  0  0  0  0  0  0  0  0  0
   -6.1588    0.0906    1.3084 F   0  0  0  0  0  0  0  0  0  0  0  0
   -5.9462   -2.0322    1.0486 F   0  0  0  0  0  0  0  0  0  0  0  0
   -6.9813   -0.8641   -0.4423 F   0  0  0  0  0  0  0  0  0  0  0  0
   -4.5708   -0.4317   -1.6121 N   0  0  0  0  0  0  0  0  0  0  0  0
   -3.2634   -0.2811   -1.8866 N   0  0  0  0  0  0  0  0  0  0  0  0
    7.4210    1.1335    0.4650 H   0  0  0  0  0  0  0  0  0  0  0  0
    9.5293   -0.1345    0.2977 H   0  0  0  0  0  0  0  0  0  0  0  0
    9.4929   -2.5247   -0.3407 H   0  0  0  0  0  0  0  0  0  0  0  0
    7.3383   -3.6465   -0.8039 H   0  0  0  0  0  0  0  0  0  0  0  0
    5.2254   -2.3850   -0.6385 H   0  0  0  0  0  0  0  0  0  0  0  0
    3.2613    3.5732    0.8456 H   0  0  0  0  0  0  0  0  0  0  0  0
    0.5601    3.9126    0.7547 H   0  0  0  0  0  0  0  0  0  0  0  0
   -3.2308   -0.7989    1.2201 H   0  0  0  0  0  0  0  0  0  0  0  0
  1  2  2  0
  1  6  1  0
  1 26  1  0
  2  3  1  0
  2 27  1  0
  3  4  2  0
  3 28  1  0
  4  5  1  0
  4 29  1  0
  5  6  2  0
  5 30  1  0
  6  7  1  0
  7  8  3  0
  8  9  1  0
  9 10  1  0
  9 11  2  0
 10 13  1  0
 11 12  1  0
 11 31  1  0
 12 13  2  0
 12 32  1  0
 13 14  1  0
 14 15  2  0
 14 16  1  0
 16 17  1  0
 17 18  1  0
 17 25  2  0
 18 19  1  0
 18 33  1  0
 19 20  1  0
 19 24  2  0
 20 21  1  1
 20 22  1  0
 20 23  1  0
 24 25  1  0
M  END
