
     RDKit          3D

 27 27  0  0  0  0  0  0  0  0999 V2000
   -0.5445   -0.5929   -1.4736 C   0  0  1  0  0  0  0  0  0  0  0  0
    0.9794   -0.5929   -1.4736 C   0  0  1  0  0  0  0  0  0  0  0  0
    1.5312   -0.5929   -0.1113 C   0  0  0  0  0  0  0  0  0  0  0  0
    0.9700    0.5088    0.7191 C   0  0  1  0  0  0  0  0  0  0  0  0
   -0.5620    0.5096    0.7150 C   0  0  1  0  0  0  0  0  0  0  0  0
   -1.0525    1.7394    1.4428 C   0  0  0  0  0  0  0  0  0  0  0  0
    1.4642   -1.8210   -2.1933 N   0  0  0  0  0  0  0  0  0  0  0  0
   -2.4292    1.5190    1.9051 N   0  0  0  0  0  0  0  0  0  0  0  0
   -0.9852   -1.7840   -0.9848 O   0  0  0  0  0  0  0  0  0  0  0  0
    1.4288    0.3519    2.0670 O   0  0  0  0  0  0  0  0  0  0  0  0
   -1.1071    0.5117   -0.6373 O   0  0  0  0  0  0  0  0  0  0  0  0
   -0.8944   -0.4738   -2.4919 H   0  0  0  0  0  0  0  0  0  0  0  0
    1.3305    0.2895   -1.9947 H   0  0  0  0  0  0  0  0  0  0  0  0
    1.3000   -1.5402    0.3606 H   0  0  0  0  0  0  0  0  0  0  0  0
    2.6066   -0.4755   -0.1688 H   0  0  0  0  0  0  0  0  0  0  0  0
    1.3224    1.4563    0.3295 H   0  0  0  0  0  0  0  0  0  0  0  0
   -0.9135   -0.3748    1.2324 H   0  0  0  0  0  0  0  0  0  0  0  0
   -1.0288    2.5896    0.7718 H   0  0  0  0  0  0  0  0  0  0  0  0
   -0.4125    1.9341    2.2949 H   0  0  0  0  0  0  0  0  0  0  0  0
    2.4564   -1.7673   -2.3136 H   0  0  0  0  0  0  0  0  0  0  0  0
    1.0223   -1.8789   -3.0894 H   0  0  0  0  0  0  0  0  0  0  0  0
    1.2369   -2.6343   -1.6561 H   0  0  0  0  0  0  0  0  0  0  0  0
   -3.0201    1.3359    1.1183 H   0  0  0  0  0  0  0  0  0  0  0  0
   -2.7550    2.3352    2.3841 H   0  0  0  0  0  0  0  0  0  0  0  0
   -2.4508    0.7359    2.5278 H   0  0  0  0  0  0  0  0  0  0  0  0
   -1.7718   -2.0382   -1.4382 H   0  0  0  0  0  0  0  0  0  0  0  0
    2.2787    0.7500    2.1582 H   0  0  0  0  0  0  0  0  0  0  0  0
  1  2  1  0
  1  9  1  0
  1 11  1  0
  1 12  1  6
  2  3  1  0
  2  7  1  0
  2 13  1  6
  3  4  1  0
  3 14  1  0
  3 15  1  0
  4  5  1  0
  4 10  1  0
  4 16  1  6
  5  6  1  0
  5 11  1  0
  5 17  1  1
  6  8  1  0
  6 18  1  0
  6 19  1  0
  7 20  1  0
  7 21  1  0
  7 22  1  0
  8 23  1  0
  8 24  1  0
  8 25  1  0
  9 26  1  0
 10 27  1  0
M  CHG  2   7   1   8   1
M  END
