
     RDKit          3D

 58 61  0  0  0  0  0  0  0  0999 V2000
   -5.1289    1.1909   -2.2158 C   0  0  0  0  0  0  0  0  0  0  0  0
    6.4851    2.3306    0.6545 C   0  0  0  0  0  0  0  0  0  0  0  0
   -3.9201    1.8777   -2.2442 C   0  0  0  0  0  0  0  0  0  0  0  0
   -2.9847    1.6488   -1.2555 C   0  0  0  0  0  0  0  0  0  0  0  0
    2.6371    0.8000    1.7634 C   0  0  0  0  0  0  0  0  0  0  0  0
   -3.2259    0.7367   -0.2219 C   0  0  0  0  0  0  0  0  0  0  0  0
   -2.1990    0.4807    0.8235 C   0  0  0  0  0  0  0  0  0  0  0  0
    1.4712    1.0157    0.8006 C   0  0  0  0  0  0  0  0  0  0  0  0
    4.2580    2.6425    1.6969 C   0  0  0  0  0  0  0  0  0  0  0  0
    5.3022    3.2739    0.7991 C   0  0  0  0  0  0  0  0  0  0  0  0
   -0.9199    0.6613    0.4602 N   0  0  0  0  0  0  0  0  0  0  0  0
    3.8966    1.3021    1.2693 N   0  0  0  0  0  0  0  0  0  0  0  0
   -5.3983    0.3083   -1.1891 C   0  0  0  0  0  0  0  0  0  0  0  0
   -4.8647   -0.7716    0.8363 N   0  0  0  0  0  0  0  0  0  0  0  0
   -6.8993   -1.3961   -0.3057 C   0  0  0  0  0  0  0  0  0  0  0  0
   -6.6331   -0.3356   -1.1026 N   0  0  0  0  0  0  0  0  0  0  0  0
   -4.4656    0.0761   -0.1612 C   0  0  0  0  0  0  0  0  0  0  0  0
   -5.7100   -1.8944    0.4915 C   0  0  1  0  0  0  0  0  0  0  0  0
   -4.9857   -2.9958   -0.2866 C   0  0  0  0  0  0  0  0  0  0  0  0
   -2.5021    0.1188    1.9603 O   0  0  0  0  0  0  0  0  0  0  0  0
    4.7148    0.5429    0.4743 C   0  0  0  0  0  0  0  0  0  0  0  0
    4.3026   -0.7024   -0.0171 C   0  0  0  0  0  0  0  0  0  0  0  0
    5.1373   -1.4790   -0.8190 C   0  0  0  0  0  0  0  0  0  0  0  0
    4.6183   -2.6611   -1.2204 O   0  0  0  0  0  0  0  0  0  0  0  0
    5.4085   -3.4944   -2.0414 C   0  0  0  0  0  0  0  0  0  0  0  0
    6.4031   -1.0245   -1.1662 C   0  0  0  0  0  0  0  0  0  0  0  0
    6.8029    0.2179   -0.6786 C   0  0  0  0  0  0  0  0  0  0  0  0
    6.0107    1.0036    0.1342 C   0  0  0  0  0  0  0  0  0  0  0  0
   -5.8733    1.3589   -2.9849 H   0  0  0  0  0  0  0  0  0  0  0  0
    6.9679    2.2114    1.6311 H   0  0  0  0  0  0  0  0  0  0  0  0
   -3.7213    2.5899   -3.0327 H   0  0  0  0  0  0  0  0  0  0  0  0
   -2.0566    2.2053   -1.2761 H   0  0  0  0  0  0  0  0  0  0  0  0
    2.4223    1.3078    2.7075 H   0  0  0  0  0  0  0  0  0  0  0  0
    2.7276   -0.2596    2.0168 H   0  0  0  0  0  0  0  0  0  0  0  0
    1.3490    2.0854    0.6095 H   0  0  0  0  0  0  0  0  0  0  0  0
    1.6937    0.5428   -0.1605 H   0  0  0  0  0  0  0  0  0  0  0  0
    4.6243    2.6241    2.7316 H   0  0  0  0  0  0  0  0  0  0  0  0
    3.3554    3.2589    1.6975 H   0  0  0  0  0  0  0  0  0  0  0  0
    5.6073    4.2273    1.2324 H   0  0  0  0  0  0  0  0  0  0  0  0
    4.8721    3.4877   -0.1830 H   0  0  0  0  0  0  0  0  0  0  0  0
   -0.6985    0.7784   -0.5152 H   0  0  0  0  0  0  0  0  0  0  0  0
   -4.1931   -0.9265    1.5734 H   0  0  0  0  0  0  0  0  0  0  0  0
   -7.3730   -0.0219   -1.7161 H   0  0  0  0  0  0  0  0  0  0  0  0
   -6.0974   -2.3101    1.4218 H   0  0  0  0  0  0  0  0  0  0  0  0
   -4.1366   -3.3568    0.2937 H   0  0  0  0  0  0  0  0  0  0  0  0
   -5.6482   -3.8405   -0.4747 H   0  0  0  0  0  0  0  0  0  0  0  0
   -4.6119   -2.6319   -1.2451 H   0  0  0  0  0  0  0  0  0  0  0  0
    3.3186   -1.0941    0.2034 H   0  0  0  0  0  0  0  0  0  0  0  0
    6.3381   -3.7925   -1.5496 H   0  0  0  0  0  0  0  0  0  0  0  0
    4.8181   -4.3859   -2.2401 H   0  0  0  0  0  0  0  0  0  0  0  0
    5.6545   -3.0179   -2.9942 H   0  0  0  0  0  0  0  0  0  0  0  0
    7.0722   -1.5912   -1.7979 H   0  0  0  0  0  0  0  0  0  0  0  0
    7.7887    0.5832   -0.9450 H   0  0  0  0  0  0  0  0  0  0  0  0
   -7.9907   -1.9339   -0.2692 O   0  0  0  0  0  0  0  0  0  0  0  0
    0.1833    0.4479    1.3730 C   0  0  0  0  0  0  0  0  0  0  0  0
    7.2408    2.7493   -0.0129 H   0  0  0  0  0  0  0  0  0  0  0  0
    0.3065   -0.6205    1.5804 H   0  0  0  0  0  0  0  0  0  0  0  0
   -0.0446    0.9302    2.3256 H   0  0  0  0  0  0  0  0  0  0  0  0
 55 11  1  0
 55  8  1  0
 11  7  1  0
 20  7  2  0
  7  6  1  0
  6  4  2  0
  6 17  1  0
 18 19  1  0
 18 14  1  0
 18 15  1  0
  4  3  1  0
  8  5  1  0
 17 14  1  0
 17 13  2  0
  3  1  2  0
  5 12  1  0
 13  1  1  0
 13 16  1  0
 15 16  1  0
 15 54  2  0
  9 12  1  0
  9 10  1  0
 12 21  1  0
 10  2  1  0
 21 22  1  0
 21 28  2  0
 22 23  2  0
 25 24  1  0
  2 28  1  0
 28 27  1  0
 23 24  1  0
 23 26  1  0
 27 26  2  0
  1 29  1  0
  2 56  1  0
  2 30  1  0
  3 31  1  0
  4 32  1  0
  5 33  1  0
  5 34  1  0
 55 57  1  0
 55 58  1  0
  8 35  1  0
  8 36  1  0
  9 37  1  0
  9 38  1  0
 10 39  1  0
 10 40  1  0
 11 41  1  0
 14 42  1  0
 16 43  1  0
 18 44  1  1
 19 45  1  0
 19 46  1  0
 19 47  1  0
 22 48  1  0
 25 49  1  0
 25 50  1  0
 25 51  1  0
 26 52  1  0
 27 53  1  0
M  END
