
     RDKit          3D

 15 15  0  0  0  0  0  0  0  0999 V2000
    2.6112   -1.1987   -0.0206 C   0  0  0  0  0  0  0  0  0  0  0  0
    1.4456   -0.2789   -0.0146 C   0  0  0  0  0  0  0  0  0  0  0  0
    1.7508    1.0252    0.0098 O   0  0  0  0  0  0  0  0  0  0  0  0
    0.8045    1.9531    0.0184 C   0  0  0  0  0  0  0  0  0  0  0  0
   -0.5086    1.6427    0.0030 C   0  0  0  0  0  0  0  0  0  0  0  0
   -0.9216    0.2840   -0.0239 C   0  0  0  0  0  0  0  0  0  0  0  0
   -2.5117   -0.2373   -0.0458 S   0  0  0  0  0  0  0  0  0  0  0  0
    0.1419   -0.6751   -0.0318 C   0  0  0  0  0  0  0  0  0  0  0  0
   -0.1350   -1.9810   -0.0558 O   0  0  0  0  0  0  0  0  0  0  0  0
    3.5473   -0.6452   -0.0040 H   0  0  0  0  0  0  0  0  0  0  0  0
    2.5871   -1.8588    0.8473 H   0  0  0  0  0  0  0  0  0  0  0  0
    2.6011   -1.8300   -0.9101 H   0  0  0  0  0  0  0  0  0  0  0  0
    1.2016    2.9575    0.0385 H   0  0  0  0  0  0  0  0  0  0  0  0
   -1.2395    2.4375    0.0106 H   0  0  0  0  0  0  0  0  0  0  0  0
   -1.1098   -2.0632   -0.0680 H   0  0  0  0  0  0  0  0  0  0  0  0
  1  2  1  0
  2  3  1  0
  2  8  2  0
  9  8  1  0
  3  4  1  0
  8  6  1  0
  4  5  2  0
  6  5  1  0
  6  7  2  0
  1 10  1  0
  1 11  1  0
  1 12  1  0
  4 13  1  0
  5 14  1  0
  9 15  1  0
M  END
