
     RDKit          3D

 57 59  0  0  0  0  0  0  0  0999 V2000
    5.1228   -0.1336   -0.6446 C   0  0  0  0  0  0  0  0  0  0  0  0
    6.0331    0.8869   -0.8568 C   0  0  0  0  0  0  0  0  0  0  0  0
    6.7136    1.4564    0.2165 C   0  0  0  0  0  0  0  0  0  0  0  0
    7.6719    2.5559   -0.0615 C   0  0  0  0  0  0  0  0  0  0  0  0
    8.2383    3.0374    1.0350 O   0  0  0  0  0  0  0  0  0  0  0  0
    7.9109    2.9715   -1.1695 O   0  0  0  0  0  0  0  0  0  0  0  0
    6.4803    0.9811    1.5059 C   0  0  0  0  0  0  0  0  0  0  0  0
    5.5798   -0.0498    1.7151 C   0  0  0  0  0  0  0  0  0  0  0  0
    4.8865   -0.6017    0.6435 C   0  0  0  0  0  0  0  0  0  0  0  0
    3.9816   -1.7735    0.8781 C   0  0  0  0  0  0  0  0  0  0  0  0
    4.4762   -2.8567    1.1549 O   0  0  0  0  0  0  0  0  0  0  0  0
    2.6549   -1.5727    0.7782 N   0  0  0  0  0  0  0  0  0  0  0  0
    2.0304   -0.2887    0.5063 C   0  0  0  0  0  0  0  0  0  0  0  0
    1.4708   -0.1835   -0.9102 C   0  0  0  0  0  0  0  0  0  0  0  0
    1.7537   -2.7082    0.9374 C   0  0  0  0  0  0  0  0  0  0  0  0
    1.5174   -3.4744   -0.3603 C   0  0  0  0  0  0  0  0  0  0  0  0
    1.3347   -2.5568   -1.5702 C   0  0  0  0  0  0  0  0  0  0  0  0
    0.6346   -1.3140   -1.2730 N   0  0  0  0  0  0  0  0  0  0  0  0
   -0.7128   -1.3358   -1.1451 C   0  0  0  0  0  0  0  0  0  0  0  0
   -1.3438   -2.3714   -1.3192 O   0  0  0  0  0  0  0  0  0  0  0  0
   -1.4049   -0.0340   -0.7880 C   0  0  0  0  0  0  0  0  0  0  0  0
   -2.9267   -0.1608   -0.6611 C   0  0  2  0  0  0  0  0  0  0  0  0
   -3.6222   -0.5039   -1.8864 N   0  0  0  0  0  0  0  0  0  0  0  0
   -3.4888    1.1560   -0.1088 C   0  0  0  0  0  0  0  0  0  0  0  0
   -4.9525    1.0560    0.2018 C   0  0  0  0  0  0  0  0  0  0  0  0
   -5.3766    0.5612    1.4330 C   0  0  0  0  0  0  0  0  0  0  0  0
   -6.7169    0.4229    1.7228 C   0  0  0  0  0  0  0  0  0  0  0  0
   -7.1077   -0.0494    2.9128 F   0  0  0  0  0  0  0  0  0  0  0  0
   -7.6717    0.7778    0.7876 C   0  0  0  0  0  0  0  0  0  0  0  0
   -8.9669    0.6398    1.0817 F   0  0  0  0  0  0  0  0  0  0  0  0
   -7.2911    1.2765   -0.4400 C   0  0  0  0  0  0  0  0  0  0  0  0
   -5.9399    1.4025   -0.7064 C   0  0  0  0  0  0  0  0  0  0  0  0
   -5.5894    1.9031   -1.8990 F   0  0  0  0  0  0  0  0  0  0  0  0
    4.6088   -0.5716   -1.4904 H   0  0  0  0  0  0  0  0  0  0  0  0
    6.2117    1.2406   -1.8630 H   0  0  0  0  0  0  0  0  0  0  0  0
    8.8495    3.7532    0.8063 H   0  0  0  0  0  0  0  0  0  0  0  0
    6.9995    1.4016    2.3555 H   0  0  0  0  0  0  0  0  0  0  0  0
    5.4111   -0.4158    2.7195 H   0  0  0  0  0  0  0  0  0  0  0  0
    1.2280   -0.1468    1.2353 H   0  0  0  0  0  0  0  0  0  0  0  0
    2.7400    0.5211    0.6680 H   0  0  0  0  0  0  0  0  0  0  0  0
    0.9202    0.7511   -0.9985 H   0  0  0  0  0  0  0  0  0  0  0  0
    2.2881   -0.1237   -1.6322 H   0  0  0  0  0  0  0  0  0  0  0  0
    2.1431   -3.3785    1.7017 H   0  0  0  0  0  0  0  0  0  0  0  0
    0.8097   -2.3166    1.3184 H   0  0  0  0  0  0  0  0  0  0  0  0
    2.3564   -4.1439   -0.5611 H   0  0  0  0  0  0  0  0  0  0  0  0
    0.6391   -4.1069   -0.2237 H   0  0  0  0  0  0  0  0  0  0  0  0
    2.3086   -2.2779   -1.9744 H   0  0  0  0  0  0  0  0  0  0  0  0
    0.8148   -3.0892   -2.3660 H   0  0  0  0  0  0  0  0  0  0  0  0
   -0.9912    0.3411    0.1539 H   0  0  0  0  0  0  0  0  0  0  0  0
   -1.1702    0.7264   -1.5416 H   0  0  0  0  0  0  0  0  0  0  0  0
   -3.1445   -0.9448    0.0711 H   0  0  0  0  0  0  0  0  0  0  0  0
   -3.4118    0.1798   -2.6047 H   0  0  0  0  0  0  0  0  0  0  0  0
   -3.2800   -1.3926   -2.2268 H   0  0  0  0  0  0  0  0  0  0  0  0
   -2.9517    1.4187    0.8048 H   0  0  0  0  0  0  0  0  0  0  0  0
   -3.2959    1.9611   -0.8225 H   0  0  0  0  0  0  0  0  0  0  0  0
   -4.6451    0.2816    2.1817 H   0  0  0  0  0  0  0  0  0  0  0  0
   -8.0343    1.5594   -1.1742 H   0  0  0  0  0  0  0  0  0  0  0  0
  1  9  2  0
  1  2  1  0
  1 34  1  0
  2  3  2  0
  2 35  1  0
  3  7  1  0
  3  4  1  0
  6  4  2  0
  4  5  1  0
  5 36  1  0
  8  7  2  0
  7 37  1  0
  9  8  1  0
  8 38  1  0
 10  9  1  0
 12 10  1  0
 10 11  2  0
 15 12  1  0
 12 13  1  0
 13 14  1  0
 13 39  1  0
 13 40  1  0
 14 18  1  0
 14 41  1  0
 14 42  1  0
 15 16  1  0
 15 43  1  0
 15 44  1  0
 16 17  1  0
 16 45  1  0
 16 46  1  0
 18 17  1  0
 17 47  1  0
 17 48  1  0
 18 19  1  0
 20 19  2  0
 19 21  1  0
 21 22  1  0
 21 49  1  0
 21 50  1  0
 24 22  1  0
 22 23  1  0
 22 51  1  1
 23 52  1  0
 23 53  1  0
 24 25  1  0
 24 54  1  0
 24 55  1  0
 32 25  1  0
 25 26  2  0
 26 27  1  0
 26 56  1  0
 29 27  2  0
 27 28  1  0
 31 29  1  0
 30 29  1  0
 32 31  2  0
 31 57  1  0
 33 32  1  0
M  END
