
     RDKit          3D

 85 89  0  0  0  0  0  0  0  0999 V2000
    1.2141   -6.1778    0.3071 C   0  0  0  0  0  0  0  0  0  0  0  0
    2.3171   -6.6877    0.4542 O   0  0  0  0  0  0  0  0  0  0  0  0
    0.6565   -5.3971    1.2633 N   0  0  0  0  0  0  0  0  0  0  0  0
    1.3827   -5.0891    2.4841 C   0  0  0  0  0  0  0  0  0  0  0  0
    1.9274   -3.6613    2.4431 C   0  0  0  0  0  0  0  0  0  0  0  0
    0.8163   -2.7843    1.9894 C   0  0  0  0  0  0  0  0  0  0  0  0
   -0.3460   -3.2218    1.3988 C   0  0  0  0  0  0  0  0  0  0  0  0
   -0.5912   -4.6691    1.1061 C   0  0  0  0  0  0  0  0  0  0  0  0
   -1.0874   -2.0457    1.1583 C   0  0  0  0  0  0  0  0  0  0  0  0
   -0.4104   -0.9828    1.5722 N   0  0  0  0  0  0  0  0  0  0  0  0
    0.7256   -1.4429    2.0757 N   0  0  0  0  0  0  0  0  0  0  0  0
    1.7268   -0.5145    2.5472 C   0  0  0  0  0  0  0  0  0  0  0  0
    2.5623    0.0475    1.4099 C   0  0  2  0  0  0  0  0  0  0  0  0
    3.2508   -0.9987    0.7751 O   0  0  0  0  0  0  0  0  0  0  0  0
    3.5654    1.0735    1.9473 C   0  0  0  0  0  0  0  0  0  0  0  0
    4.6008    1.2973    0.9582 N   0  0  0  0  0  0  0  0  0  0  0  0
    5.8537    1.7628    1.5259 C   0  0  0  0  0  0  0  0  0  0  0  0
    6.9556    1.7790    0.4792 C   0  0  0  0  0  0  0  0  0  0  0  0
    6.5824    2.6502   -0.7210 C   0  0  2  0  0  0  0  0  0  0  0  0
    5.2136    2.2006   -1.2373 C   0  0  0  0  0  0  0  0  0  0  0  0
    4.1772    2.1684   -0.1254 C   0  0  0  0  0  0  0  0  0  0  0  0
    7.6744    2.6779   -1.8183 C   0  0  1  0  0  0  0  0  0  0  0  0
   -2.4029   -1.8762    0.5420 C   0  0  0  0  0  0  0  0  0  0  0  0
   -3.3023   -2.9304    0.4309 C   0  0  0  0  0  0  0  0  0  0  0  0
   -4.5397   -2.7272   -0.1563 C   0  0  0  0  0  0  0  0  0  0  0  0
   -4.9132   -1.4801   -0.6327 C   0  0  0  0  0  0  0  0  0  0  0  0
   -4.0156   -0.4015   -0.5263 C   0  0  0  0  0  0  0  0  0  0  0  0
   -2.7744   -0.6224    0.0523 C   0  0  0  0  0  0  0  0  0  0  0  0
   -4.4990    1.1767   -1.1563 S   0  0  0  0  0  0  0  0  0  0  0  0
   -3.2447    2.2598   -0.4401 C   0  0  0  0  0  0  0  0  0  0  0  0
   -3.6425    3.6795   -0.7599 C   0  0  0  0  0  0  0  0  0  0  0  0
   -4.6233    3.9525   -1.4049 O   0  0  0  0  0  0  0  0  0  0  0  0
   -2.8012    4.6634   -0.2686 N   0  0  0  0  0  0  0  0  0  0  0  0
   -3.0058    6.0202   -0.4560 C   0  0  0  0  0  0  0  0  0  0  0  0
   -1.9901    6.6831    0.1520 C   0  0  0  0  0  0  0  0  0  0  0  0
   -1.1220    5.7074    0.7376 C   0  0  0  0  0  0  0  0  0  0  0  0
   -1.6403    4.4836    0.4667 C   0  0  0  0  0  0  0  0  0  0  0  0
   -6.2773   -1.2931   -1.2219 C   0  0  1  0  0  0  0  0  0  0  0  0
   -6.9398   -2.4437   -1.3550 F   0  0  0  0  0  0  0  0  0  0  0  0
   -7.0425   -0.4913   -0.4673 F   0  0  0  0  0  0  0  0  0  0  0  0
   -6.2244   -0.7347   -2.4416 F   0  0  0  0  0  0  0  0  0  0  0  0
    7.9501    1.3672   -2.2960 O   0  0  0  0  0  0  0  0  0  0  0  0
    0.4176   -6.4100   -0.9554 C   0  0  0  0  0  0  0  0  0  0  0  0
    7.2482    3.5774   -2.9805 C   0  0  0  0  0  0  0  0  0  0  0  0
    8.9928    3.1995   -1.2559 C   0  0  0  0  0  0  0  0  0  0  0  0
    0.6943   -5.1945    3.3267 H   0  0  0  0  0  0  0  0  0  0  0  0
    2.1852   -5.8070    2.6205 H   0  0  0  0  0  0  0  0  0  0  0  0
    2.2884   -3.3762    3.4341 H   0  0  0  0  0  0  0  0  0  0  0  0
    2.7763   -3.5944    1.7593 H   0  0  0  0  0  0  0  0  0  0  0  0
   -0.9738   -4.7964    0.0959 H   0  0  0  0  0  0  0  0  0  0  0  0
   -1.3445   -5.0897    1.7823 H   0  0  0  0  0  0  0  0  0  0  0  0
    1.2178    0.2918    3.0757 H   0  0  0  0  0  0  0  0  0  0  0  0
    2.3667   -1.0319    3.2634 H   0  0  0  0  0  0  0  0  0  0  0  0
    1.8769    0.5424    0.7047 H   0  0  0  0  0  0  0  0  0  0  0  0
    4.0894   -0.5927    0.4898 H   0  0  0  0  0  0  0  0  0  0  0  0
    3.0447    1.9940    2.2484 H   0  0  0  0  0  0  0  0  0  0  0  0
    4.0414    0.6688    2.8459 H   0  0  0  0  0  0  0  0  0  0  0  0
    5.7442    2.7729    1.9565 H   0  0  0  0  0  0  0  0  0  0  0  0
    6.1357    1.0985    2.3457 H   0  0  0  0  0  0  0  0  0  0  0  0
    7.8695    2.1381    0.9556 H   0  0  0  0  0  0  0  0  0  0  0  0
    7.1496    0.7560    0.1462 H   0  0  0  0  0  0  0  0  0  0  0  0
    6.4730    3.6832   -0.3638 H   0  0  0  0  0  0  0  0  0  0  0  0
    4.8487    2.8632   -2.0238 H   0  0  0  0  0  0  0  0  0  0  0  0
    5.2786    1.1956   -1.6695 H   0  0  0  0  0  0  0  0  0  0  0  0
    3.2276    1.8133   -0.5313 H   0  0  0  0  0  0  0  0  0  0  0  0
    3.9970    3.1918    0.2452 H   0  0  0  0  0  0  0  0  0  0  0  0
   -3.0666   -3.9115    0.8178 H   0  0  0  0  0  0  0  0  0  0  0  0
   -5.2203   -3.5637   -0.2237 H   0  0  0  0  0  0  0  0  0  0  0  0
   -2.0514    0.1755    0.1275 H   0  0  0  0  0  0  0  0  0  0  0  0
   -3.1880    2.1185    0.6415 H   0  0  0  0  0  0  0  0  0  0  0  0
   -2.2606    2.0556   -0.8668 H   0  0  0  0  0  0  0  0  0  0  0  0
   -3.8580    6.3858   -1.0022 H   0  0  0  0  0  0  0  0  0  0  0  0
   -1.8672    7.7539    0.1821 H   0  0  0  0  0  0  0  0  0  0  0  0
   -0.2178    5.8966    1.2936 H   0  0  0  0  0  0  0  0  0  0  0  0
   -1.2794    3.5050    0.7333 H   0  0  0  0  0  0  0  0  0  0  0  0
    7.1634    1.0300   -2.7362 H   0  0  0  0  0  0  0  0  0  0  0  0
   -0.5871   -6.7804   -0.7519 H   0  0  0  0  0  0  0  0  0  0  0  0
    0.3203   -5.4906   -1.5349 H   0  0  0  0  0  0  0  0  0  0  0  0
    0.9371   -7.1416   -1.5688 H   0  0  0  0  0  0  0  0  0  0  0  0
    7.0019    4.5813   -2.6309 H   0  0  0  0  0  0  0  0  0  0  0  0
    8.0523    3.6653   -3.7131 H   0  0  0  0  0  0  0  0  0  0  0  0
    6.3713    3.1894   -3.5022 H   0  0  0  0  0  0  0  0  0  0  0  0
    9.3919    2.5562   -0.4718 H   0  0  0  0  0  0  0  0  0  0  0  0
    9.7454    3.2669   -2.0434 H   0  0  0  0  0  0  0  0  0  0  0  0
    8.8626    4.1973   -0.8354 H   0  0  0  0  0  0  0  0  0  0  0  0
  1  2  2  0
  1  3  1  0
  1 43  1  0
  3  4  1  0
  3  8  1  0
  4  5  1  0
  5  6  1  0
  6  7  2  0
  6 11  1  0
  7  8  1  0
  7  9  1  0
  9 10  2  0
  9 23  1  0
 10 11  1  0
 11 12  1  0
 12 13  1  0
 13 14  1  0
 13 15  1  0
 15 16  1  0
 16 17  1  0
 16 21  1  0
 17 18  1  0
 18 19  1  0
 19 20  1  0
 19 22  1  0
 20 21  1  0
 22 42  1  6
 22 44  1  0
 22 45  1  0
 23 24  2  0
 23 28  1  0
 24 25  1  0
 25 26  2  0
 26 27  1  0
 26 38  1  0
 27 28  2  0
 27 29  1  0
 29 30  1  0
 30 31  1  0
 31 32  2  0
 31 33  1  0
 33 34  1  0
 33 37  1  0
 34 35  2  0
 35 36  1  0
 36 37  2  0
 38 39  1  6
 38 40  1  0
 38 41  1  0
  4 46  1  0
  4 47  1  0
  5 48  1  0
  5 49  1  0
  8 50  1  0
  8 51  1  0
 12 52  1  0
 12 53  1  0
 13 54  1  6
 14 55  1  0
 15 56  1  0
 15 57  1  0
 17 58  1  0
 17 59  1  0
 18 60  1  0
 18 61  1  0
 19 62  1  1
 20 63  1  0
 20 64  1  0
 21 65  1  0
 21 66  1  0
 24 67  1  0
 25 68  1  0
 28 69  1  0
 30 70  1  0
 30 71  1  0
 34 72  1  0
 35 73  1  0
 36 74  1  0
 37 75  1  0
 42 76  1  0
 43 77  1  0
 43 78  1  0
 43 79  1  0
 44 80  1  0
 44 81  1  0
 44 82  1  0
 45 83  1  0
 45 84  1  0
 45 85  1  0
M  END
