
     RDKit          3D

 57 56  0  0  0  0  0  0  0  0999 V2000
   11.2642   -0.0072   -1.3487 O   0  0  0  0  0  0  0  0  0  0  0  0
   10.4851    0.6006    0.6489 O   0  0  0  0  0  0  0  0  0  0  0  0
   10.3132    0.0731   -0.4220 C   0  0  0  0  0  0  0  0  0  0  0  0
    9.0325   -0.5659   -0.8814 C   0  0  0  0  0  0  0  0  0  0  0  0
    7.9078   -0.4520    0.1336 C   0  0  0  0  0  0  0  0  0  0  0  0
    6.6217   -1.1352   -0.3413 C   0  0  1  0  0  0  0  0  0  0  0  0
    5.5704   -1.0421    0.7262 C   0  0  0  0  0  0  0  0  0  0  0  0
    4.3128   -0.6293    0.5463 C   0  0  0  0  0  0  0  0  0  0  0  0
    3.3492   -0.5377    1.6307 C   0  0  0  0  0  0  0  0  0  0  0  0
    2.0716   -0.1535    1.5243 C   0  0  0  0  0  0  0  0  0  0  0  0
    1.3435    0.2309    0.2694 C   0  0  0  0  0  0  0  0  0  0  0  0
    0.4030   -0.8711   -0.1297 C   0  0  0  0  0  0  0  0  0  0  0  0
   -0.9270   -0.8668   -0.0682 C   0  0  0  0  0  0  0  0  0  0  0  0
   -1.8205    0.2551    0.3757 C   0  0  0  0  0  0  0  0  0  0  0  0
   -2.6758    0.7267   -0.7645 C   0  0  0  0  0  0  0  0  0  0  0  0
   -3.9996    0.6385   -0.8802 C   0  0  0  0  0  0  0  0  0  0  0  0
   -4.9734    0.0849    0.1195 C   0  0  0  0  0  0  0  0  0  0  0  0
   -5.8997    1.1627    0.6046 C   0  0  0  0  0  0  0  0  0  0  0  0
   -7.2199    1.2337    0.4432 C   0  0  0  0  0  0  0  0  0  0  0  0
   -8.1163    0.2353   -0.2304 C   0  0  0  0  0  0  0  0  0  0  0  0
   -9.0417   -0.4020    0.7667 C   0  0  0  0  0  0  0  0  0  0  0  0
  -10.3686   -0.2985    0.8231 C   0  0  0  0  0  0  0  0  0  0  0  0
  -11.2721    0.4500   -0.1063 C   0  0  0  0  0  0  0  0  0  0  0  0
  -12.2091   -0.4875   -0.8670 C   0  0  0  0  0  0  0  0  0  0  0  0
    6.1886   -0.6560   -1.5913 O   0  0  0  0  0  0  0  0  0  0  0  0
   12.0770    0.4095   -1.0254 H   0  0  0  0  0  0  0  0  0  0  0  0
    8.7475   -0.1108   -1.8333 H   0  0  0  0  0  0  0  0  0  0  0  0
    9.2435   -1.6163   -1.1084 H   0  0  0  0  0  0  0  0  0  0  0  0
    8.2090   -0.9088    1.0790 H   0  0  0  0  0  0  0  0  0  0  0  0
    7.6971    0.5998    0.3507 H   0  0  0  0  0  0  0  0  0  0  0  0
    6.8478   -2.1975   -0.4996 H   0  0  0  0  0  0  0  0  0  0  0  0
    5.8951   -1.3387    1.7206 H   0  0  0  0  0  0  0  0  0  0  0  0
    6.0171    0.2894   -1.5099 H   0  0  0  0  0  0  0  0  0  0  0  0
    3.9814   -0.3513   -0.4484 H   0  0  0  0  0  0  0  0  0  0  0  0
    3.7152   -0.8093    2.6166 H   0  0  0  0  0  0  0  0  0  0  0  0
    1.4676   -0.1468    2.4261 H   0  0  0  0  0  0  0  0  0  0  0  0
    0.8041    1.1653    0.4369 H   0  0  0  0  0  0  0  0  0  0  0  0
    2.0438    0.4168   -0.5478 H   0  0  0  0  0  0  0  0  0  0  0  0
    0.8900   -1.7778   -0.4769 H   0  0  0  0  0  0  0  0  0  0  0  0
   -1.4485   -1.7642   -0.3887 H   0  0  0  0  0  0  0  0  0  0  0  0
   -2.4362   -0.0908    1.2089 H   0  0  0  0  0  0  0  0  0  0  0  0
   -1.2321    1.0926    0.7570 H   0  0  0  0  0  0  0  0  0  0  0  0
   -2.1265    1.1638   -1.5935 H   0  0  0  0  0  0  0  0  0  0  0  0
   -4.4521    1.0234   -1.7897 H   0  0  0  0  0  0  0  0  0  0  0  0
   -5.5350   -0.7305   -0.3423 H   0  0  0  0  0  0  0  0  0  0  0  0
   -4.4484   -0.3485    0.9735 H   0  0  0  0  0  0  0  0  0  0  0  0
   -5.4112    1.9801    1.1275 H   0  0  0  0  0  0  0  0  0  0  0  0
   -7.7324    2.0965    0.8591 H   0  0  0  0  0  0  0  0  0  0  0  0
   -8.6824    0.7365   -1.0190 H   0  0  0  0  0  0  0  0  0  0  0  0
   -7.5287   -0.5444   -0.7205 H   0  0  0  0  0  0  0  0  0  0  0  0
   -8.5468   -0.9980    1.5288 H   0  0  0  0  0  0  0  0  0  0  0  0
  -10.8765   -0.8315    1.6234 H   0  0  0  0  0  0  0  0  0  0  0  0
  -11.8747    1.1534    0.4767 H   0  0  0  0  0  0  0  0  0  0  0  0
  -10.7018    1.0509   -0.8161 H   0  0  0  0  0  0  0  0  0  0  0  0
  -12.8950    0.0744   -1.5019 H   0  0  0  0  0  0  0  0  0  0  0  0
  -11.6471   -1.1720   -1.5036 H   0  0  0  0  0  0  0  0  0  0  0  0
  -12.8090   -1.0886   -0.1823 H   0  0  0  0  0  0  0  0  0  0  0  0
  1  3  1  0
  2  3  2  0
  3  4  1  0
  4  5  1  0
  5  6  1  0
  6  7  1  0
  6 25  1  0
  7  8  2  0
  8  9  1  0
  9 10  2  0
 10 11  1  0
 11 12  1  0
 12 13  2  0
 13 14  1  0
 14 15  1  0
 15 16  2  0
 16 17  1  0
 17 18  1  0
 18 19  2  0
 19 20  1  0
 20 21  1  0
 21 22  2  0
 22 23  1  0
 23 24  1  0
  1 26  1  0
  4 27  1  0
  4 28  1  0
  5 29  1  0
  5 30  1  0
  6 31  1  6
  7 32  1  0
 25 33  1  0
  8 34  1  0
  9 35  1  0
 10 36  1  0
 11 37  1  0
 11 38  1  0
 12 39  1  0
 13 40  1  0
 14 41  1  0
 14 42  1  0
 15 43  1  0
 16 44  1  0
 17 45  1  0
 17 46  1  0
 18 47  1  0
 19 48  1  0
 20 49  1  0
 20 50  1  0
 21 51  1  0
 22 52  1  0
 23 53  1  0
 23 54  1  0
 24 55  1  0
 24 56  1  0
 24 57  1  0
M  END
