
     RDKit          3D

 28 28  0  0  0  0  0  0  0  0999 V2000
    4.2095   -1.2524   -0.9241 O   0  0  0  0  0  0  0  0  0  0  0  0
    4.0039   -0.0827   -0.0915 S   0  0  1  0  0  0  0  0  0  0  0  0
    4.8940   -0.2056    1.2337 O   0  0  0  0  0  0  0  0  0  0  0  0
    4.3141    1.2301   -0.6142 O   0  0  0  0  0  0  0  0  0  0  0  0
    2.3410   -0.1019    0.5481 C   0  0  0  0  0  0  0  0  0  0  0  0
    1.3148    0.0372   -0.5704 C   0  0  0  0  0  0  0  0  0  0  0  0
   -0.0090   -0.0226    0.0111 N   0  0  0  0  0  0  0  0  0  0  0  0
   -1.0598   -0.0009   -0.9892 C   0  0  0  0  0  0  0  0  0  0  0  0
   -2.4196   -0.1437   -0.3577 C   0  0  0  0  0  0  0  0  0  0  0  0
   -3.4540    0.6999   -0.7367 C   0  0  0  0  0  0  0  0  0  0  0  0
   -2.6557   -1.1337    0.5961 C   0  0  0  0  0  0  0  0  0  0  0  0
   -3.9194   -1.2692    1.1471 C   0  0  0  0  0  0  0  0  0  0  0  0
   -4.9595   -0.4302    0.7672 C   0  0  0  0  0  0  0  0  0  0  0  0
   -4.7253    0.5598   -0.1809 C   0  0  0  0  0  0  0  0  0  0  0  0
   -5.6838    1.4138   -0.5958 O   0  0  0  0  0  0  0  0  0  0  0  0
    2.2062   -1.0447    1.0797 H   0  0  0  0  0  0  0  0  0  0  0  0
    1.4988    0.9597   -1.1382 H   0  0  0  0  0  0  0  0  0  0  0  0
   -0.1364    0.7644    0.6373 H   0  0  0  0  0  0  0  0  0  0  0  0
   -1.0387    0.9035   -1.6145 H   0  0  0  0  0  0  0  0  0  0  0  0
   -0.8914   -0.8428   -1.6687 H   0  0  0  0  0  0  0  0  0  0  0  0
   -3.2806    1.4788   -1.4708 H   0  0  0  0  0  0  0  0  0  0  0  0
   -1.8516   -1.7891    0.9033 H   0  0  0  0  0  0  0  0  0  0  0  0
   -4.1048   -2.0393    1.8851 H   0  0  0  0  0  0  0  0  0  0  0  0
   -5.9428   -0.5469    1.2092 H   0  0  0  0  0  0  0  0  0  0  0  0
   -6.5150    1.2269   -0.1464 H   0  0  0  0  0  0  0  0  0  0  0  0
    4.9614   -1.1219    1.5477 H   0  0  0  0  0  0  0  0  0  0  0  0
    2.2690    0.7203    1.2620 H   0  0  0  0  0  0  0  0  0  0  0  0
    1.4212   -0.7954   -1.2692 H   0  0  0  0  0  0  0  0  0  0  0  0
 15 14  1  0
 13 14  2  0
 13 12  1  0
 14 10  1  0
 12 11  2  0
 10  9  2  0
 11  9  1  0
  9  8  1  0
  8  7  1  0
  7  6  1  0
  6  5  1  0
  5  2  1  0
  1  2  2  0
  2  4  2  0
  2  3  1  1
  5 16  1  0
  6 17  1  0
  7 18  1  0
  8 19  1  0
  8 20  1  0
 10 21  1  0
 11 22  1  0
 12 23  1  0
 13 24  1  0
 15 25  1  0
  3 26  1  0
  5 27  1  0
  6 28  1  0
M  END
