
     RDKit          3D

 29 30  0  0  0  0  0  0  0  0999 V2000
   -5.0703   -0.8193    0.2954 C   0  0  0  0  0  0  0  0  0  0  0  0
   -4.6463    0.4400    0.2584 N   0  0  0  0  0  0  0  0  0  0  0  0
    4.6295   -1.5118   -0.0631 Cl  0  0  0  0  0  0  0  0  0  0  0  0
   -3.3712    0.6803   -0.0333 C   0  0  0  0  0  0  0  0  0  0  0  0
   -2.9759    1.9909    0.0015 N   0  0  0  0  0  0  0  0  0  0  0  0
   -2.4476   -0.3517   -0.3160 C   0  0  0  0  0  0  0  0  0  0  0  0
   -2.9266   -1.6465   -0.2746 C   0  0  0  0  0  0  0  0  0  0  0  0
   -4.2595   -1.9054    0.0357 C   0  0  0  0  0  0  0  0  0  0  0  0
   -0.9996   -0.0663   -0.5869 C   0  0  0  0  0  0  0  0  0  0  0  0
   -0.2134    0.2262    0.7025 C   0  0  0  0  0  0  0  0  0  0  0  0
    1.2279    0.5306    0.4112 C   0  0  0  0  0  0  0  0  0  0  0  0
    1.6457    1.8353    0.1602 C   0  0  0  0  0  0  0  0  0  0  0  0
    2.9690    2.1072   -0.1548 C   0  0  0  0  0  0  0  0  0  0  0  0
    3.9025    1.0827   -0.2290 C   0  0  0  0  0  0  0  0  0  0  0  0
    3.4798   -0.2135    0.0197 C   0  0  0  0  0  0  0  0  0  0  0  0
    2.1617   -0.4997    0.3369 C   0  0  0  0  0  0  0  0  0  0  0  0
   -6.1174   -0.9615    0.5416 H   0  0  0  0  0  0  0  0  0  0  0  0
   -3.7258    2.6630   -0.0285 H   0  0  0  0  0  0  0  0  0  0  0  0
   -2.1864    2.2579   -0.5626 H   0  0  0  0  0  0  0  0  0  0  0  0
   -2.2497   -2.4670   -0.4839 H   0  0  0  0  0  0  0  0  0  0  0  0
   -4.6476   -2.9134    0.0740 H   0  0  0  0  0  0  0  0  0  0  0  0
   -0.5509   -0.9275   -1.0872 H   0  0  0  0  0  0  0  0  0  0  0  0
   -0.8818    0.7704   -1.2831 H   0  0  0  0  0  0  0  0  0  0  0  0
   -0.6688    1.0664    1.2317 H   0  0  0  0  0  0  0  0  0  0  0  0
   -0.2893   -0.6404    1.3624 H   0  0  0  0  0  0  0  0  0  0  0  0
    0.9300    2.6467    0.2172 H   0  0  0  0  0  0  0  0  0  0  0  0
    3.2827    3.1255   -0.3440 H   0  0  0  0  0  0  0  0  0  0  0  0
    4.9354    1.2920   -0.4712 H   0  0  0  0  0  0  0  0  0  0  0  0
    1.8588   -1.5211    0.5311 H   0  0  0  0  0  0  0  0  0  0  0  0
  8  1  2  0
  2  1  1  0
  1 17  1  0
  4  2  2  0
  3 15  1  0
  6  4  1  0
  5  4  1  0
  5 18  1  0
  5 19  1  0
  9  6  1  0
  6  7  2  0
  7  8  1  0
  7 20  1  0
  8 21  1  0
 10  9  1  0
  9 22  1  0
  9 23  1  0
 11 10  1  0
 10 24  1  0
 10 25  1  0
 16 11  1  0
 11 12  2  0
 13 12  1  0
 12 26  1  0
 14 13  2  0
 13 27  1  0
 15 14  1  0
 14 28  1  0
 15 16  2  0
 16 29  1  0
M  END
