
     RDKit          3D

 18 18  0  0  0  0  0  0  0  0999 V2000
    2.1540   -0.1798   -0.3799 O   0  0  0  0  0  0  0  0  0  0  0  0
    1.4124    0.0929    0.7936 C   0  0  0  0  0  0  0  0  0  0  0  0
   -0.0401    0.0646    0.4157 C   0  0  0  0  0  0  0  0  0  0  0  0
   -0.6966   -1.1514    0.2388 C   0  0  0  0  0  0  0  0  0  0  0  0
   -2.0293   -1.1860   -0.1457 C   0  0  0  0  0  0  0  0  0  0  0  0
   -2.7229   -0.0007   -0.3600 C   0  0  0  0  0  0  0  0  0  0  0  0
   -2.0774    1.2160   -0.1876 C   0  0  0  0  0  0  0  0  0  0  0  0
   -0.7420    1.2453    0.1949 C   0  0  0  0  0  0  0  0  0  0  0  0
    3.5308   -0.1853   -0.0703 N   0  0  0  0  0  0  0  0  0  0  0  0
    1.6207   -0.6573    1.5654 H   0  0  0  0  0  0  0  0  0  0  0  0
    1.6794    1.0726    1.2060 H   0  0  0  0  0  0  0  0  0  0  0  0
   -0.1642   -2.0795    0.4109 H   0  0  0  0  0  0  0  0  0  0  0  0
   -2.5286   -2.1374   -0.2770 H   0  0  0  0  0  0  0  0  0  0  0  0
   -3.7635   -0.0269   -0.6572 H   0  0  0  0  0  0  0  0  0  0  0  0
   -2.6113    2.1432   -0.3513 H   0  0  0  0  0  0  0  0  0  0  0  0
   -0.2431    2.1979    0.3296 H   0  0  0  0  0  0  0  0  0  0  0  0
    3.8591   -1.1037   -0.3515 H   0  0  0  0  0  0  0  0  0  0  0  0
    3.9462    0.4660   -0.7284 H   0  0  0  0  0  0  0  0  0  0  0  0
  1  2  1  0
  2  3  1  0
  3  4  2  0
  3  8  1  0
  4  5  1  0
  5  6  2  0
  6  7  1  0
  7  8  2  0
  1  9  1  0
  2 10  1  0
  2 11  1  0
  4 12  1  0
  5 13  1  0
  6 14  1  0
  7 15  1  0
  8 16  1  0
  9 17  1  0
  9 18  1  0
M  END
