
     RDKit          3D

 51 54  0  0  0  0  0  0  0  0999 V2000
   -6.8518    2.2065    2.7054 C   0  0  0  0  0  0  0  0  0  0  0  0
   -6.8245    2.0335    1.1981 C   0  0  0  0  0  0  0  0  0  0  0  0
   -5.9511    0.9334    0.8384 N   0  0  0  0  0  0  0  0  0  0  0  0
   -5.6266    0.6980   -0.4605 C   0  0  0  0  0  0  0  0  0  0  0  0
   -5.9233    1.4980   -1.3434 O   0  0  0  0  0  0  0  0  0  0  0  0
   -4.9681   -0.4751   -0.7373 N   0  0  0  0  0  0  0  0  0  0  0  0
   -4.3890   -0.6367   -2.0602 C   0  0  0  0  0  0  0  0  0  0  0  0
   -2.9303   -0.1914   -2.0902 C   0  0  0  0  0  0  0  0  0  0  0  0
   -2.1188   -0.9288   -1.0287 C   0  0  2  0  0  0  0  0  0  0  0  0
   -2.7894   -0.8076    0.3421 C   0  0  0  0  0  0  0  0  0  0  0  0
   -4.2452   -1.2504    0.2581 C   0  0  0  0  0  0  0  0  0  0  0  0
   -0.7604   -0.4335   -1.0259 N   0  0  0  0  0  0  0  0  0  0  0  0
    0.2970   -1.1033   -0.5291 C   0  0  0  0  0  0  0  0  0  0  0  0
    1.4484   -0.4317   -0.4675 N   0  0  0  0  0  0  0  0  0  0  0  0
    2.5379   -1.0381   -0.0083 C   0  0  0  0  0  0  0  0  0  0  0  0
    2.4348   -2.3763    0.4098 C   0  0  0  0  0  0  0  0  0  0  0  0
    1.2000   -2.9875    0.3035 C   0  0  0  0  0  0  0  0  0  0  0  0
    0.1260   -2.3773   -0.1619 N   0  0  0  0  0  0  0  0  0  0  0  0
    3.7386   -3.2762    1.1014 Cl  0  0  0  0  0  0  0  0  0  0  0  0
    3.7428   -0.2290    0.0360 C   0  0  0  0  0  0  0  0  0  0  0  0
    3.7889    1.2140    0.0691 C   0  0  0  0  0  0  0  0  0  0  0  0
    2.8314    2.2344    0.1308 C   0  0  0  0  0  0  0  0  0  0  0  0
    3.2557    3.5482    0.1846 C   0  0  0  0  0  0  0  0  0  0  0  0
    4.6196    3.8785    0.1756 C   0  0  0  0  0  0  0  0  0  0  0  0
    5.5871    2.8952    0.1174 C   0  0  0  0  0  0  0  0  0  0  0  0
    5.1517    1.5735    0.0669 C   0  0  0  0  0  0  0  0  0  0  0  0
    5.8818    0.4169    0.0141 N   0  0  0  0  0  0  0  0  0  0  0  0
    5.0556   -0.6498    0.0005 C   0  0  0  0  0  0  0  0  0  0  0  0
   -7.5175    3.0252    2.9758 H   0  0  0  0  0  0  0  0  0  0  0  0
   -7.2163    1.3071    3.2051 H   0  0  0  0  0  0  0  0  0  0  0  0
   -5.8596    2.4335    3.0964 H   0  0  0  0  0  0  0  0  0  0  0  0
   -7.8416    1.8696    0.8266 H   0  0  0  0  0  0  0  0  0  0  0  0
   -6.4598    2.9468    0.7289 H   0  0  0  0  0  0  0  0  0  0  0  0
   -5.9255    0.1738    1.4971 H   0  0  0  0  0  0  0  0  0  0  0  0
   -4.4554   -1.6955   -2.3283 H   0  0  0  0  0  0  0  0  0  0  0  0
   -4.9732   -0.0864   -2.7914 H   0  0  0  0  0  0  0  0  0  0  0  0
   -2.5113   -0.3826   -3.0807 H   0  0  0  0  0  0  0  0  0  0  0  0
   -2.8776    0.8892   -1.9175 H   0  0  0  0  0  0  0  0  0  0  0  0
   -2.0862   -1.9883   -1.2984 H   0  0  0  0  0  0  0  0  0  0  0  0
   -2.2591   -1.4206    1.0738 H   0  0  0  0  0  0  0  0  0  0  0  0
   -2.7399    0.2303    0.6855 H   0  0  0  0  0  0  0  0  0  0  0  0
   -4.7187   -1.2090    1.2360 H   0  0  0  0  0  0  0  0  0  0  0  0
   -4.2954   -2.3013   -0.0419 H   0  0  0  0  0  0  0  0  0  0  0  0
   -0.6175    0.5508   -1.1910 H   0  0  0  0  0  0  0  0  0  0  0  0
    1.0793   -4.0185    0.6200 H   0  0  0  0  0  0  0  0  0  0  0  0
    1.7771    1.9999    0.1263 H   0  0  0  0  0  0  0  0  0  0  0  0
    2.5211    4.3415    0.2307 H   0  0  0  0  0  0  0  0  0  0  0  0
    4.9167    4.9185    0.2146 H   0  0  0  0  0  0  0  0  0  0  0  0
    6.6418    3.1388    0.1140 H   0  0  0  0  0  0  0  0  0  0  0  0
    6.8865    0.3585   -0.0196 H   0  0  0  0  0  0  0  0  0  0  0  0
    5.4667   -1.6420   -0.0671 H   0  0  0  0  0  0  0  0  0  0  0  0
  5  4  2  0
  2  3  1  0
  2  1  1  0
  4  3  1  0
  4  6  1  0
  7  6  1  0
  7  8  1  0
  6 11  1  0
  8  9  1  0
 11 10  1  0
 24 23  1  0
 24 25  2  0
 23 22  2  0
 25 26  1  0
  9 10  1  0
  9 12  1  0
 22 21  1  0
 26 21  2  0
 26 27  1  0
 21 20  1  0
 12 13  1  0
 27 28  1  0
 14 13  2  0
 14 15  1  0
 20 28  2  0
 20 15  1  0
 13 18  1  0
 15 16  2  0
 18 17  2  0
 16 17  1  0
 16 19  1  0
  1 29  1  0
  1 30  1  0
  1 31  1  0
  2 32  1  0
  2 33  1  0
  3 34  1  0
  7 35  1  0
  7 36  1  0
  8 37  1  0
  8 38  1  0
  9 39  1  6
 10 40  1  0
 10 41  1  0
 11 42  1  0
 11 43  1  0
 12 44  1  0
 17 45  1  0
 22 46  1  0
 23 47  1  0
 24 48  1  0
 25 49  1  0
 27 50  1  0
 28 51  1  0
M  END
