
     RDKit          3D

 22 23  0  0  0  0  0  0  0  0999 V2000
   -2.7874    0.0318   -0.0002 N   0  0  0  0  0  0  0  0  0  0  0  0
   -2.1209    1.2564    0.0076 C   0  0  0  0  0  0  0  0  0  0  0  0
   -0.7679    1.1981    0.0085 N   0  0  0  0  0  0  0  0  0  0  0  0
   -0.1915    0.0181    0.0005 C   0  0  0  0  0  0  0  0  0  0  0  0
   -0.8031   -1.1712   -0.0077 N   0  0  0  0  0  0  0  0  0  0  0  0
   -2.1223   -1.1419   -0.0080 C   0  0  0  0  0  0  0  0  0  0  0  0
   -2.8119   -2.2705   -0.0175 N   0  0  0  0  0  0  0  0  0  0  0  0
   -2.7643    2.2891    0.0127 O   0  0  0  0  0  0  0  0  0  0  0  0
    4.0766   -0.0631    0.0040 C   0  0  0  0  0  0  0  0  0  0  0  0
    3.4018    1.1517    0.0078 C   0  0  0  0  0  0  0  0  0  0  0  0
    2.0164    1.1773    0.0063 C   0  0  0  0  0  0  0  0  0  0  0  0
    1.2883   -0.0130    0.0009 C   0  0  0  0  0  0  0  0  0  0  0  0
    1.9730   -1.2286   -0.0030 C   0  0  0  0  0  0  0  0  0  0  0  0
    3.3591   -1.2524   -0.0014 C   0  0  0  0  0  0  0  0  0  0  0  0
   -2.3197   -3.1481   -0.0196 H   0  0  0  0  0  0  0  0  0  0  0  0
   -3.8178   -2.2901   -0.0091 H   0  0  0  0  0  0  0  0  0  0  0  0
    3.9572    2.0803    0.0124 H   0  0  0  0  0  0  0  0  0  0  0  0
    1.4910    2.1225    0.0103 H   0  0  0  0  0  0  0  0  0  0  0  0
    1.4161   -2.1554   -0.0070 H   0  0  0  0  0  0  0  0  0  0  0  0
    3.8804   -2.2006   -0.0045 H   0  0  0  0  0  0  0  0  0  0  0  0
   -3.7991    0.0462   -0.0006 H   0  0  0  0  0  0  0  0  0  0  0  0
    5.1586   -0.0826    0.0048 H   0  0  0  0  0  0  0  0  0  0  0  0
  9 10  2  0
  9 14  1  0
 10 11  1  0
 14 13  2  0
 11 12  2  0
 13 12  1  0
 12  4  1  0
  4  3  2  0
  4  5  1  0
  3  2  1  0
  5  6  2  0
  2  8  2  0
  2  1  1  0
  6  1  1  0
  6  7  1  0
  7 15  1  0
  7 16  1  0
  9 22  1  0
 10 17  1  0
 11 18  1  0
 13 19  1  0
 14 20  1  0
  1 21  1  0
M  END
