
     RDKit          3D

 20 20  0  0  0  0  0  0  0  0999 V2000
    3.1244    1.2254   -0.0916 C   0  0  0  0  0  0  0  0  0  0  0  0
    2.1798    0.1407    0.0748 C   0  0  0  0  0  0  0  0  0  0  0  0
    2.3001   -1.1034    0.6214 C   0  0  0  0  0  0  0  0  0  0  0  0
    1.0276   -1.7080    0.5014 C   0  0  0  0  0  0  0  0  0  0  0  0
    0.2270   -0.7913   -0.1106 C   0  0  0  0  0  0  0  0  0  0  0  0
   -1.1930   -0.8486   -0.5229 C   0  0  0  0  0  0  0  0  0  0  0  0
   -3.2142    0.2300    0.0322 C   0  0  0  0  0  0  0  0  0  0  0  0
   -3.8353    1.3198    0.8516 C   0  0  0  0  0  0  0  0  0  0  0  0
    0.9163    0.3260   -0.3742 O   0  0  0  0  0  0  0  0  0  0  0  0
   -1.9048    0.1218    0.2515 O   0  0  0  0  0  0  0  0  0  0  0  0
   -3.8062   -0.4620   -0.7569 O   0  0  0  0  0  0  0  0  0  0  0  0
    2.7205    2.1259   -0.5824 H   0  0  0  0  0  0  0  0  0  0  0  0
    3.1909   -1.5272    1.0556 H   0  0  0  0  0  0  0  0  0  0  0  0
    0.7336   -2.6927    0.8261 H   0  0  0  0  0  0  0  0  0  0  0  0
   -1.3004   -0.6347   -1.5895 H   0  0  0  0  0  0  0  0  0  0  0  0
   -1.5731   -1.8543   -0.3379 H   0  0  0  0  0  0  0  0  0  0  0  0
   -3.2647    1.5470    1.7486 H   0  0  0  0  0  0  0  0  0  0  0  0
   -3.8882    2.2275    0.2470 H   0  0  0  0  0  0  0  0  0  0  0  0
   -4.8521    1.0460    1.1233 H   0  0  0  0  0  0  0  0  0  0  0  0
    4.2768    1.1589    0.2765 O   0  0  0  0  0  0  0  0  0  0  0  0
  1  2  1  0
  2  3  2  0
  2  9  1  0
  3  4  1  0
  9  5  1  0
  4  5  2  0
 11  7  2  0
  5  6  1  0
 10  7  1  0
 10  6  1  0
  7  8  1  0
  1 12  1  0
  3 13  1  0
  4 14  1  0
  6 15  1  0
  6 16  1  0
  8 17  1  0
  8 18  1  0
  8 19  1  0
  1 20  2  0
M  END
