
     RDKit          3D

 20 20  0  0  0  0  0  0  0  0999 V2000
    0.7978    0.5642   -2.4175 O   0  0  0  0  0  0  0  0  0  0  0  0
    0.0738   -0.3756   -1.6647 C   0  0  0  0  0  0  0  0  0  0  0  0
    0.6268   -0.4034   -0.1880 C   0  0  2  0  0  0  0  0  0  0  0  0
    2.0794   -0.4850   -0.1855 O   0  0  0  0  0  0  0  0  0  0  0  0
    0.0951   -1.4507    0.4887 C   0  0  0  0  0  0  0  0  0  0  0  0
   -1.2285   -0.8833    1.2020 O   0  0  0  0  0  0  0  0  0  0  0  0
   -0.9329    0.3470    1.5771 C   0  0  2  0  0  0  0  0  0  0  0  0
   -2.0549    1.1595    1.4958 O   0  0  0  0  0  0  0  0  0  0  0  0
    0.1737    0.8418    0.5685 C   0  0  2  0  0  0  0  0  0  0  0  0
   -0.3527    1.7525   -0.2956 O   0  0  0  0  0  0  0  0  0  0  0  0
    0.6500    0.4215   -3.3132 H   0  0  0  0  0  0  0  0  0  0  0  0
    0.1870   -1.3707   -2.1162 H   0  0  0  0  0  0  0  0  0  0  0  0
   -0.9654   -0.1021   -1.6514 H   0  0  0  0  0  0  0  0  0  0  0  0
    2.3493   -1.3404   -0.4781 H   0  0  0  0  0  0  0  0  0  0  0  0
    0.7938   -1.8038    1.2302 H   0  0  0  0  0  0  0  0  0  0  0  0
   -0.1691   -2.2599   -0.2124 H   0  0  0  0  0  0  0  0  0  0  0  0
   -0.5486    0.3418    2.5659 H   0  0  0  0  0  0  0  0  0  0  0  0
   -2.4844    1.1852    2.3306 H   0  0  0  0  0  0  0  0  0  0  0  0
    1.0058    1.2699    1.1105 H   0  0  0  0  0  0  0  0  0  0  0  0
   -0.0961    2.5915   -0.0467 H   0  0  0  0  0  0  0  0  0  0  0  0
  8  7  1  0
  5  6  1  0
  5  3  1  0
  3  4  1  6
  6  7  1  0
  7  9  1  0
  3  9  1  0
  3  2  1  0
  1  2  1  0
  9 10  1  0
  1 11  1  0
  2 12  1  0
  2 13  1  0
  4 14  1  0
  5 15  1  0
  5 16  1  0
  7 17  1  1
  8 18  1  0
  9 19  1  1
 10 20  1  0
M  END
