
     RDKit          3D

 17 16  0  0  0  0  0  0  0  0999 V2000
   -0.0155    3.0811    0.7078 C   0  0  0  0  0  0  0  0  0  0  0  0
   -0.0063    2.0854    1.8437 C   0  0  0  0  0  0  0  0  0  0  0  0
   -0.0101   -0.0236    1.1163 Pb  0  0  1  0  0  0  0  0  0  0  0  0
    0.0049   -2.1342    1.8396 C   0  0  0  0  0  0  0  0  0  0  0  0
   -0.0089   -3.1279    0.7022 C   0  0  0  0  0  0  0  0  0  0  0  0
   -2.0323   -0.0252   -0.6138 Br  0  0  0  0  0  0  0  0  0  0  0  0
    0.8879    2.1479    2.4628 H   0  0  0  0  0  0  0  0  0  0  0  0
   -0.8885    2.1482    2.4789 H   0  0  0  0  0  0  0  0  0  0  0  0
    0.9026   -2.1940    2.4534 H   0  0  0  0  0  0  0  0  0  0  0  0
   -0.8729   -2.2000    2.4806 H   0  0  0  0  0  0  0  0  0  0  0  0
    1.9722   -0.0197   -0.6580 Br  0  0  0  0  0  0  0  0  0  0  0  0
    0.8633    2.9870    0.0715 H   0  0  0  0  0  0  0  0  0  0  0  0
   -0.9031    2.9858    0.0839 H   0  0  0  0  0  0  0  0  0  0  0  0
   -0.0136    4.0913    1.1234 H   0  0  0  0  0  0  0  0  0  0  0  0
   -0.9029   -3.0361    0.0871 H   0  0  0  0  0  0  0  0  0  0  0  0
    0.8636   -3.0274    0.0583 H   0  0  0  0  0  0  0  0  0  0  0  0
    0.0031   -4.1388    1.1158 H   0  0  0  0  0  0  0  0  0  0  0  0
  1  2  1  0
  2  3  1  0
  2  7  1  0
  2  8  1  0
  3  4  1  0
  3  6  1  6
  4  5  1  0
  4  9  1  0
  4 10  1  0
  3 11  1  0
  1 12  1  0
  1 13  1  0
  1 14  1  0
  5 15  1  0
  5 16  1  0
  5 17  1  0
M  END
