
     RDKit          3D

 47 50  0  0  0  0  0  0  0  0999 V2000
   -0.3106    1.0829   -2.7804 C   0  0  0  0  0  0  0  0  0  0  0  0
   -0.7252    1.1470   -4.0767 C   0  0  0  0  0  0  0  0  0  0  0  0
   -0.2299    0.2475   -5.0316 C   0  0  0  0  0  0  0  0  0  0  0  0
    0.6726   -0.7135   -4.6901 C   0  0  0  0  0  0  0  0  0  0  0  0
    1.1178   -0.8068   -3.3556 C   0  0  0  0  0  0  0  0  0  0  0  0
    2.0071   -1.7833   -3.0367 N   0  0  0  0  0  0  0  0  0  0  0  0
    2.3729   -1.8261   -1.7868 C   0  0  0  0  0  0  0  0  0  0  0  0
    1.9931   -1.0239   -0.7883 N   0  0  0  0  0  0  0  0  0  0  0  0
    1.1332   -0.0565   -1.0599 C   0  0  0  0  0  0  0  0  0  0  0  0
    0.6252    0.1040   -2.3999 C   0  0  0  0  0  0  0  0  0  0  0  0
    0.7448    0.7579   -0.0772 N   0  0  0  0  0  0  0  0  0  0  0  0
    1.1628    0.6548    1.3083 C   0  0  2  0  0  0  0  0  0  0  0  0
   -1.1725   -0.2571    1.8096 C   0  0  0  0  0  0  0  0  0  0  0  0
   -0.0841    0.7183    2.2081 C   0  0  1  0  0  0  0  0  0  0  0  0
   -0.9009   -1.5501    1.3675 C   0  0  0  0  0  0  0  0  0  0  0  0
   -1.9326   -2.4250    1.0553 C   0  0  0  0  0  0  0  0  0  0  0  0
   -3.2560   -2.0241    1.1810 C   0  0  0  0  0  0  0  0  0  0  0  0
   -3.5386   -0.7372    1.6181 C   0  0  0  0  0  0  0  0  0  0  0  0
   -2.5037    0.1351    1.9266 C   0  0  0  0  0  0  0  0  0  0  0  0
    0.2702    0.5494    3.6703 C   0  0  0  0  0  0  0  0  0  0  0  0
   -0.0217    1.5602    4.5808 C   0  0  0  0  0  0  0  0  0  0  0  0
    0.2794    1.4154    5.9296 C   0  0  0  0  0  0  0  0  0  0  0  0
    0.8837    0.2530    6.3856 C   0  0  0  0  0  0  0  0  0  0  0  0
    1.1813   -0.7623    5.4842 C   0  0  0  0  0  0  0  0  0  0  0  0
    0.8747   -0.6158    4.1395 C   0  0  0  0  0  0  0  0  0  0  0  0
   -1.6137    2.0620   -4.4697 F   0  0  0  0  0  0  0  0  0  0  0  0
   -0.6711    0.3550   -6.2835 F   0  0  0  0  0  0  0  0  0  0  0  0
    2.1628    1.7524    1.6511 C   0  0  0  0  0  0  0  0  0  0  0  0
   -0.7264    1.7967   -2.0810 H   0  0  0  0  0  0  0  0  0  0  0  0
    1.0480   -1.4085   -5.4298 H   0  0  0  0  0  0  0  0  0  0  0  0
    3.0781   -2.6046   -1.5121 H   0  0  0  0  0  0  0  0  0  0  0  0
    0.1371    1.5291   -0.2988 H   0  0  0  0  0  0  0  0  0  0  0  0
    1.6572   -0.3092    1.4159 H   0  0  0  0  0  0  0  0  0  0  0  0
   -0.4979    1.7272    2.0965 H   0  0  0  0  0  0  0  0  0  0  0  0
    0.1200   -1.8925    1.2518 H   0  0  0  0  0  0  0  0  0  0  0  0
   -1.6974   -3.4237    0.7099 H   0  0  0  0  0  0  0  0  0  0  0  0
   -4.0595   -2.7073    0.9373 H   0  0  0  0  0  0  0  0  0  0  0  0
   -4.5654   -0.4092    1.7172 H   0  0  0  0  0  0  0  0  0  0  0  0
   -2.7349    1.1388    2.2648 H   0  0  0  0  0  0  0  0  0  0  0  0
   -0.4904    2.4726    4.2306 H   0  0  0  0  0  0  0  0  0  0  0  0
    0.0409    2.2124    6.6222 H   0  0  0  0  0  0  0  0  0  0  0  0
    1.1199    0.1361    7.4353 H   0  0  0  0  0  0  0  0  0  0  0  0
    1.6509   -1.6738    5.8310 H   0  0  0  0  0  0  0  0  0  0  0  0
    1.1037   -1.4259    3.4576 H   0  0  0  0  0  0  0  0  0  0  0  0
    1.7060    2.7407    1.5684 H   0  0  0  0  0  0  0  0  0  0  0  0
    2.5328    1.6384    2.6693 H   0  0  0  0  0  0  0  0  0  0  0  0
    3.0172    1.7127    0.9759 H   0  0  0  0  0  0  0  0  0  0  0  0
  1  2  2  0
  1 10  1  0
  1 29  1  0
  2  3  1  0
  2 26  1  0
  3  4  2  0
  3 27  1  0
  4  5  1  0
  4 30  1  0
  5  6  1  0
  5 10  2  0
  6  7  2  0
  7  8  1  0
  7 31  1  0
  8  9  2  0
  9 10  1  0
  9 11  1  0
 11 12  1  0
 11 32  1  0
 12 14  1  0
 12 28  1  0
 12 33  1  6
 13 14  1  0
 13 15  2  0
 13 19  1  0
 14 20  1  0
 14 34  1  1
 15 16  1  0
 15 35  1  0
 16 17  2  0
 16 36  1  0
 17 18  1  0
 17 37  1  0
 18 19  2  0
 18 38  1  0
 19 39  1  0
 20 21  2  0
 20 25  1  0
 21 22  1  0
 21 40  1  0
 22 23  2  0
 22 41  1  0
 23 24  1  0
 23 42  1  0
 24 25  2  0
 24 43  1  0
 25 44  1  0
 28 45  1  0
 28 46  1  0
 28 47  1  0
M  END
