
     RDKit          3D

105105  0  0  0  0  0  0  0  0999 V2000
   17.3530   -1.9910    1.1409 C   0  0  0  0  0  0  0  0  0  0  0  0
   16.2729   -0.9181    1.1631 C   0  0  0  0  0  0  0  0  0  0  0  0
   14.9283   -1.4214    0.6534 C   0  0  0  0  0  0  0  0  0  0  0  0
   13.8345   -0.3604    0.6682 C   0  0  0  0  0  0  0  0  0  0  0  0
   12.4836   -0.8911    0.2060 C   0  0  0  0  0  0  0  0  0  0  0  0
   11.3756    0.1555    0.2118 C   0  0  0  0  0  0  0  0  0  0  0  0
   10.0152   -0.4267   -0.1507 C   0  0  0  0  0  0  0  0  0  0  0  0
    8.8837    0.5943   -0.1578 C   0  0  0  0  0  0  0  0  0  0  0  0
    7.5235   -0.0428   -0.4149 C   0  0  0  0  0  0  0  0  0  0  0  0
    6.3680    0.9503   -0.4350 C   0  0  0  0  0  0  0  0  0  0  0  0
    5.0160    0.2734   -0.6237 C   0  0  0  0  0  0  0  0  0  0  0  0
    3.8419    1.2436   -0.6614 C   0  0  0  0  0  0  0  0  0  0  0  0
    2.5002    0.5341   -0.7978 C   0  0  0  0  0  0  0  0  0  0  0  0
    1.3223    1.4997   -0.8674 C   0  0  0  0  0  0  0  0  0  0  0  0
   -0.0201    0.7872   -1.0213 C   0  0  1  0  0  0  0  0  0  0  0  0
   -0.2329   -0.1186    0.0438 O   0  0  0  0  0  0  0  0  0  0  0  0
   -1.2067    1.7697   -1.1491 C   0  0  1  0  0  0  0  0  0  0  0  0
   -0.8884    2.8871   -1.9455 O   0  0  0  0  0  0  0  0  0  0  0  0
   -2.4819    1.1040   -1.7054 C   0  0  1  0  0  0  0  0  0  0  0  0
   -2.9124    0.0107   -0.8657 N   0  0  0  0  0  0  0  0  0  0  0  0
   -3.4806   -1.1192   -1.3222 C   0  0  0  0  0  0  0  0  0  0  0  0
   -3.6673   -1.3359   -2.5117 O   0  0  0  0  0  0  0  0  0  0  0  0
   -3.8385   -2.1119   -0.2347 C   0  0  0  0  0  0  0  0  0  0  0  0
   -4.6709   -3.2903   -0.7079 C   0  0  0  0  0  0  0  0  0  0  0  0
   -5.0624   -4.2046    0.4466 C   0  0  0  0  0  0  0  0  0  0  0  0
   -5.9187   -5.3872    0.0130 C   0  0  0  0  0  0  0  0  0  0  0  0
   -6.3371   -6.2804    1.1743 C   0  0  0  0  0  0  0  0  0  0  0  0
   -7.2011   -7.4619    0.7512 C   0  0  0  0  0  0  0  0  0  0  0  0
   -7.6164   -8.3406    1.9232 C   0  0  0  0  0  0  0  0  0  0  0  0
   -3.6257    2.0914   -1.9024 C   0  0  0  0  0  0  0  0  0  0  0  0
   -3.9278    2.6786   -0.6533 O   0  0  0  0  0  0  0  0  0  0  0  0
   -5.2022    3.2197   -0.5493 C   0  0  1  0  0  0  0  0  0  0  0  0
   -6.2050    2.2421   -0.5891 O   0  0  0  0  0  0  0  0  0  0  0  0
   -6.1373    1.2910    0.4610 C   0  0  2  0  0  0  0  0  0  0  0  0
   -7.1992    0.2416    0.2152 C   0  0  0  0  0  0  0  0  0  0  0  0
   -6.8706   -0.4520   -0.9654 O   0  0  0  0  0  0  0  0  0  0  0  0
   -6.2724    1.9617    1.8204 C   0  0  2  0  0  0  0  0  0  0  0  0
   -7.5685    2.4958    1.9428 O   0  0  0  0  0  0  0  0  0  0  0  0
   -5.2004    3.0428    1.9468 C   0  0  2  0  0  0  0  0  0  0  0  0
   -5.4019    3.7034    3.1739 O   0  0  0  0  0  0  0  0  0  0  0  0
   -5.2892    4.0009    0.7653 C   0  0  1  0  0  0  0  0  0  0  0  0
   -4.2643    4.9547    0.8954 O   0  0  0  0  0  0  0  0  0  0  0  0
   17.0644   -2.8517    1.7477 H   0  0  0  0  0  0  0  0  0  0  0  0
   17.5325   -2.3514    0.1264 H   0  0  0  0  0  0  0  0  0  0  0  0
   18.3006   -1.6168    1.5300 H   0  0  0  0  0  0  0  0  0  0  0  0
   16.1545   -0.5414    2.1839 H   0  0  0  0  0  0  0  0  0  0  0  0
   16.5928   -0.0619    0.5609 H   0  0  0  0  0  0  0  0  0  0  0  0
   15.0471   -1.8043   -0.3663 H   0  0  0  0  0  0  0  0  0  0  0  0
   14.6101   -2.2767    1.2604 H   0  0  0  0  0  0  0  0  0  0  0  0
   13.7361    0.0440    1.6818 H   0  0  0  0  0  0  0  0  0  0  0  0
   14.1359    0.4818    0.0354 H   0  0  0  0  0  0  0  0  0  0  0  0
   12.5806   -1.3076   -0.8028 H   0  0  0  0  0  0  0  0  0  0  0  0
   12.1889   -1.7282    0.8491 H   0  0  0  0  0  0  0  0  0  0  0  0
   11.3175    0.6175    1.2039 H   0  0  0  0  0  0  0  0  0  0  0  0
   11.6302    0.9625   -0.4838 H   0  0  0  0  0  0  0  0  0  0  0  0
   10.0729   -0.9076   -1.1337 H   0  0  0  0  0  0  0  0  0  0  0  0
    9.7716   -1.2244    0.5600 H   0  0  0  0  0  0  0  0  0  0  0  0
    8.8610    1.1199    0.8036 H   0  0  0  0  0  0  0  0  0  0  0  0
    9.0815    1.3581   -0.9175 H   0  0  0  0  0  0  0  0  0  0  0  0
    7.5489   -0.5854   -1.3668 H   0  0  0  0  0  0  0  0  0  0  0  0
    7.3346   -0.7975    0.3567 H   0  0  0  0  0  0  0  0  0  0  0  0
    6.3612    1.5207    0.5008 H   0  0  0  0  0  0  0  0  0  0  0  0
    6.5266    1.6816   -1.2352 H   0  0  0  0  0  0  0  0  0  0  0  0
    5.0285   -0.3129   -1.5497 H   0  0  0  0  0  0  0  0  0  0  0  0
    4.8614   -0.4475    0.1869 H   0  0  0  0  0  0  0  0  0  0  0  0
    3.8413    1.8509    0.2509 H   0  0  0  0  0  0  0  0  0  0  0  0
    3.9746    1.9453   -1.4923 H   0  0  0  0  0  0  0  0  0  0  0  0
    2.5085   -0.0872   -1.7009 H   0  0  0  0  0  0  0  0  0  0  0  0
    2.3760   -0.1537    0.0430 H   0  0  0  0  0  0  0  0  0  0  0  0
    1.3000    2.1253    0.0349 H   0  0  0  0  0  0  0  0  0  0  0  0
    1.4775    2.1840   -1.7036 H   0  0  0  0  0  0  0  0  0  0  0  0
    0.0172    0.1692   -1.9284 H   0  0  0  0  0  0  0  0  0  0  0  0
   -0.1111    0.3625    0.8700 H   0  0  0  0  0  0  0  0  0  0  0  0
   -1.4145    2.1748   -0.1516 H   0  0  0  0  0  0  0  0  0  0  0  0
   -0.6583    2.5848   -2.8313 H   0  0  0  0  0  0  0  0  0  0  0  0
   -2.2404    0.6929   -2.6916 H   0  0  0  0  0  0  0  0  0  0  0  0
   -2.7774    0.1020    0.1272 H   0  0  0  0  0  0  0  0  0  0  0  0
   -2.9052   -2.4650    0.2178 H   0  0  0  0  0  0  0  0  0  0  0  0
   -4.3691   -1.5828    0.5631 H   0  0  0  0  0  0  0  0  0  0  0  0
   -5.5747   -2.9211   -1.1983 H   0  0  0  0  0  0  0  0  0  0  0  0
   -4.1201   -3.8641   -1.4577 H   0  0  0  0  0  0  0  0  0  0  0  0
   -4.1596   -4.5736    0.9460 H   0  0  0  0  0  0  0  0  0  0  0  0
   -5.6064   -3.6213    1.1983 H   0  0  0  0  0  0  0  0  0  0  0  0
   -6.8132   -5.0173   -0.5008 H   0  0  0  0  0  0  0  0  0  0  0  0
   -5.3710   -5.9843   -0.7245 H   0  0  0  0  0  0  0  0  0  0  0  0
   -5.4428   -6.6526    1.6867 H   0  0  0  0  0  0  0  0  0  0  0  0
   -6.8805   -5.6804    1.9132 H   0  0  0  0  0  0  0  0  0  0  0  0
   -8.0937   -7.0923    0.2368 H   0  0  0  0  0  0  0  0  0  0  0  0
   -6.6567   -8.0651    0.0178 H   0  0  0  0  0  0  0  0  0  0  0  0
   -6.7451   -8.7535    2.4353 H   0  0  0  0  0  0  0  0  0  0  0  0
   -8.1897   -7.7725    2.6581 H   0  0  0  0  0  0  0  0  0  0  0  0
   -8.2349   -9.1783    1.5983 H   0  0  0  0  0  0  0  0  0  0  0  0
   -3.3623    2.8615   -2.6356 H   0  0  0  0  0  0  0  0  0  0  0  0
   -4.4814    1.5370   -2.2989 H   0  0  0  0  0  0  0  0  0  0  0  0
   -5.4165    3.8849   -1.3983 H   0  0  0  0  0  0  0  0  0  0  0  0
   -5.1660    0.7803    0.4491 H   0  0  0  0  0  0  0  0  0  0  0  0
   -7.2168   -0.4254    1.0871 H   0  0  0  0  0  0  0  0  0  0  0  0
   -8.1881    0.7104    0.1477 H   0  0  0  0  0  0  0  0  0  0  0  0
   -7.5165   -1.1529   -1.0886 H   0  0  0  0  0  0  0  0  0  0  0  0
   -6.0871    1.1979    2.5913 H   0  0  0  0  0  0  0  0  0  0  0  0
   -7.5946    3.0299    2.7444 H   0  0  0  0  0  0  0  0  0  0  0  0
   -4.2192    2.5465    1.9280 H   0  0  0  0  0  0  0  0  0  0  0  0
   -4.8415    4.4868    3.1931 H   0  0  0  0  0  0  0  0  0  0  0  0
   -6.2755    4.4823    0.7836 H   0  0  0  0  0  0  0  0  0  0  0  0
   -4.4988    5.7322    0.3799 H   0  0  0  0  0  0  0  0  0  0  0  0
  1  2  1  0
  1 43  1  0
  1 44  1  0
  1 45  1  0
  2  3  1  0
  2 46  1  0
  2 47  1  0
  3  4  1  0
  3 48  1  0
  3 49  1  0
  4  5  1  0
  4 50  1  0
  4 51  1  0
  5  6  1  0
  5 52  1  0
  5 53  1  0
  6  7  1  0
  6 54  1  0
  6 55  1  0
  7  8  1  0
  7 56  1  0
  7 57  1  0
  8  9  1  0
  8 58  1  0
  8 59  1  0
  9 10  1  0
  9 60  1  0
  9 61  1  0
 10 11  1  0
 10 62  1  0
 10 63  1  0
 11 12  1  0
 11 64  1  0
 11 65  1  0
 12 13  1  0
 12 66  1  0
 12 67  1  0
 13 14  1  0
 13 68  1  0
 13 69  1  0
 14 15  1  0
 14 70  1  0
 14 71  1  0
 15 16  1  0
 15 17  1  0
 15 72  1  6
 16 73  1  0
 17 18  1  0
 17 19  1  0
 17 74  1  1
 18 75  1  0
 19 20  1  0
 19 30  1  0
 19 76  1  6
 20 21  1  0
 20 77  1  0
 21 22  2  0
 21 23  1  0
 23 24  1  0
 23 78  1  0
 23 79  1  0
 24 25  1  0
 24 80  1  0
 24 81  1  0
 25 26  1  0
 25 82  1  0
 25 83  1  0
 26 27  1  0
 26 84  1  0
 26 85  1  0
 27 28  1  0
 27 86  1  0
 27 87  1  0
 28 29  1  0
 28 88  1  0
 28 89  1  0
 29 90  1  0
 29 91  1  0
 29 92  1  0
 30 31  1  0
 30 93  1  0
 30 94  1  0
 31 32  1  0
 32 33  1  0
 32 41  1  0
 32 95  1  6
 33 34  1  0
 34 35  1  0
 34 37  1  0
 34 96  1  1
 35 36  1  0
 35 97  1  0
 35 98  1  0
 36 99  1  0
 37 38  1  0
 37 39  1  0
 37100  1  1
 38101  1  0
 39 40  1  0
 39 41  1  0
 39102  1  1
 40103  1  0
 41 42  1  0
 41104  1  6
 42105  1  0
M  END
