
     RDKit          3D

 39 42  0  0  0  0  0  0  0  0999 V2000
    6.1605    0.2987    0.1677 C   0  0  0  0  0  0  0  0  0  0  0  0
    5.5234   -0.9013    0.4611 C   0  0  0  0  0  0  0  0  0  0  0  0
    4.1426   -0.9919    0.4018 C   0  0  0  0  0  0  0  0  0  0  0  0
    3.3764    0.1197    0.0459 C   0  0  0  0  0  0  0  0  0  0  0  0
    4.0220    1.3200   -0.2530 C   0  0  0  0  0  0  0  0  0  0  0  0
    5.4047    1.4071   -0.1894 C   0  0  0  0  0  0  0  0  0  0  0  0
    1.9237   -0.0051   -0.0139 C   0  0  0  0  0  0  0  0  0  0  0  0
    1.0703    1.0458   -0.0383 N   0  0  0  0  0  0  0  0  0  0  0  0
   -0.2065    0.5688   -0.0844 C   0  0  0  0  0  0  0  0  0  0  0  0
   -0.0637   -0.8052   -0.1084 C   0  0  0  0  0  0  0  0  0  0  0  0
    1.2589   -1.1328   -0.0543 N   0  0  0  0  0  0  0  0  0  0  0  0
   -1.0762   -1.8517   -0.2243 C   0  0  0  0  0  0  0  0  0  0  0  0
   -2.3055   -1.6504   -0.8516 C   0  0  0  0  0  0  0  0  0  0  0  0
   -3.2002   -2.7037   -0.9381 C   0  0  0  0  0  0  0  0  0  0  0  0
   -2.9613   -3.9203   -0.4599 N   0  0  0  0  0  0  0  0  0  0  0  0
   -1.7846   -4.1160    0.1257 C   0  0  0  0  0  0  0  0  0  0  0  0
   -0.8198   -3.1327    0.2648 C   0  0  0  0  0  0  0  0  0  0  0  0
   -1.3583    1.4697   -0.0652 C   0  0  0  0  0  0  0  0  0  0  0  0
   -2.4295    1.2119    0.7857 C   0  0  0  0  0  0  0  0  0  0  0  0
   -3.5252    2.0685    0.8113 C   0  0  0  0  0  0  0  0  0  0  0  0
   -3.5426    3.1976   -0.0054 C   0  0  0  0  0  0  0  0  0  0  0  0
   -2.4658    3.4567   -0.8392 C   0  0  0  0  0  0  0  0  0  0  0  0
   -1.3739    2.6037   -0.8791 C   0  0  0  0  0  0  0  0  0  0  0  0
   -4.5324    1.7663    1.6522 O   0  0  0  0  0  0  0  0  0  0  0  0
    7.2392    0.3684    0.2148 H   0  0  0  0  0  0  0  0  0  0  0  0
    6.1045   -1.7701    0.7416 H   0  0  0  0  0  0  0  0  0  0  0  0
    3.6498   -1.9258    0.6382 H   0  0  0  0  0  0  0  0  0  0  0  0
    3.4591    2.1943   -0.5559 H   0  0  0  0  0  0  0  0  0  0  0  0
    5.8911    2.3435   -0.4286 H   0  0  0  0  0  0  0  0  0  0  0  0
    1.3123    2.0197    0.0674 H   0  0  0  0  0  0  0  0  0  0  0  0
   -2.5690   -0.6957   -1.2847 H   0  0  0  0  0  0  0  0  0  0  0  0
   -4.1563   -2.5544   -1.4279 H   0  0  0  0  0  0  0  0  0  0  0  0
   -1.5944   -5.1122    0.5102 H   0  0  0  0  0  0  0  0  0  0  0  0
    0.1182   -3.3622    0.7516 H   0  0  0  0  0  0  0  0  0  0  0  0
   -2.4108    0.3501    1.4415 H   0  0  0  0  0  0  0  0  0  0  0  0
   -4.3919    3.8708    0.0116 H   0  0  0  0  0  0  0  0  0  0  0  0
   -2.4846    4.3346   -1.4714 H   0  0  0  0  0  0  0  0  0  0  0  0
   -0.5517    2.8085   -1.5526 H   0  0  0  0  0  0  0  0  0  0  0  0
   -5.2199    2.4404    1.6103 H   0  0  0  0  0  0  0  0  0  0  0  0
  6  5  1  0
  6  1  2  0
  5  4  2  0
  1  2  1  0
 24 20  1  0
 21 20  1  0
 21 22  2  0
 20 19  2  0
  4  7  1  0
  4  3  1  0
  8  7  1  0
  8  9  1  0
  2  3  2  0
 22 23  1  0
 19 18  1  0
 23 18  2  0
 18  9  1  0
  7 11  2  0
  9 10  2  0
 11 10  1  0
 10 12  1  0
 12 17  1  0
 12 13  2  0
 17 16  2  0
 13 14  1  0
 16 15  1  0
 14 15  2  0
  1 25  1  0
  2 26  1  0
  3 27  1  0
  5 28  1  0
  6 29  1  0
  8 30  1  0
 13 31  1  0
 14 32  1  0
 16 33  1  0
 17 34  1  0
 19 35  1  0
 21 36  1  0
 22 37  1  0
 23 38  1  0
 24 39  1  0
M  END
