
     RDKit          3D

 23 23  0  0  0  0  0  0  0  0999 V2000
   -0.2056    0.8536    0.7276 C   0  0  0  0  0  0  0  0  0  0  0  0
   -1.5292    0.8243    1.4590 C   0  0  1  0  0  0  0  0  0  0  0  0
   -1.3841    1.1928    2.9618 C   0  0  1  0  0  0  0  0  0  0  0  0
   -2.5088    2.2102    3.1729 C   0  0  0  0  0  0  0  0  0  0  0  0
   -2.6430    2.8680    1.8100 C   0  0  2  0  0  0  0  0  0  0  0  0
   -1.4554    0.0023    3.9010 C   0  0  0  0  0  0  0  0  0  0  0  0
   -2.5135    1.7432    0.9192 N   0  0  0  0  0  0  0  0  0  0  0  0
    0.6736    0.0256    1.2829 O   0  0  0  0  0  0  0  0  0  0  0  0
   -1.5690    3.8447    1.6668 N   0  0  0  0  0  0  0  0  0  0  0  0
   -1.6692    4.5154    0.4428 O   0  0  0  0  0  0  0  0  0  0  0  0
    0.0319    1.5044   -0.2585 O   0  0  0  0  0  0  0  0  0  0  0  0
   -1.8934   -0.2089    1.3696 H   0  0  0  0  0  0  0  0  0  0  0  0
   -0.4298    1.7004    3.1189 H   0  0  0  0  0  0  0  0  0  0  0  0
   -3.4458    1.7061    3.4197 H   0  0  0  0  0  0  0  0  0  0  0  0
   -2.2973    2.9159    3.9778 H   0  0  0  0  0  0  0  0  0  0  0  0
   -3.6260    3.3411    1.6650 H   0  0  0  0  0  0  0  0  0  0  0  0
   -1.4092    0.3309    4.9404 H   0  0  0  0  0  0  0  0  0  0  0  0
   -2.3878   -0.5505    3.7683 H   0  0  0  0  0  0  0  0  0  0  0  0
   -0.6295   -0.6901    3.7388 H   0  0  0  0  0  0  0  0  0  0  0  0
   -2.3205    2.0203   -0.0345 H   0  0  0  0  0  0  0  0  0  0  0  0
    1.5073    0.0441    0.7893 H   0  0  0  0  0  0  0  0  0  0  0  0
   -1.6678    4.5420    2.4009 H   0  0  0  0  0  0  0  0  0  0  0  0
   -2.5262    4.9675    0.4225 H   0  0  0  0  0  0  0  0  0  0  0  0
  1  2  1  0
  1  8  1  0
  1 11  2  0
  2  3  1  0
  2  7  1  0
  2 12  1  1
  3  4  1  0
  3  6  1  0
  3 13  1  6
  4  5  1  0
  4 14  1  0
  4 15  1  0
  5  7  1  0
  5  9  1  0
  5 16  1  1
  6 17  1  0
  6 18  1  0
  6 19  1  0
  7 20  1  0
  8 21  1  0
  9 10  1  0
  9 22  1  0
 10 23  1  0
M  END
