
     RDKit          3D

 77 82  0  0  0  0  0  0  0  0999 V2000
   11.9264   -1.1826    0.5361 C   0  0  0  0  0  0  0  0  0  0  0  0
   13.1507   -1.8209   -0.0905 C   0  0  0  0  0  0  0  0  0  0  0  0
   12.9942   -3.2158   -0.2306 O   0  0  0  0  0  0  0  0  0  0  0  0
   11.8516   -3.5124   -1.0013 C   0  0  0  0  0  0  0  0  0  0  0  0
   10.5951   -2.9123   -0.4002 C   0  0  0  0  0  0  0  0  0  0  0  0
   10.7445   -1.4734   -0.2576 N   0  0  0  0  0  0  0  0  0  0  0  0
    9.5659   -0.8401    0.2956 C   0  0  0  0  0  0  0  0  0  0  0  0
    8.4258   -0.7747   -0.7126 C   0  0  0  0  0  0  0  0  0  0  0  0
    7.3034   -0.0661   -0.1385 N   0  0  0  0  0  0  0  0  0  0  0  0
    6.0272   -0.2932   -0.4907 C   0  0  0  0  0  0  0  0  0  0  0  0
    5.6994   -1.1253   -1.3261 O   0  0  0  0  0  0  0  0  0  0  0  0
    5.0017    0.5425    0.2057 C   0  0  0  0  0  0  0  0  0  0  0  0
    3.8123    0.8096   -0.4583 C   0  0  0  0  0  0  0  0  0  0  0  0
    2.7988    1.5489    0.1460 C   0  0  0  0  0  0  0  0  0  0  0  0
    1.6014    1.8545   -0.6963 C   0  0  0  0  0  0  0  0  0  0  0  0
    1.8069    2.1148   -1.8708 O   0  0  0  0  0  0  0  0  0  0  0  0
    5.1768    1.0380    1.4955 C   0  0  0  0  0  0  0  0  0  0  0  0
    4.1723    1.7759    2.0977 C   0  0  0  0  0  0  0  0  0  0  0  0
    2.9735    2.0373    1.4415 C   0  0  0  0  0  0  0  0  0  0  0  0
    1.8799    2.7863    2.1328 C   0  0  0  0  0  0  0  0  0  0  0  0
    0.6653    1.8906    2.3466 C   0  0  0  0  0  0  0  0  0  0  0  0
   -0.2202    1.7019    1.1424 C   0  0  0  0  0  0  0  0  0  0  0  0
   -1.5697    1.5285    1.4092 C   0  0  0  0  0  0  0  0  0  0  0  0
    0.2125    1.7384   -0.1986 C   0  0  0  0  0  0  0  0  0  0  0  0
   -0.7656    1.6057   -1.1992 C   0  0  0  0  0  0  0  0  0  0  0  0
   -2.0987    1.4198   -0.9283 C   0  0  0  0  0  0  0  0  0  0  0  0
   -2.5320    1.3786    0.4046 C   0  0  0  0  0  0  0  0  0  0  0  0
   -3.8352    1.1767    0.7641 N   0  0  0  0  0  0  0  0  0  0  0  0
   -4.9646    1.2600   -0.0532 C   0  0  0  0  0  0  0  0  0  0  0  0
   -5.9904    0.3377    0.1459 C   0  0  0  0  0  0  0  0  0  0  0  0
   -5.1025    2.2553   -1.0178 C   0  0  0  0  0  0  0  0  0  0  0  0
   -6.2478    2.3029   -1.7959 C   0  0  0  0  0  0  0  0  0  0  0  0
   -7.2557    1.3927   -1.5768 C   0  0  0  0  0  0  0  0  0  0  0  0
   -8.3731    1.4489   -2.3243 F   0  0  0  0  0  0  0  0  0  0  0  0
   -7.1634    0.4042   -0.5997 C   0  0  0  0  0  0  0  0  0  0  0  0
   -8.2238   -0.4929   -0.4616 N   0  0  0  0  0  0  0  0  0  0  0  0
   -8.6136   -1.1118    0.6863 C   0  0  0  0  0  0  0  0  0  0  0  0
   -8.0694   -0.9350    1.7606 O   0  0  0  0  0  0  0  0  0  0  0  0
   -9.7844   -2.0257    0.5438 C   0  0  0  0  0  0  0  0  0  0  0  0
  -10.5772   -2.2506    1.6680 C   0  0  0  0  0  0  0  0  0  0  0  0
  -11.6707   -3.0982    1.5933 C   0  0  0  0  0  0  0  0  0  0  0  0
  -11.9710   -3.7452    0.4008 C   0  0  0  0  0  0  0  0  0  0  0  0
  -11.1735   -3.5413   -0.7167 C   0  0  0  0  0  0  0  0  0  0  0  0
  -10.0864   -2.6822   -0.6482 C   0  0  0  0  0  0  0  0  0  0  0  0
   11.8186   -1.5353    1.5763 H   0  0  0  0  0  0  0  0  0  0  0  0
   12.0764   -0.1009    0.5771 H   0  0  0  0  0  0  0  0  0  0  0  0
   13.3421   -1.3568   -1.0686 H   0  0  0  0  0  0  0  0  0  0  0  0
   14.0248   -1.6505    0.5399 H   0  0  0  0  0  0  0  0  0  0  0  0
   11.9746   -3.1409   -2.0287 H   0  0  0  0  0  0  0  0  0  0  0  0
   11.7597   -4.5986   -1.0463 H   0  0  0  0  0  0  0  0  0  0  0  0
    9.7612   -3.1439   -1.0658 H   0  0  0  0  0  0  0  0  0  0  0  0
   10.3794   -3.3928    0.5700 H   0  0  0  0  0  0  0  0  0  0  0  0
    9.2168   -1.3405    1.2138 H   0  0  0  0  0  0  0  0  0  0  0  0
    9.8380    0.1813    0.5784 H   0  0  0  0  0  0  0  0  0  0  0  0
    8.7751   -0.2808   -1.6244 H   0  0  0  0  0  0  0  0  0  0  0  0
    8.0875   -1.7712   -0.9921 H   0  0  0  0  0  0  0  0  0  0  0  0
    7.5117    0.7509    0.4136 H   0  0  0  0  0  0  0  0  0  0  0  0
    3.6706    0.4319   -1.4622 H   0  0  0  0  0  0  0  0  0  0  0  0
    6.0803    0.8318    2.0554 H   0  0  0  0  0  0  0  0  0  0  0  0
    4.3187    2.1497    3.1033 H   0  0  0  0  0  0  0  0  0  0  0  0
    2.2387    3.1336    3.1018 H   0  0  0  0  0  0  0  0  0  0  0  0
    1.5933    3.6786    1.5691 H   0  0  0  0  0  0  0  0  0  0  0  0
    0.9985    0.9139    2.7127 H   0  0  0  0  0  0  0  0  0  0  0  0
    0.0557    2.3134    3.1464 H   0  0  0  0  0  0  0  0  0  0  0  0
   -1.8990    1.5285    2.4430 H   0  0  0  0  0  0  0  0  0  0  0  0
   -0.4574    1.6196   -2.2355 H   0  0  0  0  0  0  0  0  0  0  0  0
   -2.7905    1.2846   -1.7474 H   0  0  0  0  0  0  0  0  0  0  0  0
   -4.0002    0.9226    1.7254 H   0  0  0  0  0  0  0  0  0  0  0  0
   -5.8569   -0.4393    0.8830 H   0  0  0  0  0  0  0  0  0  0  0  0
   -4.3339    3.0022   -1.1600 H   0  0  0  0  0  0  0  0  0  0  0  0
   -6.3675    3.0663   -2.5529 H   0  0  0  0  0  0  0  0  0  0  0  0
   -8.8382   -0.5743   -1.2564 H   0  0  0  0  0  0  0  0  0  0  0  0
  -10.3436   -1.7532    2.6000 H   0  0  0  0  0  0  0  0  0  0  0  0
  -12.2885   -3.2562    2.4673 H   0  0  0  0  0  0  0  0  0  0  0  0
  -12.8220   -4.4112    0.3448 H   0  0  0  0  0  0  0  0  0  0  0  0
  -11.3924   -4.0551   -1.6433 H   0  0  0  0  0  0  0  0  0  0  0  0
   -9.4660   -2.5572   -1.5274 H   0  0  0  0  0  0  0  0  0  0  0  0
  2  3  1  0
  2  1  1  0
  3  4  1  0
  4  5  1  0
  1  6  1  0
  5  6  1  0
  6  7  1  0
 11 10  2  0
 10  9  1  0
 10 12  1  0
  9  8  1  0
  7  8  1  0
 16 15  2  0
 12 13  2  0
 12 17  1  0
 13 14  1  0
 17 18  2  0
 15 14  1  0
 15 24  1  0
 14 19  2  0
 18 19  1  0
 19 20  1  0
 25 24  1  0
 25 26  2  0
 24 22  2  0
 20 21  1  0
 26 27  1  0
 22 21  1  0
 22 23  1  0
 27 23  2  0
 27 28  1  0
 31 32  2  0
 31 29  1  0
 28 29  1  0
 32 33  1  0
 29 30  2  0
 33 34  1  0
 33 35  2  0
 30 35  1  0
 35 36  1  0
 38 37  2  0
 37 36  1  0
 37 39  1  0
 44 39  1  0
 44 43  2  0
 39 40  2  0
 43 42  1  0
 40 41  1  0
 42 41  2  0
  1 45  1  0
  1 46  1  0
  2 47  1  0
  2 48  1  0
  4 49  1  0
  4 50  1  0
  5 51  1  0
  5 52  1  0
  7 53  1  0
  7 54  1  0
  8 55  1  0
  8 56  1  0
  9 57  1  0
 13 58  1  0
 17 59  1  0
 18 60  1  0
 20 61  1  0
 20 62  1  0
 21 63  1  0
 21 64  1  0
 23 65  1  0
 25 66  1  0
 26 67  1  0
 28 68  1  0
 30 69  1  0
 31 70  1  0
 32 71  1  0
 36 72  1  0
 40 73  1  0
 41 74  1  0
 42 75  1  0
 43 76  1  0
 44 77  1  0
M  END
