
     RDKit          3D

159163  0  0  0  0  0  0  0  0999 V2000
   -3.5039    3.9709    5.1710 O   0  0  0  0  0  0  0  0  0  0  0  0
   -2.9347    5.0429    5.0306 C   0  0  0  0  0  0  0  0  0  0  0  0
   -2.5984    5.6034    3.6631 C   0  0  0  0  0  0  0  0  0  0  0  0
   -3.4576    5.0185    2.5505 C   0  0  0  0  0  0  0  0  0  0  0  0
   -4.9176    5.4520    2.6138 C   0  0  0  0  0  0  0  0  0  0  0  0
   -5.7259    4.9647    1.4190 C   0  0  0  0  0  0  0  0  0  0  0  0
   -7.1986    5.3461    1.4894 C   0  0  0  0  0  0  0  0  0  0  0  0
   -7.9830    4.9424    0.2477 C   0  0  0  0  0  0  0  0  0  0  0  0
   -9.4611    5.3023    0.3259 C   0  0  0  0  0  0  0  0  0  0  0  0
  -10.2362    4.9563   -0.9388 C   0  0  0  0  0  0  0  0  0  0  0  0
  -11.7186    5.2952   -0.8453 C   0  0  0  0  0  0  0  0  0  0  0  0
  -12.4939    4.9783   -2.1176 C   0  0  0  0  0  0  0  0  0  0  0  0
  -13.9785    5.3040   -2.0130 C   0  0  0  0  0  0  0  0  0  0  0  0
  -14.7564    4.9968   -3.2861 C   0  0  0  0  0  0  0  0  0  0  0  0
  -16.2422    5.3135   -3.1738 C   0  0  0  0  0  0  0  0  0  0  0  0
  -17.0250    5.0058   -4.4442 C   0  0  0  0  0  0  0  0  0  0  0  0
  -18.5089    5.3200   -4.3140 C   0  0  0  0  0  0  0  0  0  0  0  0
   -2.5732    5.7863    6.1048 N   0  0  0  0  0  0  0  0  0  0  0  0
   -1.7908    6.8933    5.9014 O   0  0  0  0  0  0  0  0  0  0  0  0
   -2.6746    5.3599    7.4859 C   0  0  0  0  0  0  0  0  0  0  0  0
   -1.3207    5.1414    8.1521 C   0  0  0  0  0  0  0  0  0  0  0  0
   -0.4231    4.1687    7.4020 C   0  0  0  0  0  0  0  0  0  0  0  0
    0.9482    4.0347    8.0538 C   0  0  0  0  0  0  0  0  0  0  0  0
    1.9856    3.3280    7.1774 C   0  0  2  0  0  0  0  0  0  0  0  0
    2.1227    3.9626    5.8853 N   0  0  0  0  0  0  0  0  0  0  0  0
    2.8047    5.0936    5.6825 C   0  0  0  0  0  0  0  0  0  0  0  0
    3.4836    5.6592    6.5222 O   0  0  0  0  0  0  0  0  0  0  0  0
    2.5995    5.6846    4.2877 C   0  0  2  0  0  0  0  0  0  0  0  0
    3.7689    6.4261    3.8767 N   0  0  0  0  0  0  0  0  0  0  0  0
    3.4651    7.6662    3.8830 C   0  0  0  0  0  0  0  0  0  0  0  0
    2.2043    7.9877    4.1726 O   0  0  0  0  0  0  0  0  0  0  0  0
    1.4836    6.7559    4.3081 C   0  0  0  0  0  0  0  0  0  0  0  0
    4.4076    8.7334    3.5947 C   0  0  0  0  0  0  0  0  0  0  0  0
    4.0104   10.0742    3.5778 C   0  0  0  0  0  0  0  0  0  0  0  0
    4.9198   11.0778    3.3138 C   0  0  0  0  0  0  0  0  0  0  0  0
    6.2497   10.7425    3.0629 C   0  0  0  0  0  0  0  0  0  0  0  0
    6.6654    9.4253    3.0742 C   0  0  0  0  0  0  0  0  0  0  0  0
    5.7540    8.4003    3.3384 C   0  0  0  0  0  0  0  0  0  0  0  0
    6.1967    7.1454    3.3368 O   0  0  0  0  0  0  0  0  0  0  0  0
    1.6544    1.8544    6.9777 C   0  0  0  0  0  0  0  0  0  0  0  0
    0.9585    1.2197    7.7265 O   0  0  0  0  0  0  0  0  0  0  0  0
    2.2371    1.3619    5.8984 O   0  0  0  0  0  0  0  0  0  0  0  0
    1.7160    0.1702    5.2843 C   0  0  2  0  0  0  0  0  0  0  0  0
    2.6255   -1.0025    5.5870 C   0  0  0  0  0  0  0  0  0  0  0  0
    1.6307    0.4598    3.7938 C   0  0  0  0  0  0  0  0  0  0  0  0
    0.6571    1.5615    3.4249 C   0  0  0  0  0  0  0  0  0  0  0  0
    0.3257    2.4624    4.1897 O   0  0  0  0  0  0  0  0  0  0  0  0
    0.1855    1.5012    2.1701 N   0  0  0  0  0  0  0  0  0  0  0  0
   -0.7369    2.4983    1.6536 C   0  0  2  0  0  0  0  0  0  0  0  0
   -1.6372    1.8506    0.6005 C   0  0  0  0  0  0  0  0  0  0  0  0
   -2.7583    1.4890    0.9065 O   0  0  0  0  0  0  0  0  0  0  0  0
   -0.0635    3.8173    1.2597 C   0  0  0  0  0  0  0  0  0  0  0  0
    1.1539    3.7138    0.3566 C   0  0  0  0  0  0  0  0  0  0  0  0
    0.8518    3.1832   -1.0334 C   0  0  0  0  0  0  0  0  0  0  0  0
    0.2559    1.7867   -1.0550 C   0  0  0  0  0  0  0  0  0  0  0  0
   -1.1540    1.7375   -0.6601 N   0  0  0  0  0  0  0  0  0  0  0  0
   -1.9458    0.9731   -1.4862 O   0  0  0  0  0  0  0  0  0  0  0  0
   -2.7200    1.7115   -2.8189 Si  0  0  1  0  0  0  0  0  0  0  0  0
   -3.8989    3.1313   -2.3754 C   0  0  1  0  0  0  0  0  0  0  0  0
   -4.4712    3.6614   -3.6999 C   0  0  0  0  0  0  0  0  0  0  0  0
   -5.0613    2.5865   -1.5370 C   0  0  0  0  0  0  0  0  0  0  0  0
   -3.2397    4.2831   -1.6085 C   0  0  0  0  0  0  0  0  0  0  0  0
   -1.3787    2.1683   -4.0552 C   0  0  0  0  0  0  0  0  0  0  0  0
   -3.6833    0.2482   -3.4838 C   0  0  0  0  0  0  0  0  0  0  0  0
    0.3657    1.3666   -5.5465 C   0  0  0  0  0  0  0  0  0  0  0  0
    0.7365    2.6743   -5.8343 C   0  0  0  0  0  0  0  0  0  0  0  0
    0.0576    3.7277   -5.2394 C   0  0  0  0  0  0  0  0  0  0  0  0
   -0.9867    3.4735   -4.3593 C   0  0  0  0  0  0  0  0  0  0  0  0
   -0.6791    1.1210   -4.6680 C   0  0  0  0  0  0  0  0  0  0  0  0
   -3.9770    0.1521   -4.8466 C   0  0  0  0  0  0  0  0  0  0  0  0
   -4.7379   -0.8968   -5.3463 C   0  0  0  0  0  0  0  0  0  0  0  0
   -5.2177   -1.8752   -4.4859 C   0  0  0  0  0  0  0  0  0  0  0  0
   -4.9371   -1.7972   -3.1277 C   0  0  0  0  0  0  0  0  0  0  0  0
   -4.1801   -0.7439   -2.6328 C   0  0  0  0  0  0  0  0  0  0  0  0
   -2.6710    6.6911    3.6472 H   0  0  0  0  0  0  0  0  0  0  0  0
   -1.5417    5.3768    3.4770 H   0  0  0  0  0  0  0  0  0  0  0  0
   -3.3993    3.9277    2.5513 H   0  0  0  0  0  0  0  0  0  0  0  0
   -3.0320    5.3456    1.5965 H   0  0  0  0  0  0  0  0  0  0  0  0
   -5.3742    5.0806    3.5359 H   0  0  0  0  0  0  0  0  0  0  0  0
   -4.9715    6.5454    2.6632 H   0  0  0  0  0  0  0  0  0  0  0  0
   -5.2895    5.3692    0.4990 H   0  0  0  0  0  0  0  0  0  0  0  0
   -5.6340    3.8765    1.3352 H   0  0  0  0  0  0  0  0  0  0  0  0
   -7.6524    4.8853    2.3738 H   0  0  0  0  0  0  0  0  0  0  0  0
   -7.2873    6.4288    1.6350 H   0  0  0  0  0  0  0  0  0  0  0  0
   -7.8804    3.8636    0.0843 H   0  0  0  0  0  0  0  0  0  0  0  0
   -7.5361    5.4214   -0.6310 H   0  0  0  0  0  0  0  0  0  0  0  0
   -9.9138    4.7894    1.1818 H   0  0  0  0  0  0  0  0  0  0  0  0
   -9.5626    6.3743    0.5300 H   0  0  0  0  0  0  0  0  0  0  0  0
  -10.1217    3.8886   -1.1569 H   0  0  0  0  0  0  0  0  0  0  0  0
   -9.7942    5.4859   -1.7902 H   0  0  0  0  0  0  0  0  0  0  0  0
  -12.1624    4.7502   -0.0045 H   0  0  0  0  0  0  0  0  0  0  0  0
  -11.8325    6.3588   -0.6071 H   0  0  0  0  0  0  0  0  0  0  0  0
  -12.3727    3.9173   -2.3633 H   0  0  0  0  0  0  0  0  0  0  0  0
  -12.0577    5.5328   -2.9560 H   0  0  0  0  0  0  0  0  0  0  0  0
  -14.0997    6.3634   -1.7603 H   0  0  0  0  0  0  0  0  0  0  0  0
  -14.4143    4.7443   -1.1778 H   0  0  0  0  0  0  0  0  0  0  0  0
  -14.3257    5.5618   -4.1205 H   0  0  0  0  0  0  0  0  0  0  0  0
  -14.6305    3.9389   -3.5426 H   0  0  0  0  0  0  0  0  0  0  0  0
  -16.6718    4.7484   -2.3388 H   0  0  0  0  0  0  0  0  0  0  0  0
  -16.3692    6.3714   -2.9170 H   0  0  0  0  0  0  0  0  0  0  0  0
  -16.8956    3.9496   -4.7011 H   0  0  0  0  0  0  0  0  0  0  0  0
  -16.5997    5.5732   -5.2780 H   0  0  0  0  0  0  0  0  0  0  0  0
  -18.9625    4.7412   -3.5071 H   0  0  0  0  0  0  0  0  0  0  0  0
  -19.0519    5.0896   -5.2314 H   0  0  0  0  0  0  0  0  0  0  0  0
  -18.6695    6.3761   -4.0893 H   0  0  0  0  0  0  0  0  0  0  0  0
   -2.3715    7.6612    5.9970 H   0  0  0  0  0  0  0  0  0  0  0  0
   -3.2464    6.1064    8.0449 H   0  0  0  0  0  0  0  0  0  0  0  0
   -3.2582    4.4419    7.4923 H   0  0  0  0  0  0  0  0  0  0  0  0
   -1.5137    4.7756    9.1643 H   0  0  0  0  0  0  0  0  0  0  0  0
   -0.8065    6.0986    8.2683 H   0  0  0  0  0  0  0  0  0  0  0  0
   -0.9132    3.1947    7.3304 H   0  0  0  0  0  0  0  0  0  0  0  0
   -0.2982    4.5219    6.3753 H   0  0  0  0  0  0  0  0  0  0  0  0
    1.3429    5.0300    8.2753 H   0  0  0  0  0  0  0  0  0  0  0  0
    0.8727    3.5188    9.0129 H   0  0  0  0  0  0  0  0  0  0  0  0
    2.9545    3.3635    7.6896 H   0  0  0  0  0  0  0  0  0  0  0  0
    1.5582    3.5798    5.1328 H   0  0  0  0  0  0  0  0  0  0  0  0
    2.3796    4.8892    3.5700 H   0  0  0  0  0  0  0  0  0  0  0  0
    0.7978    6.6556    3.4649 H   0  0  0  0  0  0  0  0  0  0  0  0
    0.9018    6.7882    5.2287 H   0  0  0  0  0  0  0  0  0  0  0  0
    2.9777   10.3282    3.7756 H   0  0  0  0  0  0  0  0  0  0  0  0
    4.6037   12.1116    3.3042 H   0  0  0  0  0  0  0  0  0  0  0  0
    6.9719   11.5218    2.8560 H   0  0  0  0  0  0  0  0  0  0  0  0
    7.6996    9.1716    2.8792 H   0  0  0  0  0  0  0  0  0  0  0  0
    5.4364    6.5402    3.5381 H   0  0  0  0  0  0  0  0  0  0  0  0
    0.7175   -0.0333    5.6775 H   0  0  0  0  0  0  0  0  0  0  0  0
    2.6720   -1.1907    6.6592 H   0  0  0  0  0  0  0  0  0  0  0  0
    2.2428   -1.9033    5.1076 H   0  0  0  0  0  0  0  0  0  0  0  0
    3.6374   -0.8270    5.2197 H   0  0  0  0  0  0  0  0  0  0  0  0
    1.3541   -0.4624    3.2784 H   0  0  0  0  0  0  0  0  0  0  0  0
    2.6194    0.7349    3.4115 H   0  0  0  0  0  0  0  0  0  0  0  0
    0.4651    0.7219    1.5958 H   0  0  0  0  0  0  0  0  0  0  0  0
   -1.4307    2.7315    2.4627 H   0  0  0  0  0  0  0  0  0  0  0  0
    0.2306    4.3073    2.1907 H   0  0  0  0  0  0  0  0  0  0  0  0
   -0.8185    4.4663    0.8064 H   0  0  0  0  0  0  0  0  0  0  0  0
    1.9100    3.0812    0.8315 H   0  0  0  0  0  0  0  0  0  0  0  0
    1.6015    4.7060    0.2684 H   0  0  0  0  0  0  0  0  0  0  0  0
    0.1831    3.8644   -1.5672 H   0  0  0  0  0  0  0  0  0  0  0  0
    1.7786    3.1454   -1.6097 H   0  0  0  0  0  0  0  0  0  0  0  0
    0.2922    1.4068   -2.0723 H   0  0  0  0  0  0  0  0  0  0  0  0
    0.8598    1.0965   -0.4577 H   0  0  0  0  0  0  0  0  0  0  0  0
   -4.9621    2.8786   -4.2831 H   0  0  0  0  0  0  0  0  0  0  0  0
   -5.2264    4.4244   -3.4876 H   0  0  0  0  0  0  0  0  0  0  0  0
   -3.7175    4.1243   -4.3384 H   0  0  0  0  0  0  0  0  0  0  0  0
   -4.7307    2.2416   -0.5579 H   0  0  0  0  0  0  0  0  0  0  0  0
   -5.5783    1.7627   -2.0324 H   0  0  0  0  0  0  0  0  0  0  0  0
   -5.7994    3.3783   -1.3755 H   0  0  0  0  0  0  0  0  0  0  0  0
   -2.3521    4.6811   -2.1006 H   0  0  0  0  0  0  0  0  0  0  0  0
   -3.9499    5.1095   -1.5091 H   0  0  0  0  0  0  0  0  0  0  0  0
   -2.9540    3.9869   -0.5998 H   0  0  0  0  0  0  0  0  0  0  0  0
    0.8906    0.5393   -6.0068 H   0  0  0  0  0  0  0  0  0  0  0  0
    1.5515    2.8687   -6.5196 H   0  0  0  0  0  0  0  0  0  0  0  0
    0.3409    4.7492   -5.4573 H   0  0  0  0  0  0  0  0  0  0  0  0
   -1.4921    4.3188   -3.9113 H   0  0  0  0  0  0  0  0  0  0  0  0
   -0.9504    0.0920   -4.4589 H   0  0  0  0  0  0  0  0  0  0  0  0
   -3.6026    0.9002   -5.5367 H   0  0  0  0  0  0  0  0  0  0  0  0
   -4.9526   -0.9520   -6.4058 H   0  0  0  0  0  0  0  0  0  0  0  0
   -5.8063   -2.6972   -4.8726 H   0  0  0  0  0  0  0  0  0  0  0  0
   -5.3093   -2.5576   -2.4530 H   0  0  0  0  0  0  0  0  0  0  0  0
   -3.9777   -0.7008   -1.5695 H   0  0  0  0  0  0  0  0  0  0  0  0
  1  2  2  0
  2  3  1  0
  2 18  1  0
  3  4  1  0
  3 75  1  0
  3 76  1  0
  4  5  1  0
  4 77  1  0
  4 78  1  0
  5  6  1  0
  5 79  1  0
  5 80  1  0
  6  7  1  0
  6 81  1  0
  6 82  1  0
  7  8  1  0
  7 83  1  0
  7 84  1  0
  8  9  1  0
  8 85  1  0
  8 86  1  0
  9 10  1  0
  9 87  1  0
  9 88  1  0
 10 11  1  0
 10 89  1  0
 10 90  1  0
 11 12  1  0
 11 91  1  0
 11 92  1  0
 12 13  1  0
 12 93  1  0
 12 94  1  0
 13 14  1  0
 13 95  1  0
 13 96  1  0
 14 15  1  0
 14 97  1  0
 14 98  1  0
 15 16  1  0
 15 99  1  0
 15100  1  0
 16 17  1  0
 16101  1  0
 16102  1  0
 17103  1  0
 17104  1  0
 17105  1  0
 18 19  1  0
 18 20  1  0
 19106  1  0
 20 21  1  0
 20107  1  0
 20108  1  0
 21 22  1  0
 21109  1  0
 21110  1  0
 22 23  1  0
 22111  1  0
 22112  1  0
 23 24  1  0
 23113  1  0
 23114  1  0
 24 25  1  0
 24 40  1  0
 24115  1  1
 25 26  1  0
 25116  1  0
 26 27  2  0
 26 28  1  0
 28 29  1  0
 28 32  1  0
 28117  1  6
 29 30  2  0
 30 31  1  0
 30 33  1  0
 31 32  1  0
 32118  1  0
 32119  1  0
 33 34  2  0
 33 38  1  0
 34 35  1  0
 34120  1  0
 35 36  2  0
 35121  1  0
 36 37  1  0
 36122  1  0
 37 38  2  0
 37123  1  0
 38 39  1  0
 39124  1  0
 40 41  2  0
 40 42  1  0
 42 43  1  0
 43 44  1  0
 43 45  1  0
 43125  1  1
 44126  1  0
 44127  1  0
 44128  1  0
 45 46  1  0
 45129  1  0
 45130  1  0
 46 47  2  0
 46 48  1  0
 48 49  1  0
 48131  1  0
 49 50  1  0
 49 52  1  0
 49132  1  1
 50 51  2  0
 50 56  1  0
 52 53  1  0
 52133  1  0
 52134  1  0
 53 54  1  0
 53135  1  0
 53136  1  0
 54 55  1  0
 54137  1  0
 54138  1  0
 55 56  1  0
 55139  1  0
 55140  1  0
 56 57  1  0
 58 57  1  1
 58 59  1  0
 58 63  1  0
 58 64  1  0
 59 60  1  6
 59 61  1  0
 59 62  1  0
 60141  1  0
 60142  1  0
 60143  1  0
 61144  1  0
 61145  1  0
 61146  1  0
 62147  1  0
 62148  1  0
 62149  1  0
 63 68  1  0
 63 69  2  0
 64 70  2  0
 64 74  1  0
 65 66  2  0
 65 69  1  0
 65150  1  0
 66 67  1  0
 66151  1  0
 67 68  2  0
 67152  1  0
 68153  1  0
 69154  1  0
 70 71  1  0
 70155  1  0
 71 72  2  0
 71156  1  0
 72 73  1  0
 72157  1  0
 73 74  2  0
 73158  1  0
 74159  1  0
M  END
