
     RDKit          3D

 44 45  0  0  0  0  0  0  0  0999 V2000
   -3.3381   -1.8709   -0.8086 C   0  0  0  0  0  0  0  0  0  0  0  0
   -3.8431   -1.1943   -2.0817 C   0  0  0  0  0  0  0  0  0  0  0  0
   -4.7667   -0.0386   -1.7405 C   0  0  0  0  0  0  0  0  0  0  0  0
   -4.2443    0.8268   -0.6237 C   0  0  0  0  0  0  0  0  0  0  0  0
   -4.8484    2.0610   -0.3901 C   0  0  0  0  0  0  0  0  0  0  0  0
   -4.4396    2.8832    0.6459 C   0  0  0  0  0  0  0  0  0  0  0  0
   -3.4097    2.4671    1.4819 C   0  0  0  0  0  0  0  0  0  0  0  0
   -2.7986    1.2471    1.2597 C   0  0  0  0  0  0  0  0  0  0  0  0
   -3.1840    0.4150    0.1996 C   0  0  0  0  0  0  0  0  0  0  0  0
   -2.5147   -0.8847   -0.0338 C   0  0  0  0  0  0  0  0  0  0  0  0
   -1.2337   -1.0621    0.3503 C   0  0  0  0  0  0  0  0  0  0  0  0
   -0.4039   -2.2618    0.3324 C   0  0  0  0  0  0  0  0  0  0  0  0
   -1.0146   -3.6345    0.4132 C   0  0  0  0  0  0  0  0  0  0  0  0
    0.9505   -2.1664    0.3321 C   0  0  0  0  0  0  0  0  0  0  0  0
    1.7259   -0.9614    0.2061 C   0  0  0  0  0  0  0  0  0  0  0  0
    3.0748   -0.9651    0.2440 C   0  0  0  0  0  0  0  0  0  0  0  0
    3.9465    0.1905    0.1325 C   0  0  0  0  0  0  0  0  0  0  0  0
    3.3503    1.5507   -0.0747 C   0  0  0  0  0  0  0  0  0  0  0  0
    5.2760   -0.0451    0.2441 C   0  0  0  0  0  0  0  0  0  0  0  0
    6.3350    0.9604    0.2007 C   0  0  0  0  0  0  0  0  0  0  0  0
    6.2001    2.1644    0.1546 O   0  0  0  0  0  0  0  0  0  0  0  0
    7.5403    0.3830    0.2299 O   0  0  0  0  0  0  0  0  0  0  0  0
   -4.1972   -2.1983   -0.2119 H   0  0  0  0  0  0  0  0  0  0  0  0
   -2.7727   -2.7592   -1.0705 H   0  0  0  0  0  0  0  0  0  0  0  0
   -2.9877   -0.8376   -2.6623 H   0  0  0  0  0  0  0  0  0  0  0  0
   -4.3688   -1.9194   -2.7049 H   0  0  0  0  0  0  0  0  0  0  0  0
   -4.9554    0.5758   -2.6240 H   0  0  0  0  0  0  0  0  0  0  0  0
   -5.7419   -0.4345   -1.4372 H   0  0  0  0  0  0  0  0  0  0  0  0
   -5.6566    2.3803   -1.0386 H   0  0  0  0  0  0  0  0  0  0  0  0
   -4.9240    3.8377    0.8072 H   0  0  0  0  0  0  0  0  0  0  0  0
   -3.0907    3.0866    2.3100 H   0  0  0  0  0  0  0  0  0  0  0  0
   -2.0216    0.9224    1.9397 H   0  0  0  0  0  0  0  0  0  0  0  0
   -0.7338   -0.1880    0.7517 H   0  0  0  0  0  0  0  0  0  0  0  0
   -1.2784   -4.0262   -0.5708 H   0  0  0  0  0  0  0  0  0  0  0  0
   -0.3068   -4.3384    0.8498 H   0  0  0  0  0  0  0  0  0  0  0  0
   -1.9197   -3.6414    1.0199 H   0  0  0  0  0  0  0  0  0  0  0  0
    1.5214   -3.0868    0.4156 H   0  0  0  0  0  0  0  0  0  0  0  0
    1.1939   -0.0289    0.0612 H   0  0  0  0  0  0  0  0  0  0  0  0
    3.5757   -1.9188    0.3866 H   0  0  0  0  0  0  0  0  0  0  0  0
    3.3132    2.0969    0.8695 H   0  0  0  0  0  0  0  0  0  0  0  0
    3.9363    2.1471   -0.7674 H   0  0  0  0  0  0  0  0  0  0  0  0
    2.3348    1.4930   -0.4575 H   0  0  0  0  0  0  0  0  0  0  0  0
    5.6042   -1.0684    0.3852 H   0  0  0  0  0  0  0  0  0  0  0  0
    8.2267    1.0653    0.2082 H   0  0  0  0  0  0  0  0  0  0  0  0
 13 12  1  0
 14 12  2  0
 14 15  1  0
 16 15  2  0
 16 17  1  0
 12 11  1  0
 19 17  2  0
 19 20  1  0
 17 18  1  0
 21 20  2  0
 20 22  1  0
  1  2  1  0
  1 10  1  0
 11 10  2  0
  2  3  1  0
 10  9  1  0
  3  4  1  0
  9  4  2  0
  9  8  1  0
  4  5  1  0
  8  7  2  0
  5  6  2  0
  7  6  1  0
  1 23  1  0
  1 24  1  0
  2 25  1  0
  2 26  1  0
  3 27  1  0
  3 28  1  0
  5 29  1  0
  6 30  1  0
  7 31  1  0
  8 32  1  0
 11 33  1  0
 13 34  1  0
 13 35  1  0
 13 36  1  0
 14 37  1  0
 15 38  1  0
 16 39  1  0
 18 40  1  0
 18 41  1  0
 18 42  1  0
 19 43  1  0
 22 44  1  0
M  END
