
     RDKit          3D

 20 21  0  0  0  0  0  0  0  0999 V2000
    2.7949    0.3784   -1.4045 N   0  0  0  0  0  0  0  0  0  0  0  0
   -0.1486    0.9136   -0.0780 O   0  0  0  0  0  0  0  0  0  0  0  0
    2.3231   -0.0432    0.0988 S   0  0  1  0  0  0  0  0  0  0  0  0
    2.6414    1.0756    0.9632 O   0  0  0  0  0  0  0  0  0  0  0  0
    0.5765   -0.2178    0.0827 C   0  0  0  0  0  0  0  0  0  0  0  0
    2.8376   -1.3707    0.3657 O   0  0  0  0  0  0  0  0  0  0  0  0
   -0.1830   -1.3246    0.1973 C   0  0  0  0  0  0  0  0  0  0  0  0
   -2.7941   -1.4607    0.1473 C   0  0  0  0  0  0  0  0  0  0  0  0
   -3.9064   -0.6514    0.0200 C   0  0  0  0  0  0  0  0  0  0  0  0
   -3.7833    0.7360   -0.1489 C   0  0  0  0  0  0  0  0  0  0  0  0
   -2.5469    1.3568   -0.1950 C   0  0  0  0  0  0  0  0  0  0  0  0
   -1.4460    0.5272   -0.0661 C   0  0  0  0  0  0  0  0  0  0  0  0
   -1.5357   -0.8563    0.1034 C   0  0  0  0  0  0  0  0  0  0  0  0
    2.5933   -0.3076   -2.1232 H   0  0  0  0  0  0  0  0  0  0  0  0
    2.5387    1.3188   -1.6825 H   0  0  0  0  0  0  0  0  0  0  0  0
    0.1598   -2.3371    0.3324 H   0  0  0  0  0  0  0  0  0  0  0  0
   -2.8936   -2.5301    0.2762 H   0  0  0  0  0  0  0  0  0  0  0  0
   -4.8942   -1.0915    0.0506 H   0  0  0  0  0  0  0  0  0  0  0  0
   -4.6770    1.3378   -0.2464 H   0  0  0  0  0  0  0  0  0  0  0  0
   -2.4483    2.4262   -0.3222 H   0  0  0  0  0  0  0  0  0  0  0  0
  3  1  1  6
  1 14  1  0
  1 15  1  0
 12  2  1  0
  2  5  1  0
  5  3  1  0
  4  3  2  0
  3  6  2  0
  5  7  2  0
 13  7  1  0
  7 16  1  0
  9  8  1  0
  8 13  2  0
  8 17  1  0
 10  9  2  0
  9 18  1  0
 10 11  1  0
 10 19  1  0
 11 12  2  0
 11 20  1  0
 12 13  1  0
M  END
