
     RDKit          3D

 21 21  0  0  0  0  0  0  0  0999 V2000
    0.0045    1.8203    0.1357 C   0  0  0  0  0  0  0  0  0  0  0  0
    0.9311    0.7895    0.0729 C   0  0  0  0  0  0  0  0  0  0  0  0
    2.3779    1.1599    0.2007 C   0  0  0  0  0  0  0  0  0  0  0  0
    0.4927   -0.5330   -0.0180 C   0  0  0  0  0  0  0  0  0  0  0  0
    1.4970   -1.6183   -0.1540 C   0  0  0  0  0  0  0  0  0  0  0  0
   -0.8695   -0.8023   -0.0330 C   0  0  0  0  0  0  0  0  0  0  0  0
   -1.3533    1.5460    0.1174 C   0  0  0  0  0  0  0  0  0  0  0  0
   -3.2408   -0.1261    0.0148 C   0  0  0  0  0  0  0  0  0  0  0  0
   -1.7967    0.2300    0.0358 C   0  0  0  0  0  0  0  0  0  0  0  0
   -3.6444   -1.2601   -0.0646 O   0  0  0  0  0  0  0  0  0  0  0  0
   -4.0301    0.9316    0.0940 O   0  0  0  0  0  0  0  0  0  0  0  0
    2.9701    1.1187    1.2456 O   0  0  0  0  0  0  0  0  0  0  0  0
    2.8619    1.6317   -0.9325 O   0  0  0  0  0  0  0  0  0  0  0  0
    2.6668   -1.4038   -0.3588 O   0  0  0  0  0  0  0  0  0  0  0  0
    0.9760   -2.8258   -0.0398 O   0  0  0  0  0  0  0  0  0  0  0  0
    0.3365    2.8477    0.2064 H   0  0  0  0  0  0  0  0  0  0  0  0
   -1.2213   -1.8215   -0.1084 H   0  0  0  0  0  0  0  0  0  0  0  0
   -2.0521    2.3690    0.1677 H   0  0  0  0  0  0  0  0  0  0  0  0
   -4.9596    0.6577    0.0907 H   0  0  0  0  0  0  0  0  0  0  0  0
    3.7804    1.9212   -0.8131 H   0  0  0  0  0  0  0  0  0  0  0  0
    1.6599   -3.5011   -0.1658 H   0  0  0  0  0  0  0  0  0  0  0  0
 14  5  2  0
 12  3  2  0
  5  4  1  0
  5 15  1  0
  4  6  2  0
  4  2  1  0
  3  2  1  0
  3 13  1  0
  6  9  1  0
 10  8  2  0
  2  1  2  0
  9  8  1  0
  9  7  2  0
  1  7  1  0
  8 11  1  0
  1 16  1  0
  6 17  1  0
  7 18  1  0
 11 19  1  0
 13 20  1  0
 15 21  1  0
M  END
