
     RDKit          3D

 64 67  0  0  0  0  0  0  0  0999 V2000
    5.7674   -0.6149   -1.4795 O   0  0  0  0  0  0  0  0  0  0  0  0
    4.6027   -1.2812   -1.3995 C   0  0  0  0  0  0  0  0  0  0  0  0
    3.7091   -0.8853   -0.5330 N   0  0  0  0  0  0  0  0  0  0  0  0
    2.2734   -2.6400   -1.2512 N   0  0  0  0  0  0  0  0  0  0  0  0
    3.2103   -3.0057   -2.1181 C   0  0  0  0  0  0  0  0  0  0  0  0
    2.5649   -1.5903   -0.4809 C   0  0  0  0  0  0  0  0  0  0  0  0
    4.4242   -2.3677   -2.2559 C   0  0  0  0  0  0  0  0  0  0  0  0
    5.9948    0.4457   -0.6340 C   0  0  0  0  0  0  0  0  0  0  0  0
    6.5656    0.1908    0.6108 C   0  0  0  0  0  0  0  0  0  0  0  0
    6.8671    1.2801    1.4149 C   0  0  0  0  0  0  0  0  0  0  0  0
    6.5935    2.5733    0.9766 C   0  0  0  0  0  0  0  0  0  0  0  0
    6.0201    2.7961   -0.2725 C   0  0  0  0  0  0  0  0  0  0  0  0
    5.7062    1.7263   -1.0982 C   0  0  0  0  0  0  0  0  0  0  0  0
    5.0762    1.9427   -2.4400 C   0  0  0  0  0  0  0  0  0  0  0  0
    6.8444   -1.2089    1.0668 C   0  0  0  0  0  0  0  0  0  0  0  0
    6.9121    3.6834    1.8145 C   0  0  0  0  0  0  0  0  0  0  0  0
    1.6693   -1.1943    0.4361 N   0  0  0  0  0  0  0  0  0  0  0  0
    0.3673   -1.7921    0.6332 C   0  0  1  0  0  0  0  0  0  0  0  0
   -0.0862   -1.5765    2.0709 C   0  0  0  0  0  0  0  0  0  0  0  0
   -1.4737   -2.1585    2.2875 C   0  0  0  0  0  0  0  0  0  0  0  0
   -2.4310   -1.5813    1.3620 N   0  0  0  0  0  0  0  0  0  0  0  0
   -2.0499   -1.8361   -0.0160 C   0  0  0  0  0  0  0  0  0  0  0  0
   -0.6853   -1.2426   -0.3260 C   0  0  0  0  0  0  0  0  0  0  0  0
    7.1692    4.5793    2.4924 N   0  0  0  0  0  0  0  0  0  0  0  0
   -3.7808   -2.0217    1.6330 C   0  0  0  0  0  0  0  0  0  0  0  0
   -4.8139   -1.1435    0.9761 C   0  0  0  0  0  0  0  0  0  0  0  0
   -5.9636   -1.6951    0.4191 C   0  0  0  0  0  0  0  0  0  0  0  0
   -6.9381   -0.8893   -0.1489 C   0  0  0  0  0  0  0  0  0  0  0  0
   -6.7538    0.4858   -0.1555 C   0  0  0  0  0  0  0  0  0  0  0  0
   -5.6109    1.0595    0.3875 C   0  0  0  0  0  0  0  0  0  0  0  0
   -4.6470    0.2397    0.9485 C   0  0  0  0  0  0  0  0  0  0  0  0
   -7.9988    1.5254   -0.8678 S   0  0  1  0  0  0  0  0  0  0  0  0
   -7.3845    2.8031   -1.2250 O   0  0  0  0  0  0  0  0  0  0  0  0
   -8.6944    0.7696   -1.9083 O   0  0  0  0  0  0  0  0  0  0  0  0
   -9.1360    1.8078    0.4703 C   0  0  0  0  0  0  0  0  0  0  0  0
    2.9770   -3.8614   -2.7426 H   0  0  0  0  0  0  0  0  0  0  0  0
    5.1728   -2.6846   -2.9659 H   0  0  0  0  0  0  0  0  0  0  0  0
    7.3166    1.1219    2.3866 H   0  0  0  0  0  0  0  0  0  0  0  0
    5.8156    3.8063   -0.6020 H   0  0  0  0  0  0  0  0  0  0  0  0
    4.0479    1.5778   -2.4559 H   0  0  0  0  0  0  0  0  0  0  0  0
    5.0505    3.0026   -2.6851 H   0  0  0  0  0  0  0  0  0  0  0  0
    5.6170    1.4256   -3.2321 H   0  0  0  0  0  0  0  0  0  0  0  0
    7.4208   -1.7686    0.3300 H   0  0  0  0  0  0  0  0  0  0  0  0
    7.4056   -1.2042    1.9992 H   0  0  0  0  0  0  0  0  0  0  0  0
    5.9178   -1.7577    1.2436 H   0  0  0  0  0  0  0  0  0  0  0  0
    1.8943   -0.3566    0.9491 H   0  0  0  0  0  0  0  0  0  0  0  0
    0.4664   -2.8672    0.4584 H   0  0  0  0  0  0  0  0  0  0  0  0
    0.6170   -2.0434    2.7639 H   0  0  0  0  0  0  0  0  0  0  0  0
   -0.1073   -0.5048    2.2957 H   0  0  0  0  0  0  0  0  0  0  0  0
   -1.4266   -3.2577    2.1910 H   0  0  0  0  0  0  0  0  0  0  0  0
   -1.7998   -1.9460    3.3080 H   0  0  0  0  0  0  0  0  0  0  0  0
   -2.0359   -2.9207   -0.2280 H   0  0  0  0  0  0  0  0  0  0  0  0
   -2.7973   -1.3977   -0.6806 H   0  0  0  0  0  0  0  0  0  0  0  0
   -0.7295   -0.1535   -0.2322 H   0  0  0  0  0  0  0  0  0  0  0  0
   -0.4116   -1.4750   -1.3572 H   0  0  0  0  0  0  0  0  0  0  0  0
   -3.9499   -3.0703    1.3377 H   0  0  0  0  0  0  0  0  0  0  0  0
   -3.9432   -1.9823    2.7150 H   0  0  0  0  0  0  0  0  0  0  0  0
   -6.1000   -2.7696    0.4188 H   0  0  0  0  0  0  0  0  0  0  0  0
   -7.8203   -1.3374   -0.5858 H   0  0  0  0  0  0  0  0  0  0  0  0
   -5.4656    2.1314    0.3739 H   0  0  0  0  0  0  0  0  0  0  0  0
   -3.7457    0.6739    1.3601 H   0  0  0  0  0  0  0  0  0  0  0  0
   -8.6178    2.3109    1.2832 H   0  0  0  0  0  0  0  0  0  0  0  0
   -9.9383    2.4392    0.0892 H   0  0  0  0  0  0  0  0  0  0  0  0
   -9.5395    0.8567    0.8097 H   0  0  0  0  0  0  0  0  0  0  0  0
  1  2  1  0
  1  8  1  0
  2  3  2  0
  2  7  1  0
  3  6  1  0
  4  5  1  0
  4  6  2  0
  5  7  2  0
  6 17  1  0
  8  9  2  0
  8 13  1  0
  9 10  1  0
  9 15  1  0
 10 11  2  0
 11 12  1  0
 11 16  1  0
 12 13  2  0
 13 14  1  0
 16 24  3  0
 17 18  1  0
 18 19  1  0
 18 23  1  0
 19 20  1  0
 20 21  1  0
 21 22  1  0
 21 25  1  0
 22 23  1  0
 25 26  1  0
 26 27  2  0
 26 31  1  0
 27 28  1  0
 28 29  2  0
 29 30  1  0
 29 32  1  0
 30 31  2  0
 32 33  2  0
 32 34  2  0
 32 35  1  1
  5 36  1  0
  7 37  1  0
 10 38  1  0
 12 39  1  0
 14 40  1  0
 14 41  1  0
 14 42  1  0
 15 43  1  0
 15 44  1  0
 15 45  1  0
 17 46  1  0
 18 47  1  6
 19 48  1  0
 19 49  1  0
 20 50  1  0
 20 51  1  0
 22 52  1  0
 22 53  1  0
 23 54  1  0
 23 55  1  0
 25 56  1  0
 25 57  1  0
 27 58  1  0
 28 59  1  0
 30 60  1  0
 31 61  1  0
 35 62  1  0
 35 63  1  0
 35 64  1  0
M  END
