
     RDKit          3D

 45 48  0  0  0  0  0  0  0  0999 V2000
    4.0151    3.4098   -0.1004 O   0  0  0  0  0  0  0  0  0  0  0  0
    4.3892    2.3268   -0.9179 C   0  0  0  0  0  0  0  0  0  0  0  0
    4.1588    1.0405   -0.1542 C   0  0  2  0  0  0  0  0  0  0  0  0
    4.6487   -0.1841   -0.9291 C   0  0  1  0  0  0  0  0  0  0  0  0
    6.0386   -0.0678   -1.1013 O   0  0  0  0  0  0  0  0  0  0  0  0
    2.7682    0.9315    0.0828 O   0  0  0  0  0  0  0  0  0  0  0  0
    2.4161   -0.1809    0.8633 C   0  0  2  0  0  0  0  0  0  0  0  0
    2.7988   -1.4786    0.1514 C   0  0  2  0  0  0  0  0  0  0  0  0
    2.4486   -2.5387    1.0053 O   0  0  0  0  0  0  0  0  0  0  0  0
    4.2902   -1.4507   -0.1592 C   0  0  1  0  0  0  0  0  0  0  0  0
    4.6795   -2.5559   -0.9454 O   0  0  0  0  0  0  0  0  0  0  0  0
    0.9427   -0.1198    1.0784 C   0  0  0  0  0  0  0  0  0  0  0  0
    0.3434   -0.0916    2.2690 N   0  0  0  0  0  0  0  0  0  0  0  0
   -0.9785   -0.0453    2.1302 N   0  0  0  0  0  0  0  0  0  0  0  0
   -1.1351   -0.0418    0.8217 C   0  0  0  0  0  0  0  0  0  0  0  0
    0.0291   -0.0892    0.1359 N   0  0  0  0  0  0  0  0  0  0  0  0
   -2.4429    0.0105    0.1676 C   0  0  0  0  0  0  0  0  0  0  0  0
   -3.6054    0.0443    0.8989 C   0  0  0  0  0  0  0  0  0  0  0  0
   -4.8644    0.0953    0.2633 C   0  0  0  0  0  0  0  0  0  0  0  0
   -6.0712    0.1300    1.0028 C   0  0  0  0  0  0  0  0  0  0  0  0
   -7.2791    0.1794    0.3627 C   0  0  0  0  0  0  0  0  0  0  0  0
   -7.3389    0.1967   -1.0475 C   0  0  0  0  0  0  0  0  0  0  0  0
   -6.1887    0.1642   -1.7881 C   0  0  0  0  0  0  0  0  0  0  0  0
   -4.9260    0.1128   -1.1542 C   0  0  0  0  0  0  0  0  0  0  0  0
   -3.7162    0.0776   -1.8858 C   0  0  0  0  0  0  0  0  0  0  0  0
   -2.5104    0.0278   -1.2471 C   0  0  0  0  0  0  0  0  0  0  0  0
    4.1881    4.2211   -0.5858 H   0  0  0  0  0  0  0  0  0  0  0  0
    3.8050    2.2950   -1.8481 H   0  0  0  0  0  0  0  0  0  0  0  0
    5.4455    2.3785   -1.2007 H   0  0  0  0  0  0  0  0  0  0  0  0
    4.7012    1.0877    0.8043 H   0  0  0  0  0  0  0  0  0  0  0  0
    4.1300   -0.2075   -1.9013 H   0  0  0  0  0  0  0  0  0  0  0  0
    6.3561   -0.8808   -1.5095 H   0  0  0  0  0  0  0  0  0  0  0  0
    2.9245   -0.1516    1.8400 H   0  0  0  0  0  0  0  0  0  0  0  0
    2.2388   -1.5248   -0.7926 H   0  0  0  0  0  0  0  0  0  0  0  0
    2.3509   -3.3396    0.4824 H   0  0  0  0  0  0  0  0  0  0  0  0
    4.8446   -1.4382    0.7915 H   0  0  0  0  0  0  0  0  0  0  0  0
    4.8784   -3.2959   -0.3649 H   0  0  0  0  0  0  0  0  0  0  0  0
    0.7627   -0.1026    3.1876 H   0  0  0  0  0  0  0  0  0  0  0  0
   -3.5695    0.0324    1.9817 H   0  0  0  0  0  0  0  0  0  0  0  0
   -6.0241    0.1175    2.0850 H   0  0  0  0  0  0  0  0  0  0  0  0
   -8.1957    0.2060    0.9374 H   0  0  0  0  0  0  0  0  0  0  0  0
   -8.3012    0.2365   -1.5412 H   0  0  0  0  0  0  0  0  0  0  0  0
   -6.2332    0.1772   -2.8705 H   0  0  0  0  0  0  0  0  0  0  0  0
   -3.7558    0.0903   -2.9683 H   0  0  0  0  0  0  0  0  0  0  0  0
   -1.5952    0.0012   -1.8230 H   0  0  0  0  0  0  0  0  0  0  0  0
 11 10  1  0
  5  4  1  0
 10  4  1  0
 10  8  1  0
  4  3  1  0
  9  8  1  0
  8  7  1  0
  1  2  1  0
  3  2  1  0
  3  6  1  0
  7  6  1  0
  7 12  1  0
 13 12  1  0
 13 14  1  0
 12 16  2  0
 14 15  2  0
 16 15  1  0
 15 17  1  0
 17 18  2  0
 17 26  1  0
 18 19  1  0
 26 25  2  0
 19 20  2  0
 19 24  1  0
 20 21  1  0
 25 24  1  0
 24 23  2  0
 21 22  2  0
 23 22  1  0
  1 27  1  0
  2 28  1  0
  2 29  1  0
  3 30  1  1
  4 31  1  6
  5 32  1  0
  7 33  1  1
  8 34  1  6
  9 35  1  0
 10 36  1  1
 11 37  1  0
 13 38  1  0
 18 39  1  0
 20 40  1  0
 21 41  1  0
 22 42  1  0
 23 43  1  0
 25 44  1  0
 26 45  1  0
M  END
