
     RDKit          3D

 17 17  0  0  0  0  0  0  0  0999 V2000
   -1.6420    0.2845   -0.0647 C   0  0  0  0  0  0  0  0  0  0  0  0
   -0.2977    0.6135    0.0136 C   0  0  0  0  0  0  0  0  0  0  0  0
   -2.0372   -1.0648   -0.1040 C   0  0  0  0  0  0  0  0  0  0  0  0
   -1.0727   -2.0548   -0.0617 C   0  0  0  0  0  0  0  0  0  0  0  0
    0.6495   -0.4060    0.0543 C   0  0  0  0  0  0  0  0  0  0  0  0
    0.2796   -1.7354    0.0181 C   0  0  0  0  0  0  0  0  0  0  0  0
   -2.6534    1.1721   -0.1078 O   0  0  0  0  0  0  0  0  0  0  0  0
    2.4802    0.0550    0.1622 Br  0  0  0  0  0  0  0  0  0  0  0  0
   -3.3350   -1.4120   -0.1804 O   0  0  0  0  0  0  0  0  0  0  0  0
   -2.3492    2.5536   -0.0741 C   0  0  0  0  0  0  0  0  0  0  0  0
    0.0149    1.6487    0.0439 H   0  0  0  0  0  0  0  0  0  0  0  0
   -1.3788   -3.0930   -0.0915 H   0  0  0  0  0  0  0  0  0  0  0  0
    1.0145   -2.5274    0.0503 H   0  0  0  0  0  0  0  0  0  0  0  0
   -3.8934   -0.6254   -0.2097 H   0  0  0  0  0  0  0  0  0  0  0  0
   -1.8335    2.8300    0.8489 H   0  0  0  0  0  0  0  0  0  0  0  0
   -1.7373    2.8527   -0.9287 H   0  0  0  0  0  0  0  0  0  0  0  0
   -3.2987    3.0801   -0.1193 H   0  0  0  0  0  0  0  0  0  0  0  0
 10  7  1  0
  7  1  1  0
  2  1  2  0
  2  5  1  0
  1  3  1  0
  8  5  1  0
  5  6  2  0
  3  9  1  0
  3  4  2  0
  6  4  1  0
  2 11  1  0
  4 12  1  0
  6 13  1  0
  9 14  1  0
 10 15  1  0
 10 16  1  0
 10 17  1  0
M  END
