
     RDKit          3D

 22 23  0  0  0  0  0  0  0  0999 V2000
   -3.1747   -0.0730   -0.1222 O   0  0  0  0  0  0  0  0  0  0  0  0
   -1.9840    0.1828   -0.0965 C   0  0  0  0  0  0  0  0  0  0  0  0
   -1.4723    1.5877   -0.3186 C   0  0  0  0  0  0  0  0  0  0  0  0
   -0.2679    1.8097    0.4450 N   0  0  0  0  0  0  0  0  0  0  0  0
    0.7338    0.8864    0.2212 C   0  0  0  0  0  0  0  0  0  0  0  0
    2.0860    1.2099    0.2227 C   0  0  0  0  0  0  0  0  0  0  0  0
    3.0471    0.2275    0.0258 C   0  0  0  0  0  0  0  0  0  0  0  0
    2.6614   -1.0850   -0.1960 C   0  0  0  0  0  0  0  0  0  0  0  0
    1.3116   -1.4190   -0.2008 C   0  0  0  0  0  0  0  0  0  0  0  0
    0.3443   -0.4469    0.0172 C   0  0  0  0  0  0  0  0  0  0  0  0
   -1.0257   -0.7631    0.0943 N   0  0  0  0  0  0  0  0  0  0  0  0
   -1.4141   -2.1468    0.2966 C   0  0  0  0  0  0  0  0  0  0  0  0
   -1.3306    1.7296   -1.4012 H   0  0  0  0  0  0  0  0  0  0  0  0
   -2.2443    2.2834    0.0039 H   0  0  0  0  0  0  0  0  0  0  0  0
    0.0406    2.7702    0.4384 H   0  0  0  0  0  0  0  0  0  0  0  0
    2.3818    2.2390    0.3887 H   0  0  0  0  0  0  0  0  0  0  0  0
    4.0955    0.4956    0.0349 H   0  0  0  0  0  0  0  0  0  0  0  0
    3.4017   -1.8556   -0.3631 H   0  0  0  0  0  0  0  0  0  0  0  0
    1.0247   -2.4472   -0.3739 H   0  0  0  0  0  0  0  0  0  0  0  0
   -2.4542   -2.1921    0.5999 H   0  0  0  0  0  0  0  0  0  0  0  0
   -1.2935   -2.7379   -0.6124 H   0  0  0  0  0  0  0  0  0  0  0  0
   -0.8027   -2.5868    1.0824 H   0  0  0  0  0  0  0  0  0  0  0  0
  1  2  2  0
  2  3  1  0
  2 11  1  0
 12 11  1  0
  3  4  1  0
 11 10  1  0
 10  9  2  0
 10  5  1  0
  4  5  1  0
  9  8  1  0
  5  6  2  0
  8  7  2  0
  6  7  1  0
  3 13  1  0
  3 14  1  0
  4 15  1  0
  6 16  1  0
  7 17  1  0
  8 18  1  0
  9 19  1  0
 12 20  1  0
 12 21  1  0
 12 22  1  0
M  END
