
     RDKit          3D

 27 26  0  0  0  0  0  0  0  0999 V2000
    1.8515   -0.3152    3.0830 N   0  0  0  0  0  0  0  0  0  0  0  0
    0.5619    0.2713    2.7885 C   0  0  2  0  0  0  0  0  0  0  0  0
   -0.3917    0.0480    3.9522 C   0  0  0  0  0  0  0  0  0  0  0  0
   -0.5309   -0.9515    4.6606 O   0  0  0  0  0  0  0  0  0  0  0  0
   -0.1574   -0.2356    1.5259 C   0  0  0  0  0  0  0  0  0  0  0  0
    0.5367    0.2331    0.2670 C   0  0  0  0  0  0  0  0  0  0  0  0
   -0.3253   -0.1161   -0.9492 C   0  0  0  0  0  0  0  0  0  0  0  0
    0.2768    0.3283   -2.1912 N   0  0  0  0  0  0  0  0  0  0  0  0
   -0.2890    0.0566   -3.4807 C   0  0  0  0  0  0  0  0  0  0  0  0
    0.5269    0.6247   -4.5909 N   0  0  0  0  0  0  0  0  0  0  0  0
   -1.3974   -0.6179   -3.6111 N   0  0  0  0  0  0  0  0  0  0  0  0
    0.1851    0.4907   -5.8765 O   0  0  0  0  0  0  0  0  0  0  0  0
   -1.1835    1.1214    4.2177 O   0  0  0  0  0  0  0  0  0  0  0  0
    2.5739    0.1848    2.6033 H   0  0  0  0  0  0  0  0  0  0  0  0
    1.8779   -1.2822    2.8218 H   0  0  0  0  0  0  0  0  0  0  0  0
    0.7247    1.3873    2.6796 H   0  0  0  0  0  0  0  0  0  0  0  0
   -0.2133   -1.3551    1.5417 H   0  0  0  0  0  0  0  0  0  0  0  0
   -1.2099    0.1556    1.5433 H   0  0  0  0  0  0  0  0  0  0  0  0
    0.7042    1.3415    0.3143 H   0  0  0  0  0  0  0  0  0  0  0  0
    1.5419   -0.2569    0.1753 H   0  0  0  0  0  0  0  0  0  0  0  0
   -0.5149   -1.2291   -0.9464 H   0  0  0  0  0  0  0  0  0  0  0  0
   -1.3251    0.3971   -0.8521 H   0  0  0  0  0  0  0  0  0  0  0  0
    1.1305    0.8510   -2.1456 H   0  0  0  0  0  0  0  0  0  0  0  0
    1.3831    1.1392   -4.3798 H   0  0  0  0  0  0  0  0  0  0  0  0
   -1.7061   -0.7521   -4.5506 H   0  0  0  0  0  0  0  0  0  0  0  0
    0.2602   -0.4664   -6.0576 H   0  0  0  0  0  0  0  0  0  0  0  0
   -1.7678    0.9187    4.9676 H   0  0  0  0  0  0  0  0  0  0  0  0
  1  2  1  0
  1 14  1  0
  1 15  1  0
  2  3  1  0
  2  5  1  0
  2 16  1  6
  3  4  2  0
  3 13  1  0
  5  6  1  0
  5 17  1  0
  5 18  1  0
  6  7  1  0
  6 19  1  0
  6 20  1  0
  7  8  1  0
  7 21  1  0
  7 22  1  0
  8  9  1  0
  8 23  1  0
  9 10  1  0
  9 11  2  0
 10 12  1  0
 10 24  1  0
 11 25  1  0
 12 26  1  0
 13 27  1  0
M  END
