
     RDKit          3D

 53 55  0  0  0  0  0  0  0  0999 V2000
   -0.3782   -0.2478    5.8412 C   0  0  0  0  0  0  0  0  0  0  0  0
    2.5344    0.9297   -1.1877 N   0  0  0  0  0  0  0  0  0  0  0  0
    3.2950    1.2383   -2.2402 C   0  0  0  0  0  0  0  0  0  0  0  0
    1.3323    0.4515   -1.4730 C   0  0  0  0  0  0  0  0  0  0  0  0
    1.5979    0.5713   -3.7276 C   0  0  0  0  0  0  0  0  0  0  0  0
    2.8960    1.0863   -3.5421 C   0  0  0  0  0  0  0  0  0  0  0  0
    0.8317    0.2598   -2.7023 N   0  0  0  0  0  0  0  0  0  0  0  0
   -2.4805   -0.9534   -6.6424 C   0  0  0  0  0  0  0  0  0  0  0  0
   -1.4427   -0.5100   -7.4460 C   0  0  0  0  0  0  0  0  0  0  0  0
   -0.2592   -0.0684   -6.8866 C   0  0  0  0  0  0  0  0  0  0  0  0
   -0.0606   -0.0511   -5.4951 C   0  0  0  0  0  0  0  0  0  0  0  0
   -2.2899   -0.9382   -5.2727 C   0  0  0  0  0  0  0  0  0  0  0  0
    1.7440    0.5356    2.9971 C   0  0  0  0  0  0  0  0  0  0  0  0
    1.7362    0.5516    1.6123 C   0  0  0  0  0  0  0  0  0  0  0  0
   -1.1125   -0.5010   -4.6920 C   0  0  0  0  0  0  0  0  0  0  0  0
    0.6018    0.1368    0.9091 C   0  0  0  0  0  0  0  0  0  0  0  0
    0.6361    0.1116    3.7269 C   0  0  0  0  0  0  0  0  0  0  0  0
   -0.4975   -0.3003    3.0319 C   0  0  0  0  0  0  0  0  0  0  0  0
   -0.5043   -0.2850    1.6461 C   0  0  0  0  0  0  0  0  0  0  0  0
    0.7460    0.1314    5.0734 O   0  0  0  0  0  0  0  0  0  0  0  0
    1.1499    0.4028   -5.0062 N   0  0  0  0  0  0  0  0  0  0  0  0
   -3.5631   -1.4848   -4.2331 Cl  0  0  0  0  0  0  0  0  0  0  0  0
   -0.0190   -0.1624    7.3063 C   0  0  1  0  0  0  0  0  0  0  0  0
   -1.2749   -0.4032    8.1498 C   0  0  0  0  0  0  0  0  0  0  0  0
   -0.9062   -0.6493    9.5314 N   0  0  0  0  0  0  0  0  0  0  0  0
   -0.5313    0.5642   10.2313 C   0  0  0  0  0  0  0  0  0  0  0  0
   -1.9312   -1.3752   10.2538 C   0  0  0  0  0  0  0  0  0  0  0  0
    0.9527   -1.1277    7.6225 O   0  0  0  0  0  0  0  0  0  0  0  0
   -0.6904   -1.2709    5.5984 H   0  0  0  0  0  0  0  0  0  0  0  0
   -1.2252    0.4186    5.6359 H   0  0  0  0  0  0  0  0  0  0  0  0
    4.2805    1.6307   -2.0168 H   0  0  0  0  0  0  0  0  0  0  0  0
    3.5398    1.3466   -4.3703 H   0  0  0  0  0  0  0  0  0  0  0  0
   -3.4050   -1.2990   -7.0815 H   0  0  0  0  0  0  0  0  0  0  0  0
   -1.5598   -0.5089   -8.5209 H   0  0  0  0  0  0  0  0  0  0  0  0
    2.6329    0.8627    3.5226 H   0  0  0  0  0  0  0  0  0  0  0  0
    2.6120    0.8896    1.0833 H   0  0  0  0  0  0  0  0  0  0  0  0
   -0.9969   -0.5024   -3.6212 H   0  0  0  0  0  0  0  0  0  0  0  0
   -1.3877   -0.6407    3.5423 H   0  0  0  0  0  0  0  0  0  0  0  0
   -1.3990   -0.6149    1.1309 H   0  0  0  0  0  0  0  0  0  0  0  0
    1.8209    0.6698   -5.7109 H   0  0  0  0  0  0  0  0  0  0  0  0
    0.3598    0.8518    7.5060 H   0  0  0  0  0  0  0  0  0  0  0  0
   -1.7829   -1.2969    7.7744 H   0  0  0  0  0  0  0  0  0  0  0  0
   -1.9751    0.4383    8.0378 H   0  0  0  0  0  0  0  0  0  0  0  0
   -0.2188    0.3218   11.2471 H   0  0  0  0  0  0  0  0  0  0  0  0
    0.3098    1.0546    9.7408 H   0  0  0  0  0  0  0  0  0  0  0  0
   -1.3546    1.2905   10.2928 H   0  0  0  0  0  0  0  0  0  0  0  0
   -2.1621   -2.3079    9.7391 H   0  0  0  0  0  0  0  0  0  0  0  0
   -1.5730   -1.6226   11.2537 H   0  0  0  0  0  0  0  0  0  0  0  0
   -2.8668   -0.8084   10.3623 H   0  0  0  0  0  0  0  0  0  0  0  0
    0.7608   -1.3736    8.5426 H   0  0  0  0  0  0  0  0  0  0  0  0
    0.4761    0.1031   -0.4796 N   0  0  0  0  0  0  0  0  0  0  0  0
    1.0004    0.4758   -7.9484 Cl  0  0  0  0  0  0  0  0  0  0  0  0
   -0.4069   -0.2464   -0.8200 H   0  0  0  0  0  0  0  0  0  0  0  0
  1 20  1  0
  1 23  1  0
  1 29  1  0
  1 30  1  0
  2  3  2  0
  2  4  1  0
  3  6  1  0
  3 31  1  0
  4  7  2  0
  4 51  1  0
  5  6  2  0
  5  7  1  0
  5 21  1  0
  6 32  1  0
  8  9  2  0
  8 12  1  0
  8 33  1  0
  9 10  1  0
  9 34  1  0
 10 11  2  0
 10 52  1  0
 11 15  1  0
 11 21  1  0
 12 15  2  0
 12 22  1  0
 13 14  2  0
 13 17  1  0
 13 35  1  0
 14 16  1  0
 14 36  1  0
 15 37  1  0
 16 19  2  0
 16 51  1  0
 17 18  2  0
 17 20  1  0
 18 19  1  0
 18 38  1  0
 19 39  1  0
 21 40  1  0
 51 53  1  0
 23 24  1  0
 23 28  1  0
 23 41  1  6
 24 25  1  0
 24 42  1  0
 24 43  1  0
 25 26  1  0
 25 27  1  0
 26 44  1  0
 26 45  1  0
 26 46  1  0
 27 47  1  0
 27 48  1  0
 27 49  1  0
 28 50  1  0
M  END
