
     RDKit          3D

 59 63  0  0  0  0  0  0  0  0999 V2000
   -3.8876   -2.7348    0.7184 N   0  0  0  0  0  0  0  0  0  0  0  0
   -4.9989   -4.4215    1.2140 N   0  0  0  0  0  0  0  0  0  0  0  0
   -6.6100    2.9220   -0.2758 C   0  0  0  0  0  0  0  0  0  0  0  0
   -6.3544    1.5750   -0.0099 C   0  0  0  0  0  0  0  0  0  0  0  0
   -7.4302    0.6497    0.3746 C   0  0  0  0  0  0  0  0  0  0  0  0
   -6.9871   -0.7092    0.6306 C   0  0  0  0  0  0  0  0  0  0  0  0
   -5.6906   -1.0361    0.5142 C   0  0  0  0  0  0  0  0  0  0  0  0
   -5.0463    1.1107   -0.1042 C   0  0  0  0  0  0  0  0  0  0  0  0
    1.1061   -0.2287   -1.5456 C   0  0  0  0  0  0  0  0  0  0  0  0
    4.5015   -0.2189   -0.2353 C   0  0  0  0  0  0  0  0  0  0  0  0
    6.9789   -0.5787   -0.1381 C   0  0  0  0  0  0  0  0  0  0  0  0
    9.9325   -1.3978    1.1123 C   0  0  0  0  0  0  0  0  0  0  0  0
   11.1082   -0.9379    1.6904 C   0  0  0  0  0  0  0  0  0  0  0  0
   11.8495    0.0575    1.0660 C   0  0  0  0  0  0  0  0  0  0  0  0
   10.2277    0.1234   -0.7117 C   0  0  0  0  0  0  0  0  0  0  0  0
    0.7712    1.5624    0.5346 C   0  0  0  0  0  0  0  0  0  0  0  0
   -5.1695   -2.3692    0.7638 C   0  0  0  0  0  0  0  0  0  0  0  0
   -5.8719   -3.4312    1.0758 N   0  0  0  0  0  0  0  0  0  0  0  0
   -3.8058   -4.0177    1.0031 N   0  0  0  0  0  0  0  0  0  0  0  0
   -4.7299   -0.1788    0.1617 O   0  0  0  0  0  0  0  0  0  0  0  0
   -5.5776    3.7597   -0.6363 C   0  0  0  0  0  0  0  0  0  0  0  0
   -4.2765    3.2724   -0.7510 C   0  0  0  0  0  0  0  0  0  0  0  0
   -3.9897    1.9443   -0.4864 C   0  0  0  0  0  0  0  0  0  0  0  0
   -2.7010    1.4127   -0.6010 N   0  0  0  0  0  0  0  0  0  0  0  0
   -1.5952    1.9728   -0.0305 C   0  0  0  0  0  0  0  0  0  0  0  0
   -1.6605    2.9758    0.6571 O   0  0  0  0  0  0  0  0  0  0  0  0
   -0.3105    1.2766   -0.2932 C   0  0  0  0  0  0  0  0  0  0  0  0
    2.0049    0.9628    0.3472 C   0  0  0  0  0  0  0  0  0  0  0  0
    2.1823    0.0574   -0.7000 C   0  0  0  0  0  0  0  0  0  0  0  0
   -0.1180    0.3732   -1.3426 C   0  0  0  0  0  0  0  0  0  0  0  0
    3.3332   -0.5693   -0.9692 O   0  0  0  0  0  0  0  0  0  0  0  0
    5.6722   -0.9893   -0.8066 C   0  0  0  0  0  0  0  0  0  0  0  0
    8.1801   -1.3421   -0.6980 C   0  0  0  0  0  0  0  0  0  0  0  0
    9.4758   -0.8750   -0.0965 C   0  0  0  0  0  0  0  0  0  0  0  0
   11.4047    0.5871   -0.1384 C   0  0  0  0  0  0  0  0  0  0  0  0
   -3.0547   -2.1967    0.5184 H   0  0  0  0  0  0  0  0  0  0  0  0
   -7.6230    3.2932   -0.2007 H   0  0  0  0  0  0  0  0  0  0  0  0
   -7.7056   -1.4629    0.9221 H   0  0  0  0  0  0  0  0  0  0  0  0
    1.2441   -0.9168   -2.3695 H   0  0  0  0  0  0  0  0  0  0  0  0
    4.6814    0.8590   -0.3174 H   0  0  0  0  0  0  0  0  0  0  0  0
    4.3683   -0.4539    0.8264 H   0  0  0  0  0  0  0  0  0  0  0  0
    7.1372    0.4950   -0.2776 H   0  0  0  0  0  0  0  0  0  0  0  0
    6.9165   -0.7439    0.9421 H   0  0  0  0  0  0  0  0  0  0  0  0
   11.4469   -1.3594    2.6284 H   0  0  0  0  0  0  0  0  0  0  0  0
   12.7679    0.4154    1.5133 H   0  0  0  0  0  0  0  0  0  0  0  0
    9.8913    0.5413   -1.6539 H   0  0  0  0  0  0  0  0  0  0  0  0
    0.6526    2.2642    1.3489 H   0  0  0  0  0  0  0  0  0  0  0  0
   -5.7723    4.8017   -0.8487 H   0  0  0  0  0  0  0  0  0  0  0  0
   -3.4847    3.9364   -1.0674 H   0  0  0  0  0  0  0  0  0  0  0  0
   -2.6169    0.5058   -1.0312 H   0  0  0  0  0  0  0  0  0  0  0  0
    2.8114    1.2102    1.0233 H   0  0  0  0  0  0  0  0  0  0  0  0
   -0.9105    0.1469   -2.0456 H   0  0  0  0  0  0  0  0  0  0  0  0
    5.5098   -2.0632   -0.6776 H   0  0  0  0  0  0  0  0  0  0  0  0
    5.7407   -0.8007   -1.8818 H   0  0  0  0  0  0  0  0  0  0  0  0
    8.0461   -2.4112   -0.5118 H   0  0  0  0  0  0  0  0  0  0  0  0
    8.2107   -1.2143   -1.7835 H   0  0  0  0  0  0  0  0  0  0  0  0
   11.9773    1.3598   -0.6355 H   0  0  0  0  0  0  0  0  0  0  0  0
   -8.5958    0.9949    0.4709 O   0  0  0  0  0  0  0  0  0  0  0  0
    9.3601   -2.1753    1.6055 H   0  0  0  0  0  0  0  0  0  0  0  0
 13 14  1  0
 13 12  2  0
 14 35  2  0
 12 34  1  0
 35 15  1  0
 34 15  2  0
 34 33  1  0
 33 11  1  0
 11 32  1  0
 32 10  1  0
 10 31  1  0
 31 29  1  0
 29  9  2  0
 29 28  1  0
  9 30  1  0
 28 16  2  0
 30 27  2  0
 19  2  2  0
 19  1  1  0
 16 27  1  0
  2 18  1  0
 27 25  1  0
  1 17  1  0
 18 17  2  0
 17  7  1  0
 25 24  1  0
 25 26  2  0
 24 23  1  0
 20  7  1  0
 20  8  1  0
  7  6  2  0
 23  8  2  0
 23 22  1  0
  8  4  1  0
  6  5  1  0
 22 21  2  0
  4  5  1  0
  4  3  2  0
  5 58  2  0
 21  3  1  0
  1 36  1  0
  3 37  1  0
  6 38  1  0
  9 39  1  0
 10 40  1  0
 10 41  1  0
 11 42  1  0
 11 43  1  0
 12 59  1  0
 13 44  1  0
 14 45  1  0
 15 46  1  0
 16 47  1  0
 21 48  1  0
 22 49  1  0
 24 50  1  0
 28 51  1  0
 30 52  1  0
 32 53  1  0
 32 54  1  0
 33 55  1  0
 33 56  1  0
 35 57  1  0
M  END
