
     RDKit          3D

 64 68  0  0  0  0  0  0  0  0999 V2000
   -0.9824   -2.6547    1.1632 C   0  0  0  0  0  0  0  0  0  0  0  0
   -2.2514   -2.7981    0.7162 N   0  0  0  0  0  0  0  0  0  0  0  0
   -2.4748   -0.0804   -0.1829 O   0  0  0  0  0  0  0  0  0  0  0  0
   -8.3936    2.5561    1.4300 Cl  0  0  0  0  0  0  0  0  0  0  0  0
   -0.9910   -4.3874   -0.0700 C   0  0  0  0  0  0  0  0  0  0  0  0
   -0.1954   -3.5940    0.7097 N   0  0  0  0  0  0  0  0  0  0  0  0
   -3.8267   -1.5144   -1.2786 O   0  0  0  0  0  0  0  0  0  0  0  0
   -4.8389    1.0863   -2.2243 Cl  0  0  0  0  0  0  0  0  0  0  0  0
   -2.2707   -3.9140   -0.0762 C   0  0  0  0  0  0  0  0  0  0  0  0
    5.5862    0.5650    0.5420 N   0  0  0  0  0  0  0  0  0  0  0  0
    0.1724    0.6362   -0.7963 O   0  0  0  0  0  0  0  0  0  0  0  0
   -3.3611   -1.9411    1.0384 C   0  0  0  0  0  0  0  0  0  0  0  0
    8.4100    0.5814    0.7331 N   0  0  0  0  0  0  0  0  0  0  0  0
   10.1868    1.5898   -0.2197 O   0  0  0  0  0  0  0  0  0  0  0  0
   -3.6181   -0.8805   -0.0518 C   0  0  1  0  0  0  0  0  0  0  0  0
   -1.9346   -0.1750   -1.4918 C   0  0  2  0  0  0  0  0  0  0  0  0
   -2.7090   -1.3299   -2.1256 C   0  0  0  0  0  0  0  0  0  0  0  0
   -4.8343   -0.0160    0.2958 C   0  0  0  0  0  0  0  0  0  0  0  0
   -5.4206    0.8739   -0.6087 C   0  0  0  0  0  0  0  0  0  0  0  0
   -6.5100    1.6613   -0.2681 C   0  0  0  0  0  0  0  0  0  0  0  0
   -7.0376    1.5746    1.0078 C   0  0  0  0  0  0  0  0  0  0  0  0
   -6.4872    0.7154    1.9385 C   0  0  0  0  0  0  0  0  0  0  0  0
   -5.4009   -0.0605    1.5679 C   0  0  0  0  0  0  0  0  0  0  0  0
   -0.4506   -0.4447   -1.4517 C   0  0  0  0  0  0  0  0  0  0  0  0
    1.4960    0.5484   -0.5269 C   0  0  0  0  0  0  0  0  0  0  0  0
    2.0541    1.6042    0.1967 C   0  0  0  0  0  0  0  0  0  0  0  0
    3.3916    1.5969    0.5326 C   0  0  0  0  0  0  0  0  0  0  0  0
    4.2374    0.5460    0.1500 C   0  0  0  0  0  0  0  0  0  0  0  0
    3.6702   -0.4941   -0.5807 C   0  0  0  0  0  0  0  0  0  0  0  0
    2.3155   -0.5032   -0.9089 C   0  0  0  0  0  0  0  0  0  0  0  0
    6.3394   -0.6590    0.3687 C   0  0  0  0  0  0  0  0  0  0  0  0
    7.6484   -0.5813    1.1391 C   0  0  0  0  0  0  0  0  0  0  0  0
    7.6619    1.8123    0.8945 C   0  0  0  0  0  0  0  0  0  0  0  0
    6.3508    1.7363    0.1321 C   0  0  0  0  0  0  0  0  0  0  0  0
    9.6322    0.5639    0.1564 C   0  0  0  0  0  0  0  0  0  0  0  0
   10.3076   -0.7794    0.0040 C   0  0  0  0  0  0  0  0  0  0  0  0
   -0.6971   -1.8500    1.8248 H   0  0  0  0  0  0  0  0  0  0  0  0
   -0.6067   -5.2583   -0.5779 H   0  0  0  0  0  0  0  0  0  0  0  0
   -3.1688   -4.2674   -0.5536 H   0  0  0  0  0  0  0  0  0  0  0  0
   -4.2508   -2.5560    1.1733 H   0  0  0  0  0  0  0  0  0  0  0  0
   -3.1363   -1.4631    1.9905 H   0  0  0  0  0  0  0  0  0  0  0  0
   -2.1118    0.7640   -2.0238 H   0  0  0  0  0  0  0  0  0  0  0  0
   -2.1085   -2.2447   -2.1736 H   0  0  0  0  0  0  0  0  0  0  0  0
   -3.0561   -1.0927   -3.1310 H   0  0  0  0  0  0  0  0  0  0  0  0
   -6.9388    2.3372   -0.9947 H   0  0  0  0  0  0  0  0  0  0  0  0
   -6.8883    0.6430    2.9394 H   0  0  0  0  0  0  0  0  0  0  0  0
   -5.0014   -0.7193    2.3233 H   0  0  0  0  0  0  0  0  0  0  0  0
   -0.0891   -0.5453   -2.4835 H   0  0  0  0  0  0  0  0  0  0  0  0
   -0.2455   -1.3888   -0.9373 H   0  0  0  0  0  0  0  0  0  0  0  0
    1.4245    2.4262    0.5144 H   0  0  0  0  0  0  0  0  0  0  0  0
    3.7807    2.4178    1.1219 H   0  0  0  0  0  0  0  0  0  0  0  0
    4.2716   -1.3275   -0.9183 H   0  0  0  0  0  0  0  0  0  0  0  0
    1.9373   -1.3442   -1.4744 H   0  0  0  0  0  0  0  0  0  0  0  0
    5.7631   -1.4982    0.7613 H   0  0  0  0  0  0  0  0  0  0  0  0
    6.5564   -0.8725   -0.6900 H   0  0  0  0  0  0  0  0  0  0  0  0
    8.2115   -1.4966    0.9840 H   0  0  0  0  0  0  0  0  0  0  0  0
    7.4327   -0.5091    2.2099 H   0  0  0  0  0  0  0  0  0  0  0  0
    7.4588    1.9687    1.9586 H   0  0  0  0  0  0  0  0  0  0  0  0
    8.2498    2.6525    0.5367 H   0  0  0  0  0  0  0  0  0  0  0  0
    6.5584    1.7143   -0.9486 H   0  0  0  0  0  0  0  0  0  0  0  0
    5.7807    2.6417    0.3345 H   0  0  0  0  0  0  0  0  0  0  0  0
    9.7386   -1.4548   -0.6359 H   0  0  0  0  0  0  0  0  0  0  0  0
   11.2870   -0.6322   -0.4436 H   0  0  0  0  0  0  0  0  0  0  0  0
   10.4415   -1.2744    0.9664 H   0  0  0  0  0  0  0  0  0  0  0  0
  6  1  2  0
  1  2  1  0
  1 37  1  0
  9  2  1  0
  2 12  1  0
 15  3  1  0
  3 16  1  0
  4 21  1  0
  5  6  1  0
  5  9  2  0
  5 38  1  0
 15  7  1  0
  7 17  1  0
 19  8  1  0
  9 39  1  0
 28 10  1  0
 10 31  1  0
 10 34  1  0
 24 11  1  0
 11 25  1  0
 15 12  1  1
 12 40  1  0
 12 41  1  0
 32 13  1  0
 33 13  1  0
 13 35  1  0
 35 14  2  0
 18 15  1  0
 17 16  1  0
 16 24  1  0
 16 42  1  6
 17 43  1  0
 17 44  1  0
 19 18  2  0
 23 18  1  0
 20 19  1  0
 21 20  2  0
 20 45  1  0
 21 22  1  0
 22 23  2  0
 22 46  1  0
 23 47  1  0
 24 48  1  0
 24 49  1  0
 25 26  2  0
 25 30  1  0
 26 27  1  0
 26 50  1  0
 27 28  2  0
 27 51  1  0
 29 28  1  0
 30 29  2  0
 29 52  1  0
 30 53  1  0
 31 32  1  0
 31 54  1  0
 31 55  1  0
 32 56  1  0
 32 57  1  0
 34 33  1  0
 33 58  1  0
 33 59  1  0
 34 60  1  0
 34 61  1  0
 35 36  1  0
 36 62  1  0
 36 63  1  0
 36 64  1  0
M  END
