
     RDKit          3D

 32 35  0  0  0  0  0  0  0  0999 V2000
   -1.8164    1.6169   -0.2351 C   0  0  0  0  0  0  0  0  0  0  0  0
   -3.2602    1.7038   -0.2522 C   0  0  0  0  0  0  0  0  0  0  0  0
   -3.8663    2.7537   -0.4171 O   0  0  0  0  0  0  0  0  0  0  0  0
   -3.9418    0.4167   -0.0646 C   0  0  0  0  0  0  0  0  0  0  0  0
   -5.3368    0.3120   -0.0624 C   0  0  0  0  0  0  0  0  0  0  0  0
   -5.9455   -0.9112    0.1143 C   0  0  0  0  0  0  0  0  0  0  0  0
   -5.1664   -2.0582    0.2925 C   0  0  0  0  0  0  0  0  0  0  0  0
   -3.7890   -1.9829    0.2933 C   0  0  0  0  0  0  0  0  0  0  0  0
   -3.1890   -0.7403    0.1133 C   0  0  0  0  0  0  0  0  0  0  0  0
   -1.8364   -0.7096    0.1277 O   0  0  0  0  0  0  0  0  0  0  0  0
   -1.1788    0.4423   -0.0428 C   0  0  0  0  0  0  0  0  0  0  0  0
    0.2784    0.2693   -0.0151 C   0  0  0  0  0  0  0  0  0  0  0  0
    0.8559   -0.9658   -0.3106 C   0  0  0  0  0  0  0  0  0  0  0  0
    2.2309   -1.1155   -0.3013 C   0  0  0  0  0  0  0  0  0  0  0  0
    1.1092    1.3444    0.3047 C   0  0  0  0  0  0  0  0  0  0  0  0
    2.4812    1.1938    0.3185 C   0  0  0  0  0  0  0  0  0  0  0  0
    3.0561   -0.0396    0.0146 C   0  0  0  0  0  0  0  0  0  0  0  0
    4.5057   -0.1705    0.0367 C   0  0  0  0  0  0  0  0  0  0  0  0
    5.2113   -1.2978   -0.0929 N   0  0  0  0  0  0  0  0  0  0  0  0
    6.4983   -1.0137   -0.0196 N   0  0  0  0  0  0  0  0  0  0  0  0
    6.5796    0.2472    0.1498 N   0  0  0  0  0  0  0  0  0  0  0  0
    5.3738    0.8050    0.1901 N   0  0  0  0  0  0  0  0  0  0  0  0
   -1.2417    2.5173   -0.3997 H   0  0  0  0  0  0  0  0  0  0  0  0
   -5.9304    1.2056   -0.2018 H   0  0  0  0  0  0  0  0  0  0  0  0
   -7.0241   -0.9865    0.1161 H   0  0  0  0  0  0  0  0  0  0  0  0
   -5.6444   -3.0183    0.4335 H   0  0  0  0  0  0  0  0  0  0  0  0
   -3.1784   -2.8655    0.4317 H   0  0  0  0  0  0  0  0  0  0  0  0
    0.2444   -1.8189   -0.5680 H   0  0  0  0  0  0  0  0  0  0  0  0
    2.6421   -2.0839   -0.5543 H   0  0  0  0  0  0  0  0  0  0  0  0
    0.6886    2.3052    0.5690 H   0  0  0  0  0  0  0  0  0  0  0  0
    3.1074    2.0364    0.5781 H   0  0  0  0  0  0  0  0  0  0  0  0
    4.9089   -2.2540   -0.2163 H   0  0  0  0  0  0  0  0  0  0  0  0
 21 20  2  0
 21 22  1  0
 20 19  1  0
 22 18  2  0
 19 18  1  0
 18 17  1  0
 17 16  2  0
 17 14  1  0
 16 15  1  0
 14 13  2  0
 15 12  2  0
 13 12  1  0
 12 11  1  0
 11 10  1  0
 11  1  2  0
 10  9  1  0
  1  2  1  0
  9  8  1  0
  9  4  2  0
  8  7  2  0
  2  4  1  0
  2  3  2  0
  4  5  1  0
  7  6  1  0
  5  6  2  0
  1 23  1  0
  5 24  1  0
  6 25  1  0
  7 26  1  0
  8 27  1  0
 13 28  1  0
 14 29  1  0
 15 30  1  0
 16 31  1  0
 19 32  1  0
M  END
