
     RDKit          3D

 26 26  0  0  0  0  0  0  0  0999 V2000
    2.0132   -0.2389    0.8801 C   0  0  0  0  0  0  0  0  0  0  0  0
    3.2310   -0.2316    0.2400 C   0  0  0  0  0  0  0  0  0  0  0  0
    4.3092   -1.5785    0.4002 Cl  0  0  0  0  0  0  0  0  0  0  0  0
    3.6079    0.8759   -0.5421 C   0  0  0  0  0  0  0  0  0  0  0  0
    4.8160    0.9512   -1.1585 N   0  0  0  0  0  0  0  0  0  0  0  0
    2.7880    1.9169   -0.6551 N   0  0  0  0  0  0  0  0  0  0  0  0
    1.6183    1.9019   -0.0316 C   0  0  0  0  0  0  0  0  0  0  0  0
    1.1592    0.8550    0.7525 C   0  0  0  0  0  0  0  0  0  0  0  0
   -0.1972    0.8861    1.3940 C   0  0  0  0  0  0  0  0  0  0  0  0
   -1.3248    0.4810    0.4249 C   0  0  1  0  0  0  0  0  0  0  0  0
   -1.0590   -0.9181   -0.0884 C   0  0  0  0  0  0  0  0  0  0  0  0
   -0.8085   -0.9530   -1.3873 O   0  0  0  0  0  0  0  0  0  0  0  0
   -1.0523   -1.8948    0.6195 O   0  0  0  0  0  0  0  0  0  0  0  0
   -2.6656    0.5386    1.1464 C   0  0  0  0  0  0  0  0  0  0  0  0
   -4.1401    0.1623   -0.1051 Se  0  0  0  0  0  0  0  0  0  0  0  0
    1.7288   -1.0917    1.4842 H   0  0  0  0  0  0  0  0  0  0  0  0
    5.3054    0.0980   -1.3696 H   0  0  0  0  0  0  0  0  0  0  0  0
    4.9080    1.6689   -1.8585 H   0  0  0  0  0  0  0  0  0  0  0  0
    1.0016    2.7866   -0.1637 H   0  0  0  0  0  0  0  0  0  0  0  0
   -0.2150    0.2269    2.2649 H   0  0  0  0  0  0  0  0  0  0  0  0
   -0.4167    1.8927    1.7551 H   0  0  0  0  0  0  0  0  0  0  0  0
   -1.3224    1.1824   -0.4140 H   0  0  0  0  0  0  0  0  0  0  0  0
   -0.6213   -1.8631   -1.6654 H   0  0  0  0  0  0  0  0  0  0  0  0
   -2.6980   -0.1942    1.9529 H   0  0  0  0  0  0  0  0  0  0  0  0
   -2.8071    1.5301    1.5757 H   0  0  0  0  0  0  0  0  0  0  0  0
   -5.0993   -0.2130    0.9207 H   0  0  0  0  0  0  0  0  0  0  0  0
  6  7  2  0
  6  4  1  0
  7  8  1  0
  5  4  1  0
  4  2  2  0
  8  9  1  0
  8  1  2  0
  9 10  1  0
  2  1  1  0
  2  3  1  0
 10 14  1  0
 10 11  1  0
 14 15  1  0
 11 13  2  0
 11 12  1  0
  1 16  1  0
  5 17  1  0
  5 18  1  0
  7 19  1  0
  9 20  1  0
  9 21  1  0
 10 22  1  6
 12 23  1  0
 14 24  1  0
 14 25  1  0
 15 26  1  0
M  END
