
     RDKit          3D

 58 61  0  0  0  0  0  0  0  0999 V2000
    1.2051   -0.7554   -0.8181 C   0  0  0  0  0  0  0  0  0  0  0  0
   -0.1746   -0.9546   -0.4536 C   0  0  0  0  0  0  0  0  0  0  0  0
   -0.9370    0.1739   -0.6882 C   0  0  0  0  0  0  0  0  0  0  0  0
    0.0024    1.4749   -1.3073 S   0  0  0  0  0  0  0  0  0  0  0  0
    1.4313    0.5025   -1.2708 C   0  0  0  0  0  0  0  0  0  0  0  0
    2.7582    1.0587   -1.7000 C   0  0  0  0  0  0  0  0  0  0  0  0
    3.8074    0.1311   -1.3336 N   0  0  0  0  0  0  0  0  0  0  0  0
    3.4807   -1.2459   -1.6465 C   0  0  0  0  0  0  0  0  0  0  0  0
    2.3217   -1.7596   -0.8015 C   0  0  0  0  0  0  0  0  0  0  0  0
   -2.2815    0.2976   -0.4494 N   0  0  0  0  0  0  0  0  0  0  0  0
   -3.0133    1.4165   -0.6900 C   0  0  0  0  0  0  0  0  0  0  0  0
   -4.4919    1.2748   -0.3962 C   0  0  0  0  0  0  0  0  0  0  0  0
   -5.1260    2.5686   -0.0191 C   0  0  0  0  0  0  0  0  0  0  0  0
   -5.9005    3.3811   -0.7896 C   0  0  0  0  0  0  0  0  0  0  0  0
   -6.3228    4.5576   -0.1101 C   0  0  0  0  0  0  0  0  0  0  0  0
   -5.8563    4.6184    1.1662 C   0  0  0  0  0  0  0  0  0  0  0  0
   -4.9061    3.2439    1.5508 S   0  0  0  0  0  0  0  0  0  0  0  0
   -2.5103    2.4313   -1.1293 O   0  0  0  0  0  0  0  0  0  0  0  0
   -0.7720   -2.1506    0.1436 C   0  0  0  0  0  0  0  0  0  0  0  0
    0.1155   -3.0689    0.4631 O   0  0  0  0  0  0  0  0  0  0  0  0
    4.7462    0.3817   -0.3635 C   0  0  0  0  0  0  0  0  0  0  0  0
   -0.3334   -4.2988    1.0748 C   0  0  2  0  0  0  0  0  0  0  0  0
    0.9098   -4.9695    1.6383 C   0  0  0  0  0  0  0  0  0  0  0  0
    5.0171    1.6921   -0.1180 N   0  0  0  0  0  0  0  0  0  0  0  0
    1.5052   -5.7102    0.4448 C   0  0  0  0  0  0  0  0  0  0  0  0
    5.3094   -0.5284    0.2345 O   0  0  0  0  0  0  0  0  0  0  0  0
    0.2719   -6.2804   -0.2634 C   0  0  0  0  0  0  0  0  0  0  0  0
   -0.8697   -5.2791    0.0197 C   0  0  0  0  0  0  0  0  0  0  0  0
   -1.9673   -2.2778    0.3471 O   0  0  0  0  0  0  0  0  0  0  0  0
    5.7654    3.4908    1.3474 C   0  0  0  0  0  0  0  0  0  0  0  0
    6.0341    2.0863    0.8374 C   0  0  0  0  0  0  0  0  0  0  0  0
    2.7706    1.2436   -2.7794 H   0  0  0  0  0  0  0  0  0  0  0  0
    2.9174    2.0241   -1.2220 H   0  0  0  0  0  0  0  0  0  0  0  0
    3.2083   -1.2895   -2.7053 H   0  0  0  0  0  0  0  0  0  0  0  0
    4.3578   -1.8738   -1.5172 H   0  0  0  0  0  0  0  0  0  0  0  0
    2.6580   -1.9542    0.2202 H   0  0  0  0  0  0  0  0  0  0  0  0
    1.9883   -2.7167   -1.2037 H   0  0  0  0  0  0  0  0  0  0  0  0
   -2.7223   -0.5418   -0.0858 H   0  0  0  0  0  0  0  0  0  0  0  0
   -4.9707    0.9026   -1.3079 H   0  0  0  0  0  0  0  0  0  0  0  0
   -4.6592    0.5099    0.3652 H   0  0  0  0  0  0  0  0  0  0  0  0
   -6.1626    3.1448   -1.8117 H   0  0  0  0  0  0  0  0  0  0  0  0
   -6.9476    5.3200   -0.5529 H   0  0  0  0  0  0  0  0  0  0  0  0
   -6.0275    5.3866    1.9044 H   0  0  0  0  0  0  0  0  0  0  0  0
   -1.0702   -4.0609    1.8427 H   0  0  0  0  0  0  0  0  0  0  0  0
    1.5866   -4.2618    2.1195 H   0  0  0  0  0  0  0  0  0  0  0  0
    0.5942   -5.6860    2.4014 H   0  0  0  0  0  0  0  0  0  0  0  0
    4.8485    2.3576   -0.8557 H   0  0  0  0  0  0  0  0  0  0  0  0
    2.0396   -5.0134   -0.2058 H   0  0  0  0  0  0  0  0  0  0  0  0
    2.2154   -6.4832    0.7398 H   0  0  0  0  0  0  0  0  0  0  0  0
    0.4359   -6.4269   -1.3310 H   0  0  0  0  0  0  0  0  0  0  0  0
    0.0254   -7.2569    0.1573 H   0  0  0  0  0  0  0  0  0  0  0  0
   -1.7538   -5.7857    0.4076 H   0  0  0  0  0  0  0  0  0  0  0  0
   -1.1865   -4.7568   -0.8834 H   0  0  0  0  0  0  0  0  0  0  0  0
    6.5282    3.7810    2.0695 H   0  0  0  0  0  0  0  0  0  0  0  0
    5.7817    4.2209    0.5367 H   0  0  0  0  0  0  0  0  0  0  0  0
    4.7935    3.5488    1.8382 H   0  0  0  0  0  0  0  0  0  0  0  0
    6.0211    1.3812    1.6661 H   0  0  0  0  0  0  0  0  0  0  0  0
    7.0334    2.0361    0.3922 H   0  0  0  0  0  0  0  0  0  0  0  0
  5  1  2  0
  9  1  1  0
  1  2  1  0
  3  2  2  0
  2 19  1  0
  4  3  1  0
  3 10  1  0
  5  4  1  0
  6  5  1  0
  7  6  1  0
  6 32  1  0
  6 33  1  0
 21  7  1  0
  7  8  1  0
  8  9  1  0
  8 34  1  0
  8 35  1  0
  9 36  1  0
  9 37  1  0
 11 10  1  0
 10 38  1  0
 18 11  2  0
 11 12  1  0
 12 13  1  0
 12 39  1  0
 12 40  1  0
 13 14  2  0
 13 17  1  0
 14 15  1  0
 14 41  1  0
 15 16  2  0
 15 42  1  0
 17 16  1  0
 16 43  1  0
 19 20  1  0
 19 29  2  0
 20 22  1  0
 26 21  2  0
 21 24  1  0
 28 22  1  0
 22 23  1  0
 22 44  1  1
 25 23  1  0
 23 45  1  0
 23 46  1  0
 31 24  1  0
 24 47  1  0
 27 25  1  0
 25 48  1  0
 25 49  1  0
 27 28  1  0
 27 50  1  0
 27 51  1  0
 28 52  1  0
 28 53  1  0
 31 30  1  0
 30 54  1  0
 30 55  1  0
 30 56  1  0
 31 57  1  0
 31 58  1  0
M  END
