
     RDKit          3D

 22 22  0  0  0  0  0  0  0  0999 V2000
    1.8231    1.5197   -0.1149 C   0  0  0  0  0  0  0  0  0  0  0  0
    0.5990    0.7133    0.3042 C   0  0  1  0  0  0  0  0  0  0  0  0
   -0.6905    1.4357   -0.0918 C   0  0  0  0  0  0  0  0  0  0  0  0
   -1.9426    0.6650    0.3099 C   0  0  0  0  0  0  0  0  0  0  0  0
   -1.9227   -0.7490   -0.2583 C   0  0  0  0  0  0  0  0  0  0  0  0
   -0.6396   -1.4739    0.1309 C   0  0  0  0  0  0  0  0  0  0  0  0
    0.5994   -0.6908   -0.2933 C   0  0  2  0  0  0  0  0  0  0  0  0
    1.7882   -1.3469    0.1031 O   0  0  0  0  0  0  0  0  0  0  0  0
    1.7701    2.5339    0.2850 H   0  0  0  0  0  0  0  0  0  0  0  0
    2.7513    1.0736    0.2398 H   0  0  0  0  0  0  0  0  0  0  0  0
    1.8844    1.5994   -1.2033 H   0  0  0  0  0  0  0  0  0  0  0  0
    0.6059    0.6097    1.3980 H   0  0  0  0  0  0  0  0  0  0  0  0
   -0.6997    2.4322    0.3573 H   0  0  0  0  0  0  0  0  0  0  0  0
   -0.6941    1.5892   -1.1777 H   0  0  0  0  0  0  0  0  0  0  0  0
   -2.0082    0.6181    1.4021 H   0  0  0  0  0  0  0  0  0  0  0  0
   -2.8345    1.1962   -0.0315 H   0  0  0  0  0  0  0  0  0  0  0  0
   -2.7906   -1.3135    0.0902 H   0  0  0  0  0  0  0  0  0  0  0  0
   -2.0022   -0.7037   -1.3497 H   0  0  0  0  0  0  0  0  0  0  0  0
   -0.6117   -1.6175    1.2171 H   0  0  0  0  0  0  0  0  0  0  0  0
   -0.6176   -2.4710   -0.3211 H   0  0  0  0  0  0  0  0  0  0  0  0
    0.5750   -0.5807   -1.3914 H   0  0  0  0  0  0  0  0  0  0  0  0
    1.7721   -2.2361   -0.2642 H   0  0  0  0  0  0  0  0  0  0  0  0
  1  2  1  0
  2  3  1  0
  2  7  1  0
  3  4  1  0
  4  5  1  0
  5  6  1  0
  6  7  1  0
  7  8  1  0
  1  9  1  0
  1 10  1  0
  1 11  1  0
  2 12  1  1
  3 13  1  0
  3 14  1  0
  4 15  1  0
  4 16  1  0
  5 17  1  0
  5 18  1  0
  6 19  1  0
  6 20  1  0
  7 21  1  6
  8 22  1  0
M  END
