
     RDKit          3D

 14 13  0  0  0  0  0  0  0  0999 V2000
    1.9640   -0.1070   -0.0146 C   0  0  0  0  0  0  0  0  0  0  0  0
    0.5879    0.5443    0.0053 C   0  0  0  0  0  0  0  0  0  0  0  0
   -0.5493   -0.4701   -0.0140 C   0  0  0  0  0  0  0  0  0  0  0  0
   -1.9252    0.1814    0.0069 C   0  0  0  0  0  0  0  0  0  0  0  0
    2.1031   -0.7596    0.8497 H   0  0  0  0  0  0  0  0  0  0  0  0
    2.0974   -0.7174   -0.9101 H   0  0  0  0  0  0  0  0  0  0  0  0
    2.7618    0.6363    0.0008 H   0  0  0  0  0  0  0  0  0  0  0  0
    0.4929    1.1757    0.8943 H   0  0  0  0  0  0  0  0  0  0  0  0
    0.4864    1.2158   -0.8530 H   0  0  0  0  0  0  0  0  0  0  0  0
   -0.4545   -1.1011   -0.9034 H   0  0  0  0  0  0  0  0  0  0  0  0
   -0.4475   -1.1418    0.8440 H   0  0  0  0  0  0  0  0  0  0  0  0
   -2.0588    0.7892    0.9042 H   0  0  0  0  0  0  0  0  0  0  0  0
   -2.0641    0.8365   -0.8556 H   0  0  0  0  0  0  0  0  0  0  0  0
   -2.7231   -0.5619   -0.0110 H   0  0  0  0  0  0  0  0  0  0  0  0
  1  2  1  0
  1  5  1  0
  1  6  1  0
  1  7  1  0
  2  3  1  0
  2  8  1  0
  2  9  1  0
  3  4  1  0
  3 10  1  0
  3 11  1  0
  4 12  1  0
  4 13  1  0
  4 14  1  0
M  END
