
     RDKit          3D

 45 47  0  0  0  0  0  0  0  0999 V2000
   -0.4569   -1.2051   -0.2124 C   0  0  0  0  0  0  0  0  0  0  0  0
    2.1075   -0.0870    1.2876 C   0  0  0  0  0  0  0  0  0  0  0  0
   -0.4697   -2.0918   -1.2855 C   0  0  0  0  0  0  0  0  0  0  0  0
    3.4700    0.1011    1.4578 C   0  0  0  0  0  0  0  0  0  0  0  0
   -1.3505   -2.9617    1.2003 C   0  0  0  0  0  0  0  0  0  0  0  0
   -1.3487   -3.8107    0.1117 C   0  0  0  0  0  0  0  0  0  0  0  0
   -4.8385    3.8787    0.7498 C   0  0  0  0  0  0  0  0  0  0  0  0
    5.6365    0.8315    0.6115 C   0  0  0  0  0  0  0  0  0  0  0  0
   -1.7819   -5.0725    0.2669 F   0  0  0  0  0  0  0  0  0  0  0  0
    0.1591    0.5296   -1.7469 O   0  0  0  0  0  0  0  0  0  0  0  0
   -4.2513    2.7339    0.0886 N   0  0  0  0  0  0  0  0  0  0  0  0
    6.7693    0.9783    0.7633 N   0  0  0  0  0  0  0  0  0  0  0  0
    0.0911    0.2045   -0.3665 C   0  0  1  0  0  0  0  0  0  0  0  0
   -0.7472    1.2603    0.3709 C   0  0  0  0  0  0  0  0  0  0  0  0
    1.5334    0.2759    0.0816 C   0  0  0  0  0  0  0  0  0  0  0  0
    2.2933    0.8210   -0.9384 C   0  0  0  0  0  0  0  0  0  0  0  0
   -2.1705    1.3921   -0.1544 C   0  0  0  0  0  0  0  0  0  0  0  0
    1.3981    1.1206   -2.0965 C   0  0  0  0  0  0  0  0  0  0  0  0
   -2.9644    2.3982    0.6686 C   0  0  0  0  0  0  0  0  0  0  0  0
    3.6505    1.0190   -0.7904 C   0  0  0  0  0  0  0  0  0  0  0  0
   -0.9045   -1.6603    1.0265 C   0  0  0  0  0  0  0  0  0  0  0  0
    4.2333    0.6496    0.4238 C   0  0  0  0  0  0  0  0  0  0  0  0
   -0.9171   -3.3970   -1.1319 C   0  0  0  0  0  0  0  0  0  0  0  0
   -5.1745    1.6197    0.0874 C   0  0  0  0  0  0  0  0  0  0  0  0
    1.5243   -0.5188    2.0905 H   0  0  0  0  0  0  0  0  0  0  0  0
   -0.1322   -1.7720   -2.2606 H   0  0  0  0  0  0  0  0  0  0  0  0
    3.9454   -0.1809    2.3872 H   0  0  0  0  0  0  0  0  0  0  0  0
   -1.6954   -3.3034    2.1671 H   0  0  0  0  0  0  0  0  0  0  0  0
   -4.1612    4.7326    0.6975 H   0  0  0  0  0  0  0  0  0  0  0  0
   -5.7682    4.1600    0.2527 H   0  0  0  0  0  0  0  0  0  0  0  0
   -5.0707    3.6999    1.8119 H   0  0  0  0  0  0  0  0  0  0  0  0
   -0.7568    1.0349    1.4410 H   0  0  0  0  0  0  0  0  0  0  0  0
   -0.2311    2.2213    0.2802 H   0  0  0  0  0  0  0  0  0  0  0  0
   -2.1510    1.7225   -1.1949 H   0  0  0  0  0  0  0  0  0  0  0  0
   -2.6618    0.4163   -0.1419 H   0  0  0  0  0  0  0  0  0  0  0  0
    1.7556    0.6859   -3.0332 H   0  0  0  0  0  0  0  0  0  0  0  0
    1.2936    2.2013   -2.2491 H   0  0  0  0  0  0  0  0  0  0  0  0
   -2.3835    3.3230    0.7374 H   0  0  0  0  0  0  0  0  0  0  0  0
   -3.0685    2.0237    1.7034 H   0  0  0  0  0  0  0  0  0  0  0  0
    4.2511    1.4444   -1.5839 H   0  0  0  0  0  0  0  0  0  0  0  0
   -0.9177   -1.0020    1.8854 H   0  0  0  0  0  0  0  0  0  0  0  0
   -0.9281   -4.0796   -1.9715 H   0  0  0  0  0  0  0  0  0  0  0  0
   -6.1108    1.9183   -0.3866 H   0  0  0  0  0  0  0  0  0  0  0  0
   -4.7776    0.7798   -0.4826 H   0  0  0  0  0  0  0  0  0  0  0  0
   -5.4149    1.2556    1.0995 H   0  0  0  0  0  0  0  0  0  0  0  0
  9  6  1  0
  5  6  2  0
  5 21  1  0
  6 23  1  0
 21  1  2  0
  4  2  2  0
  4 22  1  0
 12  8  3  0
 23  3  2  0
  2 15  1  0
  8 22  1  0
 22 20  2  0
  1  3  1  0
  1 13  1  0
 15 13  1  0
 15 16  2  0
 20 16  1  0
 13 14  1  1
 13 10  1  0
 16 18  1  0
 24 11  1  0
 14 17  1  0
 10 18  1  0
 17 19  1  0
  7 11  1  0
 11 19  1  0
  2 25  1  0
  3 26  1  0
  4 27  1  0
  5 28  1  0
  7 29  1  0
  7 30  1  0
  7 31  1  0
 14 32  1  0
 14 33  1  0
 17 34  1  0
 17 35  1  0
 18 36  1  0
 18 37  1  0
 19 38  1  0
 19 39  1  0
 20 40  1  0
 21 41  1  0
 23 42  1  0
 24 43  1  0
 24 44  1  0
 24 45  1  0
M  END
