
     RDKit          3D

 73 75  0  0  0  0  0  0  0  0999 V2000
    2.2353   -1.4946    2.3423 C   0  0  0  0  0  0  0  0  0  0  0  0
    1.6877   -0.5763    1.4261 O   0  0  0  0  0  0  0  0  0  0  0  0
    0.9169    0.4257    2.0260 C   0  0  0  0  0  0  0  0  0  0  0  0
    0.3110    1.2720    0.9101 C   0  0  2  0  0  0  0  0  0  0  0  0
   -0.6037    0.5140    0.0969 N   0  0  0  0  0  0  0  0  0  0  0  0
   -1.7808    0.0533    0.5336 C   0  0  0  0  0  0  0  0  0  0  0  0
   -2.5138   -0.8512   -0.4657 C   0  0  2  0  0  0  0  0  0  0  0  0
   -3.8402   -1.1959   -0.0001 N   0  0  0  0  0  0  0  0  0  0  0  0
   -4.9987   -0.0196    0.1141 S   0  0  1  0  0  0  0  0  0  0  0  0
   -6.2817   -0.6428   -0.9807 C   0  0  0  0  0  0  0  0  0  0  0  0
   -7.4235    0.3226   -1.0282 C   0  0  0  0  0  0  0  0  0  0  0  0
   -7.4359    1.3475   -1.9704 C   0  0  0  0  0  0  0  0  0  0  0  0
   -8.4867    2.2529   -2.0090 C   0  0  0  0  0  0  0  0  0  0  0  0
   -9.5311    2.1463   -1.0996 C   0  0  0  0  0  0  0  0  0  0  0  0
   -9.5214    1.1295   -0.1533 C   0  0  0  0  0  0  0  0  0  0  0  0
   -8.4700    0.2249   -0.1150 C   0  0  0  0  0  0  0  0  0  0  0  0
   -5.5447    0.0063    1.4628 O   0  0  0  0  0  0  0  0  0  0  0  0
   -4.4649    1.2029   -0.4722 O   0  0  0  0  0  0  0  0  0  0  0  0
   -1.7321   -2.1355   -0.7114 C   0  0  0  0  0  0  0  0  0  0  0  0
   -1.5440   -2.7780    0.5250 O   0  0  0  0  0  0  0  0  0  0  0  0
   -2.2496    0.3100    1.6295 O   0  0  0  0  0  0  0  0  0  0  0  0
    1.4020    1.8154   -0.0208 C   0  0  0  0  0  0  0  0  0  0  0  0
    1.3762    1.6076   -1.2234 O   0  0  0  0  0  0  0  0  0  0  0  0
    2.3700    2.5222    0.5760 N   0  0  0  0  0  0  0  0  0  0  0  0
    3.4934    3.0665   -0.1438 C   0  0  0  0  0  0  0  0  0  0  0  0
    4.6053    2.0840   -0.4360 C   0  0  0  0  0  0  0  0  0  0  0  0
    4.5151    0.7296   -0.1405 C   0  0  0  0  0  0  0  0  0  0  0  0
    5.5575   -0.1319   -0.4470 C   0  0  0  0  0  0  0  0  0  0  0  0
    6.7192    0.3346   -1.0524 C   0  0  0  0  0  0  0  0  0  0  0  0
    6.8111    1.6949   -1.3489 C   0  0  0  0  0  0  0  0  0  0  0  0
    5.7690    2.5537   -1.0416 C   0  0  0  0  0  0  0  0  0  0  0  0
    7.8336   -0.6082   -1.3492 C   0  0  0  0  0  0  0  0  0  0  0  0
    8.1256   -1.6330   -0.6414 N   0  0  0  0  0  0  0  0  0  0  0  0
    8.5876   -0.2855   -2.4376 N   0  0  0  0  0  0  0  0  0  0  0  0
    2.9976   -2.5297    1.5682 C   0  0  0  0  0  0  0  0  0  0  0  0
    4.3403   -2.7759    1.8291 C   0  0  0  0  0  0  0  0  0  0  0  0
    5.0406   -3.7302    1.0990 C   0  0  0  0  0  0  0  0  0  0  0  0
    4.4015   -4.4407    0.0936 C   0  0  0  0  0  0  0  0  0  0  0  0
    3.0578   -4.1999   -0.1731 C   0  0  0  0  0  0  0  0  0  0  0  0
    2.3611   -3.2521    0.5605 C   0  0  0  0  0  0  0  0  0  0  0  0
    2.8991   -0.9930    3.0588 H   0  0  0  0  0  0  0  0  0  0  0  0
    1.4332   -1.9677    2.9263 H   0  0  0  0  0  0  0  0  0  0  0  0
    1.5188    1.0561    2.6951 H   0  0  0  0  0  0  0  0  0  0  0  0
    0.1145    0.0032    2.6409 H   0  0  0  0  0  0  0  0  0  0  0  0
   -0.2058    2.1205    1.3710 H   0  0  0  0  0  0  0  0  0  0  0  0
   -0.2903    0.2948   -0.8373 H   0  0  0  0  0  0  0  0  0  0  0  0
   -2.5925   -0.3390   -1.4275 H   0  0  0  0  0  0  0  0  0  0  0  0
   -3.8521   -1.8140    0.8042 H   0  0  0  0  0  0  0  0  0  0  0  0
   -5.8138   -0.7818   -1.9557 H   0  0  0  0  0  0  0  0  0  0  0  0
   -6.5751   -1.6193   -0.5936 H   0  0  0  0  0  0  0  0  0  0  0  0
   -6.6286    1.4311   -2.6873 H   0  0  0  0  0  0  0  0  0  0  0  0
   -8.4904    3.0413   -2.7500 H   0  0  0  0  0  0  0  0  0  0  0  0
  -10.3531    2.8492   -1.1322 H   0  0  0  0  0  0  0  0  0  0  0  0
  -10.3343    1.0393    0.5553 H   0  0  0  0  0  0  0  0  0  0  0  0
   -8.4699   -0.5693    0.6209 H   0  0  0  0  0  0  0  0  0  0  0  0
   -2.2978   -2.7530   -1.4167 H   0  0  0  0  0  0  0  0  0  0  0  0
   -0.7790   -1.8861   -1.1915 H   0  0  0  0  0  0  0  0  0  0  0  0
   -1.2731   -3.6861    0.3641 H   0  0  0  0  0  0  0  0  0  0  0  0
    2.3492    2.6557    1.5737 H   0  0  0  0  0  0  0  0  0  0  0  0
    3.8874    3.8931    0.4479 H   0  0  0  0  0  0  0  0  0  0  0  0
    3.1454    3.5018   -1.0827 H   0  0  0  0  0  0  0  0  0  0  0  0
    3.6310    0.3214    0.3289 H   0  0  0  0  0  0  0  0  0  0  0  0
    5.4385   -1.1852   -0.2232 H   0  0  0  0  0  0  0  0  0  0  0  0
    7.7073    2.0963   -1.8042 H   0  0  0  0  0  0  0  0  0  0  0  0
    5.8674    3.6082   -1.2730 H   0  0  0  0  0  0  0  0  0  0  0  0
    7.5418   -1.6752    0.1853 H   0  0  0  0  0  0  0  0  0  0  0  0
    9.2595   -0.9755   -2.7342 H   0  0  0  0  0  0  0  0  0  0  0  0
    8.1497    0.2156   -3.1923 H   0  0  0  0  0  0  0  0  0  0  0  0
    4.8479   -2.2153    2.6055 H   0  0  0  0  0  0  0  0  0  0  0  0
    6.0859   -3.9126    1.3135 H   0  0  0  0  0  0  0  0  0  0  0  0
    4.9461   -5.1803   -0.4789 H   0  0  0  0  0  0  0  0  0  0  0  0
    2.5521   -4.7535   -0.9539 H   0  0  0  0  0  0  0  0  0  0  0  0
    1.3119   -3.0742    0.3564 H   0  0  0  0  0  0  0  0  0  0  0  0
  1  2  1  0
  1 35  1  0
  1 41  1  0
  1 42  1  0
  2  3  1  0
  3  4  1  0
  3 43  1  0
  3 44  1  0
  4  5  1  0
  4 22  1  0
  4 45  1  1
  5  6  1  0
  5 46  1  0
  6  7  1  0
  6 21  2  0
  7  8  1  0
  7 19  1  0
  7 47  1  6
  9  8  1  1
  8 48  1  0
  9 10  1  0
  9 17  2  0
  9 18  2  0
 10 11  1  0
 10 49  1  0
 10 50  1  0
 11 12  2  0
 11 16  1  0
 12 13  1  0
 12 51  1  0
 13 14  2  0
 13 52  1  0
 14 15  1  0
 14 53  1  0
 15 16  2  0
 15 54  1  0
 16 55  1  0
 19 20  1  0
 19 56  1  0
 19 57  1  0
 20 58  1  0
 22 23  2  0
 22 24  1  0
 24 25  1  0
 24 59  1  0
 25 26  1  0
 25 60  1  0
 25 61  1  0
 26 27  2  0
 26 31  1  0
 27 28  1  0
 27 62  1  0
 28 29  2  0
 28 63  1  0
 29 30  1  0
 29 32  1  0
 30 31  2  0
 30 64  1  0
 31 65  1  0
 32 33  2  0
 32 34  1  0
 33 66  1  0
 34 67  1  0
 34 68  1  0
 35 36  2  0
 35 40  1  0
 36 37  1  0
 36 69  1  0
 37 38  2  0
 37 70  1  0
 38 39  1  0
 38 71  1  0
 39 40  2  0
 39 72  1  0
 40 73  1  0
M  END
