
     RDKit          3D

158160  0  0  0  0  0  0  0  0999 V2000
   -7.4113   -0.4717   -0.4597 O   0  0  0  0  0  0  0  0  0  0  0  0
   -6.7487    0.5435   -0.6345 C   0  0  0  0  0  0  0  0  0  0  0  0
   -5.4245    0.5192   -1.3608 C   0  0  0  0  0  0  0  0  0  0  0  0
   -7.1483    1.7371   -0.1665 N   0  0  0  0  0  0  0  0  0  0  0  0
   -8.3903    1.8979    0.5482 C   0  0  1  0  0  0  0  0  0  0  0  0
   -8.4724    3.3300    1.0825 C   0  0  0  0  0  0  0  0  0  0  0  0
   -9.7266    3.6698    1.8899 C   0  0  1  0  0  0  0  0  0  0  0  0
   -9.8851    2.7953    3.1293 C   0  0  0  0  0  0  0  0  0  0  0  0
   -9.6835    5.1435    2.2838 C   0  0  0  0  0  0  0  0  0  0  0  0
   -9.5716    1.6234   -0.3837 C   0  0  0  0  0  0  0  0  0  0  0  0
  -10.5356    0.8571    0.1464 N   0  0  0  0  0  0  0  0  0  0  0  0
  -11.7988    0.5748   -0.4810 C   0  0  1  0  0  0  0  0  0  0  0  0
  -11.9466   -0.9156   -0.8160 C   0  0  0  0  0  0  0  0  0  0  0  0
  -10.9252   -1.4499   -1.8201 C   0  0  1  0  0  0  0  0  0  0  0  0
  -11.0636   -2.9656   -1.9274 C   0  0  0  0  0  0  0  0  0  0  0  0
  -11.0796   -0.8005   -3.1919 C   0  0  0  0  0  0  0  0  0  0  0  0
  -12.9303    0.9902    0.4586 C   0  0  0  0  0  0  0  0  0  0  0  0
  -12.7900    0.9807    1.6716 O   0  0  0  0  0  0  0  0  0  0  0  0
  -14.0770    1.3038   -0.1649 N   0  0  0  0  0  0  0  0  0  0  0  0
  -15.3173    1.6410    0.5087 C   0  0  1  0  0  0  0  0  0  0  0  0
  -15.9030    2.8996   -0.1329 C   0  0  0  0  0  0  0  0  0  0  0  0
  -17.2083    3.4124    0.4785 C   0  0  1  0  0  0  0  0  0  0  0  0
  -17.0743    3.6775    1.9745 C   0  0  0  0  0  0  0  0  0  0  0  0
  -17.6528    4.6766   -0.2515 C   0  0  0  0  0  0  0  0  0  0  0  0
   -9.6214    2.1220   -1.4969 O   0  0  0  0  0  0  0  0  0  0  0  0
  -16.3007    0.4667    0.4795 C   0  0  0  0  0  0  0  0  0  0  0  0
  -16.9293   -2.0942    1.1550 S   0  0  2  0  0  0  0  0  0  0  0  0
  -17.9914   -1.6786    2.0730 O   0  0  0  0  0  0  0  0  0  0  0  0
  -17.3120   -2.4524   -0.2118 O   0  0  0  0  0  0  0  0  0  0  0  0
  -16.0581   -3.4637    1.8808 C   0  0  0  0  0  0  0  0  0  0  0  0
   -5.6077    0.1385   -2.3696 H   0  0  0  0  0  0  0  0  0  0  0  0
   -5.0109    1.5243   -1.4721 H   0  0  0  0  0  0  0  0  0  0  0  0
   -6.6007    2.5579   -0.3686 H   0  0  0  0  0  0  0  0  0  0  0  0
   -8.4037    1.1957    1.3871 H   0  0  0  0  0  0  0  0  0  0  0  0
   -7.5903    3.5021    1.7088 H   0  0  0  0  0  0  0  0  0  0  0  0
   -8.3975    4.0192    0.2351 H   0  0  0  0  0  0  0  0  0  0  0  0
  -10.6061    3.5258    1.2529 H   0  0  0  0  0  0  0  0  0  0  0  0
  -10.7436    3.1188    3.7191 H   0  0  0  0  0  0  0  0  0  0  0  0
  -10.0476    1.7448    2.8887 H   0  0  0  0  0  0  0  0  0  0  0  0
   -9.0003    2.8602    3.7664 H   0  0  0  0  0  0  0  0  0  0  0  0
   -9.5679    5.7869    1.4101 H   0  0  0  0  0  0  0  0  0  0  0  0
  -10.6011    5.4393    2.7942 H   0  0  0  0  0  0  0  0  0  0  0  0
   -8.8492    5.3453    2.9599 H   0  0  0  0  0  0  0  0  0  0  0  0
  -10.3918    0.4762    1.0684 H   0  0  0  0  0  0  0  0  0  0  0  0
  -11.8520    1.1693   -1.3937 H   0  0  0  0  0  0  0  0  0  0  0  0
  -11.8775   -1.4875    0.1160 H   0  0  0  0  0  0  0  0  0  0  0  0
  -12.9543   -1.0930   -1.2079 H   0  0  0  0  0  0  0  0  0  0  0  0
   -9.9219   -1.2255   -1.4433 H   0  0  0  0  0  0  0  0  0  0  0  0
  -12.0585   -3.2441   -2.2833 H   0  0  0  0  0  0  0  0  0  0  0  0
  -10.3357   -3.3770   -2.6285 H   0  0  0  0  0  0  0  0  0  0  0  0
  -10.9065   -3.4519   -0.9630 H   0  0  0  0  0  0  0  0  0  0  0  0
  -12.0904   -0.9457   -3.5816 H   0  0  0  0  0  0  0  0  0  0  0  0
  -10.8759    0.2699   -3.1670 H   0  0  0  0  0  0  0  0  0  0  0  0
  -10.3852   -1.2430   -3.9083 H   0  0  0  0  0  0  0  0  0  0  0  0
  -14.0895    1.2995   -1.1740 H   0  0  0  0  0  0  0  0  0  0  0  0
  -15.0570    1.8536    1.5468 H   0  0  0  0  0  0  0  0  0  0  0  0
  -14.8727   -1.1784    0.4861 H   0  0  0  0  0  0  0  0  0  0  0  0
  -15.3502   -0.6316    2.1046 H   0  0  0  0  0  0  0  0  0  0  0  0
  -15.1477    3.6898   -0.0669 H   0  0  0  0  0  0  0  0  0  0  0  0
  -16.0628    2.7107   -1.2007 H   0  0  0  0  0  0  0  0  0  0  0  0
  -17.9880    2.6575    0.3292 H   0  0  0  0  0  0  0  0  0  0  0  0
  -18.0086    4.0573    2.3900 H   0  0  0  0  0  0  0  0  0  0  0  0
  -16.8157    2.7770    2.5337 H   0  0  0  0  0  0  0  0  0  0  0  0
  -16.2965    4.4203    2.1696 H   0  0  0  0  0  0  0  0  0  0  0  0
  -16.9113    5.4713   -0.1413 H   0  0  0  0  0  0  0  0  0  0  0  0
  -17.7878    4.4952   -1.3193 H   0  0  0  0  0  0  0  0  0  0  0  0
  -18.5992    5.0483    0.1443 H   0  0  0  0  0  0  0  0  0  0  0  0
  -17.1947    0.7472    1.0397 H   0  0  0  0  0  0  0  0  0  0  0  0
  -16.6113    0.2735   -0.5504 H   0  0  0  0  0  0  0  0  0  0  0  0
  -15.7196   -3.1906    2.8774 H   0  0  0  0  0  0  0  0  0  0  0  0
  -16.7571   -4.2967    1.9399 H   0  0  0  0  0  0  0  0  0  0  0  0
  -15.2126   -3.7337    1.2520 H   0  0  0  0  0  0  0  0  0  0  0  0
   -4.4160   -0.3823   -0.6505 C   0  0  0  0  0  0  0  0  0  0  0  0
   -3.1120   -0.5220   -1.4242 C   0  0  0  0  0  0  0  0  0  0  0  0
   -2.0942   -1.3874   -0.6930 C   0  0  0  0  0  0  0  0  0  0  0  0
   -0.7970   -1.5719   -1.4693 C   0  0  0  0  0  0  0  0  0  0  0  0
    0.1959   -2.4298   -0.7028 C   0  0  0  0  0  0  0  0  0  0  0  0
    1.4359   -2.5737   -1.4371 N   0  0  0  0  0  0  0  0  0  0  0  0
    2.4084   -3.4189   -1.0662 C   0  0  0  0  0  0  0  0  0  0  0  0
    2.2979   -4.1548   -0.0921 O   0  0  0  0  0  0  0  0  0  0  0  0
    3.6489   -3.4202   -1.9333 C   0  0  0  0  0  0  0  0  0  0  0  0
    4.9306   -3.3710   -1.1079 C   0  0  0  0  0  0  0  0  0  0  0  0
    6.1809   -3.4367   -1.9752 C   0  0  0  0  0  0  0  0  0  0  0  0
    7.4623   -3.3445   -1.1572 C   0  0  0  0  0  0  0  0  0  0  0  0
    8.7084   -3.4564   -2.0281 C   0  0  0  0  0  0  0  0  0  0  0  0
    9.9410   -3.3558   -1.2785 N   0  0  0  0  0  0  0  0  0  0  0  0
   10.5279   -2.1890   -0.9691 C   0  0  0  0  0  0  0  0  0  0  0  0
   11.7650   -2.2848   -0.1020 C   0  0  0  0  0  0  0  0  0  0  0  0
   10.1014   -1.1085   -1.3597 O   0  0  0  0  0  0  0  0  0  0  0  0
   12.9491   -1.5330   -0.7031 C   0  0  0  0  0  0  0  0  0  0  0  0
   14.1437   -1.4835    0.2404 C   0  0  0  0  0  0  0  0  0  0  0  0
   15.3404   -0.7708   -0.3761 C   0  0  0  0  0  0  0  0  0  0  0  0
   16.5061   -0.6550    0.5970 C   0  0  0  0  0  0  0  0  0  0  0  0
   17.6294    0.0426    0.0136 N   0  0  0  0  0  0  0  0  0  0  0  0
   18.8779   -0.4466   -0.0935 C   0  0  0  0  0  0  0  0  0  0  0  0
   19.8720    0.4876   -0.7476 C   0  0  0  0  0  0  0  0  0  0  0  0
   19.1965   -1.5603    0.3080 O   0  0  0  0  0  0  0  0  0  0  0  0
   20.7278    1.3211    0.2242 C   0  0  1  0  0  0  0  0  0  0  0  0
   21.6348    2.2241   -0.6258 C   0  0  0  0  0  0  0  0  0  0  0  0
   19.8605    2.2126    1.1234 C   0  0  0  0  0  0  0  0  0  0  0  0
   21.6155    0.4416    1.1153 C   0  0  0  0  0  0  0  0  0  0  0  0
   20.7422    3.0893    2.0170 C   0  0  1  0  0  0  0  0  0  0  0  0
   21.6179    2.1935    2.8962 C   0  0  0  0  0  0  0  0  0  0  0  0
   23.3951    2.2027    1.1407 C   0  0  0  0  0  0  0  0  0  0  0  0
   22.5021    1.3140    2.0089 C   0  0  2  0  0  0  0  0  0  0  0  0
   21.6338    3.9777    1.1469 C   0  0  0  0  0  0  0  0  0  0  0  0
   22.5201    3.0987    0.2620 C   0  0  2  0  0  0  0  0  0  0  0  0
   23.1536    3.7298   -0.3686 H   0  0  0  0  0  0  0  0  0  0  0  0
   -4.2087    0.0216    0.3455 H   0  0  0  0  0  0  0  0  0  0  0  0
   -4.8562   -1.3712   -0.4993 H   0  0  0  0  0  0  0  0  0  0  0  0
   -3.3200   -0.9534   -2.4091 H   0  0  0  0  0  0  0  0  0  0  0  0
   -2.6825    0.4684   -1.6090 H   0  0  0  0  0  0  0  0  0  0  0  0
   -1.8740   -0.9394    0.2817 H   0  0  0  0  0  0  0  0  0  0  0  0
   -2.5353   -2.3679   -0.4843 H   0  0  0  0  0  0  0  0  0  0  0  0
   -1.0096   -2.0347   -2.4380 H   0  0  0  0  0  0  0  0  0  0  0  0
   -0.3528   -0.5929   -1.6790 H   0  0  0  0  0  0  0  0  0  0  0  0
    0.3886   -1.9829    0.2782 H   0  0  0  0  0  0  0  0  0  0  0  0
   -0.2346   -3.4169   -0.5189 H   0  0  0  0  0  0  0  0  0  0  0  0
    1.5991   -1.9519   -2.2123 H   0  0  0  0  0  0  0  0  0  0  0  0
    3.6342   -4.3383   -2.5303 H   0  0  0  0  0  0  0  0  0  0  0  0
    3.6309   -2.5906   -2.6438 H   0  0  0  0  0  0  0  0  0  0  0  0
    4.9474   -2.4508   -0.5151 H   0  0  0  0  0  0  0  0  0  0  0  0
    4.9390   -4.1992   -0.3957 H   0  0  0  0  0  0  0  0  0  0  0  0
    6.1755   -4.3704   -2.5488 H   0  0  0  0  0  0  0  0  0  0  0  0
    6.1605   -2.6263   -2.7119 H   0  0  0  0  0  0  0  0  0  0  0  0
    7.4850   -2.3940   -0.6161 H   0  0  0  0  0  0  0  0  0  0  0  0
    7.4772   -4.1363   -0.4017 H   0  0  0  0  0  0  0  0  0  0  0  0
    8.7144   -4.4162   -2.5474 H   0  0  0  0  0  0  0  0  0  0  0  0
    8.6983   -2.6819   -2.7966 H   0  0  0  0  0  0  0  0  0  0  0  0
   10.3250   -4.2038   -0.8966 H   0  0  0  0  0  0  0  0  0  0  0  0
   11.5144   -1.8478    0.8699 H   0  0  0  0  0  0  0  0  0  0  0  0
   12.0404   -3.3250    0.0861 H   0  0  0  0  0  0  0  0  0  0  0  0
   13.2431   -2.0105   -1.6430 H   0  0  0  0  0  0  0  0  0  0  0  0
   12.6426   -0.5147   -0.9527 H   0  0  0  0  0  0  0  0  0  0  0  0
   13.8509   -0.9767    1.1663 H   0  0  0  0  0  0  0  0  0  0  0  0
   14.4336   -2.4998    0.5261 H   0  0  0  0  0  0  0  0  0  0  0  0
   15.6685   -1.3059   -1.2721 H   0  0  0  0  0  0  0  0  0  0  0  0
   15.0380    0.2299   -0.7020 H   0  0  0  0  0  0  0  0  0  0  0  0
   16.1817   -0.1323    1.5022 H   0  0  0  0  0  0  0  0  0  0  0  0
   16.8439   -1.6435    0.9047 H   0  0  0  0  0  0  0  0  0  0  0  0
   17.4553    0.9713   -0.3354 H   0  0  0  0  0  0  0  0  0  0  0  0
   20.5406   -0.1179   -1.3652 H   0  0  0  0  0  0  0  0  0  0  0  0
   19.3522    1.1771   -1.4200 H   0  0  0  0  0  0  0  0  0  0  0  0
   22.2550    1.6044   -1.2835 H   0  0  0  0  0  0  0  0  0  0  0  0
   21.0184    2.8539   -1.2775 H   0  0  0  0  0  0  0  0  0  0  0  0
   19.2085    2.8423    0.5063 H   0  0  0  0  0  0  0  0  0  0  0  0
   19.2042    1.5984    1.7484 H   0  0  0  0  0  0  0  0  0  0  0  0
   20.9984   -0.2138    1.7358 H   0  0  0  0  0  0  0  0  0  0  0  0
   22.2352   -0.2103    0.4896 H   0  0  0  0  0  0  0  0  0  0  0  0
   20.1038    3.7143    2.6486 H   0  0  0  0  0  0  0  0  0  0  0  0
   22.2378    2.8054    3.5596 H   0  0  0  0  0  0  0  0  0  0  0  0
   20.9899    1.5685    3.5396 H   0  0  0  0  0  0  0  0  0  0  0  0
   24.0485    2.8135    1.7722 H   0  0  0  0  0  0  0  0  0  0  0  0
   24.0486    1.5852    0.5159 H   0  0  0  0  0  0  0  0  0  0  0  0
   23.1245    0.6684    2.6360 H   0  0  0  0  0  0  0  0  0  0  0  0
   21.0184    4.6376    0.5267 H   0  0  0  0  0  0  0  0  0  0  0  0
   22.2518    4.6246    1.7780 H   0  0  0  0  0  0  0  0  0  0  0  0
  -15.7005   -0.7935    1.0838 C   0  0  0  0  0  0  0  0  0  0  0  0
 22 24  1  0
 22 23  1  0
 22 21  1  0
 29 27  2  0
 26 20  1  0
 26158  1  0
 20 21  1  0
 20 19  1  0
 27158  1  6
 27 30  1  0
 27 28  2  0
 19 17  1  0
 18 17  2  0
 17 12  1  0
 12 13  1  0
 12 11  1  0
 16 14  1  0
 13 14  1  0
 11 10  1  0
 14 15  1  0
 10 25  2  0
 10  5  1  0
  9  7  1  0
  6  5  1  0
  6  7  1  0
  5  4  1  0
  7  8  1  0
  4  2  1  0
  3  2  1  0
  2  1  2  0
  3 31  1  0
  3 32  1  0
  4 33  1  0
  5 34  1  1
  6 35  1  0
  6 36  1  0
  7 37  1  6
  8 38  1  0
  8 39  1  0
  8 40  1  0
  9 41  1  0
  9 42  1  0
  9 43  1  0
 11 44  1  0
 12 45  1  6
 13 46  1  0
 13 47  1  0
 14 48  1  1
 15 49  1  0
 15 50  1  0
 15 51  1  0
 16 52  1  0
 16 53  1  0
 16 54  1  0
 19 55  1  0
 20 56  1  1
158 57  1  0
158 58  1  0
 21 59  1  0
 21 60  1  0
 22 61  1  1
 23 62  1  0
 23 63  1  0
 23 64  1  0
 24 65  1  0
 24 66  1  0
 24 67  1  0
 26 68  1  0
 26 69  1  0
 30 70  1  0
 30 71  1  0
 30 72  1  0
  3 73  1  0
 73 74  1  0
 74 75  1  0
 75 76  1  0
 76 77  1  0
 77 78  1  0
 78 79  1  0
 79 80  2  0
 79 81  1  0
 81 82  1  0
 82 83  1  0
 83 84  1  0
 84 85  1  0
 85 86  1  0
 86 87  1  0
 87 88  1  0
 87 89  2  0
 88 90  1  0
 90 91  1  0
 91 92  1  0
 92 93  1  0
 93 94  1  0
 94 95  1  0
 95 96  1  0
 95 97  2  0
 98 96  1  6
 98 99  1  0
 98100  1  0
 98101  1  0
 99107  1  0
100102  1  0
102103  1  0
107104  1  0
103105  1  0
105104  1  0
101105  1  0
102106  1  0
106107  1  0
107108  1  6
 73109  1  0
 73110  1  0
 74111  1  0
 74112  1  0
 75113  1  0
 75114  1  0
 76115  1  0
 76116  1  0
 77117  1  0
 77118  1  0
 78119  1  0
 81120  1  0
 81121  1  0
 82122  1  0
 82123  1  0
 83124  1  0
 83125  1  0
 84126  1  0
 84127  1  0
 85128  1  0
 85129  1  0
 86130  1  0
 88131  1  0
 88132  1  0
 90133  1  0
 90134  1  0
 91135  1  0
 91136  1  0
 92137  1  0
 92138  1  0
 93139  1  0
 93140  1  0
 94141  1  0
 96142  1  0
 96143  1  0
 99144  1  0
 99145  1  0
100146  1  0
100147  1  0
101148  1  0
101149  1  0
102150  1  1
103151  1  0
103152  1  0
104153  1  0
104154  1  0
105155  1  1
106156  1  0
106157  1  0
M  END
