
     RDKit          3D

 66 70  0  0  0  0  0  0  0  0999 V2000
    0.2001    1.3920   -3.0636 Cl  0  0  0  0  0  0  0  0  0  0  0  0
    0.8360    0.4639   -1.7407 C   0  0  0  0  0  0  0  0  0  0  0  0
    2.1992    0.4985   -1.5327 C   0  0  0  0  0  0  0  0  0  0  0  0
    2.7506   -0.2158   -0.4678 C   0  0  0  0  0  0  0  0  0  0  0  0
    4.0827   -0.1096   -0.3192 O   0  0  0  0  0  0  0  0  0  0  0  0
    4.6934   -0.7391    0.8025 C   0  0  0  0  0  0  0  0  0  0  0  0
    6.1414   -0.3553    0.7936 C   0  0  0  0  0  0  0  0  0  0  0  0
    6.5552    0.8326    1.3898 C   0  0  0  0  0  0  0  0  0  0  0  0
    7.8904    1.2094    1.3571 C   0  0  0  0  0  0  0  0  0  0  0  0
    8.8255    0.3998    0.7243 C   0  0  0  0  0  0  0  0  0  0  0  0
    8.4207   -0.7865    0.1269 C   0  0  0  0  0  0  0  0  0  0  0  0
    7.0838   -1.1600    0.1612 C   0  0  0  0  0  0  0  0  0  0  0  0
    1.9171   -0.9701    0.3510 C   0  0  0  0  0  0  0  0  0  0  0  0
    0.5502   -0.9782    0.1095 C   0  0  0  0  0  0  0  0  0  0  0  0
   -0.0321   -0.2625   -0.9248 C   0  0  0  0  0  0  0  0  0  0  0  0
   -1.5275   -0.2107   -1.1321 C   0  0  2  0  0  0  0  0  0  0  0  0
   -2.0173    1.1216   -0.7601 N   0  0  0  0  0  0  0  0  0  0  0  0
   -3.0998    1.6476   -1.3974 C   0  0  0  0  0  0  0  0  0  0  0  0
   -3.6139    1.0823   -2.3477 O   0  0  0  0  0  0  0  0  0  0  0  0
   -3.6253    2.9558   -0.8623 C   0  0  0  0  0  0  0  0  0  0  0  0
   -1.4850    1.6537    0.4308 C   0  0  0  0  0  0  0  0  0  0  0  0
   -0.6275    2.7420    0.4237 C   0  0  0  0  0  0  0  0  0  0  0  0
   -0.0898    3.1926    1.6181 C   0  0  0  0  0  0  0  0  0  0  0  0
   -2.3170   -1.2792   -0.4265 C   0  0  0  0  0  0  0  0  0  0  0  0
   -2.5410   -2.4974   -1.1819 C   0  0  0  0  0  0  0  0  0  0  0  0
   -1.9904   -2.6811   -2.2618 O   0  0  0  0  0  0  0  0  0  0  0  0
   -3.4471   -3.5559   -0.6036 C   0  0  0  0  0  0  0  0  0  0  0  0
   -4.5305   -2.9947    0.3122 C   0  0  1  0  0  0  0  0  0  0  0  0
   -5.5278   -2.1506   -0.4843 C   0  0  0  0  0  0  0  0  0  0  0  0
   -5.2769   -4.1355    0.9978 C   0  0  0  0  0  0  0  0  0  0  0  0
   -3.8262   -2.1507    1.3706 C   0  0  0  0  0  0  0  0  0  0  0  0
   -2.8892   -1.1203    0.8023 C   0  0  0  0  0  0  0  0  0  0  0  0
   -2.6878   -0.0842    1.6598 N   0  0  0  0  0  0  0  0  0  0  0  0
   -1.7827    0.9858    1.6137 C   0  0  0  0  0  0  0  0  0  0  0  0
   -1.1848    1.4109    2.8084 C   0  0  0  0  0  0  0  0  0  0  0  0
   -1.4075    0.7852    3.9829 O   0  0  0  0  0  0  0  0  0  0  0  0
   -0.3586    2.5263    2.8038 C   0  0  0  0  0  0  0  0  0  0  0  0
    2.8428    1.0796   -2.1802 H   0  0  0  0  0  0  0  0  0  0  0  0
    4.2138   -0.4057    1.7287 H   0  0  0  0  0  0  0  0  0  0  0  0
    4.5802   -1.8258    0.7368 H   0  0  0  0  0  0  0  0  0  0  0  0
    5.8305    1.4638    1.8906 H   0  0  0  0  0  0  0  0  0  0  0  0
    8.2018    2.1330    1.8274 H   0  0  0  0  0  0  0  0  0  0  0  0
    9.8677    0.6911    0.7017 H   0  0  0  0  0  0  0  0  0  0  0  0
    9.1459   -1.4226   -0.3639 H   0  0  0  0  0  0  0  0  0  0  0  0
    6.7729   -2.0889   -0.3023 H   0  0  0  0  0  0  0  0  0  0  0  0
    2.3027   -1.5475    1.1795 H   0  0  0  0  0  0  0  0  0  0  0  0
   -0.0851   -1.5642    0.7614 H   0  0  0  0  0  0  0  0  0  0  0  0
   -1.7190   -0.3293   -2.1991 H   0  0  0  0  0  0  0  0  0  0  0  0
   -3.8931    2.8753    0.1917 H   0  0  0  0  0  0  0  0  0  0  0  0
   -2.8851    3.7511   -0.9457 H   0  0  0  0  0  0  0  0  0  0  0  0
   -4.5089    3.2441   -1.4260 H   0  0  0  0  0  0  0  0  0  0  0  0
   -0.3892    3.2254   -0.5144 H   0  0  0  0  0  0  0  0  0  0  0  0
    0.5688    4.0504    1.6255 H   0  0  0  0  0  0  0  0  0  0  0  0
   -3.8810   -4.1305   -1.4259 H   0  0  0  0  0  0  0  0  0  0  0  0
   -2.8152   -4.2538   -0.0389 H   0  0  0  0  0  0  0  0  0  0  0  0
   -6.0199   -2.7608   -1.2438 H   0  0  0  0  0  0  0  0  0  0  0  0
   -6.3052   -1.7509    0.1696 H   0  0  0  0  0  0  0  0  0  0  0  0
   -5.0552   -1.3082   -0.9921 H   0  0  0  0  0  0  0  0  0  0  0  0
   -4.5966   -4.7733    1.5652 H   0  0  0  0  0  0  0  0  0  0  0  0
   -6.0308   -3.7503    1.6875 H   0  0  0  0  0  0  0  0  0  0  0  0
   -5.7889   -4.7620    0.2651 H   0  0  0  0  0  0  0  0  0  0  0  0
   -4.5656   -1.6523    2.0054 H   0  0  0  0  0  0  0  0  0  0  0  0
   -3.2469   -2.8047    2.0335 H   0  0  0  0  0  0  0  0  0  0  0  0
   -3.3195   -0.0660    2.4476 H   0  0  0  0  0  0  0  0  0  0  0  0
   -1.6533   -0.1374    3.8440 H   0  0  0  0  0  0  0  0  0  0  0  0
    0.0895    2.8525    3.7338 H   0  0  0  0  0  0  0  0  0  0  0  0
  1  2  1  0
  2  3  2  0
  2 15  1  0
  3  4  1  0
  4  5  1  0
  4 13  2  0
  5  6  1  0
  6  7  1  0
  7  8  2  0
  7 12  1  0
  8  9  1  0
  9 10  2  0
 10 11  1  0
 11 12  2  0
 13 14  1  0
 14 15  2  0
 15 16  1  0
 16 17  1  0
 16 24  1  0
 17 18  1  0
 17 21  1  0
 18 19  2  0
 18 20  1  0
 21 22  1  0
 21 34  2  0
 22 23  2  0
 23 37  1  0
 24 25  1  0
 24 32  2  0
 25 26  2  0
 25 27  1  0
 27 28  1  0
 28 29  1  6
 28 30  1  0
 28 31  1  0
 31 32  1  0
 32 33  1  0
 33 34  1  0
 34 35  1  0
 35 36  1  0
 35 37  2  0
  3 38  1  0
  6 39  1  0
  6 40  1  0
  8 41  1  0
  9 42  1  0
 10 43  1  0
 11 44  1  0
 12 45  1  0
 13 46  1  0
 14 47  1  0
 16 48  1  6
 20 49  1  0
 20 50  1  0
 20 51  1  0
 22 52  1  0
 23 53  1  0
 27 54  1  0
 27 55  1  0
 29 56  1  0
 29 57  1  0
 29 58  1  0
 30 59  1  0
 30 60  1  0
 30 61  1  0
 31 62  1  0
 31 63  1  0
 33 64  1  0
 36 65  1  0
 37 66  1  0
M  END
