
     RDKit          3D

 38 39  0  0  0  0  0  0  0  0999 V2000
   -5.4254   -0.0022   -0.2341 C   0  0  0  0  0  0  0  0  0  0  0  0
   -4.8408   -1.2531    0.4135 C   0  0  0  0  0  0  0  0  0  0  0  0
   -3.3970   -1.4878   -0.0200 C   0  0  0  0  0  0  0  0  0  0  0  0
   -2.5244   -0.2679    0.2623 C   0  0  2  0  0  0  0  0  0  0  0  0
   -3.1164    0.9861   -0.3845 C   0  0  0  0  0  0  0  0  0  0  0  0
   -4.5585    1.2183    0.0541 C   0  0  0  0  0  0  0  0  0  0  0  0
   -1.1703   -0.5287   -0.1872 N   0  0  0  0  0  0  0  0  0  0  0  0
   -0.1055    0.1817    0.2786 C   0  0  0  0  0  0  0  0  0  0  0  0
   -0.1635    0.8832    1.2846 O   0  0  0  0  0  0  0  0  0  0  0  0
    1.0456    0.0140   -0.4263 N   0  0  0  0  0  0  0  0  0  0  0  0
    2.2248    0.7982   -0.1487 C   0  0  0  0  0  0  0  0  0  0  0  0
    3.4458    0.2077   -0.8380 C   0  0  1  0  0  0  0  0  0  0  0  0
    4.7218    0.9823   -0.4991 C   0  0  0  0  0  0  0  0  0  0  0  0
    5.2939    0.1825    0.6665 C   0  0  0  0  0  0  0  0  0  0  0  0
    4.9093   -1.2339    0.2737 C   0  0  0  0  0  0  0  0  0  0  0  0
    3.6641   -1.1276   -0.4012 O   0  0  0  0  0  0  0  0  0  0  0  0
   -5.4907   -0.1517   -1.3175 H   0  0  0  0  0  0  0  0  0  0  0  0
   -6.4462    0.1640    0.1184 H   0  0  0  0  0  0  0  0  0  0  0  0
   -4.8797   -1.1466    1.5031 H   0  0  0  0  0  0  0  0  0  0  0  0
   -5.4464   -2.1281    0.1670 H   0  0  0  0  0  0  0  0  0  0  0  0
   -2.9829   -2.3623    0.4880 H   0  0  0  0  0  0  0  0  0  0  0  0
   -3.3741   -1.7061   -1.0946 H   0  0  0  0  0  0  0  0  0  0  0  0
   -2.4900   -0.1178    1.3449 H   0  0  0  0  0  0  0  0  0  0  0  0
   -2.4984    1.8522   -0.1355 H   0  0  0  0  0  0  0  0  0  0  0  0
   -3.0770    0.8701   -1.4739 H   0  0  0  0  0  0  0  0  0  0  0  0
   -4.9624    2.1013   -0.4464 H   0  0  0  0  0  0  0  0  0  0  0  0
   -4.5816    1.4337    1.1279 H   0  0  0  0  0  0  0  0  0  0  0  0
   -1.0861   -0.9698   -1.0908 H   0  0  0  0  0  0  0  0  0  0  0  0
    0.9849   -0.4025   -1.3422 H   0  0  0  0  0  0  0  0  0  0  0  0
    2.1087    1.8340   -0.4904 H   0  0  0  0  0  0  0  0  0  0  0  0
    2.3901    0.8344    0.9297 H   0  0  0  0  0  0  0  0  0  0  0  0
    3.2708    0.1994   -1.9212 H   0  0  0  0  0  0  0  0  0  0  0  0
    5.4108    0.9664   -1.3455 H   0  0  0  0  0  0  0  0  0  0  0  0
    4.5249    2.0264   -0.2539 H   0  0  0  0  0  0  0  0  0  0  0  0
    6.3702    0.3051    0.7824 H   0  0  0  0  0  0  0  0  0  0  0  0
    4.8219    0.4701    1.6082 H   0  0  0  0  0  0  0  0  0  0  0  0
    5.6670   -1.6691   -0.3897 H   0  0  0  0  0  0  0  0  0  0  0  0
    4.7941   -1.9017    1.1300 H   0  0  0  0  0  0  0  0  0  0  0  0
  9  8  2  0
  5  6  1  0
  5  4  1  0
  8 10  1  0
  8  7  1  0
 10 11  1  0
 11 12  1  0
  6  1  1  0
  1  2  1  0
  7  4  1  0
 16 12  1  0
 16 15  1  0
  4  3  1  0
 12 13  1  0
  2  3  1  0
 15 14  1  0
 13 14  1  0
  1 17  1  0
  1 18  1  0
  2 19  1  0
  2 20  1  0
  3 21  1  0
  3 22  1  0
  4 23  1  1
  5 24  1  0
  5 25  1  0
  6 26  1  0
  6 27  1  0
  7 28  1  0
 10 29  1  0
 11 30  1  0
 11 31  1  0
 12 32  1  6
 13 33  1  0
 13 34  1  0
 14 35  1  0
 14 36  1  0
 15 37  1  0
 15 38  1  0
M  END
