
     RDKit          3D

 55 59  0  0  0  0  0  0  0  0999 V2000
    7.6103    0.2651   -3.2617 F   0  0  0  0  0  0  0  0  0  0  0  0
    7.7991   -0.4631   -2.1501 C   0  0  1  0  0  0  0  0  0  0  0  0
    7.0441   -1.5624   -2.2849 F   0  0  0  0  0  0  0  0  0  0  0  0
    9.0739   -0.8628   -2.1603 F   0  0  0  0  0  0  0  0  0  0  0  0
    7.4468    0.3119   -0.9178 C   0  0  0  0  0  0  0  0  0  0  0  0
    6.0992    0.5658   -0.6784 C   0  0  0  0  0  0  0  0  0  0  0  0
    8.4373    0.7867   -0.0733 C   0  0  0  0  0  0  0  0  0  0  0  0
    8.0602    1.5296    1.0378 C   0  0  0  0  0  0  0  0  0  0  0  0
    6.7285    1.7842    1.2962 C   0  0  0  0  0  0  0  0  0  0  0  0
    5.7287    1.3039    0.4432 C   0  0  0  0  0  0  0  0  0  0  0  0
    4.4163    1.6234    0.7822 N   0  0  0  0  0  0  0  0  0  0  0  0
    3.2597    1.1300    0.2416 C   0  0  0  0  0  0  0  0  0  0  0  0
    3.2252    0.3358   -0.6796 O   0  0  0  0  0  0  0  0  0  0  0  0
    2.1453    1.6351    0.8589 N   0  0  0  0  0  0  0  0  0  0  0  0
    0.8104    1.3606    0.5855 C   0  0  0  0  0  0  0  0  0  0  0  0
   -0.1239    1.8429    1.5093 C   0  0  0  0  0  0  0  0  0  0  0  0
   -1.4770    1.6420    1.3229 C   0  0  0  0  0  0  0  0  0  0  0  0
    0.3519    0.6699   -0.5397 C   0  0  0  0  0  0  0  0  0  0  0  0
   -1.0082    0.4759   -0.7208 C   0  0  0  0  0  0  0  0  0  0  0  0
   -1.9245    0.9564    0.2015 C   0  0  0  0  0  0  0  0  0  0  0  0
   -3.3125    0.7506    0.0007 N   0  0  0  0  0  0  0  0  0  0  0  0
   -4.1922    1.6723   -0.5162 C   0  0  0  0  0  0  0  0  0  0  0  0
   -3.7547    2.8788   -0.8654 N   0  0  0  0  0  0  0  0  0  0  0  0
   -3.9915   -0.4177    0.2549 C   0  0  0  0  0  0  0  0  0  0  0  0
   -5.3675   -0.2156   -0.1245 C   0  0  0  0  0  0  0  0  0  0  0  0
   -5.4796    1.1277   -0.5907 C   0  0  0  0  0  0  0  0  0  0  0  0
   -6.6894    1.7528   -1.1089 C   0  0  0  0  0  0  0  0  0  0  0  0
   -6.7131    3.1173   -1.0876 N   0  0  0  0  0  0  0  0  0  0  0  0
   -7.6143    1.0959   -1.5675 O   0  0  0  0  0  0  0  0  0  0  0  0
   -3.4969   -1.4981    0.7423 N   0  0  0  0  0  0  0  0  0  0  0  0
   -4.4023   -2.5096    0.8918 C   0  0  0  0  0  0  0  0  0  0  0  0
   -5.7666   -2.3378    0.5310 C   0  0  0  0  0  0  0  0  0  0  0  0
   -6.2431   -1.1709    0.0179 N   0  0  0  0  0  0  0  0  0  0  0  0
   -3.9734   -3.7428    1.4168 C   0  0  0  0  0  0  0  0  0  0  0  0
   -4.8627   -4.7739    1.5841 C   0  0  0  0  0  0  0  0  0  0  0  0
   -6.2148   -4.6079    1.2304 C   0  0  0  0  0  0  0  0  0  0  0  0
   -6.6563   -3.4168    0.7140 C   0  0  0  0  0  0  0  0  0  0  0  0
    5.3470    0.1951   -1.3557 H   0  0  0  0  0  0  0  0  0  0  0  0
    9.4838    0.5920   -0.2594 H   0  0  0  0  0  0  0  0  0  0  0  0
    8.8147    1.9092    1.7133 H   0  0  0  0  0  0  0  0  0  0  0  0
    6.4541    2.3600    2.1720 H   0  0  0  0  0  0  0  0  0  0  0  0
    4.3318    2.2505    1.5682 H   0  0  0  0  0  0  0  0  0  0  0  0
    2.2905    2.2345    1.6572 H   0  0  0  0  0  0  0  0  0  0  0  0
    0.2154    2.3752    2.3895 H   0  0  0  0  0  0  0  0  0  0  0  0
   -2.1821    2.0167    2.0534 H   0  0  0  0  0  0  0  0  0  0  0  0
    1.0354    0.2894   -1.2793 H   0  0  0  0  0  0  0  0  0  0  0  0
   -1.3546   -0.0516   -1.6002 H   0  0  0  0  0  0  0  0  0  0  0  0
   -2.7663    3.0689   -0.9129 H   0  0  0  0  0  0  0  0  0  0  0  0
   -4.3470    3.4757   -1.4197 H   0  0  0  0  0  0  0  0  0  0  0  0
   -6.2397    3.6037   -0.3422 H   0  0  0  0  0  0  0  0  0  0  0  0
   -7.5741    3.5565   -1.3769 H   0  0  0  0  0  0  0  0  0  0  0  0
   -2.9303   -3.8557    1.6843 H   0  0  0  0  0  0  0  0  0  0  0  0
   -4.5254   -5.7181    1.9903 H   0  0  0  0  0  0  0  0  0  0  0  0
   -6.9093   -5.4262    1.3678 H   0  0  0  0  0  0  0  0  0  0  0  0
   -7.6944   -3.2787    0.4384 H   0  0  0  0  0  0  0  0  0  0  0  0
 35 34  1  0
 35 36  2  0
 34 31  2  0
 36 37  1  0
  8  9  2  0
  8  7  1  0
  9 10  1  0
 31 30  1  0
 31 32  1  0
 37 32  2  0
  7  5  2  0
 11 10  1  0
 11 12  1  0
 10  6  2  0
 30 24  2  0
 32 33  1  0
 14 12  1  0
 14 15  1  0
 12 13  2  0
  5  6  1  0
  5  2  1  0
 15 16  2  0
 15 18  1  0
  2  1  1  6
 16 17  1  0
 18 19  2  0
 24 25  1  0
 24 21  1  0
 33 25  2  0
 17 20  2  0
 19 20  1  0
  2  4  1  0
  2  3  1  0
 20 21  1  0
 25 26  1  0
 21 22  1  0
 22 26  2  0
 22 23  1  0
 26 27  1  0
 28 27  1  0
 27 29  2  0
  6 38  1  0
  7 39  1  0
  8 40  1  0
  9 41  1  0
 11 42  1  0
 14 43  1  0
 16 44  1  0
 17 45  1  0
 18 46  1  0
 19 47  1  0
 23 48  1  0
 23 49  1  0
 28 50  1  0
 28 51  1  0
 34 52  1  0
 35 53  1  0
 36 54  1  0
 37 55  1  0
M  END
