
     RDKit          3D

 54 59  0  0  0  0  0  0  0  0999 V2000
    7.0660   -0.3606    0.2052 C   0  0  0  0  0  0  0  0  0  0  0  0
    8.1419    0.5924    0.6924 C   0  0  0  0  0  0  0  0  0  0  0  0
    8.3026    1.7052   -0.2198 N   0  0  0  0  0  0  0  0  0  0  0  0
    9.3709    2.5857    0.1921 C   0  0  0  0  0  0  0  0  0  0  0  0
    7.0480    2.4136   -0.3646 C   0  0  0  0  0  0  0  0  0  0  0  0
    5.9588    1.4817   -0.8569 C   0  0  0  0  0  0  0  0  0  0  0  0
    5.8134    0.3474    0.0444 N   0  0  0  0  0  0  0  0  0  0  0  0
    4.6383   -0.4102   -0.0824 C   0  0  0  0  0  0  0  0  0  0  0  0
    3.4046    0.2269    0.0445 C   0  0  0  0  0  0  0  0  0  0  0  0
    4.6746   -1.8047   -0.3035 C   0  0  0  0  0  0  0  0  0  0  0  0
    3.5239   -2.5735   -0.3792 C   0  0  0  0  0  0  0  0  0  0  0  0
    2.3109   -1.9173   -0.2551 C   0  0  0  0  0  0  0  0  0  0  0  0
    1.0043   -2.3338   -0.2682 N   0  0  0  0  0  0  0  0  0  0  0  0
    2.2416   -0.5299   -0.0537 C   0  0  0  0  0  0  0  0  0  0  0  0
    0.9310   -0.1391    0.0519 N   0  0  0  0  0  0  0  0  0  0  0  0
    0.2249   -1.2350   -0.0816 C   0  0  0  0  0  0  0  0  0  0  0  0
   -1.2351   -1.2856   -0.0305 C   0  0  0  0  0  0  0  0  0  0  0  0
   -1.9425   -0.0910   -0.0823 C   0  0  0  0  0  0  0  0  0  0  0  0
   -1.9161   -2.5159    0.0856 C   0  0  0  0  0  0  0  0  0  0  0  0
   -3.2929   -2.5869    0.1463 C   0  0  0  0  0  0  0  0  0  0  0  0
   -3.9873   -1.3841    0.0902 C   0  0  0  0  0  0  0  0  0  0  0  0
   -5.3127   -1.0728    0.1218 N   0  0  0  0  0  0  0  0  0  0  0  0
   -3.3301   -0.1439   -0.0218 C   0  0  0  0  0  0  0  0  0  0  0  0
   -4.2503    0.8717   -0.0560 N   0  0  0  0  0  0  0  0  0  0  0  0
   -5.4111    0.2793    0.0322 C   0  0  0  0  0  0  0  0  0  0  0  0
   -6.7119    0.9473    0.0387 C   0  0  0  0  0  0  0  0  0  0  0  0
   -7.7745    0.1519    0.1340 N   0  0  0  0  0  0  0  0  0  0  0  0
   -8.9752    0.7106    0.1430 C   0  0  0  0  0  0  0  0  0  0  0  0
   -9.1756    2.0820    0.0580 C   0  0  0  0  0  0  0  0  0  0  0  0
   -8.0637    2.9053   -0.0404 C   0  0  0  0  0  0  0  0  0  0  0  0
   -6.8031    2.3317   -0.0511 C   0  0  0  0  0  0  0  0  0  0  0  0
    7.3992   -0.8342   -0.7315 H   0  0  0  0  0  0  0  0  0  0  0  0
    6.9441   -1.1519    0.9463 H   0  0  0  0  0  0  0  0  0  0  0  0
    7.8840    0.9345    1.7101 H   0  0  0  0  0  0  0  0  0  0  0  0
    9.0870    0.0486    0.7650 H   0  0  0  0  0  0  0  0  0  0  0  0
   10.3104    2.0333    0.2466 H   0  0  0  0  0  0  0  0  0  0  0  0
    9.4954    3.3885   -0.5362 H   0  0  0  0  0  0  0  0  0  0  0  0
    9.1978    3.0484    1.1763 H   0  0  0  0  0  0  0  0  0  0  0  0
    6.7247    2.8725    0.5864 H   0  0  0  0  0  0  0  0  0  0  0  0
    7.1736    3.2228   -1.0879 H   0  0  0  0  0  0  0  0  0  0  0  0
    5.0244    2.0376   -0.9114 H   0  0  0  0  0  0  0  0  0  0  0  0
    6.2003    1.1430   -1.8761 H   0  0  0  0  0  0  0  0  0  0  0  0
    3.3406    1.2904    0.2377 H   0  0  0  0  0  0  0  0  0  0  0  0
    5.6236   -2.3081   -0.4251 H   0  0  0  0  0  0  0  0  0  0  0  0
    3.5862   -3.6420   -0.5384 H   0  0  0  0  0  0  0  0  0  0  0  0
    0.6908   -3.2741   -0.4454 H   0  0  0  0  0  0  0  0  0  0  0  0
   -1.4235    0.8539   -0.1722 H   0  0  0  0  0  0  0  0  0  0  0  0
   -1.3601   -3.4423    0.1479 H   0  0  0  0  0  0  0  0  0  0  0  0
   -3.7982   -3.5381    0.2426 H   0  0  0  0  0  0  0  0  0  0  0  0
   -6.0941   -1.7061    0.2000 H   0  0  0  0  0  0  0  0  0  0  0  0
   -9.8204    0.0371    0.2222 H   0  0  0  0  0  0  0  0  0  0  0  0
  -10.1776    2.4875    0.0694 H   0  0  0  0  0  0  0  0  0  0  0  0
   -8.1756    3.9791   -0.1071 H   0  0  0  0  0  0  0  0  0  0  0  0
   -5.9103    2.9364   -0.1263 H   0  0  0  0  0  0  0  0  0  0  0  0
 29 30  2  0
 29 28  1  0
 30 31  1  0
 28 27  2  0
 31 26  2  0
 27 26  1  0
 26 25  1  0
 25 22  1  0
 25 24  2  0
 22 21  1  0
 24 23  1  0
 21 23  1  0
 21 20  2  0
 23 18  2  0
 20 19  1  0
 18 17  1  0
 19 17  2  0
 17 16  1  0
 16 15  2  0
 16 13  1  0
 15 14  1  0
 13 12  1  0
 14 12  1  0
 14  9  2  0
 12 11  2  0
  9  8  1  0
 11 10  1  0
  8 10  2  0
  8  7  1  0
  1  7  1  0
  1  2  1  0
  7  6  1  0
  2  3  1  0
  6  5  1  0
  3  5  1  0
  3  4  1  0
  1 32  1  0
  1 33  1  0
  2 34  1  0
  2 35  1  0
  4 36  1  0
  4 37  1  0
  4 38  1  0
  5 39  1  0
  5 40  1  0
  6 41  1  0
  6 42  1  0
  9 43  1  0
 10 44  1  0
 11 45  1  0
 13 46  1  0
 18 47  1  0
 19 48  1  0
 20 49  1  0
 22 50  1  0
 28 51  1  0
 29 52  1  0
 30 53  1  0
 31 54  1  0
M  END
