
     RDKit          3D

 48 49  0  0  0  0  0  0  0  0999 V2000
    3.1432   -1.0425   -0.6417 N   0  0  0  0  0  0  0  0  0  0  0  0
    4.3214   -1.6258   -0.8332 C   0  0  0  0  0  0  0  0  0  0  0  0
    4.4396   -2.4467   -1.9161 N   0  0  0  0  0  0  0  0  0  0  0  0
    5.4231   -1.3884    0.0084 C   0  0  0  0  0  0  0  0  0  0  0  0
    5.2858   -0.5064    1.0600 C   0  0  0  0  0  0  0  0  0  0  0  0
    4.0425    0.1107    1.2442 C   0  0  0  0  0  0  0  0  0  0  0  0
    3.0081   -0.1913    0.3776 C   0  0  0  0  0  0  0  0  0  0  0  0
    6.4321   -0.1973    1.9738 C   0  0  0  0  0  0  0  0  0  0  0  0
    1.6542    0.4404    0.5353 C   0  0  0  0  0  0  0  0  0  0  0  0
    1.2998    1.3588   -0.6421 C   0  0  0  0  0  0  0  0  0  0  0  0
   -1.4513    3.7600    0.2603 N   0  0  0  0  0  0  0  0  0  0  0  0
   -0.2594    3.2165    0.0533 C   0  0  0  0  0  0  0  0  0  0  0  0
   -0.0714    1.9452   -0.4811 C   0  0  0  0  0  0  0  0  0  0  0  0
   -1.2124    1.2244   -0.8101 C   0  0  0  0  0  0  0  0  0  0  0  0
   -2.4745    1.7672   -0.5977 C   0  0  0  0  0  0  0  0  0  0  0  0
   -2.5253    3.0473   -0.0556 C   0  0  0  0  0  0  0  0  0  0  0  0
   -3.7259    0.9970   -0.9020 C   0  0  0  0  0  0  0  0  0  0  0  0
   -3.9435   -0.1597    0.0759 C   0  0  0  0  0  0  0  0  0  0  0  0
   -5.2234   -0.9195   -0.2416 C   0  0  0  0  0  0  0  0  0  0  0  0
   -6.8710   -2.4777    0.4953 C   0  0  0  0  0  0  0  0  0  0  0  0
   -5.5310   -1.9739    0.7076 N   0  0  0  0  0  0  0  0  0  0  0  0
   -4.5694   -3.0552    0.6659 C   0  0  0  0  0  0  0  0  0  0  0  0
    5.1911   -3.1152   -1.9229 H   0  0  0  0  0  0  0  0  0  0  0  0
    3.5820   -2.7771   -2.3263 H   0  0  0  0  0  0  0  0  0  0  0  0
    6.3635   -1.8952   -0.1730 H   0  0  0  0  0  0  0  0  0  0  0  0
    3.8874    0.8098    2.0564 H   0  0  0  0  0  0  0  0  0  0  0  0
    6.8438    0.7886    1.7496 H   0  0  0  0  0  0  0  0  0  0  0  0
    6.1106   -0.1788    3.0152 H   0  0  0  0  0  0  0  0  0  0  0  0
    7.2368   -0.9239    1.8747 H   0  0  0  0  0  0  0  0  0  0  0  0
    0.8973   -0.3455    0.6134 H   0  0  0  0  0  0  0  0  0  0  0  0
    1.6176    1.0106    1.4659 H   0  0  0  0  0  0  0  0  0  0  0  0
    2.0425    2.1567   -0.7146 H   0  0  0  0  0  0  0  0  0  0  0  0
    1.3536    0.7855   -1.5698 H   0  0  0  0  0  0  0  0  0  0  0  0
    0.6028    3.8214    0.3199 H   0  0  0  0  0  0  0  0  0  0  0  0
   -1.1165    0.2307   -1.2373 H   0  0  0  0  0  0  0  0  0  0  0  0
   -3.4884    3.5156    0.1270 H   0  0  0  0  0  0  0  0  0  0  0  0
   -4.5857    1.6709   -0.8677 H   0  0  0  0  0  0  0  0  0  0  0  0
   -3.6783    0.6033   -1.9217 H   0  0  0  0  0  0  0  0  0  0  0  0
   -3.0769   -0.8240    0.0329 H   0  0  0  0  0  0  0  0  0  0  0  0
   -3.9943    0.2267    1.0977 H   0  0  0  0  0  0  0  0  0  0  0  0
   -6.0555   -0.2090   -0.2291 H   0  0  0  0  0  0  0  0  0  0  0  0
   -5.1680   -1.3105   -1.2744 H   0  0  0  0  0  0  0  0  0  0  0  0
   -7.0141   -2.9296   -0.4994 H   0  0  0  0  0  0  0  0  0  0  0  0
   -7.1070   -3.2393    1.2403 H   0  0  0  0  0  0  0  0  0  0  0  0
   -7.5986   -1.6715    0.6011 H   0  0  0  0  0  0  0  0  0  0  0  0
   -3.5737   -2.7082    0.9407 H   0  0  0  0  0  0  0  0  0  0  0  0
   -4.8517   -3.8268    1.3834 H   0  0  0  0  0  0  0  0  0  0  0  0
   -4.4988   -3.5319   -0.3253 H   0  0  0  0  0  0  0  0  0  0  0  0
  3  2  1  0
  2  4  1  0
  2  1  2  0
  4  5  2  0
  5  6  1  0
  5  8  1  0
  6  7  2  0
  1  7  1  0
  7  9  1  0
  9 10  1  0
 10 13  1  0
 13 12  1  0
 13 14  2  0
 12 11  2  0
 11 16  1  0
 16 15  2  0
 14 15  1  0
 15 17  1  0
 17 18  1  0
 18 19  1  0
 19 21  1  0
 21 20  1  0
 21 22  1  0
  3 23  1  0
  3 24  1  0
  4 25  1  0
  6 26  1  0
  8 27  1  0
  8 28  1  0
  8 29  1  0
  9 30  1  0
  9 31  1  0
 10 32  1  0
 10 33  1  0
 12 34  1  0
 14 35  1  0
 16 36  1  0
 17 37  1  0
 17 38  1  0
 18 39  1  0
 18 40  1  0
 19 41  1  0
 19 42  1  0
 20 43  1  0
 20 44  1  0
 20 45  1  0
 22 46  1  0
 22 47  1  0
 22 48  1  0
M  END
