
     RDKit          3D

 45 48  0  0  0  0  0  0  0  0999 V2000
   -4.5524   -3.6513    0.5875 C   0  0  0  0  0  0  0  0  0  0  0  0
   -4.2067   -2.2933    1.2116 C   0  0  0  0  0  0  0  0  0  0  0  0
   -4.5371   -1.8872   -1.1280 C   0  0  0  0  0  0  0  0  0  0  0  0
   -3.6375   -1.4929    0.0418 C   0  0  1  0  0  0  0  0  0  0  0  0
   -3.5675   -0.0687    0.2799 N   0  0  0  0  0  0  0  0  0  0  0  0
   -2.4849    0.7213    0.2063 C   0  0  0  0  0  0  0  0  0  0  0  0
   -1.2378    0.3248   -0.0963 N   0  0  0  0  0  0  0  0  0  0  0  0
   -4.6751    0.6350    0.5964 N   0  0  0  0  0  0  0  0  0  0  0  0
   -4.3012    1.8827    0.7289 C   0  0  0  0  0  0  0  0  0  0  0  0
   -2.9178    2.0137    0.4944 C   0  0  0  0  0  0  0  0  0  0  0  0
   -1.9655    3.0750    0.4800 C   0  0  0  0  0  0  0  0  0  0  0  0
   -2.1507    4.2589    0.7047 O   0  0  0  0  0  0  0  0  0  0  0  0
   -0.6913    2.6039    0.1582 N   0  0  0  0  0  0  0  0  0  0  0  0
   -0.3652    1.2991   -0.1089 C   0  0  0  0  0  0  0  0  0  0  0  0
    0.9227    1.0518   -0.3760 N   0  0  0  0  0  0  0  0  0  0  0  0
    1.4143   -0.2731   -0.7336 C   0  0  1  0  0  0  0  0  0  0  0  0
    1.1276   -0.6173   -2.1919 C   0  0  0  0  0  0  0  0  0  0  0  0
    2.8842   -0.3444   -0.3921 C   0  0  0  0  0  0  0  0  0  0  0  0
    3.8310    0.3507   -1.1402 C   0  0  0  0  0  0  0  0  0  0  0  0
    5.1782    0.2991   -0.8164 C   0  0  0  0  0  0  0  0  0  0  0  0
    5.5819   -0.4653    0.2675 C   0  0  0  0  0  0  0  0  0  0  0  0
    4.6624   -1.1708    1.0261 C   0  0  0  0  0  0  0  0  0  0  0  0
    3.3178   -1.1006    0.6907 C   0  0  0  0  0  0  0  0  0  0  0  0
   -4.7331   -3.3933   -0.9304 C   0  0  0  0  0  0  0  0  0  0  0  0
    7.2642   -0.5422    0.6771 Cl  0  0  0  0  0  0  0  0  0  0  0  0
   -3.7469   -4.3671    0.7566 H   0  0  0  0  0  0  0  0  0  0  0  0
   -5.4480   -4.0759    1.0404 H   0  0  0  0  0  0  0  0  0  0  0  0
   -5.1072   -1.7951    1.5765 H   0  0  0  0  0  0  0  0  0  0  0  0
   -3.5079   -2.3684    2.0453 H   0  0  0  0  0  0  0  0  0  0  0  0
   -5.4874   -1.3550   -1.0428 H   0  0  0  0  0  0  0  0  0  0  0  0
   -4.1027   -1.6328   -2.0956 H   0  0  0  0  0  0  0  0  0  0  0  0
   -2.6124   -1.8108   -0.1611 H   0  0  0  0  0  0  0  0  0  0  0  0
   -5.0186    2.6473    0.9855 H   0  0  0  0  0  0  0  0  0  0  0  0
    0.0428    3.2997    0.1309 H   0  0  0  0  0  0  0  0  0  0  0  0
    1.5584    1.8299   -0.4560 H   0  0  0  0  0  0  0  0  0  0  0  0
    0.8850   -0.9902   -0.1042 H   0  0  0  0  0  0  0  0  0  0  0  0
    1.6047    0.0853   -2.8755 H   0  0  0  0  0  0  0  0  0  0  0  0
    1.4946   -1.6178   -2.4204 H   0  0  0  0  0  0  0  0  0  0  0  0
    0.0545   -0.5996   -2.3780 H   0  0  0  0  0  0  0  0  0  0  0  0
    3.5291    0.9419   -1.9964 H   0  0  0  0  0  0  0  0  0  0  0  0
    5.9014    0.8469   -1.4049 H   0  0  0  0  0  0  0  0  0  0  0  0
    4.9838   -1.7655    1.8703 H   0  0  0  0  0  0  0  0  0  0  0  0
    2.5997   -1.6524    1.2848 H   0  0  0  0  0  0  0  0  0  0  0  0
   -3.9850   -3.9475   -1.4988 H   0  0  0  0  0  0  0  0  0  0  0  0
   -5.7073   -3.7216   -1.2916 H   0  0  0  0  0  0  0  0  0  0  0  0
 25 21  1  0
  1 24  1  0
  1  2  1  0
 20 21  1  0
 20 19  2  0
 21 22  2  0
 19 18  1  0
 22 23  1  0
 17 16  1  0
 24  3  1  0
 18 23  2  0
 18 16  1  0
  3  4  1  0
 16 15  1  0
  2  4  1  0
  4  5  1  0
 15 14  1  0
  7 14  2  0
  7  6  1  0
  5  6  1  0
  5  8  1  0
 14 13  1  0
  6 10  2  0
  8  9  2  0
 13 11  1  0
 10  9  1  0
 10 11  1  0
 11 12  2  0
  1 26  1  0
  1 27  1  0
  2 28  1  0
  2 29  1  0
  3 30  1  0
  3 31  1  0
  4 32  1  6
  9 33  1  0
 13 34  1  0
 15 35  1  0
 16 36  1  1
 17 37  1  0
 17 38  1  0
 17 39  1  0
 19 40  1  0
 20 41  1  0
 22 42  1  0
 23 43  1  0
 24 44  1  0
 24 45  1  0
M  END
