
     RDKit          3D

 25 26  0  0  0  0  0  0  0  0999 V2000
    1.6538    0.0392    0.0044 C   0  0  0  0  0  0  0  0  0  0  0  0
    2.1535   -1.2573   -0.0288 C   0  0  0  0  0  0  0  0  0  0  0  0
    3.5256   -1.4539   -0.0311 C   0  0  0  0  0  0  0  0  0  0  0  0
   -0.5976   -0.7372    0.0488 N   0  0  0  0  0  0  0  0  0  0  0  0
    4.3943   -0.3712   -0.0013 C   0  0  0  0  0  0  0  0  0  0  0  0
    3.8799    0.9176    0.0306 C   0  0  0  0  0  0  0  0  0  0  0  0
    0.2562    0.2459    0.0075 N   0  0  0  0  0  0  0  0  0  0  0  0
    2.5099    1.1330    0.0343 C   0  0  0  0  0  0  0  0  0  0  0  0
   -0.2823    1.4490   -0.0304 N   0  0  0  0  0  0  0  0  0  0  0  0
   -4.1224   -0.3137    0.0375 O   0  0  0  0  0  0  0  0  0  0  0  0
   -2.9272   -2.2344    0.1510 N   0  0  0  0  0  0  0  0  0  0  0  0
   -1.7817   -0.1501    0.0359 C   0  0  0  0  0  0  0  0  0  0  0  0
   -1.5856    1.2436   -0.0142 C   0  0  0  0  0  0  0  0  0  0  0  0
   -2.5682    2.3555   -0.0449 C   0  0  0  0  0  0  0  0  0  0  0  0
    1.4835   -2.1046   -0.0531 H   0  0  0  0  0  0  0  0  0  0  0  0
    3.9135   -2.4636   -0.0583 H   0  0  0  0  0  0  0  0  0  0  0  0
    5.4642   -0.5303   -0.0028 H   0  0  0  0  0  0  0  0  0  0  0  0
    4.5477    1.7682    0.0533 H   0  0  0  0  0  0  0  0  0  0  0  0
    2.1174    2.1396    0.0614 H   0  0  0  0  0  0  0  0  0  0  0  0
   -3.7462   -2.8177    0.2002 H   0  0  0  0  0  0  0  0  0  0  0  0
   -2.0276   -2.6816    0.2006 H   0  0  0  0  0  0  0  0  0  0  0  0
   -3.2133    2.3305    0.8318 H   0  0  0  0  0  0  0  0  0  0  0  0
   -2.0542    3.3139   -0.0692 H   0  0  0  0  0  0  0  0  0  0  0  0
   -3.2107    2.2846   -0.9212 H   0  0  0  0  0  0  0  0  0  0  0  0
   -3.0522   -0.9046    0.0754 C   0  0  0  0  0  0  0  0  0  0  0  0
 14 13  1  0
 10 25  2  0
 25 12  1  0
 25 11  1  0
 13 12  1  0
 13  9  2  0
 12  4  2  0
  9  7  1  0
  4  7  1  0
  7  1  1  0
  1  2  2  0
  1  8  1  0
  2  3  1  0
  8  6  2  0
  3  5  2  0
  6  5  1  0
  2 15  1  0
  3 16  1  0
  5 17  1  0
  6 18  1  0
  8 19  1  0
 11 20  1  0
 11 21  1  0
 14 22  1  0
 14 23  1  0
 14 24  1  0
M  END
