
     RDKit          3D

 60 64  0  0  0  0  0  0  0  0999 V2000
   -1.3084    0.5593   -0.0365 C   0  0  0  0  0  0  0  0  0  0  0  0
   -1.3581    1.4299   -0.8916 O   0  0  0  0  0  0  0  0  0  0  0  0
   -2.4521   -0.3381    0.2642 C   0  0  0  0  0  0  0  0  0  0  0  0
   -3.5973   -0.2211   -0.4087 C   0  0  0  0  0  0  0  0  0  0  0  0
   -4.7890   -1.0408   -0.1911 C   0  0  0  0  0  0  0  0  0  0  0  0
   -4.9688   -1.7677    0.9863 C   0  0  0  0  0  0  0  0  0  0  0  0
   -6.0875   -2.5600    1.1601 C   0  0  0  0  0  0  0  0  0  0  0  0
   -7.0665   -2.6567    0.1817 C   0  0  0  0  0  0  0  0  0  0  0  0
   -6.9107   -1.9288   -0.9842 C   0  0  0  0  0  0  0  0  0  0  0  0
   -5.7917   -1.1329   -1.1614 C   0  0  0  0  0  0  0  0  0  0  0  0
   -5.6723   -0.4151   -2.3793 N   0  0  0  0  0  0  0  0  0  0  0  0
   -5.3795   -0.8603   -3.6046 C   0  0  0  0  0  0  0  0  0  0  0  0
   -5.4088    0.1574   -4.4220 N   0  0  0  0  0  0  0  0  0  0  0  0
   -5.7219    1.2191   -3.6759 N   0  0  0  0  0  0  0  0  0  0  0  0
   -5.8862    0.8971   -2.4568 N   0  0  0  0  0  0  0  0  0  0  0  0
   -6.2727   -3.4421    2.6327 Cl  0  0  0  0  0  0  0  0  0  0  0  0
   -0.2157    0.3125    0.7148 N   0  0  0  0  0  0  0  0  0  0  0  0
    0.9624    1.1318    0.6863 C   0  0  2  0  0  0  0  0  0  0  0  0
    2.2000    0.2447    0.6001 C   0  0  0  0  0  0  0  0  0  0  0  0
    2.2339   -0.8525    1.1201 O   0  0  0  0  0  0  0  0  0  0  0  0
    1.0656    2.0183    1.9478 C   0  0  0  0  0  0  0  0  0  0  0  0
   -0.1505    2.8834    2.1045 C   0  0  0  0  0  0  0  0  0  0  0  0
   -1.2330    2.4523    2.8660 C   0  0  0  0  0  0  0  0  0  0  0  0
   -0.2390    4.1101    1.4514 C   0  0  0  0  0  0  0  0  0  0  0  0
   -2.3814    3.2255    2.9705 C   0  0  0  0  0  0  0  0  0  0  0  0
   -1.3827    4.8884    1.5562 C   0  0  0  0  0  0  0  0  0  0  0  0
   -2.4597    4.4463    2.3144 C   0  0  0  0  0  0  0  0  0  0  0  0
    3.2362    0.8268   -0.0528 N   0  0  0  0  0  0  0  0  0  0  0  0
    4.5342    0.3600   -0.2459 C   0  0  0  0  0  0  0  0  0  0  0  0
    5.4040    1.1981   -0.9510 C   0  0  0  0  0  0  0  0  0  0  0  0
    6.7066    0.8214   -1.1946 C   0  0  0  0  0  0  0  0  0  0  0  0
    7.1838   -0.4087   -0.7406 C   0  0  0  0  0  0  0  0  0  0  0  0
    6.3162   -1.2404   -0.0393 C   0  0  0  0  0  0  0  0  0  0  0  0
    5.0055   -0.8718    0.2114 C   0  0  0  0  0  0  0  0  0  0  0  0
    8.5619   -0.7837   -1.0086 C   0  0  0  0  0  0  0  0  0  0  0  0
    9.1615   -1.9295   -0.6701 N   0  0  0  0  0  0  0  0  0  0  0  0
   10.4167   -1.9030   -1.0847 N   0  0  0  0  0  0  0  0  0  0  0  0
   10.5809   -0.7778   -1.6583 N   0  0  0  0  0  0  0  0  0  0  0  0
    9.4634   -0.0569   -1.6339 N   0  0  0  0  0  0  0  0  0  0  0  0
   -2.3195   -1.0840    1.0396 H   0  0  0  0  0  0  0  0  0  0  0  0
   -3.6483    0.5343   -1.1835 H   0  0  0  0  0  0  0  0  0  0  0  0
   -4.2356   -1.7037    1.7782 H   0  0  0  0  0  0  0  0  0  0  0  0
   -7.9395   -3.2772    0.3265 H   0  0  0  0  0  0  0  0  0  0  0  0
   -7.6661   -1.9791   -1.7567 H   0  0  0  0  0  0  0  0  0  0  0  0
   -5.1559   -1.8873   -3.8410 H   0  0  0  0  0  0  0  0  0  0  0  0
   -0.2543   -0.4198    1.4071 H   0  0  0  0  0  0  0  0  0  0  0  0
    0.8955    1.7738   -0.1932 H   0  0  0  0  0  0  0  0  0  0  0  0
    1.9661    2.6323    1.8748 H   0  0  0  0  0  0  0  0  0  0  0  0
    1.1871    1.3737    2.8221 H   0  0  0  0  0  0  0  0  0  0  0  0
   -1.1760    1.5051    3.3891 H   0  0  0  0  0  0  0  0  0  0  0  0
    0.5961    4.4632    0.8570 H   0  0  0  0  0  0  0  0  0  0  0  0
   -3.2132    2.8751    3.5683 H   0  0  0  0  0  0  0  0  0  0  0  0
   -1.4338    5.8420    1.0464 H   0  0  0  0  0  0  0  0  0  0  0  0
   -3.3523    5.0533    2.3954 H   0  0  0  0  0  0  0  0  0  0  0  0
    3.0455    1.7251   -0.4719 H   0  0  0  0  0  0  0  0  0  0  0  0
    5.0541    2.1571   -1.3130 H   0  0  0  0  0  0  0  0  0  0  0  0
    4.3696   -1.5462    0.7592 H   0  0  0  0  0  0  0  0  0  0  0  0
    7.3564    1.4889   -1.7440 H   0  0  0  0  0  0  0  0  0  0  0  0
    6.6436   -2.2030    0.3324 H   0  0  0  0  0  0  0  0  0  0  0  0
    8.8046   -2.7400   -0.1842 H   0  0  0  0  0  0  0  0  0  0  0  0
 27 25  1  0
 27 26  2  0
 25 23  2  0
 23 22  1  0
 22 24  2  0
 22 21  1  0
 24 26  1  0
 21 18  1  0
 18 19  1  0
 18 17  1  0
 19 20  2  0
 19 28  1  0
 28 29  1  0
 29 30  2  0
 29 34  1  0
 30 31  1  0
 31 32  2  0
 32 33  1  0
 32 35  1  0
 33 34  2  0
 35 36  1  0
 35 39  2  0
 36 37  1  0
 37 38  2  0
 38 39  1  0
 17  1  1  0
  1  2  2  0
  1  3  1  0
  3  4  2  0
  4  5  1  0
  5  6  2  0
  5 10  1  0
  6  7  1  0
  7  8  2  0
  7 16  1  0
  8  9  1  0
  9 10  2  0
 10 11  1  0
 11 12  1  0
 11 15  1  0
 12 13  2  0
 13 14  1  0
 14 15  2  0
 27 54  1  0
 25 52  1  0
 26 53  1  0
 23 50  1  0
 24 51  1  0
 21 48  1  0
 21 49  1  0
 18 47  1  6
 17 46  1  0
 28 55  1  0
 30 56  1  0
 34 57  1  0
 31 58  1  0
 33 59  1  0
 36 60  1  0
  3 40  1  0
  4 41  1  0
  6 42  1  0
  8 43  1  0
  9 44  1  0
 12 45  1  0
M  END
