
     RDKit          3D

 34 33  0  0  0  0  0  0  0  0999 V2000
    8.1162   -0.6163   -0.0944 C   0  0  0  0  0  0  0  0  0  0  0  0
    6.8886    0.2520   -0.1117 C   0  0  0  0  0  0  0  0  0  0  0  0
    6.9576    1.4607   -0.2524 O   0  0  0  0  0  0  0  0  0  0  0  0
    5.6109   -0.4586    0.0268 C   0  0  0  0  0  0  0  0  0  0  0  0
    4.4197    0.1706   -0.0075 C   0  0  0  0  0  0  0  0  0  0  0  0
    3.1574   -0.4996    0.1028 C   0  0  0  0  0  0  0  0  0  0  0  0
    1.9758    0.1561    0.0493 C   0  0  0  0  0  0  0  0  0  0  0  0
    0.6991   -0.4875    0.1338 C   0  0  0  0  0  0  0  0  0  0  0  0
   -0.4728    0.1835    0.0585 C   0  0  0  0  0  0  0  0  0  0  0  0
   -1.7594   -0.4439    0.1237 C   0  0  0  0  0  0  0  0  0  0  0  0
   -2.9226    0.2380    0.0280 C   0  0  0  0  0  0  0  0  0  0  0  0
   -4.2190   -0.3763    0.0763 C   0  0  0  0  0  0  0  0  0  0  0  0
   -5.3722    0.3137   -0.0401 C   0  0  0  0  0  0  0  0  0  0  0  0
   -6.6822   -0.2901    0.0002 C   0  0  0  0  0  0  0  0  0  0  0  0
   -7.8207    0.4029   -0.1387 C   0  0  0  0  0  0  0  0  0  0  0  0
   -9.1861   -0.1897   -0.1100 C   0  0  0  0  0  0  0  0  0  0  0  0
    8.0901   -1.3103    0.7468 H   0  0  0  0  0  0  0  0  0  0  0  0
    8.1410   -1.2255   -1.0016 H   0  0  0  0  0  0  0  0  0  0  0  0
    9.0265   -0.0226   -0.0478 H   0  0  0  0  0  0  0  0  0  0  0  0
    5.6502   -1.5359    0.1487 H   0  0  0  0  0  0  0  0  0  0  0  0
    4.3967    1.2501   -0.1304 H   0  0  0  0  0  0  0  0  0  0  0  0
    3.1653   -1.5790    0.2225 H   0  0  0  0  0  0  0  0  0  0  0  0
    1.9804    1.2365   -0.0719 H   0  0  0  0  0  0  0  0  0  0  0  0
    0.6872   -1.5674    0.2530 H   0  0  0  0  0  0  0  0  0  0  0  0
   -0.4521    1.2635   -0.0646 H   0  0  0  0  0  0  0  0  0  0  0  0
   -1.7856   -1.5232    0.2476 H   0  0  0  0  0  0  0  0  0  0  0  0
   -2.8889    1.3175   -0.0970 H   0  0  0  0  0  0  0  0  0  0  0  0
   -4.2568   -1.4544    0.2097 H   0  0  0  0  0  0  0  0  0  0  0  0
   -5.3286    1.3919   -0.1735 H   0  0  0  0  0  0  0  0  0  0  0  0
   -6.7285   -1.3662    0.1492 H   0  0  0  0  0  0  0  0  0  0  0  0
   -7.7601    1.4777   -0.2889 H   0  0  0  0  0  0  0  0  0  0  0  0
   -9.1621   -1.2567    0.1097 H   0  0  0  0  0  0  0  0  0  0  0  0
   -9.8110    0.3012    0.6394 H   0  0  0  0  0  0  0  0  0  0  0  0
   -9.6917   -0.0512   -1.0689 H   0  0  0  0  0  0  0  0  0  0  0  0
  1  2  1  0
  2  3  2  0
  2  4  1  0
  4  5  2  0
  5  6  1  0
  6  7  2  0
  7  8  1  0
  8  9  2  0
  9 10  1  0
 10 11  2  0
 11 12  1  0
 12 13  2  0
 13 14  1  0
 14 15  2  0
 15 16  1  0
  1 17  1  0
  1 18  1  0
  1 19  1  0
  4 20  1  0
  5 21  1  0
  6 22  1  0
  7 23  1  0
  8 24  1  0
  9 25  1  0
 10 26  1  0
 11 27  1  0
 12 28  1  0
 13 29  1  0
 14 30  1  0
 15 31  1  0
 16 32  1  0
 16 33  1  0
 16 34  1  0
M  END
