
     RDKit          3D

 14 14  0  0  0  0  0  0  0  0999 V2000
   -0.4859    1.2222   -0.0059 C   0  0  0  0  0  0  0  0  0  0  0  0
   -1.8711    1.2158   -0.0102 C   0  0  0  0  0  0  0  0  0  0  0  0
   -2.5657    0.0130   -0.0137 C   0  0  0  0  0  0  0  0  0  0  0  0
   -1.8763   -1.1928   -0.0119 C   0  0  0  0  0  0  0  0  0  0  0  0
   -0.4913   -1.2054   -0.0055 C   0  0  0  0  0  0  0  0  0  0  0  0
    0.1847    0.0069   -0.0031 C   0  0  0  0  0  0  0  0  0  0  0  0
    1.6408    0.0038    0.0029 N   0  0  0  0  0  0  0  0  0  0  0  0
    2.2070   -1.0632    0.0401 O   0  0  0  0  0  0  0  0  0  0  0  0
    2.2120    1.0681   -0.0298 O   0  0  0  0  0  0  0  0  0  0  0  0
    0.0526    2.1586   -0.0034 H   0  0  0  0  0  0  0  0  0  0  0  0
   -2.4078    2.1544   -0.0106 H   0  0  0  0  0  0  0  0  0  0  0  0
   -3.6473    0.0154   -0.0172 H   0  0  0  0  0  0  0  0  0  0  0  0
   -2.4175   -2.1289   -0.0153 H   0  0  0  0  0  0  0  0  0  0  0  0
    0.0429   -2.1443   -0.0039 H   0  0  0  0  0  0  0  0  0  0  0  0
  1  2  2  0
  1  6  1  0
  1 10  1  0
  2  3  1  0
  2 11  1  0
  3  4  2  0
  3 12  1  0
  4  5  1  0
  4 13  1  0
  5  6  2  0
  5 14  1  0
  6  7  1  0
  7  8  1  0
  7  9  2  0
M  CHG  2   7   1   8  -1
M  END
