
     RDKit          3D

 26 27  0  0  0  0  0  0  0  0999 V2000
    3.1643    0.9865   -0.4029 C   0  0  0  0  0  0  0  0  0  0  0  0
    1.7765    0.4400   -0.2897 C   0  0  0  0  0  0  0  0  0  0  0  0
    0.6634    1.2007   -0.2359 C   0  0  0  0  0  0  0  0  0  0  0  0
   -0.6250    0.5893   -0.0871 C   0  0  0  0  0  0  0  0  0  0  0  0
   -1.8205    1.3559   -0.0516 C   0  0  0  0  0  0  0  0  0  0  0  0
   -1.7704    2.7333   -0.1504 N   0  0  0  0  0  0  0  0  0  0  0  0
   -3.0282    0.6999    0.1421 C   0  0  0  0  0  0  0  0  0  0  0  0
   -3.0881   -0.6856    0.2885 C   0  0  0  0  0  0  0  0  0  0  0  0
   -1.9422   -1.4461    0.2260 C   0  0  0  0  0  0  0  0  0  0  0  0
   -0.7117   -0.8087    0.0360 C   0  0  0  0  0  0  0  0  0  0  0  0
    0.5011   -1.6260   -0.0364 C   0  0  0  0  0  0  0  0  0  0  0  0
    0.5130   -2.8491    0.0365 O   0  0  0  0  0  0  0  0  0  0  0  0
    1.6631   -0.9247   -0.2040 N   0  0  0  0  0  0  0  0  0  0  0  0
    3.9935    0.7752    0.8637 C   0  0  0  0  0  0  0  0  0  0  0  0
    3.6695    0.5198   -1.2537 H   0  0  0  0  0  0  0  0  0  0  0  0
    3.0957    2.0513   -0.6249 H   0  0  0  0  0  0  0  0  0  0  0  0
    4.1217   -0.2819    1.0982 H   0  0  0  0  0  0  0  0  0  0  0  0
    4.9870    1.2040    0.7371 H   0  0  0  0  0  0  0  0  0  0  0  0
    3.5249    1.2555    1.7224 H   0  0  0  0  0  0  0  0  0  0  0  0
    0.7755    2.2739   -0.2818 H   0  0  0  0  0  0  0  0  0  0  0  0
    2.5048   -1.4820   -0.2705 H   0  0  0  0  0  0  0  0  0  0  0  0
   -1.0742    3.1045   -0.7775 H   0  0  0  0  0  0  0  0  0  0  0  0
   -2.6632    3.1677   -0.3253 H   0  0  0  0  0  0  0  0  0  0  0  0
   -3.9430    1.2806    0.1722 H   0  0  0  0  0  0  0  0  0  0  0  0
   -4.0490   -1.1602    0.4393 H   0  0  0  0  0  0  0  0  0  0  0  0
   -1.9863   -2.5218    0.3201 H   0  0  0  0  0  0  0  0  0  0  0  0
  1  2  1  0
  1 14  1  0
  2  3  2  0
  2 13  1  0
  3  4  1  0
  4  5  1  0
  4 10  2  0
  5  6  1  0
  5  7  2  0
  7  8  1  0
  8  9  2  0
  9 10  1  0
 10 11  1  0
 11 12  2  0
 11 13  1  0
  1 15  1  0
  1 16  1  0
 14 17  1  0
 14 18  1  0
 14 19  1  0
  3 20  1  0
 13 21  1  0
  6 22  1  0
  6 23  1  0
  7 24  1  0
  8 25  1  0
  9 26  1  0
M  END
