
     RDKit          3D

 43 45  0  0  0  0  0  0  0  0999 V2000
    4.4356   -1.5643   -0.3218 O   0  0  0  0  0  0  0  0  0  0  0  0
    4.5840   -0.3580   -0.3854 C   0  0  0  0  0  0  0  0  0  0  0  0
    5.9430    0.2807   -0.5644 C   0  0  0  0  0  0  0  0  0  0  0  0
    7.0389   -0.3846    0.2682 C   0  0  1  0  0  0  0  0  0  0  0  0
    8.4031    0.1599   -0.1402 C   0  0  0  0  0  0  0  0  0  0  0  0
    6.7970   -0.1847    1.7608 C   0  0  0  0  0  0  0  0  0  0  0  0
    3.5510    0.5298   -0.3346 N   0  0  0  0  0  0  0  0  0  0  0  0
    2.1828    0.2905   -0.2662 C   0  0  0  0  0  0  0  0  0  0  0  0
    1.3453    1.4127   -0.2950 C   0  0  0  0  0  0  0  0  0  0  0  0
   -0.0242    1.2766   -0.2425 C   0  0  0  0  0  0  0  0  0  0  0  0
    1.6021   -0.9761   -0.1712 C   0  0  0  0  0  0  0  0  0  0  0  0
    0.2230   -1.0998   -0.1300 C   0  0  0  0  0  0  0  0  0  0  0  0
   -0.6132    0.0128   -0.1717 C   0  0  0  0  0  0  0  0  0  0  0  0
   -2.0783   -0.0983   -0.1343 C   0  0  0  0  0  0  0  0  0  0  0  0
   -2.6336   -1.2686   -0.5677 N   0  0  0  0  0  0  0  0  0  0  0  0
   -3.9851   -1.5351   -0.5846 C   0  0  0  0  0  0  0  0  0  0  0  0
   -4.4104   -2.6035   -0.9852 O   0  0  0  0  0  0  0  0  0  0  0  0
   -2.7854    0.8911    0.2898 N   0  0  0  0  0  0  0  0  0  0  0  0
   -4.1503    0.7529    0.3064 C   0  0  0  0  0  0  0  0  0  0  0  0
   -4.7956   -0.4256   -0.1018 C   0  0  0  0  0  0  0  0  0  0  0  0
   -4.9308    1.8274    0.7578 C   0  0  0  0  0  0  0  0  0  0  0  0
   -6.3034    1.7190    0.7949 C   0  0  0  0  0  0  0  0  0  0  0  0
   -6.9405    0.5412    0.3866 C   0  0  0  0  0  0  0  0  0  0  0  0
   -6.1890   -0.5236   -0.0599 C   0  0  0  0  0  0  0  0  0  0  0  0
    6.1861    0.1962   -1.6297 H   0  0  0  0  0  0  0  0  0  0  0  0
    5.9098    1.3516   -0.3437 H   0  0  0  0  0  0  0  0  0  0  0  0
    3.8056    1.5040   -0.3978 H   0  0  0  0  0  0  0  0  0  0  0  0
    7.0244   -1.4568    0.0529 H   0  0  0  0  0  0  0  0  0  0  0  0
    8.4752    1.2327    0.0541 H   0  0  0  0  0  0  0  0  0  0  0  0
    9.2023   -0.3305    0.4171 H   0  0  0  0  0  0  0  0  0  0  0  0
    8.5923    0.0017   -1.2032 H   0  0  0  0  0  0  0  0  0  0  0  0
    5.8430   -0.6052    2.0828 H   0  0  0  0  0  0  0  0  0  0  0  0
    7.5792   -0.6648    2.3506 H   0  0  0  0  0  0  0  0  0  0  0  0
    6.7963    0.8780    2.0158 H   0  0  0  0  0  0  0  0  0  0  0  0
    1.7769    2.4038   -0.3692 H   0  0  0  0  0  0  0  0  0  0  0  0
    2.2096   -1.8639   -0.1260 H   0  0  0  0  0  0  0  0  0  0  0  0
   -0.6490    2.1586   -0.2712 H   0  0  0  0  0  0  0  0  0  0  0  0
   -0.1813   -2.1002   -0.0354 H   0  0  0  0  0  0  0  0  0  0  0  0
   -2.0350   -1.9916   -0.9458 H   0  0  0  0  0  0  0  0  0  0  0  0
   -4.4351    2.7349    1.0765 H   0  0  0  0  0  0  0  0  0  0  0  0
   -6.6704   -1.4373   -0.3820 H   0  0  0  0  0  0  0  0  0  0  0  0
   -6.8954    2.5549    1.1444 H   0  0  0  0  0  0  0  0  0  0  0  0
   -8.0190    0.4693    0.4217 H   0  0  0  0  0  0  0  0  0  0  0  0
  1  2  2  0
  2  3  1  0
  2  7  1  0
  3  4  1  0
  4  5  1  0
  4  6  1  0
  7  8  1  0
  8  9  2  0
  8 11  1  0
  9 10  1  0
 10 13  2  0
 11 12  2  0
 12 13  1  0
 13 14  1  0
 14 15  1  0
 14 18  2  0
 15 16  1  0
 16 17  2  0
 16 20  1  0
 18 19  1  0
 19 20  2  0
 19 21  1  0
 20 24  1  0
 21 22  2  0
 22 23  1  0
 23 24  2  0
  3 25  1  0
  3 26  1  0
  7 27  1  0
  4 28  1  1
  5 29  1  0
  5 30  1  0
  5 31  1  0
  6 32  1  0
  6 33  1  0
  6 34  1  0
  9 35  1  0
 11 36  1  0
 10 37  1  0
 12 38  1  0
 15 39  1  0
 21 40  1  0
 24 41  1  0
 22 42  1  0
 23 43  1  0
M  END
