
     RDKit          3D

 65 67  0  0  0  0  0  0  0  0999 V2000
   -8.8448   -2.2077   -0.1367 O   0  0  0  0  0  0  0  0  0  0  0  0
   -7.6773   -1.8942    0.5943 C   0  0  0  0  0  0  0  0  0  0  0  0
   -6.7891   -0.9998   -0.2476 C   0  0  0  0  0  0  0  0  0  0  0  0
   -5.5199   -0.6067    0.5020 C   0  0  0  0  0  0  0  0  0  0  0  0
   -4.4858    0.1590   -0.3354 C   0  0  1  0  0  0  0  0  0  0  0  0
   -5.0783    1.4617   -0.8670 C   0  0  0  0  0  0  0  0  0  0  0  0
   -3.2039    0.3659    0.4871 C   0  0  2  0  0  0  0  0  0  0  0  0
   -2.0100    1.1029   -0.1686 C   0  0  1  0  0  0  0  0  0  0  0  0
   -1.7591    0.5742   -1.5825 C   0  0  0  0  0  0  0  0  0  0  0  0
   -2.0740    2.6324   -0.1614 C   0  0  0  0  0  0  0  0  0  0  0  0
   -0.7351    3.2534   -0.5588 C   0  0  0  0  0  0  0  0  0  0  0  0
    0.4324    2.7421    0.2926 C   0  0  0  0  0  0  0  0  0  0  0  0
   -2.5908   -0.9828    0.9538 C   0  0  0  0  0  0  0  0  0  0  0  0
   -1.0606   -0.8088    0.9794 C   0  0  0  0  0  0  0  0  0  0  0  0
   -0.8669    0.6867    0.7923 C   0  0  1  0  0  0  0  0  0  0  0  0
    0.4599    1.2398    0.3738 C   0  0  0  0  0  0  0  0  0  0  0  0
    1.5255    0.4644    0.1161 C   0  0  0  0  0  0  0  0  0  0  0  0
    2.8365    0.9149   -0.3150 C   0  0  0  0  0  0  0  0  0  0  0  0
    3.9042    0.1433   -0.5714 C   0  0  0  0  0  0  0  0  0  0  0  0
    5.2028    0.7393   -1.0313 C   0  0  0  0  0  0  0  0  0  0  0  0
    3.9464   -1.3513   -0.4314 C   0  0  0  0  0  0  0  0  0  0  0  0
    5.0847   -1.7759    0.5041 C   0  0  1  0  0  0  0  0  0  0  0  0
    5.0937   -3.1793    0.5651 O   0  0  0  0  0  0  0  0  0  0  0  0
    6.3780   -1.1783    0.0088 C   0  0  0  0  0  0  0  0  0  0  0  0
    7.4405   -1.8950   -0.3405 C   0  0  0  0  0  0  0  0  0  0  0  0
    6.3581    0.3250   -0.1212 C   0  0  2  0  0  0  0  0  0  0  0  0
    6.1577    0.9521    1.1304 O   0  0  0  0  0  0  0  0  0  0  0  0
   -9.3869   -2.7925    0.4000 H   0  0  0  0  0  0  0  0  0  0  0  0
   -7.9209   -1.3791    1.5340 H   0  0  0  0  0  0  0  0  0  0  0  0
   -7.1232   -2.8019    0.8688 H   0  0  0  0  0  0  0  0  0  0  0  0
   -6.5200   -1.5213   -1.1722 H   0  0  0  0  0  0  0  0  0  0  0  0
   -7.3572   -0.1128   -0.5388 H   0  0  0  0  0  0  0  0  0  0  0  0
   -5.7851   -0.0066    1.3815 H   0  0  0  0  0  0  0  0  0  0  0  0
   -5.0623   -1.5214    0.8895 H   0  0  0  0  0  0  0  0  0  0  0  0
   -4.2280   -0.4745   -1.1949 H   0  0  0  0  0  0  0  0  0  0  0  0
   -4.4265    1.9386   -1.5968 H   0  0  0  0  0  0  0  0  0  0  0  0
   -6.0320    1.2924   -1.3672 H   0  0  0  0  0  0  0  0  0  0  0  0
   -5.2522    2.1775   -0.0593 H   0  0  0  0  0  0  0  0  0  0  0  0
   -3.4789    0.9459    1.3797 H   0  0  0  0  0  0  0  0  0  0  0  0
   -2.4840    0.9853   -2.2877 H   0  0  0  0  0  0  0  0  0  0  0  0
   -0.7673    0.8382   -1.9511 H   0  0  0  0  0  0  0  0  0  0  0  0
   -1.8383   -0.5132   -1.6346 H   0  0  0  0  0  0  0  0  0  0  0  0
   -2.8514    3.0079   -0.8280 H   0  0  0  0  0  0  0  0  0  0  0  0
   -2.3433    2.9679    0.8472 H   0  0  0  0  0  0  0  0  0  0  0  0
   -0.5313    3.0524   -1.6141 H   0  0  0  0  0  0  0  0  0  0  0  0
   -0.7936    4.3404   -0.4649 H   0  0  0  0  0  0  0  0  0  0  0  0
    1.3683    3.1551   -0.0834 H   0  0  0  0  0  0  0  0  0  0  0  0
    0.3107    3.1304    1.3112 H   0  0  0  0  0  0  0  0  0  0  0  0
   -2.9767   -1.2668    1.9335 H   0  0  0  0  0  0  0  0  0  0  0  0
   -2.8717   -1.7866    0.2676 H   0  0  0  0  0  0  0  0  0  0  0  0
   -0.6091   -1.1696    1.9049 H   0  0  0  0  0  0  0  0  0  0  0  0
   -0.5995   -1.3721    0.1651 H   0  0  0  0  0  0  0  0  0  0  0  0
   -1.1136    1.1662    1.7532 H   0  0  0  0  0  0  0  0  0  0  0  0
    1.3972   -0.6054    0.2395 H   0  0  0  0  0  0  0  0  0  0  0  0
    2.9683    1.9831   -0.4575 H   0  0  0  0  0  0  0  0  0  0  0  0
    5.4381    0.3811   -2.0400 H   0  0  0  0  0  0  0  0  0  0  0  0
    5.1443    1.8290   -1.0846 H   0  0  0  0  0  0  0  0  0  0  0  0
    3.0070   -1.7588   -0.0585 H   0  0  0  0  0  0  0  0  0  0  0  0
    4.1292   -1.8005   -1.4157 H   0  0  0  0  0  0  0  0  0  0  0  0
    4.8720   -1.3509    1.4955 H   0  0  0  0  0  0  0  0  0  0  0  0
    5.6988   -3.4490    1.2635 H   0  0  0  0  0  0  0  0  0  0  0  0
    8.3394   -1.4140   -0.7061 H   0  0  0  0  0  0  0  0  0  0  0  0
    7.4614   -2.9756   -0.2868 H   0  0  0  0  0  0  0  0  0  0  0  0
    7.3009    0.6554   -0.5768 H   0  0  0  0  0  0  0  0  0  0  0  0
    6.8819    0.6958    1.7103 H   0  0  0  0  0  0  0  0  0  0  0  0
 25 24  2  0
 23 22  1  0
 24 26  1  0
 24 22  1  0
 26 27  1  0
 26 20  1  0
 22 21  1  0
 20 19  1  0
 21 19  1  0
 19 18  2  0
 18 17  1  0
 17 16  2  0
 16 12  1  0
 16 15  1  0
 14 15  1  0
 14 13  1  0
  8  9  1  6
 12 11  1  0
 15  8  1  0
 13  7  1  0
  8  7  1  0
  8 10  1  0
  2  1  1  0
  2  3  1  0
 11 10  1  0
  7  5  1  0
  5  6  1  0
  5  4  1  0
  3  4  1  0
  1 28  1  0
  2 29  1  0
  2 30  1  0
  3 31  1  0
  3 32  1  0
  4 33  1  0
  4 34  1  0
  5 35  1  6
  6 36  1  0
  6 37  1  0
  6 38  1  0
  7 39  1  1
  9 40  1  0
  9 41  1  0
  9 42  1  0
 10 43  1  0
 10 44  1  0
 11 45  1  0
 11 46  1  0
 12 47  1  0
 12 48  1  0
 13 49  1  0
 13 50  1  0
 14 51  1  0
 14 52  1  0
 15 53  1  1
 17 54  1  0
 18 55  1  0
 20 56  1  0
 20 57  1  0
 21 58  1  0
 21 59  1  0
 22 60  1  1
 23 61  1  0
 25 62  1  0
 25 63  1  0
 26 64  1  6
 27 65  1  0
M  END
