
     RDKit          3D

 26 26  0  0  0  0  0  0  0  0999 V2000
    4.0129   -0.0903    0.2251 C   0  0  0  0  0  0  0  0  0  0  0  0
    2.3825    0.7092   -1.3905 N   0  0  0  0  0  0  0  0  0  0  0  0
    4.6549   -1.0173   -0.2714 O   0  0  0  0  0  0  0  0  0  0  0  0
    0.0937   -0.3719    1.0246 S   0  0  0  0  0  0  0  0  0  0  0  0
    2.5634    0.3118   -0.0131 C   0  0  1  0  0  0  0  0  0  0  0  0
    1.7017   -0.8577    0.4859 C   0  0  0  0  0  0  0  0  0  0  0  0
   -0.4032   -0.4905   -1.5591 O   0  0  0  0  0  0  0  0  0  0  0  0
   -4.9912    0.4867    0.2738 C   0  0  0  0  0  0  0  0  0  0  0  0
   -4.6040   -0.5387   -0.5888 C   0  0  0  0  0  0  0  0  0  0  0  0
   -4.0241    1.2598    0.9186 C   0  0  0  0  0  0  0  0  0  0  0  0
   -3.2510   -0.7925   -0.8086 C   0  0  0  0  0  0  0  0  0  0  0  0
   -2.6701    1.0115    0.7044 C   0  0  0  0  0  0  0  0  0  0  0  0
   -0.8578   -0.3175   -0.4196 C   0  0  0  0  0  0  0  0  0  0  0  0
   -2.2760   -0.0201   -0.1613 C   0  0  0  0  0  0  0  0  0  0  0  0
    4.6534    0.7113    1.1177 O   0  0  0  0  0  0  0  0  0  0  0  0
    2.2300   -0.0872   -1.9808 H   0  0  0  0  0  0  0  0  0  0  0  0
    1.6055    1.3366   -1.4728 H   0  0  0  0  0  0  0  0  0  0  0  0
    2.3426    1.2184    0.6312 H   0  0  0  0  0  0  0  0  0  0  0  0
    2.1791   -1.3090    1.3930 H   0  0  0  0  0  0  0  0  0  0  0  0
    1.6275   -1.6451   -0.3057 H   0  0  0  0  0  0  0  0  0  0  0  0
   -6.0599    0.6871    0.4466 H   0  0  0  0  0  0  0  0  0  0  0  0
   -5.3647   -1.1489   -1.0977 H   0  0  0  0  0  0  0  0  0  0  0  0
   -4.3301    2.0684    1.5988 H   0  0  0  0  0  0  0  0  0  0  0  0
   -2.9340   -1.6007   -1.4875 H   0  0  0  0  0  0  0  0  0  0  0  0
   -1.9162    1.6299    1.2198 H   0  0  0  0  0  0  0  0  0  0  0  0
    5.5703    0.4086    1.2294 H   0  0  0  0  0  0  0  0  0  0  0  0
  1 15  1  0
  2 16  1  0
  2 17  1  0
  3  1  2  0
  4 13  1  0
  5  1  1  0
  5  2  1  0
  5 18  1  1
  6  4  1  0
  6  5  1  0
  6 19  1  0
  6 20  1  0
  7 13  2  0
  8 21  1  0
  9  8  2  0
  9 22  1  0
 10  8  1  0
 10 23  1  0
 11  9  1  0
 11 24  1  0
 12 10  2  0
 12 25  1  0
 13 14  1  0
 14 11  2  0
 14 12  1  0
 15 26  1  0
M  END
