
     RDKit          3D

 45 48  0  0  0  0  0  0  0  0999 V2000
    7.2929   -0.9405   -0.5331 C   0  0  0  0  0  0  0  0  0  0  0  0
    5.8483   -0.5873   -0.5163 C   0  0  0  0  0  0  0  0  0  0  0  0
    4.7543   -1.3682   -0.7893 C   0  0  0  0  0  0  0  0  0  0  0  0
    5.3935    0.6455   -0.1929 N   0  0  0  0  0  0  0  0  0  0  0  0
    4.1062    0.6596   -0.2508 N   0  0  0  0  0  0  0  0  0  0  0  0
    3.7045   -0.5444   -0.6146 N   0  0  0  0  0  0  0  0  0  0  0  0
    2.2966   -0.8552   -0.6955 C   0  0  0  0  0  0  0  0  0  0  0  0
    1.7679   -1.2912    0.6705 C   0  0  0  0  0  0  0  0  0  0  0  0
    0.3699   -1.6517    0.5969 N   0  0  0  0  0  0  0  0  0  0  0  0
   -0.0995   -2.9153    0.5505 C   0  0  0  0  0  0  0  0  0  0  0  0
   -1.3868   -2.9560    0.3417 N   0  0  0  0  0  0  0  0  0  0  0  0
   -1.7869   -1.6541    0.2241 C   0  0  0  0  0  0  0  0  0  0  0  0
   -3.1827   -1.3202    0.0110 C   0  0  0  0  0  0  0  0  0  0  0  0
   -4.1576   -2.1713   -0.4747 C   0  0  0  0  0  0  0  0  0  0  0  0
   -3.8821   -0.1209    0.2539 C   0  0  0  0  0  0  0  0  0  0  0  0
   -5.1585   -0.2341   -0.0606 N   0  0  0  0  0  0  0  0  0  0  0  0
   -5.3067   -1.4788   -0.5009 N   0  0  0  0  0  0  0  0  0  0  0  0
   -6.6021   -1.9448   -0.9337 C   0  0  0  0  0  0  0  0  0  0  0  0
   -0.7038   -0.8175    0.3705 C   0  0  0  0  0  0  0  0  0  0  0  0
   -0.5944    0.6392    0.2968 C   0  0  0  0  0  0  0  0  0  0  0  0
   -1.0432    1.3080   -0.8443 C   0  0  0  0  0  0  0  0  0  0  0  0
   -0.9498    2.6830   -0.9402 C   0  0  0  0  0  0  0  0  0  0  0  0
   -0.3883    3.4086    0.1108 C   0  0  0  0  0  0  0  0  0  0  0  0
   -0.2791    4.8280    0.0137 C   0  0  0  0  0  0  0  0  0  0  0  0
   -0.1917    5.9743   -0.0652 N   0  0  0  0  0  0  0  0  0  0  0  0
    0.0647    2.7556    1.2557 C   0  0  0  0  0  0  0  0  0  0  0  0
   -0.0460    1.3799    1.3452 C   0  0  0  0  0  0  0  0  0  0  0  0
    7.6546   -1.1886    0.4662 H   0  0  0  0  0  0  0  0  0  0  0  0
    7.4773   -1.8021   -1.1720 H   0  0  0  0  0  0  0  0  0  0  0  0
    7.8943   -0.1100   -0.9008 H   0  0  0  0  0  0  0  0  0  0  0  0
    4.6490   -2.3971   -1.0893 H   0  0  0  0  0  0  0  0  0  0  0  0
    1.7789    0.0327   -1.0550 H   0  0  0  0  0  0  0  0  0  0  0  0
    2.1599   -1.6485   -1.4287 H   0  0  0  0  0  0  0  0  0  0  0  0
    2.3153   -2.1660    1.0196 H   0  0  0  0  0  0  0  0  0  0  0  0
    1.9191   -0.5014    1.4053 H   0  0  0  0  0  0  0  0  0  0  0  0
    0.5499   -3.7687    0.6806 H   0  0  0  0  0  0  0  0  0  0  0  0
   -4.1011   -3.1980   -0.7975 H   0  0  0  0  0  0  0  0  0  0  0  0
   -3.5061    0.8067    0.6572 H   0  0  0  0  0  0  0  0  0  0  0  0
   -7.3155   -1.8981   -0.1133 H   0  0  0  0  0  0  0  0  0  0  0  0
   -6.9656   -1.3363   -1.7593 H   0  0  0  0  0  0  0  0  0  0  0  0
   -6.5138   -2.9746   -1.2666 H   0  0  0  0  0  0  0  0  0  0  0  0
   -1.4646    0.7447   -1.6663 H   0  0  0  0  0  0  0  0  0  0  0  0
   -1.2997    3.1916   -1.8279 H   0  0  0  0  0  0  0  0  0  0  0  0
    0.4920    3.3194    2.0735 H   0  0  0  0  0  0  0  0  0  0  0  0
    0.2813    0.8843    2.2495 H   0  0  0  0  0  0  0  0  0  0  0  0
 11 10  2  0
 11 12  1  0
 10  9  1  0
 18 17  1  0
 17 14  1  0
 17 16  1  0
 14 13  2  0
 16 15  2  0
 15 13  1  0
 13 12  1  0
 12 19  2  0
  9  8  1  0
  9 19  1  0
 27 26  2  0
 27 20  1  0
  8  7  1  0
 19 20  1  0
 26 23  1  0
 20 21  2  0
  7  6  1  0
 23 24  1  0
 23 22  2  0
 21 22  1  0
 24 25  3  0
  6  3  1  0
  6  5  1  0
  3  2  2  0
  5  4  2  0
  2  4  1  0
  2  1  1  0
  1 28  1  0
  1 29  1  0
  1 30  1  0
  3 31  1  0
  7 32  1  0
  7 33  1  0
  8 34  1  0
  8 35  1  0
 10 36  1  0
 14 37  1  0
 15 38  1  0
 18 39  1  0
 18 40  1  0
 18 41  1  0
 21 42  1  0
 22 43  1  0
 26 44  1  0
 27 45  1  0
M  END
