
     RDKit          3D

 45 47  0  0  0  0  0  0  0  0999 V2000
   -3.4644   -2.2489    2.2527 C   0  0  0  0  0  0  0  0  0  0  0  0
   -4.4254   -2.6172    3.2309 C   0  0  0  0  0  0  0  0  0  0  0  0
    2.9482    3.2069   -1.0547 C   0  0  0  0  0  0  0  0  0  0  0  0
    2.5567    4.1674   -1.9784 C   0  0  0  0  0  0  0  0  0  0  0  0
    1.2413    4.5705   -2.1058 C   0  0  0  0  0  0  0  0  0  0  0  0
    0.2886    3.9817   -1.2840 C   0  0  0  0  0  0  0  0  0  0  0  0
    0.6543    3.0279   -0.3571 C   0  0  0  0  0  0  0  0  0  0  0  0
    1.9917    2.6329   -0.2252 C   0  0  0  0  0  0  0  0  0  0  0  0
   -0.2937    2.4949    0.4745 O   0  0  0  0  0  0  0  0  0  0  0  0
    2.2494    1.7045    0.7053 O   0  0  0  0  0  0  0  0  0  0  0  0
   -0.7502    1.2358    0.2523 C   0  0  0  0  0  0  0  0  0  0  0  0
   -0.3087    0.4333   -0.7915 C   0  0  0  0  0  0  0  0  0  0  0  0
   -0.8589   -0.8350   -0.9244 C   0  0  0  0  0  0  0  0  0  0  0  0
   -1.8222   -1.3171   -0.0617 C   0  0  0  0  0  0  0  0  0  0  0  0
   -2.2493   -0.4990    0.9864 C   0  0  0  0  0  0  0  0  0  0  0  0
   -1.7261    0.7805    1.1294 C   0  0  0  0  0  0  0  0  0  0  0  0
   -3.2204   -0.9621    1.9724 C   0  0  0  0  0  0  0  0  0  0  0  0
    3.5273    1.0910    0.7119 C   0  0  0  0  0  0  0  0  0  0  0  0
    3.5383    0.0521    1.8085 C   0  0  0  0  0  0  0  0  0  0  0  0
    2.4861   -0.9477    1.6821 N   0  0  0  0  0  0  0  0  0  0  0  0
    2.6424   -1.9600    0.7616 C   0  0  0  0  0  0  0  0  0  0  0  0
    1.6305   -2.8836    0.7454 N   0  0  0  0  0  0  0  0  0  0  0  0
    0.4994   -2.9229    1.5472 C   0  0  0  0  0  0  0  0  0  0  0  0
    0.4068   -1.8127    2.4595 C   0  0  0  0  0  0  0  0  0  0  0  0
    1.3817   -0.8894    2.4808 C   0  0  0  0  0  0  0  0  0  0  0  0
    3.6049   -2.0338    0.0257 O   0  0  0  0  0  0  0  0  0  0  0  0
   -0.2999   -3.8363    1.4417 O   0  0  0  0  0  0  0  0  0  0  0  0
   -5.1997   -2.9379    4.0235 N   0  0  0  0  0  0  0  0  0  0  0  0
   -2.9343   -3.0660    1.7787 H   0  0  0  0  0  0  0  0  0  0  0  0
    3.9899    2.9260   -0.9883 H   0  0  0  0  0  0  0  0  0  0  0  0
    0.9530    5.3195   -2.8292 H   0  0  0  0  0  0  0  0  0  0  0  0
   -0.7512    4.2708   -1.3656 H   0  0  0  0  0  0  0  0  0  0  0  0
    0.4293    0.7870   -1.4989 H   0  0  0  0  0  0  0  0  0  0  0  0
   -2.2463   -2.3006   -0.2048 H   0  0  0  0  0  0  0  0  0  0  0  0
   -2.0654    1.4216    1.9338 H   0  0  0  0  0  0  0  0  0  0  0  0
   -3.7456   -0.1930    2.5279 H   0  0  0  0  0  0  0  0  0  0  0  0
    3.7390    0.6439   -0.2628 H   0  0  0  0  0  0  0  0  0  0  0  0
    4.3152    1.8189    0.9291 H   0  0  0  0  0  0  0  0  0  0  0  0
    4.5111   -0.4374    1.8156 H   0  0  0  0  0  0  0  0  0  0  0  0
    3.4165    0.5312    2.7789 H   0  0  0  0  0  0  0  0  0  0  0  0
    1.7434   -3.6355    0.0765 H   0  0  0  0  0  0  0  0  0  0  0  0
   -0.4390   -1.7357    3.1240 H   0  0  0  0  0  0  0  0  0  0  0  0
    1.3438   -0.0480    3.1573 H   0  0  0  0  0  0  0  0  0  0  0  0
   -0.2669   -1.9297   -2.3424 Br  0  0  0  0  0  0  0  0  0  0  0  0
    3.7664    4.8747   -2.9961 Cl  0  0  0  0  0  0  0  0  0  0  0  0
  1  2  1  0
  1 17  2  0
  2 28  3  0
  3  4  2  0
  3  8  1  0
  4  5  1  0
  5  6  2  0
  6  7  1  0
  7  8  2  0
  7  9  1  0
  8 10  1  0
  9 11  1  0
 10 18  1  0
 11 12  2  0
 11 16  1  0
 12 13  1  0
 13 14  2  0
 13 44  1  0
 14 15  1  0
 15 16  2  0
 15 17  1  0
 18 19  1  0
 19 20  1  0
 20 21  1  0
 20 25  1  0
 21 22  1  0
 21 26  2  0
 22 23  1  0
 23 24  1  0
 23 27  2  0
 24 25  2  0
  4 45  1  0
  1 29  1  0
  3 30  1  0
  5 31  1  0
  6 32  1  0
 12 33  1  0
 14 34  1  0
 16 35  1  0
 17 36  1  0
 18 37  1  0
 18 38  1  0
 19 39  1  0
 19 40  1  0
 22 41  1  0
 24 42  1  0
 25 43  1  0
M  END
