
     RDKit          3D

 46 49  0  0  0  0  0  0  0  0999 V2000
    5.5996   -0.3070    0.8756 C   0  0  0  0  0  0  0  0  0  0  0  0
    6.4290   -0.2318   -0.3933 C   0  0  0  0  0  0  0  0  0  0  0  0
    6.2181    1.0339   -1.0650 N   0  0  0  0  0  0  0  0  0  0  0  0
    7.0570    1.1657   -2.2345 C   0  0  0  0  0  0  0  0  0  0  0  0
    4.8183    1.2095   -1.3866 C   0  0  0  0  0  0  0  0  0  0  0  0
    3.9565    1.1611   -0.1348 C   0  0  0  0  0  0  0  0  0  0  0  0
    4.1930   -0.0742    0.5938 N   0  0  0  0  0  0  0  0  0  0  0  0
    3.2707   -1.0179    0.8607 C   0  0  0  0  0  0  0  0  0  0  0  0
    3.5505   -2.1460    1.2465 O   0  0  0  0  0  0  0  0  0  0  0  0
    1.8259   -0.6461    0.7225 C   0  0  0  0  0  0  0  0  0  0  0  0
    0.9705   -1.5006    0.0364 C   0  0  0  0  0  0  0  0  0  0  0  0
   -0.3853   -1.2308   -0.0367 C   0  0  0  0  0  0  0  0  0  0  0  0
    1.2959    0.4677    1.3682 C   0  0  0  0  0  0  0  0  0  0  0  0
   -0.0606    0.7294    1.3151 C   0  0  0  0  0  0  0  0  0  0  0  0
   -0.9198   -0.1145    0.6103 C   0  0  0  0  0  0  0  0  0  0  0  0
   -2.3595    0.1698    0.5570 C   0  0  0  0  0  0  0  0  0  0  0  0
   -2.9743   -0.4810   -0.4369 O   0  0  0  0  0  0  0  0  0  0  0  0
   -4.3070   -0.3545   -0.6288 C   0  0  0  0  0  0  0  0  0  0  0  0
   -4.8615   -1.0865   -1.6745 C   0  0  0  0  0  0  0  0  0  0  0  0
   -6.2168   -0.9809   -1.9094 C   0  0  0  0  0  0  0  0  0  0  0  0
   -7.0183   -0.1551   -1.1155 C   0  0  0  0  0  0  0  0  0  0  0  0
   -6.4546    0.5628   -0.0837 C   0  0  0  0  0  0  0  0  0  0  0  0
   -5.0833    0.4728    0.1772 C   0  0  0  0  0  0  0  0  0  0  0  0
   -4.4496    1.2145    1.2746 C   0  0  0  0  0  0  0  0  0  0  0  0
   -5.0785    1.9565    2.0177 O   0  0  0  0  0  0  0  0  0  0  0  0
   -3.0287    0.9829    1.4039 C   0  0  0  0  0  0  0  0  0  0  0  0
    5.7234   -1.2770    1.3480 H   0  0  0  0  0  0  0  0  0  0  0  0
    5.9399    0.4584    1.5800 H   0  0  0  0  0  0  0  0  0  0  0  0
    7.4841   -0.3251   -0.1257 H   0  0  0  0  0  0  0  0  0  0  0  0
    6.1834   -1.0890   -1.0445 H   0  0  0  0  0  0  0  0  0  0  0  0
    6.8618    0.3970   -2.9978 H   0  0  0  0  0  0  0  0  0  0  0  0
    6.9025    2.1417   -2.6965 H   0  0  0  0  0  0  0  0  0  0  0  0
    8.1076    1.0923   -1.9489 H   0  0  0  0  0  0  0  0  0  0  0  0
    4.6769    2.1835   -1.8606 H   0  0  0  0  0  0  0  0  0  0  0  0
    4.4577    0.4467   -2.0992 H   0  0  0  0  0  0  0  0  0  0  0  0
    4.1907    2.0125    0.5110 H   0  0  0  0  0  0  0  0  0  0  0  0
    2.9136    1.2435   -0.4275 H   0  0  0  0  0  0  0  0  0  0  0  0
    1.3618   -2.3814   -0.4551 H   0  0  0  0  0  0  0  0  0  0  0  0
   -1.0202   -1.9099   -0.5882 H   0  0  0  0  0  0  0  0  0  0  0  0
    1.9400    1.1401    1.9202 H   0  0  0  0  0  0  0  0  0  0  0  0
   -0.4384    1.6120    1.8126 H   0  0  0  0  0  0  0  0  0  0  0  0
   -4.2331   -1.7224   -2.2840 H   0  0  0  0  0  0  0  0  0  0  0  0
   -6.6604   -1.5439   -2.7196 H   0  0  0  0  0  0  0  0  0  0  0  0
   -8.0787   -0.0813   -1.3139 H   0  0  0  0  0  0  0  0  0  0  0  0
   -7.0659    1.2050    0.5361 H   0  0  0  0  0  0  0  0  0  0  0  0
   -2.5023    1.4672    2.2138 H   0  0  0  0  0  0  0  0  0  0  0  0
 21 22  1  0
 21 20  2  0
 22 23  2  0
 20 19  1  0
 25 24  2  0
 23 24  1  0
 23 18  1  0
 24 26  1  0
 19 18  2  0
 18 17  1  0
 26 16  2  0
 17 16  1  0
 16 15  1  0
 15 12  1  0
 15 14  2  0
 12 11  2  0
 14 13  1  0
 11 10  1  0
 13 10  2  0
 10  8  1  0
  8  9  2  0
  8  7  1  0
  1  7  1  0
  1  2  1  0
  7  6  1  0
  2  3  1  0
  6  5  1  0
  3  5  1  0
  3  4  1  0
  1 27  1  0
  1 28  1  0
  2 29  1  0
  2 30  1  0
  4 31  1  0
  4 32  1  0
  4 33  1  0
  5 34  1  0
  5 35  1  0
  6 36  1  0
  6 37  1  0
 11 38  1  0
 12 39  1  0
 13 40  1  0
 14 41  1  0
 19 42  1  0
 20 43  1  0
 21 44  1  0
 22 45  1  0
 26 46  1  0
M  END
