
     RDKit          3D

 44 46  0  0  0  0  0  0  0  0999 V2000
    0.8037    4.7085   -0.0410 Cl  0  0  0  0  0  0  0  0  0  0  0  0
    2.1028    3.5676   -0.1577 C   0  0  0  0  0  0  0  0  0  0  0  0
    3.3914    4.0250   -0.3904 C   0  0  0  0  0  0  0  0  0  0  0  0
    4.4224    3.1006   -0.4797 C   0  0  0  0  0  0  0  0  0  0  0  0
    4.1696    1.7456   -0.3379 C   0  0  0  0  0  0  0  0  0  0  0  0
    1.8296    2.2194   -0.0168 C   0  0  0  0  0  0  0  0  0  0  0  0
    2.8705    1.2973   -0.1077 C   0  0  0  0  0  0  0  0  0  0  0  0
    2.5913   -0.1473    0.0386 C   0  0  0  0  0  0  0  0  0  0  0  0
    3.6244   -0.9757    0.0537 N   0  0  0  0  0  0  0  0  0  0  0  0
    1.3227   -0.5149    0.1453 N   0  0  0  0  0  0  0  0  0  0  0  0
    1.1190   -1.8203    0.2790 C   0  0  0  0  0  0  0  0  0  0  0  0
    2.0960   -2.7387    0.3111 N   0  0  0  0  0  0  0  0  0  0  0  0
    3.3206   -2.2678    0.1941 C   0  0  0  0  0  0  0  0  0  0  0  0
    4.4542   -3.2422    0.1717 C   0  0  0  0  0  0  0  0  0  0  0  0
    4.9162   -3.5027   -1.2625 C   0  0  0  0  0  0  0  0  0  0  0  0
   -0.1280   -2.3162    0.4010 N   0  0  0  0  0  0  0  0  0  0  0  0
   -1.3746   -1.6866    0.4388 C   0  0  0  0  0  0  0  0  0  0  0  0
   -1.6155   -0.3698    0.0501 C   0  0  0  0  0  0  0  0  0  0  0  0
   -2.9037    0.1435    0.1187 C   0  0  0  0  0  0  0  0  0  0  0  0
   -3.9778   -0.6182    0.5601 C   0  0  0  0  0  0  0  0  0  0  0  0
   -3.7272   -1.9356    0.9328 C   0  0  0  0  0  0  0  0  0  0  0  0
   -2.4504   -2.4625    0.8793 C   0  0  0  0  0  0  0  0  0  0  0  0
   -5.3631   -0.0501    0.6097 C   0  0  0  0  0  0  0  0  0  0  0  0
   -6.1773   -0.3828   -0.6321 C   0  0  0  0  0  0  0  0  0  0  0  0
   -5.9741   -1.3890   -1.2936 O   0  0  0  0  0  0  0  0  0  0  0  0
   -7.1483    0.4973   -0.9120 N   0  0  0  0  0  0  0  0  0  0  0  0
    3.5886    5.0826   -0.5002 H   0  0  0  0  0  0  0  0  0  0  0  0
    5.4309    3.4455   -0.6628 H   0  0  0  0  0  0  0  0  0  0  0  0
    4.9777    1.0317   -0.4083 H   0  0  0  0  0  0  0  0  0  0  0  0
    0.8200    1.8823    0.1706 H   0  0  0  0  0  0  0  0  0  0  0  0
    5.2818   -2.8374    0.7567 H   0  0  0  0  0  0  0  0  0  0  0  0
    4.1354   -4.1744    0.6375 H   0  0  0  0  0  0  0  0  0  0  0  0
    4.1084   -3.9164   -1.8665 H   0  0  0  0  0  0  0  0  0  0  0  0
    5.2604   -2.5850   -1.7388 H   0  0  0  0  0  0  0  0  0  0  0  0
    5.7406   -4.2145   -1.2707 H   0  0  0  0  0  0  0  0  0  0  0  0
   -0.1446   -3.3159    0.5413 H   0  0  0  0  0  0  0  0  0  0  0  0
   -0.8124    0.2550   -0.3039 H   0  0  0  0  0  0  0  0  0  0  0  0
   -3.0652    1.1717   -0.1837 H   0  0  0  0  0  0  0  0  0  0  0  0
   -4.5374   -2.5609    1.2876 H   0  0  0  0  0  0  0  0  0  0  0  0
   -2.2835   -3.4884    1.1868 H   0  0  0  0  0  0  0  0  0  0  0  0
   -5.9094   -0.4641    1.4632 H   0  0  0  0  0  0  0  0  0  0  0  0
   -5.3338    1.0301    0.7654 H   0  0  0  0  0  0  0  0  0  0  0  0
   -7.2944    1.3215   -0.3555 H   0  0  0  0  0  0  0  0  0  0  0  0
   -7.7851    0.3336   -1.6745 H   0  0  0  0  0  0  0  0  0  0  0  0
 23 20  1  0
 23 24  1  0
 21 22  2  0
 21 20  1  0
 25 24  2  0
 22 17  1  0
 20 19  2  0
 24 26  1  0
 17 16  1  0
 17 18  2  0
 19 18  1  0
 16 11  1  0
 11 12  2  0
 11 10  1  0
 12 13  1  0
 10  8  2  0
 13 14  1  0
 13  9  2  0
 14 15  1  0
  8  9  1  0
  8  7  1  0
  6  7  1  0
  6  2  2  0
  7  5  2  0
  1  2  1  0
  2  3  1  0
  5  4  1  0
  3  4  2  0
  3 27  1  0
  4 28  1  0
  5 29  1  0
  6 30  1  0
 14 31  1  0
 14 32  1  0
 15 33  1  0
 15 34  1  0
 15 35  1  0
 16 36  1  0
 18 37  1  0
 19 38  1  0
 21 39  1  0
 22 40  1  0
 23 41  1  0
 23 42  1  0
 26 43  1  0
 26 44  1  0
M  END
