
     RDKit          3D

 69 72  0  0  0  0  0  0  0  0999 V2000
   -3.0776   -8.1241    4.4949 C   0  0  0  0  0  0  0  0  0  0  0  0
   -1.8956   -8.7447    4.1012 C   0  0  0  0  0  0  0  0  0  0  0  0
   -0.8396   -7.9526    3.6686 C   0  0  0  0  0  0  0  0  0  0  0  0
   -0.9448   -6.5684    3.6304 C   0  0  0  0  0  0  0  0  0  0  0  0
   -2.1328   -5.9892    4.0283 C   0  0  0  0  0  0  0  0  0  0  0  0
   -3.2070   -6.7436    4.4610 C   0  0  0  0  0  0  0  0  0  0  0  0
   -1.7432  -10.2485    4.1729 C   0  0  2  0  0  0  0  0  0  0  0  0
   -2.8530  -10.9370    3.5385 N   0  0  0  0  0  0  0  0  0  0  0  0
   -3.0329  -10.9163    2.2085 C   0  0  0  0  0  0  0  0  0  0  0  0
   -4.2272  -11.6558    1.6873 C   0  0  0  0  0  0  0  0  0  0  0  0
   -4.7775  -11.2289    0.4861 C   0  0  0  0  0  0  0  0  0  0  0  0
   -5.8737  -11.8947   -0.0510 C   0  0  0  0  0  0  0  0  0  0  0  0
   -6.4056  -13.0063    0.5969 C   0  0  0  0  0  0  0  0  0  0  0  0
   -5.8563  -13.4323    1.7955 C   0  0  0  0  0  0  0  0  0  0  0  0
   -4.7698  -12.7561    2.3412 C   0  0  0  0  0  0  0  0  0  0  0  0
   -6.3965  -14.5795    2.4370 N   0  0  0  0  0  0  0  0  0  0  0  0
   -7.8201  -14.3461    3.2812 S   0  0  2  0  0  0  0  0  0  0  0  0
   -7.3761  -13.4077    4.7242 C   0  0  0  0  0  0  0  0  0  0  0  0
   -5.4545  -15.5534    2.9906 C   0  0  0  0  0  0  0  0  0  0  0  0
   -2.2782  -10.3328    1.4467 O   0  0  0  0  0  0  0  0  0  0  0  0
   -8.2727  -15.6606    3.7018 O   0  0  0  0  0  0  0  0  0  0  0  0
   -8.6815  -13.5219    2.4523 O   0  0  0  0  0  0  0  0  0  0  0  0
   -1.6133  -10.7311    5.6120 C   0  0  0  0  0  0  0  0  0  0  0  0
   -2.2521   -4.6509    3.9887 F   0  0  0  0  0  0  0  0  0  0  0  0
   -6.6174   -9.0787   -3.9251 C   0  0  2  0  0  0  0  0  0  0  0  0
   -5.2431   -8.9831   -4.3899 N   0  0  0  0  0  0  0  0  0  0  0  0
   -7.5261   -9.2532   -5.1358 C   0  0  0  0  0  0  0  0  0  0  0  0
   -6.9336   -7.7668   -3.1650 C   0  0  0  0  0  0  0  0  0  0  0  0
  -10.7967   -7.7394   -1.2641 C   0  0  0  0  0  0  0  0  0  0  0  0
   -9.6717   -8.1421   -0.5572 C   0  0  0  0  0  0  0  0  0  0  0  0
   -8.4258   -8.1368   -1.1697 C   0  0  0  0  0  0  0  0  0  0  0  0
   -8.2804   -7.7373   -2.4976 C   0  0  0  0  0  0  0  0  0  0  0  0
   -9.4161   -7.3210   -3.1905 C   0  0  0  0  0  0  0  0  0  0  0  0
  -10.6642   -7.3243   -2.5824 C   0  0  0  0  0  0  0  0  0  0  0  0
   -7.6643  -11.2108   -3.0509 N   0  0  0  0  0  0  0  0  0  0  0  0
   -7.4453  -11.9984   -1.9533 N   0  0  0  0  0  0  0  0  0  0  0  0
   -6.4783  -11.4579   -1.2987 C   0  0  0  0  0  0  0  0  0  0  0  0
   -6.0355  -10.3481   -1.9066 O   0  0  0  0  0  0  0  0  0  0  0  0
   -6.8214  -10.2425   -2.9944 C   0  0  0  0  0  0  0  0  0  0  0  0
   -3.9224   -8.7143    4.8293 H   0  0  0  0  0  0  0  0  0  0  0  0
    0.0837   -8.4187    3.3470 H   0  0  0  0  0  0  0  0  0  0  0  0
   -0.1204   -5.9571    3.2872 H   0  0  0  0  0  0  0  0  0  0  0  0
   -4.1277   -6.2648    4.7675 H   0  0  0  0  0  0  0  0  0  0  0  0
   -0.8310  -10.5243    3.6383 H   0  0  0  0  0  0  0  0  0  0  0  0
   -3.5734  -11.3133    4.1332 H   0  0  0  0  0  0  0  0  0  0  0  0
   -4.3436  -10.3792   -0.0231 H   0  0  0  0  0  0  0  0  0  0  0  0
   -7.2329  -13.5492    0.1624 H   0  0  0  0  0  0  0  0  0  0  0  0
   -4.3297  -13.1156    3.2635 H   0  0  0  0  0  0  0  0  0  0  0  0
   -6.9561  -12.4513    4.4204 H   0  0  0  0  0  0  0  0  0  0  0  0
   -8.2852  -13.2400    5.3000 H   0  0  0  0  0  0  0  0  0  0  0  0
   -6.6623  -13.9669    5.3250 H   0  0  0  0  0  0  0  0  0  0  0  0
   -5.9502  -16.5101    3.1228 H   0  0  0  0  0  0  0  0  0  0  0  0
   -5.0119  -15.2500    3.9428 H   0  0  0  0  0  0  0  0  0  0  0  0
   -4.6543  -15.6875    2.2674 H   0  0  0  0  0  0  0  0  0  0  0  0
   -2.5066  -10.5017    6.1958 H   0  0  0  0  0  0  0  0  0  0  0  0
   -1.4464  -11.8081    5.6468 H   0  0  0  0  0  0  0  0  0  0  0  0
   -0.7679  -10.2417    6.0931 H   0  0  0  0  0  0  0  0  0  0  0  0
   -4.9718   -9.8233   -4.8862 H   0  0  0  0  0  0  0  0  0  0  0  0
   -4.5958   -8.8717   -3.6188 H   0  0  0  0  0  0  0  0  0  0  0  0
   -7.2446  -10.1368   -5.7095 H   0  0  0  0  0  0  0  0  0  0  0  0
   -8.5712   -9.3601   -4.8531 H   0  0  0  0  0  0  0  0  0  0  0  0
   -7.4302   -8.3812   -5.7816 H   0  0  0  0  0  0  0  0  0  0  0  0
   -6.8465   -6.9563   -3.8921 H   0  0  0  0  0  0  0  0  0  0  0  0
   -6.1520   -7.6012   -2.4182 H   0  0  0  0  0  0  0  0  0  0  0  0
  -11.5341   -6.9986   -3.1384 H   0  0  0  0  0  0  0  0  0  0  0  0
   -9.3245   -6.9863   -4.2171 H   0  0  0  0  0  0  0  0  0  0  0  0
   -7.5534   -8.4336   -0.5988 H   0  0  0  0  0  0  0  0  0  0  0  0
   -9.7624   -8.4547    0.4753 H   0  0  0  0  0  0  0  0  0  0  0  0
  -11.7692   -7.7426   -0.7889 H   0  0  0  0  0  0  0  0  0  0  0  0
  1  2  2  0
  1  6  1  0
  1 40  1  0
  2  7  1  0
  2  3  1  0
  3  4  2  0
  3 41  1  0
  4  5  1  0
  4 42  1  0
  5  6  2  0
  5 24  1  0
  6 43  1  0
  7  8  1  0
  7 23  1  0
  7 44  1  6
  8  9  1  0
  8 45  1  0
  9 10  1  0
  9 20  2  0
 10 15  1  0
 10 11  2  0
 11 12  1  0
 11 46  1  0
 12 13  2  0
 12 37  1  0
 13 14  1  0
 13 47  1  0
 14 16  1  0
 14 15  2  0
 15 48  1  0
 16 19  1  0
 17 16  1  6
 17 18  1  0
 17 22  2  0
 17 21  2  0
 18 49  1  0
 18 50  1  0
 18 51  1  0
 19 52  1  0
 19 53  1  0
 19 54  1  0
 23 55  1  0
 23 56  1  0
 23 57  1  0
 25 39  1  0
 25 28  1  0
 25 27  1  0
 25 26  1  6
 26 58  1  0
 26 59  1  0
 27 60  1  0
 27 61  1  0
 27 62  1  0
 28 32  1  0
 28 63  1  0
 28 64  1  0
 29 34  2  0
 29 30  1  0
 29 69  1  0
 30 31  2  0
 30 68  1  0
 31 32  1  0
 31 67  1  0
 32 33  2  0
 33 34  1  0
 33 66  1  0
 34 65  1  0
 35 36  1  0
 35 39  2  0
 36 37  2  0
 37 38  1  0
 38 39  1  0
M  END
