
     RDKit          3D

 32 32  0  0  0  0  0  0  0  0999 V2000
    1.2182   -1.1888   -0.4361 C   0  0  0  0  0  0  0  0  0  0  0  0
   -3.1624    1.5558   -0.6909 C   0  0  0  0  0  0  0  0  0  0  0  0
    4.3534   -0.2453    0.6889 C   0  0  0  0  0  0  0  0  0  0  0  0
    3.4654   -0.0510   -0.5481 C   0  0  2  0  0  0  0  0  0  0  0  0
    3.8201    1.2163   -1.3246 C   0  0  0  0  0  0  0  0  0  0  0  0
    2.0090   -0.0791   -0.1499 C   0  0  0  0  0  0  0  0  0  0  0  0
    1.4216    0.9768    0.5454 C   0  0  0  0  0  0  0  0  0  0  0  0
    0.0879    0.9333    0.9205 C   0  0  0  0  0  0  0  0  0  0  0  0
   -0.6852   -0.1865    0.6297 C   0  0  0  0  0  0  0  0  0  0  0  0
   -0.1108   -1.2561   -0.0455 C   0  0  0  0  0  0  0  0  0  0  0  0
   -2.0396   -0.2566    1.0508 N   0  0  0  0  0  0  0  0  0  0  0  0
   -3.2597   -0.1070   -0.0701 S   0  0  1  0  0  0  0  0  0  0  0  0
   -4.4983   -0.2598    0.6745 O   0  0  0  0  0  0  0  0  0  0  0  0
   -2.9611   -1.0168   -1.1625 O   0  0  0  0  0  0  0  0  0  0  0  0
    1.6534   -2.0301   -0.9624 H   0  0  0  0  0  0  0  0  0  0  0  0
   -2.1822    1.7193   -1.1340 H   0  0  0  0  0  0  0  0  0  0  0  0
   -3.9338    1.6770   -1.4497 H   0  0  0  0  0  0  0  0  0  0  0  0
   -3.3294    2.2531    0.1268 H   0  0  0  0  0  0  0  0  0  0  0  0
    5.9911   -1.2109   -0.3574 H   0  0  0  0  0  0  0  0  0  0  0  0
    6.2715    0.4994   -0.0440 H   0  0  0  0  0  0  0  0  0  0  0  0
    6.3973   -0.6623    1.2659 H   0  0  0  0  0  0  0  0  0  0  0  0
    4.0048   -1.1303    1.2278 H   0  0  0  0  0  0  0  0  0  0  0  0
    4.2128    0.6020    1.3676 H   0  0  0  0  0  0  0  0  0  0  0  0
    3.6354   -0.9066   -1.2111 H   0  0  0  0  0  0  0  0  0  0  0  0
    3.7853    2.1039   -0.6895 H   0  0  0  0  0  0  0  0  0  0  0  0
    4.8270    1.1540   -1.7375 H   0  0  0  0  0  0  0  0  0  0  0  0
    3.1336    1.3722   -2.1572 H   0  0  0  0  0  0  0  0  0  0  0  0
    2.0026    1.8559    0.7977 H   0  0  0  0  0  0  0  0  0  0  0  0
   -0.3537    1.7718    1.4460 H   0  0  0  0  0  0  0  0  0  0  0  0
   -0.6920   -2.1432   -0.2545 H   0  0  0  0  0  0  0  0  0  0  0  0
   -2.2462    0.2722    1.8925 H   0  0  0  0  0  0  0  0  0  0  0  0
    5.8329   -0.4098    0.3676 C   0  0  0  0  0  0  0  0  0  0  0  0
 13 12  2  0
 14 12  2  0
 12  2  1  0
 12 11  1  1
 11  9  1  0
 10  9  1  0
 10  1  2  0
  9  8  2  0
  1  6  1  0
  8  7  1  0
  6  7  2  0
  6  4  1  0
  5  4  1  0
  4  3  1  0
  3 32  1  0
  1 15  1  0
  2 16  1  0
  2 17  1  0
  2 18  1  0
 32 19  1  0
 32 20  1  0
 32 21  1  0
  3 22  1  0
  3 23  1  0
  4 24  1  6
  5 25  1  0
  5 26  1  0
  5 27  1  0
  7 28  1  0
  8 29  1  0
 10 30  1  0
 11 31  1  0
M  END
