
     RDKit          3D

 52 53  0  0  0  0  0  0  0  0999 V2000
    4.2788   -0.5239   -0.2989 C   0  0  0  0  0  0  0  0  0  0  0  0
    3.3955   -0.4201   -1.3730 C   0  0  0  0  0  0  0  0  0  0  0  0
    3.5326   -1.3061   -2.4374 C   0  0  0  0  0  0  0  0  0  0  0  0
    4.5243   -2.2729   -2.4385 C   0  0  0  0  0  0  0  0  0  0  0  0
    5.3997   -2.3537   -1.3655 C   0  0  0  0  0  0  0  0  0  0  0  0
    5.2877   -1.4774   -0.2961 C   0  0  0  0  0  0  0  0  0  0  0  0
    2.3139    0.6117   -1.3991 C   0  0  0  0  0  0  0  0  0  0  0  0
   -0.3856    1.2384   -0.9472 C   0  0  0  0  0  0  0  0  0  0  0  0
   -1.5224    1.2017    0.0587 C   0  0  1  0  0  0  0  0  0  0  0  0
   -2.5778    2.2170   -0.3829 C   0  0  0  0  0  0  0  0  0  0  0  0
    0.8363   -0.0446   -0.5945 S   0  0  1  0  0  0  0  0  0  0  0  0
   -2.0464   -0.1036    0.0241 O   0  0  0  0  0  0  0  0  0  0  0  0
    0.4670   -1.2780   -1.2831 O   0  0  0  0  0  0  0  0  0  0  0  0
    1.0475   -0.0897    0.8504 O   0  0  0  0  0  0  0  0  0  0  0  0
   -2.4636    3.4268    0.1846 N   0  0  0  0  0  0  0  0  0  0  0  0
   -3.4008    1.9525   -1.2362 O   0  0  0  0  0  0  0  0  0  0  0  0
   -3.3445    4.5016   -0.1818 C   0  0  0  0  0  0  0  0  0  0  0  0
   -3.0921    4.9780   -1.5446 C   0  0  0  0  0  0  0  0  0  0  0  0
   -3.0502   -0.3649    0.8817 C   0  0  0  0  0  0  0  0  0  0  0  0
   -3.4279   -1.6503    0.8404 N   0  0  0  0  0  0  0  0  0  0  0  0
   -3.5328    0.4988    1.5871 O   0  0  0  0  0  0  0  0  0  0  0  0
   -4.5107   -2.1279    1.6830 C   0  0  0  0  0  0  0  0  0  0  0  0
   -5.4562   -2.9775    0.8515 C   0  0  0  0  0  0  0  0  0  0  0  0
   -4.7776   -4.0264    0.1984 O   0  0  0  0  0  0  0  0  0  0  0  0
   -3.7736   -3.5280   -0.6575 C   0  0  0  0  0  0  0  0  0  0  0  0
   -2.7486   -2.7055    0.1027 C   0  0  0  0  0  0  0  0  0  0  0  0
    4.1249    0.4071    0.6994 O   0  0  0  0  0  0  0  0  0  0  0  0
    4.1699    0.0564    2.0094 C   0  0  2  0  0  0  0  0  0  0  0  0
    5.4555   -0.0380    2.4389 F   0  0  0  0  0  0  0  0  0  0  0  0
    3.6185   -1.1527    2.2219 F   0  0  0  0  0  0  0  0  0  0  0  0
   -2.8950    5.3653   -2.6086 N   0  0  0  0  0  0  0  0  0  0  0  0
    2.8541   -1.2285   -3.2773 H   0  0  0  0  0  0  0  0  0  0  0  0
    4.6189   -2.9523   -3.2744 H   0  0  0  0  0  0  0  0  0  0  0  0
    6.1856   -3.0969   -1.3574 H   0  0  0  0  0  0  0  0  0  0  0  0
    5.9979   -1.5406    0.5159 H   0  0  0  0  0  0  0  0  0  0  0  0
    2.5757    1.5390   -0.8913 H   0  0  0  0  0  0  0  0  0  0  0  0
    2.0200    0.8466   -2.4233 H   0  0  0  0  0  0  0  0  0  0  0  0
    0.1266    2.2006   -0.8914 H   0  0  0  0  0  0  0  0  0  0  0  0
   -0.7323    1.0834   -1.9699 H   0  0  0  0  0  0  0  0  0  0  0  0
   -1.1427    1.4456    1.0550 H   0  0  0  0  0  0  0  0  0  0  0  0
   -1.7847    3.5963    0.9094 H   0  0  0  0  0  0  0  0  0  0  0  0
   -4.3927    4.2074   -0.1092 H   0  0  0  0  0  0  0  0  0  0  0  0
   -3.1895    5.3308    0.5057 H   0  0  0  0  0  0  0  0  0  0  0  0
   -4.1001   -2.7162    2.5105 H   0  0  0  0  0  0  0  0  0  0  0  0
   -5.0534   -1.2872    2.1078 H   0  0  0  0  0  0  0  0  0  0  0  0
   -6.2112   -3.4269    1.4975 H   0  0  0  0  0  0  0  0  0  0  0  0
   -5.9703   -2.3371    0.1212 H   0  0  0  0  0  0  0  0  0  0  0  0
   -3.2840   -4.3843   -1.1229 H   0  0  0  0  0  0  0  0  0  0  0  0
   -4.2149   -2.9129   -1.4540 H   0  0  0  0  0  0  0  0  0  0  0  0
   -2.0215   -2.2938   -0.5909 H   0  0  0  0  0  0  0  0  0  0  0  0
   -2.2079   -3.3425    0.8107 H   0  0  0  0  0  0  0  0  0  0  0  0
    3.6574    0.8175    2.5933 H   0  0  0  0  0  0  0  0  0  0  0  0
  1  2  2  0
  1  6  1  0
  1 27  1  0
  2  3  1  0
  2  7  1  0
  3  4  2  0
  3 32  1  0
  4  5  1  0
  4 33  1  0
  5  6  2  0
  5 34  1  0
  6 35  1  0
 11  7  1  6
  7 36  1  0
  7 37  1  0
  8  9  1  0
  8 11  1  0
  8 38  1  0
  8 39  1  0
  9 10  1  0
  9 12  1  0
  9 40  1  1
 10 15  1  0
 10 16  2  0
 11 13  2  0
 11 14  2  0
 12 19  1  0
 15 17  1  0
 15 41  1  0
 17 18  1  0
 17 42  1  0
 17 43  1  0
 18 31  3  0
 19 20  1  0
 19 21  2  0
 20 22  1  0
 20 26  1  0
 22 23  1  0
 22 44  1  0
 22 45  1  0
 23 24  1  0
 23 46  1  0
 23 47  1  0
 24 25  1  0
 25 26  1  0
 25 48  1  0
 25 49  1  0
 26 50  1  0
 26 51  1  0
 27 28  1  0
 28 29  1  0
 28 30  1  0
 28 52  1  1
M  END
