
     RDKit          3D

 48 50  0  0  0  0  0  0  0  0999 V2000
   -6.7299   -1.3028    1.0067 C   0  0  0  0  0  0  0  0  0  0  0  0
   -8.4645    0.1596    0.8644 C   0  0  0  0  0  0  0  0  0  0  0  0
   -4.7094   -1.2143   -0.4906 C   0  0  0  0  0  0  0  0  0  0  0  0
    0.4607    0.6165   -1.2167 C   0  0  0  0  0  0  0  0  0  0  0  0
    2.5077    1.2895   -0.1501 C   0  0  0  0  0  0  0  0  0  0  0  0
    0.4911    1.1631    1.1296 C   0  0  0  0  0  0  0  0  0  0  0  0
    4.7968   -0.9361   -0.9942 C   0  0  0  0  0  0  0  0  0  0  0  0
    5.7266   -2.6506    0.5836 C   0  0  0  0  0  0  0  0  0  0  0  0
    4.7866   -0.4715    1.4098 C   0  0  0  0  0  0  0  0  0  0  0  0
   -7.8727    0.8378   -0.1924 C   0  0  0  0  0  0  0  0  0  0  0  0
   -6.6431    0.3982   -0.6520 C   0  0  0  0  0  0  0  0  0  0  0  0
   -6.0470   -0.7015   -0.0435 C   0  0  0  0  0  0  0  0  0  0  0  0
   -7.9097   -0.8910    1.4551 N   0  0  0  0  0  0  0  0  0  0  0  0
   -3.6682   -0.3029   -0.0569 N   0  0  0  0  0  0  0  0  0  0  0  0
   -2.3915   -0.3908   -0.4408 C   0  0  0  0  0  0  0  0  0  0  0  0
   -1.8725   -1.5571   -1.5234 S   0  0  0  0  0  0  0  0  0  0  0  0
   -1.5806    0.5289    0.1521 N   0  0  0  0  0  0  0  0  0  0  0  0
   -0.2112    0.7371    0.0004 C   0  0  0  0  0  0  0  0  0  0  0  0
    1.8166    0.8843   -1.2857 C   0  0  0  0  0  0  0  0  0  0  0  0
    1.8423    1.4410    1.0600 C   0  0  0  0  0  0  0  0  0  0  0  0
    4.5996    1.9285   -1.5874 O   0  0  0  0  0  0  0  0  0  0  0  0
    4.6303    2.4211    0.8714 O   0  0  0  0  0  0  0  0  0  0  0  0
    4.9544    0.0748    0.0580 N   0  0  0  0  0  0  0  0  0  0  0  0
    5.8317   -2.0339   -0.8039 C   0  0  0  0  0  0  0  0  0  0  0  0
    5.8154   -1.5664    1.6478 C   0  0  0  0  0  0  0  0  0  0  0  0
   -6.2976   -2.1645    1.5065 H   0  0  0  0  0  0  0  0  0  0  0  0
   -9.4278    0.4789    1.2459 H   0  0  0  0  0  0  0  0  0  0  0  0
   -4.5315   -2.2158   -0.0903 H   0  0  0  0  0  0  0  0  0  0  0  0
   -4.6774   -1.2982   -1.5780 H   0  0  0  0  0  0  0  0  0  0  0  0
   -0.0681    0.3300   -2.1113 H   0  0  0  0  0  0  0  0  0  0  0  0
   -0.0265    1.2762    2.0742 H   0  0  0  0  0  0  0  0  0  0  0  0
    4.9271   -0.4712   -1.9689 H   0  0  0  0  0  0  0  0  0  0  0  0
    4.7719   -3.1792    0.6747 H   0  0  0  0  0  0  0  0  0  0  0  0
    6.5123   -3.3938    0.7310 H   0  0  0  0  0  0  0  0  0  0  0  0
    4.9196    0.3225    2.1418 H   0  0  0  0  0  0  0  0  0  0  0  0
    3.7740   -0.8790    1.5375 H   0  0  0  0  0  0  0  0  0  0  0  0
   -8.3696    1.6857   -0.6431 H   0  0  0  0  0  0  0  0  0  0  0  0
   -6.1532    0.9006   -1.4776 H   0  0  0  0  0  0  0  0  0  0  0  0
   -3.9227    0.3758    0.6468 H   0  0  0  0  0  0  0  0  0  0  0  0
   -1.9848    1.0388    0.9261 H   0  0  0  0  0  0  0  0  0  0  0  0
    2.3192    0.7962   -2.2397 H   0  0  0  0  0  0  0  0  0  0  0  0
    2.3603    1.7751    1.9482 H   0  0  0  0  0  0  0  0  0  0  0  0
    5.6778   -2.7881   -1.5779 H   0  0  0  0  0  0  0  0  0  0  0  0
    6.8308   -1.6167   -0.9561 H   0  0  0  0  0  0  0  0  0  0  0  0
    5.6499   -1.9821    2.6433 H   0  0  0  0  0  0  0  0  0  0  0  0
    6.8141   -1.1215    1.6460 H   0  0  0  0  0  0  0  0  0  0  0  0
    4.2537    1.5461   -0.2275 S   0  0  1  0  0  0  0  0  0  0  0  0
    3.7876   -1.3695   -0.9592 H   0  0  0  0  0  0  0  0  0  0  0  0
 24  8  1  0
 24  7  1  0
  8 25  1  0
  7 23  1  0
 25  9  1  0
 23  9  1  0
 23 47  1  0
 22 47  2  0
 47 21  2  0
 47  5  1  6
 19  5  1  0
 19  4  2  0
  5 20  2  0
  4 18  1  0
 20  6  1  0
 18  6  2  0
 18 17  1  0
 17 15  1  0
 16 15  2  0
 15 14  1  0
 14  3  1  0
  3 12  1  0
 12 11  1  0
 12  1  2  0
 11 10  2  0
  1 13  1  0
 10  2  1  0
 13  2  2  0
  1 26  1  0
  2 27  1  0
  3 28  1  0
  3 29  1  0
  4 30  1  0
  6 31  1  0
  7 48  1  0
  7 32  1  0
  8 33  1  0
  8 34  1  0
  9 35  1  0
  9 36  1  0
 10 37  1  0
 11 38  1  0
 14 39  1  0
 17 40  1  0
 19 41  1  0
 20 42  1  0
 24 43  1  0
 24 44  1  0
 25 45  1  0
 25 46  1  0
M  END
