
     RDKit          3D

 25 26  0  0  0  0  0  0  0  0999 V2000
   -2.5150   -3.0515    0.0334 N   0  0  0  0  0  0  0  0  0  0  0  0
   -2.0944   -1.9765    0.0200 C   0  0  0  0  0  0  0  0  0  0  0  0
   -1.5898   -0.6672    0.0063 C   0  0  0  0  0  0  0  0  0  0  0  0
   -2.3121    0.5562    0.1098 C   0  0  0  0  0  0  0  0  0  0  0  0
   -3.7823    0.6991    0.2498 C   0  0  0  0  0  0  0  0  0  0  0  0
   -1.5090    1.5861    0.0649 N   0  0  0  0  0  0  0  0  0  0  0  0
   -0.2672   -0.2746   -0.1046 C   0  0  0  0  0  0  0  0  0  0  0  0
   -0.2659    1.0767   -0.0669 N   0  0  0  0  0  0  0  0  0  0  0  0
    0.8895    1.8761   -0.1568 C   0  0  0  0  0  0  0  0  0  0  0  0
    0.8058    3.0836   -0.1222 O   0  0  0  0  0  0  0  0  0  0  0  0
    2.0869    1.0901   -0.2834 C   0  0  0  0  0  0  0  0  0  0  0  0
    0.8957   -0.9399   -0.2268 N   0  0  0  0  0  0  0  0  0  0  0  0
    2.0775   -0.2668   -0.3143 C   0  0  0  0  0  0  0  0  0  0  0  0
    3.3127   -1.1021   -0.3962 C   0  0  0  0  0  0  0  0  0  0  0  0
    3.6561   -1.7460    0.9478 C   0  0  0  0  0  0  0  0  0  0  0  0
   -4.1501    0.1105    1.0902 H   0  0  0  0  0  0  0  0  0  0  0  0
   -4.0538    1.7400    0.4096 H   0  0  0  0  0  0  0  0  0  0  0  0
   -4.2922    0.3433   -0.6463 H   0  0  0  0  0  0  0  0  0  0  0  0
    3.0258    1.6187   -0.3552 H   0  0  0  0  0  0  0  0  0  0  0  0
    3.1753   -1.8738   -1.1575 H   0  0  0  0  0  0  0  0  0  0  0  0
    4.1354   -0.4707   -0.7278 H   0  0  0  0  0  0  0  0  0  0  0  0
    4.5735   -2.3253    0.8557 H   0  0  0  0  0  0  0  0  0  0  0  0
    3.8101   -0.9882    1.7154 H   0  0  0  0  0  0  0  0  0  0  0  0
    2.8718   -2.4211    1.2902 H   0  0  0  0  0  0  0  0  0  0  0  0
    0.8811   -1.9491   -0.2733 H   0  0  0  0  0  0  0  0  0  0  0  0
  1  2  3  0
  2  3  1  0
  3  7  2  0
  3  4  1  0
 15 14  1  0
 12  7  1  0
 12 13  1  0
  5  4  1  0
  7  8  1  0
 14 13  1  0
  4  6  2  0
 13 11  2  0
  8  6  1  0
  8  9  1  0
 11  9  1  0
  9 10  2  0
  5 16  1  0
  5 17  1  0
  5 18  1  0
 11 19  1  0
 14 20  1  0
 14 21  1  0
 15 22  1  0
 15 23  1  0
 15 24  1  0
 12 25  1  0
M  END
