
     RDKit          3D

 19 19  0  0  0  0  0  0  0  0999 V2000
    3.1690    2.0720    0.0066 C   0  0  0  0  0  0  0  0  0  0  0  0
    2.0674    1.0746    0.0108 C   0  0  0  0  0  0  0  0  0  0  0  0
    0.7403    1.4107   -0.0155 C   0  0  0  0  0  0  0  0  0  0  0  0
   -0.2251    0.3946   -0.0089 C   0  0  0  0  0  0  0  0  0  0  0  0
    0.1459   -0.9277    0.0212 C   0  0  0  0  0  0  0  0  0  0  0  0
   -0.7389   -2.0383    0.0237 C   0  0  0  0  0  0  0  0  0  0  0  0
   -1.3931   -2.9868    0.0253 N   0  0  0  0  0  0  0  0  0  0  0  0
    1.5500   -1.3006    0.0508 C   0  0  0  0  0  0  0  0  0  0  0  0
    1.9589   -2.4477    0.0800 O   0  0  0  0  0  0  0  0  0  0  0  0
    2.4151   -0.2264    0.0427 N   0  0  0  0  0  0  0  0  0  0  0  0
   -1.6639    0.8472   -0.0533 C   0  0  1  0  0  0  0  0  0  0  0  0
   -1.9101    1.7080    0.9357 F   0  0  0  0  0  0  0  0  0  0  0  0
   -1.9103    1.4764   -1.2043 F   0  0  0  0  0  0  0  0  0  0  0  0
   -2.5361   -0.1486    0.0562 F   0  0  0  0  0  0  0  0  0  0  0  0
    3.7931    1.9568    0.8939 H   0  0  0  0  0  0  0  0  0  0  0  0
    3.8075    1.9327   -0.8668 H   0  0  0  0  0  0  0  0  0  0  0  0
    2.7742    3.0834   -0.0104 H   0  0  0  0  0  0  0  0  0  0  0  0
    0.4628    2.4538   -0.0412 H   0  0  0  0  0  0  0  0  0  0  0  0
    3.4022   -0.4584    0.0636 H   0  0  0  0  0  0  0  0  0  0  0  0
  9  8  2  0
  8 10  1  0
  8  5  1  0
  7  6  3  0
  6  5  1  0
 10  2  1  0
  5  4  2  0
  2  1  1  0
  2  3  2  0
 11 13  1  6
  4  3  1  0
  4 11  1  0
 11 14  1  0
 11 12  1  0
  1 15  1  0
  1 16  1  0
  1 17  1  0
  3 18  1  0
 10 19  1  0
M  END
