
     RDKit          3D

 50 54  0  0  0  0  0  0  0  0999 V2000
    0.7067    5.0526    0.4526 C   0  0  0  0  0  0  0  0  0  0  0  0
   -2.4366   -0.4345   -0.2004 C   0  0  0  0  0  0  0  0  0  0  0  0
   -3.4131    0.5568   -0.0488 C   0  0  0  0  0  0  0  0  0  0  0  0
   -2.8442   -1.7795   -0.2523 C   0  0  0  0  0  0  0  0  0  0  0  0
   -4.1715   -2.1250   -0.1509 C   0  0  0  0  0  0  0  0  0  0  0  0
   -5.1308   -1.1271    0.0007 C   0  0  0  0  0  0  0  0  0  0  0  0
   -4.7491    0.2042    0.0474 C   0  0  0  0  0  0  0  0  0  0  0  0
    0.9704    0.7342   -0.3718 N   0  0  0  0  0  0  0  0  0  0  0  0
   -0.9364    2.1034    0.0192 N   0  0  0  0  0  0  0  0  0  0  0  0
   -0.4376    4.4163    0.4068 N   0  0  0  0  0  0  0  0  0  0  0  0
    1.8182    1.7469   -0.2873 C   0  0  0  0  0  0  0  0  0  0  0  0
   -0.3439    0.9479   -0.2128 C   0  0  0  0  0  0  0  0  0  0  0  0
   -0.0980    3.1289    0.1279 C   0  0  0  0  0  0  0  0  0  0  0  0
    1.2920    3.0057   -0.0108 C   0  0  0  0  0  0  0  0  0  0  0  0
    1.7749    4.2694    0.2111 N   0  0  0  0  0  0  0  0  0  0  0  0
   -1.0852   -0.2035   -0.3162 N   0  0  0  0  0  0  0  0  0  0  0  0
   -6.8259   -1.5736    0.1294 S   0  0  1  0  0  0  0  0  0  0  0  0
   -7.0927   -2.7469   -0.6921 O   0  0  0  0  0  0  0  0  0  0  0  0
   -6.9025   -2.1047    1.6958 N   0  0  0  0  0  0  0  0  0  0  0  0
   -7.6285   -0.3786   -0.1010 O   0  0  0  0  0  0  0  0  0  0  0  0
    3.2505    1.4617   -0.4739 C   0  0  0  0  0  0  0  0  0  0  0  0
    4.1152    2.4129   -1.0125 C   0  0  0  0  0  0  0  0  0  0  0  0
    5.4584    2.1108   -1.1772 C   0  0  0  0  0  0  0  0  0  0  0  0
    5.9473    0.8674   -0.8102 C   0  0  0  0  0  0  0  0  0  0  0  0
    5.0951   -0.1030   -0.2785 C   0  0  0  0  0  0  0  0  0  0  0  0
    3.7481    0.2096   -0.1203 C   0  0  0  0  0  0  0  0  0  0  0  0
    5.6048   -1.4364    0.1009 C   0  0  0  0  0  0  0  0  0  0  0  0
    4.8407   -2.5815   -0.1305 C   0  0  0  0  0  0  0  0  0  0  0  0
    5.3181   -3.8357    0.2198 C   0  0  0  0  0  0  0  0  0  0  0  0
    6.5685   -3.9676    0.8093 C   0  0  0  0  0  0  0  0  0  0  0  0
    7.3368   -2.8353    1.0468 C   0  0  0  0  0  0  0  0  0  0  0  0
    6.8596   -1.5811    0.6949 C   0  0  0  0  0  0  0  0  0  0  0  0
    0.8229    6.1050    0.6630 H   0  0  0  0  0  0  0  0  0  0  0  0
   -3.1370    1.5969   -0.0083 H   0  0  0  0  0  0  0  0  0  0  0  0
   -2.1025   -2.5599   -0.3704 H   0  0  0  0  0  0  0  0  0  0  0  0
   -4.4518   -3.1692   -0.1907 H   0  0  0  0  0  0  0  0  0  0  0  0
   -5.4867    0.9876    0.1564 H   0  0  0  0  0  0  0  0  0  0  0  0
    2.7360    4.5700    0.2521 H   0  0  0  0  0  0  0  0  0  0  0  0
   -0.5146   -1.0217   -0.4674 H   0  0  0  0  0  0  0  0  0  0  0  0
   -7.7661   -2.6112    1.8714 H   0  0  0  0  0  0  0  0  0  0  0  0
   -6.8056   -1.3482    2.3658 H   0  0  0  0  0  0  0  0  0  0  0  0
    3.7490    3.3744   -1.3485 H   0  0  0  0  0  0  0  0  0  0  0  0
    6.1241    2.8452   -1.6105 H   0  0  0  0  0  0  0  0  0  0  0  0
    6.9951    0.6417   -0.9632 H   0  0  0  0  0  0  0  0  0  0  0  0
    3.0728   -0.5200    0.3078 H   0  0  0  0  0  0  0  0  0  0  0  0
    3.8720   -2.4967   -0.6082 H   0  0  0  0  0  0  0  0  0  0  0  0
    4.7147   -4.7127    0.0244 H   0  0  0  0  0  0  0  0  0  0  0  0
    6.9425   -4.9461    1.0805 H   0  0  0  0  0  0  0  0  0  0  0  0
    8.3086   -2.9268    1.5144 H   0  0  0  0  0  0  0  0  0  0  0  0
    7.4630   -0.7062    0.9036 H   0  0  0  0  0  0  0  0  0  0  0  0
 23 24  1  0
 23 22  2  0
 24 25  2  0
 22 21  1  0
 25 27  1  0
 25 26  1  0
 28 27  2  0
 28 29  1  0
 27 32  1  0
 32 31  2  0
 29 30  2  0
 21 26  2  0
 21 11  1  0
 31 30  1  0
 15 14  1  0
 15  1  1  0
 18 17  2  0
 11 14  2  0
 11  8  1  0
 14 13  1  0
  1 10  2  0
  8 12  2  0
 13 10  1  0
 13  9  2  0
 17 20  2  0
 17 19  1  1
 17  6  1  0
  5  4  2  0
  5  6  1  0
  4  2  1  0
 12  9  1  0
 12 16  1  0
  6  7  2  0
  2 16  1  0
  2  3  2  0
  7  3  1  0
  1 33  1  0
  3 34  1  0
  4 35  1  0
  5 36  1  0
  7 37  1  0
 15 38  1  0
 16 39  1  0
 19 40  1  0
 19 41  1  0
 22 42  1  0
 23 43  1  0
 24 44  1  0
 26 45  1  0
 28 46  1  0
 29 47  1  0
 30 48  1  0
 31 49  1  0
 32 50  1  0
M  END
