
     RDKit          3D

 81 86  0  0  0  0  0  0  0  0999 V2000
   -8.6298   -1.5341   -0.9685 C   0  0  0  0  0  0  0  0  0  0  0  0
  -10.1004   -1.7715   -0.6405 C   0  0  0  0  0  0  0  0  0  0  0  0
  -10.9684   -0.6548   -0.9584 N   0  0  0  0  0  0  0  0  0  0  0  0
  -11.2060   -0.4846   -2.3780 C   0  0  0  0  0  0  0  0  0  0  0  0
  -10.4575    0.5359   -0.3062 C   0  0  0  0  0  0  0  0  0  0  0  0
   -8.9964    0.8317   -0.6216 C   0  0  0  0  0  0  0  0  0  0  0  0
   -8.1576   -0.3247   -0.3174 N   0  0  0  0  0  0  0  0  0  0  0  0
   -6.7798   -0.1174   -0.2687 C   0  0  0  0  0  0  0  0  0  0  0  0
   -6.2644    0.9750    0.4485 C   0  0  0  0  0  0  0  0  0  0  0  0
   -4.8996    1.1918    0.5489 C   0  0  0  0  0  0  0  0  0  0  0  0
   -4.3490    2.2169    1.2276 O   0  0  0  0  0  0  0  0  0  0  0  0
   -5.1989    3.1723    1.8298 C   0  0  0  0  0  0  0  0  0  0  0  0
   -5.8689   -0.9768   -0.8861 C   0  0  0  0  0  0  0  0  0  0  0  0
   -4.5024   -0.7479   -0.7910 C   0  0  0  0  0  0  0  0  0  0  0  0
   -3.9906    0.3216   -0.0782 C   0  0  0  0  0  0  0  0  0  0  0  0
   -2.6200    0.6064    0.0026 N   0  0  0  0  0  0  0  0  0  0  0  0
   -1.6094   -0.2664    0.2231 C   0  0  0  0  0  0  0  0  0  0  0  0
   -0.3818    0.2679    0.1928 N   0  0  0  0  0  0  0  0  0  0  0  0
    0.6171   -0.5558    0.4055 C   0  0  0  0  0  0  0  0  0  0  0  0
   -1.8831   -1.5495    0.4412 N   0  0  0  0  0  0  0  0  0  0  0  0
   -0.8442   -2.3457    0.6596 C   0  0  0  0  0  0  0  0  0  0  0  0
    0.4691   -1.9185    0.6636 C   0  0  0  0  0  0  0  0  0  0  0  0
    1.6684   -2.7664    0.9519 C   0  0  0  0  0  0  0  0  0  0  0  0
    2.8674   -2.2988    0.1289 C   0  0  0  0  0  0  0  0  0  0  0  0
    3.0230   -0.8188    0.2201 C   0  0  0  0  0  0  0  0  0  0  0  0
    1.9065   -0.0339    0.3562 N   0  0  0  0  0  0  0  0  0  0  0  0
    2.2556    1.2984    0.3678 C   0  0  0  0  0  0  0  0  0  0  0  0
    3.6058    1.3684    0.2542 C   0  0  0  0  0  0  0  0  0  0  0  0
    4.1044    0.0280    0.1514 C   0  0  0  0  0  0  0  0  0  0  0  0
    5.4922   -0.4030   -0.0651 C   0  0  0  0  0  0  0  0  0  0  0  0
    5.7811   -1.5245   -0.4620 O   0  0  0  0  0  0  0  0  0  0  0  0
    6.4352    0.5374    0.1827 N   0  0  0  0  0  0  0  0  0  0  0  0
    7.8134    0.3370   -0.0910 C   0  0  0  0  0  0  0  0  0  0  0  0
    8.6833    0.0149    0.9534 C   0  0  0  0  0  0  0  0  0  0  0  0
    8.1987   -0.2009    2.3609 C   0  0  0  0  0  0  0  0  0  0  0  0
    7.8496   -1.6639    2.6306 C   0  0  0  0  0  0  0  0  0  0  0  0
   10.0357   -0.1508    0.6614 C   0  0  0  0  0  0  0  0  0  0  0  0
   10.5064   -0.0119   -0.6333 C   0  0  0  0  0  0  0  0  0  0  0  0
    9.6274    0.3053   -1.6581 C   0  0  0  0  0  0  0  0  0  0  0  0
    8.2722    0.4909   -1.4044 C   0  0  0  0  0  0  0  0  0  0  0  0
    7.3532    0.9053   -2.5215 C   0  0  0  0  0  0  0  0  0  0  0  0
    7.0852    2.4092   -2.5248 C   0  0  0  0  0  0  0  0  0  0  0  0
   -8.0616   -2.3902   -0.6012 H   0  0  0  0  0  0  0  0  0  0  0  0
   -8.4830   -1.4938   -2.0588 H   0  0  0  0  0  0  0  0  0  0  0  0
  -10.4449   -2.6629   -1.1690 H   0  0  0  0  0  0  0  0  0  0  0  0
  -10.1865   -1.9774    0.4314 H   0  0  0  0  0  0  0  0  0  0  0  0
  -11.6077   -1.4106   -2.7922 H   0  0  0  0  0  0  0  0  0  0  0  0
  -11.9534    0.2957   -2.5316 H   0  0  0  0  0  0  0  0  0  0  0  0
  -10.3250   -0.2150   -2.9761 H   0  0  0  0  0  0  0  0  0  0  0  0
  -11.0661    1.3981   -0.5879 H   0  0  0  0  0  0  0  0  0  0  0  0
  -10.5619    0.4056    0.7761 H   0  0  0  0  0  0  0  0  0  0  0  0
   -8.8814    1.1219   -1.6765 H   0  0  0  0  0  0  0  0  0  0  0  0
   -8.6890    1.6897   -0.0273 H   0  0  0  0  0  0  0  0  0  0  0  0
   -6.9444    1.6359    0.9669 H   0  0  0  0  0  0  0  0  0  0  0  0
   -4.5509    3.9171    2.2850 H   0  0  0  0  0  0  0  0  0  0  0  0
   -5.8431    3.6643    1.0966 H   0  0  0  0  0  0  0  0  0  0  0  0
   -5.8252    2.7286    2.6078 H   0  0  0  0  0  0  0  0  0  0  0  0
   -6.2010   -1.8230   -1.4691 H   0  0  0  0  0  0  0  0  0  0  0  0
   -3.8269   -1.4191   -1.3022 H   0  0  0  0  0  0  0  0  0  0  0  0
   -2.3397    1.5730   -0.0611 H   0  0  0  0  0  0  0  0  0  0  0  0
   -1.0711   -3.3908    0.8473 H   0  0  0  0  0  0  0  0  0  0  0  0
    1.9139   -2.7053    2.0168 H   0  0  0  0  0  0  0  0  0  0  0  0
    1.4556   -3.8142    0.7379 H   0  0  0  0  0  0  0  0  0  0  0  0
    3.7782   -2.7888    0.4640 H   0  0  0  0  0  0  0  0  0  0  0  0
    2.7273   -2.5806   -0.9200 H   0  0  0  0  0  0  0  0  0  0  0  0
    1.5104    2.0688    0.4611 H   0  0  0  0  0  0  0  0  0  0  0  0
    4.1761    2.2843    0.2282 H   0  0  0  0  0  0  0  0  0  0  0  0
    6.1575    1.4102    0.6034 H   0  0  0  0  0  0  0  0  0  0  0  0
    8.9813    0.1128    3.0551 H   0  0  0  0  0  0  0  0  0  0  0  0
    7.3303    0.4233    2.5738 H   0  0  0  0  0  0  0  0  0  0  0  0
    8.7183   -2.3071    2.4845 H   0  0  0  0  0  0  0  0  0  0  0  0
    7.5065   -1.7951    3.6573 H   0  0  0  0  0  0  0  0  0  0  0  0
    7.0611   -2.0152    1.9657 H   0  0  0  0  0  0  0  0  0  0  0  0
   10.7240   -0.3929    1.4629 H   0  0  0  0  0  0  0  0  0  0  0  0
   11.5597   -0.1458   -0.8444 H   0  0  0  0  0  0  0  0  0  0  0  0
    9.9979    0.4188   -2.6702 H   0  0  0  0  0  0  0  0  0  0  0  0
    7.8080    0.6233   -3.4731 H   0  0  0  0  0  0  0  0  0  0  0  0
    6.4079    0.3640   -2.4705 H   0  0  0  0  0  0  0  0  0  0  0  0
    6.6174    2.7364   -1.5958 H   0  0  0  0  0  0  0  0  0  0  0  0
    8.0119    2.9712   -2.6456 H   0  0  0  0  0  0  0  0  0  0  0  0
    6.4184    2.6809   -3.3437 H   0  0  0  0  0  0  0  0  0  0  0  0
 21 20  2  0
 21 22  1  0
 23 22  1  0
 23 24  1  0
 20 17  1  0
 22 19  2  0
 24 25  1  0
 17 16  1  0
 17 18  2  0
 19 18  1  0
 19 26  1  0
 31 30  2  0
 25 26  1  0
 25 29  2  0
 16 15  1  0
 26 27  1  0
 30 29  1  0
 30 32  1  0
 29 28  1  0
 11 12  1  0
 11 10  1  0
 15 10  1  0
 15 14  2  0
 27 28  2  0
 35 34  1  0
 35 36  1  0
 34 37  2  0
 34 33  1  0
 37 38  1  0
 10  9  2  0
 33 32  1  0
 33 40  2  0
 38 39  2  0
 40 39  1  0
 40 41  1  0
 41 42  1  0
 14 13  1  0
  9  8  1  0
 13  8  2  0
  8  7  1  0
  7  1  1  0
  7  6  1  0
  1  2  1  0
  6  5  1  0
  2  3  1  0
  5  3  1  0
  3  4  1  0
  1 43  1  0
  1 44  1  0
  2 45  1  0
  2 46  1  0
  4 47  1  0
  4 48  1  0
  4 49  1  0
  5 50  1  0
  5 51  1  0
  6 52  1  0
  6 53  1  0
  9 54  1  0
 12 55  1  0
 12 56  1  0
 12 57  1  0
 13 58  1  0
 14 59  1  0
 16 60  1  0
 21 61  1  0
 23 62  1  0
 23 63  1  0
 24 64  1  0
 24 65  1  0
 27 66  1  0
 28 67  1  0
 32 68  1  0
 35 69  1  0
 35 70  1  0
 36 71  1  0
 36 72  1  0
 36 73  1  0
 37 74  1  0
 38 75  1  0
 39 76  1  0
 41 77  1  0
 41 78  1  0
 42 79  1  0
 42 80  1  0
 42 81  1  0
M  END
