
     RDKit          3D

 24 24  0  0  0  0  0  0  0  0999 V2000
    1.2109   -0.8326    0.4914 C   0  0  2  0  0  0  0  0  0  0  0  0
   -0.0738   -1.5664    0.1389 C   0  0  1  0  0  0  0  0  0  0  0  0
   -1.2732   -0.7012    0.5177 C   0  0  1  0  0  0  0  0  0  0  0  0
   -1.2222    0.6535   -0.1789 C   0  0  2  0  0  0  0  0  0  0  0  0
    0.0734    1.3755    0.1678 C   0  0  1  0  0  0  0  0  0  0  0  0
    1.2835    0.5225   -0.2065 C   0  0  1  0  0  0  0  0  0  0  0  0
    2.3013   -1.6523    0.1584 O   0  0  0  0  0  0  0  0  0  0  0  0
   -0.0615   -1.8710   -1.2348 O   0  0  0  0  0  0  0  0  0  0  0  0
   -2.4337   -1.4200    0.1732 O   0  0  0  0  0  0  0  0  0  0  0  0
   -2.3558    1.3770    0.2457 O   0  0  0  0  0  0  0  0  0  0  0  0
    0.0704    2.6052   -0.5248 O   0  0  0  0  0  0  0  0  0  0  0  0
    2.4892    1.1374    0.2058 O   0  0  0  0  0  0  0  0  0  0  0  0
    1.1814   -0.6496    1.5782 H   0  0  0  0  0  0  0  0  0  0  0  0
   -0.1185   -2.4863    0.7419 H   0  0  0  0  0  0  0  0  0  0  0  0
   -1.2307   -0.5282    1.6049 H   0  0  0  0  0  0  0  0  0  0  0  0
   -1.2558    0.4926   -1.2664 H   0  0  0  0  0  0  0  0  0  0  0  0
    0.0944    1.5470    1.2554 H   0  0  0  0  0  0  0  0  0  0  0  0
    1.2869    0.3656   -1.2929 H   0  0  0  0  0  0  0  0  0  0  0  0
    3.1037   -1.1424    0.3131 H   0  0  0  0  0  0  0  0  0  0  0  0
   -0.9328   -2.2085   -1.4704 H   0  0  0  0  0  0  0  0  0  0  0  0
   -3.1891   -0.8260    0.2414 H   0  0  0  0  0  0  0  0  0  0  0  0
   -2.4061    2.1875   -0.2707 H   0  0  0  0  0  0  0  0  0  0  0  0
    0.6703    3.2113   -0.0810 H   0  0  0  0  0  0  0  0  0  0  0  0
    2.7770    1.7470   -0.4795 H   0  0  0  0  0  0  0  0  0  0  0  0
  1  2  1  0
  1  6  1  0
  1  7  1  0
  1 13  1  1
  2  3  1  0
  2  8  1  0
  2 14  1  1
  3  4  1  0
  3  9  1  0
  3 15  1  1
  4  5  1  0
  4 10  1  0
  4 16  1  6
  5  6  1  0
  5 11  1  0
  5 17  1  1
  6 12  1  0
  6 18  1  6
  7 19  1  0
  8 20  1  0
  9 21  1  0
 10 22  1  0
 11 23  1  0
 12 24  1  0
M  END
