
     RDKit          3D

 30 32  0  0  0  0  0  0  0  0999 V2000
   -4.3334    0.4959   -0.0514 C   0  0  0  0  0  0  0  0  0  0  0  0
   -4.3684    1.8796    0.0687 C   0  0  0  0  0  0  0  0  0  0  0  0
   -6.9357    0.4803   -0.4719 O   0  0  0  0  0  0  0  0  0  0  0  0
   -5.6592   -1.6564   -0.7985 O   0  0  0  0  0  0  0  0  0  0  0  0
   -5.8445   -0.3929   -0.1396 S   0  0  1  0  0  0  0  0  0  0  0  0
   -3.1668    2.5645    0.1366 C   0  0  0  0  0  0  0  0  0  0  0  0
   -1.9628    1.8802    0.0890 C   0  0  0  0  0  0  0  0  0  0  0  0
   -1.9478    0.4913   -0.0318 C   0  0  0  0  0  0  0  0  0  0  0  0
   -3.1459   -0.2124   -0.1054 C   0  0  0  0  0  0  0  0  0  0  0  0
   -0.7017   -0.2517   -0.0845 C   0  0  0  0  0  0  0  0  0  0  0  0
    0.4697    0.3946   -0.0208 O   0  0  0  0  0  0  0  0  0  0  0  0
    1.3764   -0.5899   -0.0927 C   0  0  0  0  0  0  0  0  0  0  0  0
    0.8103   -1.7437   -0.1927 N   0  0  0  0  0  0  0  0  0  0  0  0
   -0.5322   -1.5252   -0.1873 N   0  0  0  0  0  0  0  0  0  0  0  0
    2.7945   -0.2797   -0.0544 C   0  0  0  0  0  0  0  0  0  0  0  0
    3.7073   -1.3306   -0.1168 C   0  0  0  0  0  0  0  0  0  0  0  0
    5.0580   -1.0417   -0.0825 C   0  0  0  0  0  0  0  0  0  0  0  0
    5.5239    0.2616    0.0116 C   0  0  0  0  0  0  0  0  0  0  0  0
    4.5933    1.2860    0.0721 C   0  0  0  0  0  0  0  0  0  0  0  0
    3.2315    1.0382    0.0413 C   0  0  0  0  0  0  0  0  0  0  0  0
    6.1999   -2.3336   -0.1582 Cl  0  0  0  0  0  0  0  0  0  0  0  0
    5.1491    2.9158    0.1874 Cl  0  0  0  0  0  0  0  0  0  0  0  0
   -5.3034    2.4211    0.1045 H   0  0  0  0  0  0  0  0  0  0  0  0
   -3.1692    3.6412    0.2253 H   0  0  0  0  0  0  0  0  0  0  0  0
   -1.0393    2.4402    0.1450 H   0  0  0  0  0  0  0  0  0  0  0  0
   -3.1359   -1.2896   -0.2046 H   0  0  0  0  0  0  0  0  0  0  0  0
    3.3641   -2.3531   -0.1910 H   0  0  0  0  0  0  0  0  0  0  0  0
    6.5841    0.4712    0.0370 H   0  0  0  0  0  0  0  0  0  0  0  0
    2.5335    1.8619    0.0894 H   0  0  0  0  0  0  0  0  0  0  0  0
   -6.0253   -0.7395    1.4106 F   0  0  0  0  0  0  0  0  0  0  0  0
 21 17  1  0
 22 19  1  0
 18 17  1  0
 18 19  2  0
 17 16  2  0
 19 20  1  0
 16 15  1  0
 20 15  2  0
 15 12  1  0
 12 13  2  0
 12 11  1  0
 13 14  1  0
 11 10  1  0
 14 10  2  0
 10  8  1  0
  7  8  2  0
  7  6  1  0
  8  9  1  0
  6  2  2  0
  9  1  2  0
  2  1  1  0
  1  5  1  0
  5  4  2  0
  5  3  2  0
  2 23  1  0
  6 24  1  0
  7 25  1  0
  9 26  1  0
 16 27  1  0
 18 28  1  0
 20 29  1  0
  5 30  1  1
M  END
