
     RDKit          3D

 55 56  0  0  0  0  0  0  0  0999 V2000
   -5.2424    1.6149    0.0355 C   0  0  0  0  0  0  0  0  0  0  0  0
   -5.9516    2.7138    0.3014 O   0  0  0  0  0  0  0  0  0  0  0  0
   -4.0238    1.6162   -0.5870 C   0  0  0  0  0  0  0  0  0  0  0  0
   -3.3265    0.4256   -0.8351 C   0  0  0  0  0  0  0  0  0  0  0  0
   -3.8314   -0.7526   -0.4595 N   0  0  0  0  0  0  0  0  0  0  0  0
   -3.1896   -1.8468   -0.6628 O   0  0  0  0  0  0  0  0  0  0  0  0
   -5.0720   -0.8078    0.1602 C   0  0  0  0  0  0  0  0  0  0  0  0
   -5.5949   -2.0599    0.5243 C   0  0  0  0  0  0  0  0  0  0  0  0
   -6.8187   -2.1305    1.1379 C   0  0  0  0  0  0  0  0  0  0  0  0
   -7.5553   -0.9656    1.4121 C   0  0  0  0  0  0  0  0  0  0  0  0
   -7.0562    0.2607    1.0616 C   0  0  0  0  0  0  0  0  0  0  0  0
   -5.8019    0.3686    0.4244 C   0  0  0  0  0  0  0  0  0  0  0  0
   -1.9823    0.4369   -1.4809 C   0  0  0  0  0  0  0  0  0  0  0  0
    0.5224    0.3116   -1.1267 C   0  0  0  0  0  0  0  0  0  0  0  0
   -0.8447    0.3625   -0.4573 C   0  0  0  0  0  0  0  0  0  0  0  0
    1.6729    0.2813   -0.1284 C   0  0  0  0  0  0  0  0  0  0  0  0
    3.0386    0.1735   -0.7952 C   0  0  0  0  0  0  0  0  0  0  0  0
    4.1949    0.1504    0.1967 C   0  0  0  0  0  0  0  0  0  0  0  0
    5.5567    0.0184   -0.4737 C   0  0  0  0  0  0  0  0  0  0  0  0
   -5.4840    3.5047    0.0076 H   0  0  0  0  0  0  0  0  0  0  0  0
   -3.5643    2.5443   -0.9044 H   0  0  0  0  0  0  0  0  0  0  0  0
   -5.0298   -2.9551    0.3160 H   0  0  0  0  0  0  0  0  0  0  0  0
   -7.2212   -3.0963    1.4125 H   0  0  0  0  0  0  0  0  0  0  0  0
   -8.5178   -1.0388    1.9001 H   0  0  0  0  0  0  0  0  0  0  0  0
   -7.6252    1.1555    1.2720 H   0  0  0  0  0  0  0  0  0  0  0  0
   -1.9002   -0.3957   -2.1816 H   0  0  0  0  0  0  0  0  0  0  0  0
   -1.8860    1.3577   -2.0594 H   0  0  0  0  0  0  0  0  0  0  0  0
    0.5761   -0.5737   -1.7698 H   0  0  0  0  0  0  0  0  0  0  0  0
    0.6385    1.1757   -1.7901 H   0  0  0  0  0  0  0  0  0  0  0  0
   -0.9006    1.2313    0.2058 H   0  0  0  0  0  0  0  0  0  0  0  0
   -0.9764   -0.5217    0.1710 H   0  0  0  0  0  0  0  0  0  0  0  0
    1.6390    1.1835    0.4924 H   0  0  0  0  0  0  0  0  0  0  0  0
    1.5369   -0.5631    0.5565 H   0  0  0  0  0  0  0  0  0  0  0  0
    3.0706   -0.7332   -1.4098 H   0  0  0  0  0  0  0  0  0  0  0  0
    3.1718    1.0121   -1.4877 H   0  0  0  0  0  0  0  0  0  0  0  0
    4.1733    1.0640    0.8015 H   0  0  0  0  0  0  0  0  0  0  0  0
    4.0547   -0.6796    0.8982 H   0  0  0  0  0  0  0  0  0  0  0  0
    5.5774   -0.8973   -1.0756 H   0  0  0  0  0  0  0  0  0  0  0  0
    5.6955    0.8457   -1.1787 H   0  0  0  0  0  0  0  0  0  0  0  0
    6.7170   -0.0019    0.5137 C   0  0  0  0  0  0  0  0  0  0  0  0
    8.0766   -0.1403   -0.1600 C   0  0  0  0  0  0  0  0  0  0  0  0
    9.2387   -0.1576    0.8251 C   0  0  0  0  0  0  0  0  0  0  0  0
   10.5991   -0.2921    0.1514 C   0  0  0  0  0  0  0  0  0  0  0  0
   11.7515   -0.3056    1.1464 C   0  0  0  0  0  0  0  0  0  0  0  0
    6.6996    0.9154    1.1132 H   0  0  0  0  0  0  0  0  0  0  0  0
    6.5771   -0.8272    1.2209 H   0  0  0  0  0  0  0  0  0  0  0  0
    8.0941   -1.0586   -0.7579 H   0  0  0  0  0  0  0  0  0  0  0  0
    8.2146    0.6839   -0.8688 H   0  0  0  0  0  0  0  0  0  0  0  0
    9.2204    0.7596    1.4249 H   0  0  0  0  0  0  0  0  0  0  0  0
    9.1026   -0.9833    1.5326 H   0  0  0  0  0  0  0  0  0  0  0  0
   10.6183   -1.2092   -0.4458 H   0  0  0  0  0  0  0  0  0  0  0  0
   10.7340    0.5318   -0.5565 H   0  0  0  0  0  0  0  0  0  0  0  0
   11.7718    0.6126    1.7366 H   0  0  0  0  0  0  0  0  0  0  0  0
   11.6599   -1.1417    1.8419 H   0  0  0  0  0  0  0  0  0  0  0  0
   12.7160   -0.3964    0.6453 H   0  0  0  0  0  0  0  0  0  0  0  0
  2  1  1  0
 19 18  1  0
 11 10  2  0
 11 12  1  0
 18 17  1  0
  1 12  2  0
  1  3  1  0
 10  9  1  0
 12  7  1  0
 17 16  1  0
  3  4  2  0
 16 14  1  0
  9  8  2  0
 14 15  1  0
  7  8  1  0
  7  5  2  0
  4  5  1  0
  4 13  1  0
  5  6  1  0
 15 13  1  0
  2 20  1  0
  3 21  1  0
  8 22  1  0
  9 23  1  0
 10 24  1  0
 11 25  1  0
 13 26  1  0
 13 27  1  0
 14 28  1  0
 14 29  1  0
 15 30  1  0
 15 31  1  0
 16 32  1  0
 16 33  1  0
 17 34  1  0
 17 35  1  0
 18 36  1  0
 18 37  1  0
 19 38  1  0
 19 39  1  0
 19 40  1  0
 40 41  1  0
 41 42  1  0
 42 43  1  0
 43 44  1  0
 40 45  1  0
 40 46  1  0
 41 47  1  0
 41 48  1  0
 42 49  1  0
 42 50  1  0
 43 51  1  0
 43 52  1  0
 44 53  1  0
 44 54  1  0
 44 55  1  0
M  CHG  2   5   1   6  -1
M  END
