
     RDKit          3D

 39 43  0  0  0  0  0  0  0  0999 V2000
    1.6105    0.0234   -2.1406 C   0  0  0  0  0  0  0  0  0  0  0  0
    1.1802    0.3726   -3.5611 C   0  0  2  0  0  0  0  0  0  0  0  0
   -0.1096   -0.3499   -3.8886 C   0  0  1  0  0  0  0  0  0  0  0  0
   -1.2072    0.1994   -2.9831 C   0  0  2  0  0  0  0  0  0  0  0  0
   -0.8321    0.1201   -1.5166 C   0  0  0  0  0  0  0  0  0  0  0  0
   -1.8464    0.1297   -0.5658 C   0  0  0  0  0  0  0  0  0  0  0  0
   -1.5686    0.0956    0.7952 C   0  0  0  0  0  0  0  0  0  0  0  0
   -2.6076    0.1157    1.7831 C   0  0  0  0  0  0  0  0  0  0  0  0
   -2.3190    0.0757    3.1025 C   0  0  0  0  0  0  0  0  0  0  0  0
   -0.9627    0.0060    3.5610 C   0  0  0  0  0  0  0  0  0  0  0  0
   -0.6434   -0.0409    4.9180 C   0  0  0  0  0  0  0  0  0  0  0  0
    0.6789   -0.1127    5.3329 C   0  0  0  0  0  0  0  0  0  0  0  0
    1.7069   -0.1410    4.4044 C   0  0  0  0  0  0  0  0  0  0  0  0
    1.4279   -0.0947    3.0365 C   0  0  0  0  0  0  0  0  0  0  0  0
    0.0827   -0.0181    2.6042 C   0  0  0  0  0  0  0  0  0  0  0  0
   -0.2191    0.0320    1.2158 C   0  0  0  0  0  0  0  0  0  0  0  0
    2.4586   -0.1270    2.0461 C   0  0  0  0  0  0  0  0  0  0  0  0
    2.1689   -0.0763    0.7253 C   0  0  0  0  0  0  0  0  0  0  0  0
    0.8175    0.0145    0.2519 C   0  0  0  0  0  0  0  0  0  0  0  0
    0.5043    0.0707   -1.1200 C   0  0  0  0  0  0  0  0  0  0  0  0
    2.1640   -0.0077   -4.4924 O   0  0  0  0  0  0  0  0  0  0  0  0
   -0.4280   -0.1424   -5.2389 O   0  0  0  0  0  0  0  0  0  0  0  0
   -2.3930   -0.5143   -3.2613 O   0  0  0  0  0  0  0  0  0  0  0  0
    2.0406   -0.9848   -2.1525 H   0  0  0  0  0  0  0  0  0  0  0  0
    2.4224    0.6969   -1.8528 H   0  0  0  0  0  0  0  0  0  0  0  0
    0.9915    1.4559   -3.6219 H   0  0  0  0  0  0  0  0  0  0  0  0
    0.0202   -1.4239   -3.6709 H   0  0  0  0  0  0  0  0  0  0  0  0
   -1.3408    1.2598   -3.2388 H   0  0  0  0  0  0  0  0  0  0  0  0
   -2.8819    0.1668   -0.8824 H   0  0  0  0  0  0  0  0  0  0  0  0
   -3.6373    0.1662    1.4502 H   0  0  0  0  0  0  0  0  0  0  0  0
   -3.1132    0.0934    3.8387 H   0  0  0  0  0  0  0  0  0  0  0  0
   -1.4401   -0.0221    5.6514 H   0  0  0  0  0  0  0  0  0  0  0  0
    0.9070   -0.1486    6.3901 H   0  0  0  0  0  0  0  0  0  0  0  0
    2.7365   -0.2008    4.7362 H   0  0  0  0  0  0  0  0  0  0  0  0
    3.4896   -0.1958    2.3713 H   0  0  0  0  0  0  0  0  0  0  0  0
    2.9821   -0.1108    0.0143 H   0  0  0  0  0  0  0  0  0  0  0  0
    2.9670    0.4843   -4.2934 H   0  0  0  0  0  0  0  0  0  0  0  0
   -1.3056   -0.5115   -5.3892 H   0  0  0  0  0  0  0  0  0  0  0  0
   -3.1258    0.1036   -3.3231 H   0  0  0  0  0  0  0  0  0  0  0  0
  1  2  1  0
  1 20  1  0
  1 24  1  0
  1 25  1  0
  2  3  1  0
  2 21  1  0
  2 26  1  1
  3  4  1  0
  3 22  1  0
  3 27  1  6
  4  5  1  0
  4 23  1  0
  4 28  1  6
  5  6  1  0
  5 20  2  0
  6  7  2  0
  6 29  1  0
  7  8  1  0
  7 16  1  0
  8  9  2  0
  8 30  1  0
  9 10  1  0
  9 31  1  0
 10 11  1  0
 10 15  2  0
 11 12  2  0
 11 32  1  0
 12 13  1  0
 12 33  1  0
 13 14  2  0
 13 34  1  0
 14 15  1  0
 14 17  1  0
 15 16  1  0
 16 19  2  0
 17 18  2  0
 17 35  1  0
 18 19  1  0
 18 36  1  0
 19 20  1  0
 21 37  1  0
 22 38  1  0
 23 39  1  0
M  END
