
     RDKit          3D

 48 51  0  0  0  0  0  0  0  0999 V2000
   -3.0979   -2.6885    1.5815 C   0  0  0  0  0  0  0  0  0  0  0  0
   -2.9187   -1.5618    0.6806 N   0  0  0  0  0  0  0  0  0  0  0  0
   -1.6875   -1.1905    0.2318 C   0  0  0  0  0  0  0  0  0  0  0  0
   -0.5290   -1.8101    0.5045 N   0  0  0  0  0  0  0  0  0  0  0  0
    0.3814   -1.1288   -0.1749 C   0  0  0  0  0  0  0  0  0  0  0  0
    1.7192   -1.4196   -0.1997 N   0  0  0  0  0  0  0  0  0  0  0  0
    2.2085   -1.9667   -1.4735 C   0  0  0  0  0  0  0  0  0  0  0  0
    3.7277   -2.0675   -1.4635 C   0  0  0  0  0  0  0  0  0  0  0  0
    4.2643   -2.7686   -0.3118 N   0  0  0  0  0  0  0  0  0  0  0  0
    3.7217   -2.2238    0.9207 C   0  0  0  0  0  0  0  0  0  0  0  0
    2.2007   -2.1860    0.9453 C   0  0  0  0  0  0  0  0  0  0  0  0
   -0.1478   -0.0946   -0.8709 N   0  0  0  0  0  0  0  0  0  0  0  0
    0.5881    1.0506   -1.3934 C   0  0  0  0  0  0  0  0  0  0  0  0
    0.9164    2.0471   -0.3061 C   0  0  0  0  0  0  0  0  0  0  0  0
   -0.1185    2.7716    0.2876 C   0  0  0  0  0  0  0  0  0  0  0  0
    0.1136    3.6731    1.3120 C   0  0  0  0  0  0  0  0  0  0  0  0
    1.4084    3.8803    1.7665 C   0  0  0  0  0  0  0  0  0  0  0  0
    2.4595    3.1979    1.1789 C   0  0  0  0  0  0  0  0  0  0  0  0
    2.2081    2.2969    0.1516 C   0  0  0  0  0  0  0  0  0  0  0  0
    3.5845    1.5270   -0.5708 Cl  0  0  0  0  0  0  0  0  0  0  0  0
   -1.5130   -0.1317   -0.6185 C   0  0  0  0  0  0  0  0  0  0  0  0
   -2.6016    0.6088   -1.1462 C   0  0  0  0  0  0  0  0  0  0  0  0
   -2.5341    1.5193   -1.9597 O   0  0  0  0  0  0  0  0  0  0  0  0
   -3.8288    0.1874   -0.6156 N   0  0  0  0  0  0  0  0  0  0  0  0
   -5.0420    0.8821   -1.0302 C   0  0  0  0  0  0  0  0  0  0  0  0
   -4.0248   -0.8652    0.2672 C   0  0  0  0  0  0  0  0  0  0  0  0
   -5.1388   -1.1639    0.6540 O   0  0  0  0  0  0  0  0  0  0  0  0
   -3.5311   -2.3621    2.5246 H   0  0  0  0  0  0  0  0  0  0  0  0
   -3.7432   -3.4409    1.1335 H   0  0  0  0  0  0  0  0  0  0  0  0
   -2.1258   -3.1293    1.7739 H   0  0  0  0  0  0  0  0  0  0  0  0
    1.7743   -2.9625   -1.6432 H   0  0  0  0  0  0  0  0  0  0  0  0
    1.8896   -1.3333   -2.3021 H   0  0  0  0  0  0  0  0  0  0  0  0
    4.0495   -2.5727   -2.3756 H   0  0  0  0  0  0  0  0  0  0  0  0
    4.1532   -1.0626   -1.4879 H   0  0  0  0  0  0  0  0  0  0  0  0
    4.0199   -3.7509   -0.3751 H   0  0  0  0  0  0  0  0  0  0  0  0
    4.0779   -2.8181    1.7638 H   0  0  0  0  0  0  0  0  0  0  0  0
    4.1068   -1.2089    1.0539 H   0  0  0  0  0  0  0  0  0  0  0  0
    1.8522   -1.7123    1.8634 H   0  0  0  0  0  0  0  0  0  0  0  0
    1.8118   -3.2136    0.9320 H   0  0  0  0  0  0  0  0  0  0  0  0
    1.4848    0.6977   -1.8932 H   0  0  0  0  0  0  0  0  0  0  0  0
   -0.0335    1.5191   -2.1530 H   0  0  0  0  0  0  0  0  0  0  0  0
   -1.1289    2.6429   -0.0757 H   0  0  0  0  0  0  0  0  0  0  0  0
   -0.7129    4.2189    1.7464 H   0  0  0  0  0  0  0  0  0  0  0  0
    1.6049    4.5801    2.5677 H   0  0  0  0  0  0  0  0  0  0  0  0
    3.4742    3.3657    1.5129 H   0  0  0  0  0  0  0  0  0  0  0  0
   -5.7080    0.2089   -1.5662 H   0  0  0  0  0  0  0  0  0  0  0  0
   -5.5654    1.2839   -0.1657 H   0  0  0  0  0  0  0  0  0  0  0  0
   -4.7700    1.7003   -1.6855 H   0  0  0  0  0  0  0  0  0  0  0  0
  1  2  1  0
  1 28  1  0
  1 29  1  0
  1 30  1  0
 26  2  1  0
  2  3  1  0
  3 21  2  0
  3  4  1  0
  4  5  2  0
 12  5  1  0
  5  6  1  0
  6 11  1  0
  6  7  1  0
  8  7  1  0
  7 31  1  0
  7 32  1  0
  8  9  1  0
  8 33  1  0
  8 34  1  0
 10  9  1  0
  9 35  1  0
 10 11  1  0
 10 36  1  0
 10 37  1  0
 11 38  1  0
 11 39  1  0
 21 12  1  0
 12 13  1  0
 14 13  1  0
 13 40  1  0
 13 41  1  0
 15 14  2  0
 14 19  1  0
 16 15  1  0
 15 42  1  0
 16 17  2  0
 16 43  1  0
 17 18  1  0
 17 44  1  0
 18 19  2  0
 18 45  1  0
 19 20  1  0
 22 21  1  0
 24 22  1  0
 22 23  2  0
 25 24  1  0
 26 24  1  0
 25 46  1  0
 25 47  1  0
 25 48  1  0
 27 26  2  0
M  END
