
     RDKit          3D

 28 31  0  0  0  0  0  0  0  0999 V2000
   -2.9320   -1.7453   -0.2241 C   0  0  0  0  0  0  0  0  0  0  0  0
   -4.1861   -2.1476   -0.2551 N   0  0  0  0  0  0  0  0  0  0  0  0
   -4.9051   -1.0370   -0.1400 N   0  0  0  0  0  0  0  0  0  0  0  0
   -4.1597    0.0698   -0.0374 C   0  0  0  0  0  0  0  0  0  0  0  0
   -2.8422   -0.3432   -0.0875 C   0  0  0  0  0  0  0  0  0  0  0  0
   -1.6675    0.5131   -0.0094 C   0  0  0  0  0  0  0  0  0  0  0  0
   -0.4052   -0.0018   -0.0324 C   0  0  0  0  0  0  0  0  0  0  0  0
    0.6511    0.8595    0.0455 N   0  0  0  0  0  0  0  0  0  0  0  0
   -1.9045    1.8549    0.0871 N   0  0  0  0  0  0  0  0  0  0  0  0
   -0.8943    2.6687    0.1415 C   0  0  0  0  0  0  0  0  0  0  0  0
    0.4411    2.2236    0.1143 C   0  0  0  0  0  0  0  0  0  0  0  0
    1.5838    2.8855    0.1416 N   0  0  0  0  0  0  0  0  0  0  0  0
    2.5371    1.9399    0.0919 C   0  0  0  0  0  0  0  0  0  0  0  0
    2.0022    0.6645    0.0356 C   0  0  0  0  0  0  0  0  0  0  0  0
    2.6600   -0.6253   -0.0150 C   0  0  0  0  0  0  0  0  0  0  0  0
    2.2787   -1.8533    0.5672 C   0  0  0  0  0  0  0  0  0  0  0  0
    3.3044   -2.7116    0.2509 C   0  0  0  0  0  0  0  0  0  0  0  0
    4.1915   -1.9955   -0.4555 N   0  0  0  0  0  0  0  0  0  0  0  0
    3.8270   -0.7368   -0.6358 N   0  0  0  0  0  0  0  0  0  0  0  0
   -2.1331   -2.4673   -0.3031 H   0  0  0  0  0  0  0  0  0  0  0  0
   -5.9113   -1.0893   -0.1346 H   0  0  0  0  0  0  0  0  0  0  0  0
   -4.5964    1.0489    0.0633 H   0  0  0  0  0  0  0  0  0  0  0  0
   -0.1880   -1.0541   -0.1244 H   0  0  0  0  0  0  0  0  0  0  0  0
   -1.0874    3.7337    0.2078 H   0  0  0  0  0  0  0  0  0  0  0  0
    3.5885    2.1845    0.1124 H   0  0  0  0  0  0  0  0  0  0  0  0
    1.4087   -2.0785    1.1609 H   0  0  0  0  0  0  0  0  0  0  0  0
    5.0590   -2.3240   -0.8489 H   0  0  0  0  0  0  0  0  0  0  0  0
    3.4614   -3.7521    0.4808 H   0  0  0  0  0  0  0  0  0  0  0  0
  1  2  2  0
  1  5  1  0
  2  3  1  0
  3  4  1  0
  4  5  2  0
  5  6  1  0
  6  7  2  0
  6  9  1  0
  7  8  1  0
  8 11  1  0
  8 14  1  0
  9 10  2  0
 10 11  1  0
 11 12  2  0
 12 13  1  0
 13 14  2  0
 14 15  1  0
 15 16  1  0
 15 19  2  0
 16 17  2  0
 17 18  1  0
 18 19  1  0
  1 20  1  0
  3 21  1  0
  4 22  1  0
  7 23  1  0
 10 24  1  0
 13 25  1  0
 16 26  1  0
 18 27  1  0
 17 28  1  0
M  END
