
     RDKit          3D

 26 27  0  0  0  0  0  0  0  0999 V2000
   -3.9004    0.3392   -1.4541 N   0  0  0  0  0  0  0  0  0  0  0  0
    0.3146    0.8383   -0.0315 C   0  0  0  0  0  0  0  0  0  0  0  0
    0.6544   -0.5273    0.0030 C   0  0  0  0  0  0  0  0  0  0  0  0
    1.9703   -0.9586    0.0065 C   0  0  0  0  0  0  0  0  0  0  0  0
    2.9750    0.0044   -0.0261 C   0  0  0  0  0  0  0  0  0  0  0  0
    5.3235    0.4502   -0.0260 C   0  0  0  0  0  0  0  0  0  0  0  0
   -3.4699   -0.0846    0.0658 S   0  0  1  0  0  0  0  0  0  0  0  0
   -1.6922    0.0057    0.0190 C   0  0  0  0  0  0  0  0  0  0  0  0
   -1.0337    1.0983   -0.0200 N   0  0  0  0  0  0  0  0  0  0  0  0
   -0.7909   -1.4790    0.0538 S   0  0  0  0  0  0  0  0  0  0  0  0
    2.6490    1.3738   -0.0666 C   0  0  0  0  0  0  0  0  0  0  0  0
    1.3334    1.7875   -0.0682 C   0  0  0  0  0  0  0  0  0  0  0  0
    6.5978   -0.3571    0.0377 C   0  0  0  0  0  0  0  0  0  0  0  0
   -4.2514   -0.4191   -2.0247 H   0  0  0  0  0  0  0  0  0  0  0  0
   -4.4475    1.1880   -1.5194 H   0  0  0  0  0  0  0  0  0  0  0  0
    2.2243   -2.0102    0.0368 H   0  0  0  0  0  0  0  0  0  0  0  0
    5.3005    1.0571   -0.9370 H   0  0  0  0  0  0  0  0  0  0  0  0
    5.2594    1.1298    0.8299 H   0  0  0  0  0  0  0  0  0  0  0  0
    3.4238    2.1263   -0.0944 H   0  0  0  0  0  0  0  0  0  0  0  0
    1.0924    2.8419   -0.0960 H   0  0  0  0  0  0  0  0  0  0  0  0
    7.4537    0.3170    0.0296 H   0  0  0  0  0  0  0  0  0  0  0  0
    6.6469   -0.9496    0.9514 H   0  0  0  0  0  0  0  0  0  0  0  0
    6.6892   -1.0256   -0.8182 H   0  0  0  0  0  0  0  0  0  0  0  0
    4.2310   -0.4615   -0.0142 O   0  0  0  0  0  0  0  0  0  0  0  0
   -3.9291    0.9312    0.9826 O   0  0  0  0  0  0  0  0  0  0  0  0
   -3.7340   -1.4945    0.2680 O   0  0  0  0  0  0  0  0  0  0  0  0
  7  1  1  6
  2  3  1  0
  2  9  1  0
  2 12  2  0
  3  4  2  0
  3 10  1  0
  4  5  1  0
  5 11  2  0
  5 24  1  0
  6 24  1  0
  6 13  1  0
 25  7  2  0
 26  7  2  0
  7  8  1  0
  8  9  2  0
  8 10  1  0
 11 12  1  0
  1 14  1  0
  1 15  1  0
  4 16  1  0
  6 17  1  0
  6 18  1  0
 11 19  1  0
 12 20  1  0
 13 21  1  0
 13 22  1  0
 13 23  1  0
M  END
