
     RDKit          3D

 53 57  0  0  0  0  0  0  0  0999 V2000
    6.3932   -0.9098   -0.2334 C   0  0  0  0  0  0  0  0  0  0  0  0
   -7.9641   -1.6742    0.1917 F   0  0  0  0  0  0  0  0  0  0  0  0
    7.2855   -1.8989   -0.1481 N   0  0  0  0  0  0  0  0  0  0  0  0
   -3.0465    2.5426    0.4247 O   0  0  0  0  0  0  0  0  0  0  0  0
    7.9525    0.8539   -1.0418 C   0  0  0  0  0  0  0  0  0  0  0  0
   -6.6058   -1.1542    1.7769 F   0  0  0  0  0  0  0  0  0  0  0  0
    6.6667    0.3651   -0.6006 N   0  0  0  0  0  0  0  0  0  0  0  0
    5.5011    1.0851   -0.5690 C   0  0  0  0  0  0  0  0  0  0  0  0
   -6.1714   -2.8232    0.4970 F   0  0  0  0  0  0  0  0  0  0  0  0
   -0.8421    2.1911    0.3756 N   0  0  0  0  0  0  0  0  0  0  0  0
    4.4565    0.2926   -0.1753 C   0  0  0  0  0  0  0  0  0  0  0  0
    3.3468   -2.5148    0.9364 N   0  0  0  0  0  0  0  0  0  0  0  0
    3.0612    0.7257   -0.0573 C   0  0  0  0  0  0  0  0  0  0  0  0
    5.4903   -3.2576    0.6236 N   0  0  0  0  0  0  0  0  0  0  0  0
    2.0258   -0.0158   -0.6235 C   0  0  0  0  0  0  0  0  0  0  0  0
    0.6957    0.3796   -0.5370 C   0  0  0  0  0  0  0  0  0  0  0  0
    0.3877    1.5620    0.1265 C   0  0  0  0  0  0  0  0  0  0  0  0
   -0.6434    3.4150    1.1715 C   0  0  0  0  0  0  0  0  0  0  0  0
    0.8748    3.5615    1.3218 C   0  0  0  0  0  0  0  0  0  0  0  0
    1.4186    2.3244    0.6784 C   0  0  0  0  0  0  0  0  0  0  0  0
    2.7324    1.9167    0.5977 C   0  0  0  0  0  0  0  0  0  0  0  0
   -2.3531    0.5779   -0.7402 C   0  0  0  0  0  0  0  0  0  0  0  0
   -3.8123    0.3564   -1.0041 C   0  0  0  0  0  0  0  0  0  0  0  0
   -4.4412    0.9726   -2.0827 C   0  0  0  0  0  0  0  0  0  0  0  0
   -5.7893    0.7692   -2.3242 C   0  0  0  0  0  0  0  0  0  0  0  0
   -6.5353   -0.0553   -1.4918 C   0  0  0  0  0  0  0  0  0  0  0  0
   -5.9139   -0.6733   -0.4168 C   0  0  0  0  0  0  0  0  0  0  0  0
   -4.5585   -0.4668   -0.1750 C   0  0  0  0  0  0  0  0  0  0  0  0
   -6.6693   -1.5772    0.5051 C   0  0  1  0  0  0  0  0  0  0  0  0
    5.0249   -1.0042    0.0534 C   0  0  0  0  0  0  0  0  0  0  0  0
    4.6073   -2.2585    0.5464 C   0  0  0  0  0  0  0  0  0  0  0  0
    6.7530   -3.0279    0.2708 C   0  0  0  0  0  0  0  0  0  0  0  0
    8.1140    0.6430   -2.0985 H   0  0  0  0  0  0  0  0  0  0  0  0
    7.9990    1.9284   -0.8860 H   0  0  0  0  0  0  0  0  0  0  0  0
    8.7442    0.3840   -0.4644 H   0  0  0  0  0  0  0  0  0  0  0  0
    5.4950    2.1269   -0.8501 H   0  0  0  0  0  0  0  0  0  0  0  0
    2.7020   -1.7617    1.1030 H   0  0  0  0  0  0  0  0  0  0  0  0
    3.1674   -3.3772    1.4229 H   0  0  0  0  0  0  0  0  0  0  0  0
    2.2540   -0.9228   -1.1693 H   0  0  0  0  0  0  0  0  0  0  0  0
   -0.0455   -0.2471   -1.0037 H   0  0  0  0  0  0  0  0  0  0  0  0
   -1.0900    4.2664    0.6611 H   0  0  0  0  0  0  0  0  0  0  0  0
    1.2417    4.4583    0.8202 H   0  0  0  0  0  0  0  0  0  0  0  0
    3.5113    2.5146    1.0561 H   0  0  0  0  0  0  0  0  0  0  0  0
   -1.8060    0.6443   -1.6844 H   0  0  0  0  0  0  0  0  0  0  0  0
   -1.9400   -0.2762   -0.1982 H   0  0  0  0  0  0  0  0  0  0  0  0
   -3.8685    1.6126   -2.7429 H   0  0  0  0  0  0  0  0  0  0  0  0
   -6.2675    1.2507   -3.1663 H   0  0  0  0  0  0  0  0  0  0  0  0
   -7.5861   -0.2056   -1.6964 H   0  0  0  0  0  0  0  0  0  0  0  0
   -4.0707   -0.9498    0.6640 H   0  0  0  0  0  0  0  0  0  0  0  0
    7.4236   -3.8775    0.3500 H   0  0  0  0  0  0  0  0  0  0  0  0
   -1.1392    3.3081    2.1362 H   0  0  0  0  0  0  0  0  0  0  0  0
    1.1698    3.6398    2.3686 H   0  0  0  0  0  0  0  0  0  0  0  0
   -2.1173    1.8407    0.0626 C   0  0  0  0  0  0  0  0  0  0  0  0
  1  3  2  0
 29  2  1  6
  5 33  1  0
  5 34  1  0
  5 35  1  0
  7  1  1  0
  7  5  1  0
  8  7  1  0
  8 36  1  0
  9 29  1  0
 10 17  1  0
 11  8  2  0
 11 30  1  0
 12 31  1  0
 12 37  1  0
 12 38  1  0
 13 11  1  0
 14 32  2  0
 15 13  2  0
 15 39  1  0
 16 15  1  0
 16 40  1  0
 17 16  2  0
 17 20  1  0
 18 10  1  0
 18 19  1  0
 18 41  1  0
 19 20  1  0
 19 42  1  0
 20 21  2  0
 21 13  1  0
 21 43  1  0
 53  4  2  0
 53 10  1  0
 22 53  1  0
 22 44  1  0
 22 45  1  0
 23 22  1  0
 24 23  2  0
 24 46  1  0
 25 24  1  0
 25 47  1  0
 26 25  2  0
 26 27  1  0
 26 48  1  0
 27 28  2  0
 28 23  1  0
 28 49  1  0
 29  6  1  0
 29 27  1  0
 30  1  1  0
 30 31  2  0
 31 14  1  0
 32  3  1  0
 32 50  1  0
 18 51  1  0
 19 52  1  0
M  END
