
     RDKit          3D

 31 33  0  0  0  0  0  0  0  0999 V2000
   -0.2596   -0.1718    0.0162 N   0  0  0  0  0  0  0  0  0  0  0  0
   -1.5365    0.1961   -0.2745 C   0  0  0  0  0  0  0  0  0  0  0  0
   -1.9310    1.3249   -0.8956 N   0  0  0  0  0  0  0  0  0  0  0  0
   -3.2148    1.3920   -1.0355 C   0  0  0  0  0  0  0  0  0  0  0  0
   -4.0857    0.4501   -0.6099 N   0  0  0  0  0  0  0  0  0  0  0  0
   -3.7525   -0.7425    0.0413 C   0  0  0  0  0  0  0  0  0  0  0  0
   -4.6062   -1.5364    0.3930 O   0  0  0  0  0  0  0  0  0  0  0  0
   -2.3323   -0.8305    0.1953 C   0  0  0  0  0  0  0  0  0  0  0  0
   -1.5672   -1.8140    0.7547 N   0  0  0  0  0  0  0  0  0  0  0  0
   -0.3441   -1.3905    0.6307 C   0  0  0  0  0  0  0  0  0  0  0  0
    3.1755   -0.0301   -0.4670 C   0  0  1  0  0  0  0  0  0  0  0  0
    1.8432   -0.2410   -0.9492 O   0  0  0  0  0  0  0  0  0  0  0  0
    0.9398    0.5798   -0.2701 C   0  0  2  0  0  0  0  0  0  0  0  0
    1.6712    1.0612    0.9818 C   0  0  2  0  0  0  0  0  0  0  0  0
    1.0707    2.2203    1.4603 O   0  0  0  0  0  0  0  0  0  0  0  0
    3.0990    1.1900    0.4545 C   0  0  2  0  0  0  0  0  0  0  0  0
    3.1909    2.4002   -0.2479 O   0  0  0  0  0  0  0  0  0  0  0  0
   -3.6594    2.2489   -1.5233 H   0  0  0  0  0  0  0  0  0  0  0  0
   -5.0703    0.6187   -0.7734 H   0  0  0  0  0  0  0  0  0  0  0  0
    0.5341   -1.9284    0.9547 H   0  0  0  0  0  0  0  0  0  0  0  0
    4.0487   -3.1086   -0.2287 H   0  0  0  0  0  0  0  0  0  0  0  0
    0.6258    1.4362   -0.8771 H   0  0  0  0  0  0  0  0  0  0  0  0
    1.6615    0.2613    1.7358 H   0  0  0  0  0  0  0  0  0  0  0  0
    1.4310    2.4200    2.3299 H   0  0  0  0  0  0  0  0  0  0  0  0
    3.8411    1.1306    1.2612 H   0  0  0  0  0  0  0  0  0  0  0  0
    4.0565    2.4445   -0.6666 H   0  0  0  0  0  0  0  0  0  0  0  0
    3.8184    0.1780   -1.3293 H   0  0  0  0  0  0  0  0  0  0  0  0
    3.7004   -1.2645    0.2363 C   0  0  0  0  0  0  0  0  0  0  0  0
    3.1113   -1.4711    1.1414 H   0  0  0  0  0  0  0  0  0  0  0  0
    3.6654   -2.3419   -0.6642 O   0  0  0  0  0  0  0  0  0  0  0  0
    4.7217   -1.0423    0.5713 H   0  0  0  0  0  0  0  0  0  0  0  0
  5  4  1  0
  5  6  1  0
  4  3  2  0
  7  6  2  0
  6  8  1  0
  3  2  1  0
 15 14  1  0
  8  2  2  0
  8  9  1  0
  2  1  1  0
  9 10  2  0
  1 10  1  0
  1 13  1  0
 13 14  1  0
 13 12  1  0
 14 16  1  0
 12 11  1  0
 16 17  1  0
 16 11  1  0
 11 28  1  0
 28 30  1  0
  4 18  1  0
  5 19  1  0
 10 20  1  0
 28 29  1  0
 28 31  1  0
 30 21  1  0
 11 27  1  6
 13 22  1  6
 14 23  1  1
 15 24  1  0
 16 25  1  1
 17 26  1  0
M  END
