
     RDKit          3D

 19 20  0  0  0  0  0  0  0  0999 V2000
   -2.9679    0.7343    0.0016 C   0  0  0  0  0  0  0  0  0  0  0  0
   -3.0824   -0.6078   -0.0232 N   0  0  0  0  0  0  0  0  0  0  0  0
   -1.8268   -1.1306   -0.0281 C   0  0  0  0  0  0  0  0  0  0  0  0
   -1.7156    1.1057    0.0135 N   0  0  0  0  0  0  0  0  0  0  0  0
   -0.9798   -0.0495   -0.0046 C   0  0  0  0  0  0  0  0  0  0  0  0
    0.4828   -0.0351   -0.0007 C   0  0  0  0  0  0  0  0  0  0  0  0
    1.1767    1.1767    0.0031 C   0  0  0  0  0  0  0  0  0  0  0  0
    1.2204   -1.2220   -0.0017 C   0  0  0  0  0  0  0  0  0  0  0  0
    2.6063   -1.1970   -0.0001 C   0  0  0  0  0  0  0  0  0  0  0  0
    3.2867    0.0149    0.0030 C   0  0  0  0  0  0  0  0  0  0  0  0
    2.5638    1.2004    0.0049 C   0  0  0  0  0  0  0  0  0  0  0  0
   -3.8255    1.3886    0.0098 H   0  0  0  0  0  0  0  0  0  0  0  0
   -3.9426   -1.1326   -0.0397 H   0  0  0  0  0  0  0  0  0  0  0  0
   -1.6533   -2.1929   -0.0480 H   0  0  0  0  0  0  0  0  0  0  0  0
    0.6214    2.1056    0.0042 H   0  0  0  0  0  0  0  0  0  0  0  0
    0.7127   -2.1790   -0.0035 H   0  0  0  0  0  0  0  0  0  0  0  0
    3.1581   -2.1283   -0.0013 H   0  0  0  0  0  0  0  0  0  0  0  0
    4.3686    0.0336    0.0036 H   0  0  0  0  0  0  0  0  0  0  0  0
    3.0820    2.1510    0.0075 H   0  0  0  0  0  0  0  0  0  0  0  0
  1  2  1  0
  1  4  2  0
  1 12  1  0
  2  3  1  0
  2 13  1  0
  3  5  2  0
  3 14  1  0
  4  5  1  0
  5  6  1  0
  6  7  2  0
  6  8  1  0
  7 11  1  0
  7 15  1  0
  8  9  2  0
  8 16  1  0
  9 10  1  0
  9 17  1  0
 10 11  2  0
 10 18  1  0
 11 19  1  0
M  END
