
     RDKit          3D

 59 63  0  0  0  0  0  0  0  0999 V2000
    4.0512    2.3924    1.3121 C   0  0  0  0  0  0  0  0  0  0  0  0
    1.0507    3.5760   -0.3373 C   0  0  0  0  0  0  0  0  0  0  0  0
    0.2974    1.6492   -1.7382 C   0  0  0  0  0  0  0  0  0  0  0  0
   -2.1071    1.7468   -1.0067 C   0  0  0  0  0  0  0  0  0  0  0  0
   -4.2366   -0.4200    1.2740 C   0  0  0  0  0  0  0  0  0  0  0  0
   -6.6260   -0.3710    1.5392 C   0  0  0  0  0  0  0  0  0  0  0  0
   -6.9918   -0.8979   -1.2166 C   0  0  0  0  0  0  0  0  0  0  0  0
   -1.8657   -0.5941    0.4365 C   0  0  0  0  0  0  0  0  0  0  0  0
    6.1212   -2.8178   -0.1512 C   0  0  0  0  0  0  0  0  0  0  0  0
    4.8538   -3.1693   -0.3862 N   0  0  0  0  0  0  0  0  0  0  0  0
    3.9792   -2.1508   -0.2674 N   0  0  0  0  0  0  0  0  0  0  0  0
    4.6938   -1.1007    0.0495 C   0  0  0  0  0  0  0  0  0  0  0  0
    4.0729    0.2130    0.2304 C   0  0  0  0  0  0  0  0  0  0  0  0
    2.9168    0.5174   -0.4749 C   0  0  0  0  0  0  0  0  0  0  0  0
    2.3383    1.7659   -0.2782 C   0  0  0  0  0  0  0  0  0  0  0  0
    2.8875    2.7199    0.6092 C   0  0  0  0  0  0  0  0  0  0  0  0
    4.6280    1.1547    1.1214 C   0  0  0  0  0  0  0  0  0  0  0  0
    2.0439    3.8685    0.5522 C   0  0  0  0  0  0  0  0  0  0  0  0
    1.2264    2.3202   -0.8512 N   0  0  0  0  0  0  0  0  0  0  0  0
   -0.8862    1.0792   -1.0007 C   0  0  0  0  0  0  0  0  0  0  0  0
   -3.1914    1.2563   -0.2943 C   0  0  0  0  0  0  0  0  0  0  0  0
   -3.0818    0.0818    0.4448 C   0  0  0  0  0  0  0  0  0  0  0  0
   -5.5114   -0.2566    0.6146 N   0  0  0  0  0  0  0  0  0  0  0  0
   -7.9352   -0.0956    0.8087 C   0  0  0  0  0  0  0  0  0  0  0  0
   -8.1525   -0.9528   -0.3438 N   0  0  0  0  0  0  0  0  0  0  0  0
   -8.5504   -2.3013    0.0069 C   0  0  0  0  0  0  0  0  0  0  0  0
   -5.6745   -1.1732   -0.5009 C   0  0  0  0  0  0  0  0  0  0  0  0
   -0.7800   -0.1029   -0.2745 C   0  0  0  0  0  0  0  0  0  0  0  0
    6.0741   -1.4505    0.1430 C   0  0  0  0  0  0  0  0  0  0  0  0
    7.1929   -0.6431    0.3859 C   0  0  0  0  0  0  0  0  0  0  0  0
    8.1316    0.0036    0.5806 N   0  0  0  0  0  0  0  0  0  0  0  0
    4.4945    3.0956    2.0056 H   0  0  0  0  0  0  0  0  0  0  0  0
    0.2178    4.1823   -0.6591 H   0  0  0  0  0  0  0  0  0  0  0  0
   -0.0330    2.3645   -2.4920 H   0  0  0  0  0  0  0  0  0  0  0  0
    0.8420    0.8689   -2.2710 H   0  0  0  0  0  0  0  0  0  0  0  0
   -2.2139    2.6617   -1.5786 H   0  0  0  0  0  0  0  0  0  0  0  0
   -4.0464   -1.4658    1.5703 H   0  0  0  0  0  0  0  0  0  0  0  0
   -4.2656    0.1561    2.2047 H   0  0  0  0  0  0  0  0  0  0  0  0
   -6.6574   -1.3637    2.0215 H   0  0  0  0  0  0  0  0  0  0  0  0
   -6.5023    0.3643    2.3383 H   0  0  0  0  0  0  0  0  0  0  0  0
   -7.1219   -1.6081   -2.0362 H   0  0  0  0  0  0  0  0  0  0  0  0
   -6.9413    0.1021   -1.6606 H   0  0  0  0  0  0  0  0  0  0  0  0
   -1.7649   -1.5202    0.9903 H   0  0  0  0  0  0  0  0  0  0  0  0
    7.0652   -4.5246   -0.6933 H   0  0  0  0  0  0  0  0  0  0  0  0
    8.0816   -3.2720   -0.2183 H   0  0  0  0  0  0  0  0  0  0  0  0
    4.5148   -4.0921   -0.6096 H   0  0  0  0  0  0  0  0  0  0  0  0
    2.4944   -0.1997   -1.1676 H   0  0  0  0  0  0  0  0  0  0  0  0
    5.5141    0.9007    1.6874 H   0  0  0  0  0  0  0  0  0  0  0  0
    2.1613    4.7941    1.0929 H   0  0  0  0  0  0  0  0  0  0  0  0
   -4.1382    1.7808   -0.3200 H   0  0  0  0  0  0  0  0  0  0  0  0
   -8.7743   -0.1999    1.5000 H   0  0  0  0  0  0  0  0  0  0  0  0
   -7.9253    0.9444    0.4658 H   0  0  0  0  0  0  0  0  0  0  0  0
   -7.8080   -2.8810    0.5715 H   0  0  0  0  0  0  0  0  0  0  0  0
   -9.4605   -2.2668    0.6086 H   0  0  0  0  0  0  0  0  0  0  0  0
   -8.7804   -2.8622   -0.9007 H   0  0  0  0  0  0  0  0  0  0  0  0
   -5.6330   -2.2235   -0.1613 H   0  0  0  0  0  0  0  0  0  0  0  0
   -4.8507   -1.0394   -1.2053 H   0  0  0  0  0  0  0  0  0  0  0  0
    0.1517   -0.6566   -0.2627 H   0  0  0  0  0  0  0  0  0  0  0  0
    7.1615   -3.6770   -0.1568 N   0  0  0  0  0  0  0  0  0  0  0  0
 27  7  1  0
 27 23  1  0
 26 25  1  0
  7 25  1  0
 25 24  1  0
  5 23  1  0
  5 22  1  0
 23  6  1  0
  6 24  1  0
 21 22  1  0
 21  4  2  0
 22  8  2  0
  4 20  1  0
  8 28  1  0
 20 28  2  0
 20  3  1  0
  2 18  2  0
  2 19  1  0
 18 16  1  0
 19  3  1  0
 19 15  1  0
 16 15  1  0
 16  1  2  0
 15 14  2  0
  1 17  1  0
 14 13  1  0
 17 13  2  0
 13 12  1  0
 11 12  2  0
 11 10  1  0
 12 29  1  0
 29 30  1  0
 29  9  2  0
 10  9  1  0
 30 31  3  0
  9 59  1  0
  1 32  1  0
  2 33  1  0
  3 34  1  0
  3 35  1  0
  4 36  1  0
  5 37  1  0
  5 38  1  0
  6 39  1  0
  6 40  1  0
  7 41  1  0
  7 42  1  0
  8 43  1  0
 59 44  1  0
 59 45  1  0
 10 46  1  0
 14 47  1  0
 17 48  1  0
 18 49  1  0
 21 50  1  0
 24 51  1  0
 24 52  1  0
 26 53  1  0
 26 54  1  0
 26 55  1  0
 27 56  1  0
 27 57  1  0
 28 58  1  0
M  END
