
     RDKit          3D

 20 20  0  0  0  0  0  0  0  0999 V2000
    2.8522    0.0856   -0.0839 C   0  0  0  0  0  0  0  0  0  0  0  0
    3.4764    1.1098   -0.2243 O   0  0  0  0  0  0  0  0  0  0  0  0
    1.3702    0.0256   -0.0243 C   0  0  0  0  0  0  0  0  0  0  0  0
    0.6516    1.2124   -0.1613 C   0  0  0  0  0  0  0  0  0  0  0  0
   -0.7293    1.2028   -0.1107 C   0  0  0  0  0  0  0  0  0  0  0  0
   -1.4232    0.0076    0.0682 C   0  0  0  0  0  0  0  0  0  0  0  0
   -0.7030   -1.1762    0.2097 C   0  0  0  0  0  0  0  0  0  0  0  0
    0.6822   -1.1697    0.1658 C   0  0  0  0  0  0  0  0  0  0  0  0
   -2.9130    0.0298    0.1230 C   0  0  0  0  0  0  0  0  0  0  0  0
   -3.4862    1.1065    0.5011 N   0  0  0  0  0  0  0  0  0  0  0  0
   -3.5250   -1.1476   -0.1927 N   0  0  0  0  0  0  0  0  0  0  0  0
    1.1734    2.1472   -0.3131 H   0  0  0  0  0  0  0  0  0  0  0  0
   -1.2812    2.1259   -0.2207 H   0  0  0  0  0  0  0  0  0  0  0  0
   -1.2131   -2.1156    0.3782 H   0  0  0  0  0  0  0  0  0  0  0  0
    1.2129   -2.1033    0.2881 H   0  0  0  0  0  0  0  0  0  0  0  0
   -4.4982    1.0135    0.4754 H   0  0  0  0  0  0  0  0  0  0  0  0
   -3.0644   -1.7752   -0.8311 H   0  0  0  0  0  0  0  0  0  0  0  0
    3.4242   -1.1039    0.0324 O   0  0  0  0  0  0  0  0  0  0  0  0
    4.3875   -1.0117   -0.0094 H   0  0  0  0  0  0  0  0  0  0  0  0
   -4.5274   -1.1365   -0.2941 H   0  0  0  0  0  0  0  0  0  0  0  0
  1  3  1  0
  1  2  2  0
  3  4  2  0
  3  8  1  0
  4  5  1  0
  5  6  2  0
  6  9  1  0
  6  7  1  0
  7  8  2  0
  9 11  1  0
  9 10  2  0
  4 12  1  0
  5 13  1  0
  7 14  1  0
  8 15  1  0
 10 16  1  0
 11 17  1  0
  1 18  1  0
 18 19  1  0
 11 20  1  0
M  END
