
     RDKit          3D

 44 43  0  0  0  0  0  0  0  0999 V2000
    1.1978   -2.0004   -0.1908 P   0  0  0  0  0  0  0  0  0  0  0  0
    1.1737   -1.5295   -1.7366 O   0  0  0  0  0  0  0  0  0  0  0  0
    2.5746   -2.9347   -0.5602 O   0  0  0  0  0  0  0  0  0  0  0  0
   -0.1465   -1.0425    0.0083 O   0  0  0  0  0  0  0  0  0  0  0  0
    1.9890   -1.1305    0.9334 O   0  0  0  0  0  0  0  0  0  0  0  0
    0.3449   -3.2931    0.3053 O   0  0  0  0  0  0  0  0  0  0  0  0
   -0.8272   -0.9121    1.2278 C   0  0  0  0  0  0  0  0  0  0  0  0
   -1.1955    0.5379    1.5022 C   0  0  1  0  0  0  0  0  0  0  0  0
   -0.0256    1.4668    1.7418 C   0  0  0  0  0  0  0  0  0  0  0  0
    0.7300    1.6162    0.5468 O   0  0  0  0  0  0  0  0  0  0  0  0
    2.0412    1.7962    0.6293 C   0  0  0  0  0  0  0  0  0  0  0  0
    2.6327    1.9615    1.6679 O   0  0  0  0  0  0  0  0  0  0  0  0
    2.6783    1.8160   -0.7338 C   0  0  0  0  0  0  0  0  0  0  0  0
    4.1674    1.5070   -0.7119 C   0  0  0  0  0  0  0  0  0  0  0  0
    4.7788    1.5879   -2.1034 C   0  0  0  0  0  0  0  0  0  0  0  0
   -1.9616    1.0888    0.4241 O   0  0  0  0  0  0  0  0  0  0  0  0
   -3.2772    0.8903    0.3941 C   0  0  0  0  0  0  0  0  0  0  0  0
   -3.8951    1.5175   -0.8255 C   0  0  0  0  0  0  0  0  0  0  0  0
   -5.4099    1.3967   -0.8774 C   0  0  0  0  0  0  0  0  0  0  0  0
   -5.9777    2.0236   -2.1427 C   0  0  0  0  0  0  0  0  0  0  0  0
   -3.8802    0.2797    1.2406 O   0  0  0  0  0  0  0  0  0  0  0  0
    1.8937   -1.9313   -2.2375 H   0  0  0  0  0  0  0  0  0  0  0  0
    2.9498   -3.4491    0.1631 H   0  0  0  0  0  0  0  0  0  0  0  0
    2.9047   -1.4029    1.0591 H   0  0  0  0  0  0  0  0  0  0  0  0
    0.8320   -4.1231    0.2456 H   0  0  0  0  0  0  0  0  0  0  0  0
   -0.2548   -1.2624    2.0930 H   0  0  0  0  0  0  0  0  0  0  0  0
   -1.7447   -1.5099    1.2056 H   0  0  0  0  0  0  0  0  0  0  0  0
   -1.7823    0.5468    2.4264 H   0  0  0  0  0  0  0  0  0  0  0  0
    0.5796    1.0554    2.5504 H   0  0  0  0  0  0  0  0  0  0  0  0
   -0.3883    2.4472    2.0620 H   0  0  0  0  0  0  0  0  0  0  0  0
    2.5112    2.8147   -1.1538 H   0  0  0  0  0  0  0  0  0  0  0  0
    2.1492    1.1239   -1.3913 H   0  0  0  0  0  0  0  0  0  0  0  0
    4.3264    0.5062   -0.3018 H   0  0  0  0  0  0  0  0  0  0  0  0
    4.6806    2.2002   -0.0433 H   0  0  0  0  0  0  0  0  0  0  0  0
    5.8449    1.3619   -2.0781 H   0  0  0  0  0  0  0  0  0  0  0  0
    4.3078    0.8802   -2.7881 H   0  0  0  0  0  0  0  0  0  0  0  0
    4.6613    2.5860   -2.5294 H   0  0  0  0  0  0  0  0  0  0  0  0
   -3.5900    2.5679   -0.8680 H   0  0  0  0  0  0  0  0  0  0  0  0
   -3.4451    1.0492   -1.7074 H   0  0  0  0  0  0  0  0  0  0  0  0
   -5.6978    0.3443   -0.8299 H   0  0  0  0  0  0  0  0  0  0  0  0
   -5.8495    1.8769   -0.0005 H   0  0  0  0  0  0  0  0  0  0  0  0
   -7.0619    1.9182   -2.1808 H   0  0  0  0  0  0  0  0  0  0  0  0
   -5.7475    3.0890   -2.1975 H   0  0  0  0  0  0  0  0  0  0  0  0
   -5.5670    1.5517   -3.0371 H   0  0  0  0  0  0  0  0  0  0  0  0
  1  2  1  0
  1  3  1  0
  1  4  1  0
  1  5  1  0
  1  6  1  0
  2 22  1  0
  3 23  1  0
  4  7  1  0
  5 24  1  0
  6 25  1  0
  7  8  1  0
  7 26  1  0
  7 27  1  0
  8  9  1  0
  8 16  1  0
  8 28  1  1
  9 10  1  0
  9 29  1  0
  9 30  1  0
 10 11  1  0
 11 12  2  0
 11 13  1  0
 13 14  1  0
 13 31  1  0
 13 32  1  0
 14 15  1  0
 14 33  1  0
 14 34  1  0
 15 35  1  0
 15 36  1  0
 15 37  1  0
 16 17  1  0
 17 18  1  0
 17 21  2  0
 18 19  1  0
 18 38  1  0
 18 39  1  0
 19 20  1  0
 19 40  1  0
 19 41  1  0
 20 42  1  0
 20 43  1  0
 20 44  1  0
M  END
