
     RDKit          3D

 24 25  0  0  0  0  0  0  0  0999 V2000
   -4.3538    0.3838    0.2880 O   0  0  0  0  0  0  0  0  0  0  0  0
   -3.1299    0.8877    0.3379 C   0  0  0  0  0  0  0  0  0  0  0  0
   -2.9017    2.0534    0.5564 O   0  0  0  0  0  0  0  0  0  0  0  0
   -2.0741   -0.1288    0.0967 C   0  0  0  0  0  0  0  0  0  0  0  0
   -2.3735   -1.4684   -0.1426 C   0  0  0  0  0  0  0  0  0  0  0  0
   -1.3431   -2.3720   -0.3511 C   0  0  0  0  0  0  0  0  0  0  0  0
   -0.0235   -1.9494   -0.3264 C   0  0  0  0  0  0  0  0  0  0  0  0
    0.2920   -0.6106   -0.0887 C   0  0  0  0  0  0  0  0  0  0  0  0
   -0.7472    0.2898    0.1239 C   0  0  0  0  0  0  0  0  0  0  0  0
    1.6947   -0.1589   -0.0653 C   0  0  0  0  0  0  0  0  0  0  0  0
    2.0630    1.0699   -0.6148 C   0  0  0  0  0  0  0  0  0  0  0  0
    3.3033    1.5355   -0.6246 N   0  0  0  0  0  0  0  0  0  0  0  0
    4.2560    0.7861   -0.0818 C   0  0  0  0  0  0  0  0  0  0  0  0
    4.0085   -0.4545    0.4862 C   0  0  0  0  0  0  0  0  0  0  0  0
    2.7089   -0.9318    0.4954 C   0  0  0  0  0  0  0  0  0  0  0  0
   -5.0067    1.0808    0.4506 H   0  0  0  0  0  0  0  0  0  0  0  0
   -3.3969   -1.8153   -0.1695 H   0  0  0  0  0  0  0  0  0  0  0  0
   -1.5699   -3.4120   -0.5422 H   0  0  0  0  0  0  0  0  0  0  0  0
    0.7663   -2.6664   -0.5124 H   0  0  0  0  0  0  0  0  0  0  0  0
   -0.5245    1.3281    0.3336 H   0  0  0  0  0  0  0  0  0  0  0  0
    1.3127    1.6979   -1.0852 H   0  0  0  0  0  0  0  0  0  0  0  0
    5.2623    1.1890   -0.1003 H   0  0  0  0  0  0  0  0  0  0  0  0
    4.8162   -1.0291    0.9185 H   0  0  0  0  0  0  0  0  0  0  0  0
    2.4838   -1.8879    0.9514 H   0  0  0  0  0  0  0  0  0  0  0  0
 12 11  2  0
 12 13  1  0
 11 10  1  0
  3  2  2  0
 13 14  2  0
 10  8  1  0
 10 15  2  0
  8  9  1  0
  8  7  2  0
  9  4  2  0
  7  6  1  0
  4  2  1  0
  4  5  1  0
  6  5  2  0
  2  1  1  0
 14 15  1  0
  1 16  1  0
  5 17  1  0
  6 18  1  0
  7 19  1  0
  9 20  1  0
 11 21  1  0
 13 22  1  0
 14 23  1  0
 15 24  1  0
M  END
