
     RDKit          3D

 29 29  0  0  0  0  0  0  0  0999 V2000
    2.7199   -1.3778    1.5528 O   0  0  0  0  0  0  0  0  0  0  0  0
    2.6151   -1.4283    0.3526 C   0  0  0  0  0  0  0  0  0  0  0  0
    1.5567   -0.7065   -0.4549 C   0  0  1  0  0  0  0  0  0  0  0  0
    0.7762   -1.6936   -1.3263 C   0  0  0  0  0  0  0  0  0  0  0  0
    0.6557   -0.0116    0.4402 N   0  0  0  0  0  0  0  0  0  0  0  0
   -0.0143    1.1192   -0.1401 C   0  0  2  0  0  0  0  0  0  0  0  0
    0.8344    2.3839   -0.1090 C   0  0  0  0  0  0  0  0  0  0  0  0
    0.3031    3.3595   -0.8353 O   0  0  0  0  0  0  0  0  0  0  0  0
    1.8627    2.5025    0.5093 O   0  0  0  0  0  0  0  0  0  0  0  0
   -1.3697    1.3576    0.5524 C   0  0  0  0  0  0  0  0  0  0  0  0
   -2.2903    0.2129    0.3121 C   0  0  0  0  0  0  0  0  0  0  0  0
   -2.7625   -0.0719   -0.9405 N   0  0  0  0  0  0  0  0  0  0  0  0
   -2.7653   -0.7054    1.2040 C   0  0  0  0  0  0  0  0  0  0  0  0
   -3.5067   -1.1406   -0.8065 C   0  0  0  0  0  0  0  0  0  0  0  0
   -3.5408   -1.5588    0.4720 N   0  0  0  0  0  0  0  0  0  0  0  0
    3.4345   -2.1253   -0.4212 O   0  0  0  0  0  0  0  0  0  0  0  0
    2.1075   -0.0193   -1.1191 H   0  0  0  0  0  0  0  0  0  0  0  0
   -0.0490   -1.1803   -1.8200 H   0  0  0  0  0  0  0  0  0  0  0  0
    1.4017   -2.1383   -2.0979 H   0  0  0  0  0  0  0  0  0  0  0  0
    0.3454   -2.4872   -0.7156 H   0  0  0  0  0  0  0  0  0  0  0  0
    1.1240    0.2564    1.2959 H   0  0  0  0  0  0  0  0  0  0  0  0
   -0.2295    0.9063   -1.1919 H   0  0  0  0  0  0  0  0  0  0  0  0
    0.8477    4.1589   -0.7722 H   0  0  0  0  0  0  0  0  0  0  0  0
   -1.2106    1.4949    1.6246 H   0  0  0  0  0  0  0  0  0  0  0  0
   -1.8212    2.2791    0.1779 H   0  0  0  0  0  0  0  0  0  0  0  0
   -2.6149   -0.8234    2.2637 H   0  0  0  0  0  0  0  0  0  0  0  0
   -4.0441   -1.6440   -1.5954 H   0  0  0  0  0  0  0  0  0  0  0  0
   -4.0473   -2.3551    0.8238 H   0  0  0  0  0  0  0  0  0  0  0  0
    4.1032   -2.5727    0.1191 H   0  0  0  0  0  0  0  0  0  0  0  0
  9  7  2  0
 14 12  2  0
 14 15  1  0
 12 11  1  0
 15 13  1  0
 11 10  1  0
 11 13  2  0
  7  8  1  0
  7  6  1  0
 10  6  1  0
  6  5  1  0
  5  3  1  0
  3  2  1  0
  3  4  1  0
  1  2  2  0
  2 16  1  0
  3 17  1  6
  4 18  1  0
  4 19  1  0
  4 20  1  0
  5 21  1  0
  6 22  1  6
  8 23  1  0
 10 24  1  0
 10 25  1  0
 13 26  1  0
 14 27  1  0
 15 28  1  0
 16 29  1  0
M  END
