
     RDKit          3D

 69 74  0  0  0  0  0  0  0  0999 V2000
  -25.6615  -40.9843  -16.6085 C   0  0  0  0  0  0  0  0  0  0  0  0
  -25.4103  -39.5284  -16.9034 C   0  0  0  0  0  0  0  0  0  0  0  0
  -26.0590  -38.7539  -15.7559 C   0  0  2  0  0  0  0  0  0  0  0  0
  -25.0163  -38.2332  -14.7702 C   0  0  0  0  0  0  0  0  0  0  0  0
  -23.0719  -39.1614  -13.6063 C   0  0  1  0  0  0  0  0  0  0  0  0
  -22.9114  -38.1157  -12.4944 C   0  0  0  0  0  0  0  0  0  0  0  0
  -21.4444  -37.9341  -12.1170 C   0  0  0  0  0  0  0  0  0  0  0  0
  -20.8124  -39.2628  -11.7022 C   0  0  1  0  0  0  0  0  0  0  0  0
  -20.9715  -40.3034  -12.8061 C   0  0  0  0  0  0  0  0  0  0  0  0
  -22.4385  -40.4842  -13.1772 C   0  0  0  0  0  0  0  0  0  0  0  0
  -18.9363  -38.7513  -10.1679 C   0  0  0  0  0  0  0  0  0  0  0  0
  -19.3506  -38.2007   -7.9769 C   0  0  0  0  0  0  0  0  0  0  0  0
  -17.2384  -38.1751   -8.6145 C   0  0  0  0  0  0  0  0  0  0  0  0
  -15.3436  -38.3294   -9.7615 C   0  0  0  0  0  0  0  0  0  0  0  0
  -16.1195  -39.1126  -12.0684 C   0  0  2  0  0  0  0  0  0  0  0  0
  -16.3274  -40.6234  -12.2439 C   0  0  0  0  0  0  0  0  0  0  0  0
  -16.0772  -41.0321  -13.6870 C   0  0  0  0  0  0  0  0  0  0  0  0
  -14.7383  -38.7535  -12.6146 C   0  0  0  0  0  0  0  0  0  0  0  0
  -25.1535  -41.9361  -17.1858 O   0  0  0  0  0  0  0  0  0  0  0  0
  -24.4284  -39.3591  -14.0816 N   0  0  0  0  0  0  0  0  0  0  0  0
  -25.3455  -39.9873  -13.1413 C   0  0  0  0  0  0  0  0  0  0  0  0
  -26.7992  -39.7582  -13.5505 C   0  0  0  0  0  0  0  0  0  0  0  0
  -26.9790  -39.7905  -15.0605 C   0  0  2  0  0  0  0  0  0  0  0  0
  -26.5785  -41.0635  -15.6320 N   0  0  0  0  0  0  0  0  0  0  0  0
  -27.1277  -42.3036  -15.1515 C   0  0  0  0  0  0  0  0  0  0  0  0
  -19.4086  -39.1229  -11.3711 N   0  0  0  0  0  0  0  0  0  0  0  0
  -17.5554  -38.5736   -9.9202 C   0  0  0  0  0  0  0  0  0  0  0  0
  -16.3221  -38.6743  -10.6509 C   0  0  0  0  0  0  0  0  0  0  0  0
  -15.8979  -38.0305   -8.5417 N   0  0  0  0  0  0  0  0  0  0  0  0
  -18.1055  -37.9771   -7.6155 N   0  0  0  0  0  0  0  0  0  0  0  0
  -19.8073  -38.5657   -9.1731 N   0  0  0  0  0  0  0  0  0  0  0  0
  -14.5853  -39.2636  -14.0384 C   0  0  0  0  0  0  0  0  0  0  0  0
  -14.7913  -40.6566  -14.1281 O   0  0  0  0  0  0  0  0  0  0  0  0
  -24.3403  -39.3385  -17.0014 H   0  0  0  0  0  0  0  0  0  0  0  0
  -25.8654  -39.2911  -17.8686 H   0  0  0  0  0  0  0  0  0  0  0  0
  -26.6500  -37.9154  -16.1267 H   0  0  0  0  0  0  0  0  0  0  0  0
  -24.2360  -37.7071  -15.3261 H   0  0  0  0  0  0  0  0  0  0  0  0
  -25.4682  -37.4851  -14.0998 H   0  0  0  0  0  0  0  0  0  0  0  0
  -22.4959  -38.8029  -14.4705 H   0  0  0  0  0  0  0  0  0  0  0  0
  -23.3275  -37.1572  -12.8151 H   0  0  0  0  0  0  0  0  0  0  0  0
  -23.4760  -38.4214  -11.6071 H   0  0  0  0  0  0  0  0  0  0  0  0
  -20.8882  -37.5284  -12.9697 H   0  0  0  0  0  0  0  0  0  0  0  0
  -21.3467  -37.2131  -11.3023 H   0  0  0  0  0  0  0  0  0  0  0  0
  -21.3233  -39.6251  -10.8071 H   0  0  0  0  0  0  0  0  0  0  0  0
  -20.5435  -41.2546  -12.4810 H   0  0  0  0  0  0  0  0  0  0  0  0
  -20.4068  -39.9867  -13.6918 H   0  0  0  0  0  0  0  0  0  0  0  0
  -22.9732  -40.8964  -12.3155 H   0  0  0  0  0  0  0  0  0  0  0  0
  -22.5375  -41.2109  -13.9868 H   0  0  0  0  0  0  0  0  0  0  0  0
  -20.1073  -38.0653   -7.2105 H   0  0  0  0  0  0  0  0  0  0  0  0
  -14.2761  -38.2720   -9.8970 H   0  0  0  0  0  0  0  0  0  0  0  0
  -16.8497  -38.5944  -12.7064 H   0  0  0  0  0  0  0  0  0  0  0  0
  -17.3381  -40.9238  -11.9551 H   0  0  0  0  0  0  0  0  0  0  0  0
  -15.6407  -41.1566  -11.5800 H   0  0  0  0  0  0  0  0  0  0  0  0
  -16.8477  -40.5839  -14.3335 H   0  0  0  0  0  0  0  0  0  0  0  0
  -16.1492  -42.1154  -13.7983 H   0  0  0  0  0  0  0  0  0  0  0  0
  -13.9594  -39.1992  -11.9878 H   0  0  0  0  0  0  0  0  0  0  0  0
  -14.5867  -37.6715  -12.6006 H   0  0  0  0  0  0  0  0  0  0  0  0
  -25.1431  -41.0617  -13.1044 H   0  0  0  0  0  0  0  0  0  0  0  0
  -25.2197  -39.6187  -12.1121 H   0  0  0  0  0  0  0  0  0  0  0  0
  -27.1525  -38.7869  -13.1962 H   0  0  0  0  0  0  0  0  0  0  0  0
  -27.4369  -40.5003  -13.0642 H   0  0  0  0  0  0  0  0  0  0  0  0
  -28.0317  -39.6036  -15.3004 H   0  0  0  0  0  0  0  0  0  0  0  0
  -28.1951  -42.1883  -14.9626 H   0  0  0  0  0  0  0  0  0  0  0  0
  -26.9929  -43.0810  -15.8998 H   0  0  0  0  0  0  0  0  0  0  0  0
  -26.6503  -42.6322  -14.2260 H   0  0  0  0  0  0  0  0  0  0  0  0
  -18.7696  -39.0878  -12.1475 H   0  0  0  0  0  0  0  0  0  0  0  0
  -15.3864  -37.7461   -7.7224 H   0  0  0  0  0  0  0  0  0  0  0  0
  -13.5785  -39.0665  -14.4111 H   0  0  0  0  0  0  0  0  0  0  0  0
  -15.2888  -38.7306  -14.6957 H   0  0  0  0  0  0  0  0  0  0  0  0
  2  1  1  0
  2  3  1  0
 19  1  2  0
  1 24  1  0
  3  4  1  0
  3 23  1  0
 24 23  1  0
 24 25  1  0
  4 20  1  0
 23 22  1  0
 20  5  1  0
 20 21  1  0
 33 17  1  0
 33 32  1  0
 17 16  1  0
  5 10  1  0
  5  6  1  0
 32 18  1  0
 22 21  1  0
 10  9  1  0
  9  8  1  0
 16 15  1  0
  6  7  1  0
 18 15  1  0
  7  8  1  0
 15 28  1  0
  8 26  1  0
 26 11  1  0
 28 27  1  0
 28 14  2  0
 11 27  2  0
 11 31  1  0
 27 13  1  0
 14 29  1  0
 31 12  2  0
 13 29  1  0
 13 30  2  0
 12 30  1  0
  2 34  1  0
  2 35  1  0
  3 36  1  6
  4 37  1  0
  4 38  1  0
  5 39  1  6
  6 40  1  0
  6 41  1  0
  7 42  1  0
  7 43  1  0
  8 44  1  1
  9 45  1  0
  9 46  1  0
 10 47  1  0
 10 48  1  0
 12 49  1  0
 14 50  1  0
 15 51  1  6
 16 52  1  0
 16 53  1  0
 17 54  1  0
 17 55  1  0
 18 56  1  0
 18 57  1  0
 21 58  1  0
 21 59  1  0
 22 60  1  0
 22 61  1  0
 23 62  1  1
 25 63  1  0
 25 64  1  0
 25 65  1  0
 26 66  1  0
 29 67  1  0
 32 68  1  0
 32 69  1  0
M  END
