
     RDKit          3D

 22 22  0  0  0  0  0  0  0  0999 V2000
    1.1825    1.1719   -0.1387 C   0  0  0  0  0  0  0  0  0  0  0  0
    0.1553    2.0346    0.2258 C   0  0  0  0  0  0  0  0  0  0  0  0
   -1.1632    1.5941    0.2243 C   0  0  0  0  0  0  0  0  0  0  0  0
   -1.4458    0.2920   -0.1413 C   0  0  0  0  0  0  0  0  0  0  0  0
   -0.4247   -0.5766   -0.5088 C   0  0  0  0  0  0  0  0  0  0  0  0
    2.4818    1.5075   -0.1661 O   0  0  0  0  0  0  0  0  0  0  0  0
    2.8602    2.8129    0.2283 C   0  0  0  0  0  0  0  0  0  0  0  0
   -3.2342   -0.3188   -0.1444 Br  0  0  0  0  0  0  0  0  0  0  0  0
    0.8909   -0.1482   -0.5124 C   0  0  0  0  0  0  0  0  0  0  0  0
    2.9115   -1.4184    0.2310 C   0  0  0  0  0  0  0  0  0  0  0  0
    2.6219   -1.3123    1.3945 O   0  0  0  0  0  0  0  0  0  0  0  0
    2.0027   -1.0637   -0.9208 C   0  0  0  0  0  0  0  0  0  0  0  0
    4.0702   -1.9076   -0.1942 O   0  0  0  0  0  0  0  0  0  0  0  0
    0.3537    3.0569    0.5164 H   0  0  0  0  0  0  0  0  0  0  0  0
   -1.9488    2.2806    0.5103 H   0  0  0  0  0  0  0  0  0  0  0  0
   -0.6461   -1.5960   -0.7987 H   0  0  0  0  0  0  0  0  0  0  0  0
    2.4289    3.5759   -0.4242 H   0  0  0  0  0  0  0  0  0  0  0  0
    2.5712    3.0232    1.2607 H   0  0  0  0  0  0  0  0  0  0  0  0
    3.9432    2.8559    0.1497 H   0  0  0  0  0  0  0  0  0  0  0  0
    1.5935   -2.0017   -1.3083 H   0  0  0  0  0  0  0  0  0  0  0  0
    2.5934   -0.6370   -1.7342 H   0  0  0  0  0  0  0  0  0  0  0  0
    4.6164   -2.1697    0.5621 H   0  0  0  0  0  0  0  0  0  0  0  0
  1  2  2  0
  1  6  1  0
  1  9  1  0
  2  3  1  0
  2 14  1  0
  3  4  2  0
  3 15  1  0
  4  5  1  0
  4  8  1  0
  5  9  2  0
  5 16  1  0
  6  7  1  0
  7 17  1  0
  7 18  1  0
  7 19  1  0
  9 12  1  0
 10 11  2  0
 10 12  1  0
 10 13  1  0
 12 20  1  0
 12 21  1  0
 13 22  1  0
M  END
