
     RDKit          3D

 62 66  0  0  0  0  0  0  0  0999 V2000
   -0.5110   -1.5071    0.4520 C   0  0  0  0  0  0  0  0  0  0  0  0
   -0.4385   -0.1641    0.6071 C   0  0  0  0  0  0  0  0  0  0  0  0
    0.9658    0.3069    0.7605 C   0  0  2  0  0  0  0  0  0  0  0  0
    1.4481    1.2891   -0.2749 C   0  0  0  0  0  0  0  0  0  0  0  0
    3.0547   -1.0753    0.7018 C   0  0  0  0  0  0  0  0  0  0  0  0
    2.0614    2.4679    0.1207 C   0  0  0  0  0  0  0  0  0  0  0  0
    2.5077    3.3883   -0.8191 C   0  0  0  0  0  0  0  0  0  0  0  0
    2.3390    3.1062   -2.1633 C   0  0  0  0  0  0  0  0  0  0  0  0
    1.7409    1.9245   -2.5817 C   0  0  0  0  0  0  0  0  0  0  0  0
    1.2998    1.0203   -1.6321 C   0  0  0  0  0  0  0  0  0  0  0  0
    3.6944   -0.6248    1.9193 C   0  0  0  0  0  0  0  0  0  0  0  0
    5.7887   -1.2667    0.9097 C   0  0  0  0  0  0  0  0  0  0  0  0
    5.1741   -1.6990   -0.2198 C   0  0  0  0  0  0  0  0  0  0  0  0
    3.7760   -1.5857   -0.3329 C   0  0  0  0  0  0  0  0  0  0  0  0
   -4.6757   -1.3823    1.4982 C   0  0  0  0  0  0  0  0  0  0  0  0
   -6.6244   -0.8674    0.5149 C   0  0  0  0  0  0  0  0  0  0  0  0
   -1.7096    0.2927    0.6110 N   0  0  0  0  0  0  0  0  0  0  0  0
   -2.4976   -0.8291    0.4571 C   0  0  0  0  0  0  0  0  0  0  0  0
   -1.7942   -1.9328    0.3600 N   0  0  0  0  0  0  0  0  0  0  0  0
   -2.1766    1.6653    0.8276 C   0  0  1  0  0  0  0  0  0  0  0  0
   -1.6162    2.2186    2.1291 C   0  0  0  0  0  0  0  0  0  0  0  0
   -1.8677    2.5609   -0.3625 C   0  0  0  0  0  0  0  0  0  0  0  0
   -3.9608   -0.7988    0.4748 C   0  0  0  0  0  0  0  0  0  0  0  0
    0.8309   -2.0805    0.4648 C   0  0  0  0  0  0  0  0  0  0  0  0
    1.6615   -0.9870    0.6388 N   0  0  0  0  0  0  0  0  0  0  0  0
    1.1954   -3.2325    0.3585 O   0  0  0  0  0  0  0  0  0  0  0  0
    5.0753   -0.7397    1.9310 N   0  0  0  0  0  0  0  0  0  0  0  0
    2.8852    4.2447   -3.3488 Cl  0  0  0  0  0  0  0  0  0  0  0  0
   -6.0052   -1.4252    1.5362 N   0  0  0  0  0  0  0  0  0  0  0  0
   -6.0567   -0.2916   -0.5400 N   0  0  0  0  0  0  0  0  0  0  0  0
   -4.7452   -0.2636   -0.5660 C   0  0  0  0  0  0  0  0  0  0  0  0
   -4.1133    0.2710   -1.5893 O   0  0  0  0  0  0  0  0  0  0  0  0
   -4.8789    0.8346   -2.6545 C   0  0  0  0  0  0  0  0  0  0  0  0
    5.7658   -0.2893    3.1341 C   0  0  0  0  0  0  0  0  0  0  0  0
    3.1014   -0.1622    2.8876 O   0  0  0  0  0  0  0  0  0  0  0  0
    6.0994   -2.3637   -1.5155 Cl  0  0  0  0  0  0  0  0  0  0  0  0
   -8.6590   -1.4468    1.5569 C   0  0  0  0  0  0  0  0  0  0  0  0
    1.1369    0.7156    1.7597 H   0  0  0  0  0  0  0  0  0  0  0  0
    2.1958    2.6829    1.1739 H   0  0  0  0  0  0  0  0  0  0  0  0
    2.9787    4.3082   -0.5012 H   0  0  0  0  0  0  0  0  0  0  0  0
    1.6184    1.7127   -3.6350 H   0  0  0  0  0  0  0  0  0  0  0  0
    0.8292    0.1016   -1.9615 H   0  0  0  0  0  0  0  0  0  0  0  0
    6.8590   -1.3240    1.0441 H   0  0  0  0  0  0  0  0  0  0  0  0
    3.2800   -1.9019   -1.2409 H   0  0  0  0  0  0  0  0  0  0  0  0
   -4.1506   -1.8344    2.3321 H   0  0  0  0  0  0  0  0  0  0  0  0
   -3.2589    1.5889    0.9343 H   0  0  0  0  0  0  0  0  0  0  0  0
   -0.5415    2.3982    2.0702 H   0  0  0  0  0  0  0  0  0  0  0  0
   -2.0908    3.1747    2.3464 H   0  0  0  0  0  0  0  0  0  0  0  0
   -1.8113    1.5467    2.9645 H   0  0  0  0  0  0  0  0  0  0  0  0
   -2.2391    2.1349   -1.2922 H   0  0  0  0  0  0  0  0  0  0  0  0
   -2.3492    3.5275   -0.2150 H   0  0  0  0  0  0  0  0  0  0  0  0
   -0.7982    2.7378   -0.4699 H   0  0  0  0  0  0  0  0  0  0  0  0
   -5.4960    0.0802   -3.1411 H   0  0  0  0  0  0  0  0  0  0  0  0
   -5.5139    1.6458   -2.3005 H   0  0  0  0  0  0  0  0  0  0  0  0
   -4.1521    1.2225   -3.3619 H   0  0  0  0  0  0  0  0  0  0  0  0
    6.8311   -0.4547    3.0110 H   0  0  0  0  0  0  0  0  0  0  0  0
    5.5869    0.7709    3.2978 H   0  0  0  0  0  0  0  0  0  0  0  0
    5.4187   -0.8455    4.0019 H   0  0  0  0  0  0  0  0  0  0  0  0
   -8.4521   -2.5142    1.6316 H   0  0  0  0  0  0  0  0  0  0  0  0
   -8.4207   -0.9707    2.5076 H   0  0  0  0  0  0  0  0  0  0  0  0
   -9.7106   -1.2969    1.3300 H   0  0  0  0  0  0  0  0  0  0  0  0
   -7.9434   -0.8507    0.4786 O   0  0  0  0  0  0  0  0  0  0  0  0
 36 13  1  0
 26 24  2  0
 13 14  1  0
 13 12  2  0
 14  5  2  0
 12 27  1  0
 24 25  1  0
 24  1  1  0
  5 25  1  0
  5 11  1  0
 27 11  1  0
 27 34  1  0
 25  3  1  0
 11 35  2  0
  1 19  1  0
  1  2  2  0
 19 18  2  0
 10  9  2  0
 10  4  1  0
  9  8  1  0
 18 23  1  0
 18 17  1  0
  2  3  1  0
  2 17  1  0
 32 33  1  0
 32 31  1  0
  3  4  1  0
  4  6  2  0
 23 31  1  0
 23 15  2  0
 31 30  2  0
  8 28  1  0
  8  7  2  0
 17 20  1  0
 15 29  1  0
 30 16  1  0
 29 16  2  0
 16 62  1  0
  6  7  1  0
 62 37  1  0
 22 20  1  0
 20 21  1  0
  3 38  1  1
  6 39  1  0
  7 40  1  0
  9 41  1  0
 10 42  1  0
 12 43  1  0
 14 44  1  0
 15 45  1  0
 20 46  1  1
 21 47  1  0
 21 48  1  0
 21 49  1  0
 22 50  1  0
 22 51  1  0
 22 52  1  0
 33 53  1  0
 33 54  1  0
 33 55  1  0
 34 56  1  0
 34 57  1  0
 34 58  1  0
 37 59  1  0
 37 60  1  0
 37 61  1  0
M  END
