
     RDKit          3D

 45 47  0  0  0  0  0  0  0  0999 V2000
   -1.2068    1.1190   -0.9667 C   0  0  0  0  0  0  0  0  0  0  0  0
   -2.2813    1.9545   -0.2984 C   0  0  0  0  0  0  0  0  0  0  0  0
   -3.5181    1.1454   -0.0174 C   0  0  0  0  0  0  0  0  0  0  0  0
   -4.7348    1.7871    0.2108 C   0  0  0  0  0  0  0  0  0  0  0  0
   -5.8750    1.0406    0.4557 C   0  0  0  0  0  0  0  0  0  0  0  0
   -5.8163   -0.3439    0.4669 C   0  0  0  0  0  0  0  0  0  0  0  0
   -4.6087   -1.0032    0.2288 C   0  0  0  0  0  0  0  0  0  0  0  0
   -4.5756   -2.3858    0.1624 N   0  0  0  0  0  0  0  0  0  0  0  0
   -3.4444   -0.2451   -0.0007 C   0  0  0  0  0  0  0  0  0  0  0  0
   -2.1445   -0.9581   -0.2656 C   0  0  0  0  0  0  0  0  0  0  0  0
   -0.9915   -0.0864   -0.1918 N   0  0  0  0  0  0  0  0  0  0  0  0
    0.2216   -0.7973   -0.5567 C   0  0  0  0  0  0  0  0  0  0  0  0
    1.4799   -0.1526    0.0077 C   0  0  0  0  0  0  0  0  0  0  0  0
    2.7265   -0.9270   -0.3987 C   0  0  0  0  0  0  0  0  0  0  0  0
    3.9434   -0.4014    0.1914 N   0  0  0  0  0  0  0  0  0  0  0  0
    5.0434   -1.3418    0.0822 C   0  0  0  0  0  0  0  0  0  0  0  0
    6.2806   -0.7828    0.7586 C   0  0  0  0  0  0  0  0  0  0  0  0
    6.6544    0.4629    0.2125 O   0  0  0  0  0  0  0  0  0  0  0  0
    5.5932    1.3872    0.3038 C   0  0  0  0  0  0  0  0  0  0  0  0
    4.3395    0.8738   -0.3784 C   0  0  0  0  0  0  0  0  0  0  0  0
   -1.4948    0.8891   -2.0071 H   0  0  0  0  0  0  0  0  0  0  0  0
   -0.2811    1.6930   -1.0167 H   0  0  0  0  0  0  0  0  0  0  0  0
   -1.8866    2.3619    0.6375 H   0  0  0  0  0  0  0  0  0  0  0  0
   -2.5348    2.8126   -0.9253 H   0  0  0  0  0  0  0  0  0  0  0  0
   -4.7832    2.8692    0.1889 H   0  0  0  0  0  0  0  0  0  0  0  0
   -6.8205    1.5357    0.6390 H   0  0  0  0  0  0  0  0  0  0  0  0
   -6.7113   -0.9248    0.6588 H   0  0  0  0  0  0  0  0  0  0  0  0
   -5.3753   -2.8433    0.5717 H   0  0  0  0  0  0  0  0  0  0  0  0
   -3.7227   -2.8295    0.4655 H   0  0  0  0  0  0  0  0  0  0  0  0
   -1.9977   -1.7534    0.4738 H   0  0  0  0  0  0  0  0  0  0  0  0
   -2.2121   -1.4682   -1.2455 H   0  0  0  0  0  0  0  0  0  0  0  0
    0.1461   -1.8124   -0.1562 H   0  0  0  0  0  0  0  0  0  0  0  0
    0.3101   -0.9101   -1.6509 H   0  0  0  0  0  0  0  0  0  0  0  0
    1.5572    0.8846   -0.3268 H   0  0  0  0  0  0  0  0  0  0  0  0
    1.4108   -0.1278    1.0979 H   0  0  0  0  0  0  0  0  0  0  0  0
    2.6158   -1.9632   -0.0649 H   0  0  0  0  0  0  0  0  0  0  0  0
    2.7975   -0.9648   -1.5000 H   0  0  0  0  0  0  0  0  0  0  0  0
    4.7691   -2.2798    0.5716 H   0  0  0  0  0  0  0  0  0  0  0  0
    5.2782   -1.5818   -0.9696 H   0  0  0  0  0  0  0  0  0  0  0  0
    6.0916   -0.6876    1.8374 H   0  0  0  0  0  0  0  0  0  0  0  0
    7.1216   -1.4650    0.6249 H   0  0  0  0  0  0  0  0  0  0  0  0
    5.3667    1.6090    1.3562 H   0  0  0  0  0  0  0  0  0  0  0  0
    5.9229    2.3125   -0.1706 H   0  0  0  0  0  0  0  0  0  0  0  0
    4.5174    0.7934   -1.4657 H   0  0  0  0  0  0  0  0  0  0  0  0
    3.5483    1.6126   -0.2384 H   0  0  0  0  0  0  0  0  0  0  0  0
  6  5  2  0
  6  7  1  0
  5  4  1  0
  8  7  1  0
  7  9  2  0
  4  3  2  0
  9  3  1  0
  9 10  1  0
  3  2  1  0
 10 11  1  0
  2  1  1  0
  1 11  1  0
 11 12  1  0
 12 13  1  0
 13 14  1  0
 14 15  1  0
 20 15  1  0
 20 19  1  0
 15 16  1  0
 19 18  1  0
 16 17  1  0
 17 18  1  0
  1 21  1  0
  1 22  1  0
  2 23  1  0
  2 24  1  0
  4 25  1  0
  5 26  1  0
  6 27  1  0
  8 28  1  0
  8 29  1  0
 10 30  1  0
 10 31  1  0
 12 32  1  0
 12 33  1  0
 13 34  1  0
 13 35  1  0
 14 36  1  0
 14 37  1  0
 16 38  1  0
 16 39  1  0
 17 40  1  0
 17 41  1  0
 19 42  1  0
 19 43  1  0
 20 44  1  0
 20 45  1  0
M  END
