
     RDKit          3D

 24 24  0  0  0  0  0  0  0  0999 V2000
   -3.2639   -1.3674    0.1129 O   0  0  0  0  0  0  0  0  0  0  0  0
   -2.4657   -0.3318   -0.4050 C   0  0  0  0  0  0  0  0  0  0  0  0
   -1.0612   -0.4499    0.1679 C   0  0  1  0  0  0  0  0  0  0  0  0
   -0.5109   -1.7497   -0.1671 N   0  0  0  0  0  0  0  0  0  0  0  0
    0.8426   -1.9375    0.3098 C   0  0  0  0  0  0  0  0  0  0  0  0
    1.7979   -0.8620   -0.1992 C   0  0  2  0  0  0  0  0  0  0  0  0
    3.0887   -0.9799    0.3610 O   0  0  0  0  0  0  0  0  0  0  0  0
    1.2687    0.5123    0.1909 C   0  0  1  0  0  0  0  0  0  0  0  0
    2.0655    1.5416   -0.3414 O   0  0  0  0  0  0  0  0  0  0  0  0
   -0.1569    0.7012   -0.3154 C   0  0  2  0  0  0  0  0  0  0  0  0
   -0.8442    2.2943    0.2779 S   0  0  0  0  0  0  0  0  0  0  0  0
   -4.1661   -1.2177   -0.1828 H   0  0  0  0  0  0  0  0  0  0  0  0
   -2.4002   -0.3759   -1.5028 H   0  0  0  0  0  0  0  0  0  0  0  0
   -2.8810    0.6512   -0.1566 H   0  0  0  0  0  0  0  0  0  0  0  0
   -1.1231   -0.3890    1.2628 H   0  0  0  0  0  0  0  0  0  0  0  0
   -0.5479   -1.8896   -1.1715 H   0  0  0  0  0  0  0  0  0  0  0  0
    0.8373   -1.9270    1.4050 H   0  0  0  0  0  0  0  0  0  0  0  0
    1.1917   -2.9270    0.0051 H   0  0  0  0  0  0  0  0  0  0  0  0
    1.8404   -0.9201   -1.2977 H   0  0  0  0  0  0  0  0  0  0  0  0
    3.5449   -1.7099   -0.0680 H   0  0  0  0  0  0  0  0  0  0  0  0
    1.2437    0.5634    1.2923 H   0  0  0  0  0  0  0  0  0  0  0  0
    2.9664    1.4135   -0.0264 H   0  0  0  0  0  0  0  0  0  0  0  0
   -0.1545    0.7144   -1.4105 H   0  0  0  0  0  0  0  0  0  0  0  0
    0.1428    3.0810   -0.1605 H   0  0  0  0  0  0  0  0  0  0  0  0
  5  4  1  0
  5  6  1  0
  7  6  1  0
  3  4  1  0
  3 10  1  0
  3  2  1  0
 11 10  1  0
  8  6  1  0
  8 10  1  0
  8  9  1  0
  2  1  1  0
  1 12  1  0
  2 13  1  0
  2 14  1  0
  3 15  1  1
  4 16  1  0
  5 17  1  0
  5 18  1  0
  6 19  1  6
  7 20  1  0
  8 21  1  1
  9 22  1  0
 10 23  1  6
 11 24  1  0
M  END
