
     RDKit          3D

 41 45  0  0  0  0  0  0  0  0999 V2000
   -0.8252   -0.2764    0.6325 C   0  0  1  0  0  0  0  0  0  0  0  0
   -1.5903   -0.7033   -0.6330 C   0  0  2  0  0  0  0  0  0  0  0  0
    3.7326    1.8028    0.8229 O   0  0  0  0  0  0  0  0  0  0  0  0
   -2.6384    1.3880    0.9697 C   0  0  0  0  0  0  0  0  0  0  0  0
    1.4535    0.8763    0.8295 C   0  0  0  0  0  0  0  0  0  0  0  0
    2.4794   -0.8321   -1.1734 C   0  0  0  0  0  0  0  0  0  0  0  0
    2.7579    0.9491    0.4158 C   0  0  0  0  0  0  0  0  0  0  0  0
    3.2627    0.1126   -0.5651 C   0  0  0  0  0  0  0  0  0  0  0  0
   -3.9187    2.8660   -1.2180 C   0  0  0  0  0  0  0  0  0  0  0  0
    4.9363    1.3222    0.2404 C   0  0  0  0  0  0  0  0  0  0  0  0
   -3.0944   -0.6249   -0.4393 C   0  0  0  0  0  0  0  0  0  0  0  0
   -0.8627   -1.5633    1.5073 C   0  0  2  0  0  0  0  0  0  0  0  0
   -1.0653   -2.6774    0.4430 C   0  0  0  0  0  0  0  0  0  0  0  0
    0.6276   -0.0826    0.2190 C   0  0  0  0  0  0  0  0  0  0  0  0
    0.2450   -1.9405   -1.4514 C   0  0  0  0  0  0  0  0  0  0  0  0
   -1.4472    0.9038    1.3063 C   0  0  0  0  0  0  0  0  0  0  0  0
    1.1405   -0.9291   -0.7641 C   0  0  0  0  0  0  0  0  0  0  0  0
   -3.5032    0.8048   -0.1200 C   0  0  2  0  0  0  0  0  0  0  0  0
   -1.0856   -2.0490   -0.8769 N   0  0  0  0  0  0  0  0  0  0  0  0
   -3.4238    1.5552   -1.3217 O   0  0  0  0  0  0  0  0  0  0  0  0
    4.5653    0.4189   -0.7919 O   0  0  0  0  0  0  0  0  0  0  0  0
   -1.9061   -1.4933    2.4482 O   0  0  0  0  0  0  0  0  0  0  0  0
   -1.3242   -0.0612   -1.4784 H   0  0  0  0  0  0  0  0  0  0  0  0
   -3.0277    2.2425    1.5134 H   0  0  0  0  0  0  0  0  0  0  0  0
    1.0829    1.5409    1.5971 H   0  0  0  0  0  0  0  0  0  0  0  0
    2.8741   -1.4825   -1.9450 H   0  0  0  0  0  0  0  0  0  0  0  0
   -3.9352    3.2948   -2.2198 H   0  0  0  0  0  0  0  0  0  0  0  0
   -4.9402    2.8872   -0.8187 H   0  0  0  0  0  0  0  0  0  0  0  0
   -3.2963    3.5077   -0.5850 H   0  0  0  0  0  0  0  0  0  0  0  0
    5.5008    2.1534   -0.1811 H   0  0  0  0  0  0  0  0  0  0  0  0
    5.5319    0.7982    0.9966 H   0  0  0  0  0  0  0  0  0  0  0  0
   -3.6107   -0.9683   -1.3390 H   0  0  0  0  0  0  0  0  0  0  0  0
   -3.4202   -1.2665    0.3811 H   0  0  0  0  0  0  0  0  0  0  0  0
    0.0956   -1.6869    2.0244 H   0  0  0  0  0  0  0  0  0  0  0  0
   -0.2935   -3.4470    0.4852 H   0  0  0  0  0  0  0  0  0  0  0  0
   -2.0220   -3.1720    0.6324 H   0  0  0  0  0  0  0  0  0  0  0  0
    0.1448   -1.6604   -2.5054 H   0  0  0  0  0  0  0  0  0  0  0  0
    0.7164   -2.9267   -1.4461 H   0  0  0  0  0  0  0  0  0  0  0  0
   -0.9134    1.3608    2.1326 H   0  0  0  0  0  0  0  0  0  0  0  0
   -4.5460    0.8100    0.2319 H   0  0  0  0  0  0  0  0  0  0  0  0
   -1.8792   -2.2960    2.9791 H   0  0  0  0  0  0  0  0  0  0  0  0
 10  3  1  0
 10 21  1  0
  3  7  1  0
 21  8  1  0
  7  8  2  0
  7  5  1  0
  8  6  1  0
  5 14  2  0
  6 17  2  0
 14 17  1  0
 14  1  1  0
 17 15  1  0
  1 16  1  1
 16  4  2  0
  1 12  1  0
  1  2  1  0
  4 18  1  0
 12 22  1  0
 12 13  1  0
 15 19  1  0
 20  9  1  0
 20 18  1  0
  2 19  1  0
  2 11  1  0
 18 11  1  0
 19 13  1  0
  2 23  1  6
  4 24  1  0
  5 25  1  0
  6 26  1  0
  9 27  1  0
  9 28  1  0
  9 29  1  0
 10 30  1  0
 10 31  1  0
 11 32  1  0
 11 33  1  0
 12 34  1  1
 13 35  1  0
 13 36  1  0
 15 37  1  0
 15 38  1  0
 16 39  1  0
 18 40  1  1
 22 41  1  0
M  END
