
     RDKit          3D

 42 43  0  0  0  0  0  0  0  0999 V2000
    1.3897    4.5105    0.7256 C   0  0  0  0  0  0  0  0  0  0  0  0
    0.5572   -2.0389    0.2093 C   0  0  0  0  0  0  0  0  0  0  0  0
   -2.9268    0.1825    0.0314 C   0  0  0  0  0  0  0  0  0  0  0  0
   -3.5642    0.4971   -1.1630 C   0  0  0  0  0  0  0  0  0  0  0  0
   -3.5756    1.8164   -1.5868 C   0  0  0  0  0  0  0  0  0  0  0  0
   -2.3392    2.4740    0.3745 C   0  0  0  0  0  0  0  0  0  0  0  0
    5.4754   -1.2960   -0.3932 C   0  0  0  0  0  0  0  0  0  0  0  0
    4.1063   -0.7436   -0.1370 C   0  0  0  0  0  0  0  0  0  0  0  0
    2.9997   -1.5837   -0.0831 C   0  0  0  0  0  0  0  0  0  0  0  0
    1.7205   -1.1082    0.1241 C   0  0  0  0  0  0  0  0  0  0  0  0
    1.5257    0.2652    0.2917 C   0  0  0  0  0  0  0  0  0  0  0  0
    2.6098    1.1295    0.2536 C   0  0  0  0  0  0  0  0  0  0  0  0
    1.2314    3.0347    0.5844 C   0  0  0  0  0  0  0  0  0  0  0  0
    0.7969    5.3840   -0.0777 C   0  0  0  0  0  0  0  0  0  0  0  0
    3.8896    0.6128    0.0397 C   0  0  0  0  0  0  0  0  0  0  0  0
   -2.9641    2.8017   -0.8208 C   0  0  0  0  0  0  0  0  0  0  0  0
   -2.3130    1.1565    0.8087 C   0  0  0  0  0  0  0  0  0  0  0  0
   -0.5245   -1.5771   -0.4808 N   0  0  0  0  0  0  0  0  0  0  0  0
   -1.7183   -2.2346   -0.4332 N   0  0  0  0  0  0  0  0  0  0  0  0
    2.5203    2.4637    0.4077 O   0  0  0  0  0  0  0  0  0  0  0  0
    0.5646   -3.0712    0.8377 O   0  0  0  0  0  0  0  0  0  0  0  0
   -2.3455   -1.5409    1.9007 O   0  0  0  0  0  0  0  0  0  0  0  0
   -4.1139   -2.1782    0.2174 O   0  0  0  0  0  0  0  0  0  0  0  0
   -2.8711   -1.5087    0.5507 S   0  0  1  0  0  0  0  0  0  0  0  0
    1.9953    4.8569    1.5570 H   0  0  0  0  0  0  0  0  0  0  0  0
   -4.0488   -0.2658   -1.7583 H   0  0  0  0  0  0  0  0  0  0  0  0
   -4.0670    2.0759   -2.5144 H   0  0  0  0  0  0  0  0  0  0  0  0
   -1.8775    3.2451    0.9773 H   0  0  0  0  0  0  0  0  0  0  0  0
    5.5341   -1.7678   -1.3749 H   0  0  0  0  0  0  0  0  0  0  0  0
    6.2210   -0.5047   -0.3579 H   0  0  0  0  0  0  0  0  0  0  0  0
    5.7504   -2.0494    0.3452 H   0  0  0  0  0  0  0  0  0  0  0  0
    0.5253    0.6308    0.4777 H   0  0  0  0  0  0  0  0  0  0  0  0
    0.7627    2.6256    1.4885 H   0  0  0  0  0  0  0  0  0  0  0  0
    0.5813    2.7993   -0.2665 H   0  0  0  0  0  0  0  0  0  0  0  0
    0.8990    6.4502    0.0739 H   0  0  0  0  0  0  0  0  0  0  0  0
    0.1879    5.0674   -0.9166 H   0  0  0  0  0  0  0  0  0  0  0  0
    4.7315    1.2938    0.0085 H   0  0  0  0  0  0  0  0  0  0  0  0
   -2.9812    3.8303   -1.1554 H   0  0  0  0  0  0  0  0  0  0  0  0
   -1.8337    0.8995    1.7435 H   0  0  0  0  0  0  0  0  0  0  0  0
   -0.4288   -0.7998   -1.1204 H   0  0  0  0  0  0  0  0  0  0  0  0
   -2.0707   -2.5248   -1.3403 H   0  0  0  0  0  0  0  0  0  0  0  0
    3.1921   -2.8967   -0.2763 F   0  0  0  0  0  0  0  0  0  0  0  0
 16  6  2  0
 16  5  1  0
  6 17  1  0
  5  4  2  0
 17  3  2  0
  4  3  1  0
  7  8  1  0
  3 24  1  0
 42  9  1  0
  8  9  2  0
  8 15  1  0
 22 24  2  0
  9 10  1  0
 24 23  2  0
 24 19  1  6
 15 12  2  0
 18 19  1  0
 18  2  1  0
 10  2  1  0
 10 11  2  0
  2 21  2  0
 12 11  1  0
 12 20  1  0
 13 20  1  0
 13  1  1  0
  1 14  2  0
  1 25  1  0
  4 26  1  0
  5 27  1  0
  6 28  1  0
  7 29  1  0
  7 30  1  0
  7 31  1  0
 11 32  1  0
 13 33  1  0
 13 34  1  0
 14 35  1  0
 14 36  1  0
 15 37  1  0
 16 38  1  0
 17 39  1  0
 18 40  1  0
 19 41  1  0
M  END
