
     RDKit          3D

 43 45  0  0  0  0  0  0  0  0999 V2000
    0.7247    0.8997    2.1818 C   0  0  0  0  0  0  0  0  0  0  0  0
    1.9110    1.5463    2.4880 C   0  0  0  0  0  0  0  0  0  0  0  0
    3.0065    1.3802    1.6587 C   0  0  0  0  0  0  0  0  0  0  0  0
    4.7960    1.5809   -0.7996 C   0  0  0  0  0  0  0  0  0  0  0  0
    6.4937    0.2195   -1.8269 C   0  0  0  0  0  0  0  0  0  0  0  0
    4.6924   -0.8066   -0.6034 C   0  0  0  0  0  0  0  0  0  0  0  0
    5.8562   -0.9190   -1.3500 C   0  0  0  0  0  0  0  0  0  0  0  0
    4.1458    0.4448   -0.3181 C   0  0  0  0  0  0  0  0  0  0  0  0
    2.9294    0.5806    0.5185 C   0  0  0  0  0  0  0  0  0  0  0  0
    5.9596    1.4701   -1.5487 C   0  0  0  0  0  0  0  0  0  0  0  0
    1.7240   -0.0590    0.1897 C   0  0  0  0  0  0  0  0  0  0  0  0
    0.6251    0.0986    1.0478 C   0  0  0  0  0  0  0  0  0  0  0  0
   -0.6790   -0.5461    0.7586 C   0  0  0  0  0  0  0  0  0  0  0  0
   -1.7861    0.2188    0.4242 C   0  0  0  0  0  0  0  0  0  0  0  0
   -0.8338   -1.9344    0.8484 C   0  0  0  0  0  0  0  0  0  0  0  0
   -2.0733   -2.5191    0.5807 C   0  0  0  0  0  0  0  0  0  0  0  0
   -3.1548   -1.7365    0.2349 C   0  0  0  0  0  0  0  0  0  0  0  0
   -3.0348   -0.3460    0.1517 C   0  0  0  0  0  0  0  0  0  0  0  0
   -4.1364    0.5308   -0.2059 C   0  0  0  0  0  0  0  0  0  0  0  0
   -5.3811    0.1634   -0.5404 C   0  0  0  0  0  0  0  0  0  0  0  0
   -6.3917    1.1716   -0.8775 C   0  0  0  0  0  0  0  0  0  0  0  0
   -6.2168    2.3700   -0.8920 O   0  0  0  0  0  0  0  0  0  0  0  0
   -7.5618    0.6098   -1.1760 O   0  0  0  0  0  0  0  0  0  0  0  0
   -0.1360    1.0115    2.8295 H   0  0  0  0  0  0  0  0  0  0  0  0
    1.9835    2.1675    3.3710 H   0  0  0  0  0  0  0  0  0  0  0  0
    3.9432    1.8673    1.9008 H   0  0  0  0  0  0  0  0  0  0  0  0
    4.3828    2.5608   -0.5944 H   0  0  0  0  0  0  0  0  0  0  0  0
    7.4014    0.1318   -2.4099 H   0  0  0  0  0  0  0  0  0  0  0  0
    4.2150   -1.7018   -0.2250 H   0  0  0  0  0  0  0  0  0  0  0  0
    6.2692   -1.8985   -1.5535 H   0  0  0  0  0  0  0  0  0  0  0  0
    1.8467   -1.9032   -0.9298 H   0  0  0  0  0  0  0  0  0  0  0  0
    0.5633   -0.8282   -1.4501 H   0  0  0  0  0  0  0  0  0  0  0  0
    2.2346   -0.4698   -1.8640 H   0  0  0  0  0  0  0  0  0  0  0  0
    6.4484    2.3637   -1.9152 H   0  0  0  0  0  0  0  0  0  0  0  0
   -1.6688    1.2947    0.3588 H   0  0  0  0  0  0  0  0  0  0  0  0
    0.0279   -3.5991    1.2014 H   0  0  0  0  0  0  0  0  0  0  0  0
   -2.1891   -3.5947    0.6515 H   0  0  0  0  0  0  0  0  0  0  0  0
   -4.1010   -2.2218    0.0322 H   0  0  0  0  0  0  0  0  0  0  0  0
   -3.9064    1.5923   -0.1956 H   0  0  0  0  0  0  0  0  0  0  0  0
   -5.6834   -0.8759   -0.5770 H   0  0  0  0  0  0  0  0  0  0  0  0
   -8.2095    1.2964   -1.3924 H   0  0  0  0  0  0  0  0  0  0  0  0
    1.5866   -0.8542   -1.0781 C   0  0  0  0  0  0  0  0  0  0  0  0
    0.2360   -2.6575    1.2044 O   0  0  0  0  0  0  0  0  0  0  0  0
  5  7  2  0
  5 10  1  0
  7  6  1  0
 10  4  2  0
  6  8  2  0
  4  8  1  0
  8  9  1  0
  9  3  2  0
  9 11  1  0
 42 11  1  0
  3  2  1  0
 11 12  2  0
  2  1  2  0
 12  1  1  0
 12 13  1  0
 22 21  2  0
 14 13  2  0
 14 18  1  0
 13 15  1  0
 21 20  1  0
 21 23  1  0
 20 19  2  0
 19 18  1  0
 18 17  2  0
 15 43  1  0
 15 16  2  0
 17 16  1  0
  1 24  1  0
  2 25  1  0
  3 26  1  0
  4 27  1  0
  5 28  1  0
  6 29  1  0
  7 30  1  0
 42 31  1  0
 42 32  1  0
 42 33  1  0
 10 34  1  0
 14 35  1  0
 43 36  1  0
 16 37  1  0
 17 38  1  0
 19 39  1  0
 20 40  1  0
 23 41  1  0
M  END
