
     RDKit          3D

 32 33  0  0  0  0  0  0  0  0999 V2000
   -5.1519   -1.0519   -1.0209 N   0  0  0  0  0  0  0  0  0  0  0  0
   -4.8776    0.2247   -0.0087 S   0  0  2  0  0  0  0  0  0  0  0  0
   -5.3372   -0.2085    1.3035 O   0  0  0  0  0  0  0  0  0  0  0  0
   -5.3833    1.4872   -0.5318 O   0  0  0  0  0  0  0  0  0  0  0  0
   -3.1155    0.3000   -0.0235 C   0  0  0  0  0  0  0  0  0  0  0  0
   -2.4644    1.3398   -0.6709 C   0  0  0  0  0  0  0  0  0  0  0  0
   -1.0846    1.3866   -0.6553 C   0  0  0  0  0  0  0  0  0  0  0  0
   -0.3394    0.4045    0.0036 C   0  0  0  0  0  0  0  0  0  0  0  0
   -1.0078   -0.6380    0.6547 C   0  0  0  0  0  0  0  0  0  0  0  0
   -2.3897   -0.6816    0.6369 C   0  0  0  0  0  0  0  0  0  0  0  0
    1.0443    0.5437   -0.0411 N   0  0  0  0  0  0  0  0  0  0  0  0
    2.0067   -0.2315    0.5257 C   0  0  0  0  0  0  0  0  0  0  0  0
    1.7801   -1.2485    1.1551 O   0  0  0  0  0  0  0  0  0  0  0  0
    3.3925    0.2865    0.3187 C   0  0  0  0  0  0  0  0  0  0  0  0
    3.6540    1.6290    0.5901 C   0  0  0  0  0  0  0  0  0  0  0  0
    4.9252    2.1590    0.4410 C   0  0  0  0  0  0  0  0  0  0  0  0
    5.9564    1.3381    0.0115 C   0  0  0  0  0  0  0  0  0  0  0  0
    5.7166   -0.0033   -0.2435 C   0  0  0  0  0  0  0  0  0  0  0  0
    4.4446   -0.5481   -0.0841 C   0  0  0  0  0  0  0  0  0  0  0  0
    4.2755   -2.2451   -0.5577 S   0  0  0  0  0  0  0  0  0  0  0  0
   -4.9698   -0.8281   -1.9940 H   0  0  0  0  0  0  0  0  0  0  0  0
   -6.0944   -1.4163   -0.9152 H   0  0  0  0  0  0  0  0  0  0  0  0
   -3.0161    2.1156   -1.1829 H   0  0  0  0  0  0  0  0  0  0  0  0
   -0.5785    2.2022   -1.1564 H   0  0  0  0  0  0  0  0  0  0  0  0
   -0.4679   -1.4141    1.1691 H   0  0  0  0  0  0  0  0  0  0  0  0
   -2.8917   -1.4956    1.1428 H   0  0  0  0  0  0  0  0  0  0  0  0
    1.3717    1.3222   -0.5945 H   0  0  0  0  0  0  0  0  0  0  0  0
    2.8529    2.2704    0.9370 H   0  0  0  0  0  0  0  0  0  0  0  0
    5.1056    3.2022    0.6609 H   0  0  0  0  0  0  0  0  0  0  0  0
    6.9557    1.7331   -0.1145 H   0  0  0  0  0  0  0  0  0  0  0  0
    6.5329   -0.6401   -0.5604 H   0  0  0  0  0  0  0  0  0  0  0  0
    3.3475   -2.6177    0.3266 H   0  0  0  0  0  0  0  0  0  0  0  0
  2  1  1  6
  1 21  1  0
  1 22  1  0
  2  3  2  0
  2  4  2  0
  2  5  1  0
  5  6  2  0
  5 10  1  0
  6  7  1  0
  6 23  1  0
  7  8  2  0
  7 24  1  0
  8  9  1  0
  8 11  1  0
  9 10  2  0
  9 25  1  0
 10 26  1  0
 11 12  1  0
 11 27  1  0
 12 13  2  0
 12 14  1  0
 14 15  2  0
 14 19  1  0
 15 16  1  0
 15 28  1  0
 16 17  2  0
 16 29  1  0
 17 18  1  0
 17 30  1  0
 18 19  2  0
 18 31  1  0
 19 20  1  0
 20 32  1  0
M  END
