
     RDKit          3D

 52 54  0  0  0  0  0  0  0  0999 V2000
   -0.3519    0.6782   -1.5056 C   0  0  0  0  0  0  0  0  0  0  0  0
    0.9134    1.1365   -1.0998 C   0  0  0  0  0  0  0  0  0  0  0  0
    1.1722    1.4220    0.2324 C   0  0  0  0  0  0  0  0  0  0  0  0
    0.1511    1.2491    1.1535 C   0  0  0  0  0  0  0  0  0  0  0  0
   -1.1213    0.7873    0.7633 C   0  0  0  0  0  0  0  0  0  0  0  0
   -1.3712    0.5033   -0.5794 C   0  0  0  0  0  0  0  0  0  0  0  0
    0.1274    1.4503    2.5124 N   0  0  0  0  0  0  0  0  0  0  0  0
   -1.1130    1.0923    2.9912 C   0  0  0  0  0  0  0  0  0  0  0  0
   -1.9112    0.6980    1.9517 C   0  0  0  0  0  0  0  0  0  0  0  0
    1.2963    1.6928    3.3125 C   0  0  0  0  0  0  0  0  0  0  0  0
    2.0945    0.4454    3.6206 C   0  0  0  0  0  0  0  0  0  0  0  0
    1.5722   -0.8324    3.4481 C   0  0  0  0  0  0  0  0  0  0  0  0
    2.3326   -1.9506    3.7725 C   0  0  0  0  0  0  0  0  0  0  0  0
    3.6188   -1.8064    4.2721 C   0  0  0  0  0  0  0  0  0  0  0  0
    4.1452   -0.5321    4.4463 C   0  0  0  0  0  0  0  0  0  0  0  0
    3.3877    0.5829    4.1202 C   0  0  0  0  0  0  0  0  0  0  0  0
   -1.4190    1.1388    4.4441 C   0  0  0  0  0  0  0  0  0  0  0  0
   -3.2946    0.1620    2.0375 C   0  0  0  0  0  0  0  0  0  0  0  0
   -3.3138   -1.3554    2.1744 C   0  0  0  0  0  0  0  0  0  0  0  0
   -4.3883   -1.9543    1.6382 N   0  0  0  0  0  0  0  0  0  0  0  0
   -2.4282   -1.9640    2.7533 O   0  0  0  0  0  0  0  0  0  0  0  0
   -0.6578    0.3765   -2.7929 O   0  0  0  0  0  0  0  0  0  0  0  0
    0.3589    0.4451   -3.7728 C   0  0  0  0  0  0  0  0  0  0  0  0
   -0.2193   -0.0383   -5.0870 C   0  0  0  0  0  0  0  0  0  0  0  0
    0.8424   -0.0003   -6.1741 C   0  0  0  0  0  0  0  0  0  0  0  0
    0.3481   -0.4886   -7.5073 C   0  0  0  0  0  0  0  0  0  0  0  0
    1.3147   -0.4869   -8.4201 O   0  0  0  0  0  0  0  0  0  0  0  0
   -0.7802   -0.8404   -7.7441 O   0  0  0  0  0  0  0  0  0  0  0  0
    1.7123    1.2706   -1.8154 H   0  0  0  0  0  0  0  0  0  0  0  0
    2.1560    1.7637    0.5284 H   0  0  0  0  0  0  0  0  0  0  0  0
   -2.3396    0.1417   -0.9065 H   0  0  0  0  0  0  0  0  0  0  0  0
    1.9283    2.4215    2.8007 H   0  0  0  0  0  0  0  0  0  0  0  0
    0.9895    2.1739    4.2432 H   0  0  0  0  0  0  0  0  0  0  0  0
    0.5687   -0.9757    3.0630 H   0  0  0  0  0  0  0  0  0  0  0  0
    1.9144   -2.9389    3.6312 H   0  0  0  0  0  0  0  0  0  0  0  0
    4.2077   -2.6795    4.5214 H   0  0  0  0  0  0  0  0  0  0  0  0
    5.1481   -0.4056    4.8335 H   0  0  0  0  0  0  0  0  0  0  0  0
    3.8074    1.5732    4.2565 H   0  0  0  0  0  0  0  0  0  0  0  0
   -1.2464    2.1307    4.8651 H   0  0  0  0  0  0  0  0  0  0  0  0
   -2.4595    0.8780    4.6211 H   0  0  0  0  0  0  0  0  0  0  0  0
   -0.8053    0.4328    5.0082 H   0  0  0  0  0  0  0  0  0  0  0  0
   -3.8130    0.5611    2.9153 H   0  0  0  0  0  0  0  0  0  0  0  0
   -3.8921    0.4759    1.1777 H   0  0  0  0  0  0  0  0  0  0  0  0
   -4.5284   -2.9461    1.7417 H   0  0  0  0  0  0  0  0  0  0  0  0
   -5.1114   -1.4319    1.1752 H   0  0  0  0  0  0  0  0  0  0  0  0
    0.7281    1.4732   -3.8755 H   0  0  0  0  0  0  0  0  0  0  0  0
    1.2135   -0.1803   -3.4863 H   0  0  0  0  0  0  0  0  0  0  0  0
   -0.5930   -1.0573   -4.9652 H   0  0  0  0  0  0  0  0  0  0  0  0
   -1.0680    0.5884   -5.3691 H   0  0  0  0  0  0  0  0  0  0  0  0
    1.2251    1.0166   -6.3091 H   0  0  0  0  0  0  0  0  0  0  0  0
    1.7107   -0.6027   -5.8894 H   0  0  0  0  0  0  0  0  0  0  0  0
    0.9712   -0.8053   -9.2683 H   0  0  0  0  0  0  0  0  0  0  0  0
  1  2  2  0
  1  6  1  0
  1 22  1  0
  2  3  1  0
  2 29  1  0
  3  4  2  0
  3 30  1  0
  4  5  1  0
  4  7  1  0
  5  6  2  0
  5  9  1  0
  6 31  1  0
  7  8  1  0
  7 10  1  0
  8  9  2  0
  8 17  1  0
  9 18  1  0
 10 11  1  0
 10 32  1  0
 10 33  1  0
 11 12  2  0
 11 16  1  0
 12 13  1  0
 12 34  1  0
 13 14  2  0
 13 35  1  0
 14 15  1  0
 14 36  1  0
 15 16  2  0
 15 37  1  0
 16 38  1  0
 17 39  1  0
 17 40  1  0
 17 41  1  0
 18 19  1  0
 18 42  1  0
 18 43  1  0
 19 20  1  0
 19 21  2  0
 20 44  1  0
 20 45  1  0
 22 23  1  0
 23 24  1  0
 23 46  1  0
 23 47  1  0
 24 25  1  0
 24 48  1  0
 24 49  1  0
 25 26  1  0
 25 50  1  0
 25 51  1  0
 26 27  1  0
 26 28  2  0
 27 52  1  0
M  END
