
     RDKit          3D

 51 53  0  0  0  0  0  0  0  0999 V2000
    5.7064   -0.2215   -0.7300 N   0  0  0  0  0  0  0  0  0  0  0  0
    6.2479    0.4468    0.2998 C   0  0  0  0  0  0  0  0  0  0  0  0
    5.4952    1.0385    1.2092 N   0  0  0  0  0  0  0  0  0  0  0  0
    4.1751    0.9363    1.1499 C   0  0  0  0  0  0  0  0  0  0  0  0
    4.3559   -0.4648   -0.7967 C   0  0  0  0  0  0  0  0  0  0  0  0
    3.5101    0.0489    0.1996 C   0  0  0  0  0  0  0  0  0  0  0  0
    2.1375   -0.3022    0.1919 C   0  0  0  0  0  0  0  0  0  0  0  0
    1.6469   -1.0558   -0.8739 C   0  0  0  0  0  0  0  0  0  0  0  0
    2.5098   -1.4887   -1.8831 C   0  0  0  0  0  0  0  0  0  0  0  0
    3.8569   -1.2264   -1.8463 C   0  0  0  0  0  0  0  0  0  0  0  0
    0.1885   -1.4171   -0.9787 C   0  0  0  0  0  0  0  0  0  0  0  0
   -0.6201   -0.2376   -1.1744 N   0  0  0  0  0  0  0  0  0  0  0  0
   -1.9098   -0.1194   -0.7319 C   0  0  0  0  0  0  0  0  0  0  0  0
   -2.4951    1.1531   -0.6737 C   0  0  0  0  0  0  0  0  0  0  0  0
   -3.8041    1.2948   -0.2332 C   0  0  0  0  0  0  0  0  0  0  0  0
   -4.5543    0.1789    0.1541 C   0  0  0  0  0  0  0  0  0  0  0  0
   -3.9632   -1.0826    0.0983 C   0  0  0  0  0  0  0  0  0  0  0  0
   -2.6534   -1.2418   -0.3527 C   0  0  0  0  0  0  0  0  0  0  0  0
    1.2091    0.0600    1.3185 C   0  0  0  0  0  0  0  0  0  0  0  0
   -4.4401    2.4763   -0.1394 O   0  0  0  0  0  0  0  0  0  0  0  0
   -5.8452    0.3247    0.5717 O   0  0  0  0  0  0  0  0  0  0  0  0
   -4.7445   -2.1043    0.4930 O   0  0  0  0  0  0  0  0  0  0  0  0
   -3.7448    3.6499   -0.5078 C   0  0  0  0  0  0  0  0  0  0  0  0
   -5.9801    0.5244    1.9704 C   0  0  0  0  0  0  0  0  0  0  0  0
   -4.2111   -3.4125    0.4857 C   0  0  0  0  0  0  0  0  0  0  0  0
    7.5638    0.5364    0.3915 N   0  0  0  0  0  0  0  0  0  0  0  0
    3.5131    1.7109    1.9898 N   0  0  0  0  0  0  0  0  0  0  0  0
    6.3010   -0.6184   -1.4448 H   0  0  0  0  0  0  0  0  0  0  0  0
    2.1089   -2.0645   -2.7076 H   0  0  0  0  0  0  0  0  0  0  0  0
    4.5196   -1.6024   -2.6145 H   0  0  0  0  0  0  0  0  0  0  0  0
   -0.1276   -1.9400   -0.0696 H   0  0  0  0  0  0  0  0  0  0  0  0
    0.0557   -2.1338   -1.7956 H   0  0  0  0  0  0  0  0  0  0  0  0
   -0.1306    0.6194   -1.3700 H   0  0  0  0  0  0  0  0  0  0  0  0
   -1.9092    2.0145   -0.9669 H   0  0  0  0  0  0  0  0  0  0  0  0
   -2.2215   -2.2285   -0.4350 H   0  0  0  0  0  0  0  0  0  0  0  0
    0.8027    1.0691    1.2139 H   0  0  0  0  0  0  0  0  0  0  0  0
    0.3519   -0.6067    1.3524 H   0  0  0  0  0  0  0  0  0  0  0  0
    1.6950   -0.0233    2.2887 H   0  0  0  0  0  0  0  0  0  0  0  0
   -2.8611    3.8153    0.1141 H   0  0  0  0  0  0  0  0  0  0  0  0
   -3.4374    3.6317   -1.5566 H   0  0  0  0  0  0  0  0  0  0  0  0
   -4.4355    4.4764   -0.3601 H   0  0  0  0  0  0  0  0  0  0  0  0
   -5.6113   -0.3321    2.5408 H   0  0  0  0  0  0  0  0  0  0  0  0
   -5.4509    1.4200    2.3062 H   0  0  0  0  0  0  0  0  0  0  0  0
   -7.0417    0.6497    2.1803 H   0  0  0  0  0  0  0  0  0  0  0  0
   -4.9928   -4.0647    0.8676 H   0  0  0  0  0  0  0  0  0  0  0  0
   -3.9424   -3.7426   -0.5212 H   0  0  0  0  0  0  0  0  0  0  0  0
   -3.3334   -3.5013    1.1312 H   0  0  0  0  0  0  0  0  0  0  0  0
    8.1840    0.1290   -0.2881 H   0  0  0  0  0  0  0  0  0  0  0  0
    7.9673    1.0796    1.1360 H   0  0  0  0  0  0  0  0  0  0  0  0
    2.5176    1.8317    1.9706 H   0  0  0  0  0  0  0  0  0  0  0  0
    4.0396    2.3335    2.5831 H   0  0  0  0  0  0  0  0  0  0  0  0
  1  2  2  0
  1  5  1  0
  1 28  1  0
  2  3  1  0
  2 26  1  0
  3  4  2  0
  4  6  1  0
  4 27  1  0
  5  6  2  0
  5 10  1  0
  6  7  1  0
  7  8  2  0
  7 19  1  0
  8  9  1  0
  8 11  1  0
  9 10  2  0
  9 29  1  0
 10 30  1  0
 11 12  1  0
 11 31  1  0
 11 32  1  0
 12 13  1  0
 12 33  1  0
 13 14  2  0
 13 18  1  0
 14 15  1  0
 14 34  1  0
 15 16  2  0
 15 20  1  0
 16 17  1  0
 16 21  1  0
 17 18  2  0
 17 22  1  0
 18 35  1  0
 19 36  1  0
 19 37  1  0
 19 38  1  0
 20 23  1  0
 21 24  1  0
 22 25  1  0
 23 39  1  0
 23 40  1  0
 23 41  1  0
 24 42  1  0
 24 43  1  0
 24 44  1  0
 25 45  1  0
 25 46  1  0
 25 47  1  0
 26 48  1  0
 26 49  1  0
 27 50  1  0
 27 51  1  0
M  CHG  1   1   1
M  END
