
     RDKit          3D

 25 24  0  0  0  0  0  0  0  0999 V2000
   -2.8604   -0.7620    0.1995 C   0  0  0  0  0  0  0  0  0  0  0  0
   -1.9329    1.4843    0.3715 N   0  0  0  0  0  0  0  0  0  0  0  0
   -4.0622   -0.2549   -0.3314 O   0  0  0  0  0  0  0  0  0  0  0  0
   -1.7011    0.1503   -0.1668 C   0  0  1  0  0  0  0  0  0  0  0  0
   -0.3817   -0.4936    0.2733 C   0  0  0  0  0  0  0  0  0  0  0  0
    2.1554   -0.4241    0.2033 C   0  0  0  0  0  0  0  0  0  0  0  0
    3.3879    0.2628   -0.3636 C   0  0  0  0  0  0  0  0  0  0  0  0
    0.8551    0.2330   -0.2404 C   0  0  0  0  0  0  0  0  0  0  0  0
    4.6068   -0.4011    0.0776 N   0  0  0  0  0  0  0  0  0  0  0  0
   -2.9096   -0.8504    1.2956 H   0  0  0  0  0  0  0  0  0  0  0  0
   -2.6462   -1.7674   -0.1855 H   0  0  0  0  0  0  0  0  0  0  0  0
   -1.8803    1.4481    1.3843 H   0  0  0  0  0  0  0  0  0  0  0  0
   -1.1874    2.1056    0.0834 H   0  0  0  0  0  0  0  0  0  0  0  0
   -4.7639   -0.8765   -0.1195 H   0  0  0  0  0  0  0  0  0  0  0  0
   -1.6813    0.2398   -1.2600 H   0  0  0  0  0  0  0  0  0  0  0  0
   -0.3530   -0.5424    1.3684 H   0  0  0  0  0  0  0  0  0  0  0  0
   -0.3474   -1.5305   -0.0783 H   0  0  0  0  0  0  0  0  0  0  0  0
    2.1627   -1.4757   -0.0998 H   0  0  0  0  0  0  0  0  0  0  0  0
    2.2089   -0.4195    1.2980 H   0  0  0  0  0  0  0  0  0  0  0  0
    3.3508    0.2148   -1.4559 H   0  0  0  0  0  0  0  0  0  0  0  0
    3.3516    1.3313   -0.1041 H   0  0  0  0  0  0  0  0  0  0  0  0
    0.8191    0.2659   -1.3351 H   0  0  0  0  0  0  0  0  0  0  0  0
    0.8466    1.2755    0.0945 H   0  0  0  0  0  0  0  0  0  0  0  0
    5.4082    0.0429   -0.3518 H   0  0  0  0  0  0  0  0  0  0  0  0
    4.7201   -0.2605    1.0742 H   0  0  0  0  0  0  0  0  0  0  0  0
  4  1  1  0
  1  3  1  0
  1 10  1  0
  1 11  1  0
  2  4  1  0
  2 12  1  0
  2 13  1  0
  3 14  1  0
  4  5  1  0
  4 15  1  6
  8  5  1  0
  5 16  1  0
  5 17  1  0
  7  6  1  0
  8  6  1  0
  6 18  1  0
  6 19  1  0
  7  9  1  0
  7 20  1  0
  7 21  1  0
  8 22  1  0
  8 23  1  0
  9 24  1  0
  9 25  1  0
M  END
