
     RDKit          3D

 51 54  0  0  0  0  0  0  0  0999 V2000
   -1.8791   -1.5638    1.2762 S   0  0  0  0  0  0  0  0  0  0  0  0
   -2.1495   -0.5743   -0.1005 C   0  0  0  0  0  0  0  0  0  0  0  0
   -1.0086   -0.4566   -0.8511 C   0  0  0  0  0  0  0  0  0  0  0  0
    0.0947   -1.1685   -0.3233 C   0  0  0  0  0  0  0  0  0  0  0  0
   -0.2332   -1.8235    0.8389 C   0  0  0  0  0  0  0  0  0  0  0  0
   -3.4560    0.0285   -0.3576 C   0  0  0  0  0  0  0  0  0  0  0  0
    0.6476   -2.6157    1.6961 C   0  0  0  0  0  0  0  0  0  0  0  0
    1.4103   -1.2147   -0.9972 C   0  0  0  0  0  0  0  0  0  0  0  0
    1.8310   -2.7638    1.5173 O   0  0  0  0  0  0  0  0  0  0  0  0
   -0.0230   -3.1519    2.7126 O   0  0  0  0  0  0  0  0  0  0  0  0
    2.2863   -0.1272   -0.9491 C   0  0  0  0  0  0  0  0  0  0  0  0
    3.8288   -1.3628   -2.3596 C   0  0  0  0  0  0  0  0  0  0  0  0
    2.9484   -2.4367   -2.4034 C   0  0  0  0  0  0  0  0  0  0  0  0
    3.4956   -0.2275   -1.6392 C   0  0  0  0  0  0  0  0  0  0  0  0
    1.7473   -2.3577   -1.7204 C   0  0  0  0  0  0  0  0  0  0  0  0
   -4.6370   -0.5926    0.0546 C   0  0  0  0  0  0  0  0  0  0  0  0
   -5.9376    1.2022   -0.8820 C   0  0  0  0  0  0  0  0  0  0  0  0
   -4.7681    1.8267   -1.2973 C   0  0  0  0  0  0  0  0  0  0  0  0
   -5.8670   -0.0078   -0.2043 C   0  0  0  0  0  0  0  0  0  0  0  0
   -3.5370    1.2478   -1.0344 C   0  0  0  0  0  0  0  0  0  0  0  0
    1.9709    1.1230   -0.1644 C   0  0  1  0  0  0  0  0  0  0  0  0
    2.9500    1.3236    0.9979 C   0  0  0  0  0  0  0  0  0  0  0  0
    2.6242    2.5863    1.7874 C   0  0  0  0  0  0  0  0  0  0  0  0
    2.5908    3.8276    0.8976 C   0  0  1  0  0  0  0  0  0  0  0  0
    1.6130    3.6211   -0.2575 C   0  0  0  0  0  0  0  0  0  0  0  0
    1.9287    2.3650   -1.0608 C   0  0  0  0  0  0  0  0  0  0  0  0
    2.2536    5.0780    1.6978 C   0  0  0  0  0  0  0  0  0  0  0  0
   -0.9597    0.1035   -1.7751 H   0  0  0  0  0  0  0  0  0  0  0  0
    0.5748   -3.6632    3.2783 H   0  0  0  0  0  0  0  0  0  0  0  0
    4.7729   -1.4088   -2.8875 H   0  0  0  0  0  0  0  0  0  0  0  0
    3.1961   -3.3275   -2.9659 H   0  0  0  0  0  0  0  0  0  0  0  0
    4.1936    0.6006   -1.6101 H   0  0  0  0  0  0  0  0  0  0  0  0
    1.0533   -3.1887   -1.7507 H   0  0  0  0  0  0  0  0  0  0  0  0
   -4.6025   -1.5484    0.5638 H   0  0  0  0  0  0  0  0  0  0  0  0
   -6.8983    1.6570   -1.0835 H   0  0  0  0  0  0  0  0  0  0  0  0
   -4.8136    2.7726   -1.8210 H   0  0  0  0  0  0  0  0  0  0  0  0
   -6.7731   -0.5046    0.1163 H   0  0  0  0  0  0  0  0  0  0  0  0
   -2.6314    1.7561   -1.3406 H   0  0  0  0  0  0  0  0  0  0  0  0
    0.9748    1.0157    0.2786 H   0  0  0  0  0  0  0  0  0  0  0  0
    2.9197    0.4479    1.6514 H   0  0  0  0  0  0  0  0  0  0  0  0
    3.9734    1.3904    0.6127 H   0  0  0  0  0  0  0  0  0  0  0  0
    1.6506    2.4711    2.2795 H   0  0  0  0  0  0  0  0  0  0  0  0
    3.3593    2.7212    2.5858 H   0  0  0  0  0  0  0  0  0  0  0  0
    3.5931    3.9549    0.4666 H   0  0  0  0  0  0  0  0  0  0  0  0
    0.5943    3.5510    0.1437 H   0  0  0  0  0  0  0  0  0  0  0  0
    1.6247    4.4944   -0.9155 H   0  0  0  0  0  0  0  0  0  0  0  0
    2.8918    2.4886   -1.5673 H   0  0  0  0  0  0  0  0  0  0  0  0
    1.1806    2.2242   -1.8459 H   0  0  0  0  0  0  0  0  0  0  0  0
    2.9679    5.2373    2.5078 H   0  0  0  0  0  0  0  0  0  0  0  0
    2.2614    5.9701    1.0683 H   0  0  0  0  0  0  0  0  0  0  0  0
    1.2592    4.9992    2.1443 H   0  0  0  0  0  0  0  0  0  0  0  0
  1  2  1  0
  1  5  1  0
  6  2  1  0
  2  3  2  0
  3  4  1  0
  3 28  1  0
  5  4  2  0
  4  8  1  0
  7  5  1  0
 20  6  1  0
  6 16  2  0
  9  7  2  0
  7 10  1  0
  8 11  2  0
  8 15  1  0
 10 29  1  0
 21 11  1  0
 11 14  1  0
 14 12  2  0
 13 12  1  0
 12 30  1  0
 15 13  2  0
 13 31  1  0
 14 32  1  0
 15 33  1  0
 19 16  1  0
 16 34  1  0
 18 17  1  0
 17 19  2  0
 17 35  1  0
 18 20  2  0
 18 36  1  0
 19 37  1  0
 20 38  1  0
 22 21  1  0
 21 26  1  0
 21 39  1  1
 23 22  1  0
 22 40  1  0
 22 41  1  0
 23 24  1  0
 23 42  1  0
 23 43  1  0
 27 24  1  0
 24 25  1  0
 24 44  1  6
 25 26  1  0
 25 45  1  0
 25 46  1  0
 26 47  1  0
 26 48  1  0
 27 49  1  0
 27 50  1  0
 27 51  1  0
M  END
