
     RDKit          3D

 34 34  0  0  0  0  0  0  0  0999 V2000
   -6.0866    0.4236    1.4505 C   0  0  0  0  0  0  0  0  0  0  0  0
   -5.8700   -0.4399    0.2442 C   0  0  0  0  0  0  0  0  0  0  0  0
   -6.8635   -1.5548    0.1034 C   0  0  0  0  0  0  0  0  0  0  0  0
   -4.8992   -0.2766   -0.6584 C   0  0  0  0  0  0  0  0  0  0  0  0
   -3.8647    0.7949   -0.6657 C   0  0  0  0  0  0  0  0  0  0  0  0
   -2.5860    0.1579   -0.4868 O   0  0  0  0  0  0  0  0  0  0  0  0
   -1.5043    0.9300   -0.4889 C   0  0  0  0  0  0  0  0  0  0  0  0
   -1.5433    2.1329   -0.6263 O   0  0  0  0  0  0  0  0  0  0  0  0
   -0.2864    0.1307   -0.3029 C   0  0  0  0  0  0  0  0  0  0  0  0
    0.9155    0.7198   -0.2457 C   0  0  0  0  0  0  0  0  0  0  0  0
    2.2013    0.0645   -0.0675 C   0  0  0  0  0  0  0  0  0  0  0  0
    3.3515    0.8618   -0.0268 C   0  0  0  0  0  0  0  0  0  0  0  0
    4.6055    0.3052    0.1375 C   0  0  0  0  0  0  0  0  0  0  0  0
    5.7529    1.0170    0.1858 O   0  0  0  0  0  0  0  0  0  0  0  0
    4.7373   -1.0847    0.2675 C   0  0  0  0  0  0  0  0  0  0  0  0
    5.9359   -1.6694    0.4287 O   0  0  0  0  0  0  0  0  0  0  0  0
    3.5988   -1.8805    0.2284 C   0  0  0  0  0  0  0  0  0  0  0  0
    2.3464   -1.3173    0.0635 C   0  0  0  0  0  0  0  0  0  0  0  0
   -6.0906   -0.1899    2.3544 H   0  0  0  0  0  0  0  0  0  0  0  0
   -5.3401    1.2041    1.5811 H   0  0  0  0  0  0  0  0  0  0  0  0
   -7.0664    0.9045    1.4003 H   0  0  0  0  0  0  0  0  0  0  0  0
   -7.8816   -1.1610    0.0546 H   0  0  0  0  0  0  0  0  0  0  0  0
   -6.6899   -2.1577   -0.7872 H   0  0  0  0  0  0  0  0  0  0  0  0
   -6.8274   -2.2130    0.9745 H   0  0  0  0  0  0  0  0  0  0  0  0
   -4.8501   -0.9735   -1.4904 H   0  0  0  0  0  0  0  0  0  0  0  0
   -3.8695    1.3250   -1.6218 H   0  0  0  0  0  0  0  0  0  0  0  0
   -4.0223    1.5328    0.1205 H   0  0  0  0  0  0  0  0  0  0  0  0
   -0.4058   -0.9421   -0.2138 H   0  0  0  0  0  0  0  0  0  0  0  0
    0.9565    1.8012   -0.3382 H   0  0  0  0  0  0  0  0  0  0  0  0
    3.2575    1.9384   -0.1241 H   0  0  0  0  0  0  0  0  0  0  0  0
    5.5807    1.9598    0.0848 H   0  0  0  0  0  0  0  0  0  0  0  0
    6.6412   -1.0110    0.4315 H   0  0  0  0  0  0  0  0  0  0  0  0
    3.7054   -2.9534    0.3271 H   0  0  0  0  0  0  0  0  0  0  0  0
    1.4842   -1.9695    0.0373 H   0  0  0  0  0  0  0  0  0  0  0  0
 16 15  1  0
 15 17  2  0
 15 13  1  0
 14 13  1  0
 17 18  1  0
 13 12  2  0
 18 11  2  0
 12 11  1  0
 11 10  1  0
 10  9  2  0
  9  7  1  0
  7  6  1  0
  7  8  2  0
  6  5  1  0
  5  4  1  0
  4  2  2  0
  2  3  1  0
  2  1  1  0
  1 19  1  0
  1 20  1  0
  1 21  1  0
  3 22  1  0
  3 23  1  0
  3 24  1  0
  4 25  1  0
  5 26  1  0
  5 27  1  0
  9 28  1  0
 10 29  1  0
 12 30  1  0
 14 31  1  0
 16 32  1  0
 17 33  1  0
 18 34  1  0
M  END
