
     RDKit          3D

 23 24  0  0  0  0  0  0  0  0999 V2000
    0.1808    1.2542    0.3080 C   0  0  0  0  0  0  0  0  0  0  0  0
    2.6220   -0.2289    0.5282 N   0  0  0  0  0  0  0  0  0  0  0  0
    1.6169   -1.5713   -1.3683 O   0  0  0  0  0  0  0  0  0  0  0  0
    1.3858   -1.1991    0.0163 S   0  0  2  0  0  0  0  0  0  0  0  0
   -3.9644   -0.5673   -0.0921 Cl  0  0  0  0  0  0  0  0  0  0  0  0
   -0.0031   -0.1226    0.0972 C   0  0  0  0  0  0  0  0  0  0  0  0
    1.4071    1.8185    0.4693 N   0  0  0  0  0  0  0  0  0  0  0  0
    1.2451   -2.2664    0.9932 O   0  0  0  0  0  0  0  0  0  0  0  0
   -1.2694   -0.6901   -0.0234 C   0  0  0  0  0  0  0  0  0  0  0  0
   -2.3804    0.1170    0.0584 C   0  0  0  0  0  0  0  0  0  0  0  0
   -0.9821    2.0417    0.3910 C   0  0  0  0  0  0  0  0  0  0  0  0
   -2.2347    1.4874    0.2693 C   0  0  0  0  0  0  0  0  0  0  0  0
    2.8743    1.2661   -1.4471 C   0  0  0  0  0  0  0  0  0  0  0  0
    2.6235    1.1491    0.0499 C   0  0  2  0  0  0  0  0  0  0  0  0
    2.7199   -0.2848    1.5380 H   0  0  0  0  0  0  0  0  0  0  0  0
    1.4432    2.8255    0.4944 H   0  0  0  0  0  0  0  0  0  0  0  0
   -1.3779   -1.7563   -0.1764 H   0  0  0  0  0  0  0  0  0  0  0  0
   -0.8854    3.1080    0.5515 H   0  0  0  0  0  0  0  0  0  0  0  0
   -3.1062    2.1247    0.3351 H   0  0  0  0  0  0  0  0  0  0  0  0
    2.0361    0.9146   -2.0455 H   0  0  0  0  0  0  0  0  0  0  0  0
    3.0400    2.3149   -1.6892 H   0  0  0  0  0  0  0  0  0  0  0  0
    3.7650    0.7074   -1.7315 H   0  0  0  0  0  0  0  0  0  0  0  0
    3.4482    1.6286    0.5749 H   0  0  0  0  0  0  0  0  0  0  0  0
  1  6  2  0
  1  7  1  0
  1 11  1  0
  4  2  1  1
  2 14  1  0
  3  4  2  0
  4  6  1  0
  4  8  2  0
  5 10  1  0
  6  9  1  0
  7 14  1  0
  9 10  2  0
 10 12  1  0
 11 12  2  0
 13 14  1  0
  2 15  1  0
  7 16  1  0
  9 17  1  0
 11 18  1  0
 12 19  1  0
 13 20  1  0
 13 21  1  0
 13 22  1  0
 14 23  1  1
M  END
