
     RDKit          3D

 47 49  0  0  0  0  0  0  0  0999 V2000
   -4.3034   -3.4393   -1.4204 C   0  0  0  0  0  0  0  0  0  0  0  0
   -5.1022   -2.6432   -2.2367 C   0  0  0  0  0  0  0  0  0  0  0  0
   -3.7729   -2.8642   -0.2817 C   0  0  0  0  0  0  0  0  0  0  0  0
   -5.3341   -1.3285   -1.8885 C   0  0  0  0  0  0  0  0  0  0  0  0
   -3.9889   -1.6000    0.0717 N   0  0  0  0  0  0  0  0  0  0  0  0
   -4.7477   -0.8572   -0.7109 C   0  0  0  0  0  0  0  0  0  0  0  0
   -4.9610    0.4596   -0.3272 N   0  0  0  0  0  0  0  0  0  0  0  0
   -4.2385    1.2103    0.9645 S   0  0  1  0  0  0  0  0  0  0  0  0
   -1.9513    1.9722   -0.2952 C   0  0  0  0  0  0  0  0  0  0  0  0
   -2.5046    1.1205    0.6521 C   0  0  0  0  0  0  0  0  0  0  0  0
   -0.5935    1.9023   -0.5467 C   0  0  0  0  0  0  0  0  0  0  0  0
   -1.7173    0.2124    1.3509 C   0  0  0  0  0  0  0  0  0  0  0  0
    0.2145    0.9966    0.1426 C   0  0  0  0  0  0  0  0  0  0  0  0
   -0.3614    0.1536    1.0986 C   0  0  0  0  0  0  0  0  0  0  0  0
   -4.6675    2.5936    0.8387 O   0  0  0  0  0  0  0  0  0  0  0  0
   -4.5326    0.4837    2.1830 O   0  0  0  0  0  0  0  0  0  0  0  0
    1.5724    1.0162   -0.2006 N   0  0  0  0  0  0  0  0  0  0  0  0
    2.2783    0.1989    0.4280 N   0  0  0  0  0  0  0  0  0  0  0  0
    3.6165    0.1510    0.1313 C   0  0  0  0  0  0  0  0  0  0  0  0
    4.2454    0.9239   -0.8602 C   0  0  0  0  0  0  0  0  0  0  0  0
    4.3799   -0.7695    0.8890 C   0  0  0  0  0  0  0  0  0  0  0  0
    5.5800    0.8039   -1.1332 C   0  0  0  0  0  0  0  0  0  0  0  0
    5.7599   -0.9084    0.6299 C   0  0  0  0  0  0  0  0  0  0  0  0
    6.3277   -0.1344   -0.3741 C   0  0  0  0  0  0  0  0  0  0  0  0
    3.8017   -1.4799    1.8895 N   0  0  0  0  0  0  0  0  0  0  0  0
    6.5449   -1.8826    1.4624 C   0  0  0  0  0  0  0  0  0  0  0  0
    7.6249   -0.2046   -0.7025 O   0  0  0  0  0  0  0  0  0  0  0  0
    6.2523    1.6217   -2.1956 C   0  0  0  0  0  0  0  0  0  0  0  0
   -4.0993   -4.4724   -1.6621 H   0  0  0  0  0  0  0  0  0  0  0  0
   -5.5408   -3.0459   -3.1399 H   0  0  0  0  0  0  0  0  0  0  0  0
   -3.1417   -3.4409    0.3845 H   0  0  0  0  0  0  0  0  0  0  0  0
   -5.9492   -0.6832   -2.5014 H   0  0  0  0  0  0  0  0  0  0  0  0
   -5.4263    1.0830   -0.9740 H   0  0  0  0  0  0  0  0  0  0  0  0
   -0.1412    2.5540   -1.2827 H   0  0  0  0  0  0  0  0  0  0  0  0
   -2.1588   -0.4487    2.0822 H   0  0  0  0  0  0  0  0  0  0  0  0
    0.2513   -0.5524    1.6405 H   0  0  0  0  0  0  0  0  0  0  0  0
    3.6431    1.6245   -1.4243 H   0  0  0  0  0  0  0  0  0  0  0  0
    2.7964   -1.4682    1.9326 H   0  0  0  0  0  0  0  0  0  0  0  0
    4.2276   -2.3395    2.1891 H   0  0  0  0  0  0  0  0  0  0  0  0
    6.2226   -2.9128    1.2910 H   0  0  0  0  0  0  0  0  0  0  0  0
    7.6181   -1.8691    1.2786 H   0  0  0  0  0  0  0  0  0  0  0  0
    6.4217   -1.6754    2.5272 H   0  0  0  0  0  0  0  0  0  0  0  0
    8.0899   -0.8790   -0.1956 H   0  0  0  0  0  0  0  0  0  0  0  0
    7.0360    2.2605   -1.7841 H   0  0  0  0  0  0  0  0  0  0  0  0
    6.7189    0.9978   -2.9600 H   0  0  0  0  0  0  0  0  0  0  0  0
    5.5291    2.2667   -2.6926 H   0  0  0  0  0  0  0  0  0  0  0  0
   -2.5617    2.6836   -0.8351 H   0  0  0  0  0  0  0  0  0  0  0  0
  1  2  2  0
  1  3  1  0
  2  4  1  0
  3  5  2  0
  4  6  2  0
  5  6  1  0
  6  7  1  0
  8  7  1  6
  8 10  1  0
  8 15  2  0
  8 16  2  0
  9 10  2  0
  9 11  1  0
 10 12  1  0
 11 13  2  0
 12 14  2  0
 13 14  1  0
 13 17  1  0
 17 18  2  0
 18 19  1  0
 19 20  2  0
 19 21  1  0
 20 22  1  0
 21 23  2  0
 21 25  1  0
 22 24  2  0
 22 28  1  0
 23 24  1  0
 23 26  1  0
 24 27  1  0
  1 29  1  0
  2 30  1  0
  3 31  1  0
  4 32  1  0
  7 33  1  0
  9 47  1  0
 11 34  1  0
 12 35  1  0
 14 36  1  0
 20 37  1  0
 25 38  1  0
 25 39  1  0
 26 40  1  0
 26 41  1  0
 26 42  1  0
 27 43  1  0
 28 44  1  0
 28 45  1  0
 28 46  1  0
M  END
