
     RDKit          3D

 27 27  0  0  0  0  0  0  0  0999 V2000
   -3.2768    0.4322   -0.0717 N   0  0  0  0  0  0  0  0  0  0  0  0
   -2.8133   -0.8399    0.4575 C   0  0  0  0  0  0  0  0  0  0  0  0
   -1.4658   -1.2745   -0.1033 C   0  0  0  0  0  0  0  0  0  0  0  0
   -0.4649   -0.2452    0.1159 N   0  0  0  0  0  0  0  0  0  0  0  0
   -0.8902    1.0053   -0.4895 C   0  0  0  0  0  0  0  0  0  0  0  0
   -2.2401    1.4415    0.0640 C   0  0  0  0  0  0  0  0  0  0  0  0
    0.8477   -0.6650   -0.3402 C   0  0  0  0  0  0  0  0  0  0  0  0
    1.9829    0.1598    0.2501 C   0  0  0  0  0  0  0  0  0  0  0  0
    3.3445   -0.3286   -0.2199 C   0  0  0  0  0  0  0  0  0  0  0  0
    4.4120    0.4671    0.3695 N   0  0  0  0  0  0  0  0  0  0  0  0
   -2.7322   -0.7490    1.5455 H   0  0  0  0  0  0  0  0  0  0  0  0
   -3.5620   -1.6084    0.2557 H   0  0  0  0  0  0  0  0  0  0  0  0
   -1.1438   -2.1953    0.3907 H   0  0  0  0  0  0  0  0  0  0  0  0
   -1.5819   -1.5100   -1.1773 H   0  0  0  0  0  0  0  0  0  0  0  0
   -0.1515    1.7844   -0.2887 H   0  0  0  0  0  0  0  0  0  0  0  0
   -0.9646    0.9112   -1.5891 H   0  0  0  0  0  0  0  0  0  0  0  0
   -2.5619    2.3560   -0.4378 H   0  0  0  0  0  0  0  0  0  0  0  0
   -2.1293    1.6803    1.1265 H   0  0  0  0  0  0  0  0  0  0  0  0
    0.9873   -1.7077   -0.0397 H   0  0  0  0  0  0  0  0  0  0  0  0
    0.9152   -0.6528   -1.4428 H   0  0  0  0  0  0  0  0  0  0  0  0
    1.8808    1.2152   -0.0148 H   0  0  0  0  0  0  0  0  0  0  0  0
    1.9268    0.1022    1.3419 H   0  0  0  0  0  0  0  0  0  0  0  0
    3.4314   -1.4046   -0.0078 H   0  0  0  0  0  0  0  0  0  0  0  0
    3.4054   -0.2278   -1.3072 H   0  0  0  0  0  0  0  0  0  0  0  0
    4.4413    0.2959    1.3673 H   0  0  0  0  0  0  0  0  0  0  0  0
    5.3049    0.1500    0.0142 H   0  0  0  0  0  0  0  0  0  0  0  0
   -3.4932    0.3171   -1.0559 H   0  0  0  0  0  0  0  0  0  0  0  0
  1  2  1  0
  1  6  1  0
  2  3  1  0
  2 11  1  0
  2 12  1  0
  3  4  1  0
  3 13  1  0
  3 14  1  0
  4  5  1  0
  4  7  1  0
  5  6  1  0
  5 15  1  0
  5 16  1  0
  6 17  1  0
  6 18  1  0
  7  8  1  0
  7 19  1  0
  7 20  1  0
  8  9  1  0
  8 21  1  0
  8 22  1  0
  9 10  1  0
  9 23  1  0
  9 24  1  0
 10 25  1  0
 10 26  1  0
  1 27  1  0
M  END
