
     RDKit          3D

 17 17  0  0  0  0  0  0  0  0999 V2000
   -1.9388   -1.9082   -0.0397 O   0  0  0  0  0  0  0  0  0  0  0  0
   -2.7781    0.1513   -0.0665 O   0  0  0  0  0  0  0  0  0  0  0  0
   -1.1515    2.1905   -0.1056 O   0  0  0  0  0  0  0  0  0  0  0  0
    2.1896    0.8184   -0.1033 C   0  0  0  0  0  0  0  0  0  0  0  0
    1.1395    1.7131   -0.1103 C   0  0  0  0  0  0  0  0  0  0  0  0
    0.6506   -1.0143   -0.0692 C   0  0  0  0  0  0  0  0  0  0  0  0
   -1.8135   -0.5964   -0.0605 C   0  0  0  0  0  0  0  0  0  0  0  0
    1.9541   -0.5584   -0.0835 C   0  0  0  0  0  0  0  0  0  0  0  0
   -0.1825    1.2678   -0.0969 C   0  0  0  0  0  0  0  0  0  0  0  0
   -0.4244   -0.1169   -0.0755 C   0  0  0  0  0  0  0  0  0  0  0  0
   -2.8759   -2.1560   -0.0317 H   0  0  0  0  0  0  0  0  0  0  0  0
    3.8088   -1.0317   -0.0993 H   0  0  0  0  0  0  0  0  0  0  0  0
   -2.0137    1.7294   -0.0952 H   0  0  0  0  0  0  0  0  0  0  0  0
    3.2054    1.1978   -0.1144 H   0  0  0  0  0  0  0  0  0  0  0  0
    1.3361    2.7773   -0.1262 H   0  0  0  0  0  0  0  0  0  0  0  0
    0.4703   -2.0810   -0.0536 H   0  0  0  0  0  0  0  0  0  0  0  0
    2.9519   -1.4709   -0.0780 O   0  0  0  0  0  0  0  0  0  0  0  0
  7  1  1  0
  1 11  1  0
  2  7  2  0
 17  8  1  0
 17 12  1  0
  9  3  1  0
  3 13  1  0
  8  4  2  0
  4  5  1  0
  4 14  1  0
  9  5  2  0
  5 15  1  0
  6 10  2  0
  6  8  1  0
  6 16  1  0
  7 10  1  0
 10  9  1  0
M  END
