
     RDKit          3D

 27 28  0  0  0  0  0  0  0  0999 V2000
    1.6333   -3.6445   -3.7051 O   0  0  0  0  0  0  0  0  0  0  0  0
    2.0527   -2.4718   -3.0843 C   0  0  1  0  0  0  0  0  0  0  0  0
    1.5188   -2.4966   -1.6521 C   0  0  2  0  0  0  0  0  0  0  0  0
    0.0184   -2.3198   -1.4502 C   0  0  1  0  0  0  0  0  0  0  0  0
   -0.1801   -2.4733   -0.0644 O   0  0  0  0  0  0  0  0  0  0  0  0
   -0.5166   -0.9824   -1.9522 C   0  0  0  0  0  0  0  0  0  0  0  0
    0.1111    0.2199   -1.2584 C   0  0  0  0  0  0  0  0  0  0  0  0
    1.6115    0.3058   -1.4745 C   0  0  0  0  0  0  0  0  0  0  0  0
    2.4301   -1.1743   -0.7987 S   0  0  0  0  0  0  0  0  0  0  0  0
    3.9029   -1.3256   -1.8646 C   0  0  0  0  0  0  0  0  0  0  0  0
    3.5902   -2.3163   -3.0038 C   0  0  1  0  0  0  0  0  0  0  0  0
    4.2647   -3.5283   -2.8608 O   0  0  0  0  0  0  0  0  0  0  0  0
    1.7805   -3.5690   -4.6537 H   0  0  0  0  0  0  0  0  0  0  0  0
    1.6641   -1.5844   -3.5989 H   0  0  0  0  0  0  0  0  0  0  0  0
    1.8306   -3.4194   -1.1501 H   0  0  0  0  0  0  0  0  0  0  0  0
   -0.4630   -3.1277   -2.0156 H   0  0  0  0  0  0  0  0  0  0  0  0
   -1.1209   -2.3885    0.1246 H   0  0  0  0  0  0  0  0  0  0  0  0
   -1.5971   -0.9670   -1.7926 H   0  0  0  0  0  0  0  0  0  0  0  0
   -0.3799   -0.9109   -3.0342 H   0  0  0  0  0  0  0  0  0  0  0  0
   -0.3130    1.1394   -1.6640 H   0  0  0  0  0  0  0  0  0  0  0  0
   -0.1153    0.2201   -0.1914 H   0  0  0  0  0  0  0  0  0  0  0  0
    1.8662    0.3903   -2.5306 H   0  0  0  0  0  0  0  0  0  0  0  0
    2.0597    1.1422   -0.9399 H   0  0  0  0  0  0  0  0  0  0  0  0
    4.7235   -1.6708   -1.2384 H   0  0  0  0  0  0  0  0  0  0  0  0
    4.1415   -0.3235   -2.2181 H   0  0  0  0  0  0  0  0  0  0  0  0
    3.9529   -1.8817   -3.9364 H   0  0  0  0  0  0  0  0  0  0  0  0
    3.9152   -4.0282   -2.1152 H   0  0  0  0  0  0  0  0  0  0  0  0
  1  2  1  0
  1 13  1  0
  2  3  1  0
  2 11  1  0
  2 14  1  6
  3  4  1  0
  3  9  1  0
  3 15  1  1
  4  5  1  0
  4  6  1  0
  4 16  1  6
  5 17  1  0
  6  7  1  0
  6 18  1  0
  6 19  1  0
  7  8  1  0
  7 20  1  0
  7 21  1  0
  9  8  1  6
  8 22  1  0
  8 23  1  0
  9 10  1  0
 10 11  1  0
 10 24  1  0
 10 25  1  0
 11 12  1  0
 11 26  1  6
 12 27  1  0
M  CHG  1   9   1
M  END
