
     RDKit          3D

 66 69  0  0  0  0  0  0  0  0999 V2000
    7.0529    4.4194   -0.3588 C   0  0  0  0  0  0  0  0  0  0  0  0
    5.8620    3.5953   -0.3184 N   0  0  0  0  0  0  0  0  0  0  0  0
    4.8673    3.9900    0.6571 C   0  0  0  0  0  0  0  0  0  0  0  0
    5.6784    2.6229   -1.2157 C   0  0  0  0  0  0  0  0  0  0  0  0
    6.4792    2.2950   -2.0811 O   0  0  0  0  0  0  0  0  0  0  0  0
    4.3537    1.8652   -1.1898 C   0  0  0  0  0  0  0  0  0  0  0  0
    3.4203    2.2963   -1.8441 O   0  0  0  0  0  0  0  0  0  0  0  0
    4.3283    0.6251   -0.4646 C   0  0  0  0  0  0  0  0  0  0  0  0
    3.2508   -0.3201   -0.3727 C   0  0  0  0  0  0  0  0  0  0  0  0
    1.9650   -0.3983   -0.9027 C   0  0  0  0  0  0  0  0  0  0  0  0
    5.3511    0.1204    0.3166 C   0  0  0  0  0  0  0  0  0  0  0  0
    4.9838   -1.0468    0.8714 N   0  0  0  0  0  0  0  0  0  0  0  0
    5.7910   -1.8708    1.7432 C   0  0  0  0  0  0  0  0  0  0  0  0
    3.7036   -1.3500    0.4698 C   0  0  0  0  0  0  0  0  0  0  0  0
    2.9255   -2.4522    0.7958 C   0  0  0  0  0  0  0  0  0  0  0  0
    1.6611   -2.4986    0.2445 C   0  0  0  0  0  0  0  0  0  0  0  0
    0.6447   -3.8486    0.6290 Cl  0  0  0  0  0  0  0  0  0  0  0  0
    1.1675   -1.4866   -0.5908 C   0  0  0  0  0  0  0  0  0  0  0  0
   -0.1809   -1.6245   -1.2384 C   0  0  0  0  0  0  0  0  0  0  0  0
   -0.3107   -2.4038   -2.1720 O   0  0  0  0  0  0  0  0  0  0  0  0
   -1.1726   -0.8533   -0.7609 N   0  0  0  0  0  0  0  0  0  0  0  0
   -2.4903   -0.8673   -1.3975 C   0  0  1  0  0  0  0  0  0  0  0  0
   -3.5591   -1.0470   -0.3250 C   0  0  0  0  0  0  0  0  0  0  0  0
   -2.7099    0.3839   -2.2398 C   0  0  0  0  0  0  0  0  0  0  0  0
   -1.0410    0.0918    0.3349 C   0  0  0  0  0  0  0  0  0  0  0  0
   -2.1259   -0.1282    1.3838 C   0  0  2  0  0  0  0  0  0  0  0  0
   -1.8734   -1.3979    2.1981 C   0  0  0  0  0  0  0  0  0  0  0  0
   -3.4215   -0.0582    0.7228 N   0  0  0  0  0  0  0  0  0  0  0  0
   -4.5472   -0.0327    1.6295 C   0  0  0  0  0  0  0  0  0  0  0  0
   -5.7828    0.5409    0.9816 C   0  0  0  0  0  0  0  0  0  0  0  0
   -5.7000    1.6709    0.1711 C   0  0  0  0  0  0  0  0  0  0  0  0
   -6.8328    2.2251   -0.4050 C   0  0  0  0  0  0  0  0  0  0  0  0
   -8.0578    1.6325   -0.1593 C   0  0  0  0  0  0  0  0  0  0  0  0
   -9.1600    2.1639   -0.7173 F   0  0  0  0  0  0  0  0  0  0  0  0
   -8.1813    0.5105    0.6341 C   0  0  0  0  0  0  0  0  0  0  0  0
   -7.0317   -0.0303    1.1976 C   0  0  0  0  0  0  0  0  0  0  0  0
    7.8075    3.9684   -0.9949 H   0  0  0  0  0  0  0  0  0  0  0  0
    6.8188    5.4157   -0.7391 H   0  0  0  0  0  0  0  0  0  0  0  0
    7.4580    4.5229    0.6475 H   0  0  0  0  0  0  0  0  0  0  0  0
    4.4290    4.9553    0.3979 H   0  0  0  0  0  0  0  0  0  0  0  0
    4.0663    3.2608    0.7420 H   0  0  0  0  0  0  0  0  0  0  0  0
    5.3361    4.0774    1.6369 H   0  0  0  0  0  0  0  0  0  0  0  0
    1.5835    0.3839   -1.5452 H   0  0  0  0  0  0  0  0  0  0  0  0
    6.3300    0.5317    0.5136 H   0  0  0  0  0  0  0  0  0  0  0  0
    5.2750   -2.0412    2.6861 H   0  0  0  0  0  0  0  0  0  0  0  0
    6.0036   -2.8293    1.2731 H   0  0  0  0  0  0  0  0  0  0  0  0
    6.7285   -1.3625    1.9461 H   0  0  0  0  0  0  0  0  0  0  0  0
    3.2819   -3.2412    1.4444 H   0  0  0  0  0  0  0  0  0  0  0  0
   -2.5297   -1.7383   -2.0488 H   0  0  0  0  0  0  0  0  0  0  0  0
   -4.5373   -0.9337   -0.7967 H   0  0  0  0  0  0  0  0  0  0  0  0
   -3.5172   -2.0777    0.0617 H   0  0  0  0  0  0  0  0  0  0  0  0
   -1.9186    0.4991   -2.9811 H   0  0  0  0  0  0  0  0  0  0  0  0
   -3.6583    0.3083   -2.7726 H   0  0  0  0  0  0  0  0  0  0  0  0
   -2.7480    1.2860   -1.6302 H   0  0  0  0  0  0  0  0  0  0  0  0
   -0.0637   -0.0060    0.8003 H   0  0  0  0  0  0  0  0  0  0  0  0
   -1.1132    1.1121   -0.0524 H   0  0  0  0  0  0  0  0  0  0  0  0
   -2.0675    0.7278    2.0639 H   0  0  0  0  0  0  0  0  0  0  0  0
   -0.9120   -1.3326    2.7095 H   0  0  0  0  0  0  0  0  0  0  0  0
   -2.6383   -1.5374    2.9626 H   0  0  0  0  0  0  0  0  0  0  0  0
   -1.8483   -2.2948    1.5796 H   0  0  0  0  0  0  0  0  0  0  0  0
   -4.7915   -1.0230    2.0458 H   0  0  0  0  0  0  0  0  0  0  0  0
   -4.2701    0.5923    2.4848 H   0  0  0  0  0  0  0  0  0  0  0  0
   -4.7324    2.1161   -0.0199 H   0  0  0  0  0  0  0  0  0  0  0  0
   -6.7646    3.1018   -1.0361 H   0  0  0  0  0  0  0  0  0  0  0  0
   -9.1501    0.0592    0.8037 H   0  0  0  0  0  0  0  0  0  0  0  0
   -7.1171   -0.9176    1.8135 H   0  0  0  0  0  0  0  0  0  0  0  0
  1  2  1  0
  1 37  1  0
  1 38  1  0
  1 39  1  0
  3  2  1  0
  2  4  1  0
  3 40  1  0
  3 41  1  0
  3 42  1  0
  4  6  1  0
  4  5  2  0
  7  6  2  0
  6  8  1  0
  8  9  1  0
  8 11  2  0
 10  9  2  0
  9 14  1  0
 10 18  1  0
 10 43  1  0
 11 12  1  0
 11 44  1  0
 14 12  1  0
 12 13  1  0
 13 45  1  0
 13 46  1  0
 13 47  1  0
 14 15  2  0
 16 15  1  0
 15 48  1  0
 18 16  2  0
 16 17  1  0
 19 18  1  0
 20 19  2  0
 19 21  1  0
 22 21  1  0
 21 25  1  0
 22 24  1  0
 22 23  1  0
 22 49  1  6
 23 28  1  0
 23 50  1  0
 23 51  1  0
 24 52  1  0
 24 53  1  0
 24 54  1  0
 25 26  1  0
 25 55  1  0
 25 56  1  0
 27 26  1  0
 28 26  1  0
 26 57  1  1
 27 58  1  0
 27 59  1  0
 27 60  1  0
 28 29  1  0
 30 29  1  0
 29 61  1  0
 29 62  1  0
 31 30  2  0
 30 36  1  0
 32 31  1  0
 31 63  1  0
 32 33  2  0
 32 64  1  0
 34 33  1  0
 33 35  1  0
 35 36  2  0
 35 65  1  0
 36 66  1  0
M  END
