
     RDKit          3D

 33 36  0  0  0  0  0  0  0  0999 V2000
    1.1225   -1.9705    0.1913 C   0  0  0  0  0  0  0  0  0  0  0  0
   -0.1918   -2.3852    0.2042 C   0  0  0  0  0  0  0  0  0  0  0  0
    3.8413   -0.9230   -0.5390 C   0  0  0  0  0  0  0  0  0  0  0  0
    3.2147    1.0475    0.6336 C   0  0  0  0  0  0  0  0  0  0  0  0
    0.4030    0.3095   -0.0543 C   0  0  0  0  0  0  0  0  0  0  0  0
    5.1437   -0.4507   -0.5244 C   0  0  0  0  0  0  0  0  0  0  0  0
    4.5465    1.4273    0.5956 C   0  0  0  0  0  0  0  0  0  0  0  0
    1.4332   -0.6152    0.0632 C   0  0  0  0  0  0  0  0  0  0  0  0
    2.8356   -0.1612    0.0527 C   0  0  0  0  0  0  0  0  0  0  0  0
   -1.2479   -1.4769    0.0860 C   0  0  0  0  0  0  0  0  0  0  0  0
   -0.9217   -0.1131   -0.0445 C   0  0  0  0  0  0  0  0  0  0  0  0
   -3.6213   -1.0001   -0.0299 C   0  0  0  0  0  0  0  0  0  0  0  0
   -2.6370   -1.9135    0.0949 C   0  0  0  0  0  0  0  0  0  0  0  0
   -3.2983    0.3803   -0.1668 C   0  0  0  0  0  0  0  0  0  0  0  0
   -1.9657    2.1708   -0.3082 C   0  0  0  0  0  0  0  0  0  0  0  0
   -2.9543   -3.3674    0.2392 C   0  0  0  0  0  0  0  0  0  0  0  0
    5.5037    0.7014    0.0293 N   0  0  0  0  0  0  0  0  0  0  0  0
   -4.1040    1.3849   -0.2946 N   0  0  0  0  0  0  0  0  0  0  0  0
   -3.2844    2.4597   -0.3794 N   0  0  0  0  0  0  0  0  0  0  0  0
   -1.9799    0.7821   -0.1684 N   0  0  0  0  0  0  0  0  0  0  0  0
   -1.0088    2.9226   -0.3538 O   0  0  0  0  0  0  0  0  0  0  0  0
    1.9093   -2.7042    0.3040 H   0  0  0  0  0  0  0  0  0  0  0  0
   -0.4019   -3.4398    0.3152 H   0  0  0  0  0  0  0  0  0  0  0  0
    5.9315   -1.0338   -0.9882 H   0  0  0  0  0  0  0  0  0  0  0  0
    2.4947    1.6827    1.1325 H   0  0  0  0  0  0  0  0  0  0  0  0
    4.8511    2.3630    1.0506 H   0  0  0  0  0  0  0  0  0  0  0  0
    0.6295    1.3569   -0.1789 H   0  0  0  0  0  0  0  0  0  0  0  0
   -4.6665   -1.2773   -0.0285 H   0  0  0  0  0  0  0  0  0  0  0  0
   -2.5394   -3.7758    1.1623 H   0  0  0  0  0  0  0  0  0  0  0  0
   -4.0302   -3.5281    0.2537 H   0  0  0  0  0  0  0  0  0  0  0  0
   -2.5376   -3.9481   -0.5858 H   0  0  0  0  0  0  0  0  0  0  0  0
   -3.6687    3.3853   -0.4871 H   0  0  0  0  0  0  0  0  0  0  0  0
    3.6212   -1.8628   -1.0273 H   0  0  0  0  0  0  0  0  0  0  0  0
  1  2  2  0
  1  8  1  0
  2 10  1  0
  3  6  2  0
  3  9  1  0
  4  7  1  0
  4  9  2  0
  5  8  2  0
  5 11  1  0
  6 17  1  0
  7 17  2  0
  8  9  1  0
 10 11  2  0
 10 13  1  0
 11 20  1  0
 12 13  2  0
 12 14  1  0
 13 16  1  0
 14 18  2  0
 14 20  1  0
 15 19  1  0
 15 20  1  0
 15 21  2  0
 18 19  1  0
  1 22  1  0
  2 23  1  0
  3 33  1  0
  6 24  1  0
  4 25  1  0
  7 26  1  0
  5 27  1  0
 12 28  1  0
 16 29  1  0
 16 30  1  0
 16 31  1  0
 19 32  1  0
M  END
