
     RDKit          3D

 17 18  0  0  0  0  0  0  0  0999 V2000
   -2.2702    2.1449    0.0156 O   0  0  0  0  0  0  0  0  0  0  0  0
   -2.0609    0.9438    0.0065 C   0  0  0  0  0  0  0  0  0  0  0  0
   -2.9774   -0.0469    0.0030 N   0  0  0  0  0  0  0  0  0  0  0  0
   -2.4286   -1.3838   -0.0047 C   0  0  0  0  0  0  0  0  0  0  0  0
   -0.7469    0.2567   -0.0037 C   0  0  0  0  0  0  0  0  0  0  0  0
    0.5190    0.8151   -0.0060 C   0  0  0  0  0  0  0  0  0  0  0  0
    1.5877   -0.0654   -0.0152 C   0  0  0  0  0  0  0  0  0  0  0  0
    3.2035    0.5617   -0.0199 Cl  0  0  0  0  0  0  0  0  0  0  0  0
   -0.9562   -1.1115   -0.0091 C   0  0  0  0  0  0  0  0  0  0  0  0
    0.1205   -1.9813   -0.0188 C   0  0  0  0  0  0  0  0  0  0  0  0
    1.4016   -1.4465   -0.0217 C   0  0  0  0  0  0  0  0  0  0  0  0
   -2.7380   -1.9520    0.8762 H   0  0  0  0  0  0  0  0  0  0  0  0
    0.6656    1.8872   -0.0018 H   0  0  0  0  0  0  0  0  0  0  0  0
   -0.0158   -3.0548   -0.0248 H   0  0  0  0  0  0  0  0  0  0  0  0
    2.2595   -2.1049   -0.0285 H   0  0  0  0  0  0  0  0  0  0  0  0
   -3.9693    0.1303    0.0170 H   0  0  0  0  0  0  0  0  0  0  0  0
   -2.7451   -1.9438   -0.8883 H   0  0  0  0  0  0  0  0  0  0  0  0
  8  7  1  0
 11  7  2  0
 11 10  1  0
  7  6  1  0
 10  9  2  0
  6  5  2  0
  9  5  1  0
  9  4  1  0
  5  2  1  0
  4  3  1  0
  2  3  1  0
  2  1  2  0
  4 12  1  0
  6 13  1  0
 10 14  1  0
 11 15  1  0
  3 16  1  0
  4 17  1  0
M  END
