
     RDKit          3D

 14 15  0  0  0  0  0  0  0  0999 V2000
    1.1539   -0.2103    0.0204 C   0  0  0  0  0  0  0  0  0  0  0  0
    2.4315   -0.6400    0.0202 N   0  0  0  0  0  0  0  0  0  0  0  0
    2.4762   -1.9630    0.0162 N   0  0  0  0  0  0  0  0  0  0  0  0
    1.2902   -2.4354    0.0144 N   0  0  0  0  0  0  0  0  0  0  0  0
    0.4112   -1.3907    0.0167 C   0  0  0  0  0  0  0  0  0  0  0  0
   -0.9863   -1.3732    0.0163 C   0  0  0  0  0  0  0  0  0  0  0  0
   -1.5747   -0.1327    0.0202 C   0  0  0  0  0  0  0  0  0  0  0  0
   -3.3009   -0.0110    0.0201 Cl  0  0  0  0  0  0  0  0  0  0  0  0
   -0.8375    1.0696    0.0232 C   0  0  0  0  0  0  0  0  0  0  0  0
    0.5350    1.0386    0.0235 C   0  0  0  0  0  0  0  0  0  0  0  0
    1.4800    2.4737    0.0277 Cl  0  0  0  0  0  0  0  0  0  0  0  0
    3.2898   -0.1077    0.0213 H   0  0  0  0  0  0  0  0  0  0  0  0
   -1.5657   -2.2854    0.0134 H   0  0  0  0  0  0  0  0  0  0  0  0
   -1.3567    2.0179    0.0250 H   0  0  0  0  0  0  0  0  0  0  0  0
 11 10  1  0
  2  3  1  0
  2  1  1  0
  3  4  2  0
 10  1  2  0
 10  9  1  0
  1  5  1  0
  4  5  1  0
  9  7  2  0
  5  6  2  0
  7  6  1  0
  7  8  1  0
  2 12  1  0
  6 13  1  0
  9 14  1  0
M  END
