
     RDKit          3D

 43 44  0  0  0  0  0  0  0  0999 V2000
  -14.5457   -1.2081   68.9168 O   0  0  0  0  0  0  0  0  0  0  0  0
  -15.2527   -1.9660   68.2937 C   0  0  0  0  0  0  0  0  0  0  0  0
  -14.8233   -2.5772   67.1474 N   0  0  0  0  0  0  0  0  0  0  0  0
  -15.4290   -3.4651   66.2723 C   0  0  0  0  0  0  0  0  0  0  0  0
  -14.6936   -3.8217   65.1367 C   0  0  0  0  0  0  0  0  0  0  0  0
  -15.2318   -4.7092   64.2275 C   0  0  0  0  0  0  0  0  0  0  0  0
  -16.4321   -5.2674   64.3554 N   0  0  0  0  0  0  0  0  0  0  0  0
  -17.1232   -4.9280   65.4355 C   0  0  0  0  0  0  0  0  0  0  0  0
  -16.6893   -4.0481   66.4149 C   0  0  0  0  0  0  0  0  0  0  0  0
  -16.4890   -2.2866   68.6240 O   0  0  0  0  0  0  0  0  0  0  0  0
  -17.0440   -1.6940   69.8093 C   0  0  0  0  0  0  0  0  0  0  0  0
  -18.4361   -2.2565   69.9821 C   0  0  0  0  0  0  0  0  0  0  0  0
  -18.4353   -3.7421   70.3207 C   0  0  0  0  0  0  0  0  0  0  0  0
  -19.7858   -4.3002   70.3746 N   0  0  0  0  0  0  0  0  0  0  0  0
  -20.5012   -4.8644   68.9995 S   0  0  2  0  0  0  0  0  0  0  0  0
  -21.5850   -5.7268   69.4488 O   0  0  0  0  0  0  0  0  0  0  0  0
  -19.5200   -5.4000   68.0623 O   0  0  0  0  0  0  0  0  0  0  0  0
  -21.1894   -3.4112   68.2670 C   0  0  0  0  0  0  0  0  0  0  0  0
  -20.8099   -3.0280   66.9913 C   0  0  0  0  0  0  0  0  0  0  0  0
  -21.3774   -1.8921   66.4312 C   0  0  0  0  0  0  0  0  0  0  0  0
  -22.3195   -1.1396   67.1254 C   0  0  0  0  0  0  0  0  0  0  0  0
  -22.9439    0.0758   66.5100 C   0  0  0  0  0  0  0  0  0  0  0  0
  -22.6859   -1.5521   68.4094 C   0  0  0  0  0  0  0  0  0  0  0  0
  -22.1314   -2.6805   68.9826 C   0  0  0  0  0  0  0  0  0  0  0  0
  -13.8839   -2.3055   66.8944 H   0  0  0  0  0  0  0  0  0  0  0  0
  -13.7075   -3.4103   64.9620 H   0  0  0  0  0  0  0  0  0  0  0  0
  -17.3399   -3.8529   67.2491 H   0  0  0  0  0  0  0  0  0  0  0  0
  -14.6579   -4.9823   63.3489 H   0  0  0  0  0  0  0  0  0  0  0  0
  -18.1001   -5.3854   65.5503 H   0  0  0  0  0  0  0  0  0  0  0  0
  -16.4109   -1.9229   70.6695 H   0  0  0  0  0  0  0  0  0  0  0  0
  -17.0831   -0.6100   69.6933 H   0  0  0  0  0  0  0  0  0  0  0  0
  -18.9232   -1.7032   70.7874 H   0  0  0  0  0  0  0  0  0  0  0  0
  -19.0158   -2.0565   69.0787 H   0  0  0  0  0  0  0  0  0  0  0  0
  -17.8028   -4.3079   69.6328 H   0  0  0  0  0  0  0  0  0  0  0  0
  -18.0131   -3.8870   71.3146 H   0  0  0  0  0  0  0  0  0  0  0  0
  -19.9432   -4.9464   71.1394 H   0  0  0  0  0  0  0  0  0  0  0  0
  -20.0766   -3.5930   66.4329 H   0  0  0  0  0  0  0  0  0  0  0  0
  -22.4197   -2.9737   69.9835 H   0  0  0  0  0  0  0  0  0  0  0  0
  -21.0763   -1.5909   65.4358 H   0  0  0  0  0  0  0  0  0  0  0  0
  -22.9937    0.9001   67.2212 H   0  0  0  0  0  0  0  0  0  0  0  0
  -22.3885    0.4115   65.6360 H   0  0  0  0  0  0  0  0  0  0  0  0
  -23.9659   -0.1367   66.1908 H   0  0  0  0  0  0  0  0  0  0  0  0
  -23.4137   -0.9783   68.9697 H   0  0  0  0  0  0  0  0  0  0  0  0
  1  2  2  0
  2  3  1  0
  2 10  1  0
  3  4  1  0
  4  5  2  0
  4  9  1  0
  5  6  1  0
  6  7  2  0
  7  8  1  0
  8  9  2  0
 10 11  1  0
 11 12  1  0
 12 13  1  0
 13 14  1  0
 15 14  1  1
 15 16  2  0
 15 17  2  0
 15 18  1  0
 18 19  2  0
 18 24  1  0
 19 20  1  0
 20 21  2  0
 21 22  1  0
 21 23  1  0
 23 24  2  0
  3 25  1  0
  5 26  1  0
  9 27  1  0
  6 28  1  0
  8 29  1  0
 11 30  1  0
 11 31  1  0
 12 32  1  0
 12 33  1  0
 13 34  1  0
 13 35  1  0
 14 36  1  0
 19 37  1  0
 24 38  1  0
 20 39  1  0
 22 40  1  0
 22 41  1  0
 22 42  1  0
 23 43  1  0
M  END
