
     RDKit          3D

 83 85  0  0  0  0  0  0  0  0999 V2000
    3.9078   -0.8011    1.4570 C   0  0  1  0  0  0  0  0  0  0  0  0
    4.7275    0.4814    1.6138 C   0  0  1  0  0  0  0  0  0  0  0  0
    5.5323    0.7458    0.3430 C   0  0  2  0  0  0  0  0  0  0  0  0
    6.3653   -0.4818   -0.0115 C   0  0  1  0  0  0  0  0  0  0  0  0
    5.4425   -1.6942   -0.1228 C   0  0  1  0  0  0  0  0  0  0  0  0
    6.1654   -2.9996   -0.3988 C   0  0  0  0  0  0  0  0  0  0  0  0
    7.0288   -0.3195   -1.2415 O   0  0  0  0  0  0  0  0  0  0  0  0
    2.9210   -0.5698    0.4962 O   0  0  0  0  0  0  0  0  0  0  0  0
    4.7333   -1.8622    1.0959 O   0  0  0  0  0  0  0  0  0  0  0  0
    5.2016   -4.0535   -0.6802 N   0  0  0  0  0  0  0  0  0  0  0  0
   -1.1489   -1.3061   -0.2289 C   0  0  2  0  0  0  0  0  0  0  0  0
   -2.5754   -1.5151   -0.0667 N   0  0  0  0  0  0  0  0  0  0  0  0
   -0.3043   -2.4718    0.2697 C   0  0  0  0  0  0  0  0  0  0  0  0
    1.1819   -2.2101    0.0408 C   0  0  2  0  0  0  0  0  0  0  0  0
    1.9440   -3.3342    0.5560 N   0  0  0  0  0  0  0  0  0  0  0  0
    1.5821   -0.9261    0.7650 C   0  0  2  0  0  0  0  0  0  0  0  0
    0.7250    0.2619    0.3308 C   0  0  2  0  0  0  0  0  0  0  0  0
    1.1347    1.3746    1.0934 O   0  0  0  0  0  0  0  0  0  0  0  0
   -0.7570   -0.0479    0.5385 C   0  0  1  0  0  0  0  0  0  0  0  0
   -1.5844    0.9958    0.0792 O   0  0  0  0  0  0  0  0  0  0  0  0
   -1.9466    2.0096    0.9635 C   0  0  2  0  0  0  0  0  0  0  0  0
   -3.4326    2.3139    0.7860 C   0  0  2  0  0  0  0  0  0  0  0  0
   -4.2080    1.1469    0.9495 O   0  0  0  0  0  0  0  0  0  0  0  0
   -3.7275    2.9280   -0.5865 C   0  0  1  0  0  0  0  0  0  0  0  0
   -5.1115    3.3297   -0.7520 N   0  0  0  0  0  0  0  0  0  0  0  0
   -2.7968    4.1223   -0.8190 C   0  0  2  0  0  0  0  0  0  0  0  0
   -2.9562    4.5639   -2.1453 O   0  0  0  0  0  0  0  0  0  0  0  0
   -1.3424    3.7105   -0.5667 C   0  0  2  0  0  0  0  0  0  0  0  0
   -1.1983    3.1659    0.7384 O   0  0  0  0  0  0  0  0  0  0  0  0
   -0.3500    4.8475   -0.6559 C   0  0  0  0  0  0  0  0  0  0  0  0
    0.9419    4.2893   -0.5515 O   0  0  0  0  0  0  0  0  0  0  0  0
    3.9302    1.5776    1.9789 O   0  0  0  0  0  0  0  0  0  0  0  0
    6.4173    1.8313    0.5057 O   0  0  0  0  0  0  0  0  0  0  0  0
   -6.8506   -4.2030    2.0071 N   0  0  0  0  0  0  0  0  0  0  0  0
   -3.2897   -2.3323   -0.8516 C   0  0  0  0  0  0  0  0  0  0  0  0
   -2.8051   -3.0825   -1.6880 O   0  0  0  0  0  0  0  0  0  0  0  0
   -4.7977   -2.3195   -0.5980 C   0  0  2  0  0  0  0  0  0  0  0  0
   -5.1249   -3.2890    0.5389 C   0  0  0  0  0  0  0  0  0  0  0  0
   -6.6005   -3.2808    0.9100 C   0  0  0  0  0  0  0  0  0  0  0  0
   -5.4900   -2.6144   -1.7805 O   0  0  0  0  0  0  0  0  0  0  0  0
    3.4565   -1.0812    2.4163 H   0  0  0  0  0  0  0  0  0  0  0  0
    5.4358    0.3185    2.4346 H   0  0  0  0  0  0  0  0  0  0  0  0
    4.8372    0.9367   -0.4895 H   0  0  0  0  0  0  0  0  0  0  0  0
    7.0839   -0.6631    0.8047 H   0  0  0  0  0  0  0  0  0  0  0  0
    4.7392   -1.5130   -0.9488 H   0  0  0  0  0  0  0  0  0  0  0  0
    6.8869   -2.8378   -1.2073 H   0  0  0  0  0  0  0  0  0  0  0  0
    6.7438   -3.2791    0.4861 H   0  0  0  0  0  0  0  0  0  0  0  0
    7.5541    0.4862   -1.1947 H   0  0  0  0  0  0  0  0  0  0  0  0
    4.8065   -3.9103   -1.6012 H   0  0  0  0  0  0  0  0  0  0  0  0
    5.6788   -4.9447   -0.7217 H   0  0  0  0  0  0  0  0  0  0  0  0
   -3.0875   -0.7900    0.4191 H   0  0  0  0  0  0  0  0  0  0  0  0
   -0.4880   -2.6331    1.3369 H   0  0  0  0  0  0  0  0  0  0  0  0
   -0.5955   -3.3864   -0.2487 H   0  0  0  0  0  0  0  0  0  0  0  0
    1.3358   -2.0444   -1.0387 H   0  0  0  0  0  0  0  0  0  0  0  0
    1.6101   -4.1845    0.1188 H   0  0  0  0  0  0  0  0  0  0  0  0
    2.9237   -3.2670    0.3016 H   0  0  0  0  0  0  0  0  0  0  0  0
    1.4450   -1.0908    1.8445 H   0  0  0  0  0  0  0  0  0  0  0  0
    0.8923    0.4407   -0.7417 H   0  0  0  0  0  0  0  0  0  0  0  0
    0.8050    2.1920    0.6969 H   0  0  0  0  0  0  0  0  0  0  0  0
   -0.9320   -0.2196    1.6118 H   0  0  0  0  0  0  0  0  0  0  0  0
   -1.7428    1.7136    2.0000 H   0  0  0  0  0  0  0  0  0  0  0  0
   -3.6964    3.0605    1.5479 H   0  0  0  0  0  0  0  0  0  0  0  0
   -4.4008    1.0325    1.8849 H   0  0  0  0  0  0  0  0  0  0  0  0
   -3.5084    2.1760   -1.3549 H   0  0  0  0  0  0  0  0  0  0  0  0
   -5.7095    2.5287   -0.5934 H   0  0  0  0  0  0  0  0  0  0  0  0
   -5.3585    4.0025   -0.0340 H   0  0  0  0  0  0  0  0  0  0  0  0
   -3.0679    4.9136   -0.1029 H   0  0  0  0  0  0  0  0  0  0  0  0
   -2.8081    5.5123   -2.1808 H   0  0  0  0  0  0  0  0  0  0  0  0
   -1.0703    2.9635   -1.3250 H   0  0  0  0  0  0  0  0  0  0  0  0
   -0.4808    5.3692   -1.6106 H   0  0  0  0  0  0  0  0  0  0  0  0
   -0.5477    5.5722    0.1441 H   0  0  0  0  0  0  0  0  0  0  0  0
    1.5771    5.0012   -0.4340 H   0  0  0  0  0  0  0  0  0  0  0  0
    3.0914    1.5398    1.4907 H   0  0  0  0  0  0  0  0  0  0  0  0
    5.8943    2.6321    0.6123 H   0  0  0  0  0  0  0  0  0  0  0  0
   -6.3968   -3.8584    2.8445 H   0  0  0  0  0  0  0  0  0  0  0  0
   -7.8399   -4.2127    2.2194 H   0  0  0  0  0  0  0  0  0  0  0  0
   -5.1106   -1.3117   -0.3028 H   0  0  0  0  0  0  0  0  0  0  0  0
   -4.8194   -4.3029    0.2599 H   0  0  0  0  0  0  0  0  0  0  0  0
   -4.5319   -3.0130    1.4169 H   0  0  0  0  0  0  0  0  0  0  0  0
   -7.1928   -3.6029    0.0517 H   0  0  0  0  0  0  0  0  0  0  0  0
   -6.9037   -2.2455    1.1268 H   0  0  0  0  0  0  0  0  0  0  0  0
   -5.0924   -3.4044   -2.1664 H   0  0  0  0  0  0  0  0  0  0  0  0
   -0.9336   -1.1473   -1.2937 H   0  0  0  0  0  0  0  0  0  0  0  0
  7  4  1  0
  6  5  1  0
  6 10  1  0
  4  5  1  0
  4  3  1  0
 33  3  1  0
  5  9  1  0
 15 14  1  0
  3  2  1  0
 14 13  1  0
 14 16  1  0
  9  1  1  0
  8  1  1  0
  8 16  1  0
  2  1  1  0
  2 32  1  0
 13 11  1  0
 16 17  1  0
 36 35  2  0
 11 12  1  0
 11 19  1  0
 35 12  1  0
 35 37  1  0
 17 19  1  0
 17 18  1  0
 37 40  1  0
 37 38  1  0
 19 20  1  0
 38 39  1  0
 39 34  1  0
 20 21  1  0
 23 22  1  0
 21 22  1  0
 21 29  1  0
 22 24  1  0
 29 28  1  0
 24 25  1  0
 24 26  1  0
 28 26  1  0
 28 30  1  0
 26 27  1  0
 30 31  1  0
  1 41  1  1
  2 42  1  1
  3 43  1  6
  4 44  1  1
  5 45  1  6
  6 46  1  0
  6 47  1  0
  7 48  1  0
 10 49  1  0
 10 50  1  0
 11 83  1  6
 12 51  1  0
 13 52  1  0
 13 53  1  0
 14 54  1  6
 15 55  1  0
 15 56  1  0
 16 57  1  1
 17 58  1  6
 18 59  1  0
 19 60  1  1
 21 61  1  1
 22 62  1  1
 23 63  1  0
 24 64  1  6
 25 65  1  0
 25 66  1  0
 26 67  1  1
 27 68  1  0
 28 69  1  6
 30 70  1  0
 30 71  1  0
 31 72  1  0
 32 73  1  0
 33 74  1  0
 34 75  1  0
 34 76  1  0
 37 77  1  1
 38 78  1  0
 38 79  1  0
 39 80  1  0
 39 81  1  0
 40 82  1  0
M  END
