
     RDKit          3D

 31 32  0  0  0  0  0  0  0  0999 V2000
   -1.3982   -1.0449   -1.1227 C   0  0  0  0  0  0  0  0  0  0  0  0
   -2.6033   -1.6352   -0.7538 C   0  0  0  0  0  0  0  0  0  0  0  0
   -3.2065    0.4271    0.3489 C   0  0  0  0  0  0  0  0  0  0  0  0
   -1.0671    0.2554   -0.7850 C   0  0  0  0  0  0  0  0  0  0  0  0
   -3.5106   -0.8892   -0.0129 C   0  0  0  0  0  0  0  0  0  0  0  0
   -2.0006    0.9926   -0.0343 C   0  0  0  0  0  0  0  0  0  0  0  0
    2.5637    1.5183   -0.4057 C   0  0  0  0  0  0  0  0  0  0  0  0
    3.2686   -0.5008    0.5783 C   0  0  0  0  0  0  0  0  0  0  0  0
    1.2155    0.9625    0.0026 C   0  0  1  0  0  0  0  0  0  0  0  0
   -5.0846   -2.6603    0.0610 C   0  0  0  0  0  0  0  0  0  0  0  0
   -2.5123    3.0467    1.0517 C   0  0  0  0  0  0  0  0  0  0  0  0
    0.2531    0.8487   -1.1837 C   0  0  0  0  0  0  0  0  0  0  0  0
    3.5797    0.6690   -0.0349 N   0  0  0  0  0  0  0  0  0  0  0  0
   -4.7073   -1.3415    0.4036 O   0  0  0  0  0  0  0  0  0  0  0  0
   -1.6394    2.2509    0.2741 O   0  0  0  0  0  0  0  0  0  0  0  0
    4.3454   -1.6276    1.0693 S   0  0  0  0  0  0  0  0  0  0  0  0
    1.5511   -0.6517    0.7707 S   0  0  0  0  0  0  0  0  0  0  0  0
   -0.6932   -1.6267   -1.7041 H   0  0  0  0  0  0  0  0  0  0  0  0
   -2.8050   -2.6537   -1.0531 H   0  0  0  0  0  0  0  0  0  0  0  0
   -3.9332    0.9806    0.9288 H   0  0  0  0  0  0  0  0  0  0  0  0
    0.7978    1.6248    0.7644 H   0  0  0  0  0  0  0  0  0  0  0  0
   -5.1375   -2.8012   -1.0217 H   0  0  0  0  0  0  0  0  0  0  0  0
   -4.4002   -3.4024    0.4799 H   0  0  0  0  0  0  0  0  0  0  0  0
   -6.0737   -2.8189    0.4835 H   0  0  0  0  0  0  0  0  0  0  0  0
   -3.4625    3.2255    0.5426 H   0  0  0  0  0  0  0  0  0  0  0  0
   -2.7120    2.5970    2.0271 H   0  0  0  0  0  0  0  0  0  0  0  0
   -2.0099    3.9989    1.2007 H   0  0  0  0  0  0  0  0  0  0  0  0
    0.7105    0.2289   -1.9568 H   0  0  0  0  0  0  0  0  0  0  0  0
    0.1284    1.8477   -1.6068 H   0  0  0  0  0  0  0  0  0  0  0  0
    4.5470    0.8968   -0.2324 H   0  0  0  0  0  0  0  0  0  0  0  0
    2.7292    2.5596   -0.9851 O   0  0  0  0  0  0  0  0  0  0  0  0
  1  2  2  0
  1  4  1  0
  2  5  1  0
  3  5  2  0
  3  6  1  0
  4  6  2  0
  4 12  1  0
  5 14  1  0
  6 15  1  0
  7  9  1  0
  7 13  1  0
  7 31  2  0
  8 13  1  0
  8 16  2  0
  8 17  1  0
  9 12  1  0
  9 17  1  0
 10 14  1  0
 11 15  1  0
  1 18  1  0
  2 19  1  0
  3 20  1  0
  9 21  1  1
 10 22  1  0
 10 23  1  0
 10 24  1  0
 11 25  1  0
 11 26  1  0
 11 27  1  0
 12 28  1  0
 12 29  1  0
 13 30  1  0
M  END
