
     RDKit          3D

 44 45  0  0  0  0  0  0  0  0999 V2000
    4.8248    1.0456    0.8558 O   0  0  0  0  0  0  0  0  0  0  0  0
    3.7132    0.2014    0.6678 C   0  0  2  0  0  0  0  0  0  0  0  0
    4.0254   -0.9590   -0.2770 C   0  0  0  0  0  0  0  0  0  0  0  0
    5.1793   -1.8311    0.1975 C   0  0  0  0  0  0  0  0  0  0  0  0
    5.3884   -2.9360   -0.7265 N   0  0  0  0  0  0  0  0  0  0  0  0
    2.4795    0.9482    0.1989 C   0  0  0  0  0  0  0  0  0  0  0  0
    1.2331    0.3851    0.4313 C   0  0  0  0  0  0  0  0  0  0  0  0
    0.0656    1.0061   -0.0117 C   0  0  0  0  0  0  0  0  0  0  0  0
    0.1496    2.2176   -0.6957 C   0  0  0  0  0  0  0  0  0  0  0  0
    1.4009    2.7776   -0.9231 C   0  0  0  0  0  0  0  0  0  0  0  0
    2.5616    2.1598   -0.4839 C   0  0  0  0  0  0  0  0  0  0  0  0
   -1.0861    0.3684    0.2694 O   0  0  0  0  0  0  0  0  0  0  0  0
   -2.3167    0.9576   -0.1167 C   0  0  0  0  0  0  0  0  0  0  0  0
   -3.4497    0.0393    0.3012 C   0  0  1  0  0  0  0  0  0  0  0  0
   -4.7903    0.7268    0.0368 C   0  0  0  0  0  0  0  0  0  0  0  0
   -5.9667   -0.1633    0.4246 C   0  0  0  0  0  0  0  0  0  0  0  0
   -5.9030   -1.5124   -0.2834 C   0  0  0  0  0  0  0  0  0  0  0  0
   -4.5690   -2.2050   -0.0279 C   0  0  0  0  0  0  0  0  0  0  0  0
   -3.3913   -1.3136   -0.4096 C   0  0  0  0  0  0  0  0  0  0  0  0
    5.2354    1.2164    0.0019 H   0  0  0  0  0  0  0  0  0  0  0  0
    3.4917   -0.2150    1.6569 H   0  0  0  0  0  0  0  0  0  0  0  0
    3.1265   -1.5753   -0.3740 H   0  0  0  0  0  0  0  0  0  0  0  0
    4.2404   -0.5702   -1.2793 H   0  0  0  0  0  0  0  0  0  0  0  0
    6.0975   -1.2416    0.2352 H   0  0  0  0  0  0  0  0  0  0  0  0
    4.9770   -2.1538    1.2296 H   0  0  0  0  0  0  0  0  0  0  0  0
    6.1769   -3.4887   -0.4155 H   0  0  0  0  0  0  0  0  0  0  0  0
    4.5896   -3.5572   -0.6881 H   0  0  0  0  0  0  0  0  0  0  0  0
    1.1539   -0.5520    0.9730 H   0  0  0  0  0  0  0  0  0  0  0  0
   -0.7333    2.7326   -1.0490 H   0  0  0  0  0  0  0  0  0  0  0  0
    1.4636    3.7195   -1.4536 H   0  0  0  0  0  0  0  0  0  0  0  0
    3.5175    2.6314   -0.6708 H   0  0  0  0  0  0  0  0  0  0  0  0
   -2.4292    1.9399    0.3591 H   0  0  0  0  0  0  0  0  0  0  0  0
   -2.3438    1.1125   -1.2032 H   0  0  0  0  0  0  0  0  0  0  0  0
   -3.3673   -0.1297    1.3831 H   0  0  0  0  0  0  0  0  0  0  0  0
   -4.8394    1.6712    0.5860 H   0  0  0  0  0  0  0  0  0  0  0  0
   -4.8651    0.9797   -1.0276 H   0  0  0  0  0  0  0  0  0  0  0  0
   -5.9583   -0.3211    1.5084 H   0  0  0  0  0  0  0  0  0  0  0  0
   -6.9073    0.3416    0.1921 H   0  0  0  0  0  0  0  0  0  0  0  0
   -6.7289   -2.1495    0.0427 H   0  0  0  0  0  0  0  0  0  0  0  0
   -6.0332   -1.3617   -1.3608 H   0  0  0  0  0  0  0  0  0  0  0  0
   -4.4944   -2.4683    1.0330 H   0  0  0  0  0  0  0  0  0  0  0  0
   -4.5177   -3.1446   -0.5833 H   0  0  0  0  0  0  0  0  0  0  0  0
   -3.4009   -1.1425   -1.4930 H   0  0  0  0  0  0  0  0  0  0  0  0
   -2.4524   -1.8225   -0.1821 H   0  0  0  0  0  0  0  0  0  0  0  0
 18 19  1  0
 18 17  1  0
 19 14  1  0
 17 16  1  0
  5  4  1  0
 14 13  1  0
 14 15  1  0
  4  3  1  0
 16 15  1  0
 13 12  1  0
  3  2  1  0
  1  2  1  0
 12  8  1  0
  7  8  1  0
  7  6  2  0
  2  6  1  0
  8  9  2  0
  6 11  1  0
  9 10  1  0
 11 10  2  0
  1 20  1  0
  2 21  1  1
  3 22  1  0
  3 23  1  0
  4 24  1  0
  4 25  1  0
  5 26  1  0
  5 27  1  0
  7 28  1  0
  9 29  1  0
 10 30  1  0
 11 31  1  0
 13 32  1  0
 13 33  1  0
 14 34  1  1
 15 35  1  0
 15 36  1  0
 16 37  1  0
 16 38  1  0
 17 39  1  0
 17 40  1  0
 18 41  1  0
 18 42  1  0
 19 43  1  0
 19 44  1  0
M  END
