
     RDKit          3D

 47 49  0  0  0  0  0  0  0  0999 V2000
    4.4637   -3.3981   -0.6417 O   0  0  0  0  0  0  0  0  0  0  0  0
    5.3569   -2.5029   -0.2354 C   0  0  0  0  0  0  0  0  0  0  0  0
    6.5243   -2.5516   -0.5319 O   0  0  0  0  0  0  0  0  0  0  0  0
    4.7281   -1.4196    0.6324 C   0  0  1  0  0  0  0  0  0  0  0  0
    5.6917   -0.6388    1.3700 N   0  0  0  0  0  0  0  0  0  0  0  0
    3.8484   -0.5173   -0.2424 C   0  0  0  0  0  0  0  0  0  0  0  0
    3.0513    0.4865    0.5748 C   0  0  0  0  0  0  0  0  0  0  0  0
    2.1850    1.2672   -0.2926 N   0  0  0  0  0  0  0  0  0  0  0  0
    1.3499    2.1948    0.4358 C   0  0  0  0  0  0  0  0  0  0  0  0
    0.3972    2.9411   -0.4890 C   0  0  1  0  0  0  0  0  0  0  0  0
   -0.3614    2.0594   -1.3219 O   0  0  0  0  0  0  0  0  0  0  0  0
   -0.6547    3.7201    0.2805 C   0  0  1  0  0  0  0  0  0  0  0  0
   -1.1820    4.7197   -0.5495 O   0  0  0  0  0  0  0  0  0  0  0  0
   -1.6966    2.6217    0.5401 C   0  0  1  0  0  0  0  0  0  0  0  0
   -2.9989    3.1057    0.6932 O   0  0  0  0  0  0  0  0  0  0  0  0
   -1.5906    1.7695   -0.7392 C   0  0  2  0  0  0  0  0  0  0  0  0
   -1.6650    0.3379   -0.4764 N   0  0  0  0  0  0  0  0  0  0  0  0
   -0.6210   -0.5398   -0.3540 C   0  0  0  0  0  0  0  0  0  0  0  0
   -1.0031   -1.7557   -0.0833 N   0  0  0  0  0  0  0  0  0  0  0  0
   -2.3691   -1.6795   -0.0241 C   0  0  0  0  0  0  0  0  0  0  0  0
   -2.8028   -0.3848   -0.2705 C   0  0  0  0  0  0  0  0  0  0  0  0
   -4.0678    0.0322   -0.3022 N   0  0  0  0  0  0  0  0  0  0  0  0
   -4.9130   -0.9535   -0.0609 C   0  0  0  0  0  0  0  0  0  0  0  0
   -4.6446   -2.2313    0.2001 N   0  0  0  0  0  0  0  0  0  0  0  0
   -3.3704   -2.6353    0.2262 C   0  0  0  0  0  0  0  0  0  0  0  0
   -3.0964   -3.9182    0.4757 N   0  0  0  0  0  0  0  0  0  0  0  0
    4.8888   -4.0612   -1.2058 H   0  0  0  0  0  0  0  0  0  0  0  0
    4.0764   -1.9271    1.3520 H   0  0  0  0  0  0  0  0  0  0  0  0
    6.2539   -1.2367    1.9618 H   0  0  0  0  0  0  0  0  0  0  0  0
    6.3338   -0.1820    0.7339 H   0  0  0  0  0  0  0  0  0  0  0  0
    4.4830    0.0096   -0.9645 H   0  0  0  0  0  0  0  0  0  0  0  0
    3.1522   -1.1276   -0.8207 H   0  0  0  0  0  0  0  0  0  0  0  0
    2.4179   -0.0550    1.2861 H   0  0  0  0  0  0  0  0  0  0  0  0
    3.7291    1.1096    1.1713 H   0  0  0  0  0  0  0  0  0  0  0  0
    2.7563    1.7786   -0.9574 H   0  0  0  0  0  0  0  0  0  0  0  0
    0.7890    1.6265    1.1862 H   0  0  0  0  0  0  0  0  0  0  0  0
    1.9224    2.9485    0.9981 H   0  0  0  0  0  0  0  0  0  0  0  0
    0.9737    3.5896   -1.1551 H   0  0  0  0  0  0  0  0  0  0  0  0
   -0.2597    4.1336    1.2178 H   0  0  0  0  0  0  0  0  0  0  0  0
   -2.0819    4.9031   -0.2537 H   0  0  0  0  0  0  0  0  0  0  0  0
   -1.3881    2.0270    1.4069 H   0  0  0  0  0  0  0  0  0  0  0  0
   -3.1583    3.2813    1.6253 H   0  0  0  0  0  0  0  0  0  0  0  0
   -2.4085    2.0066   -1.4269 H   0  0  0  0  0  0  0  0  0  0  0  0
    0.4040   -0.2183   -0.4962 H   0  0  0  0  0  0  0  0  0  0  0  0
   -5.9663   -0.6939   -0.0734 H   0  0  0  0  0  0  0  0  0  0  0  0
   -2.1483   -4.2342    0.5759 H   0  0  0  0  0  0  0  0  0  0  0  0
   -3.8363   -4.5537    0.7187 H   0  0  0  0  0  0  0  0  0  0  0  0
  3  2  2  0
  2  4  1  0
  2  1  1  0
  4  5  1  0
  4  6  1  0
  6  7  1  0
  7  8  1  0
  8  9  1  0
  9 10  1  0
 12 10  1  0
 12 13  1  0
 12 14  1  0
 10 11  1  0
 14 15  1  0
 14 16  1  0
 11 16  1  0
 16 17  1  0
 18 17  1  0
 18 19  2  0
 17 21  1  0
 19 20  1  0
 21 22  2  0
 21 20  1  0
 22 23  1  0
 20 25  2  0
 23 24  2  0
 25 24  1  0
 25 26  1  0
  1 27  1  0
  4 28  1  1
  5 29  1  0
  5 30  1  0
  6 31  1  0
  6 32  1  0
  7 33  1  0
  7 34  1  0
  8 35  1  0
  9 36  1  0
  9 37  1  0
 10 38  1  6
 12 39  1  1
 13 40  1  0
 14 41  1  1
 15 42  1  0
 16 43  1  6
 18 44  1  0
 23 45  1  0
 26 46  1  0
 26 47  1  0
M  END
