
     RDKit          3D

 41 42  0  0  0  0  0  0  0  0999 V2000
    5.2133   -1.9647   -0.6399 O   0  0  0  0  0  0  0  0  0  0  0  0
    5.8328   -0.9167   -0.6583 C   0  0  0  0  0  0  0  0  0  0  0  0
    7.0420   -0.7692   -1.2142 N   0  0  0  0  0  0  0  0  0  0  0  0
    7.7396   -1.8539   -1.6440 O   0  0  0  0  0  0  0  0  0  0  0  0
    5.2980    0.3686   -0.0316 C   0  0  2  0  0  0  0  0  0  0  0  0
    5.9704    0.5848    1.3417 C   0  0  2  0  0  0  0  0  0  0  0  0
    5.8489   -0.5625    2.1493 O   0  0  0  0  0  0  0  0  0  0  0  0
    5.4629    1.8346    2.0396 C   0  0  0  0  0  0  0  0  0  0  0  0
    3.8656    0.2513    0.0611 N   0  0  0  0  0  0  0  0  0  0  0  0
    3.0247    1.2601   -0.2474 C   0  0  0  0  0  0  0  0  0  0  0  0
    3.4115    2.3762   -0.5591 O   0  0  0  0  0  0  0  0  0  0  0  0
    1.5669    0.9360   -0.1964 C   0  0  0  0  0  0  0  0  0  0  0  0
    1.0469   -0.1522    0.5012 C   0  0  0  0  0  0  0  0  0  0  0  0
   -0.3150   -0.4028    0.5039 C   0  0  0  0  0  0  0  0  0  0  0  0
   -1.1984    0.4252   -0.1892 C   0  0  0  0  0  0  0  0  0  0  0  0
   -0.6731    1.5243   -0.8714 C   0  0  0  0  0  0  0  0  0  0  0  0
    0.6859    1.7789   -0.8695 C   0  0  0  0  0  0  0  0  0  0  0  0
   -2.6473    0.1498   -0.2038 C   0  0  0  0  0  0  0  0  0  0  0  0
   -3.2891   -0.3937    0.9091 C   0  0  0  0  0  0  0  0  0  0  0  0
   -4.6511   -0.6509    0.9002 C   0  0  0  0  0  0  0  0  0  0  0  0
   -5.3867   -0.3619   -0.2396 C   0  0  0  0  0  0  0  0  0  0  0  0
   -7.2418   -0.7069   -0.2638 Br  0  0  0  0  0  0  0  0  0  0  0  0
   -4.7766    0.1769   -1.3626 C   0  0  0  0  0  0  0  0  0  0  0  0
   -3.4141    0.4278   -1.3359 C   0  0  0  0  0  0  0  0  0  0  0  0
    7.5545    0.1015   -1.2091 H   0  0  0  0  0  0  0  0  0  0  0  0
    7.5326   -1.9565   -2.5826 H   0  0  0  0  0  0  0  0  0  0  0  0
    5.5457    1.2230   -0.6665 H   0  0  0  0  0  0  0  0  0  0  0  0
    7.0415    0.7043    1.1559 H   0  0  0  0  0  0  0  0  0  0  0  0
    4.9369   -0.6300    2.4525 H   0  0  0  0  0  0  0  0  0  0  0  0
    4.4106    1.7419    2.3152 H   0  0  0  0  0  0  0  0  0  0  0  0
    6.0334    2.0110    2.9516 H   0  0  0  0  0  0  0  0  0  0  0  0
    5.5651    2.7120    1.4019 H   0  0  0  0  0  0  0  0  0  0  0  0
    3.5047   -0.6892    0.1223 H   0  0  0  0  0  0  0  0  0  0  0  0
    1.6880   -0.8164    1.0669 H   0  0  0  0  0  0  0  0  0  0  0  0
   -0.6855   -1.2679    1.0385 H   0  0  0  0  0  0  0  0  0  0  0  0
   -1.3323    2.2036   -1.3965 H   0  0  0  0  0  0  0  0  0  0  0  0
    1.0653    2.6423   -1.3987 H   0  0  0  0  0  0  0  0  0  0  0  0
   -2.7306   -0.6070    1.8115 H   0  0  0  0  0  0  0  0  0  0  0  0
   -5.1227   -1.0651    1.7809 H   0  0  0  0  0  0  0  0  0  0  0  0
   -5.3440    0.3987   -2.2564 H   0  0  0  0  0  0  0  0  0  0  0  0
   -2.9461    0.8290   -2.2255 H   0  0  0  0  0  0  0  0  0  0  0  0
  8  6  1  0
  7  6  1  0
  6  5  1  0
  1  2  2  0
  4  3  1  0
  2  3  1  0
  2  5  1  0
  5  9  1  0
  9 10  1  0
 10 11  2  0
 10 12  1  0
 13 12  2  0
 13 14  1  0
 12 17  1  0
 14 15  2  0
 17 16  2  0
 15 16  1  0
 15 18  1  0
 19 18  2  0
 19 20  1  0
 18 24  1  0
 20 21  2  0
 24 23  2  0
 21 23  1  0
 21 22  1  0
  3 25  1  0
  4 26  1  0
  5 27  1  6
  6 28  1  6
  7 29  1  0
  8 30  1  0
  8 31  1  0
  8 32  1  0
  9 33  1  0
 13 34  1  0
 14 35  1  0
 16 36  1  0
 17 37  1  0
 19 38  1  0
 20 39  1  0
 23 40  1  0
 24 41  1  0
M  END
