
     RDKit          3D

 21 20  0  0  0  0  0  0  0  0999 V2000
   -2.4752   -1.9087   -0.1072 O   0  0  0  0  0  0  0  0  0  0  0  0
   -2.3961   -0.7118   -0.1837 C   0  0  0  0  0  0  0  0  0  0  0  0
   -3.4410    0.1038   -0.1554 O   0  0  0  0  0  0  0  0  0  0  0  0
   -1.1045    0.0667   -0.3486 C   0  0  2  0  0  0  0  0  0  0  0  0
    0.1070   -0.7454    0.1131 C   0  0  0  0  0  0  0  0  0  0  0  0
    1.4233   -0.0160   -0.1256 C   0  0  0  0  0  0  0  0  0  0  0  0
    2.6175   -0.9097    0.2168 C   0  0  0  0  0  0  0  0  0  0  0  0
    3.8943   -0.2357    0.0202 C   0  0  0  0  0  0  0  0  0  0  0  0
    4.9383    0.3368   -0.1497 C   0  0  0  0  0  0  0  0  0  0  0  0
   -1.1898    1.3670    0.4169 C   0  0  0  0  0  0  0  0  0  0  0  0
   -1.1225    2.4591   -0.0825 O   0  0  0  0  0  0  0  0  0  0  0  0
   -4.2657   -0.3996   -0.0681 H   0  0  0  0  0  0  0  0  0  0  0  0
   -1.0086    0.3023   -1.4155 H   0  0  0  0  0  0  0  0  0  0  0  0
    0.0036   -0.9901    1.1743 H   0  0  0  0  0  0  0  0  0  0  0  0
    0.1107   -1.6926   -0.4286 H   0  0  0  0  0  0  0  0  0  0  0  0
    1.4930    0.2955   -1.1707 H   0  0  0  0  0  0  0  0  0  0  0  0
    1.4775    0.8928    0.4790 H   0  0  0  0  0  0  0  0  0  0  0  0
    2.5459   -1.2447    1.2552 H   0  0  0  0  0  0  0  0  0  0  0  0
    2.5929   -1.8119   -0.4005 H   0  0  0  0  0  0  0  0  0  0  0  0
    5.8652    0.8414   -0.2981 H   0  0  0  0  0  0  0  0  0  0  0  0
   -1.2896    1.2424    1.5106 H   0  0  0  0  0  0  0  0  0  0  0  0
  9  8  3  0
  8  7  1  0
  7  6  1  0
  1  2  2  0
  6  5  1  0
  3  2  1  0
  2  4  1  0
  5  4  1  0
  4 10  1  0
 10 11  2  0
  3 12  1  0
  4 13  1  6
  5 14  1  0
  5 15  1  0
  6 16  1  0
  6 17  1  0
  7 18  1  0
  7 19  1  0
  9 20  1  0
 10 21  1  0
M  END
