
     RDKit          3D

 37 39  0  0  0  0  0  0  0  0999 V2000
   -2.2104    0.5646   -4.3110 C   0  0  0  0  0  0  0  0  0  0  0  0
   -1.3847   -0.5233   -4.3828 N   0  0  0  0  0  0  0  0  0  0  0  0
   -3.4761    0.0724   -4.4453 C   0  0  0  0  0  0  0  0  0  0  0  0
   -3.4421   -1.2877   -4.5880 N   0  0  0  0  0  0  0  0  0  0  0  0
   -2.1755   -1.6074   -4.5400 C   0  0  0  0  0  0  0  0  0  0  0  0
    0.0441   -0.5396   -4.1995 C   0  0  0  0  0  0  0  0  0  0  0  0
    0.4207   -0.6078   -2.7156 C   0  0  2  0  0  0  0  0  0  0  0  0
   -0.2535   -1.6843   -2.1035 O   0  0  0  0  0  0  0  0  0  0  0  0
   -0.0378    0.5649   -2.0938 O   0  0  0  0  0  0  0  0  0  0  0  0
   -0.6340    0.2022   -0.8625 C   0  0  0  0  0  0  0  0  0  0  0  0
   -1.1920   -1.1732   -1.1712 C   0  0  0  0  0  0  0  0  0  0  0  0
    1.9234   -0.8046   -2.5171 C   0  0  0  0  0  0  0  0  0  0  0  0
    2.7860    0.3249   -3.0844 C   0  0  0  0  0  0  0  0  0  0  0  0
    4.2378    0.1059   -2.7637 C   0  0  0  0  0  0  0  0  0  0  0  0
    4.7808    0.5689   -1.5678 C   0  0  0  0  0  0  0  0  0  0  0  0
    5.0643   -0.6039   -3.6302 C   0  0  0  0  0  0  0  0  0  0  0  0
    6.3950   -0.8475   -3.3215 C   0  0  0  0  0  0  0  0  0  0  0  0
    6.1084    0.3365   -1.2397 C   0  0  0  0  0  0  0  0  0  0  0  0
    6.9055   -0.3732   -2.1238 C   0  0  0  0  0  0  0  0  0  0  0  0
    8.5693   -0.6684   -1.7278 Cl  0  0  0  0  0  0  0  0  0  0  0  0
   -1.8354    1.5658   -4.1846 H   0  0  0  0  0  0  0  0  0  0  0  0
   -4.4034    0.6248   -4.4513 H   0  0  0  0  0  0  0  0  0  0  0  0
   -1.7678   -2.6036   -4.6243 H   0  0  0  0  0  0  0  0  0  0  0  0
    0.4528   -1.4057   -4.7219 H   0  0  0  0  0  0  0  0  0  0  0  0
    0.4692    0.3503   -4.6635 H   0  0  0  0  0  0  0  0  0  0  0  0
   -1.3988    0.9345   -0.6060 H   0  0  0  0  0  0  0  0  0  0  0  0
    0.1065    0.1675   -0.0555 H   0  0  0  0  0  0  0  0  0  0  0  0
   -1.2298   -1.8277   -0.3002 H   0  0  0  0  0  0  0  0  0  0  0  0
   -2.1932   -1.1141   -1.6110 H   0  0  0  0  0  0  0  0  0  0  0  0
    2.2178   -1.7553   -2.9703 H   0  0  0  0  0  0  0  0  0  0  0  0
    2.1138   -0.9010   -1.4436 H   0  0  0  0  0  0  0  0  0  0  0  0
    2.4573    1.2795   -2.6688 H   0  0  0  0  0  0  0  0  0  0  0  0
    2.6625    0.3916   -4.1675 H   0  0  0  0  0  0  0  0  0  0  0  0
    4.1608    1.1274   -0.8764 H   0  0  0  0  0  0  0  0  0  0  0  0
    4.6689   -0.9743   -4.5686 H   0  0  0  0  0  0  0  0  0  0  0  0
    7.0228   -1.3986   -4.0086 H   0  0  0  0  0  0  0  0  0  0  0  0
    6.5139    0.7078   -0.3082 H   0  0  0  0  0  0  0  0  0  0  0  0
  1  2  1  0
  1  3  2  0
  1 21  1  0
  2  5  1  0
  2  6  1  0
  3  4  1  0
  3 22  1  0
  4  5  2  0
  5 23  1  0
  7  6  1  6
  6 24  1  0
  6 25  1  0
  7  9  1  0
  7 12  1  0
  7  8  1  0
  8 11  1  0
  9 10  1  0
 10 11  1  0
 10 26  1  0
 10 27  1  0
 11 28  1  0
 11 29  1  0
 12 13  1  0
 12 30  1  0
 12 31  1  0
 13 14  1  0
 13 32  1  0
 13 33  1  0
 14 15  2  0
 14 16  1  0
 15 18  1  0
 15 34  1  0
 16 17  2  0
 16 35  1  0
 17 19  1  0
 17 36  1  0
 18 19  2  0
 18 37  1  0
 19 20  1  0
M  END
