
     RDKit          3D

  7  6  0  0  0  0  0  0  0  0999 V2000
   11.3069   39.3470   13.1316 P   0  0  1  0  0  0  0  0  0  0  0  0
   10.2424   39.9447   13.9946 O   0  0  0  0  0  0  0  0  0  0  0  0
   11.1131   38.0594   12.3878 O   0  0  0  0  0  0  0  0  0  0  0  0
   11.7321   40.5260   12.0685 O   0  0  0  0  0  0  0  0  0  0  0  0
   12.6359   39.2288   14.0911 O   0  0  0  0  0  0  0  0  0  0  0  0
   12.2268   40.1823   11.3170 H   0  0  0  0  0  0  0  0  0  0  0  0
   13.3227   38.6750   13.7049 H   0  0  0  0  0  0  0  0  0  0  0  0
  1  2  2  0
  1  3  1  6
  1  4  1  0
  1  5  1  0
  4  6  1  0
  5  7  1  0
M  CHG  1   3  -1
M  END
