
     RDKit          3D

 57 60  0  0  0  0  0  0  0  0999 V2000
    6.5211    3.1005    2.3349 C   0  0  0  0  0  0  0  0  0  0  0  0
    6.4480    1.9493    1.3863 C   0  0  0  0  0  0  0  0  0  0  0  0
    5.3007    1.5391    0.8162 C   0  0  0  0  0  0  0  0  0  0  0  0
    5.1926    0.4898   -0.0587 N   0  0  0  0  0  0  0  0  0  0  0  0
    6.3033   -0.2377   -0.4120 C   0  0  0  0  0  0  0  0  0  0  0  0
    6.2828   -1.1798   -1.1789 O   0  0  0  0  0  0  0  0  0  0  0  0
    7.4711    0.1813    0.1757 N   0  0  0  0  0  0  0  0  0  0  0  0
    7.6592    1.2300    1.0564 C   0  0  0  0  0  0  0  0  0  0  0  0
    8.7684    1.4855    1.4910 O   0  0  0  0  0  0  0  0  0  0  0  0
    3.8689    0.1759   -0.6195 C   0  0  1  0  0  0  0  0  0  0  0  0
    3.7788    0.3628   -2.1289 C   0  0  0  0  0  0  0  0  0  0  0  0
    2.3406    0.1002   -2.5640 C   0  0  0  0  0  0  0  0  0  0  0  0
    1.8523   -1.2450   -2.0536 C   0  0  0  0  0  0  0  0  0  0  0  0
    1.9675   -1.3168   -0.6064 N   0  0  0  0  0  0  0  0  0  0  0  0
    3.3513   -1.1946   -0.1863 C   0  0  0  0  0  0  0  0  0  0  0  0
    1.3340   -2.4995   -0.0666 C   0  0  0  0  0  0  0  0  0  0  0  0
   -0.1700   -2.4372   -0.1632 C   0  0  0  0  0  0  0  0  0  0  0  0
   -0.9109   -3.5764   -0.4594 C   0  0  0  0  0  0  0  0  0  0  0  0
   -2.2963   -3.5121   -0.5148 C   0  0  0  0  0  0  0  0  0  0  0  0
   -2.9641   -2.3177   -0.2868 C   0  0  0  0  0  0  0  0  0  0  0  0
   -2.2172   -1.1832    0.0110 C   0  0  0  0  0  0  0  0  0  0  0  0
   -0.8331   -1.2391    0.0778 C   0  0  0  0  0  0  0  0  0  0  0  0
   -2.7827    0.0490    0.1959 O   0  0  0  0  0  0  0  0  0  0  0  0
   -4.0710    0.1503    0.6322 C   0  0  0  0  0  0  0  0  0  0  0  0
   -4.4855   -0.4451    1.8193 C   0  0  0  0  0  0  0  0  0  0  0  0
   -5.7886   -0.2638    2.2478 C   0  0  0  0  0  0  0  0  0  0  0  0
   -6.6799    0.5074    1.5116 C   0  0  0  0  0  0  0  0  0  0  0  0
   -6.2502    1.0993    0.3339 C   0  0  0  0  0  0  0  0  0  0  0  0
   -4.9453    0.9187   -0.1156 C   0  0  0  0  0  0  0  0  0  0  0  0
   -7.1640    1.9561   -0.4865 C   0  0  1  0  0  0  0  0  0  0  0  0
   -7.2061    1.5522   -1.7640 F   0  0  0  0  0  0  0  0  0  0  0  0
   -8.4193    1.9552   -0.0331 F   0  0  0  0  0  0  0  0  0  0  0  0
   -6.7537    3.2330   -0.5051 F   0  0  0  0  0  0  0  0  0  0  0  0
    6.9040    2.7910    3.3083 H   0  0  0  0  0  0  0  0  0  0  0  0
    7.1832    3.8831    1.9616 H   0  0  0  0  0  0  0  0  0  0  0  0
    5.5372    3.5416    2.4864 H   0  0  0  0  0  0  0  0  0  0  0  0
    4.3688    2.0425    1.0341 H   0  0  0  0  0  0  0  0  0  0  0  0
    8.2926   -0.3550   -0.0757 H   0  0  0  0  0  0  0  0  0  0  0  0
    3.1978    0.9066   -0.1636 H   0  0  0  0  0  0  0  0  0  0  0  0
    4.0860    1.3761   -2.3970 H   0  0  0  0  0  0  0  0  0  0  0  0
    4.4478   -0.3301   -2.6403 H   0  0  0  0  0  0  0  0  0  0  0  0
    1.6848    0.8858   -2.1782 H   0  0  0  0  0  0  0  0  0  0  0  0
    2.2684    0.1273   -3.6528 H   0  0  0  0  0  0  0  0  0  0  0  0
    0.8069   -1.3855   -2.3352 H   0  0  0  0  0  0  0  0  0  0  0  0
    2.4249   -2.0571   -2.5358 H   0  0  0  0  0  0  0  0  0  0  0  0
    3.9761   -1.9979   -0.6014 H   0  0  0  0  0  0  0  0  0  0  0  0
    3.3986   -1.2681    0.9033 H   0  0  0  0  0  0  0  0  0  0  0  0
    1.6916   -3.4252   -0.5470 H   0  0  0  0  0  0  0  0  0  0  0  0
    1.6105   -2.5811    0.9895 H   0  0  0  0  0  0  0  0  0  0  0  0
   -0.4047   -4.5128   -0.6601 H   0  0  0  0  0  0  0  0  0  0  0  0
   -2.8681   -4.3985   -0.7569 H   0  0  0  0  0  0  0  0  0  0  0  0
   -4.0434   -2.2794   -0.3567 H   0  0  0  0  0  0  0  0  0  0  0  0
   -0.2638   -0.3430    0.2928 H   0  0  0  0  0  0  0  0  0  0  0  0
   -3.7970   -1.0403    2.4054 H   0  0  0  0  0  0  0  0  0  0  0  0
   -6.1150   -0.7230    3.1707 H   0  0  0  0  0  0  0  0  0  0  0  0
   -7.6915    0.6354    1.8694 H   0  0  0  0  0  0  0  0  0  0  0  0
   -4.5970    1.3705   -1.0363 H   0  0  0  0  0  0  0  0  0  0  0  0
  9  8  2  0
  7  8  1  0
  7  5  1  0
  8  2  1  0
 30 31  1  6
  6  5  2  0
  5  4  1  0
  2  1  1  0
  2  3  2  0
 33 30  1  0
 30 32  1  0
 30 28  1  0
  4  3  1  0
  4 10  1  0
 28 27  2  0
 28 29  1  0
 27 26  1  0
 10 15  1  0
 10 11  1  0
 29 24  2  0
 26 25  2  0
 15 14  1  0
 11 12  1  0
 24 25  1  0
 24 23  1  0
 14 16  1  0
 14 13  1  0
 23 21  1  0
 12 13  1  0
 22 21  2  0
 22 17  1  0
 16 17  1  0
 21 20  1  0
 17 18  2  0
 20 19  2  0
 18 19  1  0
  1 34  1  0
  1 35  1  0
  1 36  1  0
  3 37  1  0
  7 38  1  0
 10 39  1  1
 11 40  1  0
 11 41  1  0
 12 42  1  0
 12 43  1  0
 13 44  1  0
 13 45  1  0
 15 46  1  0
 15 47  1  0
 16 48  1  0
 16 49  1  0
 18 50  1  0
 19 51  1  0
 20 52  1  0
 22 53  1  0
 25 54  1  0
 26 55  1  0
 27 56  1  0
 29 57  1  0
M  END
