
     RDKit          3D

 16 16  0  0  0  0  0  0  0  0999 V2000
   -3.5133   -1.2469    0.1392 O   0  0  0  0  0  0  0  0  0  0  0  0
   -2.9112   -0.2035    0.0586 C   0  0  0  0  0  0  0  0  0  0  0  0
   -3.5011    0.9813    0.0163 O   0  0  0  0  0  0  0  0  0  0  0  0
   -1.4340   -0.1128   -0.0047 C   0  0  0  0  0  0  0  0  0  0  0  0
   -0.7003   -1.2959    0.0036 C   0  0  0  0  0  0  0  0  0  0  0  0
    0.6758   -1.2557   -0.0550 C   0  0  0  0  0  0  0  0  0  0  0  0
    1.5885   -2.7179   -0.0476 Cl  0  0  0  0  0  0  0  0  0  0  0  0
    1.3693   -0.0435   -0.1206 C   0  0  0  0  0  0  0  0  0  0  0  0
    2.6935   -0.0731   -0.1736 O   0  0  0  0  0  0  0  0  0  0  0  0
    0.6096    1.1298   -0.1260 C   0  0  0  0  0  0  0  0  0  0  0  0
    1.4464    2.6416   -0.2076 Cl  0  0  0  0  0  0  0  0  0  0  0  0
   -0.7690    1.1074   -0.0701 C   0  0  0  0  0  0  0  0  0  0  0  0
   -4.4630    0.8749    0.0579 H   0  0  0  0  0  0  0  0  0  0  0  0
   -1.2046   -2.2510    0.0552 H   0  0  0  0  0  0  0  0  0  0  0  0
    3.0665    0.8182   -0.2226 H   0  0  0  0  0  0  0  0  0  0  0  0
   -1.3116    2.0419   -0.0765 H   0  0  0  0  0  0  0  0  0  0  0  0
  1  2  2  0
  3  2  1  0
  2  4  1  0
  4  5  2  0
  4 12  1  0
  5  6  1  0
 12 10  2  0
  6  7  1  0
  6  8  2  0
 10  8  1  0
 10 11  1  0
  8  9  1  0
  3 13  1  0
  5 14  1  0
  9 15  1  0
 12 16  1  0
M  END
