
     RDKit          3D

 83 86  0  0  0  0  0  0  0  0999 V2000
   -0.3599   -4.0278   -1.9274 N   0  0  0  0  0  0  0  0  0  0  0  0
   -1.1364   -6.4022   -3.2514 O   0  0  0  0  0  0  0  0  0  0  0  0
   -0.9246   -5.1411   -1.1848 C   0  0  0  0  0  0  0  0  0  0  0  0
   -1.8130   -5.9733   -2.0949 C   0  0  0  0  0  0  0  0  0  0  0  0
    0.2784   -4.4398   -3.1681 C   0  0  0  0  0  0  0  0  0  0  0  0
   -0.6686   -5.2932   -3.9869 C   0  0  0  0  0  0  0  0  0  0  0  0
   -0.0110   -2.8194   -1.3864 C   0  0  0  0  0  0  0  0  0  0  0  0
    0.5796   -1.9686   -2.0408 O   0  0  0  0  0  0  0  0  0  0  0  0
   -0.3174   -2.6256   -0.0707 N   0  0  0  0  0  0  0  0  0  0  0  0
   -0.3850   -1.3268    0.5402 C   0  0  1  0  0  0  0  0  0  0  0  0
    0.9070   -0.4933    0.4704 C   0  0  0  0  0  0  0  0  0  0  0  0
    2.1290   -1.3208    0.8317 C   0  0  0  0  0  0  0  0  0  0  0  0
    3.5997   -0.2987    0.7543 S   0  0  1  0  0  0  0  0  0  0  0  0
    4.8930   -1.3839    1.2940 C   0  0  0  0  0  0  0  0  0  0  0  0
   -1.5525   -0.4990   -0.0176 C   0  0  0  0  0  0  0  0  0  0  0  0
   -2.1109   -0.7856   -1.0605 O   0  0  0  0  0  0  0  0  0  0  0  0
    3.8442    0.0504   -0.6447 O   0  0  0  0  0  0  0  0  0  0  0  0
    3.4654    0.7856    1.7287 O   0  0  0  0  0  0  0  0  0  0  0  0
    5.2434   -1.4099    2.6371 C   0  0  0  0  0  0  0  0  0  0  0  0
    5.5255   -2.1924    0.3585 C   0  0  0  0  0  0  0  0  0  0  0  0
    6.2517   -2.2688    3.0485 C   0  0  0  0  0  0  0  0  0  0  0  0
    6.5292   -3.0489    0.7847 C   0  0  0  0  0  0  0  0  0  0  0  0
    6.8917   -3.0856    2.1253 C   0  0  0  0  0  0  0  0  0  0  0  0
   -0.9101    3.1270   -0.3448 C   0  0  0  0  0  0  0  0  0  0  0  0
   -1.8647    0.5725    0.7331 N   0  0  0  0  0  0  0  0  0  0  0  0
   -2.7981    1.6146    0.3498 C   0  0  1  0  0  0  0  0  0  0  0  0
   -4.1084    1.5260    1.1282 C   0  0  0  0  0  0  0  0  0  0  0  0
   -6.1605    0.1850    1.6457 C   0  0  0  0  0  0  0  0  0  0  0  0
   -7.3256    0.5524    0.9761 C   0  0  0  0  0  0  0  0  0  0  0  0
   -6.2488   -0.1496    2.9958 C   0  0  0  0  0  0  0  0  0  0  0  0
   -8.5480    0.5822    1.6349 C   0  0  0  0  0  0  0  0  0  0  0  0
   -7.4678   -0.1204    3.6597 C   0  0  0  0  0  0  0  0  0  0  0  0
   -8.6231    0.2455    2.9802 C   0  0  0  0  0  0  0  0  0  0  0  0
   -4.8310    0.1921    0.9439 C   0  0  0  0  0  0  0  0  0  0  0  0
   -2.1296    2.9763    0.5545 C   0  0  0  0  0  0  0  0  0  0  0  0
    3.6075    4.2391   -2.7009 C   0  0  0  0  0  0  0  0  0  0  0  0
    3.5699    3.3701   -1.6173 C   0  0  0  0  0  0  0  0  0  0  0  0
    2.5245    3.4371   -0.7094 C   0  0  0  0  0  0  0  0  0  0  0  0
    1.5212    4.3773   -0.9111 C   0  0  0  0  0  0  0  0  0  0  0  0
    1.5417    5.2474   -1.9918 C   0  0  0  0  0  0  0  0  0  0  0  0
    2.5984    5.1748   -2.8877 C   0  0  0  0  0  0  0  0  0  0  0  0
    0.1645    4.4370    0.2278 S   0  0  1  0  0  0  0  0  0  0  0  0
   -0.5306    5.7140    0.0751 O   0  0  0  0  0  0  0  0  0  0  0  0
    0.6601    4.0625    1.5521 O   0  0  0  0  0  0  0  0  0  0  0  0
   -0.1313   -5.7643   -0.7546 H   0  0  0  0  0  0  0  0  0  0  0  0
   -1.5566   -4.8005   -0.3663 H   0  0  0  0  0  0  0  0  0  0  0  0
   -2.1489   -6.8615   -1.5586 H   0  0  0  0  0  0  0  0  0  0  0  0
   -2.6999   -5.3829   -2.3648 H   0  0  0  0  0  0  0  0  0  0  0  0
    0.5626   -3.5646   -3.7467 H   0  0  0  0  0  0  0  0  0  0  0  0
    1.1927   -5.0060   -2.9499 H   0  0  0  0  0  0  0  0  0  0  0  0
   -0.1488   -5.6761   -4.8659 H   0  0  0  0  0  0  0  0  0  0  0  0
   -1.5122   -4.6784   -4.3307 H   0  0  0  0  0  0  0  0  0  0  0  0
   -0.8370   -3.3296    0.4217 H   0  0  0  0  0  0  0  0  0  0  0  0
   -0.5833   -1.5184    1.5984 H   0  0  0  0  0  0  0  0  0  0  0  0
    1.0296   -0.0640   -0.5219 H   0  0  0  0  0  0  0  0  0  0  0  0
    0.8130    0.3280    1.1822 H   0  0  0  0  0  0  0  0  0  0  0  0
    2.0687   -1.7224    1.8448 H   0  0  0  0  0  0  0  0  0  0  0  0
    2.2876   -2.1428    0.1346 H   0  0  0  0  0  0  0  0  0  0  0  0
    4.7478   -0.7700    3.3545 H   0  0  0  0  0  0  0  0  0  0  0  0
    5.2487   -2.1580   -0.6866 H   0  0  0  0  0  0  0  0  0  0  0  0
    6.5393   -2.2959    4.0907 H   0  0  0  0  0  0  0  0  0  0  0  0
    7.0307   -3.6852    0.0684 H   0  0  0  0  0  0  0  0  0  0  0  0
    7.6791   -3.7522    2.4515 H   0  0  0  0  0  0  0  0  0  0  0  0
   -0.2976    2.2236   -0.3479 H   0  0  0  0  0  0  0  0  0  0  0  0
   -1.1875    3.3540   -1.3750 H   0  0  0  0  0  0  0  0  0  0  0  0
   -1.4266    0.6691    1.6375 H   0  0  0  0  0  0  0  0  0  0  0  0
   -3.0118    1.4754   -0.7124 H   0  0  0  0  0  0  0  0  0  0  0  0
   -3.9169    1.6986    2.1927 H   0  0  0  0  0  0  0  0  0  0  0  0
   -4.7565    2.3405    0.7936 H   0  0  0  0  0  0  0  0  0  0  0  0
   -7.2762    0.8134   -0.0749 H   0  0  0  0  0  0  0  0  0  0  0  0
   -5.3518   -0.4390    3.5321 H   0  0  0  0  0  0  0  0  0  0  0  0
   -9.4435    0.8646    1.0961 H   0  0  0  0  0  0  0  0  0  0  0  0
   -7.5171   -0.3860    4.7082 H   0  0  0  0  0  0  0  0  0  0  0  0
   -9.5753    0.2634    3.4947 H   0  0  0  0  0  0  0  0  0  0  0  0
   -4.9699   -0.0018   -0.1224 H   0  0  0  0  0  0  0  0  0  0  0  0
   -4.2099   -0.6162    1.3356 H   0  0  0  0  0  0  0  0  0  0  0  0
   -2.8504    3.7665    0.3433 H   0  0  0  0  0  0  0  0  0  0  0  0
   -1.8508    3.0730    1.6079 H   0  0  0  0  0  0  0  0  0  0  0  0
    4.3505    2.6359   -1.4759 H   0  0  0  0  0  0  0  0  0  0  0  0
    2.5027    2.7681    0.1415 H   0  0  0  0  0  0  0  0  0  0  0  0
    0.7538    5.9741   -2.1366 H   0  0  0  0  0  0  0  0  0  0  0  0
    2.6316    5.8500   -3.7319 H   0  0  0  0  0  0  0  0  0  0  0  0
    4.4270    4.1849   -3.4050 H   0  0  0  0  0  0  0  0  0  0  0  0
  1  3  1  0
  1  5  1  0
  1  7  1  0
  2  4  1  0
  2  6  1  0
  3  4  1  0
  3 45  1  0
  3 46  1  0
  4 47  1  0
  4 48  1  0
  5  6  1  0
  5 49  1  0
  5 50  1  0
  6 51  1  0
  6 52  1  0
  7  8  2  0
  7  9  1  0
  9 10  1  0
  9 53  1  0
 10 11  1  0
 10 15  1  0
 10 54  1  1
 11 12  1  0
 11 55  1  0
 11 56  1  0
 13 12  1  6
 12 57  1  0
 12 58  1  0
 13 14  1  0
 13 17  2  0
 13 18  2  0
 14 19  2  0
 14 20  1  0
 15 16  2  0
 15 25  1  0
 19 21  1  0
 19 59  1  0
 20 22  2  0
 20 60  1  0
 21 23  2  0
 21 61  1  0
 22 23  1  0
 22 62  1  0
 23 63  1  0
 24 35  1  0
 42 24  1  6
 24 64  1  0
 24 65  1  0
 25 26  1  0
 25 66  1  0
 26 27  1  0
 26 35  1  0
 26 67  1  6
 27 34  1  0
 27 68  1  0
 27 69  1  0
 28 29  2  0
 28 30  1  0
 28 34  1  0
 29 31  1  0
 29 70  1  0
 30 32  2  0
 30 71  1  0
 31 33  2  0
 31 72  1  0
 32 33  1  0
 32 73  1  0
 33 74  1  0
 34 75  1  0
 34 76  1  0
 35 77  1  0
 35 78  1  0
 36 37  2  0
 36 41  1  0
 36 83  1  0
 37 38  1  0
 37 79  1  0
 38 39  2  0
 38 80  1  0
 39 40  1  0
 39 42  1  0
 40 41  2  0
 40 81  1  0
 41 82  1  0
 42 43  2  0
 42 44  2  0
M  END
