
     RDKit          3D

 26 27  0  0  0  0  0  0  0  0999 V2000
   -1.7925    0.1745    0.2211 C   0  0  0  0  0  0  0  0  0  0  0  0
   -4.2827    0.4247    0.2785 C   0  0  0  0  0  0  0  0  0  0  0  0
   -6.2680   -0.4845    1.0708 C   0  0  0  0  0  0  0  0  0  0  0  0
    4.9789   -0.3391   -1.6742 N   0  0  0  0  0  0  0  0  0  0  0  0
    5.1531   -1.3607    0.6572 O   0  0  0  0  0  0  0  0  0  0  0  0
    5.1325    1.1461    0.3153 O   0  0  0  0  0  0  0  0  0  0  0  0
    2.9493   -0.1740    0.0238 C   0  0  0  0  0  0  0  0  0  0  0  0
    2.2420   -1.2284    0.2000 N   0  0  0  0  0  0  0  0  0  0  0  0
    0.9228   -0.9842    0.2296 N   0  0  0  0  0  0  0  0  0  0  0  0
    0.6527    0.2786    0.0740 C   0  0  0  0  0  0  0  0  0  0  0  0
   -0.5893    0.8394    0.0696 N   0  0  0  0  0  0  0  0  0  0  0  0
   -1.8801   -1.0180    0.3494 O   0  0  0  0  0  0  0  0  0  0  0  0
   -2.9737    1.1273    0.2156 C   0  0  0  0  0  0  0  0  0  0  0  0
   -5.0956    0.2669    1.3601 C   0  0  0  0  0  0  0  0  0  0  0  0
   -6.3228   -0.8846   -0.2284 C   0  0  0  0  0  0  0  0  0  0  0  0
   -4.9515   -0.3501   -1.1060 S   0  0  0  0  0  0  0  0  0  0  0  0
    2.0530    1.2843   -0.1242 S   0  0  0  0  0  0  0  0  0  0  0  0
   -7.0333   -0.7141    1.7982 H   0  0  0  0  0  0  0  0  0  0  0  0
    5.1307   -1.2889   -1.9929 H   0  0  0  0  0  0  0  0  0  0  0  0
    5.6589    0.3161   -2.0422 H   0  0  0  0  0  0  0  0  0  0  0  0
   -0.6384    1.8412   -0.0513 H   0  0  0  0  0  0  0  0  0  0  0  0
   -2.8778    1.7909    1.0801 H   0  0  0  0  0  0  0  0  0  0  0  0
   -2.9043    1.7733   -0.6650 H   0  0  0  0  0  0  0  0  0  0  0  0
   -4.8637    0.6752    2.3343 H   0  0  0  0  0  0  0  0  0  0  0  0
   -7.0941   -1.4593   -0.7173 H   0  0  0  0  0  0  0  0  0  0  0  0
    4.7193   -0.1888   -0.0711 S   0  0  1  0  0  0  0  0  0  0  0  0
 15 16  1  0
 15  3  2  0
 16  2  1  0
  3 14  1  0
  2 14  2  0
  2 13  1  0
 13  1  1  0
  1 12  2  0
  1 11  1  0
 11 10  1  0
 10  9  2  0
 10 17  1  0
  9  8  1  0
 17  7  1  0
  8  7  2  0
  7 26  1  0
 26  4  1  6
  6 26  2  0
 26  5  2  0
  3 18  1  0
  4 19  1  0
  4 20  1  0
 11 21  1  0
 13 22  1  0
 13 23  1  0
 14 24  1  0
 15 25  1  0
M  END
