
     RDKit          3D

 61 60  0  0  0  0  0  0  0  0999 V2000
   -5.3852    3.4972    1.6234 N   0  0  0  0  0  0  0  0  0  0  0  0
   -4.5615    3.7188    0.4613 C   0  0  2  0  0  0  0  0  0  0  0  0
   -5.2394    4.5539   -0.6185 C   0  0  0  0  0  0  0  0  0  0  0  0
   -6.4188    4.8002   -0.6544 O   0  0  0  0  0  0  0  0  0  0  0  0
   -4.3774    4.9791   -1.5351 O   0  0  0  0  0  0  0  0  0  0  0  0
   -4.1107    2.3835   -0.1457 C   0  0  0  0  0  0  0  0  0  0  0  0
   -3.3072    1.5532    0.8465 C   0  0  0  0  0  0  0  0  0  0  0  0
   -2.8766    0.2335    0.2535 C   0  0  0  0  0  0  0  0  0  0  0  0
   -3.6263   -0.4712   -0.4084 O   0  0  0  0  0  0  0  0  0  0  0  0
   -1.6059   -0.1305    0.5004 N   0  0  0  0  0  0  0  0  0  0  0  0
   -1.0862   -1.3860    0.0347 C   0  0  2  0  0  0  0  0  0  0  0  0
   -1.8223   -2.5571    0.6946 C   0  0  0  0  0  0  0  0  0  0  0  0
   -2.2453   -2.4964    1.8355 O   0  0  0  0  0  0  0  0  0  0  0  0
    0.3969   -1.5015    0.3742 C   0  0  0  0  0  0  0  0  0  0  0  0
    1.3185   -0.1408   -0.3975 S   0  0  0  0  0  0  0  0  0  0  0  0
    2.9966   -0.5608    0.1550 C   0  0  0  0  0  0  0  0  0  0  0  0
    3.9585    0.5482   -0.2444 C   0  0  0  0  0  0  0  0  0  0  0  0
    5.3962    0.2326    0.1527 C   0  0  0  0  0  0  0  0  0  0  0  0
    6.3611    1.3565   -0.2049 C   0  0  0  0  0  0  0  0  0  0  0  0
    7.8050    1.0556    0.1756 C   0  0  0  0  0  0  0  0  0  0  0  0
    8.7618    2.1912   -0.1655 C   0  0  0  0  0  0  0  0  0  0  0  0
   10.2081    1.8987    0.2138 C   0  0  0  0  0  0  0  0  0  0  0  0
   11.1512    3.0457   -0.1227 C   0  0  0  0  0  0  0  0  0  0  0  0
   -1.8987   -3.6574   -0.0640 N   0  0  0  0  0  0  0  0  0  0  0  0
   -2.4749   -4.8781    0.4263 C   0  0  0  0  0  0  0  0  0  0  0  0
   -2.3180   -5.9758   -0.5943 C   0  0  0  0  0  0  0  0  0  0  0  0
   -2.8330   -7.1095   -0.1526 O   0  0  0  0  0  0  0  0  0  0  0  0
   -1.7930   -5.8381   -1.6693 O   0  0  0  0  0  0  0  0  0  0  0  0
   -5.6299    4.3766    2.0596 H   0  0  0  0  0  0  0  0  0  0  0  0
   -6.2568    3.0553    1.3577 H   0  0  0  0  0  0  0  0  0  0  0  0
   -3.6669    4.2674    0.7759 H   0  0  0  0  0  0  0  0  0  0  0  0
   -4.8404    5.4842   -2.2201 H   0  0  0  0  0  0  0  0  0  0  0  0
   -3.5058    2.5729   -1.0341 H   0  0  0  0  0  0  0  0  0  0  0  0
   -4.9896    1.8234   -0.4755 H   0  0  0  0  0  0  0  0  0  0  0  0
   -3.9143    1.3425    1.7302 H   0  0  0  0  0  0  0  0  0  0  0  0
   -2.4414    2.1215    1.1949 H   0  0  0  0  0  0  0  0  0  0  0  0
   -1.0238    0.4529    1.0803 H   0  0  0  0  0  0  0  0  0  0  0  0
   -1.2040   -1.4518   -1.0522 H   0  0  0  0  0  0  0  0  0  0  0  0
    0.7781   -2.4544    0.0048 H   0  0  0  0  0  0  0  0  0  0  0  0
    0.5424   -1.4743    1.4569 H   0  0  0  0  0  0  0  0  0  0  0  0
    3.2955   -1.5114   -0.2917 H   0  0  0  0  0  0  0  0  0  0  0  0
    2.9893   -0.6869    1.2398 H   0  0  0  0  0  0  0  0  0  0  0  0
    3.6455    1.4847    0.2261 H   0  0  0  0  0  0  0  0  0  0  0  0
    3.9071    0.7092   -1.3255 H   0  0  0  0  0  0  0  0  0  0  0  0
    5.7162   -0.6934   -0.3365 H   0  0  0  0  0  0  0  0  0  0  0  0
    5.4443    0.0417    1.2300 H   0  0  0  0  0  0  0  0  0  0  0  0
    6.0392    2.2785    0.2916 H   0  0  0  0  0  0  0  0  0  0  0  0
    6.3026    1.5560   -1.2805 H   0  0  0  0  0  0  0  0  0  0  0  0
    8.1322    0.1403   -0.3300 H   0  0  0  0  0  0  0  0  0  0  0  0
    7.8619    0.8445    1.2493 H   0  0  0  0  0  0  0  0  0  0  0  0
    8.4325    3.1058    0.3407 H   0  0  0  0  0  0  0  0  0  0  0  0
    8.7045    2.4042   -1.2389 H   0  0  0  0  0  0  0  0  0  0  0  0
   10.5399    0.9895   -0.2973 H   0  0  0  0  0  0  0  0  0  0  0  0
   10.2644    1.6809    1.2849 H   0  0  0  0  0  0  0  0  0  0  0  0
   12.1770    2.8228    0.1731 H   0  0  0  0  0  0  0  0  0  0  0  0
   11.1535    3.2532   -1.1944 H   0  0  0  0  0  0  0  0  0  0  0  0
   10.8518    3.9633    0.3876 H   0  0  0  0  0  0  0  0  0  0  0  0
   -1.5720   -3.6367   -1.0181 H   0  0  0  0  0  0  0  0  0  0  0  0
   -1.9931   -5.1948    1.3556 H   0  0  0  0  0  0  0  0  0  0  0  0
   -3.5394   -4.7600    0.6522 H   0  0  0  0  0  0  0  0  0  0  0  0
   -2.7234   -7.8108   -0.8126 H   0  0  0  0  0  0  0  0  0  0  0  0
  1  2  1  0
  1 29  1  0
  1 30  1  0
  2  3  1  0
  2  6  1  0
  2 31  1  1
  3  4  2  0
  3  5  1  0
  5 32  1  0
  6  7  1  0
  6 33  1  0
  6 34  1  0
  7  8  1  0
  7 35  1  0
  7 36  1  0
  8  9  2  0
  8 10  1  0
 10 11  1  0
 10 37  1  0
 11 12  1  0
 11 14  1  0
 11 38  1  6
 12 13  2  0
 12 24  1  0
 14 15  1  0
 14 39  1  0
 14 40  1  0
 15 16  1  0
 16 17  1  0
 16 41  1  0
 16 42  1  0
 17 18  1  0
 17 43  1  0
 17 44  1  0
 18 19  1  0
 18 45  1  0
 18 46  1  0
 19 20  1  0
 19 47  1  0
 19 48  1  0
 20 21  1  0
 20 49  1  0
 20 50  1  0
 21 22  1  0
 21 51  1  0
 21 52  1  0
 22 23  1  0
 22 53  1  0
 22 54  1  0
 23 55  1  0
 23 56  1  0
 23 57  1  0
 24 25  1  0
 24 58  1  0
 25 26  1  0
 25 59  1  0
 25 60  1  0
 26 27  1  0
 26 28  2  0
 27 61  1  0
M  END
