
     RDKit          3D

 58 60  0  0  0  0  0  0  0  0999 V2000
    2.3756    0.0152   -1.8022 S   0  0  1  0  0  0  0  0  0  0  0  0
    0.8815   -0.6752   -1.1785 C   0  0  0  0  0  0  0  0  0  0  0  0
   -0.2845    0.0777   -1.1961 C   0  0  0  0  0  0  0  0  0  0  0  0
   -1.4629   -0.4642   -0.7131 C   0  0  0  0  0  0  0  0  0  0  0  0
   -1.4653   -1.7642   -0.2146 C   0  0  0  0  0  0  0  0  0  0  0  0
   -0.2933   -2.5221   -0.2075 C   0  0  0  0  0  0  0  0  0  0  0  0
    0.8774   -1.9809   -0.6927 C   0  0  0  0  0  0  0  0  0  0  0  0
    3.1963    0.8310   -0.3649 C   0  0  1  0  0  0  0  0  0  0  0  0
    2.2874    2.0160   -0.0978 C   0  0  0  0  0  0  0  0  0  0  0  0
    2.4726    3.1861   -1.0372 N   0  0  0  0  0  0  0  0  0  0  0  0
    1.4855    3.8363   -1.1112 O   0  0  0  0  0  0  0  0  0  0  0  0
    3.2093   -1.0681   -2.3058 O   0  0  0  0  0  0  0  0  0  0  0  0
    2.0297    1.1226   -2.6972 O   0  0  0  0  0  0  0  0  0  0  0  0
    1.5223    2.1085    0.8088 O   0  0  0  0  0  0  0  0  0  0  0  0
    3.2890   -0.0671    0.8671 C   0  0  0  0  0  0  0  0  0  0  0  0
    4.4002   -1.1011    0.7838 C   0  0  0  0  0  0  0  0  0  0  0  0
    5.6750   -0.4567    0.5378 N   0  0  0  0  0  0  0  0  0  0  0  0
    5.6595    0.2227   -0.7424 C   0  0  0  0  0  0  0  0  0  0  0  0
    4.5972    1.3111   -0.7919 C   0  0  0  0  0  0  0  0  0  0  0  0
    6.7793   -1.3929    0.6385 C   0  0  0  0  0  0  0  0  0  0  0  0
    8.1240   -0.7276    0.8466 C   0  0  0  0  0  0  0  0  0  0  0  0
    8.1352   -0.0633    2.0837 O   0  0  0  0  0  0  0  0  0  0  0  0
    9.3502    0.5943    2.3292 C   0  0  0  0  0  0  0  0  0  0  0  0
   -2.5616   -2.3709    0.2852 O   0  0  0  0  0  0  0  0  0  0  0  0
   -3.7800   -1.7357    0.2114 C   0  0  0  0  0  0  0  0  0  0  0  0
   -4.5505   -1.8580   -0.9342 C   0  0  0  0  0  0  0  0  0  0  0  0
   -5.7937   -1.2536   -0.9834 C   0  0  0  0  0  0  0  0  0  0  0  0
   -6.2564   -0.5319    0.1085 C   0  0  0  0  0  0  0  0  0  0  0  0
   -5.4878   -0.4076    1.2563 C   0  0  0  0  0  0  0  0  0  0  0  0
   -4.2390   -1.0151    1.2978 C   0  0  0  0  0  0  0  0  0  0  0  0
   -7.5115    0.0133   -0.0737 O   0  0  0  0  0  0  0  0  0  0  0  0
   -8.1201    0.7794    0.8374 C   0  0  1  0  0  0  0  0  0  0  0  0
   -7.4320    1.8840    1.1283 F   0  0  0  0  0  0  0  0  0  0  0  0
   -9.2863    1.1411    0.3290 F   0  0  0  0  0  0  0  0  0  0  0  0
   -8.3490    0.1385    1.9844 F   0  0  0  0  0  0  0  0  0  0  0  0
   -0.2987    1.0834   -1.5938 H   0  0  0  0  0  0  0  0  0  0  0  0
   -2.3620    0.1358   -0.7362 H   0  0  0  0  0  0  0  0  0  0  0  0
   -0.3090   -3.5348    0.1729 H   0  0  0  0  0  0  0  0  0  0  0  0
    1.7768   -2.5823   -0.6917 H   0  0  0  0  0  0  0  0  0  0  0  0
    3.5053    0.5868    1.7152 H   0  0  0  0  0  0  0  0  0  0  0  0
    2.3347   -0.5457    1.0880 H   0  0  0  0  0  0  0  0  0  0  0  0
    4.4437   -1.6134    1.7468 H   0  0  0  0  0  0  0  0  0  0  0  0
    4.1727   -1.8721    0.0312 H   0  0  0  0  0  0  0  0  0  0  0  0
    6.6190    0.7155   -0.9040 H   0  0  0  0  0  0  0  0  0  0  0  0
    5.5300   -0.4841   -1.5733 H   0  0  0  0  0  0  0  0  0  0  0  0
    4.5856    1.7691   -1.7808 H   0  0  0  0  0  0  0  0  0  0  0  0
    4.8852    2.1001   -0.0913 H   0  0  0  0  0  0  0  0  0  0  0  0
    6.5923   -2.0597    1.4845 H   0  0  0  0  0  0  0  0  0  0  0  0
    6.8531   -2.0397   -0.2515 H   0  0  0  0  0  0  0  0  0  0  0  0
    8.8999   -1.5060    0.8091 H   0  0  0  0  0  0  0  0  0  0  0  0
    8.3522   -0.0285    0.0289 H   0  0  0  0  0  0  0  0  0  0  0  0
    9.2803    1.0825    3.3010 H   0  0  0  0  0  0  0  0  0  0  0  0
   10.2012   -0.0978    2.3524 H   0  0  0  0  0  0  0  0  0  0  0  0
    9.5640    1.3604    1.5736 H   0  0  0  0  0  0  0  0  0  0  0  0
   -4.1907   -2.4252   -1.7829 H   0  0  0  0  0  0  0  0  0  0  0  0
   -6.4072   -1.3430   -1.8701 H   0  0  0  0  0  0  0  0  0  0  0  0
   -5.8104    0.1417    2.1283 H   0  0  0  0  0  0  0  0  0  0  0  0
   -3.6319   -0.9249    2.1890 H   0  0  0  0  0  0  0  0  0  0  0  0
  1  2  1  1
  1  8  1  0
  1 12  2  0
  1 13  2  0
  2  3  2  0
  2  7  1  0
  3  4  1  0
  4  5  2  0
  5  6  1  0
  5 24  1  0
  6  7  2  0
  8  9  1  1
  8 15  1  0
  8 19  1  0
  9 10  1  0
  9 14  2  0
 10 11  2  0
 15 16  1  0
 16 17  1  0
 17 18  1  0
 17 20  1  0
 18 19  1  0
 20 21  1  0
 21 22  1  0
 22 23  1  0
 24 25  1  0
 25 26  2  0
 25 30  1  0
 26 27  1  0
 27 28  2  0
 28 29  1  0
 28 31  1  0
 29 30  2  0
 31 32  1  0
 32 33  1  1
 32 34  1  0
 32 35  1  0
  3 36  1  0
  4 37  1  0
  6 38  1  0
  7 39  1  0
 15 40  1  0
 15 41  1  0
 16 42  1  0
 16 43  1  0
 18 44  1  0
 18 45  1  0
 19 46  1  0
 19 47  1  0
 20 48  1  0
 20 49  1  0
 21 50  1  0
 21 51  1  0
 23 52  1  0
 23 53  1  0
 23 54  1  0
 26 55  1  0
 27 56  1  0
 29 57  1  0
 30 58  1  0
M  END
