
     RDKit          3D

 87 90  0  0  0  0  0  0  0  0999 V2000
   -8.1127    2.7642    1.6816 C   0  0  0  0  0  0  0  0  0  0  0  0
   -2.9808   -5.1845   -2.6166 N   0  0  0  0  0  0  0  0  0  0  0  0
   -6.5793    0.9833    1.3082 O   0  0  0  0  0  0  0  0  0  0  0  0
   -7.8136    1.3120    1.9645 C   0  0  0  0  0  0  0  0  0  0  0  0
   -1.9584   -1.0560    0.5210 N   0  0  0  0  0  0  0  0  0  0  0  0
   -6.1226   -0.2574    1.4167 C   0  0  0  0  0  0  0  0  0  0  0  0
    0.9759    0.9098   -0.1261 N   0  0  0  0  0  0  0  0  0  0  0  0
   -4.8192   -0.4274    0.6838 C   0  0  0  0  0  0  0  0  0  0  0  0
    4.2239   -0.2275   -0.2094 N   0  0  0  0  0  0  0  0  0  0  0  0
   -1.2102   -0.2188   -1.4472 O   0  0  0  0  0  0  0  0  0  0  0  0
   -4.2518   -1.8338    0.7821 C   0  0  0  0  0  0  0  0  0  0  0  0
    6.1806   -1.3805    1.3387 N   0  0  0  0  0  0  0  0  0  0  0  0
    1.6172   -1.2293    0.0446 O   0  0  0  0  0  0  0  0  0  0  0  0
   -2.9490   -1.9812    0.0012 C   0  0  2  0  0  0  0  0  0  0  0  0
    5.2878    1.7686    0.0253 O   0  0  0  0  0  0  0  0  0  0  0  0
   -2.3721   -3.3998    0.0515 C   0  0  0  0  0  0  0  0  0  0  0  0
    7.2476   -1.6421    2.1221 O   0  0  0  0  0  0  0  0  0  0  0  0
   -3.2943   -4.5314   -0.4181 C   0  0  2  0  0  0  0  0  0  0  0  0
   -2.5724   -5.8821   -0.4441 C   0  0  0  0  0  0  0  0  0  0  0  0
   -2.0422   -5.9991   -1.8760 C   0  0  0  0  0  0  0  0  0  0  0  0
   -3.7068   -4.3366   -1.8705 C   0  0  0  0  0  0  0  0  0  0  0  0
   -0.2580    0.6413    0.5863 C   0  0  1  0  0  0  0  0  0  0  0  0
   -0.8822    2.0318    0.7550 C   0  0  0  0  0  0  0  0  0  0  0  0
   -0.3411    2.8238   -0.4377 C   0  0  2  0  0  0  0  0  0  0  0  0
    1.0888    2.2951   -0.5645 C   0  0  0  0  0  0  0  0  0  0  0  0
    3.1499    0.2179   -1.0677 C   0  0  1  0  0  0  0  0  0  0  0  0
    3.1808   -0.4837   -2.4368 C   0  0  1  0  0  0  0  0  0  0  0  0
    2.0590    0.0386   -3.3305 C   0  0  0  0  0  0  0  0  0  0  0  0
    4.5324   -0.2943   -3.1144 C   0  0  0  0  0  0  0  0  0  0  0  0
    6.2192   -0.1010    1.0950 C   0  0  0  0  0  0  0  0  0  0  0  0
    7.3270    0.5109    1.7192 C   0  0  0  0  0  0  0  0  0  0  0  0
    7.9397   -0.5184    2.3555 C   0  0  0  0  0  0  0  0  0  0  0  0
    9.1523   -0.6154    3.2016 C   0  0  0  0  0  0  0  0  0  0  0  0
   -0.4302    4.3176   -0.3014 C   0  0  0  0  0  0  0  0  0  0  0  0
   -1.1260    5.0695   -1.2430 C   0  0  0  0  0  0  0  0  0  0  0  0
   -1.2204    6.4510   -1.1262 C   0  0  0  0  0  0  0  0  0  0  0  0
   -0.6147    7.1016   -0.0609 C   0  0  0  0  0  0  0  0  0  0  0  0
    0.0867    6.3615    0.8839 C   0  0  0  0  0  0  0  0  0  0  0  0
    0.1774    4.9828    0.7634 C   0  0  0  0  0  0  0  0  0  0  0  0
   -8.2364    2.9479    0.6143 H   0  0  0  0  0  0  0  0  0  0  0  0
   -9.0421    3.0414    2.1781 H   0  0  0  0  0  0  0  0  0  0  0  0
   -7.3258    3.4176    2.0588 H   0  0  0  0  0  0  0  0  0  0  0  0
   -3.0074   -5.1655   -3.6246 H   0  0  0  0  0  0  0  0  0  0  0  0
   -7.7172    1.1354    3.0378 H   0  0  0  0  0  0  0  0  0  0  0  0
   -8.6137    0.6703    1.5897 H   0  0  0  0  0  0  0  0  0  0  0  0
   -1.7795   -1.0942    1.5136 H   0  0  0  0  0  0  0  0  0  0  0  0
   -4.9775   -0.1549   -0.3647 H   0  0  0  0  0  0  0  0  0  0  0  0
   -4.1131    0.3099    1.0756 H   0  0  0  0  0  0  0  0  0  0  0  0
    4.2415   -1.2043    0.0474 H   0  0  0  0  0  0  0  0  0  0  0  0
   -4.0858   -2.1079    1.8287 H   0  0  0  0  0  0  0  0  0  0  0  0
   -4.9782   -2.5426    0.3848 H   0  0  0  0  0  0  0  0  0  0  0  0
   -3.1304   -1.6981   -1.0361 H   0  0  0  0  0  0  0  0  0  0  0  0
   -1.4507   -3.4098   -0.5390 H   0  0  0  0  0  0  0  0  0  0  0  0
   -2.0788   -3.6212    1.0823 H   0  0  0  0  0  0  0  0  0  0  0  0
   -4.1822   -4.5657    0.2149 H   0  0  0  0  0  0  0  0  0  0  0  0
   -1.7795   -5.9587    0.2991 H   0  0  0  0  0  0  0  0  0  0  0  0
   -3.2856   -6.6853   -0.2536 H   0  0  0  0  0  0  0  0  0  0  0  0
   -2.0446   -7.0275   -2.2363 H   0  0  0  0  0  0  0  0  0  0  0  0
   -1.0221   -5.6172   -1.9751 H   0  0  0  0  0  0  0  0  0  0  0  0
   -0.0479    0.1883    1.5586 H   0  0  0  0  0  0  0  0  0  0  0  0
   -1.9716    2.0077    0.7861 H   0  0  0  0  0  0  0  0  0  0  0  0
   -0.5379    2.4672    1.6956 H   0  0  0  0  0  0  0  0  0  0  0  0
   -0.8893    2.5193   -1.3322 H   0  0  0  0  0  0  0  0  0  0  0  0
    1.7769    2.8511    0.0788 H   0  0  0  0  0  0  0  0  0  0  0  0
    1.4456    2.3715   -1.5898 H   0  0  0  0  0  0  0  0  0  0  0  0
    3.2879    1.2879   -1.2212 H   0  0  0  0  0  0  0  0  0  0  0  0
    3.0210   -1.5536   -2.2657 H   0  0  0  0  0  0  0  0  0  0  0  0
    2.2134    1.0940   -3.5684 H   0  0  0  0  0  0  0  0  0  0  0  0
    2.0418   -0.5090   -4.2731 H   0  0  0  0  0  0  0  0  0  0  0  0
    1.0720   -0.0618   -2.8766 H   0  0  0  0  0  0  0  0  0  0  0  0
    5.3492   -0.7273   -2.5371 H   0  0  0  0  0  0  0  0  0  0  0  0
    4.5328   -0.7781   -4.0919 H   0  0  0  0  0  0  0  0  0  0  0  0
    4.7496    0.7651   -3.2689 H   0  0  0  0  0  0  0  0  0  0  0  0
    7.6191    1.5464    1.6984 H   0  0  0  0  0  0  0  0  0  0  0  0
    9.3050   -1.6298    3.5637 H   0  0  0  0  0  0  0  0  0  0  0  0
   10.0360   -0.3154    2.6393 H   0  0  0  0  0  0  0  0  0  0  0  0
    9.0686    0.0474    4.0622 H   0  0  0  0  0  0  0  0  0  0  0  0
   -1.5976    4.5689   -2.0804 H   0  0  0  0  0  0  0  0  0  0  0  0
   -1.7661    7.0169   -1.8702 H   0  0  0  0  0  0  0  0  0  0  0  0
   -0.6875    8.1773    0.0347 H   0  0  0  0  0  0  0  0  0  0  0  0
    0.5638    6.8601    1.7178 H   0  0  0  0  0  0  0  0  0  0  0  0
    0.7272    4.4215    1.5105 H   0  0  0  0  0  0  0  0  0  0  0  0
   -1.1693   -0.2733   -0.2277 C   0  0  0  0  0  0  0  0  0  0  0  0
   -6.6926   -1.1246    2.0320 O   0  0  0  0  0  0  0  0  0  0  0  0
   -4.5297   -3.5365   -2.2904 O   0  0  0  0  0  0  0  0  0  0  0  0
    1.8412   -0.0881   -0.3406 C   0  0  0  0  0  0  0  0  0  0  0  0
    5.1944    0.5731    0.2498 C   0  0  0  0  0  0  0  0  0  0  0  0
  1  4  1  0
  2 20  1  0
  2 21  1  0
  3  4  1  0
  3  6  1  0
  5 14  1  0
  5 83  1  0
 84  6  2  0
  6  8  1  0
  7 22  1  0
  7 25  1  0
  7 86  1  0
 85 21  2  0
  8 11  1  0
  9 26  1  0
  9 87  1  0
 10 83  2  0
 11 14  1  0
 12 17  1  0
 12 30  2  0
 13 86  2  0
 14 16  1  0
 15 87  2  0
 16 18  1  0
 17 32  1  0
 18 19  1  0
 18 21  1  0
 19 20  1  0
 83 22  1  0
 22 23  1  0
 23 24  1  0
 24 25  1  0
 24 34  1  0
 86 26  1  0
 26 27  1  0
 27 28  1  0
 27 29  1  0
 87 30  1  0
 30 31  1  0
 31 32  2  0
 32 33  1  0
 34 35  2  0
 34 39  1  0
 35 36  1  0
 36 37  2  0
 37 38  1  0
 38 39  2  0
  1 40  1  0
  1 41  1  0
  1 42  1  0
  2 43  1  0
  4 44  1  0
  4 45  1  0
  5 46  1  0
  8 47  1  0
  8 48  1  0
  9 49  1  0
 11 50  1  0
 11 51  1  0
 14 52  1  6
 16 53  1  0
 16 54  1  0
 18 55  1  1
 19 56  1  0
 19 57  1  0
 20 58  1  0
 20 59  1  0
 22 60  1  1
 23 61  1  0
 23 62  1  0
 24 63  1  6
 25 64  1  0
 25 65  1  0
 26 66  1  6
 27 67  1  1
 28 68  1  0
 28 69  1  0
 28 70  1  0
 29 71  1  0
 29 72  1  0
 29 73  1  0
 31 74  1  0
 33 75  1  0
 33 76  1  0
 33 77  1  0
 35 78  1  0
 36 79  1  0
 37 80  1  0
 38 81  1  0
 39 82  1  0
M  END
