
     RDKit          3D

 37 39  0  0  0  0  0  0  0  0999 V2000
   -4.5132    1.3957   -0.4915 C   0  0  0  0  0  0  0  0  0  0  0  0
   -5.3358    0.2663   -0.5490 C   0  0  0  0  0  0  0  0  0  0  0  0
   -1.6175   -2.0005    0.2237 C   0  0  0  0  0  0  0  0  0  0  0  0
   -1.3852   -0.6454    0.1706 C   0  0  0  0  0  0  0  0  0  0  0  0
   -0.1016    0.0145    0.3294 C   0  0  0  0  0  0  0  0  0  0  0  0
    1.0857   -0.6991    0.5184 C   0  0  0  0  0  0  0  0  0  0  0  0
    2.2521    0.0340    0.6511 C   0  0  0  0  0  0  0  0  0  0  0  0
    1.0759    1.9583    0.4194 C   0  0  0  0  0  0  0  0  0  0  0  0
    5.8798   -1.0568   -0.1484 C   0  0  0  0  0  0  0  0  0  0  0  0
    6.7977   -0.8895   -1.3510 C   0  0  0  0  0  0  0  0  0  0  0  0
   -4.9000   -0.9750   -0.3883 N   0  0  0  0  0  0  0  0  0  0  0  0
   -3.1566    1.2563   -0.2532 C   0  0  0  0  0  0  0  0  0  0  0  0
   -2.6623   -0.0359   -0.0798 C   0  0  0  0  0  0  0  0  0  0  0  0
   -3.6026   -1.0860   -0.1640 C   0  0  0  0  0  0  0  0  0  0  0  0
   -2.9314   -2.2600    0.0278 N   0  0  0  0  0  0  0  0  0  0  0  0
    2.2547    1.3645    0.6020 N   0  0  0  0  0  0  0  0  0  0  0  0
   -0.1010    1.3428    0.2815 N   0  0  0  0  0  0  0  0  0  0  0  0
    1.0610    3.3111    0.4058 N   0  0  0  0  0  0  0  0  0  0  0  0
    3.5802   -0.6360    0.8350 C   0  0  0  0  0  0  0  0  0  0  0  0
    4.5030   -0.4439   -0.3689 C   0  0  0  0  0  0  0  0  0  0  0  0
   -4.9493    2.3746   -0.6353 H   0  0  0  0  0  0  0  0  0  0  0  0
   -6.3975    0.3834   -0.7340 H   0  0  0  0  0  0  0  0  0  0  0  0
   -0.9274   -2.8111    0.3925 H   0  0  0  0  0  0  0  0  0  0  0  0
    1.1090   -1.7789    0.5533 H   0  0  0  0  0  0  0  0  0  0  0  0
    5.7726   -2.1200    0.0865 H   0  0  0  0  0  0  0  0  0  0  0  0
    6.3414   -0.5977    0.7313 H   0  0  0  0  0  0  0  0  0  0  0  0
    6.3809   -1.3711   -2.2374 H   0  0  0  0  0  0  0  0  0  0  0  0
    6.9471    0.1650   -1.5896 H   0  0  0  0  0  0  0  0  0  0  0  0
    7.7787   -1.3291   -1.1671 H   0  0  0  0  0  0  0  0  0  0  0  0
   -2.5015    2.1136   -0.2023 H   0  0  0  0  0  0  0  0  0  0  0  0
   -3.3447   -3.1790    0.0111 H   0  0  0  0  0  0  0  0  0  0  0  0
    1.9338    3.7895    0.2639 H   0  0  0  0  0  0  0  0  0  0  0  0
    0.2390    3.7700    0.0527 H   0  0  0  0  0  0  0  0  0  0  0  0
    4.0602   -0.2207    1.7262 H   0  0  0  0  0  0  0  0  0  0  0  0
    3.4320   -1.7024    1.0189 H   0  0  0  0  0  0  0  0  0  0  0  0
    4.6052    0.6244   -0.5789 H   0  0  0  0  0  0  0  0  0  0  0  0
    4.0395   -0.8899   -1.2550 H   0  0  0  0  0  0  0  0  0  0  0  0
  1  2  2  0
  1 12  1  0
  2 11  1  0
 12 13  2  0
 19  7  1  0
 19 20  1  0
 11 14  2  0
 13 14  1  0
 13  4  1  0
  6  7  2  0
  6  5  1  0
 14 15  1  0
  7 16  1  0
  4  5  1  0
  4  3  2  0
 15  3  1  0
  5 17  2  0
  9 20  1  0
  9 10  1  0
 16  8  2  0
 17  8  1  0
  8 18  1  0
  1 21  1  0
  2 22  1  0
  3 23  1  0
  6 24  1  0
  9 25  1  0
  9 26  1  0
 10 27  1  0
 10 28  1  0
 10 29  1  0
 12 30  1  0
 15 31  1  0
 18 32  1  0
 18 33  1  0
 19 34  1  0
 19 35  1  0
 20 36  1  0
 20 37  1  0
M  END
