
     RDKit          3D

 14 13  0  0  0  0  0  0  0  0999 V2000
    0.9523    0.0176    2.1929 C   0  0  0  0  0  0  0  0  0  0  0  0
    0.5306   -0.0197    0.0133 Pb  0  0  1  0  0  0  0  0  0  0  0  0
    0.8980    1.8539   -1.1200 C   0  0  0  0  0  0  0  0  0  0  0  0
    0.9167   -1.9265   -1.0562 C   0  0  0  0  0  0  0  0  0  0  0  0
   -2.1601   -0.0299    0.0474 Br  0  0  0  0  0  0  0  0  0  0  0  0
    0.5638    0.9418    2.6122 H   0  0  0  0  0  0  0  0  0  0  0  0
    0.4742   -0.8400    2.6583 H   0  0  0  0  0  0  0  0  0  0  0  0
    2.0296   -0.0332    2.3352 H   0  0  0  0  0  0  0  0  0  0  0  0
    1.9699    2.0393   -1.1409 H   0  0  0  0  0  0  0  0  0  0  0  0
    0.5210    1.7350   -2.1323 H   0  0  0  0  0  0  0  0  0  0  0  0
    0.3882    2.6738   -0.6215 H   0  0  0  0  0  0  0  0  0  0  0  0
    0.4057   -2.7328   -0.5371 H   0  0  0  0  0  0  0  0  0  0  0  0
    0.5498   -1.8410   -2.0755 H   0  0  0  0  0  0  0  0  0  0  0  0
    1.9897   -2.1065   -1.0600 H   0  0  0  0  0  0  0  0  0  0  0  0
  1  2  1  0
  2  3  1  0
  2  4  1  0
  2  5  1  1
  1  6  1  0
  1  7  1  0
  1  8  1  0
  3  9  1  0
  3 10  1  0
  3 11  1  0
  4 12  1  0
  4 13  1  0
  4 14  1  0
M  END
