
     RDKit          3D

 18 17  0  0  0  0  0  0  0  0999 V2000
   -3.7272   -0.2144    0.2389 N   0  0  0  0  0  0  0  0  0  0  0  0
   -3.2016    0.4305   -0.6527 N   0  0  0  0  0  0  0  0  0  0  0  0
   -1.9424    1.0789   -0.3324 C   0  0  0  0  0  0  0  0  0  0  0  0
   -0.8209    0.0656   -0.1348 C   0  0  0  0  0  0  0  0  0  0  0  0
   -1.0542   -1.0569    0.2809 O   0  0  0  0  0  0  0  0  0  0  0  0
    0.4044    0.5346   -0.3985 N   0  0  0  0  0  0  0  0  0  0  0  0
    1.6130   -0.2323   -0.1848 C   0  0  0  0  0  0  0  0  0  0  0  0
    2.7758    0.7081    0.0870 C   0  0  0  0  0  0  0  0  0  0  0  0
    4.2862   -0.2893    0.2930 S   0  0  0  0  0  0  0  0  0  0  0  0
   -4.3164   -0.8200    0.9783 N   0  0  0  0  0  0  0  0  0  0  0  0
   -1.7286    1.7617   -1.1522 H   0  0  0  0  0  0  0  0  0  0  0  0
   -2.0184    1.6773    0.5812 H   0  0  0  0  0  0  0  0  0  0  0  0
    0.4932    1.4431   -0.8266 H   0  0  0  0  0  0  0  0  0  0  0  0
    1.4634   -0.8969    0.6660 H   0  0  0  0  0  0  0  0  0  0  0  0
    1.8295   -0.8601   -1.0547 H   0  0  0  0  0  0  0  0  0  0  0  0
    2.9105    1.4002   -0.7452 H   0  0  0  0  0  0  0  0  0  0  0  0
    2.5898    1.2861    0.9916 H   0  0  0  0  0  0  0  0  0  0  0  0
    5.1085    0.7188    0.6002 H   0  0  0  0  0  0  0  0  0  0  0  0
  1  2  2  0
  1 10  2  0
  2  3  1  0
  3  4  1  0
  3 11  1  0
  3 12  1  0
  4  5  2  0
  4  6  1  0
  6  7  1  0
  6 13  1  0
  7  8  1  0
  7 14  1  0
  7 15  1  0
  8  9  1  0
  8 16  1  0
  8 17  1  0
  9 18  1  0
M  CHG  2   1   1  10  -1
M  END
