
     RDKit          3D

 43 43  0  0  0  0  0  0  0  0999 V2000
    2.2225   -3.6273    0.3100 O   0  0  0  0  0  0  0  0  0  0  0  0
    3.2200   -2.6157   -0.0824 P   0  0  1  0  0  0  0  0  0  0  0  0
    4.5840   -2.5484    0.7355 O   0  0  0  0  0  0  0  0  0  0  0  0
    3.5776   -2.7832   -1.6297 O   0  0  0  0  0  0  0  0  0  0  0  0
    2.8024   -1.0875    0.1347 O   0  0  0  0  0  0  0  0  0  0  0  0
    1.5619   -0.6208   -0.3831 C   0  0  0  0  0  0  0  0  0  0  0  0
    1.4404    0.8584   -0.1376 C   0  0  0  0  0  0  0  0  0  0  0  0
    2.4653    1.5937    0.4392 C   0  0  0  0  0  0  0  0  0  0  0  0
    2.3805    2.8982    0.6705 N   0  0  0  0  0  0  0  0  0  0  0  0
    1.2754    3.5513    0.3498 C   0  0  0  0  0  0  0  0  0  0  0  0
    1.2147    5.0234    0.6284 C   0  0  0  0  0  0  0  0  0  0  0  0
    0.1873    2.8881   -0.2338 C   0  0  0  0  0  0  0  0  0  0  0  0
   -0.9473    3.5312   -0.5641 O   0  0  0  0  0  0  0  0  0  0  0  0
    0.2659    1.5237   -0.4972 C   0  0  0  0  0  0  0  0  0  0  0  0
   -0.9063    0.8095   -1.1144 C   0  0  0  0  0  0  0  0  0  0  0  0
   -1.9359    0.5576   -0.1216 N   0  0  0  0  0  0  0  0  0  0  0  0
   -3.0688   -0.1603   -0.6782 C   0  0  0  0  0  0  0  0  0  0  0  0
   -4.1539   -0.3824    0.3622 C   0  0  0  0  0  0  0  0  0  0  0  0
   -5.3463   -1.1464   -0.1995 C   0  0  0  0  0  0  0  0  0  0  0  0
   -6.4668   -1.3141    0.8147 C   0  0  0  0  0  0  0  0  0  0  0  0
   -7.5854   -2.0489    0.2405 N   0  0  0  0  0  0  0  0  0  0  0  0
    5.0060   -3.4076    0.8700 H   0  0  0  0  0  0  0  0  0  0  0  0
    4.2837   -2.2131   -1.9632 H   0  0  0  0  0  0  0  0  0  0  0  0
    1.5008   -0.8277   -1.4564 H   0  0  0  0  0  0  0  0  0  0  0  0
    0.7375   -1.1522    0.1018 H   0  0  0  0  0  0  0  0  0  0  0  0
    3.3947    1.1227    0.7311 H   0  0  0  0  0  0  0  0  0  0  0  0
    1.0807    5.6109   -0.2838 H   0  0  0  0  0  0  0  0  0  0  0  0
    0.3965    5.2792    1.3064 H   0  0  0  0  0  0  0  0  0  0  0  0
    2.1424    5.3495    1.0927 H   0  0  0  0  0  0  0  0  0  0  0  0
   -0.8750    4.4764   -0.3906 H   0  0  0  0  0  0  0  0  0  0  0  0
   -1.3350    1.4312   -1.9040 H   0  0  0  0  0  0  0  0  0  0  0  0
   -0.5704   -0.1084   -1.6179 H   0  0  0  0  0  0  0  0  0  0  0  0
   -1.5400    0.0071    0.6323 H   0  0  0  0  0  0  0  0  0  0  0  0
   -3.4751    0.4375   -1.5006 H   0  0  0  0  0  0  0  0  0  0  0  0
   -2.7774   -1.1279   -1.1189 H   0  0  0  0  0  0  0  0  0  0  0  0
   -3.7392   -0.9319    1.2146 H   0  0  0  0  0  0  0  0  0  0  0  0
   -4.4819    0.5879    0.7474 H   0  0  0  0  0  0  0  0  0  0  0  0
   -5.7374   -0.6282   -1.0807 H   0  0  0  0  0  0  0  0  0  0  0  0
   -5.0166   -2.1337   -0.5415 H   0  0  0  0  0  0  0  0  0  0  0  0
   -6.0591   -1.7793    1.7245 H   0  0  0  0  0  0  0  0  0  0  0  0
   -6.8259   -0.3254    1.1140 H   0  0  0  0  0  0  0  0  0  0  0  0
   -7.3038   -3.0080    0.0774 H   0  0  0  0  0  0  0  0  0  0  0  0
   -8.3381   -2.0999    0.9150 H   0  0  0  0  0  0  0  0  0  0  0  0
  1  2  2  0
  2  5  1  6
  2  4  1  0
  2  3  1  0
  3 22  1  0
  4 23  1  0
  5  6  1  0
  6  7  1  0
  6 24  1  0
  6 25  1  0
  7  8  2  0
  7 14  1  0
  8  9  1  0
  8 26  1  0
  9 10  2  0
 10 11  1  0
 10 12  1  0
 11 27  1  0
 11 28  1  0
 11 29  1  0
 12 13  1  0
 12 14  2  0
 13 30  1  0
 14 15  1  0
 15 16  1  0
 15 31  1  0
 15 32  1  0
 16 17  1  0
 16 33  1  0
 17 18  1  0
 17 34  1  0
 17 35  1  0
 18 19  1  0
 18 36  1  0
 18 37  1  0
 19 20  1  0
 19 38  1  0
 19 39  1  0
 20 21  1  0
 20 40  1  0
 20 41  1  0
 21 42  1  0
 21 43  1  0
M  END
