
     RDKit          3D

 55 59  0  0  0  0  0  0  0  0999 V2000
   -0.2304   -2.3222    0.2692 C   0  0  0  0  0  0  0  0  0  0  0  0
    2.0376   -0.7474    0.2183 C   0  0  0  0  0  0  0  0  0  0  0  0
    3.2023    1.4225    0.5954 C   0  0  0  0  0  0  0  0  0  0  0  0
    3.5009   -2.6948    0.3038 C   0  0  0  0  0  0  0  0  0  0  0  0
    4.3553    2.1467    0.5008 C   0  0  0  0  0  0  0  0  0  0  0  0
    5.5404    1.5858    0.0408 C   0  0  0  0  0  0  0  0  0  0  0  0
   -4.1808    0.9636   -0.0764 C   0  0  0  0  0  0  0  0  0  0  0  0
    5.6207    0.2680   -0.3316 C   0  0  0  0  0  0  0  0  0  0  0  0
   -2.6586   -0.7686   -0.8075 C   0  0  0  0  0  0  0  0  0  0  0  0
   -3.8954   -0.1579   -0.8881 C   0  0  0  0  0  0  0  0  0  0  0  0
    4.4423   -1.9452   -0.6090 C   0  0  0  0  0  0  0  0  0  0  0  0
    5.9559    3.6877    0.6404 C   0  0  0  0  0  0  0  0  0  0  0  0
   -1.9580    0.8156    0.8542 C   0  0  0  0  0  0  0  0  0  0  0  0
   -3.2023    1.4331    0.7868 C   0  0  0  0  0  0  0  0  0  0  0  0
   -5.8351    2.5889    0.5691 C   0  0  1  0  0  0  0  0  0  0  0  0
   -4.6867   -1.7067   -2.4912 C   0  0  0  0  0  0  0  0  0  0  0  0
    2.1643   -2.0977    0.2628 N   0  0  0  0  0  0  0  0  0  0  0  0
    1.0700   -2.9670    0.3553 C   0  0  0  0  0  0  0  0  0  0  0  0
   -0.3665   -0.9524    0.1649 C   0  0  0  0  0  0  0  0  0  0  0  0
    0.7935   -0.1654    0.1573 C   0  0  0  0  0  0  0  0  0  0  0  0
    3.2569    0.0678    0.2018 C   0  0  0  0  0  0  0  0  0  0  0  0
   -1.6784   -0.2938    0.0726 C   0  0  0  0  0  0  0  0  0  0  0  0
    4.4534   -0.4963   -0.2395 C   0  0  0  0  0  0  0  0  0  0  0  0
   -1.3536   -3.1740    0.3925 C   0  0  0  0  0  0  0  0  0  0  0  0
   -2.2397   -3.9069    0.5075 N   0  0  0  0  0  0  0  0  0  0  0  0
    1.3024   -4.2148    0.5160 N   0  0  0  0  0  0  0  0  0  0  0  0
    4.5654    3.4471    0.8088 O   0  0  0  0  0  0  0  0  0  0  0  0
    6.5112    2.5160    0.0484 O   0  0  0  0  0  0  0  0  0  0  0  0
   -4.8874   -0.5469   -1.7083 O   0  0  0  0  0  0  0  0  0  0  0  0
   -6.9970    3.2258   -0.1664 C   0  0  0  0  0  0  0  0  0  0  0  0
   -6.2365    2.1133    1.9553 C   0  0  0  0  0  0  0  0  0  0  0  0
    2.2977    1.8727    0.9792 H   0  0  0  0  0  0  0  0  0  0  0  0
    3.4032   -3.7308   -0.0017 H   0  0  0  0  0  0  0  0  0  0  0  0
    3.8640   -2.6853    1.3351 H   0  0  0  0  0  0  0  0  0  0  0  0
    6.5476   -0.1708   -0.6763 H   0  0  0  0  0  0  0  0  0  0  0  0
   -2.4293   -1.6044   -1.4542 H   0  0  0  0  0  0  0  0  0  0  0  0
    5.4396   -2.3756   -0.5174 H   0  0  0  0  0  0  0  0  0  0  0  0
    4.1357   -2.0749   -1.6519 H   0  0  0  0  0  0  0  0  0  0  0  0
    6.1074    4.5401   -0.0224 H   0  0  0  0  0  0  0  0  0  0  0  0
    6.4260    3.8660    1.6116 H   0  0  0  0  0  0  0  0  0  0  0  0
   -1.2231    1.1987    1.5498 H   0  0  0  0  0  0  0  0  0  0  0  0
   -3.3862    2.2836    1.4281 H   0  0  0  0  0  0  0  0  0  0  0  0
   -5.0273    3.3249    0.6453 H   0  0  0  0  0  0  0  0  0  0  0  0
   -5.6116   -1.8740   -3.0371 H   0  0  0  0  0  0  0  0  0  0  0  0
   -3.8719   -1.5801   -3.2087 H   0  0  0  0  0  0  0  0  0  0  0  0
   -4.4772   -2.5839   -1.8724 H   0  0  0  0  0  0  0  0  0  0  0  0
    0.7043    0.9016    0.0319 H   0  0  0  0  0  0  0  0  0  0  0  0
    0.4435   -4.7497    0.5545 H   0  0  0  0  0  0  0  0  0  0  0  0
   -7.3444    4.0965    0.3889 H   0  0  0  0  0  0  0  0  0  0  0  0
   -6.7041    3.5600   -1.1619 H   0  0  0  0  0  0  0  0  0  0  0  0
   -7.8337    2.5319   -0.2622 H   0  0  0  0  0  0  0  0  0  0  0  0
   -5.4101    1.6560    2.4993 H   0  0  0  0  0  0  0  0  0  0  0  0
   -6.5880    2.9600    2.5457 H   0  0  0  0  0  0  0  0  0  0  0  0
   -7.0484    1.3876    1.8913 H   0  0  0  0  0  0  0  0  0  0  0  0
   -5.4010    1.4902   -0.2408 O   0  0  0  0  0  0  0  0  0  0  0  0
 12 28  1  0
 12 27  1  0
 28  6  1  0
  6  8  2  0
  6  5  1  0
 27  5  1  0
  8 23  1  0
  4 11  1  0
  4 17  1  0
  5  3  2  0
 23 11  1  0
 23 21  2  0
 26 18  2  0
  3 21  1  0
 17 18  1  0
 17  2  1  0
 21  2  1  0
 18  1  1  0
  2 20  2  0
  1 24  1  0
  1 19  2  0
 20 19  1  0
 24 25  3  0
 19 22  1  0
 13 22  2  0
 13 14  1  0
 22  9  1  0
 14  7  2  0
  9 10  2  0
  7 10  1  0
  7 55  1  0
 10 29  1  0
 55 15  1  0
 15 31  1  0
 15 30  1  0
 29 16  1  0
  3 32  1  0
  4 33  1  0
  4 34  1  0
  8 35  1  0
  9 36  1  0
 11 37  1  0
 11 38  1  0
 12 39  1  0
 12 40  1  0
 13 41  1  0
 14 42  1  0
 15 43  1  1
 16 44  1  0
 16 45  1  0
 16 46  1  0
 20 47  1  0
 26 48  1  0
 30 49  1  0
 30 50  1  0
 30 51  1  0
 31 52  1  0
 31 53  1  0
 31 54  1  0
M  END
