
     RDKit          3D

 57 60  0  0  0  0  0  0  0  0999 V2000
   -1.6876   -0.9841   -0.7850 C   0  0  0  0  0  0  0  0  0  0  0  0
   -1.2441   -1.7092   -1.6492 O   0  0  0  0  0  0  0  0  0  0  0  0
   -2.8113   -0.0849   -1.0189 C   0  0  0  0  0  0  0  0  0  0  0  0
   -3.9687   -1.2685   -2.7164 O   0  0  0  0  0  0  0  0  0  0  0  0
   -3.5305   -0.2066   -2.3231 C   0  0  0  0  0  0  0  0  0  0  0  0
   -3.7347    0.9723   -2.9659 N   0  0  0  0  0  0  0  0  0  0  0  0
   -3.2052    0.8120   -0.0757 C   0  0  0  0  0  0  0  0  0  0  0  0
   -4.1485    1.7189   -0.2434 O   0  0  0  0  0  0  0  0  0  0  0  0
   -2.6148    0.8547    1.3110 C   0  0  1  0  0  0  0  0  0  0  0  0
   -3.3744   -0.0012    2.2545 N   0  0  0  0  0  0  0  0  0  0  0  0
   -3.1555    0.4386    3.6275 C   0  0  0  0  0  0  0  0  0  0  0  0
   -4.8042   -0.1404    2.0030 C   0  0  0  0  0  0  0  0  0  0  0  0
   -1.1596    0.3679    1.2726 C   0  0  2  0  0  0  0  0  0  0  0  0
   -0.2327    1.3277    0.5225 C   0  0  1  0  0  0  0  0  0  0  0  0
   -0.3167    2.6151    1.0852 O   0  0  0  0  0  0  0  0  0  0  0  0
    1.2168    0.8188    0.4890 C   0  0  2  0  0  0  0  0  0  0  0  0
    2.0344    1.3811   -0.6934 C   0  0  1  0  0  0  0  0  0  0  0  0
    1.5788    0.6777   -1.8350 O   0  0  0  0  0  0  0  0  0  0  0  0
    1.8486    2.8795   -0.9012 C   0  0  0  0  0  0  0  0  0  0  0  0
    3.4979    1.0206   -0.4336 C   0  0  0  0  0  0  0  0  0  0  0  0
    4.5360    1.8882   -0.7184 C   0  0  0  0  0  0  0  0  0  0  0  0
    5.8589    1.4908   -0.5228 C   0  0  0  0  0  0  0  0  0  0  0  0
    6.1657    0.2280   -0.0677 C   0  0  0  0  0  0  0  0  0  0  0  0
    5.1342   -0.6706    0.2128 C   0  0  0  0  0  0  0  0  0  0  0  0
    5.4630   -1.8902    0.6285 O   0  0  0  0  0  0  0  0  0  0  0  0
    3.7910   -0.2664    0.0554 C   0  0  0  0  0  0  0  0  0  0  0  0
    2.7202   -1.2075    0.4143 C   0  0  0  0  0  0  0  0  0  0  0  0
    3.0021   -2.3898    0.6552 O   0  0  0  0  0  0  0  0  0  0  0  0
    1.3630   -0.6899    0.4958 C   0  0  0  0  0  0  0  0  0  0  0  0
    0.3066   -1.5248    0.6126 C   0  0  0  0  0  0  0  0  0  0  0  0
    0.4150   -2.8394    0.6895 O   0  0  0  0  0  0  0  0  0  0  0  0
   -1.1130   -1.0124    0.6401 C   0  0  2  0  0  0  0  0  0  0  0  0
   -1.8951   -1.9578    1.3273 O   0  0  0  0  0  0  0  0  0  0  0  0
   -3.0642    1.7182   -2.8532 H   0  0  0  0  0  0  0  0  0  0  0  0
   -4.1881    0.9453   -3.8684 H   0  0  0  0  0  0  0  0  0  0  0  0
   -4.5217    1.6927   -1.1430 H   0  0  0  0  0  0  0  0  0  0  0  0
   -2.6500    1.9006    1.6390 H   0  0  0  0  0  0  0  0  0  0  0  0
   -0.7880    0.2779    2.2993 H   0  0  0  0  0  0  0  0  0  0  0  0
   -3.5997    1.4223    3.8179 H   0  0  0  0  0  0  0  0  0  0  0  0
   -3.6026   -0.2820    4.3103 H   0  0  0  0  0  0  0  0  0  0  0  0
   -2.0930    0.4963    3.8577 H   0  0  0  0  0  0  0  0  0  0  0  0
   -4.9932   -0.5841    1.0268 H   0  0  0  0  0  0  0  0  0  0  0  0
   -5.2087   -0.8252    2.7467 H   0  0  0  0  0  0  0  0  0  0  0  0
   -5.3533    0.8037    2.0769 H   0  0  0  0  0  0  0  0  0  0  0  0
   -0.5898    1.4408   -0.5056 H   0  0  0  0  0  0  0  0  0  0  0  0
    0.0899    2.5982    1.9589 H   0  0  0  0  0  0  0  0  0  0  0  0
    1.6968    1.1889    1.4065 H   0  0  0  0  0  0  0  0  0  0  0  0
    1.9969    1.0603   -2.6144 H   0  0  0  0  0  0  0  0  0  0  0  0
    2.1564    3.4588   -0.0323 H   0  0  0  0  0  0  0  0  0  0  0  0
    2.4356    3.2207   -1.7555 H   0  0  0  0  0  0  0  0  0  0  0  0
    0.8107    3.1169   -1.1207 H   0  0  0  0  0  0  0  0  0  0  0  0
    4.3463    2.8851   -1.0875 H   0  0  0  0  0  0  0  0  0  0  0  0
    6.6599    2.1854   -0.7414 H   0  0  0  0  0  0  0  0  0  0  0  0
    7.1935   -0.0828    0.0688 H   0  0  0  0  0  0  0  0  0  0  0  0
    4.6127   -2.3929    0.7185 H   0  0  0  0  0  0  0  0  0  0  0  0
   -0.4599   -3.1989    0.9124 H   0  0  0  0  0  0  0  0  0  0  0  0
   -2.5715   -1.4339    1.8481 H   0  0  0  0  0  0  0  0  0  0  0  0
  1  2  2  0
  1  3  1  0
  1 32  1  0
  3  5  1  0
  3  7  2  0
  4  5  2  0
  5  6  1  0
  7  8  1  0
  7  9  1  0
  9 10  1  0
  9 13  1  0
 10 11  1  0
 10 12  1  0
 13 14  1  0
 13 32  1  0
 14 15  1  0
 14 16  1  0
 16 17  1  0
 16 29  1  0
 17 18  1  6
 17 19  1  0
 17 20  1  0
 20 21  2  0
 20 26  1  0
 21 22  1  0
 22 23  2  0
 23 24  1  0
 24 25  1  0
 24 26  2  0
 26 27  1  0
 27 28  2  0
 27 29  1  0
 29 30  2  0
 30 31  1  0
 30 32  1  0
 32 33  1  1
  6 34  1  0
  6 35  1  0
  8 36  1  0
  9 37  1  1
 13 38  1  1
 11 39  1  0
 11 40  1  0
 11 41  1  0
 12 42  1  0
 12 43  1  0
 12 44  1  0
 14 45  1  6
 15 46  1  0
 16 47  1  1
 18 48  1  0
 19 49  1  0
 19 50  1  0
 19 51  1  0
 21 52  1  0
 22 53  1  0
 23 54  1  0
 25 55  1  0
 31 56  1  0
 33 57  1  0
M  END
