
     RDKit          3D

 19 19  0  0  0  0  0  0  0  0999 V2000
   -0.2280   -0.1066   -2.9163 O   0  0  0  0  0  0  0  0  0  0  0  0
    0.0146   -0.0783   -1.5869 C   0  0  0  0  0  0  0  0  0  0  0  0
    1.3363   -0.0972   -1.1598 C   0  0  0  0  0  0  0  0  0  0  0  0
    1.6098   -0.0686    0.1999 C   0  0  0  0  0  0  0  0  0  0  0  0
    0.6022   -0.0213    1.1581 C   0  0  0  0  0  0  0  0  0  0  0  0
   -0.7291   -0.0028    0.7203 C   0  0  0  0  0  0  0  0  0  0  0  0
   -1.0074   -0.0311   -0.6424 C   0  0  0  0  0  0  0  0  0  0  0  0
    0.9353    0.0076    2.6222 C   0  0  0  0  0  0  0  0  0  0  0  0
   -1.8546    0.0447    1.7118 C   0  0  0  0  0  0  0  0  0  0  0  0
   -1.1770   -0.0911   -3.0808 H   0  0  0  0  0  0  0  0  0  0  0  0
    2.1415   -0.1340   -1.8830 H   0  0  0  0  0  0  0  0  0  0  0  0
    2.6447   -0.0838    0.5218 H   0  0  0  0  0  0  0  0  0  0  0  0
   -2.0418   -0.0171   -0.9728 H   0  0  0  0  0  0  0  0  0  0  0  0
    0.5493    0.9050    3.1115 H   0  0  0  0  0  0  0  0  0  0  0  0
    0.5098   -0.8464    3.1546 H   0  0  0  0  0  0  0  0  0  0  0  0
    2.0133   -0.0129    2.7788 H   0  0  0  0  0  0  0  0  0  0  0  0
   -1.8350   -0.8204    2.3780 H   0  0  0  0  0  0  0  0  0  0  0  0
   -1.7911    0.9311    2.3464 H   0  0  0  0  0  0  0  0  0  0  0  0
   -2.8243    0.0602    1.2164 H   0  0  0  0  0  0  0  0  0  0  0  0
  1  2  1  0
  1 10  1  0
  2  3  2  0
  2  7  1  0
  3  4  1  0
  3 11  1  0
  4  5  2  0
  4 12  1  0
  5  6  1  0
  5  8  1  0
  6  7  2  0
  6  9  1  0
  7 13  1  0
  8 14  1  0
  8 15  1  0
  8 16  1  0
  9 17  1  0
  9 18  1  0
  9 19  1  0
M  END
