
     RDKit          3D

 56 56  0  0  0  0  0  0  0  0999 V2000
   -4.4373    3.6250    0.6757 C   0  0  0  0  0  0  0  0  0  0  0  0
   -4.4021    1.1945    0.4804 N   0  0  0  0  0  0  0  0  0  0  0  0
   -5.1701    3.7524   -0.2701 O   0  0  0  0  0  0  0  0  0  0  0  0
   -3.7423    2.3277    1.0630 C   0  0  1  0  0  0  0  0  0  0  0  0
   -2.2723    2.3726    0.6326 C   0  0  0  0  0  0  0  0  0  0  0  0
   -9.2354   -1.4254   -4.2824 C   0  0  0  0  0  0  0  0  0  0  0  0
   -8.4373   -1.5286    2.6550 O   0  0  0  0  0  0  0  0  0  0  0  0
   -6.2206    1.4206    1.8143 O   0  0  0  0  0  0  0  0  0  0  0  0
    2.5382   -2.0927    0.4434 O   0  0  0  0  0  0  0  0  0  0  0  0
   -6.2245   -1.7621    2.4532 O   0  0  0  0  0  0  0  0  0  0  0  0
    6.6651   -1.3296    0.1101 C   0  0  0  0  0  0  0  0  0  0  0  0
    6.0685    0.8504   -0.7433 C   0  0  0  0  0  0  0  0  0  0  0  0
    5.3320   -1.5721    0.4004 C   0  0  0  0  0  0  0  0  0  0  0  0
    4.7396    0.5987   -0.4334 C   0  0  0  0  0  0  0  0  0  0  0  0
   -0.0163    1.2431    0.7006 C   0  0  0  0  0  0  0  0  0  0  0  0
   -1.4920    1.1372    1.0634 C   0  0  0  0  0  0  0  0  0  0  0  0
    0.7460   -0.0123    1.0939 C   0  0  0  0  0  0  0  0  0  0  0  0
   -8.0068   -1.7508   -0.3340 C   0  0  0  0  0  0  0  0  0  0  0  0
    2.1515    0.1102    0.7690 N   0  0  0  0  0  0  0  0  0  0  0  0
   -6.2392   -0.1567    0.1860 N   0  0  0  0  0  0  0  0  0  0  0  0
   -9.0315   -2.3938   -2.7726 S   0  0  0  0  0  0  0  0  0  0  0  0
   -7.2817   -1.3829    2.0224 C   0  0  0  0  0  0  0  0  0  0  0  0
   -5.6548    0.8572    0.8858 C   0  0  0  0  0  0  0  0  0  0  0  0
    2.9354   -0.9351    0.4671 C   0  0  0  0  0  0  0  0  0  0  0  0
    7.0224   -0.1162   -0.4621 C   0  0  0  0  0  0  0  0  0  0  0  0
    4.3604   -0.6085    0.1465 C   0  0  0  0  0  0  0  0  0  0  0  0
   -7.4700   -0.7190    0.6643 C   0  0  2  0  0  0  0  0  0  0  0  0
   -4.1059    4.6145    1.4942 O   0  0  0  0  0  0  0  0  0  0  0  0
   -4.0850    0.8857   -0.4258 H   0  0  0  0  0  0  0  0  0  0  0  0
   -3.7750    2.2403    2.1523 H   0  0  0  0  0  0  0  0  0  0  0  0
   -2.2103    2.4939   -0.4540 H   0  0  0  0  0  0  0  0  0  0  0  0
   -1.8112    3.2607    1.0696 H   0  0  0  0  0  0  0  0  0  0  0  0
   -9.9017   -0.5795   -4.1210 H   0  0  0  0  0  0  0  0  0  0  0  0
   -8.2768   -1.0660   -4.6536 H   0  0  0  0  0  0  0  0  0  0  0  0
   -9.6774   -2.0774   -5.0337 H   0  0  0  0  0  0  0  0  0  0  0  0
   -8.3058   -2.0007    3.4909 H   0  0  0  0  0  0  0  0  0  0  0  0
    7.4065   -2.0854    0.3296 H   0  0  0  0  0  0  0  0  0  0  0  0
    6.3403    1.7901   -1.2035 H   0  0  0  0  0  0  0  0  0  0  0  0
    5.0511   -2.5204    0.8385 H   0  0  0  0  0  0  0  0  0  0  0  0
    4.0037    1.3538   -0.6786 H   0  0  0  0  0  0  0  0  0  0  0  0
    0.0918    1.4086   -0.3752 H   0  0  0  0  0  0  0  0  0  0  0  0
    0.4212    2.1144    1.1988 H   0  0  0  0  0  0  0  0  0  0  0  0
   -1.5959    1.0009    2.1444 H   0  0  0  0  0  0  0  0  0  0  0  0
   -1.9142    0.2429    0.5980 H   0  0  0  0  0  0  0  0  0  0  0  0
    0.6181   -0.2083    2.1637 H   0  0  0  0  0  0  0  0  0  0  0  0
    0.3424   -0.8737    0.5622 H   0  0  0  0  0  0  0  0  0  0  0  0
   -9.0249   -0.3056   -1.5735 H   0  0  0  0  0  0  0  0  0  0  0  0
   -7.4121   -0.7305   -2.1542 H   0  0  0  0  0  0  0  0  0  0  0  0
   -8.9160   -2.1937    0.0762 H   0  0  0  0  0  0  0  0  0  0  0  0
   -7.2822   -2.5619   -0.4491 H   0  0  0  0  0  0  0  0  0  0  0  0
    2.5839    1.0024    0.9499 H   0  0  0  0  0  0  0  0  0  0  0  0
   -5.6426   -0.7597   -0.3599 H   0  0  0  0  0  0  0  0  0  0  0  0
   -8.2145    0.0741    0.7717 H   0  0  0  0  0  0  0  0  0  0  0  0
   -4.5220    5.4407    1.2059 H   0  0  0  0  0  0  0  0  0  0  0  0
    9.0395    0.2580   -0.9169 I   0  0  0  0  0  0  0  0  0  0  0  0
   -8.3148   -1.1277   -1.6879 C   0  0  0  0  0  0  0  0  0  0  0  0
  4  1  1  0
  1  3  2  0
  1 28  1  0
 23  2  1  0
  2  4  1  0
  2 29  1  0
  5  4  1  0
  4 30  1  1
  5 16  1  0
  5 31  1  0
  5 32  1  0
  6 21  1  0
  6 33  1  0
  6 34  1  0
  6 35  1  0
 22  7  1  0
  7 36  1  0
  8 23  2  0
  9 24  2  0
 10 22  2  0
 25 55  1  0
 13 11  2  0
 11 25  1  0
 11 37  1  0
 14 12  1  0
 12 25  2  0
 12 38  1  0
 26 13  1  0
 13 39  1  0
 26 14  2  0
 14 40  1  0
 15 17  1  0
 15 16  1  0
 15 41  1  0
 15 42  1  0
 16 43  1  0
 16 44  1  0
 17 19  1  0
 17 45  1  0
 17 46  1  0
 21 56  1  0
 56 18  1  0
 56 47  1  0
 56 48  1  0
 18 27  1  0
 18 49  1  0
 18 50  1  0
 19 24  1  0
 19 51  1  0
 27 20  1  0
 20 23  1  0
 20 52  1  0
 22 27  1  0
 24 26  1  0
 27 53  1  1
 28 54  1  0
M  END
