
     RDKit          3D

 34 35  0  0  0  0  0  0  0  0999 V2000
   -4.8504    0.3558   -0.5498 C   0  0  1  0  0  0  0  0  0  0  0  0
   -5.7344    0.6269    0.6680 C   0  0  0  0  0  0  0  0  0  0  0  0
   -3.4547   -0.0463   -0.1325 C   0  0  0  0  0  0  0  0  0  0  0  0
   -2.3710    0.7602   -0.4461 C   0  0  0  0  0  0  0  0  0  0  0  0
    3.0688   -0.9989   -1.4159 N   0  0  0  0  0  0  0  0  0  0  0  0
   -1.1004    0.3688   -0.0389 C   0  0  0  0  0  0  0  0  0  0  0  0
   -0.8849   -0.8188    0.6727 C   0  0  0  0  0  0  0  0  0  0  0  0
    1.2064   -0.1431    0.5822 C   0  0  0  0  0  0  0  0  0  0  0  0
    2.6776   -0.1046    0.8128 C   0  0  0  0  0  0  0  0  0  0  0  0
    3.4614    0.0390   -0.5012 C   0  0  1  0  0  0  0  0  0  0  0  0
    4.9555    0.0762   -0.1981 C   0  0  0  0  0  0  0  0  0  0  0  0
    0.4169    1.1674   -0.2728 S   0  0  0  0  0  0  0  0  0  0  0  0
    0.4274   -1.0730    1.0022 N   0  0  0  0  0  0  0  0  0  0  0  0
   -1.9772   -1.6275    0.9865 C   0  0  0  0  0  0  0  0  0  0  0  0
   -3.2380   -1.2356    0.5852 C   0  0  0  0  0  0  0  0  0  0  0  0
   -5.4876   -0.6895   -1.4642 C   0  0  0  0  0  0  0  0  0  0  0  0
    5.7450   -0.7560   -0.5648 O   0  0  0  0  0  0  0  0  0  0  0  0
   -4.7662    1.2878   -1.1168 H   0  0  0  0  0  0  0  0  0  0  0  0
   -5.8857   -0.2797    1.2573 H   0  0  0  0  0  0  0  0  0  0  0  0
   -5.2930    1.3814    1.3199 H   0  0  0  0  0  0  0  0  0  0  0  0
   -6.7170    0.9855    0.3569 H   0  0  0  0  0  0  0  0  0  0  0  0
   -2.5171    1.6800   -0.9994 H   0  0  0  0  0  0  0  0  0  0  0  0
    2.9136    0.7174    1.4916 H   0  0  0  0  0  0  0  0  0  0  0  0
    2.9580   -1.0333    1.3139 H   0  0  0  0  0  0  0  0  0  0  0  0
    3.2119    1.0067   -0.9509 H   0  0  0  0  0  0  0  0  0  0  0  0
   -1.8285   -2.5459    1.5399 H   0  0  0  0  0  0  0  0  0  0  0  0
   -4.0816   -1.8674    0.8366 H   0  0  0  0  0  0  0  0  0  0  0  0
   -6.4675   -0.3517   -1.8052 H   0  0  0  0  0  0  0  0  0  0  0  0
   -4.8734   -0.8797   -2.3449 H   0  0  0  0  0  0  0  0  0  0  0  0
   -5.6307   -1.6388   -0.9445 H   0  0  0  0  0  0  0  0  0  0  0  0
    5.2882    1.1405    0.5204 O   0  0  0  0  0  0  0  0  0  0  0  0
    6.2384    1.1334    0.7119 H   0  0  0  0  0  0  0  0  0  0  0  0
    3.3527   -1.9064   -1.0672 H   0  0  0  0  0  0  0  0  0  0  0  0
    3.5258   -0.8776   -2.3101 H   0  0  0  0  0  0  0  0  0  0  0  0
 11 10  1  0
 11 17  2  0
 10  5  1  0
 10  9  1  0
  9  8  1  0
 13  8  2  0
 13  7  1  0
  8 12  1  0
 14  7  2  0
 14 15  1  0
  7  6  1  0
 12  6  1  0
 15  3  2  0
  6  4  2  0
  3  4  1  0
  3  1  1  0
  2  1  1  0
  1 16  1  0
  1 18  1  6
  2 19  1  0
  2 20  1  0
  2 21  1  0
  4 22  1  0
  5 34  1  0
  9 23  1  0
  9 24  1  0
 10 25  1  6
 14 26  1  0
 15 27  1  0
 16 28  1  0
 16 29  1  0
 16 30  1  0
 11 31  1  0
 31 32  1  0
  5 33  1  0
M  END
