
     RDKit          3D

 55 59  0  0  0  0  0  0  0  0999 V2000
   -2.1605   -0.2722    7.2705 C   0  0  0  0  0  0  0  0  0  0  0  0
   -1.3786   -0.6792    6.1223 N   0  0  0  0  0  0  0  0  0  0  0  0
   -1.7039   -2.0381    5.7434 C   0  0  0  0  0  0  0  0  0  0  0  0
   -1.5418    0.2554    5.0246 C   0  0  0  0  0  0  0  0  0  0  0  0
   -0.5023    0.0783    3.9267 C   0  0  0  0  0  0  0  0  0  0  0  0
   -0.6650    1.1388    2.8452 C   0  0  0  0  0  0  0  0  0  0  0  0
    0.3170    1.0061    1.7901 N   0  0  0  0  0  0  0  0  0  0  0  0
    0.1399    0.3085    0.6428 C   0  0  0  0  0  0  0  0  0  0  0  0
    1.6174    1.4409    1.8477 C   0  0  0  0  0  0  0  0  0  0  0  0
    2.2546    2.2025    2.8254 C   0  0  0  0  0  0  0  0  0  0  0  0
    3.5771    2.5370    2.6100 C   0  0  0  0  0  0  0  0  0  0  0  0
    4.2476    2.1276    1.4469 C   0  0  0  0  0  0  0  0  0  0  0  0
    3.6138    1.3669    0.4843 C   0  0  0  0  0  0  0  0  0  0  0  0
    2.2778    0.9990    0.6814 C   0  0  0  0  0  0  0  0  0  0  0  0
    1.3060    0.2648   -0.0836 C   0  0  0  0  0  0  0  0  0  0  0  0
    1.4549   -0.4003   -1.3570 C   0  0  0  0  0  0  0  0  0  0  0  0
    2.6480   -1.2455   -1.6813 C   0  0  0  0  0  0  0  0  0  0  0  0
    3.6059   -1.4690   -0.9844 O   0  0  0  0  0  0  0  0  0  0  0  0
    2.4286   -1.7672   -2.9338 N   0  0  0  0  0  0  0  0  0  0  0  0
    1.2114   -1.3651   -3.4342 C   0  0  0  0  0  0  0  0  0  0  0  0
    0.7679   -1.6488   -4.5187 O   0  0  0  0  0  0  0  0  0  0  0  0
    0.5910   -0.4946   -2.3902 C   0  0  0  0  0  0  0  0  0  0  0  0
   -0.6866    0.1514   -2.5980 C   0  0  0  0  0  0  0  0  0  0  0  0
   -1.9147   -0.4305   -3.0669 C   0  0  0  0  0  0  0  0  0  0  0  0
   -2.3129   -1.7229   -3.4282 C   0  0  0  0  0  0  0  0  0  0  0  0
   -3.6211   -1.9346   -3.8150 C   0  0  0  0  0  0  0  0  0  0  0  0
   -4.5504   -0.8818   -3.8488 C   0  0  0  0  0  0  0  0  0  0  0  0
   -4.1905    0.4006   -3.4849 C   0  0  0  0  0  0  0  0  0  0  0  0
   -2.8702    0.6077   -3.0907 C   0  0  0  0  0  0  0  0  0  0  0  0
   -2.2481    1.7477   -2.6623 N   0  0  0  0  0  0  0  0  0  0  0  0
   -0.9547    1.4776   -2.3642 C   0  0  0  0  0  0  0  0  0  0  0  0
   -1.9932   -0.9633    8.0980 H   0  0  0  0  0  0  0  0  0  0  0  0
   -1.8578    0.7224    7.6019 H   0  0  0  0  0  0  0  0  0  0  0  0
   -3.2443   -0.2457    7.0745 H   0  0  0  0  0  0  0  0  0  0  0  0
   -1.0602   -2.3869    4.9363 H   0  0  0  0  0  0  0  0  0  0  0  0
   -1.5491   -2.7057    6.5919 H   0  0  0  0  0  0  0  0  0  0  0  0
   -2.7485   -2.1547    5.4118 H   0  0  0  0  0  0  0  0  0  0  0  0
   -2.5548    0.1952    4.5873 H   0  0  0  0  0  0  0  0  0  0  0  0
   -1.4445    1.2668    5.4303 H   0  0  0  0  0  0  0  0  0  0  0  0
    0.4970    0.1424    4.3652 H   0  0  0  0  0  0  0  0  0  0  0  0
   -0.5851   -0.9066    3.4614 H   0  0  0  0  0  0  0  0  0  0  0  0
   -1.6528    1.0710    2.3880 H   0  0  0  0  0  0  0  0  0  0  0  0
   -0.5846    2.1421    3.2688 H   0  0  0  0  0  0  0  0  0  0  0  0
   -0.8191   -0.1285    0.4095 H   0  0  0  0  0  0  0  0  0  0  0  0
    1.7387    2.5308    3.7188 H   0  0  0  0  0  0  0  0  0  0  0  0
    4.1027    3.1289    3.3476 H   0  0  0  0  0  0  0  0  0  0  0  0
    5.2808    2.4156    1.3030 H   0  0  0  0  0  0  0  0  0  0  0  0
    4.1477    1.0666   -0.4068 H   0  0  0  0  0  0  0  0  0  0  0  0
    3.0640   -2.3905   -3.4103 H   0  0  0  0  0  0  0  0  0  0  0  0
   -1.6130   -2.5475   -3.4013 H   0  0  0  0  0  0  0  0  0  0  0  0
   -3.9406   -2.9293   -4.0971 H   0  0  0  0  0  0  0  0  0  0  0  0
   -5.5676   -1.0815   -4.1595 H   0  0  0  0  0  0  0  0  0  0  0  0
   -4.9071    1.2116   -3.4995 H   0  0  0  0  0  0  0  0  0  0  0  0
   -2.6724    2.6583   -2.5952 H   0  0  0  0  0  0  0  0  0  0  0  0
   -0.2946    2.2534   -2.0105 H   0  0  0  0  0  0  0  0  0  0  0  0
  1  2  1  0
  1 32  1  0
  1 33  1  0
  1 34  1  0
  2  3  1  0
  2  4  1  0
  3 35  1  0
  3 36  1  0
  3 37  1  0
  4  5  1  0
  4 38  1  0
  4 39  1  0
  5  6  1  0
  5 40  1  0
  5 41  1  0
  6  7  1  0
  6 42  1  0
  6 43  1  0
  7  8  1  0
  7  9  1  0
  8 15  2  0
  8 44  1  0
  9 10  2  0
  9 14  1  0
 10 11  1  0
 10 45  1  0
 11 12  2  0
 11 46  1  0
 12 13  1  0
 12 47  1  0
 13 14  2  0
 13 48  1  0
 14 15  1  0
 15 16  1  0
 16 17  1  0
 16 22  2  0
 17 18  2  0
 17 19  1  0
 19 20  1  0
 19 49  1  0
 20 21  2  0
 20 22  1  0
 22 23  1  0
 23 24  1  0
 23 31  2  0
 24 25  2  0
 24 29  1  0
 25 26  1  0
 25 50  1  0
 26 27  2  0
 26 51  1  0
 27 28  1  0
 27 52  1  0
 28 29  2  0
 28 53  1  0
 29 30  1  0
 30 31  1  0
 30 54  1  0
 31 55  1  0
M  END
