
     RDKit          3D

 55 58  0  0  0  0  0  0  0  0999 V2000
    0.2824   -4.6983   -0.5044 C   0  0  0  0  0  0  0  0  0  0  0  0
    0.2328    4.8832   -0.6917 C   0  0  2  0  0  0  0  0  0  0  0  0
   -1.1591   -4.3564   -0.7621 C   0  0  0  0  0  0  0  0  0  0  0  0
   -1.9859   -3.9876    0.3467 C   0  0  0  0  0  0  0  0  0  0  0  0
    1.1990    2.7468   -0.7167 C   0  0  0  0  0  0  0  0  0  0  0  0
   -2.8015   -2.4489   -1.0737 C   0  0  0  0  0  0  0  0  0  0  0  0
    1.3239    0.0625   -0.0386 C   0  0  0  0  0  0  0  0  0  0  0  0
    1.9464    1.0244    0.7558 C   0  0  0  0  0  0  0  0  0  0  0  0
    1.8872    2.3666    0.4221 C   0  0  0  0  0  0  0  0  0  0  0  0
    0.5597    1.8145   -1.5172 C   0  0  0  0  0  0  0  0  0  0  0  0
    0.6252    0.4753   -1.1742 C   0  0  0  0  0  0  0  0  0  0  0  0
    0.7513   -2.2826   -0.3624 N   0  0  0  0  0  0  0  0  0  0  0  0
   -2.9246   -2.9590    0.0786 N   0  0  0  0  0  0  0  0  0  0  0  0
    1.0100   -3.5352    0.1142 C   0  0  0  0  0  0  0  0  0  0  0  0
   -3.4883   -1.4830   -1.6563 N   0  0  0  0  0  0  0  0  0  0  0  0
    1.4029   -1.3633    0.2784 C   0  0  0  0  0  0  0  0  0  0  0  0
    2.4073   -1.9854    1.5436 S   0  0  0  0  0  0  0  0  0  0  0  0
    1.8857   -3.5705    1.1538 C   0  0  0  0  0  0  0  0  0  0  0  0
   -1.4752   -3.2795   -2.0648 S   0  0  0  0  0  0  0  0  0  0  0  0
    0.0842    4.8827    0.6332 F   0  0  0  0  0  0  0  0  0  0  0  0
    0.5259    6.1130   -1.0814 F   0  0  0  0  0  0  0  0  0  0  0  0
   -0.9494    4.5505   -1.2153 F   0  0  0  0  0  0  0  0  0  0  0  0
   -1.8851   -4.4481    1.4768 O   0  0  0  0  0  0  0  0  0  0  0  0
   -4.5143   -0.7213   -0.9630 C   0  0  0  0  0  0  0  0  0  0  0  0
   -3.9965    0.6180   -0.4493 C   0  0  2  0  0  0  0  0  0  0  0  0
   -2.8452    0.4791    0.5422 C   0  0  0  0  0  0  0  0  0  0  0  0
   -2.4173    1.8429    1.0589 C   0  0  0  0  0  0  0  0  0  0  0  0
   -3.5257    2.5475    1.6760 N   0  0  0  0  0  0  0  0  0  0  0  0
   -4.6145    2.7387    0.7370 C   0  0  0  0  0  0  0  0  0  0  0  0
   -5.1252    1.4084    0.2067 C   0  0  0  0  0  0  0  0  0  0  0  0
   -3.0972    3.8027    2.2480 C   0  0  0  0  0  0  0  0  0  0  0  0
    0.3411   -5.5604    0.1610 H   0  0  0  0  0  0  0  0  0  0  0  0
    0.7878   -5.0043   -1.4238 H   0  0  0  0  0  0  0  0  0  0  0  0
    2.4903    0.7413    1.6487 H   0  0  0  0  0  0  0  0  0  0  0  0
    2.3935    3.1009    1.0338 H   0  0  0  0  0  0  0  0  0  0  0  0
    0.0411    2.1201   -2.4161 H   0  0  0  0  0  0  0  0  0  0  0  0
    0.1407   -0.2599   -1.8025 H   0  0  0  0  0  0  0  0  0  0  0  0
   -3.2004   -1.1553   -2.5654 H   0  0  0  0  0  0  0  0  0  0  0  0
    2.2327   -4.4284    1.7080 H   0  0  0  0  0  0  0  0  0  0  0  0
   -5.3377   -0.5627   -1.6611 H   0  0  0  0  0  0  0  0  0  0  0  0
   -4.8909   -1.3315   -0.1421 H   0  0  0  0  0  0  0  0  0  0  0  0
   -3.6385    1.1938   -1.3139 H   0  0  0  0  0  0  0  0  0  0  0  0
   -3.1580   -0.1514    1.3804 H   0  0  0  0  0  0  0  0  0  0  0  0
   -1.9828   -0.0056    0.0799 H   0  0  0  0  0  0  0  0  0  0  0  0
   -1.6195    1.7269    1.7973 H   0  0  0  0  0  0  0  0  0  0  0  0
   -1.9875    2.4234    0.2237 H   0  0  0  0  0  0  0  0  0  0  0  0
   -5.4227    3.2722    1.2435 H   0  0  0  0  0  0  0  0  0  0  0  0
   -4.3041    3.3723   -0.1147 H   0  0  0  0  0  0  0  0  0  0  0  0
   -5.9347    1.5864   -0.5057 H   0  0  0  0  0  0  0  0  0  0  0  0
   -5.5448    0.8265    1.0337 H   0  0  0  0  0  0  0  0  0  0  0  0
   -2.6835    4.5020    1.5045 H   0  0  0  0  0  0  0  0  0  0  0  0
   -3.9369    4.2984    2.7373 H   0  0  0  0  0  0  0  0  0  0  0  0
   -2.3261    3.6277    3.0001 H   0  0  0  0  0  0  0  0  0  0  0  0
   -2.3715   -3.9015   -2.8698 H   0  0  0  0  0  0  0  0  0  0  0  0
    1.2231    4.0807   -1.1017 O   0  0  0  0  0  0  0  0  0  0  0  0
  2 21  1  6
  2 20  1  0
  2 22  1  0
  2 55  1  0
 31 28  1  0
 55  5  1  0
 27 28  1  0
 27 26  1  0
 28 29  1  0
 29 30  1  0
  5  9  2  0
  5 10  1  0
  9  8  1  0
 26 25  1  0
 25 30  1  0
 25 24  1  0
 10 11  2  0
  8  7  2  0
 24 15  1  0
 11  7  1  0
  7 16  1  0
 15  6  1  0
 19  6  1  0
 19  3  2  0
 16 12  2  0
 16 17  1  0
  6 13  2  0
 12 14  1  0
 13  4  1  0
 17 18  1  0
  3  4  1  0
  3  1  1  0
 14  1  1  0
 14 18  2  0
  4 23  2  0
  1 32  1  0
  1 33  1  0
  8 34  1  0
  9 35  1  0
 10 36  1  0
 11 37  1  0
 15 38  1  0
 18 39  1  0
 24 40  1  0
 24 41  1  0
 25 42  1  6
 26 43  1  0
 26 44  1  0
 27 45  1  0
 27 46  1  0
 29 47  1  0
 29 48  1  0
 30 49  1  0
 30 50  1  0
 31 51  1  0
 31 52  1  0
 31 53  1  0
 19 54  1  6
M  END
