
     RDKit          3D

 38 40  0  0  0  0  0  0  0  0999 V2000
   -1.3145   -0.8285    1.8352 O   0  0  0  0  0  0  0  0  0  0  0  0
   -1.2838   -0.0136    0.9258 C   0  0  0  0  0  0  0  0  0  0  0  0
   -0.0581    0.8090    0.7107 C   0  0  0  0  0  0  0  0  0  0  0  0
    1.1863    0.2126    0.9118 C   0  0  0  0  0  0  0  0  0  0  0  0
    2.3603    0.9366    0.7588 C   0  0  0  0  0  0  0  0  0  0  0  0
    3.6999    0.2744    0.9184 C   0  0  0  0  0  0  0  0  0  0  0  0
    4.3005   -0.1164   -0.4407 C   0  0  2  0  0  0  0  0  0  0  0  0
    3.4324   -1.0573   -1.1371 C   0  0  0  0  0  0  0  0  0  0  0  0
    2.7447   -1.8091   -1.6710 N   0  0  0  0  0  0  0  0  0  0  0  0
    5.7191   -0.7080   -0.3129 C   0  0  0  0  0  0  0  0  0  0  0  0
    6.2699   -1.0772   -1.4722 N   0  0  0  0  0  0  0  0  0  0  0  0
    6.2633   -0.8038    0.7692 O   0  0  0  0  0  0  0  0  0  0  0  0
    2.2773    2.2886    0.4281 C   0  0  0  0  0  0  0  0  0  0  0  0
    1.0458    2.8983    0.2527 C   0  0  0  0  0  0  0  0  0  0  0  0
   -0.1230    2.1610    0.3849 C   0  0  0  0  0  0  0  0  0  0  0  0
   -2.4141    0.1550    0.0324 C   0  0  0  0  0  0  0  0  0  0  0  0
   -2.4317    0.7890   -1.1943 C   0  0  0  0  0  0  0  0  0  0  0  0
   -3.6519    0.6795   -1.7543 N   0  0  0  0  0  0  0  0  0  0  0  0
   -4.4794   -0.0278   -0.9216 C   0  0  0  0  0  0  0  0  0  0  0  0
   -5.7459   -0.3092   -1.1627 N   0  0  0  0  0  0  0  0  0  0  0  0
   -6.3520   -1.0098   -0.2141 C   0  0  0  0  0  0  0  0  0  0  0  0
   -5.7275   -1.4328    0.9628 C   0  0  0  0  0  0  0  0  0  0  0  0
   -4.3971   -1.1254    1.1939 C   0  0  0  0  0  0  0  0  0  0  0  0
   -3.7321   -0.3890    0.2168 C   0  0  0  0  0  0  0  0  0  0  0  0
    1.2387   -0.8358    1.1805 H   0  0  0  0  0  0  0  0  0  0  0  0
    4.4000    0.9555    1.4025 H   0  0  0  0  0  0  0  0  0  0  0  0
    3.6198   -0.6104    1.5506 H   0  0  0  0  0  0  0  0  0  0  0  0
    4.3695    0.7773   -1.0723 H   0  0  0  0  0  0  0  0  0  0  0  0
    7.1998   -1.4655   -1.4896 H   0  0  0  0  0  0  0  0  0  0  0  0
    5.8145   -0.9380   -2.3588 H   0  0  0  0  0  0  0  0  0  0  0  0
    3.1847    2.8709    0.3172 H   0  0  0  0  0  0  0  0  0  0  0  0
    0.9928    3.9532    0.0184 H   0  0  0  0  0  0  0  0  0  0  0  0
   -1.0791    2.6533    0.2643 H   0  0  0  0  0  0  0  0  0  0  0  0
   -1.6367    1.2940   -1.7186 H   0  0  0  0  0  0  0  0  0  0  0  0
   -3.9129    1.0500   -2.6551 H   0  0  0  0  0  0  0  0  0  0  0  0
   -7.3929   -1.2556   -0.3886 H   0  0  0  0  0  0  0  0  0  0  0  0
   -6.2938   -2.0035    1.6855 H   0  0  0  0  0  0  0  0  0  0  0  0
   -3.9010   -1.4510    2.0969 H   0  0  0  0  0  0  0  0  0  0  0  0
 21 20  1  0
 21 22  2  0
 20 19  2  0
 22 23  1  0
 19 18  1  0
 19 24  1  0
 23 24  2  0
 18 17  1  0
 24 16  1  0
 17 16  2  0
 16  2  1  0
 11 10  1  0
  2  1  2  0
  2  3  1  0
  4  3  2  0
  4  5  1  0
  3 15  1  0
 10 12  2  0
 10  7  1  0
  6  5  1  0
  6  7  1  0
  5 13  2  0
  7  8  1  0
 15 14  2  0
 13 14  1  0
  8  9  3  0
  4 25  1  0
  6 26  1  0
  6 27  1  0
  7 28  1  6
 11 29  1  0
 11 30  1  0
 13 31  1  0
 14 32  1  0
 15 33  1  0
 17 34  1  0
 18 35  1  0
 21 36  1  0
 22 37  1  0
 23 38  1  0
M  END
