
     RDKit          3D

 35 37  0  0  0  0  0  0  0  0999 V2000
   -3.9039    1.0003   -0.2629 N   0  0  0  0  0  0  0  0  0  0  0  0
    3.6565    1.2075    1.1510 N   0  0  0  0  0  0  0  0  0  0  0  0
   -2.9092   -0.6856    1.1894 C   0  0  0  0  0  0  0  0  0  0  0  0
   -3.9235   -0.4048    0.0936 C   0  0  0  0  0  0  0  0  0  0  0  0
    0.7079   -0.7244    0.0457 C   0  0  0  0  0  0  0  0  0  0  0  0
    1.2974   -1.2520   -1.1200 C   0  0  0  0  0  0  0  0  0  0  0  0
    3.3311   -0.0746   -0.6553 C   0  0  0  0  0  0  0  0  0  0  0  0
    2.7311    0.4265    0.5231 C   0  0  0  0  0  0  0  0  0  0  0  0
   -4.9019    1.3169   -1.2585 C   0  0  0  0  0  0  0  0  0  0  0  0
   -2.5804    1.4073   -0.6872 C   0  0  0  0  0  0  0  0  0  0  0  0
   -1.5465    1.1330    0.3942 C   0  0  0  0  0  0  0  0  0  0  0  0
   -1.5802   -0.2706    0.7725 N   0  0  0  0  0  0  0  0  0  0  0  0
   -0.9025   -2.3976    0.4053 O   0  0  0  0  0  0  0  0  0  0  0  0
    2.5857   -0.9237   -1.4824 C   0  0  0  0  0  0  0  0  0  0  0  0
    4.6573    0.4511   -0.6984 C   0  0  0  0  0  0  0  0  0  0  0  0
    4.8073    1.2230    0.4185 C   0  0  0  0  0  0  0  0  0  0  0  0
    1.4228    0.1174    0.8817 C   0  0  0  0  0  0  0  0  0  0  0  0
   -3.1765   -0.1208    2.0871 H   0  0  0  0  0  0  0  0  0  0  0  0
   -2.9068   -1.7409    1.4461 H   0  0  0  0  0  0  0  0  0  0  0  0
   -4.9210   -0.6675    0.4542 H   0  0  0  0  0  0  0  0  0  0  0  0
   -3.7105   -1.0567   -0.7718 H   0  0  0  0  0  0  0  0  0  0  0  0
    0.7193   -1.9171   -1.7481 H   0  0  0  0  0  0  0  0  0  0  0  0
   -5.8914    1.0313   -0.8988 H   0  0  0  0  0  0  0  0  0  0  0  0
   -4.9116    2.3911   -1.4494 H   0  0  0  0  0  0  0  0  0  0  0  0
   -4.7343    0.8068   -2.2201 H   0  0  0  0  0  0  0  0  0  0  0  0
   -2.2691    0.8925   -1.6136 H   0  0  0  0  0  0  0  0  0  0  0  0
   -2.5858    2.4785   -0.9021 H   0  0  0  0  0  0  0  0  0  0  0  0
   -0.5636    1.4132    0.0285 H   0  0  0  0  0  0  0  0  0  0  0  0
   -1.7594    1.7432    1.2760 H   0  0  0  0  0  0  0  0  0  0  0  0
    3.0157   -1.3244   -2.3918 H   0  0  0  0  0  0  0  0  0  0  0  0
    5.4045    0.2780   -1.4561 H   0  0  0  0  0  0  0  0  0  0  0  0
    5.6589    1.7936    0.7521 H   0  0  0  0  0  0  0  0  0  0  0  0
    0.9855    0.5137    1.7904 H   0  0  0  0  0  0  0  0  0  0  0  0
   -0.6624   -1.1958    0.4103 C   0  0  0  0  0  0  0  0  0  0  0  0
    3.5180    1.7025    2.0160 H   0  0  0  0  0  0  0  0  0  0  0  0
  9  1  1  0
  1  4  1  0
  1 10  1  0
  4  3  1  0
 10 11  1  0
  3 12  1  0
 11 12  1  0
 12 34  1  0
 34 13  2  0
 34  5  1  0
  5  6  2  0
  5 17  1  0
  6 14  1  0
 17  8  2  0
 14  7  2  0
  8  7  1  0
  8  2  1  0
  7 15  1  0
  2 16  1  0
 15 16  2  0
  2 35  1  0
  3 18  1  0
  3 19  1  0
  4 20  1  0
  4 21  1  0
  6 22  1  0
  9 23  1  0
  9 24  1  0
  9 25  1  0
 10 26  1  0
 10 27  1  0
 11 28  1  0
 11 29  1  0
 14 30  1  0
 15 31  1  0
 16 32  1  0
 17 33  1  0
M  END
