
     RDKit          3D

 47 51  0  0  0  0  0  0  0  0999 V2000
    0.0946   -0.7775    0.8326 O   0  0  0  0  0  0  0  0  0  0  0  0
    0.0070   -0.5564   -0.3574 C   0  0  0  0  0  0  0  0  0  0  0  0
   -1.1155   -0.1320   -0.9800 N   0  0  0  0  0  0  0  0  0  0  0  0
   -2.3496    0.1179   -0.3591 C   0  0  0  0  0  0  0  0  0  0  0  0
   -2.4146    0.8118    0.8735 C   0  0  0  0  0  0  0  0  0  0  0  0
   -3.6268    1.0821    1.4419 C   0  0  0  0  0  0  0  0  0  0  0  0
   -4.8356    0.6913    0.8199 C   0  0  0  0  0  0  0  0  0  0  0  0
   -6.1003    0.9638    1.3903 C   0  0  0  0  0  0  0  0  0  0  0  0
   -7.2489    0.5760    0.7552 C   0  0  0  0  0  0  0  0  0  0  0  0
   -7.1828   -0.1011   -0.4810 C   0  0  0  0  0  0  0  0  0  0  0  0
   -5.9726   -0.3766   -1.0572 C   0  0  0  0  0  0  0  0  0  0  0  0
   -4.7683    0.0124   -0.4234 C   0  0  0  0  0  0  0  0  0  0  0  0
   -3.5048   -0.2689   -0.9884 C   0  0  0  0  0  0  0  0  0  0  0  0
    1.1645   -0.8036   -1.3120 C   0  0  0  0  0  0  0  0  0  0  0  0
    2.4184   -0.8675   -0.6122 N   0  0  0  0  0  0  0  0  0  0  0  0
    3.0961    0.1282    0.0393 C   0  0  0  0  0  0  0  0  0  0  0  0
    2.6589    1.5259    0.1155 C   0  0  0  0  0  0  0  0  0  0  0  0
    3.4891    2.4754    0.7102 C   0  0  0  0  0  0  0  0  0  0  0  0
    3.0464    3.7842    0.7792 C   0  0  0  0  0  0  0  0  0  0  0  0
    1.8003    4.1040    0.2583 C   0  0  0  0  0  0  0  0  0  0  0  0
    1.0498    3.0883   -0.3140 C   0  0  0  0  0  0  0  0  0  0  0  0
    1.4675    1.8333   -0.3850 N   0  0  0  0  0  0  0  0  0  0  0  0
    4.1972   -0.2951    0.6021 N   0  0  0  0  0  0  0  0  0  0  0  0
    4.2607   -1.6330    0.3323 C   0  0  0  0  0  0  0  0  0  0  0  0
    3.1433   -2.0175   -0.4238 C   0  0  0  0  0  0  0  0  0  0  0  0
    2.9454   -3.3300   -0.8414 C   0  0  0  0  0  0  0  0  0  0  0  0
    3.9091   -4.2516   -0.4739 C   0  0  0  0  0  0  0  0  0  0  0  0
    5.0335   -3.8818    0.2823 C   0  0  0  0  0  0  0  0  0  0  0  0
    5.2241   -2.5769    0.6932 C   0  0  0  0  0  0  0  0  0  0  0  0
   -1.1014   -0.0794   -1.9876 H   0  0  0  0  0  0  0  0  0  0  0  0
   -1.5086    1.1499    1.3542 H   0  0  0  0  0  0  0  0  0  0  0  0
   -3.6686    1.6200    2.3813 H   0  0  0  0  0  0  0  0  0  0  0  0
   -6.1479    1.4867    2.3382 H   0  0  0  0  0  0  0  0  0  0  0  0
   -8.2131    0.7866    1.1986 H   0  0  0  0  0  0  0  0  0  0  0  0
   -8.0981   -0.4008   -0.9745 H   0  0  0  0  0  0  0  0  0  0  0  0
   -5.9242   -0.8987   -2.0054 H   0  0  0  0  0  0  0  0  0  0  0  0
   -3.4558   -0.7998   -1.9327 H   0  0  0  0  0  0  0  0  0  0  0  0
    1.0035   -1.7655   -1.8029 H   0  0  0  0  0  0  0  0  0  0  0  0
    1.1952   -0.0505   -2.0971 H   0  0  0  0  0  0  0  0  0  0  0  0
    4.4526    2.1879    1.1057 H   0  0  0  0  0  0  0  0  0  0  0  0
    3.6662    4.5457    1.2333 H   0  0  0  0  0  0  0  0  0  0  0  0
    1.4176    5.1145    0.2926 H   0  0  0  0  0  0  0  0  0  0  0  0
    0.0711    3.2937   -0.7317 H   0  0  0  0  0  0  0  0  0  0  0  0
    2.0842   -3.6332   -1.4226 H   0  0  0  0  0  0  0  0  0  0  0  0
    3.7933   -5.2837   -0.7771 H   0  0  0  0  0  0  0  0  0  0  0  0
    5.7613   -4.6379    0.5462 H   0  0  0  0  0  0  0  0  0  0  0  0
    6.0904   -2.2901    1.2754 H   0  0  0  0  0  0  0  0  0  0  0  0
  9 10  2  0
  9  8  1  0
 10 11  1  0
  8  7  2  0
 11 12  2  0
  7 12  1  0
  7  6  1  0
 12 13  1  0
  6  5  2  0
 13  4  2  0
  5  4  1  0
  4  3  1  0
  1  2  2  0
  3  2  1  0
  2 14  1  0
 20 19  1  0
 20 21  2  0
 19 18  2  0
 21 22  1  0
 18 17  1  0
 22 17  2  0
 17 16  1  0
 14 15  1  0
 16 15  1  0
 16 23  2  0
 15 25  1  0
 23 24  1  0
 25 24  2  0
 25 26  1  0
 24 29  1  0
 26 27  2  0
 29 28  2  0
 27 28  1  0
  3 30  1  0
  5 31  1  0
  6 32  1  0
  8 33  1  0
  9 34  1  0
 10 35  1  0
 11 36  1  0
 13 37  1  0
 14 38  1  0
 14 39  1  0
 18 40  1  0
 19 41  1  0
 20 42  1  0
 21 43  1  0
 26 44  1  0
 27 45  1  0
 28 46  1  0
 29 47  1  0
M  END
