
     RDKit          3D

 73 75  0  0  0  0  0  0  0  0999 V2000
   -2.8917    3.4781    0.5981 C   0  0  0  0  0  0  0  0  0  0  0  0
   -3.7578    4.1732    1.4233 C   0  0  0  0  0  0  0  0  0  0  0  0
   -4.6821    2.1126    2.2030 C   0  0  0  0  0  0  0  0  0  0  0  0
   -3.5359   -0.1835   -1.3337 C   0  0  0  0  0  0  0  0  0  0  0  0
   -4.1518   -1.3382   -1.0365 N   0  0  0  0  0  0  0  0  0  0  0  0
   -5.4601   -1.7133   -1.5267 C   0  0  0  0  0  0  0  0  0  0  0  0
   -6.5347   -1.4516   -0.5024 C   0  0  0  0  0  0  0  0  0  0  0  0
   -6.8367   -0.1497   -0.1049 C   0  0  0  0  0  0  0  0  0  0  0  0
    4.5218    1.8419    3.0317 C   0  0  0  0  0  0  0  0  0  0  0  0
    5.2295    0.5400    2.6728 C   0  0  1  0  0  0  0  0  0  0  0  0
    6.6145    0.7916    2.0877 C   0  0  0  0  0  0  0  0  0  0  0  0
    5.3483   -0.3406    3.9118 C   0  0  0  0  0  0  0  0  0  0  0  0
    4.1009    0.1307    0.5467 C   0  0  0  0  0  0  0  0  0  0  0  0
    3.0448   -0.8002   -1.4685 C   0  0  2  0  0  0  0  0  0  0  0  0
    1.5861   -1.1763   -1.6944 C   0  0  0  0  0  0  0  0  0  0  0  0
   -1.0635   -0.4485   -1.4860 C   0  0  0  0  0  0  0  0  0  0  0  0
   -2.2031    0.0349   -0.5977 C   0  0  1  0  0  0  0  0  0  0  0  0
   -2.9059    2.0774    0.5610 C   0  0  0  0  0  0  0  0  0  0  0  0
   -4.6643    3.4988    2.2352 C   0  0  0  0  0  0  0  0  0  0  0  0
   -3.8158    1.4030    1.3817 C   0  0  0  0  0  0  0  0  0  0  0  0
   -8.4128   -0.8492    1.3785 C   0  0  0  0  0  0  0  0  0  0  0  0
   -8.1985   -2.1796    1.0585 C   0  0  0  0  0  0  0  0  0  0  0  0
   -7.2405   -2.4823    0.1011 C   0  0  0  0  0  0  0  0  0  0  0  0
    3.9708   -1.7295   -2.2715 C   0  0  0  0  0  0  0  0  0  0  0  0
    5.4186   -1.3896   -2.0634 C   0  0  0  0  0  0  0  0  0  0  0  0
    6.1608   -2.0193   -1.0674 C   0  0  0  0  0  0  0  0  0  0  0  0
    7.4817   -1.6633   -0.8309 C   0  0  0  0  0  0  0  0  0  0  0  0
    8.0819   -0.6706   -1.5926 C   0  0  0  0  0  0  0  0  0  0  0  0
    7.3540   -0.0408   -2.5942 C   0  0  0  0  0  0  0  0  0  0  0  0
    6.0331   -0.3982   -2.8242 C   0  0  0  0  0  0  0  0  0  0  0  0
    3.3603   -0.8275   -0.0607 N   0  0  0  0  0  0  0  0  0  0  0  0
   -2.0042    1.4138   -0.2515 N   0  0  0  0  0  0  0  0  0  0  0  0
   -7.7473    0.1514    0.8089 N   0  0  0  0  0  0  0  0  0  0  0  0
    4.4222   -0.2659    1.7777 O   0  0  0  0  0  0  0  0  0  0  0  0
    4.3928    1.1954    0.0464 O   0  0  0  0  0  0  0  0  0  0  0  0
    0.5212   -0.1344   -0.6558 S   0  0  0  0  0  0  0  0  0  0  0  0
   -2.1940    4.0206   -0.0295 H   0  0  0  0  0  0  0  0  0  0  0  0
   -3.7256    5.2557    1.4286 H   0  0  0  0  0  0  0  0  0  0  0  0
   -5.3854    1.5622    2.8149 H   0  0  0  0  0  0  0  0  0  0  0  0
   -3.7491   -1.9261   -0.3236 H   0  0  0  0  0  0  0  0  0  0  0  0
   -5.6599   -1.1581   -2.4424 H   0  0  0  0  0  0  0  0  0  0  0  0
   -5.4463   -2.7712   -1.7905 H   0  0  0  0  0  0  0  0  0  0  0  0
   -6.3126    0.6886   -0.5535 H   0  0  0  0  0  0  0  0  0  0  0  0
    3.5064    1.6532    3.3846 H   0  0  0  0  0  0  0  0  0  0  0  0
    5.0655    2.3317    3.8408 H   0  0  0  0  0  0  0  0  0  0  0  0
    4.4761    2.5350    2.1949 H   0  0  0  0  0  0  0  0  0  0  0  0
    7.2482    1.2393    2.8548 H   0  0  0  0  0  0  0  0  0  0  0  0
    7.0808   -0.1426    1.7713 H   0  0  0  0  0  0  0  0  0  0  0  0
    6.5917    1.4646    1.2342 H   0  0  0  0  0  0  0  0  0  0  0  0
    4.3692   -0.5585    4.3411 H   0  0  0  0  0  0  0  0  0  0  0  0
    5.8403   -1.2864    3.6800 H   0  0  0  0  0  0  0  0  0  0  0  0
    5.9414    0.1674    4.6717 H   0  0  0  0  0  0  0  0  0  0  0  0
    3.1923    0.2242   -1.8116 H   0  0  0  0  0  0  0  0  0  0  0  0
    1.3324   -1.0183   -2.7441 H   0  0  0  0  0  0  0  0  0  0  0  0
    1.4122   -2.2303   -1.4624 H   0  0  0  0  0  0  0  0  0  0  0  0
   -1.1735   -1.5197   -1.6598 H   0  0  0  0  0  0  0  0  0  0  0  0
   -1.0882    0.0563   -2.4546 H   0  0  0  0  0  0  0  0  0  0  0  0
   -2.1901   -0.5686    0.3162 H   0  0  0  0  0  0  0  0  0  0  0  0
   -5.3444    4.0463    2.8738 H   0  0  0  0  0  0  0  0  0  0  0  0
   -3.8666    0.3224    1.3890 H   0  0  0  0  0  0  0  0  0  0  0  0
   -9.1532   -0.5781    2.1232 H   0  0  0  0  0  0  0  0  0  0  0  0
   -8.7676   -2.9578    1.5481 H   0  0  0  0  0  0  0  0  0  0  0  0
   -7.0443   -3.5126   -0.1710 H   0  0  0  0  0  0  0  0  0  0  0  0
    3.7820   -2.7647   -1.9728 H   0  0  0  0  0  0  0  0  0  0  0  0
    3.7069   -1.6517   -3.3292 H   0  0  0  0  0  0  0  0  0  0  0  0
    5.7018   -2.7981   -0.4694 H   0  0  0  0  0  0  0  0  0  0  0  0
    8.0426   -2.1620   -0.0507 H   0  0  0  0  0  0  0  0  0  0  0  0
    9.1118   -0.3918   -1.4102 H   0  0  0  0  0  0  0  0  0  0  0  0
    7.8172    0.7295   -3.1980 H   0  0  0  0  0  0  0  0  0  0  0  0
    5.4702    0.1000   -3.6054 H   0  0  0  0  0  0  0  0  0  0  0  0
    3.2396   -1.7030    0.4257 H   0  0  0  0  0  0  0  0  0  0  0  0
   -1.6445    1.9787   -1.0069 H   0  0  0  0  0  0  0  0  0  0  0  0
   -3.9598    0.6394   -2.1271 O   0  0  0  0  0  0  0  0  0  0  0  0
 11 10  1  0
  9 10  1  0
 10 34  1  6
 10 12  1  0
 34 13  1  0
 35 13  2  0
 13 31  1  0
 31 14  1  0
 21 22  2  0
 21 33  1  0
 22 23  1  0
 30 29  2  0
 30 25  1  0
 29 28  1  0
 14 15  1  0
 14 24  1  0
 33  8  2  0
 15 36  1  0
 24 25  1  0
 25 26  2  0
 23  7  2  0
 28 27  2  0
 26 27  1  0
  8  7  1  0
  7  6  1  0
 36 16  1  0
 16 17  1  0
  6  5  1  0
  5  4  1  0
 73  4  2  0
  4 17  1  0
 32 17  1  0
 32 18  1  0
  1 18  2  0
  1  2  1  0
 18 20  1  0
  2 19  2  0
 20  3  2  0
 19  3  1  0
  1 37  1  0
  2 38  1  0
  3 39  1  0
  5 40  1  0
  6 41  1  0
  6 42  1  0
  8 43  1  0
  9 44  1  0
  9 45  1  0
  9 46  1  0
 11 47  1  0
 11 48  1  0
 11 49  1  0
 12 50  1  0
 12 51  1  0
 12 52  1  0
 14 53  1  6
 15 54  1  0
 15 55  1  0
 16 56  1  0
 16 57  1  0
 17 58  1  1
 19 59  1  0
 20 60  1  0
 21 61  1  0
 22 62  1  0
 23 63  1  0
 24 64  1  0
 24 65  1  0
 26 66  1  0
 27 67  1  0
 28 68  1  0
 29 69  1  0
 30 70  1  0
 31 71  1  0
 32 72  1  0
M  END
