
     RDKit          3D

 33 35  0  0  0  0  0  0  0  0999 V2000
    1.2434   -1.2343    0.1929 N   0  0  0  0  0  0  0  0  0  0  0  0
   -0.0010   -1.7626    0.2938 C   0  0  0  0  0  0  0  0  0  0  0  0
   -0.1262   -3.0635    0.5352 N   0  0  0  0  0  0  0  0  0  0  0  0
   -1.0656   -0.8626    0.1288 C   0  0  0  0  0  0  0  0  0  0  0  0
   -2.4458   -1.1866    0.1619 C   0  0  0  0  0  0  0  0  0  0  0  0
   -3.4407   -0.0794    0.0434 C   0  0  0  0  0  0  0  0  0  0  0  0
   -4.5116   -0.2135   -0.8382 C   0  0  0  0  0  0  0  0  0  0  0  0
   -5.4568    0.7019   -0.9883 N   0  0  0  0  0  0  0  0  0  0  0  0
   -5.3893    1.7959   -0.2359 C   0  0  0  0  0  0  0  0  0  0  0  0
   -4.3822    2.0208    0.6893 C   0  0  0  0  0  0  0  0  0  0  0  0
   -3.3868    1.0667    0.8283 C   0  0  0  0  0  0  0  0  0  0  0  0
   -2.8554   -2.3466    0.2709 O   0  0  0  0  0  0  0  0  0  0  0  0
   -0.3975    0.7282   -0.2058 S   0  0  0  0  0  0  0  0  0  0  0  0
    1.1947    0.0422   -0.0652 C   0  0  0  0  0  0  0  0  0  0  0  0
    2.2569    0.8462   -0.2239 N   0  0  0  0  0  0  0  0  0  0  0  0
    3.6229    0.5524   -0.1445 C   0  0  0  0  0  0  0  0  0  0  0  0
    4.4970    1.6176   -0.3792 C   0  0  0  0  0  0  0  0  0  0  0  0
    5.8660    1.4282   -0.3193 C   0  0  0  0  0  0  0  0  0  0  0  0
    6.3904    0.1754   -0.0251 C   0  0  0  0  0  0  0  0  0  0  0  0
    5.5210   -0.8794    0.2072 C   0  0  0  0  0  0  0  0  0  0  0  0
    4.1438   -0.7071    0.1510 C   0  0  0  0  0  0  0  0  0  0  0  0
    0.6911   -3.6260    0.6959 H   0  0  0  0  0  0  0  0  0  0  0  0
   -1.0405   -3.4730    0.6257 H   0  0  0  0  0  0  0  0  0  0  0  0
   -4.5925   -1.0996   -1.4587 H   0  0  0  0  0  0  0  0  0  0  0  0
   -6.1780    2.5270   -0.3724 H   0  0  0  0  0  0  0  0  0  0  0  0
   -4.3823    2.9197    1.2896 H   0  0  0  0  0  0  0  0  0  0  0  0
   -2.5990    1.2067    1.5584 H   0  0  0  0  0  0  0  0  0  0  0  0
    2.0512    1.8129   -0.4290 H   0  0  0  0  0  0  0  0  0  0  0  0
    4.1002    2.5988   -0.6125 H   0  0  0  0  0  0  0  0  0  0  0  0
    6.5245    2.2665   -0.5053 H   0  0  0  0  0  0  0  0  0  0  0  0
    7.4608    0.0261    0.0213 H   0  0  0  0  0  0  0  0  0  0  0  0
    5.9121   -1.8616    0.4393 H   0  0  0  0  0  0  0  0  0  0  0  0
    3.4893   -1.5436    0.3338 H   0  0  0  0  0  0  0  0  0  0  0  0
  1  2  1  0
  1 14  2  0
  2  3  1  0
  2  4  2  0
  4  5  1  0
  4 13  1  0
  5  6  1  0
  5 12  2  0
  6  7  2  0
  6 11  1  0
  7  8  1  0
  8  9  2  0
  9 10  1  0
 10 11  2  0
 13 14  1  0
 14 15  1  0
 15 16  1  0
 16 17  2  0
 16 21  1  0
 17 18  1  0
 18 19  2  0
 19 20  1  0
 20 21  2  0
  3 22  1  0
  3 23  1  0
  7 24  1  0
  9 25  1  0
 10 26  1  0
 11 27  1  0
 15 28  1  0
 17 29  1  0
 18 30  1  0
 19 31  1  0
 20 32  1  0
 21 33  1  0
M  END
