
     RDKit          3D

 24 24  0  0  0  0  0  0  0  0999 V2000
    1.7760    0.2189   -0.5208 C   0  0  0  0  0  0  0  0  0  0  0  0
    0.8250   -0.2537   -1.6127 C   0  0  2  0  0  0  0  0  0  0  0  0
    1.1660    0.2642   -2.8804 O   0  0  0  0  0  0  0  0  0  0  0  0
   -0.5832    0.2239   -1.2913 C   0  0  1  0  0  0  0  0  0  0  0  0
   -1.5408   -0.2837   -2.1935 O   0  0  0  0  0  0  0  0  0  0  0  0
   -1.0050   -0.2105    0.1085 C   0  0  2  0  0  0  0  0  0  0  0  0
   -2.2535    0.3442    0.4519 O   0  0  0  0  0  0  0  0  0  0  0  0
    0.0273    0.2420    1.1394 C   0  0  1  0  0  0  0  0  0  0  0  0
   -0.3404   -0.2485    2.5290 C   0  0  0  0  0  0  0  0  0  0  0  0
    0.6307    0.2253    3.4384 O   0  0  0  0  0  0  0  0  0  0  0  0
    1.3175   -0.2984    0.7512 N   0  0  0  0  0  0  0  0  0  0  0  0
    1.8322    1.3200   -0.5471 H   0  0  0  0  0  0  0  0  0  0  0  0
    2.7818   -0.1596   -0.7174 H   0  0  0  0  0  0  0  0  0  0  0  0
    0.8312   -1.3530   -1.6221 H   0  0  0  0  0  0  0  0  0  0  0  0
    1.9388   -0.2076   -3.2049 H   0  0  0  0  0  0  0  0  0  0  0  0
   -0.5768    1.3273   -1.3100 H   0  0  0  0  0  0  0  0  0  0  0  0
   -1.3352    0.0505   -3.0722 H   0  0  0  0  0  0  0  0  0  0  0  0
   -1.0452   -1.3114    0.1325 H   0  0  0  0  0  0  0  0  0  0  0  0
   -2.8950    0.0708   -0.2118 H   0  0  0  0  0  0  0  0  0  0  0  0
    0.0296    1.3477    1.1504 H   0  0  0  0  0  0  0  0  0  0  0  0
   -0.3771   -1.3461    2.5168 H   0  0  0  0  0  0  0  0  0  0  0  0
   -1.3398    0.1127    2.7910 H   0  0  0  0  0  0  0  0  0  0  0  0
    0.4475   -0.1567    4.3011 H   0  0  0  0  0  0  0  0  0  0  0  0
    1.9990   -0.0996    1.4706 H   0  0  0  0  0  0  0  0  0  0  0  0
  1  2  1  0
  1 11  1  0
  1 12  1  0
  1 13  1  0
  2  3  1  0
  2  4  1  0
  2 14  1  6
  3 15  1  0
  4  5  1  0
  4  6  1  0
  4 16  1  1
  5 17  1  0
  6  7  1  0
  6  8  1  0
  6 18  1  6
  7 19  1  0
  8  9  1  0
  8 11  1  0
  8 20  1  1
  9 10  1  0
  9 21  1  0
  9 22  1  0
 10 23  1  0
 11 24  1  0
M  END
