
     RDKit          3D

 12 11  0  0  0  0  0  0  0  0999 V2000
   -0.0406    0.0147    2.0141 C   0  0  0  0  0  0  0  0  0  0  0  0
    0.7466   -0.0023    0.7168 C   0  0  0  0  0  0  0  0  0  0  0  0
   -0.1253   -0.0275   -0.5236 C   0  0  0  0  0  0  0  0  0  0  0  0
   -1.3468   -0.0459   -0.4735 O   0  0  0  0  0  0  0  0  0  0  0  0
    0.5517   -0.0267   -1.6842 N   0  0  0  0  0  0  0  0  0  0  0  0
    0.6395    0.0297    2.8651 H   0  0  0  0  0  0  0  0  0  0  0  0
   -0.6789    0.8947    2.0855 H   0  0  0  0  0  0  0  0  0  0  0  0
   -0.6735   -0.8667    2.1118 H   0  0  0  0  0  0  0  0  0  0  0  0
    1.4038    0.8702    0.6591 H   0  0  0  0  0  0  0  0  0  0  0  0
    1.4110   -0.8708    0.6868 H   0  0  0  0  0  0  0  0  0  0  0  0
    0.0629   -0.0570   -2.5637 H   0  0  0  0  0  0  0  0  0  0  0  0
    1.5564   -0.0250   -1.7129 H   0  0  0  0  0  0  0  0  0  0  0  0
  1  2  1  0
  1  6  1  0
  1  7  1  0
  1  8  1  0
  2  3  1  0
  2  9  1  0
  2 10  1  0
  3  4  2  0
  3  5  1  0
  5 11  1  0
  5 12  1  0
M  END
