
     RDKit          3D

 37 41  0  0  0  0  0  0  0  0999 V2000
   -0.1503    3.1393   -0.8109 C   0  0  0  0  0  0  0  0  0  0  0  0
   -0.3737    4.1894    0.0688 C   0  0  0  0  0  0  0  0  0  0  0  0
   -0.7170    3.8980    1.3787 C   0  0  0  0  0  0  0  0  0  0  0  0
   -0.8165    2.5638    1.7522 C   0  0  0  0  0  0  0  0  0  0  0  0
   -0.6012    1.5573    0.9177 N   0  0  0  0  0  0  0  0  0  0  0  0
   -0.2798    1.8422   -0.3378 C   0  0  0  0  0  0  0  0  0  0  0  0
   -0.0989    0.6598   -1.2753 C   0  0  1  0  0  0  0  0  0  0  0  0
    0.6658   -0.3814   -0.6387 N   0  0  0  0  0  0  0  0  0  0  0  0
    2.0129   -0.3927   -0.3865 C   0  0  0  0  0  0  0  0  0  0  0  0
    3.0562    0.4152   -0.8171 C   0  0  0  0  0  0  0  0  0  0  0  0
    4.3227    0.0885   -0.3590 C   0  0  0  0  0  0  0  0  0  0  0  0
    4.5337   -1.0049    0.4930 C   0  0  0  0  0  0  0  0  0  0  0  0
    3.4856   -1.8029    0.9189 C   0  0  0  0  0  0  0  0  0  0  0  0
    2.2017   -1.4865    0.4776 C   0  0  0  0  0  0  0  0  0  0  0  0
    0.9985   -2.0895    0.7513 N   0  0  0  0  0  0  0  0  0  0  0  0
    0.1126   -1.3936    0.0903 C   0  0  0  0  0  0  0  0  0  0  0  0
   -1.3175   -1.5892    0.0302 C   0  0  0  0  0  0  0  0  0  0  0  0
   -1.9802   -2.5287    0.8140 C   0  0  0  0  0  0  0  0  0  0  0  0
   -3.3486   -2.6980    0.7009 C   0  0  0  0  0  0  0  0  0  0  0  0
   -4.0562   -1.9160   -0.2095 C   0  0  0  0  0  0  0  0  0  0  0  0
   -3.4126   -0.9731   -0.9923 C   0  0  0  0  0  0  0  0  0  0  0  0
   -2.0320   -0.7958   -0.8819 C   0  0  0  0  0  0  0  0  0  0  0  0
   -1.3511    0.0790   -1.6980 N   0  0  0  0  0  0  0  0  0  0  0  0
    0.1230    3.3246   -1.8417 H   0  0  0  0  0  0  0  0  0  0  0  0
   -0.2754    5.2145   -0.2627 H   0  0  0  0  0  0  0  0  0  0  0  0
   -0.8976    4.6819    2.1011 H   0  0  0  0  0  0  0  0  0  0  0  0
   -1.0763    2.2999    2.7712 H   0  0  0  0  0  0  0  0  0  0  0  0
    0.4320    0.9910   -2.1715 H   0  0  0  0  0  0  0  0  0  0  0  0
    2.9004    1.2587   -1.4770 H   0  0  0  0  0  0  0  0  0  0  0  0
    5.1673    0.6915   -0.6655 H   0  0  0  0  0  0  0  0  0  0  0  0
    5.5399   -1.2259    0.8242 H   0  0  0  0  0  0  0  0  0  0  0  0
    3.6530   -2.6465    1.5763 H   0  0  0  0  0  0  0  0  0  0  0  0
   -1.4071   -3.1252    1.5125 H   0  0  0  0  0  0  0  0  0  0  0  0
   -3.8626   -3.4287    1.3101 H   0  0  0  0  0  0  0  0  0  0  0  0
   -5.1272   -2.0386   -0.3078 H   0  0  0  0  0  0  0  0  0  0  0  0
   -3.9771   -0.3709   -1.6934 H   0  0  0  0  0  0  0  0  0  0  0  0
   -1.9197    0.6937   -2.2604 H   0  0  0  0  0  0  0  0  0  0  0  0
  3  2  1  0
  3  4  2  0
  2  1  2  0
  1  6  1  0
  4  5  1  0
  6  5  2  0
  6  7  1  0
  7 23  1  0
  7  8  1  0
 23 22  1  0
 10 11  2  0
 10  9  1  0
 11 12  1  0
  8  9  1  0
  8 16  1  0
  9 14  2  0
 22 21  1  0
 22 17  2  0
 21 20  2  0
 12 13  2  0
 16 17  1  0
 16 15  2  0
 17 18  1  0
 14 13  1  0
 14 15  1  0
 20 19  1  0
 18 19  2  0
  1 24  1  0
  2 25  1  0
  3 26  1  0
  4 27  1  0
  7 28  1  6
 10 29  1  0
 11 30  1  0
 12 31  1  0
 13 32  1  0
 18 33  1  0
 19 34  1  0
 20 35  1  0
 21 36  1  0
 23 37  1  0
M  END
