
     RDKit          3D

 52 55  0  0  0  0  0  0  0  0999 V2000
    6.0596    2.0542    1.3534 O   0  0  0  0  0  0  0  0  0  0  0  0
    5.5088    0.5521    1.4417 P   0  0  1  0  0  0  0  0  0  0  0  0
    6.4910   -0.5477    1.3655 O   0  0  0  0  0  0  0  0  0  0  0  0
    4.6501    0.4246    2.7839 O   0  0  0  0  0  0  0  0  0  0  0  0
    4.2937    0.5821    0.0754 C   0  0  1  0  0  0  0  0  0  0  0  0
    4.8499    1.2833   -1.5247 P   0  0  1  0  0  0  0  0  0  0  0  0
    5.0231    2.8577   -1.3043 O   0  0  0  0  0  0  0  0  0  0  0  0
    6.3094    0.6346   -1.6304 O   0  0  0  0  0  0  0  0  0  0  0  0
    3.9197    1.0135   -2.6405 O   0  0  0  0  0  0  0  0  0  0  0  0
    3.8274   -0.7639   -0.1096 N   0  0  0  0  0  0  0  0  0  0  0  0
    2.5188   -1.0784   -0.2070 C   0  0  0  0  0  0  0  0  0  0  0  0
    1.6222   -0.1223   -0.0448 N   0  0  0  0  0  0  0  0  0  0  0  0
    2.1056   -2.4078   -0.4521 C   0  0  0  0  0  0  0  0  0  0  0  0
    2.8253   -3.6231   -0.6588 C   0  0  0  0  0  0  0  0  0  0  0  0
    1.9940   -4.6720   -0.8563 C   0  0  0  0  0  0  0  0  0  0  0  0
    0.3195   -4.2370   -0.8022 S   0  0  0  0  0  0  0  0  0  0  0  0
    0.7248   -2.5817   -0.5009 C   0  0  0  0  0  0  0  0  0  0  0  0
   -0.1791   -1.6224   -0.3384 N   0  0  0  0  0  0  0  0  0  0  0  0
    0.3226   -0.4212   -0.1136 C   0  0  0  0  0  0  0  0  0  0  0  0
   -0.6294    0.6962    0.0789 C   0  0  0  0  0  0  0  0  0  0  0  0
   -2.0000    0.4405    0.0614 C   0  0  0  0  0  0  0  0  0  0  0  0
   -0.1645    1.9952    0.2709 C   0  0  0  0  0  0  0  0  0  0  0  0
   -1.0721    3.0291    0.4384 C   0  0  0  0  0  0  0  0  0  0  0  0
   -2.4332    2.7788    0.4315 C   0  0  0  0  0  0  0  0  0  0  0  0
   -2.9070    1.4788    0.2471 C   0  0  0  0  0  0  0  0  0  0  0  0
   -4.2959    1.3016    0.2249 N   0  0  0  0  0  0  0  0  0  0  0  0
   -4.9940    0.1768    0.5283 C   0  0  0  0  0  0  0  0  0  0  0  0
   -4.4748   -0.8697    0.8741 O   0  0  0  0  0  0  0  0  0  0  0  0
   -6.4769    0.3084    0.4281 C   0  0  0  0  0  0  0  0  0  0  0  0
   -7.2609   -0.5297    1.2195 C   0  0  0  0  0  0  0  0  0  0  0  0
   -8.6424   -0.4667    1.1675 C   0  0  0  0  0  0  0  0  0  0  0  0
   -9.2296    0.4321    0.2963 C   0  0  0  0  0  0  0  0  0  0  0  0
  -10.5651    0.4957    0.2348 F   0  0  0  0  0  0  0  0  0  0  0  0
   -8.4849    1.2631   -0.5182 C   0  0  0  0  0  0  0  0  0  0  0  0
   -7.1025    1.1971   -0.4446 C   0  0  0  0  0  0  0  0  0  0  0  0
    6.8222    2.2543    1.9164 H   0  0  0  0  0  0  0  0  0  0  0  0
    4.0374    1.1473    2.9757 H   0  0  0  0  0  0  0  0  0  0  0  0
    3.4389    1.1934    0.3821 H   0  0  0  0  0  0  0  0  0  0  0  0
    5.6354    3.1189   -0.6014 H   0  0  0  0  0  0  0  0  0  0  0  0
    6.7231    0.7079   -2.5025 H   0  0  0  0  0  0  0  0  0  0  0  0
    4.5124   -1.4816   -0.2887 H   0  0  0  0  0  0  0  0  0  0  0  0
    3.9018   -3.7187   -0.6617 H   0  0  0  0  0  0  0  0  0  0  0  0
    2.2694   -5.6998   -1.0349 H   0  0  0  0  0  0  0  0  0  0  0  0
   -2.3385   -0.5685   -0.1066 H   0  0  0  0  0  0  0  0  0  0  0  0
    0.8977    2.1927    0.2858 H   0  0  0  0  0  0  0  0  0  0  0  0
   -0.7184    4.0413    0.5828 H   0  0  0  0  0  0  0  0  0  0  0  0
   -3.1331    3.5941    0.5714 H   0  0  0  0  0  0  0  0  0  0  0  0
   -4.8272    2.1531    0.1285 H   0  0  0  0  0  0  0  0  0  0  0  0
   -6.7900   -1.2337    1.8922 H   0  0  0  0  0  0  0  0  0  0  0  0
   -9.2526   -1.1064    1.7908 H   0  0  0  0  0  0  0  0  0  0  0  0
   -8.9728    1.9438   -1.2029 H   0  0  0  0  0  0  0  0  0  0  0  0
   -6.5255    1.8332   -1.1038 H   0  0  0  0  0  0  0  0  0  0  0  0
 10  5  1  0
 10 11  1  0
  5  6  1  0
  5  2  1  0
  9  6  2  0
  3  2  2  0
  6  7  1  1
  2  1  1  1
  6  8  1  0
 14 15  2  0
 14 13  1  0
  2  4  1  0
 11 13  2  0
 11 12  1  0
 15 16  1  0
 13 17  1  0
 12 19  2  0
 17 16  1  0
 17 18  2  0
 19 18  1  0
 19 20  1  0
 22 20  1  0
 22 23  2  0
 20 21  2  0
 23 24  1  0
 21 25  1  0
 24 25  2  0
 28 27  2  0
 25 26  1  0
 27 26  1  0
 27 29  1  0
 35 29  1  0
 35 34  2  0
 29 30  2  0
 34 32  1  0
 30 31  1  0
 32 31  2  0
 32 33  1  0
  1 36  1  0
  4 37  1  0
  5 38  1  1
  7 39  1  0
  8 40  1  0
 10 41  1  0
 14 42  1  0
 15 43  1  0
 21 44  1  0
 22 45  1  0
 23 46  1  0
 24 47  1  0
 26 48  1  0
 30 49  1  0
 31 50  1  0
 34 51  1  0
 35 52  1  0
M  END
