
     RDKit          3D

 38 41  0  0  0  0  0  0  0  0999 V2000
    5.3900    2.2930   -1.3524 O   0  0  0  0  0  0  0  0  0  0  0  0
    5.5312    1.3492   -0.1853 S   0  0  0  0  0  0  0  0  0  0  0  0
    5.2619    2.3425    1.2998 C   0  0  0  0  0  0  0  0  0  0  0  0
    4.0205    0.3897   -0.0895 C   0  0  0  0  0  0  0  0  0  0  0  0
    2.9253    0.7549   -0.8540 C   0  0  0  0  0  0  0  0  0  0  0  0
    3.9862   -0.7418    0.7127 C   0  0  0  0  0  0  0  0  0  0  0  0
    2.8265   -1.4950    0.7758 C   0  0  0  0  0  0  0  0  0  0  0  0
    1.7060   -1.1436    0.0194 C   0  0  0  0  0  0  0  0  0  0  0  0
    1.7721   -0.0118   -0.7945 C   0  0  0  0  0  0  0  0  0  0  0  0
    0.4964   -1.9635    0.0621 C   0  0  0  0  0  0  0  0  0  0  0  0
   -0.8822   -1.5327    0.0259 C   0  0  0  0  0  0  0  0  0  0  0  0
   -1.6408   -2.7042    0.0905 C   0  0  0  0  0  0  0  0  0  0  0  0
   -0.8314   -3.7785    0.1587 O   0  0  0  0  0  0  0  0  0  0  0  0
    0.4407   -3.3130    0.1424 C   0  0  0  0  0  0  0  0  0  0  0  0
   -3.0234   -2.7200    0.0960 C   0  0  0  0  0  0  0  0  0  0  0  0
   -1.5333   -0.3063   -0.0169 C   0  0  0  0  0  0  0  0  0  0  0  0
   -2.9244   -0.2953   -0.0115 C   0  0  0  0  0  0  0  0  0  0  0  0
   -3.6581   -1.4935    0.0401 C   0  0  0  0  0  0  0  0  0  0  0  0
   -3.6080    0.9871   -0.0562 C   0  0  0  0  0  0  0  0  0  0  0  0
   -4.9492    1.0358   -0.0505 O   0  0  0  0  0  0  0  0  0  0  0  0
   -5.2234    2.3528   -0.0969 C   0  0  0  0  0  0  0  0  0  0  0  0
   -6.6280    2.8008   -0.1041 C   0  0  0  0  0  0  0  0  0  0  0  0
   -4.1445    3.0505   -0.1284 N   0  0  0  0  0  0  0  0  0  0  0  0
   -3.0972    2.1684   -0.1026 N   0  0  0  0  0  0  0  0  0  0  0  0
    4.3291    2.8957    1.2009 H   0  0  0  0  0  0  0  0  0  0  0  0
    5.2304    1.6953    2.1742 H   0  0  0  0  0  0  0  0  0  0  0  0
    6.1022    3.0297    1.3878 H   0  0  0  0  0  0  0  0  0  0  0  0
    2.9683    1.6226   -1.4988 H   0  0  0  0  0  0  0  0  0  0  0  0
    4.8504   -1.0366    1.2960 H   0  0  0  0  0  0  0  0  0  0  0  0
    2.7903   -2.3603    1.4250 H   0  0  0  0  0  0  0  0  0  0  0  0
    0.9275    0.2641   -1.4128 H   0  0  0  0  0  0  0  0  0  0  0  0
    1.2193   -4.0591    0.1740 H   0  0  0  0  0  0  0  0  0  0  0  0
   -3.5867   -3.6416    0.1461 H   0  0  0  0  0  0  0  0  0  0  0  0
   -0.9804    0.6233   -0.0464 H   0  0  0  0  0  0  0  0  0  0  0  0
   -4.7390   -1.4714    0.0423 H   0  0  0  0  0  0  0  0  0  0  0  0
   -7.1496    2.4607    0.7908 H   0  0  0  0  0  0  0  0  0  0  0  0
   -6.6624    3.8863   -0.1368 H   0  0  0  0  0  0  0  0  0  0  0  0
   -7.1583    2.4075   -0.9717 H   0  0  0  0  0  0  0  0  0  0  0  0
  1  2  2  0
  2  3  1  1
  2  4  1  0
  4  5  2  0
  4  6  1  0
  5  9  1  0
  6  7  2  0
  7  8  1  0
  8  9  2  0
  8 10  1  0
 10 11  1  0
 10 14  2  0
 11 12  2  0
 11 16  1  0
 12 13  1  0
 12 15  1  0
 13 14  1  0
 15 18  2  0
 16 17  2  0
 17 18  1  0
 17 19  1  0
 19 20  1  0
 19 24  2  0
 20 21  1  0
 21 22  1  0
 21 23  2  0
 23 24  1  0
  3 25  1  0
  3 26  1  0
  3 27  1  0
  5 28  1  0
  6 29  1  0
  7 30  1  0
  9 31  1  0
 14 32  1  0
 15 33  1  0
 16 34  1  0
 18 35  1  0
 22 36  1  0
 22 37  1  0
 22 38  1  0
M  END
