
     RDKit          3D

 21 21  0  0  0  0  0  0  0  0999 V2000
   -0.2044    0.0985   -0.4566 C   0  0  0  0  0  0  0  0  0  0  0  0
   -1.2355   -0.0835   -1.3929 C   0  0  0  0  0  0  0  0  0  0  0  0
    1.1085    0.1964   -0.9344 C   0  0  0  0  0  0  0  0  0  0  0  0
   -0.5165    0.2023    0.8805 N   0  0  0  0  0  0  0  0  0  0  0  0
   -0.9605   -0.1523   -2.7463 C   0  0  0  0  0  0  0  0  0  0  0  0
    1.3685    0.1323   -2.2978 C   0  0  0  0  0  0  0  0  0  0  0  0
    0.3448   -0.0415   -3.2170 C   0  0  0  0  0  0  0  0  0  0  0  0
    0.5000    0.1179    1.9062 C   0  0  0  0  0  0  0  0  0  0  0  0
   -0.1115    0.3516    3.2515 C   0  0  0  0  0  0  0  0  0  0  0  0
   -0.0326   -0.5019    4.2643 C   0  0  0  0  0  0  0  0  0  0  0  0
   -2.2594   -0.1684   -1.0462 H   0  0  0  0  0  0  0  0  0  0  0  0
    1.9370    0.3186   -0.2499 H   0  0  0  0  0  0  0  0  0  0  0  0
   -1.3930   -0.2259    1.1361 H   0  0  0  0  0  0  0  0  0  0  0  0
   -1.7773   -0.2935   -3.4432 H   0  0  0  0  0  0  0  0  0  0  0  0
    2.3938    0.2123   -2.6377 H   0  0  0  0  0  0  0  0  0  0  0  0
    0.5546   -0.0940   -4.2770 H   0  0  0  0  0  0  0  0  0  0  0  0
    1.2482    0.8962    1.7261 H   0  0  0  0  0  0  0  0  0  0  0  0
    1.0350   -0.8417    1.8936 H   0  0  0  0  0  0  0  0  0  0  0  0
   -0.6419    1.2913    3.3757 H   0  0  0  0  0  0  0  0  0  0  0  0
   -0.4785   -0.2815    5.2252 H   0  0  0  0  0  0  0  0  0  0  0  0
    0.4845   -1.4502    4.1739 H   0  0  0  0  0  0  0  0  0  0  0  0
  1  2  2  0
  1  3  1  0
  1  4  1  0
  2  5  1  0
  2 11  1  0
  3  6  2  0
  3 12  1  0
  4  8  1  0
  4 13  1  0
  5  7  2  0
  5 14  1  0
  6  7  1  0
  6 15  1  0
  7 16  1  0
  8  9  1  0
  8 17  1  0
  8 18  1  0
  9 10  2  0
  9 19  1  0
 10 20  1  0
 10 21  1  0
M  END
