
     RDKit          3D

 67 70  0  0  0  0  0  0  0  0999 V2000
   -6.2271   -0.6280    0.6042 C   0  0  0  0  0  0  0  0  0  0  0  0
   -7.4200    0.1106    0.4312 C   0  0  0  0  0  0  0  0  0  0  0  0
   -7.3366    0.9496   -0.6377 C   0  0  0  0  0  0  0  0  0  0  0  0
   -8.5387    2.0173   -1.1995 Cl  0  0  0  0  0  0  0  0  0  0  0  0
   -5.8268    0.8536   -1.4424 S   0  0  0  0  0  0  0  0  0  0  0  0
   -5.2700   -0.3423   -0.3276 C   0  0  0  0  0  0  0  0  0  0  0  0
   -3.9377   -0.9782   -0.3786 C   0  0  0  0  0  0  0  0  0  0  0  0
   -3.6196   -1.8093    0.4613 O   0  0  0  0  0  0  0  0  0  0  0  0
   -3.1181   -0.6136   -1.3809 N   0  0  0  0  0  0  0  0  0  0  0  0
   -1.8001   -1.1695   -1.5164 C   0  0  0  0  0  0  0  0  0  0  0  0
   -0.7914   -0.5521   -0.5380 C   0  0  1  0  0  0  0  0  0  0  0  0
    0.5597   -1.2563   -0.7159 C   0  0  0  0  0  0  0  0  0  0  0  0
    1.3251   -0.8309   -1.5707 O   0  0  0  0  0  0  0  0  0  0  0  0
    0.8293   -2.3193    0.0588 N   0  0  0  0  0  0  0  0  0  0  0  0
    2.0664   -3.0660   -0.1039 C   0  0  0  0  0  0  0  0  0  0  0  0
    1.7643   -4.4817   -0.5632 C   0  0  0  0  0  0  0  0  0  0  0  0
    0.8698   -5.1404    0.3669 N   0  0  0  0  0  0  0  0  0  0  0  0
    0.6254   -6.5151   -0.0051 C   0  0  0  0  0  0  0  0  0  0  0  0
   -0.3630   -4.3965    0.5130 C   0  0  0  0  0  0  0  0  0  0  0  0
   -0.0851   -2.9768    0.9790 C   0  0  0  0  0  0  0  0  0  0  0  0
   -0.6806    0.8717   -0.7991 N   0  0  0  0  0  0  0  0  0  0  0  0
   -0.2471    1.8592    0.4430 S   0  0  1  0  0  0  0  0  0  0  0  0
   -0.1477    3.2017   -0.0872 O   0  0  0  0  0  0  0  0  0  0  0  0
   -1.1503    1.5838    1.5447 O   0  0  0  0  0  0  0  0  0  0  0  0
    1.3646    1.2822    0.9594 C   0  0  0  0  0  0  0  0  0  0  0  0
    2.4900    1.4156    0.1523 C   0  0  0  0  0  0  0  0  0  0  0  0
    2.4409    2.2226   -1.3608 Cl  0  0  0  0  0  0  0  0  0  0  0  0
    1.4370    0.5977    2.1647 C   0  0  0  0  0  0  0  0  0  0  0  0
    2.6464    0.0539    2.5414 C   0  0  0  0  0  0  0  0  0  0  0  0
    2.7247   -0.6050    3.6997 F   0  0  0  0  0  0  0  0  0  0  0  0
    3.7748    0.1659    1.7569 C   0  0  0  0  0  0  0  0  0  0  0  0
    3.6970    0.8498    0.5545 C   0  0  0  0  0  0  0  0  0  0  0  0
    4.8252    0.9169   -0.2886 N   0  0  0  0  0  0  0  0  0  0  0  0
    5.0062   -0.2216   -1.1931 C   0  0  0  0  0  0  0  0  0  0  0  0
    5.9864    0.0935   -2.3028 C   0  0  0  0  0  0  0  0  0  0  0  0
    7.2333    0.7312   -1.7173 C   0  0  0  0  0  0  0  0  0  0  0  0
    6.8587    2.0495   -1.0593 C   0  0  0  0  0  0  0  0  0  0  0  0
    5.6511    1.9871   -0.1580 C   0  0  0  0  0  0  0  0  0  0  0  0
    5.4010    2.8740    0.6431 O   0  0  0  0  0  0  0  0  0  0  0  0
   -6.0820   -1.3517    1.3927 H   0  0  0  0  0  0  0  0  0  0  0  0
   -8.2920    0.0252    1.0620 H   0  0  0  0  0  0  0  0  0  0  0  0
   -3.3776    0.1081   -2.0328 H   0  0  0  0  0  0  0  0  0  0  0  0
   -1.8349   -2.2501   -1.3666 H   0  0  0  0  0  0  0  0  0  0  0  0
   -1.4677   -0.9997   -2.5404 H   0  0  0  0  0  0  0  0  0  0  0  0
   -1.1781   -0.6653    0.4722 H   0  0  0  0  0  0  0  0  0  0  0  0
   -0.2145    1.1074   -1.6712 H   0  0  0  0  0  0  0  0  0  0  0  0
    2.7124   -2.5641   -0.8180 H   0  0  0  0  0  0  0  0  0  0  0  0
    2.5839   -3.0899    0.8603 H   0  0  0  0  0  0  0  0  0  0  0  0
    0.3766   -2.9993    1.9700 H   0  0  0  0  0  0  0  0  0  0  0  0
   -1.0280   -2.4455    1.0716 H   0  0  0  0  0  0  0  0  0  0  0  0
    1.3452   -4.4453   -1.5836 H   0  0  0  0  0  0  0  0  0  0  0  0
    2.6996   -5.0432   -0.6191 H   0  0  0  0  0  0  0  0  0  0  0  0
    1.5657   -7.0680   -0.0305 H   0  0  0  0  0  0  0  0  0  0  0  0
   -0.0220   -6.9908    0.7327 H   0  0  0  0  0  0  0  0  0  0  0  0
    0.1470   -6.6207   -0.9908 H   0  0  0  0  0  0  0  0  0  0  0  0
   -0.9408   -4.3633   -0.4291 H   0  0  0  0  0  0  0  0  0  0  0  0
   -0.9943   -4.8884    1.2568 H   0  0  0  0  0  0  0  0  0  0  0  0
    0.5705    0.4889    2.8022 H   0  0  0  0  0  0  0  0  0  0  0  0
    4.7129   -0.2731    2.0704 H   0  0  0  0  0  0  0  0  0  0  0  0
    5.3638   -1.0804   -0.6164 H   0  0  0  0  0  0  0  0  0  0  0  0
    4.0289   -0.4860   -1.6007 H   0  0  0  0  0  0  0  0  0  0  0  0
    6.2206   -0.8342   -2.8261 H   0  0  0  0  0  0  0  0  0  0  0  0
    5.5270    0.7686   -3.0300 H   0  0  0  0  0  0  0  0  0  0  0  0
    7.6846    0.0568   -0.9842 H   0  0  0  0  0  0  0  0  0  0  0  0
    7.9845    0.9058   -2.4881 H   0  0  0  0  0  0  0  0  0  0  0  0
    7.6826    2.4597   -0.4735 H   0  0  0  0  0  0  0  0  0  0  0  0
    6.6328    2.7966   -1.8273 H   0  0  0  0  0  0  0  0  0  0  0  0
  1  2  1  0
  1  6  2  0
  2  3  2  0
  3  4  1  0
  3  5  1  0
  5  6  1  0
  6  7  1  0
  7  8  2  0
  7  9  1  0
  9 10  1  0
 10 11  1  0
 11 12  1  0
 11 21  1  0
 12 13  2  0
 12 14  1  0
 14 15  1  0
 14 20  1  0
 15 16  1  0
 16 17  1  0
 17 18  1  0
 17 19  1  0
 19 20  1  0
 22 21  1  6
 22 23  2  0
 22 24  2  0
 22 25  1  0
 25 26  2  0
 25 28  1  0
 26 27  1  0
 26 32  1  0
 28 29  2  0
 29 30  1  0
 29 31  1  0
 31 32  2  0
 32 33  1  0
 33 34  1  0
 33 38  1  0
 34 35  1  0
 35 36  1  0
 36 37  1  0
 37 38  1  0
 38 39  2  0
  1 40  1  0
  2 41  1  0
  9 42  1  0
 10 43  1  0
 10 44  1  0
 11 45  1  1
 21 46  1  0
 15 47  1  0
 15 48  1  0
 20 49  1  0
 20 50  1  0
 16 51  1  0
 16 52  1  0
 18 53  1  0
 18 54  1  0
 18 55  1  0
 19 56  1  0
 19 57  1  0
 28 58  1  0
 31 59  1  0
 34 60  1  0
 34 61  1  0
 35 62  1  0
 35 63  1  0
 36 64  1  0
 36 65  1  0
 37 66  1  0
 37 67  1  0
M  END
