
     RDKit          3D

 60 64  0  0  0  0  0  0  0  0999 V2000
    2.4234    0.8309    1.4684 O   0  0  0  0  0  0  0  0  0  0  0  0
   -0.6122    5.7216   -0.2056 C   0  0  0  0  0  0  0  0  0  0  0  0
    0.1411    2.2242    0.4585 C   0  0  0  0  0  0  0  0  0  0  0  0
   -1.5167   -1.2739    2.4147 O   0  0  0  0  0  0  0  0  0  0  0  0
    2.5068    1.5781    0.5145 C   0  0  0  0  0  0  0  0  0  0  0  0
    5.8284    1.1314    0.8717 N   0  0  0  0  0  0  0  0  0  0  0  0
    3.8323    1.8833   -0.1581 C   0  0  0  0  0  0  0  0  0  0  0  0
    4.8449    0.8165    0.1083 C   0  0  0  0  0  0  0  0  0  0  0  0
    6.7565    0.2100    1.1417 N   0  0  0  0  0  0  0  0  0  0  0  0
    6.8103   -1.0813    0.7067 C   0  0  0  0  0  0  0  0  0  0  0  0
    5.7006   -1.4520   -0.1706 C   0  0  0  0  0  0  0  0  0  0  0  0
    5.6276   -2.7405   -0.7012 C   0  0  0  0  0  0  0  0  0  0  0  0
    4.5815   -3.0796   -1.5328 C   0  0  0  0  0  0  0  0  0  0  0  0
   -3.2618   -1.0167    0.6437 N   0  0  0  0  0  0  0  0  0  0  0  0
    3.5996   -2.1354   -1.8441 C   0  0  0  0  0  0  0  0  0  0  0  0
    3.6640   -0.8604   -1.3233 C   0  0  0  0  0  0  0  0  0  0  0  0
    4.7182   -0.5006   -0.4749 C   0  0  0  0  0  0  0  0  0  0  0  0
   -3.6192    0.0145    2.8928 O   0  0  0  0  0  0  0  0  0  0  0  0
   -2.3662   -1.4782   -0.4189 C   0  0  0  0  0  0  0  0  0  0  0  0
   -3.0710   -2.5842   -1.1791 C   0  0  0  0  0  0  0  0  0  0  0  0
   -4.4520   -2.1714   -1.6041 C   0  0  0  0  0  0  0  0  0  0  0  0
   -5.1123   -2.8509   -2.6274 C   0  0  0  0  0  0  0  0  0  0  0  0
   -6.3874   -2.4840   -3.0228 C   0  0  0  0  0  0  0  0  0  0  0  0
   -7.0241   -1.4204   -2.3923 C   0  0  0  0  0  0  0  0  0  0  0  0
   -6.3771   -0.7411   -1.3743 C   0  0  0  0  0  0  0  0  0  0  0  0
   -5.0945   -1.1097   -0.9725 C   0  0  0  0  0  0  0  0  0  0  0  0
   -4.4323   -0.3166    0.1249 C   0  0  0  0  0  0  0  0  0  0  0  0
   -1.7647    1.1392    1.4329 C   0  0  0  0  0  0  0  0  0  0  0  0
   -0.4580    1.0817    0.9573 C   0  0  0  0  0  0  0  0  0  0  0  0
   -0.5864    3.4307    0.4184 C   0  0  0  0  0  0  0  0  0  0  0  0
    0.0634    4.4793   -0.0916 O   0  0  0  0  0  0  0  0  0  0  0  0
   -1.8934    3.4667    0.8914 C   0  0  0  0  0  0  0  0  0  0  0  0
   -2.4831    2.3238    1.4070 C   0  0  0  0  0  0  0  0  0  0  0  0
    1.4513    2.2299   -0.0349 N   0  0  0  0  0  0  0  0  0  0  0  0
    7.7193   -1.8277    1.0390 O   0  0  0  0  0  0  0  0  0  0  0  0
   -1.4928    5.6429   -0.8463 H   0  0  0  0  0  0  0  0  0  0  0  0
   -0.9103    6.1073    0.7713 H   0  0  0  0  0  0  0  0  0  0  0  0
    0.0956    6.4111   -0.6568 H   0  0  0  0  0  0  0  0  0  0  0  0
    3.6965    2.0418   -1.2308 H   0  0  0  0  0  0  0  0  0  0  0  0
    4.2017    2.8279    0.2495 H   0  0  0  0  0  0  0  0  0  0  0  0
    7.4974    0.5361    1.7469 H   0  0  0  0  0  0  0  0  0  0  0  0
    6.3921   -3.4659   -0.4584 H   0  0  0  0  0  0  0  0  0  0  0  0
    4.5208   -4.0767   -1.9476 H   0  0  0  0  0  0  0  0  0  0  0  0
    2.7812   -2.4052   -2.4981 H   0  0  0  0  0  0  0  0  0  0  0  0
    2.8971   -0.1430   -1.5837 H   0  0  0  0  0  0  0  0  0  0  0  0
   -2.1108   -0.6496   -1.0908 H   0  0  0  0  0  0  0  0  0  0  0  0
   -1.4424   -1.8607    0.0091 H   0  0  0  0  0  0  0  0  0  0  0  0
   -2.4738   -2.8589   -2.0510 H   0  0  0  0  0  0  0  0  0  0  0  0
   -3.1271   -3.4735   -0.5452 H   0  0  0  0  0  0  0  0  0  0  0  0
   -4.6115   -3.6763   -3.1204 H   0  0  0  0  0  0  0  0  0  0  0  0
   -6.8845   -3.0219   -3.8196 H   0  0  0  0  0  0  0  0  0  0  0  0
   -8.0214   -1.1254   -2.6913 H   0  0  0  0  0  0  0  0  0  0  0  0
   -6.8745    0.0853   -0.8793 H   0  0  0  0  0  0  0  0  0  0  0  0
   -5.1470   -0.1642    0.9319 H   0  0  0  0  0  0  0  0  0  0  0  0
   -4.1592    0.6743   -0.2669 H   0  0  0  0  0  0  0  0  0  0  0  0
    0.0932    0.1538    0.9737 H   0  0  0  0  0  0  0  0  0  0  0  0
   -2.4644    4.3845    0.8810 H   0  0  0  0  0  0  0  0  0  0  0  0
   -3.4942    2.3788    1.7864 H   0  0  0  0  0  0  0  0  0  0  0  0
    1.6494    2.8851   -0.7767 H   0  0  0  0  0  0  0  0  0  0  0  0
   -2.5467   -0.3453    1.9802 S   0  0  1  0  0  0  0  0  0  0  0  0
  4 60  2  0
  7  5  1  0
  7  8  1  0
 31  2  1  0
 31 30  1  0
 34  3  1  0
 34  5  1  0
  6  8  2  0
  6  9  1  0
 30  3  1  0
 30 32  2  0
  3 29  2  0
 29 28  1  0
 32 33  1  0
 60 28  1  6
 28 33  2  0
  5  1  2  0
 60 18  2  0
 60 14  1  0
  8 17  1  0
  9 10  1  0
 27 14  1  0
 27 26  1  0
 14 19  1  0
 25 26  1  0
 25 24  2  0
 26 21  2  0
 17 16  1  0
 17 11  2  0
 10 11  1  0
 10 35  2  0
 16 15  2  0
 24 23  1  0
 11 12  1  0
 19 20  1  0
 21 20  1  0
 21 22  1  0
 23 22  2  0
 15 13  1  0
 12 13  2  0
  2 36  1  0
  2 37  1  0
  2 38  1  0
  7 39  1  0
  7 40  1  0
  9 41  1  0
 12 42  1  0
 13 43  1  0
 15 44  1  0
 16 45  1  0
 19 46  1  0
 19 47  1  0
 20 48  1  0
 20 49  1  0
 22 50  1  0
 23 51  1  0
 24 52  1  0
 25 53  1  0
 27 54  1  0
 27 55  1  0
 29 56  1  0
 32 57  1  0
 33 58  1  0
 34 59  1  0
M  END
