
     RDKit          3D

 50 53  0  0  0  0  0  0  0  0999 V2000
    5.3622   -3.6001    0.9361 C   0  0  0  0  0  0  0  0  0  0  0  0
    2.8804   -3.1242   -0.2570 C   0  0  0  0  0  0  0  0  0  0  0  0
    1.7972   -3.5516    0.4967 C   0  0  0  0  0  0  0  0  0  0  0  0
    0.6872   -2.7311    0.6047 C   0  0  0  0  0  0  0  0  0  0  0  0
    0.6584   -1.4900   -0.0291 C   0  0  0  0  0  0  0  0  0  0  0  0
    1.7535   -1.0845   -0.7903 C   0  0  0  0  0  0  0  0  0  0  0  0
    2.8653   -1.8992   -0.9106 C   0  0  0  0  0  0  0  0  0  0  0  0
   -0.5384   -0.6493    0.0772 C   0  0  0  0  0  0  0  0  0  0  0  0
   -2.0020    0.9960    0.2375 C   0  0  0  0  0  0  0  0  0  0  0  0
   -0.6498    0.7603    0.2149 C   0  0  0  0  0  0  0  0  0  0  0  0
    0.4269    1.7375    0.4641 C   0  0  0  0  0  0  0  0  0  0  0  0
    0.9108    4.1542    0.1454 C   0  0  0  0  0  0  0  0  0  0  0  0
    0.4635    5.2786   -0.5550 C   0  0  0  0  0  0  0  0  0  0  0  0
    1.1471    6.4773   -0.4645 C   0  0  0  0  0  0  0  0  0  0  0  0
    2.2875    6.5939    0.3196 C   0  0  0  0  0  0  0  0  0  0  0  0
    2.7046    5.4688    0.9997 C   0  0  0  0  0  0  0  0  0  0  0  0
    2.0545    4.2507    0.9382 C   0  0  0  0  0  0  0  0  0  0  0  0
   -3.9870   -0.4689    0.1087 C   0  0  0  0  0  0  0  0  0  0  0  0
   -4.8870    0.5447   -0.2047 C   0  0  0  0  0  0  0  0  0  0  0  0
   -6.2431    0.2839   -0.1901 C   0  0  0  0  0  0  0  0  0  0  0  0
   -6.7017   -0.9946    0.1231 C   0  0  0  0  0  0  0  0  0  0  0  0
   -5.7941   -2.0101    0.4219 C   0  0  0  0  0  0  0  0  0  0  0  0
   -4.4382   -1.7482    0.4184 C   0  0  0  0  0  0  0  0  0  0  0  0
   -8.1018   -1.2647    0.1339 C   0  0  0  0  0  0  0  0  0  0  0  0
    3.8029    5.5495    1.7684 F   0  0  0  0  0  0  0  0  0  0  0  0
   -1.7293   -1.2016    0.0158 N   0  0  0  0  0  0  0  0  0  0  0  0
   -2.6074   -0.2021    0.1156 N   0  0  0  0  0  0  0  0  0  0  0  0
    0.1543    2.9896    0.0104 N   0  0  0  0  0  0  0  0  0  0  0  0
   -9.2331   -1.4832    0.1404 N   0  0  0  0  0  0  0  0  0  0  0  0
    4.9793   -3.8742   -1.6544 O   0  0  0  0  0  0  0  0  0  0  0  0
    3.9114   -5.5369   -0.0981 O   0  0  0  0  0  0  0  0  0  0  0  0
    1.4513    1.4220    1.0406 O   0  0  0  0  0  0  0  0  0  0  0  0
    4.3144   -4.1620   -0.3855 S   0  0  1  0  0  0  0  0  0  0  0  0
    4.8418   -3.7168    1.8840 H   0  0  0  0  0  0  0  0  0  0  0  0
    6.2587   -4.2196    0.9233 H   0  0  0  0  0  0  0  0  0  0  0  0
    5.6256   -2.5579    0.7727 H   0  0  0  0  0  0  0  0  0  0  0  0
    1.8091   -4.5091    0.9994 H   0  0  0  0  0  0  0  0  0  0  0  0
   -0.1586   -3.0560    1.1955 H   0  0  0  0  0  0  0  0  0  0  0  0
    1.7337   -0.1432   -1.3221 H   0  0  0  0  0  0  0  0  0  0  0  0
    3.7018   -1.5781   -1.5165 H   0  0  0  0  0  0  0  0  0  0  0  0
   -2.5536    1.9103    0.3857 H   0  0  0  0  0  0  0  0  0  0  0  0
   -0.4231    5.2105   -1.1735 H   0  0  0  0  0  0  0  0  0  0  0  0
    0.7879    7.3358   -1.0157 H   0  0  0  0  0  0  0  0  0  0  0  0
    2.8297    7.5263    0.3984 H   0  0  0  0  0  0  0  0  0  0  0  0
    2.4385    3.4132    1.4971 H   0  0  0  0  0  0  0  0  0  0  0  0
   -4.5470    1.5332   -0.4797 H   0  0  0  0  0  0  0  0  0  0  0  0
   -6.9429    1.0712   -0.4335 H   0  0  0  0  0  0  0  0  0  0  0  0
   -6.1475   -3.0020    0.6665 H   0  0  0  0  0  0  0  0  0  0  0  0
   -3.7370   -2.5334    0.6596 H   0  0  0  0  0  0  0  0  0  0  0  0
   -0.6773    3.0931   -0.5519 H   0  0  0  0  0  0  0  0  0  0  0  0
 29 24  3  0
 20 21  1  0
 20 19  2  0
 24 21  1  0
 21 22  2  0
 19 18  1  0
 22 23  1  0
 18 23  2  0
 18 27  1  0
 13 14  2  0
 13 12  1  0
 14 15  1  0
  9 27  1  0
  9 10  2  0
 27 26  1  0
 28 12  1  0
 28 11  1  0
 12 17  2  0
 15 16  2  0
 26  8  2  0
 10 11  1  0
 10  8  1  0
 17 16  1  0
 11 32  2  0
 16 25  1  0
  8  5  1  0
  4  5  2  0
  4  3  1  0
  5  6  1  0
  3  2  2  0
  6  7  2  0
  2  7  1  0
  2 33  1  0
 30 33  2  0
 33 31  2  0
 33  1  1  1
  1 34  1  0
  1 35  1  0
  1 36  1  0
  3 37  1  0
  4 38  1  0
  6 39  1  0
  7 40  1  0
  9 41  1  0
 13 42  1  0
 14 43  1  0
 15 44  1  0
 17 45  1  0
 19 46  1  0
 20 47  1  0
 22 48  1  0
 23 49  1  0
 28 50  1  0
M  END
