
     RDKit          3D

 47 49  0  0  0  0  0  0  0  0999 V2000
   -8.1765   -2.6511    0.1749 O   0  0  0  0  0  0  0  0  0  0  0  0
   -7.2716   -2.1834   -0.4688 C   0  0  0  0  0  0  0  0  0  0  0  0
   -6.1425   -2.8139   -0.7330 O   0  0  0  0  0  0  0  0  0  0  0  0
   -7.3117   -0.7776   -1.0346 C   0  0  1  0  0  0  0  0  0  0  0  0
   -8.5419   -0.6366   -1.9099 C   0  0  0  0  0  0  0  0  0  0  0  0
   -9.3446    0.2541   -1.8306 O   0  0  0  0  0  0  0  0  0  0  0  0
   -8.6038   -1.6181   -2.7975 O   0  0  0  0  0  0  0  0  0  0  0  0
   -7.3000    0.2496    0.1035 C   0  0  0  0  0  0  0  0  0  0  0  0
   -6.0761    0.1058    0.9676 C   0  0  0  0  0  0  0  0  0  0  0  0
   -4.8691    0.6568    0.5445 C   0  0  0  0  0  0  0  0  0  0  0  0
   -6.1318   -0.6010    2.1629 C   0  0  0  0  0  0  0  0  0  0  0  0
   -4.9832   -0.7622    2.9261 C   0  0  0  0  0  0  0  0  0  0  0  0
   -3.7840   -0.2137    2.5106 C   0  0  0  0  0  0  0  0  0  0  0  0
   -3.7197    0.5055    1.3159 C   0  0  0  0  0  0  0  0  0  0  0  0
   -2.4653    1.0133    0.9500 N   0  0  0  0  0  0  0  0  0  0  0  0
   -2.1997    2.0481    0.1154 C   0  0  0  0  0  0  0  0  0  0  0  0
   -3.0439    2.7137   -0.4536 O   0  0  0  0  0  0  0  0  0  0  0  0
   -0.7615    2.3539   -0.0748 C   0  0  0  0  0  0  0  0  0  0  0  0
    0.5062    1.2351    0.2038 S   0  0  0  0  0  0  0  0  0  0  0  0
   -0.2834    3.5576   -0.5244 C   0  0  0  0  0  0  0  0  0  0  0  0
    1.1174    3.5753   -0.6338 C   0  0  0  0  0  0  0  0  0  0  0  0
    1.6956    2.3862   -0.2643 C   0  0  0  0  0  0  0  0  0  0  0  0
    3.1287    2.0704   -0.3595 C   0  0  0  0  0  0  0  0  0  0  0  0
    3.8669    2.7864   -1.0035 O   0  0  0  0  0  0  0  0  0  0  0  0
    3.6479    0.8482    0.3135 C   0  0  0  0  0  0  0  0  0  0  0  0
    4.5940    0.0801   -0.3652 C   0  0  0  0  0  0  0  0  0  0  0  0
    5.1188   -1.0433    0.2487 C   0  0  0  0  0  0  0  0  0  0  0  0
    6.5148   -2.2262   -0.7864 I   0  0  0  0  0  0  0  0  0  0  0  0
    4.7433   -1.4004    1.5381 C   0  0  0  0  0  0  0  0  0  0  0  0
    3.8216   -0.6154    2.2145 C   0  0  0  0  0  0  0  0  0  0  0  0
    3.2660    0.5011    1.6070 C   0  0  0  0  0  0  0  0  0  0  0  0
   -6.1493   -3.6952   -0.3277 H   0  0  0  0  0  0  0  0  0  0  0  0
   -6.4406   -0.6177   -1.6781 H   0  0  0  0  0  0  0  0  0  0  0  0
   -9.3918   -1.5267   -3.3554 H   0  0  0  0  0  0  0  0  0  0  0  0
   -7.3293    1.2470   -0.3368 H   0  0  0  0  0  0  0  0  0  0  0  0
   -8.2004    0.1394    0.7092 H   0  0  0  0  0  0  0  0  0  0  0  0
   -4.8421    1.2007   -0.3880 H   0  0  0  0  0  0  0  0  0  0  0  0
   -7.0705   -1.0224    2.5003 H   0  0  0  0  0  0  0  0  0  0  0  0
   -5.0223   -1.3131    3.8566 H   0  0  0  0  0  0  0  0  0  0  0  0
   -2.8934   -0.3360    3.1158 H   0  0  0  0  0  0  0  0  0  0  0  0
   -1.6997    0.6595    1.5049 H   0  0  0  0  0  0  0  0  0  0  0  0
   -0.9204    4.3971   -0.7606 H   0  0  0  0  0  0  0  0  0  0  0  0
    1.6858    4.4296   -0.9709 H   0  0  0  0  0  0  0  0  0  0  0  0
    4.8924    0.3585   -1.3671 H   0  0  0  0  0  0  0  0  0  0  0  0
    5.1617   -2.2732    2.0204 H   0  0  0  0  0  0  0  0  0  0  0  0
    3.5387   -0.8765    3.2249 H   0  0  0  0  0  0  0  0  0  0  0  0
    2.5694    1.1151    2.1623 H   0  0  0  0  0  0  0  0  0  0  0  0
 12 11  1  0
 12 13  2  0
 11  9  2  0
 13 14  1  0
 17 16  2  0
  9  8  1  0
  9 10  1  0
 14 10  2  0
 14 15  1  0
  8  4  1  0
 16 15  1  0
 16 18  1  0
  6  5  2  0
  4  5  1  0
  4  2  1  0
  5  7  1  0
 20 18  2  0
 20 21  1  0
 18 19  1  0
  1  2  2  0
  2  3  1  0
 21 22  2  0
 19 22  1  0
 22 23  1  0
 23 24  2  0
 23 25  1  0
 25 26  2  0
 25 31  1  0
 26 27  1  0
 28 27  1  0
 31 30  2  0
 27 29  2  0
 30 29  1  0
  3 32  1  0
  4 33  1  6
  7 34  1  0
  8 35  1  0
  8 36  1  0
 10 37  1  0
 11 38  1  0
 12 39  1  0
 13 40  1  0
 15 41  1  0
 20 42  1  0
 21 43  1  0
 26 44  1  0
 29 45  1  0
 30 46  1  0
 31 47  1  0
M  END
