
     RDKit          3D

 27 26  0  0  0  0  0  0  0  0999 V2000
    4.8938   -0.3091    0.1133 C   0  0  0  0  0  0  0  0  0  0  0  0
    3.4595   -0.7159   -0.1935 C   0  0  0  0  0  0  0  0  0  0  0  0
    2.4546    0.3953    0.0868 C   0  0  0  0  0  0  0  0  0  0  0  0
    1.0160   -0.0141   -0.2012 C   0  0  0  0  0  0  0  0  0  0  0  0
    0.0158    1.1036    0.0677 C   0  0  0  0  0  0  0  0  0  0  0  0
   -1.4346    0.7129   -0.2000 C   0  0  2  0  0  0  0  0  0  0  0  0
   -2.3796    1.9034   -0.0808 C   0  0  0  0  0  0  0  0  0  0  0  0
   -1.8281   -0.3548    0.7061 N   0  0  0  0  0  0  0  0  0  0  0  0
   -2.6777   -1.3390    0.4027 C   0  0  0  0  0  0  0  0  0  0  0  0
   -3.2189   -1.5070   -0.6789 O   0  0  0  0  0  0  0  0  0  0  0  0
    5.0118   -0.0368    1.1638 H   0  0  0  0  0  0  0  0  0  0  0  0
    5.5943   -1.1175   -0.0992 H   0  0  0  0  0  0  0  0  0  0  0  0
    5.1960    0.5529   -0.4847 H   0  0  0  0  0  0  0  0  0  0  0  0
    3.3805   -1.0178   -1.2424 H   0  0  0  0  0  0  0  0  0  0  0  0
    3.1926   -1.5988    0.3958 H   0  0  0  0  0  0  0  0  0  0  0  0
    2.5418    0.7051    1.1341 H   0  0  0  0  0  0  0  0  0  0  0  0
    2.7148    1.2759   -0.5112 H   0  0  0  0  0  0  0  0  0  0  0  0
    0.9280   -0.3290   -1.2467 H   0  0  0  0  0  0  0  0  0  0  0  0
    0.7627   -0.8909    0.4027 H   0  0  0  0  0  0  0  0  0  0  0  0
    0.1122    1.4505    1.1036 H   0  0  0  0  0  0  0  0  0  0  0  0
    0.2573    1.9647   -0.5617 H   0  0  0  0  0  0  0  0  0  0  0  0
   -1.5027    0.3127   -1.2143 H   0  0  0  0  0  0  0  0  0  0  0  0
   -2.3484    2.3290    0.9238 H   0  0  0  0  0  0  0  0  0  0  0  0
   -2.1014    2.6869   -0.7868 H   0  0  0  0  0  0  0  0  0  0  0  0
   -3.4075    1.6084   -0.2933 H   0  0  0  0  0  0  0  0  0  0  0  0
   -1.4931   -0.3123    1.6568 H   0  0  0  0  0  0  0  0  0  0  0  0
   -2.8440   -2.0147    1.2558 H   0  0  0  0  0  0  0  0  0  0  0  0
 10  9  2  0
  9  8  1  0
  8  6  1  0
  6  7  1  0
  6  5  1  0
  5  4  1  0
  4  3  1  0
  3  2  1  0
  2  1  1  0
  1 11  1  0
  1 12  1  0
  1 13  1  0
  2 14  1  0
  2 15  1  0
  3 16  1  0
  3 17  1  0
  4 18  1  0
  4 19  1  0
  5 20  1  0
  5 21  1  0
  6 22  1  6
  7 23  1  0
  7 24  1  0
  7 25  1  0
  8 26  1  0
  9 27  1  0
M  END
