
     RDKit          3D

 22 23  0  0  0  0  0  0  0  0999 V2000
    3.3002   -1.2097    0.0156 C   0  0  0  0  0  0  0  0  0  0  0  0
    0.4570    2.7693   -0.0143 N   0  0  0  0  0  0  0  0  0  0  0  0
   -2.7313   -1.2053   -0.0298 C   0  0  0  0  0  0  0  0  0  0  0  0
   -2.9538    0.1833   -0.0584 C   0  0  0  0  0  0  0  0  0  0  0  0
   -1.4547   -1.7004   -0.0011 C   0  0  0  0  0  0  0  0  0  0  0  0
   -1.8891    1.0469   -0.0485 C   0  0  0  0  0  0  0  0  0  0  0  0
    1.8260    0.8111    0.0228 C   0  0  0  0  0  0  0  0  0  0  0  0
    0.8979   -1.3950    0.0184 N   0  0  0  0  0  0  0  0  0  0  0  0
    1.9348   -0.5897    0.0191 C   0  0  0  0  0  0  0  0  0  0  0  0
    0.5855    1.4190    0.0157 C   0  0  0  0  0  0  0  0  0  0  0  0
   -0.3368   -0.8351    0.0049 C   0  0  0  0  0  0  0  0  0  0  0  0
   -0.5645    0.5629   -0.0070 C   0  0  0  0  0  0  0  0  0  0  0  0
    3.9193   -0.8023    0.8160 H   0  0  0  0  0  0  0  0  0  0  0  0
    3.2374   -2.2889    0.1369 H   0  0  0  0  0  0  0  0  0  0  0  0
    3.8160   -0.9986   -0.9231 H   0  0  0  0  0  0  0  0  0  0  0  0
    1.2779    3.3128    0.1957 H   0  0  0  0  0  0  0  0  0  0  0  0
   -0.3943    3.1912    0.3143 H   0  0  0  0  0  0  0  0  0  0  0  0
   -3.5738   -1.8845   -0.0361 H   0  0  0  0  0  0  0  0  0  0  0  0
   -3.9641    0.5688   -0.0931 H   0  0  0  0  0  0  0  0  0  0  0  0
   -1.2731   -2.7678    0.0138 H   0  0  0  0  0  0  0  0  0  0  0  0
   -2.0834    2.1113   -0.0846 H   0  0  0  0  0  0  0  0  0  0  0  0
    2.7244    1.4170    0.0401 H   0  0  0  0  0  0  0  0  0  0  0  0
  1  9  1  0
  2 10  1  0
  3  4  2  0
  3  5  1  0
  4  6  1  0
  5 11  2  0
  6 12  2  0
  7  9  1  0
  7 10  2  0
  8  9  2  0
  8 11  1  0
 10 12  1  0
 11 12  1  0
  1 13  1  0
  1 14  1  0
  1 15  1  0
  2 16  1  0
  2 17  1  0
  3 18  1  0
  4 19  1  0
  5 20  1  0
  6 21  1  0
  7 22  1  0
M  END
