
     RDKit          3D

 62 65  0  0  0  0  0  0  0  0999 V2000
   -0.6810   -1.2994   -0.0243 C   0  0  1  0  0  0  0  0  0  0  0  0
   -1.9610   -0.7938    0.6482 C   0  0  1  0  0  0  0  0  0  0  0  0
   -2.1984   -3.0440   -0.0595 N   0  0  0  0  0  0  0  0  0  0  0  0
    0.5943   -0.7700    0.5962 C   0  0  0  0  0  0  0  0  0  0  0  0
    7.0532    0.5904    0.3480 N   0  0  0  0  0  0  0  0  0  0  0  0
   -2.6589    0.2928   -0.1502 C   0  0  0  0  0  0  0  0  0  0  0  0
   -2.8521   -2.0537    0.7736 C   0  0  0  0  0  0  0  0  0  0  0  0
   -0.7804   -2.8229    0.1161 C   0  0  0  0  0  0  0  0  0  0  0  0
    7.4638    1.8661   -0.0488 C   0  0  0  0  0  0  0  0  0  0  0  0
    5.6716    0.2636    0.2153 C   0  0  0  0  0  0  0  0  0  0  0  0
    1.6422   -0.7698   -0.2707 N   0  0  0  0  0  0  0  0  0  0  0  0
    5.1556   -0.0357   -1.0370 C   0  0  0  0  0  0  0  0  0  0  0  0
   -3.5071    1.0381    0.6043 N   0  0  0  0  0  0  0  0  0  0  0  0
    2.9666   -0.4149   -0.0333 C   0  0  0  0  0  0  0  0  0  0  0  0
    3.8261   -0.3637   -1.1341 C   0  0  0  0  0  0  0  0  0  0  0  0
    7.8988   -0.3433    0.8671 C   0  0  0  0  0  0  0  0  0  0  0  0
    0.6760   -0.4277    1.7597 O   0  0  0  0  0  0  0  0  0  0  0  0
   -2.4989    0.4496   -1.3458 O   0  0  0  0  0  0  0  0  0  0  0  0
    8.8702    2.1160    0.1224 C   0  0  0  0  0  0  0  0  0  0  0  0
    6.6488    2.6648   -0.4947 O   0  0  0  0  0  0  0  0  0  0  0  0
    4.8553    0.2252    1.3299 C   0  0  0  0  0  0  0  0  0  0  0  0
    3.5144   -0.1158    1.2130 C   0  0  0  0  0  0  0  0  0  0  0  0
    9.2193   -0.0915    1.0278 C   0  0  0  0  0  0  0  0  0  0  0  0
    9.7070    1.1792    0.6383 C   0  0  0  0  0  0  0  0  0  0  0  0
   -4.3898    2.0467    0.2115 C   0  0  0  0  0  0  0  0  0  0  0  0
    3.3192   -0.6609   -2.3422 F   0  0  0  0  0  0  0  0  0  0  0  0
   -6.2093    4.0704   -0.3781 C   0  0  0  0  0  0  0  0  0  0  0  0
   -5.2486    2.5477    1.1929 C   0  0  0  0  0  0  0  0  0  0  0  0
   -4.4571    2.5802   -1.0763 C   0  0  0  0  0  0  0  0  0  0  0  0
   -5.3666    3.5879   -1.3639 C   0  0  0  0  0  0  0  0  0  0  0  0
   -6.1538    3.5525    0.9065 C   0  0  0  0  0  0  0  0  0  0  0  0
   -2.6189   -4.3947    0.1886 C   0  0  0  0  0  0  0  0  0  0  0  0
   -7.3407    5.3304   -0.7502 Cl  0  0  0  0  0  0  0  0  0  0  0  0
   -4.0465   -4.6323   -0.2822 C   0  0  0  0  0  0  0  0  0  0  0  0
   -4.5035   -4.0972   -1.2815 O   0  0  0  0  0  0  0  0  0  0  0  0
   -4.7414   -5.5035    0.4589 N   0  0  0  0  0  0  0  0  0  0  0  0
   -6.0836   -5.9136    0.1204 C   0  0  0  0  0  0  0  0  0  0  0  0
   -0.7061   -1.0552   -1.0891 H   0  0  0  0  0  0  0  0  0  0  0  0
   -1.7397   -0.4149    1.6481 H   0  0  0  0  0  0  0  0  0  0  0  0
   -0.2002   -3.3524   -0.6414 H   0  0  0  0  0  0  0  0  0  0  0  0
   -0.4188   -3.1442    1.1078 H   0  0  0  0  0  0  0  0  0  0  0  0
   -2.8868   -2.3639    1.8286 H   0  0  0  0  0  0  0  0  0  0  0  0
   -3.8818   -1.8862    0.4513 H   0  0  0  0  0  0  0  0  0  0  0  0
   -1.9798   -5.0736   -0.3851 H   0  0  0  0  0  0  0  0  0  0  0  0
   -2.5075   -4.6838    1.2471 H   0  0  0  0  0  0  0  0  0  0  0  0
    1.4247   -1.0364   -1.2186 H   0  0  0  0  0  0  0  0  0  0  0  0
    7.4487   -1.2890    1.1336 H   0  0  0  0  0  0  0  0  0  0  0  0
   -3.5406    0.8084    1.5862 H   0  0  0  0  0  0  0  0  0  0  0  0
    9.2337    3.0898   -0.1761 H   0  0  0  0  0  0  0  0  0  0  0  0
    5.7767   -0.0210   -1.9228 H   0  0  0  0  0  0  0  0  0  0  0  0
    5.2575    0.4626    2.3057 H   0  0  0  0  0  0  0  0  0  0  0  0
    2.9015   -0.1431    2.0980 H   0  0  0  0  0  0  0  0  0  0  0  0
    9.8686   -0.8501    1.4370 H   0  0  0  0  0  0  0  0  0  0  0  0
   10.7594    1.4050    0.7536 H   0  0  0  0  0  0  0  0  0  0  0  0
   -5.2126    2.1468    2.1988 H   0  0  0  0  0  0  0  0  0  0  0  0
   -3.8097    2.2264   -1.8609 H   0  0  0  0  0  0  0  0  0  0  0  0
   -5.4067    3.9929   -2.3661 H   0  0  0  0  0  0  0  0  0  0  0  0
   -6.8094    3.9226    1.6827 H   0  0  0  0  0  0  0  0  0  0  0  0
   -4.3269   -5.8736    1.2972 H   0  0  0  0  0  0  0  0  0  0  0  0
   -6.4005   -6.6743    0.8278 H   0  0  0  0  0  0  0  0  0  0  0  0
   -6.7868   -5.0816    0.1733 H   0  0  0  0  0  0  0  0  0  0  0  0
   -6.1304   -6.3374   -0.8829 H   0  0  0  0  0  0  0  0  0  0  0  0
  1  2  1  0
  1  4  1  0
  1  8  1  0
  2  6  1  0
  2  7  1  0
  3  7  1  0
  3  8  1  0
  3 32  1  0
  4 11  1  0
  4 17  2  0
  5  9  1  0
  5 10  1  0
  5 16  1  0
  6 13  1  0
  6 18  2  0
  9 19  1  0
  9 20  2  0
 10 12  2  0
 10 21  1  0
 11 14  1  0
 12 15  1  0
 13 25  1  0
 14 15  2  0
 14 22  1  0
 15 26  1  0
 16 23  2  0
 19 24  2  0
 21 22  2  0
 23 24  1  0
 25 28  1  0
 25 29  2  0
 27 30  2  0
 27 31  1  0
 27 33  1  0
 28 31  2  0
 29 30  1  0
 32 34  1  0
 34 35  2  0
 34 36  1  0
 36 37  1  0
  1 38  1  6
  2 39  1  1
  8 40  1  0
  8 41  1  0
  7 42  1  0
  7 43  1  0
 32 44  1  0
 32 45  1  0
 11 46  1  0
 16 47  1  0
 13 48  1  0
 19 49  1  0
 12 50  1  0
 21 51  1  0
 22 52  1  0
 23 53  1  0
 24 54  1  0
 28 55  1  0
 29 56  1  0
 30 57  1  0
 31 58  1  0
 36 59  1  0
 37 60  1  0
 37 61  1  0
 37 62  1  0
M  END
