
     RDKit          3D

 44 47  0  0  0  0  0  0  0  0999 V2000
    5.5427   -0.1241    0.7419 C   0  0  0  0  0  0  0  0  0  0  0  0
    6.4238   -0.8862   -0.0003 C   0  0  0  0  0  0  0  0  0  0  0  0
    5.8911   -1.9263   -0.7344 C   0  0  0  0  0  0  0  0  0  0  0  0
    4.5399   -2.2161   -0.7501 C   0  0  0  0  0  0  0  0  0  0  0  0
    3.7205   -1.4133    0.0138 C   0  0  0  0  0  0  0  0  0  0  0  0
    4.1736   -0.3502    0.7842 C   0  0  0  0  0  0  0  0  0  0  0  0
    3.2361    0.4912    1.6055 C   0  0  0  0  0  0  0  0  0  0  0  0
    2.3943    3.1648   -0.7130 N   0  0  0  0  0  0  0  0  0  0  0  0
    2.9544    2.3413    0.1042 C   0  0  0  0  0  0  0  0  0  0  0  0
    2.3691    1.3302    0.7695 N   0  0  0  0  0  0  0  0  0  0  0  0
    1.0052    1.1301    0.6151 C   0  0  0  0  0  0  0  0  0  0  0  0
    0.3238    1.9822   -0.2622 C   0  0  0  0  0  0  0  0  0  0  0  0
   -1.0502    1.8291   -0.4595 C   0  0  0  0  0  0  0  0  0  0  0  0
   -1.7322    0.8524    0.2216 C   0  0  0  0  0  0  0  0  0  0  0  0
   -1.0631    0.0096    1.1090 C   0  0  0  0  0  0  0  0  0  0  0  0
    0.2916    0.1436    1.3062 C   0  0  0  0  0  0  0  0  0  0  0  0
    1.0512    3.0402   -0.9790 C   0  0  0  0  0  0  0  0  0  0  0  0
    0.4998    3.7858   -1.7706 O   0  0  0  0  0  0  0  0  0  0  0  0
   -7.0441   -0.1088    0.5895 F   0  0  0  0  0  0  0  0  0  0  0  0
   -3.0900    0.7455    0.0679 O   0  0  0  0  0  0  0  0  0  0  0  0
   -3.6047   -0.3237   -0.5908 C   0  0  0  0  0  0  0  0  0  0  0  0
   -2.8533   -1.1220   -1.4418 C   0  0  0  0  0  0  0  0  0  0  0  0
   -3.4599   -2.1798   -2.1033 C   0  0  0  0  0  0  0  0  0  0  0  0
   -4.8078   -2.4461   -1.9247 C   0  0  0  0  0  0  0  0  0  0  0  0
   -5.5557   -1.6438   -1.0761 C   0  0  0  0  0  0  0  0  0  0  0  0
   -4.9659   -0.5825   -0.4019 C   0  0  0  0  0  0  0  0  0  0  0  0
   -5.7672    0.2828    0.5209 C   0  0  1  0  0  0  0  0  0  0  0  0
    6.7122   -2.6825   -1.4626 F   0  0  0  0  0  0  0  0  0  0  0  0
   -5.7801    1.5648    0.1301 F   0  0  0  0  0  0  0  0  0  0  0  0
   -5.2929    0.2638    1.7739 F   0  0  0  0  0  0  0  0  0  0  0  0
    6.0433    0.8910    1.4517 F   0  0  0  0  0  0  0  0  0  0  0  0
    2.4100   -1.6665    0.0147 F   0  0  0  0  0  0  0  0  0  0  0  0
    7.4838   -0.6713   -0.0045 H   0  0  0  0  0  0  0  0  0  0  0  0
    4.1394   -3.0365   -1.3306 H   0  0  0  0  0  0  0  0  0  0  0  0
    2.6250   -0.1321    2.2492 H   0  0  0  0  0  0  0  0  0  0  0  0
    3.7894    1.1456    2.2752 H   0  0  0  0  0  0  0  0  0  0  0  0
    4.0153    2.4593    0.2987 H   0  0  0  0  0  0  0  0  0  0  0  0
   -1.5687    2.4880   -1.1435 H   0  0  0  0  0  0  0  0  0  0  0  0
   -1.6078   -0.7507    1.6540 H   0  0  0  0  0  0  0  0  0  0  0  0
    0.7700   -0.5210    2.0092 H   0  0  0  0  0  0  0  0  0  0  0  0
   -1.8026   -0.9217   -1.6030 H   0  0  0  0  0  0  0  0  0  0  0  0
   -2.8654   -2.7939   -2.7663 H   0  0  0  0  0  0  0  0  0  0  0  0
   -5.2794   -3.2707   -2.4404 H   0  0  0  0  0  0  0  0  0  0  0  0
   -6.6066   -1.8579   -0.9427 H   0  0  0  0  0  0  0  0  0  0  0  0
 28  3  1  0
 27 29  1  6
 19 27  1  0
  3  2  1  0
  3  4  2  0
 30 27  1  0
 27 26  1  0
  2  1  2  0
  4  5  1  0
 26 25  2  0
 26 21  1  0
  1 31  1  0
  1  6  1  0
 20 21  1  0
 20 14  1  0
  5  6  2  0
  5 32  1  0
 25 24  1  0
 21 22  2  0
 14 15  2  0
 14 13  1  0
  6  7  1  0
 15 16  1  0
 13 12  2  0
 16 11  2  0
 12 11  1  0
 12 17  1  0
 18 17  2  0
 24 23  2  0
 11 10  1  0
 17  8  1  0
 22 23  1  0
  7 10  1  0
 10  9  1  0
  8  9  2  0
  2 33  1  0
  4 34  1  0
  7 35  1  0
  7 36  1  0
  9 37  1  0
 13 38  1  0
 15 39  1  0
 16 40  1  0
 22 41  1  0
 23 42  1  0
 24 43  1  0
 25 44  1  0
M  END
