
     RDKit          3D

109109  0  0  0  0  0  0  0  0999 V2000
  -11.9451    1.3582    0.9436 C   0  0  0  0  0  0  0  0  0  0  0  0
  -11.4065    1.4278    2.0293 O   0  0  0  0  0  0  0  0  0  0  0  0
  -12.0360    0.0464    0.2467 C   0  0  0  0  0  0  0  0  0  0  0  0
  -12.6493   -0.0190   -0.9371 C   0  0  0  0  0  0  0  0  0  0  0  0
  -13.2243    1.1654   -1.5903 C   0  0  0  0  0  0  0  0  0  0  0  0
  -13.7661    1.0598   -2.6741 O   0  0  0  0  0  0  0  0  0  0  0  0
  -13.1334    2.4766   -0.8982 C   0  0  0  0  0  0  0  0  0  0  0  0
  -13.7476    3.6682   -1.5581 C   0  0  0  0  0  0  0  0  0  0  0  0
  -12.4424    3.8611    1.0400 C   0  0  0  0  0  0  0  0  0  0  0  0
  -12.5313    2.5636    0.3024 C   0  0  0  0  0  0  0  0  0  0  0  0
  -11.4054   -1.1436    0.9055 C   0  0  0  0  0  0  0  0  0  0  0  0
   -9.9029   -1.0666    0.8198 C   0  0  0  0  0  0  0  0  0  0  0  0
   -9.1535   -1.5202   -0.1878 C   0  0  0  0  0  0  0  0  0  0  0  0
   -9.7076   -2.1797   -1.4158 C   0  0  0  0  0  0  0  0  0  0  0  0
   -7.6563   -1.3739   -0.1432 C   0  0  0  0  0  0  0  0  0  0  0  0
   -6.9429   -2.6863    0.2198 C   0  0  0  0  0  0  0  0  0  0  0  0
   -5.4536   -2.5459    0.1433 C   0  0  0  0  0  0  0  0  0  0  0  0
   -4.5966   -2.3814    1.1543 C   0  0  0  0  0  0  0  0  0  0  0  0
   -4.9944   -2.3394    2.6006 C   0  0  0  0  0  0  0  0  0  0  0  0
   -3.1256   -2.1991    0.8870 C   0  0  0  0  0  0  0  0  0  0  0  0
   -2.6670   -0.7424    1.0565 C   0  0  0  0  0  0  0  0  0  0  0  0
   -1.1806   -0.6068    0.9452 C   0  0  0  0  0  0  0  0  0  0  0  0
   -0.4707   -0.0637   -0.0472 C   0  0  0  0  0  0  0  0  0  0  0  0
   -1.0666    0.5534   -1.2784 C   0  0  0  0  0  0  0  0  0  0  0  0
    1.0338   -0.0386    0.0214 C   0  0  0  0  0  0  0  0  0  0  0  0
    1.7086   -1.0147   -0.9564 C   0  0  0  0  0  0  0  0  0  0  0  0
    3.1967   -0.8599   -0.9327 C   0  0  0  0  0  0  0  0  0  0  0  0
    4.1117   -1.6971   -0.4366 C   0  0  0  0  0  0  0  0  0  0  0  0
    3.7999   -3.0283    0.1811 C   0  0  0  0  0  0  0  0  0  0  0  0
    5.5680   -1.3124   -0.4495 C   0  0  0  0  0  0  0  0  0  0  0  0
    6.1133   -0.9689    0.9473 C   0  0  0  0  0  0  0  0  0  0  0  0
    7.5660   -0.6100    0.8929 C   0  0  0  0  0  0  0  0  0  0  0  0
    8.1072    0.6110    0.8861 C   0  0  0  0  0  0  0  0  0  0  0  0
    7.3248    1.8865    0.9891 C   0  0  0  0  0  0  0  0  0  0  0  0
    9.5966    0.7763    0.7354 C   0  0  0  0  0  0  0  0  0  0  0  0
   10.0062    1.2044   -0.6842 C   0  0  0  0  0  0  0  0  0  0  0  0
   11.4839    1.4185   -0.7983 C   0  0  0  0  0  0  0  0  0  0  0  0
   12.3926    0.5791   -1.3022 C   0  0  0  0  0  0  0  0  0  0  0  0
   12.0657   -0.7630   -1.8884 C   0  0  0  0  0  0  0  0  0  0  0  0
   13.8541    0.9438   -1.3007 C   0  0  0  0  0  0  0  0  0  0  0  0
   14.6820    0.1354   -0.2886 C   0  0  0  0  0  0  0  0  0  0  0  0
   16.1383    0.4728   -0.3686 C   0  0  0  0  0  0  0  0  0  0  0  0
   16.8720    1.1573    0.5130 C   0  0  0  0  0  0  0  0  0  0  0  0
   16.3511    1.7206    1.8023 C   0  0  0  0  0  0  0  0  0  0  0  0
   18.3293    1.4212    0.2644 C   0  0  0  0  0  0  0  0  0  0  0  0
  -12.7450   -0.9590   -1.4687 H   0  0  0  0  0  0  0  0  0  0  0  0
  -14.0911    3.4467   -2.5645 H   0  0  0  0  0  0  0  0  0  0  0  0
  -14.6053    4.0236   -0.9827 H   0  0  0  0  0  0  0  0  0  0  0  0
  -13.0395    4.4962   -1.6138 H   0  0  0  0  0  0  0  0  0  0  0  0
  -11.8855    3.7691    1.9681 H   0  0  0  0  0  0  0  0  0  0  0  0
  -11.9570    4.6238    0.4288 H   0  0  0  0  0  0  0  0  0  0  0  0
  -13.4389    4.2365    1.2815 H   0  0  0  0  0  0  0  0  0  0  0  0
  -11.7106   -1.1939    1.9522 H   0  0  0  0  0  0  0  0  0  0  0  0
  -11.7833   -2.0445    0.4217 H   0  0  0  0  0  0  0  0  0  0  0  0
   -9.4051   -0.5723    1.6475 H   0  0  0  0  0  0  0  0  0  0  0  0
   -9.7691   -1.4604   -2.2369 H   0  0  0  0  0  0  0  0  0  0  0  0
   -9.0627   -2.9899   -1.7599 H   0  0  0  0  0  0  0  0  0  0  0  0
  -10.7040   -2.5956   -1.2729 H   0  0  0  0  0  0  0  0  0  0  0  0
   -7.2935   -1.0272   -1.1172 H   0  0  0  0  0  0  0  0  0  0  0  0
   -7.3741   -0.6121    0.5878 H   0  0  0  0  0  0  0  0  0  0  0  0
   -7.2689   -2.9983    1.2137 H   0  0  0  0  0  0  0  0  0  0  0  0
   -7.2592   -3.4762   -0.4680 H   0  0  0  0  0  0  0  0  0  0  0  0
   -5.0456   -2.5457   -0.8655 H   0  0  0  0  0  0  0  0  0  0  0  0
   -4.5199   -3.1538    3.1543 H   0  0  0  0  0  0  0  0  0  0  0  0
   -4.6638   -1.4112    3.0729 H   0  0  0  0  0  0  0  0  0  0  0  0
   -6.0691   -2.4153    2.7515 H   0  0  0  0  0  0  0  0  0  0  0  0
   -2.5476   -2.8348    1.5673 H   0  0  0  0  0  0  0  0  0  0  0  0
   -2.8826   -2.5268   -0.1268 H   0  0  0  0  0  0  0  0  0  0  0  0
   -3.1889   -0.1228    0.3250 H   0  0  0  0  0  0  0  0  0  0  0  0
   -2.9753   -0.3770    2.0414 H   0  0  0  0  0  0  0  0  0  0  0  0
   -0.6247   -1.0247    1.7824 H   0  0  0  0  0  0  0  0  0  0  0  0
   -0.8128    1.6150   -1.3368 H   0  0  0  0  0  0  0  0  0  0  0  0
   -0.6667    0.0922   -2.1843 H   0  0  0  0  0  0  0  0  0  0  0  0
   -2.1501    0.4680   -1.3227 H   0  0  0  0  0  0  0  0  0  0  0  0
    1.3916    0.9753   -0.1929 H   0  0  0  0  0  0  0  0  0  0  0  0
    1.3677   -0.2797    1.0335 H   0  0  0  0  0  0  0  0  0  0  0  0
    1.3980   -2.0311   -0.7086 H   0  0  0  0  0  0  0  0  0  0  0  0
    1.3491   -0.8178   -1.9712 H   0  0  0  0  0  0  0  0  0  0  0  0
    3.5563    0.0820   -1.3437 H   0  0  0  0  0  0  0  0  0  0  0  0
    4.3920   -3.8181   -0.2877 H   0  0  0  0  0  0  0  0  0  0  0  0
    4.0541   -3.0414    1.2436 H   0  0  0  0  0  0  0  0  0  0  0  0
    2.7514   -3.3070    0.0974 H   0  0  0  0  0  0  0  0  0  0  0  0
    6.1671   -2.1268   -0.8722 H   0  0  0  0  0  0  0  0  0  0  0  0
    5.7164   -0.4455   -1.0981 H   0  0  0  0  0  0  0  0  0  0  0  0
    5.5107   -0.1609    1.3662 H   0  0  0  0  0  0  0  0  0  0  0  0
    5.9843   -1.8268    1.6127 H   0  0  0  0  0  0  0  0  0  0  0  0
    8.2444   -1.4560    0.8018 H   0  0  0  0  0  0  0  0  0  0  0  0
    7.6694    2.4793    1.8401 H   0  0  0  0  0  0  0  0  0  0  0  0
    7.4648    2.5111    0.1036 H   0  0  0  0  0  0  0  0  0  0  0  0
    6.2541    1.7300    1.1052 H   0  0  0  0  0  0  0  0  0  0  0  0
    9.9643    1.5195    1.4510 H   0  0  0  0  0  0  0  0  0  0  0  0
   10.1048   -0.1622    0.9710 H   0  0  0  0  0  0  0  0  0  0  0  0
    9.6519    0.4482   -1.3872 H   0  0  0  0  0  0  0  0  0  0  0  0
    9.4934    2.1332   -0.9494 H   0  0  0  0  0  0  0  0  0  0  0  0
   11.8435    2.3593   -0.3869 H   0  0  0  0  0  0  0  0  0  0  0  0
   12.4289   -0.8334   -2.9169 H   0  0  0  0  0  0  0  0  0  0  0  0
   12.5536   -1.5680   -1.3341 H   0  0  0  0  0  0  0  0  0  0  0  0
   11.0000   -0.9814   -1.8978 H   0  0  0  0  0  0  0  0  0  0  0  0
   14.2688    0.7842   -2.3026 H   0  0  0  0  0  0  0  0  0  0  0  0
   13.9757    2.0067   -1.0777 H   0  0  0  0  0  0  0  0  0  0  0  0
   14.2831    0.3089    0.7122 H   0  0  0  0  0  0  0  0  0  0  0  0
   14.5586   -0.9332   -0.4882 H   0  0  0  0  0  0  0  0  0  0  0  0
   16.6359    0.1300   -1.2735 H   0  0  0  0  0  0  0  0  0  0  0  0
   16.8849    1.2913    2.6542 H   0  0  0  0  0  0  0  0  0  0  0  0
   16.5217    2.7993    1.8443 H   0  0  0  0  0  0  0  0  0  0  0  0
   15.2877    1.5484    1.9543 H   0  0  0  0  0  0  0  0  0  0  0  0
   18.6725    0.9766   -0.6695 H   0  0  0  0  0  0  0  0  0  0  0  0
   18.5322    2.4947    0.2241 H   0  0  0  0  0  0  0  0  0  0  0  0
   18.9440    1.0209    1.0750 H   0  0  0  0  0  0  0  0  0  0  0  0
  1  2  2  0
  1  3  1  0
  1 10  1  0
  3  4  2  0
  3 11  1  0
  4  5  1  0
  4 46  1  0
  5  6  2  0
  5  7  1  0
  7  8  1  0
  7 10  2  0
  8 47  1  0
  8 48  1  0
  8 49  1  0
  9 10  1  0
  9 50  1  0
  9 51  1  0
  9 52  1  0
 11 12  1  0
 11 53  1  0
 11 54  1  0
 12 13  2  0
 12 55  1  0
 13 14  1  0
 13 15  1  0
 14 56  1  0
 14 57  1  0
 14 58  1  0
 15 16  1  0
 15 59  1  0
 15 60  1  0
 16 17  1  0
 16 61  1  0
 16 62  1  0
 17 18  2  0
 17 63  1  0
 18 19  1  0
 18 20  1  0
 19 64  1  0
 19 65  1  0
 19 66  1  0
 20 21  1  0
 20 67  1  0
 20 68  1  0
 21 22  1  0
 21 69  1  0
 21 70  1  0
 22 23  2  0
 22 71  1  0
 23 24  1  0
 23 25  1  0
 24 72  1  0
 24 73  1  0
 24 74  1  0
 25 26  1  0
 25 75  1  0
 25 76  1  0
 26 27  1  0
 26 77  1  0
 26 78  1  0
 27 28  2  0
 27 79  1  0
 28 29  1  0
 28 30  1  0
 29 80  1  0
 29 81  1  0
 29 82  1  0
 30 31  1  0
 30 83  1  0
 30 84  1  0
 31 32  1  0
 31 85  1  0
 31 86  1  0
 32 33  2  0
 32 87  1  0
 33 34  1  0
 33 35  1  0
 34 88  1  0
 34 89  1  0
 34 90  1  0
 35 36  1  0
 35 91  1  0
 35 92  1  0
 36 37  1  0
 36 93  1  0
 36 94  1  0
 37 38  2  0
 37 95  1  0
 38 39  1  0
 38 40  1  0
 39 96  1  0
 39 97  1  0
 39 98  1  0
 40 41  1  0
 40 99  1  0
 40100  1  0
 41 42  1  0
 41101  1  0
 41102  1  0
 42 43  2  0
 42103  1  0
 43 44  1  0
 43 45  1  0
 44104  1  0
 44105  1  0
 44106  1  0
 45107  1  0
 45108  1  0
 45109  1  0
M  END
