
     RDKit          3D

 62 65  0  0  0  0  0  0  0  0999 V2000
   -2.7630   -2.0965    0.0999 C   0  0  0  0  0  0  0  0  0  0  0  0
   -2.0135   -0.9870    0.3699 C   0  0  0  0  0  0  0  0  0  0  0  0
   -3.6782    0.5052   -0.5967 C   0  0  0  0  0  0  0  0  0  0  0  0
   -0.2667    1.3820    0.5578 C   0  0  0  0  0  0  0  0  0  0  0  0
   -4.0042   -1.9260   -0.5416 C   0  0  0  0  0  0  0  0  0  0  0  0
   -2.4642    0.3255    0.0188 C   0  0  0  0  0  0  0  0  0  0  0  0
   -4.4689   -0.6283   -0.8933 C   0  0  0  0  0  0  0  0  0  0  0  0
   -1.6200    1.5093    0.3090 C   0  0  0  0  0  0  0  0  0  0  0  0
    0.4567    2.5693    0.7986 C   0  0  0  0  0  0  0  0  0  0  0  0
   -5.0239   -2.7846   -0.9742 C   0  0  0  0  0  0  0  0  0  0  0  0
   -1.4543    3.7605    0.4914 C   0  0  0  0  0  0  0  0  0  0  0  0
    3.2943   -1.4427   -0.0611 C   0  0  0  0  0  0  0  0  0  0  0  0
    4.1097    2.1448   -0.5219 C   0  0  0  0  0  0  0  0  0  0  0  0
    2.6405    3.6967    0.8208 C   0  0  0  0  0  0  0  0  0  0  0  0
    2.5277    1.3258    1.2036 C   0  0  0  0  0  0  0  0  0  0  0  0
    3.3876    3.4998   -0.5043 C   0  0  2  0  0  0  0  0  0  0  0  0
    3.1836    0.9926   -0.1370 C   0  0  2  0  0  0  0  0  0  0  0  0
    2.4680    3.6746   -1.7088 C   0  0  0  0  0  0  0  0  0  0  0  0
    5.0891   -4.5314    0.5224 C   0  0  0  0  0  0  0  0  0  0  0  0
    3.2308   -4.3042   -1.1253 C   0  0  0  0  0  0  0  0  0  0  0  0
    2.7851   -4.0548    1.3485 C   0  0  0  0  0  0  0  0  0  0  0  0
    3.7761   -3.8220    0.2132 C   0  0  1  0  0  0  0  0  0  0  0  0
   -2.2282    2.6974    0.2832 N   0  0  0  0  0  0  0  0  0  0  0  0
   -0.1494    3.7532    0.7505 N   0  0  0  0  0  0  0  0  0  0  0  0
   -5.9474   -1.9832   -1.5141 N   0  0  0  0  0  0  0  0  0  0  0  0
   -5.6562   -0.6677   -1.4900 N   0  0  0  0  0  0  0  0  0  0  0  0
    1.7804    2.5581    1.1000 N   0  0  0  0  0  0  0  0  0  0  0  0
   -5.1030   -4.1473   -0.9612 N   0  0  0  0  0  0  0  0  0  0  0  0
   -2.0654    4.9698    0.4814 N   0  0  0  0  0  0  0  0  0  0  0  0
    3.9228   -0.2467   -0.0732 N   0  0  0  0  0  0  0  0  0  0  0  0
    2.0968   -1.5806   -0.2210 O   0  0  0  0  0  0  0  0  0  0  0  0
    4.1712   -2.4264    0.1338 O   0  0  0  0  0  0  0  0  0  0  0  0
   -2.4041   -3.0791    0.3805 H   0  0  0  0  0  0  0  0  0  0  0  0
   -1.0688   -1.1101    0.8814 H   0  0  0  0  0  0  0  0  0  0  0  0
   -4.0210    1.4976   -0.8565 H   0  0  0  0  0  0  0  0  0  0  0  0
    0.2255    0.4263    0.4864 H   0  0  0  0  0  0  0  0  0  0  0  0
    4.5454    1.9644   -1.5080 H   0  0  0  0  0  0  0  0  0  0  0  0
    4.9419    2.1739    0.1917 H   0  0  0  0  0  0  0  0  0  0  0  0
    3.3590    3.7882    1.6413 H   0  0  0  0  0  0  0  0  0  0  0  0
    2.0471    4.6075    0.8007 H   0  0  0  0  0  0  0  0  0  0  0  0
    1.9015    0.5130    1.5642 H   0  0  0  0  0  0  0  0  0  0  0  0
    3.3103    1.4706    1.9559 H   0  0  0  0  0  0  0  0  0  0  0  0
    4.1534    4.2801   -0.5537 H   0  0  0  0  0  0  0  0  0  0  0  0
    2.4008    0.8798   -0.8930 H   0  0  0  0  0  0  0  0  0  0  0  0
    1.6781    2.9231   -1.7523 H   0  0  0  0  0  0  0  0  0  0  0  0
    1.9836    4.6518   -1.6917 H   0  0  0  0  0  0  0  0  0  0  0  0
    3.0353    3.6031   -2.6382 H   0  0  0  0  0  0  0  0  0  0  0  0
    5.8243   -4.3671   -0.2668 H   0  0  0  0  0  0  0  0  0  0  0  0
    5.5143   -4.1894    1.4674 H   0  0  0  0  0  0  0  0  0  0  0  0
    4.9203   -5.6051    0.6016 H   0  0  0  0  0  0  0  0  0  0  0  0
    2.2973   -3.8139   -1.3919 H   0  0  0  0  0  0  0  0  0  0  0  0
    3.9554   -4.1376   -1.9242 H   0  0  0  0  0  0  0  0  0  0  0  0
    3.0400   -5.3767   -1.0716 H   0  0  0  0  0  0  0  0  0  0  0  0
    2.6825   -5.1277    1.5153 H   0  0  0  0  0  0  0  0  0  0  0  0
    3.1443   -3.6118    2.2789 H   0  0  0  0  0  0  0  0  0  0  0  0
    1.7975   -3.6554    1.1299 H   0  0  0  0  0  0  0  0  0  0  0  0
   -4.5706   -4.5870   -0.2269 H   0  0  0  0  0  0  0  0  0  0  0  0
   -6.0316   -4.5369   -1.0207 H   0  0  0  0  0  0  0  0  0  0  0  0
   -1.4871    5.7889    0.4050 H   0  0  0  0  0  0  0  0  0  0  0  0
   -2.9747    5.0283    0.0563 H   0  0  0  0  0  0  0  0  0  0  0  0
    4.9029   -0.2110    0.1602 H   0  0  0  0  0  0  0  0  0  0  0  0
   -6.8175   -2.2815   -1.9287 H   0  0  0  0  0  0  0  0  0  0  0  0
  2  1  2  0
  5  1  1  0
  1 33  1  0
  6  2  1  0
  2 34  1  0
  3  6  2  0
  3  7  1  0
  3 35  1  0
  9  4  2  0
  8  4  1  0
  4 36  1  0
  7  5  1  0
  5 10  2  0
  8  6  1  0
 26  7  2  0
 23  8  2  0
 24  9  1  0
  9 27  1  0
 25 10  1  0
 10 28  1  0
 29 11  1  0
 11 24  2  0
 11 23  1  0
 32 12  1  0
 30 12  1  0
 12 31  2  0
 17 13  1  0
 13 16  1  0
 13 37  1  0
 13 38  1  0
 27 14  1  0
 14 16  1  0
 14 39  1  0
 14 40  1  0
 15 27  1  0
 15 17  1  0
 15 41  1  0
 15 42  1  0
 16 18  1  0
 16 43  1  6
 30 17  1  0
 17 44  1  6
 18 45  1  0
 18 46  1  0
 18 47  1  0
 22 19  1  0
 19 48  1  0
 19 49  1  0
 19 50  1  0
 20 22  1  0
 20 51  1  0
 20 52  1  0
 20 53  1  0
 21 22  1  0
 21 54  1  0
 21 55  1  0
 21 56  1  0
 22 32  1  6
 26 25  1  0
 28 57  1  0
 28 58  1  0
 29 59  1  0
 29 60  1  0
 30 61  1  0
 25 62  1  0
M  END
