
     RDKit          3D

 31 33  0  0  0  0  0  0  0  0999 V2000
   -0.8278    0.3092    3.7864 N   0  0  0  0  0  0  0  0  0  0  0  0
   -1.7418   -0.0225    2.8779 C   0  0  0  0  0  0  0  0  0  0  0  0
   -1.5609   -0.3383    1.6075 N   0  0  0  0  0  0  0  0  0  0  0  0
   -0.2724   -0.2987    1.2710 C   0  0  0  0  0  0  0  0  0  0  0  0
    0.2883   -0.5602    0.0559 N   0  0  0  0  0  0  0  0  0  0  0  0
    1.6367   -0.3953    0.2142 C   0  0  0  0  0  0  0  0  0  0  0  0
    1.9754   -0.0430    1.4208 N   0  0  0  0  0  0  0  0  0  0  0  0
    0.7891    0.0240    2.1017 C   0  0  0  0  0  0  0  0  0  0  0  0
    0.4619    0.3428    3.4330 C   0  0  0  0  0  0  0  0  0  0  0  0
    1.3814    0.6634    4.3448 N   0  0  0  0  0  0  0  0  0  0  0  0
   -0.4449   -0.9718   -1.1387 C   0  0  1  0  0  0  0  0  0  0  0  0
   -1.2431    0.1898   -1.7307 C   0  0  1  0  0  0  0  0  0  0  0  0
   -0.2071    0.7887   -2.6775 C   0  0  1  0  0  0  0  0  0  0  0  0
    0.4853   -0.4663   -3.2169 C   0  0  1  0  0  0  0  0  0  0  0  0
    1.9017   -0.2531   -3.6949 C   0  0  0  0  0  0  0  0  0  0  0  0
    0.4652   -1.3800   -2.1111 O   0  0  0  0  0  0  0  0  0  0  0  0
   -2.3262   -0.3720   -2.4217 O   0  0  0  0  0  0  0  0  0  0  0  0
   -0.8278    1.5778   -3.6492 O   0  0  0  0  0  0  0  0  0  0  0  0
   -2.7675   -0.0318    3.2310 H   0  0  0  0  0  0  0  0  0  0  0  0
    2.3299   -0.5571   -0.5955 H   0  0  0  0  0  0  0  0  0  0  0  0
    1.1018    0.9395    5.2703 H   0  0  0  0  0  0  0  0  0  0  0  0
    2.3501    0.7532    4.0938 H   0  0  0  0  0  0  0  0  0  0  0  0
   -1.0990   -1.7994   -0.8492 H   0  0  0  0  0  0  0  0  0  0  0  0
   -1.5728    0.8993   -0.9631 H   0  0  0  0  0  0  0  0  0  0  0  0
    0.5120    1.3730   -2.0843 H   0  0  0  0  0  0  0  0  0  0  0  0
   -0.1174   -0.8846   -4.0314 H   0  0  0  0  0  0  0  0  0  0  0  0
    2.3636   -1.1880   -4.0118 H   0  0  0  0  0  0  0  0  0  0  0  0
    1.9001    0.4160   -4.5571 H   0  0  0  0  0  0  0  0  0  0  0  0
    2.5245    0.1991   -2.9211 H   0  0  0  0  0  0  0  0  0  0  0  0
   -2.6757    0.2862   -3.0323 H   0  0  0  0  0  0  0  0  0  0  0  0
   -0.1582    2.0566   -4.1470 H   0  0  0  0  0  0  0  0  0  0  0  0
  1  2  2  0
  1  9  1  0
  2  3  1  0
  2 19  1  0
  3  4  2  0
  4  5  1  0
  4  8  1  0
  5  6  1  0
  5 11  1  0
  6  7  2  0
  6 20  1  0
  7  8  1  0
  8  9  2  0
  9 10  1  0
 10 21  1  0
 10 22  1  0
 11 12  1  0
 11 16  1  0
 11 23  1  1
 12 13  1  0
 12 17  1  0
 12 24  1  1
 13 14  1  0
 13 18  1  0
 13 25  1  1
 14 15  1  0
 14 16  1  0
 14 26  1  6
 15 27  1  0
 15 28  1  0
 15 29  1  0
 17 30  1  0
 18 31  1  0
M  END
