
     RDKit          3D

 37 39  0  0  0  0  0  0  0  0999 V2000
   -2.6889   -0.6838    0.2068 C   0  0  0  0  0  0  0  0  0  0  0  0
   -2.8273    0.2193   -0.8519 C   0  0  0  0  0  0  0  0  0  0  0  0
   -5.1006    0.7110   -0.1978 C   0  0  0  0  0  0  0  0  0  0  0  0
    0.1598    0.3040    0.0826 C   0  0  0  0  0  0  0  0  0  0  0  0
    1.4698    0.6726   -0.1519 C   0  0  0  0  0  0  0  0  0  0  0  0
    2.4373   -0.3178   -0.3102 C   0  0  0  0  0  0  0  0  0  0  0  0
    4.9261    1.6631    0.4576 C   0  0  0  0  0  0  0  0  0  0  0  0
    3.8555   -0.3506   -0.5581 C   0  0  0  0  0  0  0  0  0  0  0  0
    4.1825   -1.6573   -0.5940 C   0  0  0  0  0  0  0  0  0  0  0  0
    2.0392   -1.6499   -0.2141 C   0  0  0  0  0  0  0  0  0  0  0  0
    0.7361   -2.0549    0.0031 C   0  0  0  0  0  0  0  0  0  0  0  0
   -0.2257   -1.0529    0.1545 C   0  0  0  0  0  0  0  0  0  0  0  0
   -4.0071    0.9140   -1.0402 C   0  0  0  0  0  0  0  0  0  0  0  0
   -7.3505    1.2286    0.3435 C   0  0  0  0  0  0  0  0  0  0  0  0
   -4.9826   -0.2059    0.8418 C   0  0  0  0  0  0  0  0  0  0  0  0
   -3.7839   -0.8793    1.0434 C   0  0  0  0  0  0  0  0  0  0  0  0
   -1.5285   -1.4265    0.4169 N   0  0  0  0  0  0  0  0  0  0  0  0
    5.6798    2.7277    0.2093 O   0  0  0  0  0  0  0  0  0  0  0  0
    4.4479    1.4236    1.5360 O   0  0  0  0  0  0  0  0  0  0  0  0
    3.1026   -2.4645   -0.3859 O   0  0  0  0  0  0  0  0  0  0  0  0
   -6.2112    1.4323   -0.4650 O   0  0  0  0  0  0  0  0  0  0  0  0
   -2.0135    0.3786   -1.5473 H   0  0  0  0  0  0  0  0  0  0  0  0
   -0.5796    1.0778    0.2352 H   0  0  0  0  0  0  0  0  0  0  0  0
    1.7287    1.7229   -0.1999 H   0  0  0  0  0  0  0  0  0  0  0  0
    4.3851    1.4426   -1.5853 H   0  0  0  0  0  0  0  0  0  0  0  0
    5.7488    0.4724   -1.0958 H   0  0  0  0  0  0  0  0  0  0  0  0
    5.1248   -2.1563   -0.7594 H   0  0  0  0  0  0  0  0  0  0  0  0
    0.4671   -3.1029    0.0548 H   0  0  0  0  0  0  0  0  0  0  0  0
   -4.0908    1.6125   -1.8637 H   0  0  0  0  0  0  0  0  0  0  0  0
   -8.1225    1.8961   -0.0320 H   0  0  0  0  0  0  0  0  0  0  0  0
   -7.7172    0.2000    0.2831 H   0  0  0  0  0  0  0  0  0  0  0  0
   -7.1582    1.4702    1.3927 H   0  0  0  0  0  0  0  0  0  0  0  0
   -5.8021   -0.4045    1.5194 H   0  0  0  0  0  0  0  0  0  0  0  0
   -3.7076   -1.5757    1.8698 H   0  0  0  0  0  0  0  0  0  0  0  0
   -1.6588   -2.3591    0.7731 H   0  0  0  0  0  0  0  0  0  0  0  0
    5.7808    3.2574    1.0145 H   0  0  0  0  0  0  0  0  0  0  0  0
    4.7589    0.8087   -0.7750 C   0  0  0  0  0  0  0  0  0  0  0  0
 37  7  1  0
 37  8  1  0
  5  6  1  0
  5  4  2  0
  7 19  2  0
  7 18  1  0
  8  6  1  0
  8  9  2  0
  6 10  2  0
  4 12  1  0
  9 20  1  0
 10 20  1  0
 10 11  1  0
 12 11  2  0
 12 17  1  0
 17  1  1  0
  1 16  1  0
  1  2  2  0
 16 15  2  0
  2 13  1  0
 15  3  1  0
 13  3  2  0
  3 21  1  0
 21 14  1  0
  2 22  1  0
  4 23  1  0
  5 24  1  0
 37 25  1  0
 37 26  1  0
  9 27  1  0
 11 28  1  0
 13 29  1  0
 14 30  1  0
 14 31  1  0
 14 32  1  0
 15 33  1  0
 16 34  1  0
 17 35  1  0
 18 36  1  0
M  END
