
     RDKit          3D

 23 24  0  0  0  0  0  0  0  0999 V2000
   -1.3997    1.8216   -1.4423 Cl  0  0  0  0  0  0  0  0  0  0  0  0
   -1.9405    0.4155   -0.5869 C   0  0  0  0  0  0  0  0  0  0  0  0
   -3.3086    0.1913   -0.5246 C   0  0  0  0  0  0  0  0  0  0  0  0
   -3.7921   -0.9463    0.1024 C   0  0  0  0  0  0  0  0  0  0  0  0
   -2.9088   -1.8682    0.6456 C   0  0  0  0  0  0  0  0  0  0  0  0
   -1.5451   -1.6416    0.5633 C   0  0  0  0  0  0  0  0  0  0  0  0
   -1.0354   -0.4905   -0.0361 C   0  0  0  0  0  0  0  0  0  0  0  0
    0.4354   -0.2949   -0.0451 C   0  0  0  0  0  0  0  0  0  0  0  0
    0.8943    0.8791    0.3427 N   0  0  0  0  0  0  0  0  0  0  0  0
    2.2341    0.9833    0.3278 C   0  0  0  0  0  0  0  0  0  0  0  0
    2.7550    2.1571    0.6884 N   0  0  0  0  0  0  0  0  0  0  0  0
    3.0713    0.0074   -0.0161 N   0  0  0  0  0  0  0  0  0  0  0  0
    1.1589   -1.3408   -0.4045 N   0  0  0  0  0  0  0  0  0  0  0  0
    2.4871   -1.1368   -0.3625 C   0  0  0  0  0  0  0  0  0  0  0  0
    3.2703   -2.1630   -0.6981 N   0  0  0  0  0  0  0  0  0  0  0  0
   -3.9923    0.9024   -0.9681 H   0  0  0  0  0  0  0  0  0  0  0  0
   -4.8598   -1.1125    0.1552 H   0  0  0  0  0  0  0  0  0  0  0  0
   -3.2792   -2.7617    1.1289 H   0  0  0  0  0  0  0  0  0  0  0  0
   -0.8528   -2.3601    0.9820 H   0  0  0  0  0  0  0  0  0  0  0  0
    2.1557    2.9144    0.9641 H   0  0  0  0  0  0  0  0  0  0  0  0
    3.7503    2.2915    0.7117 H   0  0  0  0  0  0  0  0  0  0  0  0
    4.2700   -2.0647   -0.7023 H   0  0  0  0  0  0  0  0  0  0  0  0
    2.8670   -3.0378   -0.9824 H   0  0  0  0  0  0  0  0  0  0  0  0
  4  5  2  0
  4  3  1  0
  5  6  1  0
  3  2  2  0
 11 10  1  0
  6  7  2  0
  9 10  2  0
  9  8  1  0
  2  7  1  0
  2  1  1  0
  7  8  1  0
 10 12  1  0
  8 13  2  0
 12 14  2  0
 13 14  1  0
 14 15  1  0
  3 16  1  0
  4 17  1  0
  5 18  1  0
  6 19  1  0
 11 20  1  0
 11 21  1  0
 15 22  1  0
 15 23  1  0
M  END
