
     RDKit          3D

 41 41  0  0  0  0  0  0  0  0999 V2000
    7.6563    0.7557    0.3644 C   0  0  0  0  0  0  0  0  0  0  0  0
    7.2995   -0.3457   -0.4027 C   0  0  0  0  0  0  0  0  0  0  0  0
   -3.4907    1.9788    1.0611 N   0  0  0  0  0  0  0  0  0  0  0  0
    5.9932   -0.4875   -0.8519 C   0  0  0  0  0  0  0  0  0  0  0  0
    5.0259    0.4667   -0.5455 C   0  0  0  0  0  0  0  0  0  0  0  0
    5.3948    1.5675    0.2245 C   0  0  0  0  0  0  0  0  0  0  0  0
    6.6996    1.7132    0.6764 C   0  0  0  0  0  0  0  0  0  0  0  0
   -0.9296   -1.2291   -0.2435 C   0  0  1  0  0  0  0  0  0  0  0  0
   -1.5974    0.0973    0.1175 C   0  0  0  0  0  0  0  0  0  0  0  0
   -2.9498    0.2431   -0.5474 C   0  0  0  0  0  0  0  0  0  0  0  0
    0.4862   -1.2309    0.3325 C   0  0  0  0  0  0  0  0  0  0  0  0
   -5.0634    1.3993   -0.6423 C   0  0  0  0  0  0  0  0  0  0  0  0
   -6.0513    0.4221   -0.0418 C   0  0  0  0  0  0  0  0  0  0  0  0
    2.7823   -0.4322    0.0628 C   0  0  0  0  0  0  0  0  0  0  0  0
   -3.7512    1.2371   -0.0832 N   0  0  0  0  0  0  0  0  0  0  0  0
    1.4132   -0.5950   -0.3851 N   0  0  0  0  0  0  0  0  0  0  0  0
    0.7106   -1.7654    1.4113 O   0  0  0  0  0  0  0  0  0  0  0  0
   -3.2898   -0.4496   -1.4917 O   0  0  0  0  0  0  0  0  0  0  0  0
   -7.2421    0.5340   -0.6126 O   0  0  0  0  0  0  0  0  0  0  0  0
   -5.7927   -0.3484    0.8447 O   0  0  0  0  0  0  0  0  0  0  0  0
   -1.6461   -2.3207    0.2539 O   0  0  0  0  0  0  0  0  0  0  0  0
    3.6044    0.2891   -0.9999 C   0  0  0  0  0  0  0  0  0  0  0  0
    8.6744    0.8684    0.7140 H   0  0  0  0  0  0  0  0  0  0  0  0
    8.0399   -1.0940   -0.6555 H   0  0  0  0  0  0  0  0  0  0  0  0
   -3.4244    1.3817    1.8755 H   0  0  0  0  0  0  0  0  0  0  0  0
   -2.6318    2.5029    0.9626 H   0  0  0  0  0  0  0  0  0  0  0  0
    5.7220   -1.3478   -1.4531 H   0  0  0  0  0  0  0  0  0  0  0  0
    4.6544    2.3205    0.4696 H   0  0  0  0  0  0  0  0  0  0  0  0
    6.9706    2.5773    1.2697 H   0  0  0  0  0  0  0  0  0  0  0  0
   -0.8807   -1.3264   -1.3313 H   0  0  0  0  0  0  0  0  0  0  0  0
   -0.9752    0.9404   -0.2023 H   0  0  0  0  0  0  0  0  0  0  0  0
   -1.6734    0.1767    1.2045 H   0  0  0  0  0  0  0  0  0  0  0  0
   -5.4021    2.4162   -0.4398 H   0  0  0  0  0  0  0  0  0  0  0  0
   -5.0491    1.2799   -1.7262 H   0  0  0  0  0  0  0  0  0  0  0  0
    2.8030    0.1378    0.9955 H   0  0  0  0  0  0  0  0  0  0  0  0
    3.2255   -1.4089    0.2727 H   0  0  0  0  0  0  0  0  0  0  0  0
    1.1565   -0.2111   -1.2812 H   0  0  0  0  0  0  0  0  0  0  0  0
   -7.8666   -0.0887   -0.2112 H   0  0  0  0  0  0  0  0  0  0  0  0
   -1.3322   -2.4838    1.1534 H   0  0  0  0  0  0  0  0  0  0  0  0
    3.5793   -0.2855   -1.9294 H   0  0  0  0  0  0  0  0  0  0  0  0
    3.1529    1.2624   -1.2097 H   0  0  0  0  0  0  0  0  0  0  0  0
  1  2  2  0
  1  7  1  0
  1 23  1  0
  2  4  1  0
  2 24  1  0
  3 15  1  0
  3 25  1  0
  3 26  1  0
  4  5  2  0
  4 27  1  0
  5  6  1  0
  5 22  1  0
  6  7  2  0
  6 28  1  0
  7 29  1  0
  8  9  1  0
  8 11  1  0
  8 21  1  0
  8 30  1  6
  9 10  1  0
  9 31  1  0
  9 32  1  0
 10 15  1  0
 10 18  2  0
 11 16  1  0
 11 17  2  0
 12 13  1  0
 12 15  1  0
 12 33  1  0
 12 34  1  0
 13 19  1  0
 13 20  2  0
 14 16  1  0
 14 22  1  0
 14 35  1  0
 14 36  1  0
 16 37  1  0
 19 38  1  0
 21 39  1  0
 22 40  1  0
 22 41  1  0
M  END
