
     RDKit          3D

 32 32  0  0  0  0  0  0  0  0999 V2000
   -0.0689   -0.5776    0.0298 N   0  0  0  0  0  0  0  0  0  0  0  0
    3.1331    0.4350    0.9437 C   0  0  0  0  0  0  0  0  0  0  0  0
    2.4355    0.5075    2.2964 C   0  0  0  0  0  0  0  0  0  0  0  0
    0.9593    0.2641   -0.2578 C   0  0  0  0  0  0  0  0  0  0  0  0
   -1.4222   -0.1868   -0.1207 C   0  0  0  0  0  0  0  0  0  0  0  0
   -2.1142   -0.4148   -1.3018 C   0  0  0  0  0  0  0  0  0  0  0  0
   -4.0632    0.6153   -0.3653 C   0  0  0  0  0  0  0  0  0  0  0  0
    4.3612   -1.0680   -1.5064 C   0  0  0  0  0  0  0  0  0  0  0  0
    3.0288   -0.3316   -1.4914 C   0  0  0  0  0  0  0  0  0  0  0  0
    2.3437   -0.3354   -0.1188 C   0  0  1  0  0  0  0  0  0  0  0  0
    0.7735    1.4223   -0.5861 O   0  0  0  0  0  0  0  0  0  0  0  0
   -3.4373   -0.0214   -1.4307 C   0  0  0  0  0  0  0  0  0  0  0  0
   -3.3848    0.8479    0.8203 C   0  0  0  0  0  0  0  0  0  0  0  0
   -2.0588    0.4448    0.9511 C   0  0  0  0  0  0  0  0  0  0  0  0
   -1.4260    0.6749    2.1151 O   0  0  0  0  0  0  0  0  0  0  0  0
    0.1360   -1.5514    0.1979 H   0  0  0  0  0  0  0  0  0  0  0  0
    3.3424    1.4436    0.5771 H   0  0  0  0  0  0  0  0  0  0  0  0
    4.1016   -0.0514    1.0747 H   0  0  0  0  0  0  0  0  0  0  0  0
    2.1405   -0.4832    2.6484 H   0  0  0  0  0  0  0  0  0  0  0  0
    3.0944    0.9398    3.0494 H   0  0  0  0  0  0  0  0  0  0  0  0
    1.5427    1.1361    2.2636 H   0  0  0  0  0  0  0  0  0  0  0  0
   -1.6033   -0.9051   -2.1208 H   0  0  0  0  0  0  0  0  0  0  0  0
   -5.0943    0.9315   -0.4552 H   0  0  0  0  0  0  0  0  0  0  0  0
    5.1055   -0.5915   -0.8687 H   0  0  0  0  0  0  0  0  0  0  0  0
    4.2456   -2.0994   -1.1682 H   0  0  0  0  0  0  0  0  0  0  0  0
    4.7704   -1.0964   -2.5166 H   0  0  0  0  0  0  0  0  0  0  0  0
    3.1696    0.7017   -1.8188 H   0  0  0  0  0  0  0  0  0  0  0  0
    2.3625   -0.8002   -2.2213 H   0  0  0  0  0  0  0  0  0  0  0  0
    2.2500   -1.3759    0.2135 H   0  0  0  0  0  0  0  0  0  0  0  0
   -3.9721   -0.2045   -2.3527 H   0  0  0  0  0  0  0  0  0  0  0  0
   -3.8769    1.3389    1.6503 H   0  0  0  0  0  0  0  0  0  0  0  0
   -0.5654    0.2355    2.1060 H   0  0  0  0  0  0  0  0  0  0  0  0
 12  6  1  0
 12  7  2  0
 11  4  2  0
  6  5  2  0
  7 13  1  0
  4  1  1  0
  4 10  1  0
  2  3  1  0
  2 10  1  0
  5  1  1  0
  5 14  1  0
 13 14  2  0
  9 10  1  0
  9  8  1  0
 14 15  1  0
  1 16  1  0
  2 17  1  0
  2 18  1  0
  3 19  1  0
  3 20  1  0
  3 21  1  0
  6 22  1  0
  7 23  1  0
  8 24  1  0
  8 25  1  0
  8 26  1  0
  9 27  1  0
  9 28  1  0
 10 29  1  1
 12 30  1  0
 13 31  1  0
 15 32  1  0
M  END
