
     RDKit          3D

 41 42  0  0  0  0  0  0  0  0999 V2000
    0.8754   -0.1332    6.5542 S   0  0  0  0  0  0  0  0  0  0  0  0
    0.3706   -0.7552    4.9161 C   0  0  0  0  0  0  0  0  0  0  0  0
    0.9367    0.1757    3.8503 C   0  0  0  0  0  0  0  0  0  0  0  0
    0.5817   -0.2582    2.5214 N   0  0  0  0  0  0  0  0  0  0  0  0
   -0.5752    0.0630    1.9236 C   0  0  0  0  0  0  0  0  0  0  0  0
   -0.7999   -0.6297    0.5861 C   0  0  2  0  0  0  0  0  0  0  0  0
   -1.4805    0.2474   -0.3591 N   0  0  0  0  0  0  0  0  0  0  0  0
   -0.6157    1.4179   -1.1083 S   0  0  2  0  0  0  0  0  0  0  0  0
    0.3051    0.6248   -2.3934 C   0  0  0  0  0  0  0  0  0  0  0  0
   -0.2476    0.4878   -3.6598 C   0  0  0  0  0  0  0  0  0  0  0  0
    0.4634   -0.1888   -4.6391 C   0  0  0  0  0  0  0  0  0  0  0  0
    1.7193   -0.7296   -4.3762 C   0  0  0  0  0  0  0  0  0  0  0  0
    2.2584   -0.5667   -3.0995 C   0  0  0  0  0  0  0  0  0  0  0  0
    1.5665    0.1090   -2.1107 C   0  0  0  0  0  0  0  0  0  0  0  0
    2.4905   -1.4540   -5.4377 C   0  0  0  0  0  0  0  0  0  0  0  0
    0.3365    1.9124   -0.1252 O   0  0  0  0  0  0  0  0  0  0  0  0
   -1.5674    2.3261   -1.7265 O   0  0  0  0  0  0  0  0  0  0  0  0
   -2.5773   -0.4367   -1.0653 C   0  0  0  0  0  0  0  0  0  0  0  0
   -2.3935   -1.8955   -0.6694 C   0  0  0  0  0  0  0  0  0  0  0  0
   -1.7738   -1.8056    0.7183 C   0  0  0  0  0  0  0  0  0  0  0  0
   -1.4090    0.8068    2.4097 O   0  0  0  0  0  0  0  0  0  0  0  0
    0.4201   -1.1639    7.2731 H   0  0  0  0  0  0  0  0  0  0  0  0
   -0.7166   -0.7874    4.8520 H   0  0  0  0  0  0  0  0  0  0  0  0
    0.7580   -1.7637    4.7752 H   0  0  0  0  0  0  0  0  0  0  0  0
    2.0241    0.1992    3.9157 H   0  0  0  0  0  0  0  0  0  0  0  0
    0.5800    1.1939    4.0055 H   0  0  0  0  0  0  0  0  0  0  0  0
    1.2064   -0.8979    2.0588 H   0  0  0  0  0  0  0  0  0  0  0  0
    0.1496   -1.0021    0.1781 H   0  0  0  0  0  0  0  0  0  0  0  0
   -1.2123    0.9148   -3.8973 H   0  0  0  0  0  0  0  0  0  0  0  0
    0.0344   -0.2888   -5.6281 H   0  0  0  0  0  0  0  0  0  0  0  0
    3.2396   -0.9662   -2.8758 H   0  0  0  0  0  0  0  0  0  0  0  0
    2.0211    0.2528   -1.1399 H   0  0  0  0  0  0  0  0  0  0  0  0
    3.4055   -0.9158   -5.6886 H   0  0  0  0  0  0  0  0  0  0  0  0
    2.7867   -2.4460   -5.0967 H   0  0  0  0  0  0  0  0  0  0  0  0
    1.9084   -1.5662   -6.3501 H   0  0  0  0  0  0  0  0  0  0  0  0
   -3.5340   -0.0397   -0.7240 H   0  0  0  0  0  0  0  0  0  0  0  0
   -2.5208   -0.2968   -2.1450 H   0  0  0  0  0  0  0  0  0  0  0  0
   -3.3336   -2.4448   -0.6740 H   0  0  0  0  0  0  0  0  0  0  0  0
   -1.7086   -2.3913   -1.3597 H   0  0  0  0  0  0  0  0  0  0  0  0
   -2.5401   -1.5801    1.4621 H   0  0  0  0  0  0  0  0  0  0  0  0
   -1.2580   -2.7141    1.0237 H   0  0  0  0  0  0  0  0  0  0  0  0
  1  2  1  0
  1 22  1  0
  2  3  1  0
  2 23  1  0
  2 24  1  0
  3  4  1  0
  3 25  1  0
  3 26  1  0
  4  5  1  0
  4 27  1  0
  5  6  1  0
  5 21  2  0
  6  7  1  0
  6 20  1  0
  6 28  1  6
  7  8  1  0
  7 18  1  0
  8  9  1  6
  8 16  2  0
  8 17  2  0
  9 10  2  0
  9 14  1  0
 10 11  1  0
 10 29  1  0
 11 12  2  0
 11 30  1  0
 12 13  1  0
 12 15  1  0
 13 14  2  0
 13 31  1  0
 14 32  1  0
 15 33  1  0
 15 34  1  0
 15 35  1  0
 18 19  1  0
 18 36  1  0
 18 37  1  0
 19 20  1  0
 19 38  1  0
 19 39  1  0
 20 40  1  0
 20 41  1  0
M  END
