
     RDKit          3D

 14 13  0  0  0  0  0  0  0  0999 V2000
    1.5660    0.6240    0.8700 N   0  0  0  0  0  0  0  0  0  0  0  0
    1.9890   -0.2790    1.0190 H   0  0  0  0  0  0  0  0  0  0  0  0
    0.1200    0.4500    1.0570 C   0  0  1  0  0  0  0  0  0  0  0  0
   -0.3830    1.4050    0.9060 H   0  0  0  0  0  0  0  0  0  0  0  0
   -0.4060   -0.5690    0.0460 C   0  0  0  0  0  0  0  0  0  0  0  0
    0.0970   -1.5240    0.1970 H   0  0  0  0  0  0  0  0  0  0  0  0
   -1.4790   -0.6980    0.1850 H   0  0  0  0  0  0  0  0  0  0  0  0
   -0.0820    0.0240   -1.6360 S   0  0  2  0  0  0  0  0  0  0  0  0
   -0.8990    1.1400   -1.9640 O   0  0  0  0  0  0  0  0  0  0  0  0
   -0.6540   -1.0810   -2.5110 O   0  0  0  0  0  0  0  0  0  0  0  0
    1.3030   -0.0130   -1.9470 O   0  0  0  0  0  0  0  0  0  0  0  0
   -0.1480   -0.0430    2.4560 C   0  0  0  0  0  0  0  0  0  0  0  0
    0.6700   -0.7260    3.0230 O   0  0  0  0  0  0  0  0  0  0  0  0
   -0.5080   -0.8150   -3.4290 H   0  0  0  0  0  0  0  0  0  0  0  0
  1  2  1  0
  1  3  1  0
  3  4  1  6
  3  5  1  0
  5  6  1  0
  5  7  1  0
  5  8  1  0
  9  8  2  0
  8 10  1  6
 11  8  2  0
  3 12  1  0
 12 13  2  0
 14 10  1  0
M  CHG  1   1  -1
M  END
