
     RDKit          3D

 12 11  0  0  0  0  0  0  0  0999 V2000
   -0.7010   -0.2061   -0.0058 C   0  0  0  0  0  0  0  0  0  0  0  0
   -1.0263   -1.2416   -0.5237 O   0  0  0  0  0  0  0  0  0  0  0  0
    1.2144    1.3273   -0.4831 C   0  0  0  0  0  0  0  0  0  0  0  0
    1.4932   -0.9895    0.2160 O   0  0  0  0  0  0  0  0  0  0  0  0
    0.7165    0.1656    0.3757 C   0  0  2  0  0  0  0  0  0  0  0  0
   -1.5491    0.7690    0.2957 O   0  0  0  0  0  0  0  0  0  0  0  0
    2.2414    1.5716   -0.2091 H   0  0  0  0  0  0  0  0  0  0  0  0
    1.1965    1.0691   -1.5426 H   0  0  0  0  0  0  0  0  0  0  0  0
    0.6142    2.2234   -0.3342 H   0  0  0  0  0  0  0  0  0  0  0  0
    2.3915   -0.7775    0.4880 H   0  0  0  0  0  0  0  0  0  0  0  0
    0.6967    0.4951    1.4241 H   0  0  0  0  0  0  0  0  0  0  0  0
   -2.4463    0.5258    0.0223 H   0  0  0  0  0  0  0  0  0  0  0  0
  1  2  2  0
  1  5  1  0
  3  5  1  0
  3  7  1  0
  3  8  1  0
  3  9  1  0
  4  5  1  0
  1  6  1  0
  4 10  1  0
  5 11  1  1
  6 12  1  0
M  END
