
     RDKit          3D

 20 20  0  0  0  0  0  0  0  0999 V2000
   -2.5040   -0.4868   -1.7514 O   0  0  0  0  0  0  0  0  0  0  0  0
   -1.1005   -0.4868   -1.7514 C   0  0  0  0  0  0  0  0  0  0  0  0
   -0.6063   -0.4868   -0.3541 C   0  0  2  0  0  0  0  0  0  0  0  0
   -1.0653    0.8973    0.4100 O   0  0  0  0  0  0  0  0  0  0  0  0
    0.7254   -0.4840   -0.3384 C   0  0  2  0  0  0  0  0  0  0  0  0
    1.2339   -1.8643   -0.2087 O   0  0  0  0  0  0  0  0  0  0  0  0
    1.1217    0.3475    0.9050 C   0  0  2  0  0  0  0  0  0  0  0  0
    1.5840   -0.4516    1.8644 O   0  0  0  0  0  0  0  0  0  0  0  0
   -0.2118    1.0629    1.3831 C   0  0  1  0  0  0  0  0  0  0  0  0
    0.0217    2.4288    1.5934 O   0  0  0  0  0  0  0  0  0  0  0  0
   -2.8184   -0.5220   -2.6396 H   0  0  0  0  0  0  0  0  0  0  0  0
   -0.7395    0.3977   -2.2622 H   0  0  0  0  0  0  0  0  0  0  0  0
   -0.7395   -1.3713   -2.2621 H   0  0  0  0  0  0  0  0  0  0  0  0
   -0.9829   -1.3498    0.1816 H   0  0  0  0  0  0  0  0  0  0  0  0
    1.1095   -0.0183   -1.2379 H   0  0  0  0  0  0  0  0  0  0  0  0
    1.9680   -1.9846   -0.7881 H   0  0  0  0  0  0  0  0  0  0  0  0
    1.8654    1.0878    0.6361 H   0  0  0  0  0  0  0  0  0  0  0  0
    2.3891   -0.0993    2.2061 H   0  0  0  0  0  0  0  0  0  0  0  0
   -0.5821    0.5961    2.2879 H   0  0  0  0  0  0  0  0  0  0  0  0
   -0.6686    2.7873    2.1263 H   0  0  0  0  0  0  0  0  0  0  0  0
 10  9  1  0
  2  1  1  0
  2  3  1  0
  5  6  1  0
  5  7  1  0
  5  3  1  0
  7  9  1  0
  7  8  1  0
  9  4  1  0
  3  4  1  0
  1 11  1  0
  2 12  1  0
  2 13  1  0
  3 14  1  1
  5 15  1  6
  6 16  1  0
  7 17  1  6
  8 18  1  0
  9 19  1  1
 10 20  1  0
M  END
