
     RDKit          3D

 55 59  0  0  0  0  0  0  0  0999 V2000
   -8.6467   -0.7982    0.1674 C   0  0  0  0  0  0  0  0  0  0  0  0
   -7.6285   -0.6558   -0.7665 C   0  0  0  0  0  0  0  0  0  0  0  0
   -6.2946   -0.7775   -0.3895 C   0  0  0  0  0  0  0  0  0  0  0  0
   -4.1273    1.4218   -0.7086 C   0  0  0  0  0  0  0  0  0  0  0  0
   -3.2451    1.9265    0.4256 C   0  0  0  0  0  0  0  0  0  0  0  0
   -1.9008    1.3396    0.2218 C   0  0  0  0  0  0  0  0  0  0  0  0
   -1.6996    0.1449   -0.4385 C   0  0  0  0  0  0  0  0  0  0  0  0
   -0.3175   -0.1371   -0.4006 C   0  0  0  0  0  0  0  0  0  0  0  0
    0.2823    0.9017    0.2754 C   0  0  0  0  0  0  0  0  0  0  0  0
    1.6853    1.1109    0.5782 C   0  0  0  0  0  0  0  0  0  0  0  0
    2.1509    2.2360    1.2655 C   0  0  0  0  0  0  0  0  0  0  0  0
    3.5144    2.2948    1.4782 C   0  0  0  0  0  0  0  0  0  0  0  0
    3.8192    0.3213    0.4313 C   0  0  0  0  0  0  0  0  0  0  0  0
    8.2516    0.0843   -0.8755 C   0  0  0  0  0  0  0  0  0  0  0  0
    8.1470   -2.0355    0.1069 C   0  0  0  0  0  0  0  0  0  0  0  0
    6.6263   -2.0643    0.0686 C   0  0  0  0  0  0  0  0  0  0  0  0
   -2.8102   -0.6504   -0.9564 C   0  0  0  0  0  0  0  0  0  0  0  0
   -2.6628   -1.8027   -1.3481 O   0  0  0  0  0  0  0  0  0  0  0  0
   -4.0163   -0.0184   -0.9253 N   0  0  0  0  0  0  0  0  0  0  0  0
   -5.2043   -0.6708   -1.4284 C   0  0  0  0  0  0  0  0  0  0  0  0
   -5.9956   -1.0327    0.9465 C   0  0  0  0  0  0  0  0  0  0  0  0
   -7.0108   -1.1698    1.8832 C   0  0  0  0  0  0  0  0  0  0  0  0
   -8.3403   -1.0558    1.4967 C   0  0  0  0  0  0  0  0  0  0  0  0
   -0.7102    1.7844    0.6476 N   0  0  0  0  0  0  0  0  0  0  0  0
    2.5192    0.1637    0.1652 N   0  0  0  0  0  0  0  0  0  0  0  0
    4.3625    1.3628    1.0736 N   0  0  0  0  0  0  0  0  0  0  0  0
    4.6356   -0.6694    0.0252 N   0  0  0  0  0  0  0  0  0  0  0  0
    6.0768   -0.6434    0.1232 C   0  0  2  0  0  0  0  0  0  0  0  0
    8.6905   -1.2560   -0.9351 O   0  0  0  0  0  0  0  0  0  0  0  0
    6.7373    0.1930   -0.9729 C   0  0  0  0  0  0  0  0  0  0  0  0
   -9.6791   -0.6992   -0.1428 H   0  0  0  0  0  0  0  0  0  0  0  0
   -7.8751   -0.4432   -1.8004 H   0  0  0  0  0  0  0  0  0  0  0  0
   -5.1688    1.6450   -0.4819 H   0  0  0  0  0  0  0  0  0  0  0  0
   -3.8741    1.9531   -1.6324 H   0  0  0  0  0  0  0  0  0  0  0  0
   -3.2290    3.0170    0.4116 H   0  0  0  0  0  0  0  0  0  0  0  0
   -3.6495    1.6207    1.3958 H   0  0  0  0  0  0  0  0  0  0  0  0
    0.1902   -0.9896   -0.8213 H   0  0  0  0  0  0  0  0  0  0  0  0
    1.5104    3.0305    1.6180 H   0  0  0  0  0  0  0  0  0  0  0  0
    3.9449    3.1429    2.0002 H   0  0  0  0  0  0  0  0  0  0  0  0
    8.7289    0.6135   -1.7017 H   0  0  0  0  0  0  0  0  0  0  0  0
    8.4784   -1.6520    1.0833 H   0  0  0  0  0  0  0  0  0  0  0  0
    8.5500   -3.0436   -0.0028 H   0  0  0  0  0  0  0  0  0  0  0  0
    6.2910   -2.5569   -0.8506 H   0  0  0  0  0  0  0  0  0  0  0  0
    6.2538   -2.6524    0.9106 H   0  0  0  0  0  0  0  0  0  0  0  0
   -4.9289   -1.6648   -1.7792 H   0  0  0  0  0  0  0  0  0  0  0  0
   -5.5799   -0.1255   -2.3006 H   0  0  0  0  0  0  0  0  0  0  0  0
   -4.9630   -1.1203    1.2622 H   0  0  0  0  0  0  0  0  0  0  0  0
   -6.7624   -1.3657    2.9185 H   0  0  0  0  0  0  0  0  0  0  0  0
   -9.1313   -1.1613    2.2278 H   0  0  0  0  0  0  0  0  0  0  0  0
   -0.5754    2.6369    1.1683 H   0  0  0  0  0  0  0  0  0  0  0  0
    4.2088   -1.3927   -0.5316 H   0  0  0  0  0  0  0  0  0  0  0  0
    6.3398   -0.2100    1.0926 H   0  0  0  0  0  0  0  0  0  0  0  0
    6.4429    1.2409   -0.8814 H   0  0  0  0  0  0  0  0  0  0  0  0
    6.4002   -0.1606   -1.9522 H   0  0  0  0  0  0  0  0  0  0  0  0
    8.5950    0.5553    0.0580 H   0  0  0  0  0  0  0  0  0  0  0  0
 23  1  2  0
 23 22  1  0
  1  2  1  0
 22 21  2  0
  2  3  2  0
 21  3  1  0
  3 20  1  0
 18 17  2  0
 20 19  1  0
 17 19  1  0
 17  7  1  0
 19  4  1  0
  8  7  1  0
  8  9  2  0
  7  6  2  0
 11 12  2  0
 11 10  1  0
  9 10  1  0
  9 24  1  0
 12 26  1  0
  6  5  1  0
  6 24  1  0
 10 25  2  0
  4  5  1  0
 26 13  2  0
 25 13  1  0
 13 27  1  0
 27 28  1  0
 28 16  1  0
 28 30  1  0
 16 15  1  0
 15 29  1  0
 30 14  1  0
 14 29  1  0
  1 31  1  0
  2 32  1  0
  4 33  1  0
  4 34  1  0
  5 35  1  0
  5 36  1  0
  8 37  1  0
 11 38  1  0
 12 39  1  0
 14 55  1  0
 14 40  1  0
 15 41  1  0
 15 42  1  0
 16 43  1  0
 16 44  1  0
 20 45  1  0
 20 46  1  0
 21 47  1  0
 22 48  1  0
 23 49  1  0
 24 50  1  0
 27 51  1  0
 28 52  1  1
 30 53  1  0
 30 54  1  0
M  END
