
     RDKit          3D

 98103  0  0  0  0  0  0  0  0999 V2000
   -2.7937    0.7853    0.2858 C   0  0  0  0  0  0  0  0  0  0  0  0
   -3.0201    2.2621    0.3806 C   0  0  0  0  0  0  0  0  0  0  0  0
   -2.9952    0.0405    1.2285 O   0  0  0  0  0  0  0  0  0  0  0  0
   -3.2902    5.0340    0.6654 C   0  0  0  0  0  0  0  0  0  0  0  0
   -2.0312    4.4771    0.3517 C   0  0  0  0  0  0  0  0  0  0  0  0
   -1.9174    3.1076    0.2099 C   0  0  0  0  0  0  0  0  0  0  0  0
   -4.5559    6.9914    1.0801 C   0  0  0  0  0  0  0  0  0  0  0  0
    0.2484    4.8505   -0.1504 C   0  0  0  0  0  0  0  0  0  0  0  0
   -4.2308   -1.2580   -2.2055 C   0  0  0  0  0  0  0  0  0  0  0  0
   -4.9119   -2.0519   -1.2892 C   0  0  0  0  0  0  0  0  0  0  0  0
   -6.2714   -0.0454   -2.6189 C   0  0  0  0  0  0  0  0  0  0  0  0
   -2.7588   -1.4591   -2.4298 C   0  0  0  0  0  0  0  0  0  0  0  0
   -1.9328   -0.9625   -1.2378 C   0  0  1  0  0  0  0  0  0  0  0  0
   -0.4219   -1.0413   -1.5100 C   0  0  2  0  0  0  0  0  0  0  0  0
   -8.1707   -2.8940   -0.1253 C   0  0  0  0  0  0  0  0  0  0  0  0
  -10.8697   -3.5368   -0.1046 C   0  0  0  0  0  0  0  0  0  0  0  0
    0.3513   -0.8464   -0.2004 C   0  0  0  0  0  0  0  0  0  0  0  0
   -4.9234   -0.2527   -2.8730 C   0  0  0  0  0  0  0  0  0  0  0  0
    2.6079   -1.7967   -0.5413 C   0  0  0  0  0  0  0  0  0  0  0  0
    3.1020   -2.3358    0.8053 C   0  0  0  0  0  0  0  0  0  0  0  0
   -2.2951    0.3969   -0.9019 N   0  0  0  0  0  0  0  0  0  0  0  0
   -4.2434    2.8228    0.6867 C   0  0  0  0  0  0  0  0  0  0  0  0
   -4.3868    4.2025    0.8209 C   0  0  0  0  0  0  0  0  0  0  0  0
   -5.7827    1.7451    0.8521 Br  0  0  0  0  0  0  0  0  0  0  0  0
   -3.3206    6.3669    0.7850 O   0  0  0  0  0  0  0  0  0  0  0  0
   -1.0244    5.3515    0.2149 O   0  0  0  0  0  0  0  0  0  0  0  0
   -6.2581   -1.8332   -1.0347 C   0  0  0  0  0  0  0  0  0  0  0  0
   -6.9510   -0.8272   -1.6980 C   0  0  0  0  0  0  0  0  0  0  0  0
   -6.8321   -2.6173   -0.0742 O   0  0  0  0  0  0  0  0  0  0  0  0
   -8.7626   -3.4128   -1.2715 C   0  0  0  0  0  0  0  0  0  0  0  0
  -10.1134   -3.7278   -1.2547 C   0  0  0  0  0  0  0  0  0  0  0  0
  -10.2643   -3.0269    1.0356 C   0  0  0  0  0  0  0  0  0  0  0  0
   -8.9151   -2.6974    1.0287 C   0  0  0  0  0  0  0  0  0  0  0  0
   -0.0312   -0.1331   -2.5106 O   0  0  0  0  0  0  0  0  0  0  0  0
    1.7686   -0.6213   -0.4004 N   0  0  0  0  0  0  0  0  0  0  0  0
    3.9333   -3.5700    0.6162 C   0  0  0  0  0  0  0  0  0  0  0  0
    5.3054   -3.5401    0.3798 C   0  0  0  0  0  0  0  0  0  0  0  0
    6.0507   -4.6924    0.1783 C   0  0  0  0  0  0  0  0  0  0  0  0
    5.4012   -5.9145    0.2051 C   0  0  0  0  0  0  0  0  0  0  0  0
    4.0365   -5.9946    0.4288 C   0  0  0  0  0  0  0  0  0  0  0  0
    3.3256   -4.8237    0.6300 C   0  0  0  0  0  0  0  0  0  0  0  0
    6.1505   -2.0250    0.3378 Cl  0  0  0  0  0  0  0  0  0  0  0  0
    6.3175   -7.3607   -0.0435 Cl  0  0  0  0  0  0  0  0  0  0  0  0
    2.2206    0.6434   -0.5242 C   0  0  0  0  0  0  0  0  0  0  0  0
    1.4643    1.6108   -0.5106 O   0  0  0  0  0  0  0  0  0  0  0  0
    3.7118    0.8404   -0.6854 C   0  0  0  0  0  0  0  0  0  0  0  0
    4.1375    2.2539   -0.3074 C   0  0  0  0  0  0  0  0  0  0  0  0
    5.5647    2.4238   -0.4813 N   0  0  0  0  0  0  0  0  0  0  0  0
    6.5083    1.9868    0.4363 C   0  0  0  0  0  0  0  0  0  0  0  0
    6.1533    2.9797   -1.6072 C   0  0  0  0  0  0  0  0  0  0  0  0
    7.6159    2.9148   -1.3773 C   0  0  0  0  0  0  0  0  0  0  0  0
    7.8298    2.3166   -0.1463 C   0  0  0  0  0  0  0  0  0  0  0  0
    9.0995    2.1116    0.3489 C   0  0  0  0  0  0  0  0  0  0  0  0
   10.1663    2.5334   -0.4430 C   0  0  0  0  0  0  0  0  0  0  0  0
    9.9517    3.1335   -1.6804 C   0  0  0  0  0  0  0  0  0  0  0  0
    8.6620    3.3354   -2.1698 C   0  0  0  0  0  0  0  0  0  0  0  0
    5.5616    3.4174   -2.5611 O   0  0  0  0  0  0  0  0  0  0  0  0
    6.2606    1.4472    1.4848 O   0  0  0  0  0  0  0  0  0  0  0  0
   -0.9564    2.6627   -0.0188 H   0  0  0  0  0  0  0  0  0  0  0  0
   -5.3009    6.8047    0.3028 H   0  0  0  0  0  0  0  0  0  0  0  0
   -4.9581    6.6643    2.0422 H   0  0  0  0  0  0  0  0  0  0  0  0
   -4.3562    8.0585    1.1270 H   0  0  0  0  0  0  0  0  0  0  0  0
    0.9024    5.7134   -0.2438 H   0  0  0  0  0  0  0  0  0  0  0  0
    0.6556    4.1763    0.6067 H   0  0  0  0  0  0  0  0  0  0  0  0
    0.2178    4.3236   -1.1073 H   0  0  0  0  0  0  0  0  0  0  0  0
   -4.3928   -2.8442   -0.7609 H   0  0  0  0  0  0  0  0  0  0  0  0
   -6.8036    0.7428   -3.1355 H   0  0  0  0  0  0  0  0  0  0  0  0
   -2.5328   -2.5176   -2.5811 H   0  0  0  0  0  0  0  0  0  0  0  0
   -2.4449   -0.9363   -3.3365 H   0  0  0  0  0  0  0  0  0  0  0  0
   -2.1628   -1.5848   -0.3711 H   0  0  0  0  0  0  0  0  0  0  0  0
   -0.2039   -2.0390   -1.9057 H   0  0  0  0  0  0  0  0  0  0  0  0
  -11.9223   -3.7862   -0.0973 H   0  0  0  0  0  0  0  0  0  0  0  0
   -0.0558   -0.0096    0.3657 H   0  0  0  0  0  0  0  0  0  0  0  0
    0.2247   -1.7355    0.4203 H   0  0  0  0  0  0  0  0  0  0  0  0
   -4.4070    0.3720   -3.5921 H   0  0  0  0  0  0  0  0  0  0  0  0
    3.4439   -1.5868   -1.2078 H   0  0  0  0  0  0  0  0  0  0  0  0
    2.0217   -2.5686   -1.0438 H   0  0  0  0  0  0  0  0  0  0  0  0
    3.6620   -1.5644    1.3361 H   0  0  0  0  0  0  0  0  0  0  0  0
    2.2426   -2.5824    1.4325 H   0  0  0  0  0  0  0  0  0  0  0  0
   -2.3024    1.0727   -1.6506 H   0  0  0  0  0  0  0  0  0  0  0  0
   -5.3593    4.6179    1.0459 H   0  0  0  0  0  0  0  0  0  0  0  0
   -7.9985   -0.6428   -1.4983 H   0  0  0  0  0  0  0  0  0  0  0  0
   -8.1774   -3.5717   -2.1688 H   0  0  0  0  0  0  0  0  0  0  0  0
  -10.5742   -4.1305   -2.1471 H   0  0  0  0  0  0  0  0  0  0  0  0
  -10.8441   -2.8750    1.9368 H   0  0  0  0  0  0  0  0  0  0  0  0
   -8.4407   -2.2953    1.9148 H   0  0  0  0  0  0  0  0  0  0  0  0
    0.0544    0.7448   -2.1199 H   0  0  0  0  0  0  0  0  0  0  0  0
    7.1163   -4.6345    0.0056 H   0  0  0  0  0  0  0  0  0  0  0  0
    3.5332   -6.9511    0.4521 H   0  0  0  0  0  0  0  0  0  0  0  0
    2.2589   -4.8840    0.8078 H   0  0  0  0  0  0  0  0  0  0  0  0
    4.2696    0.1244   -0.0826 H   0  0  0  0  0  0  0  0  0  0  0  0
    3.9770    0.6398   -1.7288 H   0  0  0  0  0  0  0  0  0  0  0  0
    3.6337    2.9982   -0.9190 H   0  0  0  0  0  0  0  0  0  0  0  0
    3.8916    2.4679    0.7320 H   0  0  0  0  0  0  0  0  0  0  0  0
    9.2687    1.6446    1.3098 H   0  0  0  0  0  0  0  0  0  0  0  0
   11.1792    2.3922   -0.0913 H   0  0  0  0  0  0  0  0  0  0  0  0
   10.8018    3.4475   -2.2711 H   0  0  0  0  0  0  0  0  0  0  0  0
    8.4950    3.8033   -3.1308 H   0  0  0  0  0  0  0  0  0  0  0  0
 20 36  1  0
 20 19  1  0
 25  7  1  0
 25  4  1  0
 41 36  1  0
 41 40  2  0
 36 37  2  0
 40 39  1  0
 37 42  1  0
 37 38  1  0
 19 35  1  0
 23  4  2  0
 23 22  1  0
  4  5  1  0
 39 38  2  0
 39 43  1  0
 24 22  1  0
 22  2  2  0
  5 26  1  0
  5  6  2  0
 26  8  1  0
 35 17  1  0
 35 44  1  0
 17 14  1  0
 34 14  1  0
  2  6  1  0
  2  1  1  0
 14 13  1  0
 21  1  1  0
 21 13  1  0
 44 46  1  0
 44 45  2  0
  1  3  2  0
 46 47  1  0
 13 12  1  0
 58 49  2  0
 53 52  2  0
 53 54  1  0
 49 52  1  0
 49 48  1  0
 52 51  1  0
 54 55  2  0
 48 47  1  0
 48 50  1  0
 12  9  1  0
 51 50  1  0
 51 56  2  0
 55 56  1  0
 50 57  2  0
 10  9  2  0
 10 27  1  0
  9 18  1  0
 30 31  1  0
 30 15  2  0
 29 27  1  0
 29 15  1  0
 31 16  2  0
 27 28  2  0
 15 33  1  0
 18 11  2  0
 16 32  1  0
 33 32  2  0
 28 11  1  0
  6 59  1  0
  7 60  1  0
  7 61  1  0
  7 62  1  0
  8 63  1  0
  8 64  1  0
  8 65  1  0
 10 66  1  0
 11 67  1  0
 12 68  1  0
 12 69  1  0
 13 70  1  1
 14 71  1  6
 16 72  1  0
 17 73  1  0
 17 74  1  0
 18 75  1  0
 19 76  1  0
 19 77  1  0
 20 78  1  0
 20 79  1  0
 21 80  1  0
 23 81  1  0
 28 82  1  0
 30 83  1  0
 31 84  1  0
 32 85  1  0
 33 86  1  0
 34 87  1  0
 38 88  1  0
 40 89  1  0
 41 90  1  0
 46 91  1  0
 46 92  1  0
 47 93  1  0
 47 94  1  0
 53 95  1  0
 54 96  1  0
 55 97  1  0
 56 98  1  0
M  END
