
     RDKit          3D

 18 19  0  0  0  0  0  0  0  0999 V2000
    1.7511   -1.3037   -0.0135 C   0  0  0  0  0  0  0  0  0  0  0  0
    2.7374   -0.3433   -0.0200 C   0  0  0  0  0  0  0  0  0  0  0  0
    2.4050    1.0164   -0.0126 C   0  0  0  0  0  0  0  0  0  0  0  0
    1.0820    1.3986    0.0011 C   0  0  0  0  0  0  0  0  0  0  0  0
    0.0678    0.4344    0.0081 C   0  0  0  0  0  0  0  0  0  0  0  0
    0.3958   -0.9349    0.0009 C   0  0  0  0  0  0  0  0  0  0  0  0
   -0.6573   -1.9072    0.0082 C   0  0  0  0  0  0  0  0  0  0  0  0
   -1.9340   -1.4853    0.0217 C   0  0  0  0  0  0  0  0  0  0  0  0
   -2.2434   -0.1541    0.0292 N   0  0  0  0  0  0  0  0  0  0  0  0
   -1.3317    0.8668    0.0239 C   0  0  0  0  0  0  0  0  0  0  0  0
   -1.6927    2.0371    0.0317 O   0  0  0  0  0  0  0  0  0  0  0  0
    2.0121   -2.3548   -0.0192 H   0  0  0  0  0  0  0  0  0  0  0  0
    3.7781   -0.6404   -0.0310 H   0  0  0  0  0  0  0  0  0  0  0  0
    3.1864    1.7640   -0.0175 H   0  0  0  0  0  0  0  0  0  0  0  0
    0.8196    2.4482    0.0069 H   0  0  0  0  0  0  0  0  0  0  0  0
   -0.4343   -2.9643    0.0019 H   0  0  0  0  0  0  0  0  0  0  0  0
   -2.7785   -2.1579    0.0265 H   0  0  0  0  0  0  0  0  0  0  0  0
   -3.2191    0.1090    0.0395 H   0  0  0  0  0  0  0  0  0  0  0  0
 11 10  2  0
 10  9  1  0
 10  5  1  0
  9  8  1  0
  4  5  2  0
  4  3  1  0
  5  6  1  0
  3  2  2  0
  8  7  2  0
  6  7  1  0
  6  1  2  0
  2  1  1  0
  1 12  1  0
  2 13  1  0
  3 14  1  0
  4 15  1  0
  7 16  1  0
  8 17  1  0
  9 18  1  0
M  END
