
     RDKit          3D

 22 23  0  0  0  0  0  0  0  0999 V2000
   -3.8388    0.3506    0.4295 O   0  0  0  0  0  0  0  0  0  0  0  0
   -2.7371   -0.5164    0.0388 S   0  0  1  0  0  0  0  0  0  0  0  0
   -2.4911   -1.7236    0.8124 O   0  0  0  0  0  0  0  0  0  0  0  0
   -2.8172   -0.9946   -1.5371 N   0  0  0  0  0  0  0  0  0  0  0  0
   -1.2639    0.4734    0.0160 C   0  0  0  0  0  0  0  0  0  0  0  0
   -1.3613    1.8560    0.0479 C   0  0  0  0  0  0  0  0  0  0  0  0
   -0.1951    2.6075    0.0373 C   0  0  0  0  0  0  0  0  0  0  0  0
    1.0396    1.9833    0.0030 C   0  0  0  0  0  0  0  0  0  0  0  0
    1.1257    0.5917   -0.0224 C   0  0  0  0  0  0  0  0  0  0  0  0
   -0.0379   -0.1696   -0.0173 C   0  0  0  0  0  0  0  0  0  0  0  0
    2.4110   -0.0940   -0.0491 C   0  0  0  0  0  0  0  0  0  0  0  0
    3.6213    0.4697   -0.0119 N   0  0  0  0  0  0  0  0  0  0  0  0
    4.5403   -0.4778   -0.0517 N   0  0  0  0  0  0  0  0  0  0  0  0
    3.9132   -1.5856   -0.1110 N   0  0  0  0  0  0  0  0  0  0  0  0
    2.5979   -1.3932   -0.1118 N   0  0  0  0  0  0  0  0  0  0  0  0
   -3.1449   -0.2604   -2.1566 H   0  0  0  0  0  0  0  0  0  0  0  0
   -3.3853   -1.8298   -1.6457 H   0  0  0  0  0  0  0  0  0  0  0  0
   -2.3227    2.3490    0.0824 H   0  0  0  0  0  0  0  0  0  0  0  0
    0.0242   -1.2496   -0.0359 H   0  0  0  0  0  0  0  0  0  0  0  0
   -0.2512    3.6865    0.0590 H   0  0  0  0  0  0  0  0  0  0  0  0
    1.9298    2.5980   -0.0026 H   0  0  0  0  0  0  0  0  0  0  0  0
    3.8960    1.4409    0.0417 H   0  0  0  0  0  0  0  0  0  0  0  0
  1  2  2  0
  2  3  2  0
  2  4  1  6
  2  5  1  0
  5  6  2  0
  5 10  1  0
  6  7  1  0
  7  8  2  0
  8  9  1  0
  9 10  2  0
  9 11  1  0
 11 12  1  0
 11 15  2  0
 12 13  1  0
 13 14  2  0
 14 15  1  0
  4 16  1  0
  4 17  1  0
  6 18  1  0
 10 19  1  0
  7 20  1  0
  8 21  1  0
 12 22  1  0
M  END
