
     RDKit          3D

 55 54  0  0  0  0  0  0  0  0999 V2000
  -10.7753   -0.3693    0.0815 O   0  0  0  0  0  0  0  0  0  0  0  0
   -9.6954    0.4075    0.0409 C   0  0  0  0  0  0  0  0  0  0  0  0
   -9.7569    1.6117    0.0137 O   0  0  0  0  0  0  0  0  0  0  0  0
   -8.4270   -0.3992    0.0325 C   0  0  0  0  0  0  0  0  0  0  0  0
   -7.1608    0.4411    0.0211 C   0  0  0  0  0  0  0  0  0  0  0  0
   -5.9069   -0.4249    0.0141 C   0  0  0  0  0  0  0  0  0  0  0  0
   -4.6227    0.3944    0.0081 C   0  0  0  0  0  0  0  0  0  0  0  0
   -3.3649   -0.4654   -0.0010 C   0  0  0  0  0  0  0  0  0  0  0  0
   -2.0796    0.3524    0.0000 C   0  0  0  0  0  0  0  0  0  0  0  0
   -0.8254   -0.5137   -0.0132 C   0  0  0  0  0  0  0  0  0  0  0  0
    0.4448    0.3207    0.0048 C   0  0  0  0  0  0  0  0  0  0  0  0
    1.7325   -0.4657   -0.0228 C   0  0  0  0  0  0  0  0  0  0  0  0
    1.7482   -1.6765   -0.0336 O   0  0  0  0  0  0  0  0  0  0  0  0
    2.9992    0.3547   -0.0350 C   0  0  0  0  0  0  0  0  0  0  0  0
    4.2900   -0.4464   -0.0132 C   0  0  0  0  0  0  0  0  0  0  0  0
    5.5227    0.4503   -0.0208 C   0  0  0  0  0  0  0  0  0  0  0  0
    6.8267   -0.3372   -0.0025 C   0  0  0  0  0  0  0  0  0  0  0  0
    8.0667    0.5486   -0.0049 C   0  0  0  0  0  0  0  0  0  0  0  0
    9.3674   -0.2444    0.0093 C   0  0  0  0  0  0  0  0  0  0  0  0
   10.6133    0.6336    0.0095 C   0  0  0  0  0  0  0  0  0  0  0  0
   11.9027   -0.1760    0.0269 C   0  0  0  0  0  0  0  0  0  0  0  0
  -11.5751    0.1773    0.0852 H   0  0  0  0  0  0  0  0  0  0  0  0
   -8.4401   -1.0633    0.9029 H   0  0  0  0  0  0  0  0  0  0  0  0
   -8.4548   -1.0629   -0.8383 H   0  0  0  0  0  0  0  0  0  0  0  0
   -7.1555    1.0936   -0.8562 H   0  0  0  0  0  0  0  0  0  0  0  0
   -7.1426    1.0973    0.8956 H   0  0  0  0  0  0  0  0  0  0  0  0
   -5.9129   -1.0844    0.8891 H   0  0  0  0  0  0  0  0  0  0  0  0
   -5.9223   -1.0830   -0.8618 H   0  0  0  0  0  0  0  0  0  0  0  0
   -4.6170    1.0550   -0.8661 H   0  0  0  0  0  0  0  0  0  0  0  0
   -4.6071    1.0512    0.8851 H   0  0  0  0  0  0  0  0  0  0  0  0
   -3.3728   -1.1291    0.8709 H   0  0  0  0  0  0  0  0  0  0  0  0
   -3.3790   -1.1196   -0.8802 H   0  0  0  0  0  0  0  0  0  0  0  0
   -2.0719    1.0191   -0.8698 H   0  0  0  0  0  0  0  0  0  0  0  0
   -2.0646    1.0039    0.8810 H   0  0  0  0  0  0  0  0  0  0  0  0
   -0.8405   -1.1847    0.8503 H   0  0  0  0  0  0  0  0  0  0  0  0
   -0.8372   -1.1538   -0.9001 H   0  0  0  0  0  0  0  0  0  0  0  0
    0.4603    1.0180   -0.8410 H   0  0  0  0  0  0  0  0  0  0  0  0
    0.4690    0.9624    0.8936 H   0  0  0  0  0  0  0  0  0  0  0  0
    2.9633    1.0021   -0.9195 H   0  0  0  0  0  0  0  0  0  0  0  0
    2.9589    1.0450    0.8157 H   0  0  0  0  0  0  0  0  0  0  0  0
    4.3148   -1.0862    0.8735 H   0  0  0  0  0  0  0  0  0  0  0  0
    4.3259   -1.1168   -0.8765 H   0  0  0  0  0  0  0  0  0  0  0  0
    5.5003    1.0958   -0.9060 H   0  0  0  0  0  0  0  0  0  0  0  0
    5.4911    1.1216    0.8446 H   0  0  0  0  0  0  0  0  0  0  0  0
    6.8466   -0.9854    0.8809 H   0  0  0  0  0  0  0  0  0  0  0  0
    6.8581   -1.0067   -0.8694 H   0  0  0  0  0  0  0  0  0  0  0  0
    8.0466    1.1992   -0.8866 H   0  0  0  0  0  0  0  0  0  0  0  0
    8.0380    1.2157    0.8641 H   0  0  0  0  0  0  0  0  0  0  0  0
    9.3854   -0.8966    0.8902 H   0  0  0  0  0  0  0  0  0  0  0  0
    9.3962   -0.9112   -0.8602 H   0  0  0  0  0  0  0  0  0  0  0  0
   10.5981    1.2834   -0.8711 H   0  0  0  0  0  0  0  0  0  0  0  0
   10.5854    1.2996    0.8776 H   0  0  0  0  0  0  0  0  0  0  0  0
   11.9570   -0.8080    0.9156 H   0  0  0  0  0  0  0  0  0  0  0  0
   11.9679   -0.8296   -0.8453 H   0  0  0  0  0  0  0  0  0  0  0  0
   12.7841    0.4663    0.0244 H   0  0  0  0  0  0  0  0  0  0  0  0
 19 18  1  0
 19 20  1  0
 21 20  1  0
 18 17  1  0
 17 16  1  0
 16 15  1  0
 15 14  1  0
 13 12  2  0
 14 12  1  0
 12 11  1  0
 11 10  1  0
 10  9  1  0
  8  9  1  0
  8  7  1  0
  6  7  1  0
  6  5  1  0
  5  4  1  0
  4  2  1  0
  3  2  2  0
  2  1  1  0
  1 22  1  0
  4 23  1  0
  4 24  1  0
  5 25  1  0
  5 26  1  0
  6 27  1  0
  6 28  1  0
  7 29  1  0
  7 30  1  0
  8 31  1  0
  8 32  1  0
  9 33  1  0
  9 34  1  0
 10 35  1  0
 10 36  1  0
 11 37  1  0
 11 38  1  0
 14 39  1  0
 14 40  1  0
 15 41  1  0
 15 42  1  0
 16 43  1  0
 16 44  1  0
 17 45  1  0
 17 46  1  0
 18 47  1  0
 18 48  1  0
 19 49  1  0
 19 50  1  0
 20 51  1  0
 20 52  1  0
 21 53  1  0
 21 54  1  0
 21 55  1  0
M  END
