
     RDKit          3D

 36 38  0  0  0  0  0  0  0  0999 V2000
   -3.5718    0.5435    1.3811 I   0  0  0  0  0  0  0  0  0  0  0  0
    0.2611   -0.4029   -0.4299 N   0  0  0  0  0  0  0  0  0  0  0  0
   -1.4605    0.9090   -1.1512 O   0  0  0  0  0  0  0  0  0  0  0  0
   -3.0925   -1.2126    0.3210 C   0  0  0  0  0  0  0  0  0  0  0  0
   -1.9437   -1.3093   -0.4615 C   0  0  0  0  0  0  0  0  0  0  0  0
   -1.6662   -2.5209   -1.0929 C   0  0  0  0  0  0  0  0  0  0  0  0
   -2.5152   -3.6080   -0.9576 C   0  0  0  0  0  0  0  0  0  0  0  0
   -3.6510   -3.4964   -0.1715 C   0  0  0  0  0  0  0  0  0  0  0  0
   -3.9387   -2.3016    0.4750 C   0  0  0  0  0  0  0  0  0  0  0  0
   -1.0367   -0.1430   -0.7143 C   0  0  0  0  0  0  0  0  0  0  0  0
    1.3850    0.4146   -0.5980 C   0  0  0  0  0  0  0  0  0  0  0  0
    2.6019   -0.1149   -0.1670 C   0  0  0  0  0  0  0  0  0  0  0  0
    3.7893    0.5977   -0.2922 C   0  0  0  0  0  0  0  0  0  0  0  0
    3.7491    1.8703   -0.8645 C   0  0  0  0  0  0  0  0  0  0  0  0
    2.5424    2.3958   -1.2929 C   0  0  0  0  0  0  0  0  0  0  0  0
    1.3552    1.6869   -1.1686 C   0  0  0  0  0  0  0  0  0  0  0  0
    5.0649    0.0132    0.1705 C   0  0  0  0  0  0  0  0  0  0  0  0
    6.2480    0.2368   -0.5360 C   0  0  0  0  0  0  0  0  0  0  0  0
    7.4465   -0.3138   -0.1062 C   0  0  0  0  0  0  0  0  0  0  0  0
    7.4851   -1.0985    1.0389 C   0  0  0  0  0  0  0  0  0  0  0  0
    6.3150   -1.3266    1.7513 C   0  0  0  0  0  0  0  0  0  0  0  0
    5.1169   -0.7754    1.3213 C   0  0  0  0  0  0  0  0  0  0  0  0
    0.4509   -1.3010   -0.0100 H   0  0  0  0  0  0  0  0  0  0  0  0
   -0.7832   -2.6076   -1.7142 H   0  0  0  0  0  0  0  0  0  0  0  0
   -2.2880   -4.5356   -1.4651 H   0  0  0  0  0  0  0  0  0  0  0  0
   -4.3196   -4.3382   -0.0513 H   0  0  0  0  0  0  0  0  0  0  0  0
   -4.8212   -2.2318    1.0960 H   0  0  0  0  0  0  0  0  0  0  0  0
    2.6207   -1.1133    0.2558 H   0  0  0  0  0  0  0  0  0  0  0  0
    4.6544    2.4561   -0.9556 H   0  0  0  0  0  0  0  0  0  0  0  0
    2.5159    3.3854   -1.7304 H   0  0  0  0  0  0  0  0  0  0  0  0
    0.4331    2.1265   -1.5098 H   0  0  0  0  0  0  0  0  0  0  0  0
    6.2325    0.8306   -1.4417 H   0  0  0  0  0  0  0  0  0  0  0  0
    8.3514   -0.1350   -0.6725 H   0  0  0  0  0  0  0  0  0  0  0  0
    8.4199   -1.5290    1.3732 H   0  0  0  0  0  0  0  0  0  0  0  0
    6.3344   -1.9303    2.6495 H   0  0  0  0  0  0  0  0  0  0  0  0
    4.2170   -0.9449    1.8995 H   0  0  0  0  0  0  0  0  0  0  0  0
  1  4  1  0
  2 10  1  0
  2 11  1  0
  3 10  2  0
  4  5  2  0
  4  9  1  0
  5  6  1  0
  5 10  1  0
  6  7  2  0
  7  8  1  0
  8  9  2  0
 11 12  2  0
 11 16  1  0
 12 13  1  0
 13 14  2  0
 13 17  1  0
 14 15  1  0
 15 16  2  0
 17 18  2  0
 17 22  1  0
 18 19  1  0
 19 20  2  0
 20 21  1  0
 21 22  2  0
  2 23  1  0
  6 24  1  0
  7 25  1  0
  8 26  1  0
  9 27  1  0
 12 28  1  0
 14 29  1  0
 15 30  1  0
 16 31  1  0
 18 32  1  0
 19 33  1  0
 20 34  1  0
 21 35  1  0
 22 36  1  0
M  END
