
     RDKit          3D

 72 75  0  0  0  0  0  0  0  0999 V2000
    3.1289   -4.7420   -0.5425 C   0  0  0  0  0  0  0  0  0  0  0  0
    2.1724   -4.3347   -1.4614 C   0  0  0  0  0  0  0  0  0  0  0  0
    3.1879   -4.1118    0.6911 C   0  0  0  0  0  0  0  0  0  0  0  0
    1.2896   -3.3118   -1.1459 C   0  0  0  0  0  0  0  0  0  0  0  0
    2.3018   -3.0892    1.0007 C   0  0  0  0  0  0  0  0  0  0  0  0
   -8.0047   -0.9352   -1.0377 C   0  0  0  0  0  0  0  0  0  0  0  0
   -8.4078    1.3963   -0.7181 C   0  0  0  0  0  0  0  0  0  0  0  0
   -7.0606   -0.9140   -0.0238 C   0  0  0  0  0  0  0  0  0  0  0  0
   -7.4594    1.4194    0.2975 C   0  0  0  0  0  0  0  0  0  0  0  0
    5.2462    4.2115   -0.7553 C   0  0  0  0  0  0  0  0  0  0  0  0
    4.1017    3.7603   -1.3946 C   0  0  0  0  0  0  0  0  0  0  0  0
    5.4964    2.1195    0.3463 C   0  0  0  0  0  0  0  0  0  0  0  0
    1.3308   -2.6697    0.0921 C   0  0  0  0  0  0  0  0  0  0  0  0
   -8.6977    0.2201   -1.4019 C   0  0  0  0  0  0  0  0  0  0  0  0
   -6.7764    0.2660    0.6615 C   0  0  0  0  0  0  0  0  0  0  0  0
    5.9639    3.4095    0.1259 C   0  0  0  0  0  0  0  0  0  0  0  0
    3.6385    2.4669   -1.1693 C   0  0  0  0  0  0  0  0  0  0  0  0
    4.3522    1.6495   -0.2843 C   0  0  0  0  0  0  0  0  0  0  0  0
   -3.3982   -0.2960    2.0631 C   0  0  0  0  0  0  0  0  0  0  0  0
    0.0605   -1.4639    1.9080 C   0  0  0  0  0  0  0  0  0  0  0  0
   -0.9280   -1.6277   -0.3489 C   0  0  0  0  0  0  0  0  0  0  0  0
   -0.9819   -0.4171    2.2635 C   0  0  0  0  0  0  0  0  0  0  0  0
   -1.9819   -0.5985    0.0457 C   0  0  0  0  0  0  0  0  0  0  0  0
    0.4023   -1.5051    0.4113 C   0  0  2  0  0  0  0  0  0  0  0  0
    1.1011   -0.2075   -0.0530 C   0  0  0  0  0  0  0  0  0  0  0  0
   -2.1927   -0.5752    1.4790 N   0  0  0  0  0  0  0  0  0  0  0  0
   -4.4442   -0.0555    1.2222 N   0  0  0  0  0  0  0  0  0  0  0  0
    2.3369    0.0575    0.6485 N   0  0  0  0  0  0  0  0  0  0  0  0
   -3.5496   -0.2995    3.2815 O   0  0  0  0  0  0  0  0  0  0  0  0
    2.5457    1.9458   -1.7360 O   0  0  0  0  0  0  0  0  0  0  0  0
    3.8306   -0.0259    0.0087 S   0  0  1  0  0  0  0  0  0  0  0  0
    3.8177   -5.5416   -0.7836 H   0  0  0  0  0  0  0  0  0  0  0  0
    2.1096   -4.8141   -2.4302 H   0  0  0  0  0  0  0  0  0  0  0  0
    3.9271   -4.4154    1.4216 H   0  0  0  0  0  0  0  0  0  0  0  0
    0.5626   -3.0203   -1.8922 H   0  0  0  0  0  0  0  0  0  0  0  0
    2.3816   -2.6242    1.9728 H   0  0  0  0  0  0  0  0  0  0  0  0
   -8.2061   -1.8651   -1.5572 H   0  0  0  0  0  0  0  0  0  0  0  0
   -6.5368   -1.8264    0.2370 H   0  0  0  0  0  0  0  0  0  0  0  0
   -8.9246    2.3115   -0.9832 H   0  0  0  0  0  0  0  0  0  0  0  0
   -7.2489    2.3515    0.8089 H   0  0  0  0  0  0  0  0  0  0  0  0
    5.5837    5.2215   -0.9551 H   0  0  0  0  0  0  0  0  0  0  0  0
    3.5846    4.4265   -2.0714 H   0  0  0  0  0  0  0  0  0  0  0  0
    6.0341    1.4698    1.0237 H   0  0  0  0  0  0  0  0  0  0  0  0
  -10.7146   -0.0939   -2.0765 H   0  0  0  0  0  0  0  0  0  0  0  0
   -9.8556    1.1621   -2.9550 H   0  0  0  0  0  0  0  0  0  0  0  0
   -9.4920   -0.5372   -3.2564 H   0  0  0  0  0  0  0  0  0  0  0  0
   -5.7401    1.2723    2.2387 H   0  0  0  0  0  0  0  0  0  0  0  0
   -6.0099   -0.4360    2.5302 H   0  0  0  0  0  0  0  0  0  0  0  0
    6.9231    4.6095    1.6331 H   0  0  0  0  0  0  0  0  0  0  0  0
    7.7675    3.1130    1.2641 H   0  0  0  0  0  0  0  0  0  0  0  0
    7.8384    4.4692    0.1414 H   0  0  0  0  0  0  0  0  0  0  0  0
   -4.2539    0.2986    0.2991 H   0  0  0  0  0  0  0  0  0  0  0  0
    0.9449   -1.2680    2.5168 H   0  0  0  0  0  0  0  0  0  0  0  0
   -0.3107   -2.4476    2.2088 H   0  0  0  0  0  0  0  0  0  0  0  0
   -1.2272   -0.5070    3.3179 H   0  0  0  0  0  0  0  0  0  0  0  0
   -0.5766    0.5933    2.1194 H   0  0  0  0  0  0  0  0  0  0  0  0
   -1.3370   -2.6271   -0.1794 H   0  0  0  0  0  0  0  0  0  0  0  0
   -0.7730   -1.5260   -1.4255 H   0  0  0  0  0  0  0  0  0  0  0  0
   -1.7128    0.3975   -0.3271 H   0  0  0  0  0  0  0  0  0  0  0  0
   -2.9017   -0.8883   -0.4598 H   0  0  0  0  0  0  0  0  0  0  0  0
    1.3016   -0.2890   -1.1188 H   0  0  0  0  0  0  0  0  0  0  0  0
    0.4464    0.6568    0.0712 H   0  0  0  0  0  0  0  0  0  0  0  0
    1.3772    3.6438   -2.0399 H   0  0  0  0  0  0  0  0  0  0  0  0
    2.2924    3.0870   -3.4613 H   0  0  0  0  0  0  0  0  0  0  0  0
    0.9016    2.1546   -2.8775 H   0  0  0  0  0  0  0  0  0  0  0  0
    2.2895    0.5013    1.5551 H   0  0  0  0  0  0  0  0  0  0  0  0
    7.1880    3.9243    0.8256 C   0  0  0  0  0  0  0  0  0  0  0  0
    3.7341   -0.7165   -1.2651 O   0  0  0  0  0  0  0  0  0  0  0  0
   -5.7463    0.2882    1.7579 C   0  0  0  0  0  0  0  0  0  0  0  0
    4.7280   -0.5440    1.0310 O   0  0  0  0  0  0  0  0  0  0  0  0
   -9.7402    0.1876   -2.4814 C   0  0  0  0  0  0  0  0  0  0  0  0
    1.7472    2.7646   -2.5716 C   0  0  0  0  0  0  0  0  0  0  0  0
  1  2  2  0
  1  3  1  0
  2  4  1  0
  3  5  2  0
  4 13  2  0
  5 13  1  0
  6  8  2  0
  6 14  1  0
  7  9  1  0
  7 14  2  0
  8 15  1  0
  9 15  2  0
 10 11  2  0
 10 16  1  0
 11 17  1  0
 12 16  2  0
 12 18  1  0
 13 24  1  0
 14 71  1  0
 15 69  1  0
 16 67  1  0
 17 18  2  0
 17 30  1  0
 18 31  1  0
 19 26  1  0
 19 27  1  0
 19 29  2  0
 20 22  1  0
 20 24  1  0
 21 23  1  0
 21 24  1  0
 22 26  1  0
 23 26  1  0
 24 25  1  6
 72 30  1  0
 69 27  1  0
 25 28  1  0
 31 28  1  1
 68 31  2  0
 70 31  2  0
  1 32  1  0
  2 33  1  0
  3 34  1  0
  4 35  1  0
  5 36  1  0
  6 37  1  0
  8 38  1  0
  7 39  1  0
  9 40  1  0
 10 41  1  0
 11 42  1  0
 12 43  1  0
 71 44  1  0
 71 45  1  0
 71 46  1  0
 69 47  1  0
 69 48  1  0
 67 49  1  0
 67 50  1  0
 67 51  1  0
 27 52  1  0
 20 53  1  0
 20 54  1  0
 22 55  1  0
 22 56  1  0
 21 57  1  0
 21 58  1  0
 23 59  1  0
 23 60  1  0
 25 61  1  0
 25 62  1  0
 72 63  1  0
 72 64  1  0
 72 65  1  0
 28 66  1  0
M  END
