
     RDKit          3D

 30 31  0  0  0  0  0  0  0  0999 V2000
   -2.3579    0.9858   -0.5689 C   0  0  0  0  0  0  0  0  0  0  0  0
   -1.7795    2.3655   -0.3594 C   0  0  0  0  0  0  0  0  0  0  0  0
    3.9480    1.2837    0.8678 C   0  0  0  0  0  0  0  0  0  0  0  0
    2.5548    0.9567    0.4254 C   0  0  0  0  0  0  0  0  0  0  0  0
    1.4967    1.7937    0.7588 C   0  0  0  0  0  0  0  0  0  0  0  0
    0.2069    1.4768    0.3818 C   0  0  0  0  0  0  0  0  0  0  0  0
   -0.0695    0.3050   -0.3209 C   0  0  0  0  0  0  0  0  0  0  0  0
    0.9807   -0.4876   -0.7927 C   0  0  0  0  0  0  0  0  0  0  0  0
    0.7581   -1.6138   -1.7584 C   0  0  0  0  0  0  0  0  0  0  0  0
    2.2673   -0.1550   -0.3629 C   0  0  0  0  0  0  0  0  0  0  0  0
   -1.9352   -1.3413   -0.2763 C   0  0  0  0  0  0  0  0  0  0  0  0
   -2.5563   -1.4154    1.1055 C   0  0  0  0  0  0  0  0  0  0  0  0
   -1.4286   -0.0135   -0.5408 N   0  0  0  0  0  0  0  0  0  0  0  0
   -2.4586   -0.5589    1.9429 O   0  0  0  0  0  0  0  0  0  0  0  0
   -3.1910   -2.5637    1.2724 O   0  0  0  0  0  0  0  0  0  0  0  0
   -3.5440    0.7726   -0.7115 O   0  0  0  0  0  0  0  0  0  0  0  0
   -0.8087    2.3220    0.6719 O   0  0  0  0  0  0  0  0  0  0  0  0
    3.5907   -1.1730   -0.8474 Cl  0  0  0  0  0  0  0  0  0  0  0  0
   -1.3445    2.7477   -1.2910 H   0  0  0  0  0  0  0  0  0  0  0  0
   -2.5692    3.0417   -0.0400 H   0  0  0  0  0  0  0  0  0  0  0  0
    4.6135    1.4435    0.0183 H   0  0  0  0  0  0  0  0  0  0  0  0
    3.9555    2.1878    1.4735 H   0  0  0  0  0  0  0  0  0  0  0  0
    4.3769    0.4767    1.4635 H   0  0  0  0  0  0  0  0  0  0  0  0
    1.6794    2.6987    1.3249 H   0  0  0  0  0  0  0  0  0  0  0  0
   -0.1941   -1.5165   -2.2759 H   0  0  0  0  0  0  0  0  0  0  0  0
    1.5359   -1.6181   -2.5202 H   0  0  0  0  0  0  0  0  0  0  0  0
    0.7841   -2.5917   -1.2735 H   0  0  0  0  0  0  0  0  0  0  0  0
   -1.1278   -2.0698   -0.3098 H   0  0  0  0  0  0  0  0  0  0  0  0
   -2.6587   -1.6439   -1.0331 H   0  0  0  0  0  0  0  0  0  0  0  0
   -3.5557   -2.6213    2.1687 H   0  0  0  0  0  0  0  0  0  0  0  0
  2 17  1  0
  2  1  1  0
 17  6  1  0
  5  6  1  0
  5  4  2  0
  6  7  2  0
 16  1  2  0
  1 13  1  0
  3  4  1  0
  4 10  1  0
  7 13  1  0
  7  8  1  0
 13 11  1  0
 10  8  2  0
 10 18  1  0
  8  9  1  0
 11 12  1  0
 14 12  2  0
 12 15  1  0
  2 19  1  0
  2 20  1  0
  3 21  1  0
  3 22  1  0
  3 23  1  0
  5 24  1  0
  9 25  1  0
  9 26  1  0
  9 27  1  0
 11 28  1  0
 11 29  1  0
 15 30  1  0
M  END
