
     RDKit          3D

 26 27  0  0  0  0  0  0  0  0999 V2000
   -4.4107    0.1817    0.3095 C   0  0  0  0  0  0  0  0  0  0  0  0
   -2.4157    1.1645   -0.1637 C   0  0  0  0  0  0  0  0  0  0  0  0
   -0.2985   -0.1160   -0.6298 C   0  0  0  0  0  0  0  0  0  0  0  0
   -1.7650   -0.0555   -0.3214 C   0  0  0  0  0  0  0  0  0  0  0  0
   -3.7009    1.2911    0.1420 N   0  0  0  0  0  0  0  0  0  0  0  0
   -3.8699   -1.0888    0.1765 C   0  0  0  0  0  0  0  0  0  0  0  0
   -2.5268   -1.2053   -0.1434 C   0  0  0  0  0  0  0  0  0  0  0  0
   -5.4591    0.3076    0.5565 H   0  0  0  0  0  0  0  0  0  0  0  0
   -1.8608    2.0887   -0.3008 H   0  0  0  0  0  0  0  0  0  0  0  0
   -0.0959   -0.9401   -1.3171 H   0  0  0  0  0  0  0  0  0  0  0  0
    0.0078    0.8001   -1.1387 H   0  0  0  0  0  0  0  0  0  0  0  0
   -4.4897   -1.9636    0.3180 H   0  0  0  0  0  0  0  0  0  0  0  0
   -2.0744   -2.1832   -0.2606 H   0  0  0  0  0  0  0  0  0  0  0  0
    0.5372   -0.3066    0.6452 C   0  0  0  0  0  0  0  0  0  0  0  0
    1.9974   -0.3187    0.3504 C   0  0  0  0  0  0  0  0  0  0  0  0
    2.8251    0.7994    0.0312 C   0  0  0  0  0  0  0  0  0  0  0  0
    4.0325    0.2254   -0.1654 C   0  0  0  0  0  0  0  0  0  0  0  0
    3.9555   -1.0954    0.0115 O   0  0  0  0  0  0  0  0  0  0  0  0
    2.6763   -1.4290    0.3357 N   0  0  0  0  0  0  0  0  0  0  0  0
    2.4383    2.2350   -0.0406 C   0  0  0  0  0  0  0  0  0  0  0  0
    0.3198    0.4999    1.3504 H   0  0  0  0  0  0  0  0  0  0  0  0
    0.2542   -1.2422    1.1301 H   0  0  0  0  0  0  0  0  0  0  0  0
    5.0013    0.6273   -0.4214 H   0  0  0  0  0  0  0  0  0  0  0  0
    1.9889    2.5708    0.8948 H   0  0  0  0  0  0  0  0  0  0  0  0
    3.3045    2.8643   -0.2367 H   0  0  0  0  0  0  0  0  0  0  0  0
    1.7114    2.4181   -0.8337 H   0  0  0  0  0  0  0  0  0  0  0  0
  3  4  1  0
  4  2  2  0
  4  7  1  0
  2  5  1  0
  7  6  2  0
  5  1  2  0
  6  1  1  0
  1  8  1  0
  2  9  1  0
  3 10  1  0
  3 11  1  0
  6 12  1  0
  7 13  1  0
  3 14  1  0
 14 15  1  0
 15 16  1  0
 16 17  2  0
 17 18  1  0
 18 19  1  0
 19 15  2  0
 16 20  1  0
 14 21  1  0
 14 22  1  0
 17 23  1  0
 20 24  1  0
 20 25  1  0
 20 26  1  0
M  END
