
     RDKit          3D

 41 42  0  0  0  0  0  0  0  0999 V2000
   -6.6799   -2.0175    0.6261 O   0  0  0  0  0  0  0  0  0  0  0  0
   -5.8708   -1.2054    0.2069 C   0  0  0  0  0  0  0  0  0  0  0  0
   -4.5423   -1.4356   -0.0197 N   0  0  0  0  0  0  0  0  0  0  0  0
   -3.8792   -0.3061   -0.6277 C   0  0  1  0  0  0  0  0  0  0  0  0
   -4.9483    0.8157   -0.5217 C   0  0  2  0  0  0  0  0  0  0  0  0
   -4.4517    1.8611    0.4778 C   0  0  0  0  0  0  0  0  0  0  0  0
   -2.6693    1.9475    0.1759 S   0  0  0  0  0  0  0  0  0  0  0  0
   -6.1235    0.0895   -0.1209 N   0  0  0  0  0  0  0  0  0  0  0  0
   -2.5988    0.1216    0.1130 C   0  0  2  0  0  0  0  0  0  0  0  0
   -1.3230   -0.3842   -0.5360 C   0  0  0  0  0  0  0  0  0  0  0  0
   -0.0480    0.0867    0.1505 C   0  0  0  0  0  0  0  0  0  0  0  0
    1.2025   -0.5373   -0.4556 C   0  0  0  0  0  0  0  0  0  0  0  0
    2.4682    0.0081    0.1845 C   0  0  0  0  0  0  0  0  0  0  0  0
    3.7467   -0.5608   -0.3952 C   0  0  0  0  0  0  0  0  0  0  0  0
    4.8750   -0.0590    0.1360 N   0  0  0  0  0  0  0  0  0  0  0  0
    6.1800   -0.4781   -0.2833 C   0  0  0  0  0  0  0  0  0  0  0  0
    7.2641    0.2520    0.4707 C   0  0  0  0  0  0  0  0  0  0  0  0
    8.6629   -0.0286    0.0116 C   0  0  0  0  0  0  0  0  0  0  0  0
    7.0057    1.0205    1.3686 O   0  0  0  0  0  0  0  0  0  0  0  0
    3.7643   -1.4082   -1.2768 O   0  0  0  0  0  0  0  0  0  0  0  0
   -4.2351   -2.3761   -0.2061 H   0  0  0  0  0  0  0  0  0  0  0  0
   -3.6386   -0.5061   -1.6762 H   0  0  0  0  0  0  0  0  0  0  0  0
   -5.0917    1.2997   -1.4890 H   0  0  0  0  0  0  0  0  0  0  0  0
   -4.9041    2.8395    0.3223 H   0  0  0  0  0  0  0  0  0  0  0  0
   -4.6438    1.5443    1.5054 H   0  0  0  0  0  0  0  0  0  0  0  0
   -6.9791    0.5427    0.1547 H   0  0  0  0  0  0  0  0  0  0  0  0
   -2.6599   -0.2427    1.1430 H   0  0  0  0  0  0  0  0  0  0  0  0
   -1.3558   -1.4790   -0.5272 H   0  0  0  0  0  0  0  0  0  0  0  0
   -1.3102   -0.0847   -1.5888 H   0  0  0  0  0  0  0  0  0  0  0  0
    0.0268    1.1774    0.0815 H   0  0  0  0  0  0  0  0  0  0  0  0
   -0.0994   -0.1468    1.2190 H   0  0  0  0  0  0  0  0  0  0  0  0
    1.1612   -1.6232   -0.3382 H   0  0  0  0  0  0  0  0  0  0  0  0
    1.2178   -0.3440   -1.5315 H   0  0  0  0  0  0  0  0  0  0  0  0
    2.4976    1.0982    0.0857 H   0  0  0  0  0  0  0  0  0  0  0  0
    2.4590   -0.1854    1.2623 H   0  0  0  0  0  0  0  0  0  0  0  0
    4.8206    0.6277    0.8726 H   0  0  0  0  0  0  0  0  0  0  0  0
    6.3330   -1.5521   -0.1243 H   0  0  0  0  0  0  0  0  0  0  0  0
    6.3361   -0.3123   -1.3551 H   0  0  0  0  0  0  0  0  0  0  0  0
    8.8743    0.5888   -0.8650 H   0  0  0  0  0  0  0  0  0  0  0  0
    9.3876    0.2178    0.7845 H   0  0  0  0  0  0  0  0  0  0  0  0
    8.7872   -1.0673   -0.2927 H   0  0  0  0  0  0  0  0  0  0  0  0
 16 15  1  0
 16 17  1  0
  5  4  1  0
  5  8  1  0
  5  6  1  0
  4  3  1  0
  4  9  1  0
 15 14  1  0
  8  2  1  0
 11 10  1  0
 11 12  1  0
  6  7  1  0
 10  9  1  0
  3  2  1  0
 18 17  1  0
 14 20  2  0
 14 13  1  0
  7  9  1  0
 17 19  2  0
  2  1  2  0
 13 12  1  0
  3 21  1  0
  4 22  1  6
  5 23  1  6
  6 24  1  0
  6 25  1  0
  8 26  1  0
  9 27  1  1
 10 28  1  0
 10 29  1  0
 11 30  1  0
 11 31  1  0
 12 32  1  0
 12 33  1  0
 13 34  1  0
 13 35  1  0
 15 36  1  0
 16 37  1  0
 16 38  1  0
 18 39  1  0
 18 40  1  0
 18 41  1  0
M  END
