
     RDKit          3D

 25 25  0  0  0  0  0  0  0  0999 V2000
   -2.7119   -2.0915   -0.4103 F   0  0  0  0  0  0  0  0  0  0  0  0
   -2.0100   -0.9976   -0.1045 C   0  0  0  0  0  0  0  0  0  0  0  0
   -0.7354   -1.0712    0.2911 C   0  0  0  0  0  0  0  0  0  0  0  0
   -0.0095    0.0407    0.6196 N   0  0  0  0  0  0  0  0  0  0  0  0
    1.3918   -0.1296    0.9933 C   0  0  0  0  0  0  0  0  0  0  0  0
    2.3042   -0.3435   -0.2250 C   0  0  2  0  0  0  0  0  0  0  0  0
    3.7325   -0.5112    0.2876 C   0  0  0  0  0  0  0  0  0  0  0  0
    4.6424   -0.9421   -0.7576 N   0  0  0  0  0  0  0  0  0  0  0  0
    2.2236    0.6939   -1.2303 N   0  0  0  0  0  0  0  0  0  0  0  0
   -0.5603    1.2982    0.5553 C   0  0  0  0  0  0  0  0  0  0  0  0
    0.0415    2.3131    0.8367 O   0  0  0  0  0  0  0  0  0  0  0  0
   -1.8739    1.3270    0.1437 N   0  0  0  0  0  0  0  0  0  0  0  0
   -2.6905    0.2724   -0.2097 C   0  0  0  0  0  0  0  0  0  0  0  0
   -3.8412    0.4296   -0.5609 O   0  0  0  0  0  0  0  0  0  0  0  0
   -0.2244   -2.0206    0.3789 H   0  0  0  0  0  0  0  0  0  0  0  0
    1.7021    0.7526    1.5499 H   0  0  0  0  0  0  0  0  0  0  0  0
    1.4514   -0.9808    1.6728 H   0  0  0  0  0  0  0  0  0  0  0  0
    2.0072   -1.2855   -0.7027 H   0  0  0  0  0  0  0  0  0  0  0  0
    4.0785    0.4533    0.6734 H   0  0  0  0  0  0  0  0  0  0  0  0
    3.7052   -1.1919    1.1513 H   0  0  0  0  0  0  0  0  0  0  0  0
    5.5710   -1.0341   -0.3658 H   0  0  0  0  0  0  0  0  0  0  0  0
    4.3844   -1.8734   -1.0612 H   0  0  0  0  0  0  0  0  0  0  0  0
    1.3061    0.7163   -1.6558 H   0  0  0  0  0  0  0  0  0  0  0  0
    2.3746    1.6047   -0.8132 H   0  0  0  0  0  0  0  0  0  0  0  0
   -2.2849    2.2513    0.0869 H   0  0  0  0  0  0  0  0  0  0  0  0
  1  2  1  0
 14 13  2  0
 13  2  1  0
 13 12  1  0
  2  3  2  0
 12 10  1  0
  3  4  1  0
 10  4  1  0
 10 11  2  0
  4  5  1  0
  9  6  1  0
  5  6  1  0
  6  7  1  0
  7  8  1  0
  3 15  1  0
  5 16  1  0
  5 17  1  0
  6 18  1  6
  7 19  1  0
  7 20  1  0
  8 21  1  0
  8 22  1  0
  9 23  1  0
  9 24  1  0
 12 25  1  0
M  END
