
     RDKit          3D

 43 46  0  0  0  0  0  0  0  0999 V2000
   -5.2770    1.0896   -0.0548 C   0  0  0  0  0  0  0  0  0  0  0  0
   -2.9964    1.0404   -0.0509 C   0  0  0  0  0  0  0  0  0  0  0  0
   -0.6628    1.2207   -0.0511 C   0  0  0  0  0  0  0  0  0  0  0  0
    0.4262    2.0836   -0.0804 C   0  0  0  0  0  0  0  0  0  0  0  0
    1.7003    1.5559   -0.0513 C   0  0  0  0  0  0  0  0  0  0  0  0
    1.9221    0.1733    0.0083 C   0  0  0  0  0  0  0  0  0  0  0  0
    3.3199   -0.3895    0.0376 C   0  0  1  0  0  0  0  0  0  0  0  0
    4.0544   -0.0840   -1.2741 C   0  0  0  0  0  0  0  0  0  0  0  0
    5.4310   -0.7332   -1.3476 C   0  0  0  0  0  0  0  0  0  0  0  0
    5.4664   -0.5198    1.4042 C   0  0  0  0  0  0  0  0  0  0  0  0
    4.0872    0.1126    1.2673 C   0  0  0  0  0  0  0  0  0  0  0  0
    0.8225   -0.6613    0.0332 C   0  0  0  0  0  0  0  0  0  0  0  0
   -0.4809   -0.1571    0.0039 C   0  0  0  0  0  0  0  0  0  0  0  0
   -1.6467   -1.0508    0.0324 C   0  0  0  0  0  0  0  0  0  0  0  0
   -2.9230   -0.3566    0.0014 C   0  0  0  0  0  0  0  0  0  0  0  0
   -4.1435   -1.0275    0.0208 C   0  0  0  0  0  0  0  0  0  0  0  0
   -5.3395   -0.3444   -0.0066 C   0  0  0  0  0  0  0  0  0  0  0  0
   -6.6253   -1.0577    0.0131 C   0  0  0  0  0  0  0  0  0  0  0  0
   -6.3599    1.8550   -0.0767 N   0  0  0  0  0  0  0  0  0  0  0  0
   -4.1036    1.7315   -0.0776 N   0  0  0  0  0  0  0  0  0  0  0  0
   -1.8926    1.7952   -0.0785 O   0  0  0  0  0  0  0  0  0  0  0  0
   -1.5472   -2.2667    0.0771 O   0  0  0  0  0  0  0  0  0  0  0  0
   -6.4887   -2.3739    0.0657 O   0  0  0  0  0  0  0  0  0  0  0  0
   -7.7110   -0.5165   -0.0161 O   0  0  0  0  0  0  0  0  0  0  0  0
    6.4793   -0.1579   -0.0213 S   0  0  2  0  0  0  0  0  0  0  0  0
    0.2706    3.1536   -0.1240 H   0  0  0  0  0  0  0  0  0  0  0  0
    2.5391    2.2405   -0.0742 H   0  0  0  0  0  0  0  0  0  0  0  0
    3.2347   -1.4788    0.1223 H   0  0  0  0  0  0  0  0  0  0  0  0
    3.4708   -0.4649   -2.1140 H   0  0  0  0  0  0  0  0  0  0  0  0
    5.3727   -1.8196   -1.2597 H   0  0  0  0  0  0  0  0  0  0  0  0
    6.0076   -0.1336    2.2704 H   0  0  0  0  0  0  0  0  0  0  0  0
    5.4103   -1.6066    1.4892 H   0  0  0  0  0  0  0  0  0  0  0  0
    4.1865    1.2001    1.2433 H   0  0  0  0  0  0  0  0  0  0  0  0
    3.5249   -0.1307    2.1702 H   0  0  0  0  0  0  0  0  0  0  0  0
    0.9588   -1.7349    0.0765 H   0  0  0  0  0  0  0  0  0  0  0  0
   -4.1297   -2.1084    0.0582 H   0  0  0  0  0  0  0  0  0  0  0  0
   -7.2817    1.4509   -0.0747 H   0  0  0  0  0  0  0  0  0  0  0  0
   -6.2539    2.8545   -0.1204 H   0  0  0  0  0  0  0  0  0  0  0  0
   -7.3611   -2.7952    0.0764 H   0  0  0  0  0  0  0  0  0  0  0  0
    4.1468    0.9948   -1.4214 H   0  0  0  0  0  0  0  0  0  0  0  0
    5.9484   -0.4870   -2.2769 H   0  0  0  0  0  0  0  0  0  0  0  0
    6.6123    1.2971   -0.1373 O   0  0  0  0  0  0  0  0  0  0  0  0
    7.7035   -0.9586    0.0282 O   0  0  0  0  0  0  0  0  0  0  0  0
 24 18  2  0
 19  1  1  0
 18 23  1  0
 18 17  1  0
  1 17  2  0
  1 20  1  0
 17 16  1  0
 20  2  2  0
 16 15  2  0
  2 15  1  0
  2 21  1  0
 15 14  1  0
 21  3  1  0
 14 22  2  0
 14 13  1  0
  3 13  2  0
  3  4  1  0
 13 12  1  0
  4  5  2  0
  5  6  1  0
 12  6  2  0
  6  7  1  0
  7 11  1  0
  7  8  1  0
 11 10  1  0
  8  9  1  0
 25 10  1  1
  9 25  1  0
 43 25  2  0
 25 42  2  0
  4 26  1  0
  5 27  1  0
  7 28  1  1
  8 29  1  0
  9 30  1  0
 10 31  1  0
 10 32  1  0
 11 33  1  0
 11 34  1  0
 12 35  1  0
 16 36  1  0
 19 37  1  0
 19 38  1  0
 23 39  1  0
  8 40  1  0
  9 41  1  0
M  END
