
     RDKit          3D

 24 25  0  0  0  0  0  0  0  0999 V2000
   -2.9009    1.5747   -0.2418 C   0  0  0  0  0  0  0  0  0  0  0  0
   -2.3785    0.4069    0.4392 N   0  0  0  0  0  0  0  0  0  0  0  0
   -1.3465   -0.3234   -0.2618 C   0  0  1  0  0  0  0  0  0  0  0  0
    0.0890    0.1620   -0.1466 C   0  0  0  0  0  0  0  0  0  0  0  0
    0.5827    1.4569   -0.0838 C   0  0  0  0  0  0  0  0  0  0  0  0
    1.9550    1.6553    0.0403 C   0  0  0  0  0  0  0  0  0  0  0  0
    2.8218    0.5695    0.0944 C   0  0  0  0  0  0  0  0  0  0  0  0
    2.3265   -0.7294    0.0313 C   0  0  0  0  0  0  0  0  0  0  0  0
    0.9594   -0.9243   -0.0857 C   0  0  0  0  0  0  0  0  0  0  0  0
    0.1912   -2.2160   -0.1537 C   0  0  0  0  0  0  0  0  0  0  0  0
   -1.2276   -1.7782    0.2246 C   0  0  0  0  0  0  0  0  0  0  0  0
   -3.3432    1.2755   -1.1938 H   0  0  0  0  0  0  0  0  0  0  0  0
   -3.6954    2.0171    0.3595 H   0  0  0  0  0  0  0  0  0  0  0  0
   -2.1725    2.3664   -0.4557 H   0  0  0  0  0  0  0  0  0  0  0  0
   -2.0581    0.6535    1.3674 H   0  0  0  0  0  0  0  0  0  0  0  0
   -1.6249   -0.3311   -1.3237 H   0  0  0  0  0  0  0  0  0  0  0  0
   -0.0819    2.3105   -0.1223 H   0  0  0  0  0  0  0  0  0  0  0  0
    2.3493    2.6621    0.0977 H   0  0  0  0  0  0  0  0  0  0  0  0
    3.8872    0.7354    0.1927 H   0  0  0  0  0  0  0  0  0  0  0  0
    3.0035   -1.5737    0.0851 H   0  0  0  0  0  0  0  0  0  0  0  0
    0.5943   -2.9906    0.5002 H   0  0  0  0  0  0  0  0  0  0  0  0
    0.2143   -2.6164   -1.1724 H   0  0  0  0  0  0  0  0  0  0  0  0
   -1.3354   -1.7911    1.3134 H   0  0  0  0  0  0  0  0  0  0  0  0
   -2.0059   -2.4180   -0.1914 H   0  0  0  0  0  0  0  0  0  0  0  0
  1  2  1  0
  1 12  1  0
  1 13  1  0
  1 14  1  0
  2  3  1  0
  2 15  1  0
  3  4  1  0
  3 11  1  0
  3 16  1  6
  4  5  2  0
  4  9  1  0
  5  6  1  0
  5 17  1  0
  6  7  2  0
  6 18  1  0
  7  8  1  0
  7 19  1  0
  8  9  2  0
  8 20  1  0
  9 10  1  0
 10 11  1  0
 10 21  1  0
 10 22  1  0
 11 23  1  0
 11 24  1  0
M  END
