
     RDKit          3D

 47 49  0  0  0  0  0  0  0  0999 V2000
   -5.7594    0.1024    1.1349 C   0  0  0  0  0  0  0  0  0  0  0  0
    2.1293   -2.7578    0.6147 C   0  0  0  0  0  0  0  0  0  0  0  0
    2.7905   -0.5529   -0.3804 C   0  0  0  0  0  0  0  0  0  0  0  0
   -1.4839   -0.2893    1.0391 C   0  0  0  0  0  0  0  0  0  0  0  0
    1.9541    0.5185   -0.1061 C   0  0  0  0  0  0  0  0  0  0  0  0
    2.6007    1.7489    0.1645 C   0  0  0  0  0  0  0  0  0  0  0  0
    4.6232    0.7527   -0.0981 C   0  0  0  0  0  0  0  0  0  0  0  0
   -0.1403    0.4017    1.1657 C   0  0  0  0  0  0  0  0  0  0  0  0
   -1.5580    0.2545   -1.3034 C   0  0  0  0  0  0  0  0  0  0  0  0
    1.9054    2.8800    0.3988 N   0  0  0  0  0  0  0  0  0  0  0  0
    3.9268    1.8541    0.1725 N   0  0  0  0  0  0  0  0  0  0  0  0
    5.9738    0.8790   -0.1300 N   0  0  0  0  0  0  0  0  0  0  0  0
    4.1223   -0.4480   -0.3779 N   0  0  0  0  0  0  0  0  0  0  0  0
    1.5787   -4.1491    0.3389 C   0  0  0  0  0  0  0  0  0  0  0  0
    0.5537    0.3510   -0.1021 N   0  0  0  0  0  0  0  0  0  0  0  0
   -0.2077    0.9409   -1.1812 C   0  0  0  0  0  0  0  0  0  0  0  0
   -2.2628    0.3053   -0.0390 N   0  0  0  0  0  0  0  0  0  0  0  0
   -3.6375    0.0607   -0.0416 C   0  0  0  0  0  0  0  0  0  0  0  0
   -4.3907    0.3031    1.1175 C   0  0  0  0  0  0  0  0  0  0  0  0
   -6.4304   -0.3360   -0.0021 C   0  0  0  0  0  0  0  0  0  0  0  0
   -5.6979   -0.5743   -1.1538 C   0  0  0  0  0  0  0  0  0  0  0  0
   -4.3205   -0.3893   -1.1773 C   0  0  0  0  0  0  0  0  0  0  0  0
   -6.3101    0.3071    2.0445 H   0  0  0  0  0  0  0  0  0  0  0  0
    3.1153   -2.8322    1.0812 H   0  0  0  0  0  0  0  0  0  0  0  0
    1.4857   -2.2442    1.3337 H   0  0  0  0  0  0  0  0  0  0  0  0
    2.8941   -2.4229   -1.3698 H   0  0  0  0  0  0  0  0  0  0  0  0
    1.2475   -1.8352   -1.1148 H   0  0  0  0  0  0  0  0  0  0  0  0
   -1.3220   -1.3621    0.8532 H   0  0  0  0  0  0  0  0  0  0  0  0
   -2.0164   -0.1986    1.9840 H   0  0  0  0  0  0  0  0  0  0  0  0
   -0.3147    1.4289    1.5287 H   0  0  0  0  0  0  0  0  0  0  0  0
    0.4539   -0.1119    1.9228 H   0  0  0  0  0  0  0  0  0  0  0  0
   -2.1382    0.7772   -2.0646 H   0  0  0  0  0  0  0  0  0  0  0  0
   -1.4079   -0.7799   -1.6494 H   0  0  0  0  0  0  0  0  0  0  0  0
    0.9217    2.8492    0.5957 H   0  0  0  0  0  0  0  0  0  0  0  0
    2.4048    3.6797    0.7492 H   0  0  0  0  0  0  0  0  0  0  0  0
    6.3767    1.6887    0.3095 H   0  0  0  0  0  0  0  0  0  0  0  0
    6.5183    0.0356   -0.0741 H   0  0  0  0  0  0  0  0  0  0  0  0
    0.5770   -4.0970   -0.0921 H   0  0  0  0  0  0  0  0  0  0  0  0
    2.2130   -4.6928   -0.3635 H   0  0  0  0  0  0  0  0  0  0  0  0
    1.5145   -4.7391    1.2536 H   0  0  0  0  0  0  0  0  0  0  0  0
    0.3382    0.8104   -2.1166 H   0  0  0  0  0  0  0  0  0  0  0  0
   -0.3762    2.0219   -1.0504 H   0  0  0  0  0  0  0  0  0  0  0  0
   -3.9051    0.6774    2.0094 H   0  0  0  0  0  0  0  0  0  0  0  0
   -7.5021   -0.4834    0.0127 H   0  0  0  0  0  0  0  0  0  0  0  0
   -6.1945   -0.9228   -2.0508 H   0  0  0  0  0  0  0  0  0  0  0  0
   -3.7862   -0.6124   -2.0908 H   0  0  0  0  0  0  0  0  0  0  0  0
    2.2352   -1.9169   -0.6599 C   0  0  0  0  0  0  0  0  0  0  0  0
  9 16  1  0
  9 17  1  0
 22 21  2  0
 22 18  1  0
 21 20  1  0
 16 15  1  0
 17 18  1  0
 17  4  1  0
 18 19  2  0
 20  1  2  0
  4  8  1  0
 19  1  1  0
 15  8  1  0
 15  5  1  0
 10  6  1  0
  5  6  1  0
  5  3  2  0
  6 11  2  0
 47  3  1  0
 47  2  1  0
  3 13  1  0
 11  7  1  0
  2 14  1  0
 13  7  2  0
  7 12  1  0
  1 23  1  0
  2 24  1  0
  2 25  1  0
 47 26  1  0
 47 27  1  0
  4 28  1  0
  4 29  1  0
  8 30  1  0
  8 31  1  0
  9 32  1  0
  9 33  1  0
 10 34  1  0
 10 35  1  0
 12 36  1  0
 12 37  1  0
 14 38  1  0
 14 39  1  0
 14 40  1  0
 16 41  1  0
 16 42  1  0
 19 43  1  0
 20 44  1  0
 21 45  1  0
 22 46  1  0
M  END
