
     RDKit          3D

 30 31  0  0  0  0  0  0  0  0999 V2000
   -1.3545    0.1019   -2.2843 N   0  0  0  0  0  0  0  0  0  0  0  0
   -0.1654    0.1268   -2.8824 C   0  0  0  0  0  0  0  0  0  0  0  0
   -1.3586    0.1031   -0.9542 C   0  0  0  0  0  0  0  0  0  0  0  0
   -0.1587    0.1312   -0.2044 C   0  0  0  0  0  0  0  0  0  0  0  0
    1.0111    0.1583   -0.9426 C   0  0  0  0  0  0  0  0  0  0  0  0
    1.0199    0.1557   -2.2789 N   0  0  0  0  0  0  0  0  0  0  0  0
   -0.1932    0.1205    1.2765 C   0  0  0  0  0  0  0  0  0  0  0  0
   -0.1719   -1.0837    1.9798 C   0  0  0  0  0  0  0  0  0  0  0  0
   -0.2104   -1.0954    3.3677 C   0  0  0  0  0  0  0  0  0  0  0  0
   -0.2772    0.0998    4.0720 C   0  0  0  0  0  0  0  0  0  0  0  0
   -0.3084    1.3051    3.3829 C   0  0  0  0  0  0  0  0  0  0  0  0
   -0.2687    1.3137    1.9949 C   0  0  0  0  0  0  0  0  0  0  0  0
   -2.5548    0.0619   -0.3462 N   0  0  0  0  0  0  0  0  0  0  0  0
   -0.1671    0.1642   -4.2386 N   0  0  0  0  0  0  0  0  0  0  0  0
    2.3597    0.1476   -0.2830 C   0  0  0  0  0  0  0  0  0  0  0  0
    2.9506   -1.2610   -0.2460 C   0  0  0  0  0  0  0  0  0  0  0  0
   -0.1222   -2.0176    1.4330 H   0  0  0  0  0  0  0  0  0  0  0  0
   -0.1885   -2.0379    3.8997 H   0  0  0  0  0  0  0  0  0  0  0  0
   -0.3069    0.0920    5.1538 H   0  0  0  0  0  0  0  0  0  0  0  0
   -0.3637    2.2395    3.9266 H   0  0  0  0  0  0  0  0  0  0  0  0
   -0.2918    2.2549    1.4589 H   0  0  0  0  0  0  0  0  0  0  0  0
   -3.3956    0.1090   -0.8945 H   0  0  0  0  0  0  0  0  0  0  0  0
   -2.6386    0.1247    0.6525 H   0  0  0  0  0  0  0  0  0  0  0  0
   -1.0117   -0.1102   -4.7108 H   0  0  0  0  0  0  0  0  0  0  0  0
    0.6903   -0.0736   -4.7073 H   0  0  0  0  0  0  0  0  0  0  0  0
    2.2919    0.5440    0.7303 H   0  0  0  0  0  0  0  0  0  0  0  0
    3.0256    0.8050   -0.8454 H   0  0  0  0  0  0  0  0  0  0  0  0
    3.9441   -1.2473    0.2024 H   0  0  0  0  0  0  0  0  0  0  0  0
    2.3275   -1.9357    0.3420 H   0  0  0  0  0  0  0  0  0  0  0  0
    3.0408   -1.6754   -1.2504 H   0  0  0  0  0  0  0  0  0  0  0  0
  1  2  2  0
  1  3  1  0
  2  6  1  0
  2 14  1  0
  3  4  2  0
  3 13  1  0
  4  5  1  0
  4  7  1  0
  5  6  2  0
  5 15  1  0
  7  8  2  0
  7 12  1  0
  8  9  1  0
  8 17  1  0
  9 10  2  0
  9 18  1  0
 10 11  1  0
 10 19  1  0
 11 12  2  0
 11 20  1  0
 12 21  1  0
 13 22  1  0
 13 23  1  0
 14 24  1  0
 14 25  1  0
 15 16  1  0
 15 26  1  0
 15 27  1  0
 16 28  1  0
 16 29  1  0
 16 30  1  0
M  END
