
     RDKit          3D

 58 61  0  0  0  0  0  0  0  0999 V2000
    0.3861    2.5222    0.0374 C   0  0  0  0  0  0  0  0  0  0  0  0
    0.1942    3.9198    0.2805 C   0  0  0  0  0  0  0  0  0  0  0  0
   -1.0674    4.4418    0.3905 C   0  0  0  0  0  0  0  0  0  0  0  0
   -2.1978    3.6109    0.2707 C   0  0  0  0  0  0  0  0  0  0  0  0
   -2.0173    2.2352    0.0436 C   0  0  0  0  0  0  0  0  0  0  0  0
   -0.7147    1.7092   -0.0765 C   0  0  0  0  0  0  0  0  0  0  0  0
   -3.4300    4.1724    0.3788 N   0  0  0  0  0  0  0  0  0  0  0  0
   -4.4384    3.3588    0.2596 C   0  0  0  0  0  0  0  0  0  0  0  0
   -4.4026    2.0357    0.0553 N   0  0  0  0  0  0  0  0  0  0  0  0
   -3.2229    1.4621   -0.0459 C   0  0  0  0  0  0  0  0  0  0  0  0
   -3.1410    0.1220   -0.2292 N   0  0  0  0  0  0  0  0  0  0  0  0
   -4.1435   -0.8410   -0.3422 C   0  0  0  0  0  0  0  0  0  0  0  0
   -3.7293   -2.1707   -0.2230 C   0  0  0  0  0  0  0  0  0  0  0  0
   -4.6386   -3.2030   -0.3506 C   0  0  0  0  0  0  0  0  0  0  0  0
   -5.9727   -2.9226   -0.5922 C   0  0  0  0  0  0  0  0  0  0  0  0
   -6.3947   -1.6171   -0.7124 C   0  0  0  0  0  0  0  0  0  0  0  0
   -5.4905   -0.5724   -0.5913 C   0  0  0  0  0  0  0  0  0  0  0  0
   -6.8456   -3.9275   -0.7081 F   0  0  0  0  0  0  0  0  0  0  0  0
   -4.1290   -4.8413   -0.2034 Cl  0  0  0  0  0  0  0  0  0  0  0  0
    1.3238    4.6272    0.3817 O   0  0  0  0  0  0  0  0  0  0  0  0
    1.2433    6.0272    0.5935 C   0  0  0  0  0  0  0  0  0  0  0  0
    1.7074    2.0993   -0.0568 N   0  0  0  0  0  0  0  0  0  0  0  0
    2.1878    0.8802   -0.4275 C   0  0  0  0  0  0  0  0  0  0  0  0
    3.6651    0.8171   -0.4199 C   0  0  0  0  0  0  0  0  0  0  0  0
    4.3200   -0.2694   -0.8226 C   0  0  0  0  0  0  0  0  0  0  0  0
    5.8078   -0.3795   -0.8833 C   0  0  0  0  0  0  0  0  0  0  0  0
    6.2698   -1.6586   -0.3882 N   0  0  0  0  0  0  0  0  0  0  0  0
    1.4759   -0.0632   -0.7325 O   0  0  0  0  0  0  0  0  0  0  0  0
    7.6668   -1.8843   -0.7204 C   0  0  0  0  0  0  0  0  0  0  0  0
    8.1110   -3.2784   -0.3068 C   0  0  0  0  0  0  0  0  0  0  0  0
    7.8679   -3.5027    1.1803 C   0  0  0  0  0  0  0  0  0  0  0  0
    6.4168   -3.1921    1.5231 C   0  0  0  0  0  0  0  0  0  0  0  0
    6.0317   -1.8027    1.0396 C   0  0  0  0  0  0  0  0  0  0  0  0
   -0.5524    0.6602   -0.2639 H   0  0  0  0  0  0  0  0  0  0  0  0
   -5.4317    3.7889    0.3366 H   0  0  0  0  0  0  0  0  0  0  0  0
   -5.8389    0.4414   -0.6884 H   0  0  0  0  0  0  0  0  0  0  0  0
    4.2137    1.6870   -0.0723 H   0  0  0  0  0  0  0  0  0  0  0  0
   -7.4385   -1.4073   -0.9054 H   0  0  0  0  0  0  0  0  0  0  0  0
   -1.2329    5.4954    0.5686 H   0  0  0  0  0  0  0  0  0  0  0  0
   -2.6899   -2.4040   -0.0277 H   0  0  0  0  0  0  0  0  0  0  0  0
    0.7063    6.5217   -0.2184 H   0  0  0  0  0  0  0  0  0  0  0  0
    0.7552    6.2604    1.5421 H   0  0  0  0  0  0  0  0  0  0  0  0
    2.2662    6.3912    0.6196 H   0  0  0  0  0  0  0  0  0  0  0  0
    3.7637   -1.1380   -1.1635 H   0  0  0  0  0  0  0  0  0  0  0  0
    6.1013   -0.3000   -1.9365 H   0  0  0  0  0  0  0  0  0  0  0  0
    6.2745    0.4751   -0.3647 H   0  0  0  0  0  0  0  0  0  0  0  0
   -2.2127   -0.2661   -0.2130 H   0  0  0  0  0  0  0  0  0  0  0  0
    2.3972    2.8071    0.1452 H   0  0  0  0  0  0  0  0  0  0  0  0
    7.7901   -1.7575   -1.7990 H   0  0  0  0  0  0  0  0  0  0  0  0
    8.3212   -1.1363   -0.2369 H   0  0  0  0  0  0  0  0  0  0  0  0
    7.5542   -4.0194   -0.8881 H   0  0  0  0  0  0  0  0  0  0  0  0
    9.1675   -3.4082   -0.5517 H   0  0  0  0  0  0  0  0  0  0  0  0
    8.1223   -4.5259    1.4645 H   0  0  0  0  0  0  0  0  0  0  0  0
    8.5258   -2.8437    1.7568 H   0  0  0  0  0  0  0  0  0  0  0  0
    5.7602   -3.9303    1.0526 H   0  0  0  0  0  0  0  0  0  0  0  0
    6.2498   -3.2571    2.6006 H   0  0  0  0  0  0  0  0  0  0  0  0
    6.5950   -1.0447    1.6143 H   0  0  0  0  0  0  0  0  0  0  0  0
    4.9730   -1.6226    1.2420 H   0  0  0  0  0  0  0  0  0  0  0  0
  4  5  2  0
  5  6  1  0
  5 10  1  0
  6 34  1  0
  8  9  1  0
  8 35  1  0
 10 11  1  0
 12 13  2  0
 12 17  1  0
 14 19  1  0
 14 15  2  0
 17 16  2  0
 17 36  1  0
 24 25  2  0
 24 37  1  0
 23 24  1  0
 23 28  2  0
 16 15  1  0
 16 38  1  0
  3  4  1  0
  3  2  2  0
  3 39  1  0
 13 14  1  0
 13 40  1  0
  1  6  2  0
  1 22  1  0
  2  1  1  0
 15 18  1  0
 21 20  1  0
 21 41  1  0
 21 42  1  0
 21 43  1  0
 25 26  1  0
 25 44  1  0
 26 27  1  0
 26 45  1  0
 26 46  1  0
  7  4  1  0
  7  8  2  0
  9 10  2  0
 11 12  1  0
 11 47  1  0
 22 23  1  0
 22 48  1  0
 20  2  1  0
 27 29  1  0
 27 33  1  0
 29 30  1  0
 30 31  1  0
 31 32  1  0
 32 33  1  0
 29 49  1  0
 29 50  1  0
 30 51  1  0
 30 52  1  0
 31 53  1  0
 31 54  1  0
 32 55  1  0
 32 56  1  0
 33 57  1  0
 33 58  1  0
M  END
