
     RDKit          3D

 36 38  0  0  0  0  0  0  0  0999 V2000
   -7.8081   -0.7404    0.1512 Cl  0  0  0  0  0  0  0  0  0  0  0  0
    5.6470    0.8163    1.2633 C   0  0  0  0  0  0  0  0  0  0  0  0
    4.5526    1.5790    0.8889 C   0  0  0  0  0  0  0  0  0  0  0  0
    3.5813    1.0523    0.0394 C   0  0  0  0  0  0  0  0  0  0  0  0
    2.4248    1.9131   -0.3651 C   0  0  0  0  0  0  0  0  0  0  0  0
    1.1156    1.3801   -0.2684 C   0  0  0  0  0  0  0  0  0  0  0  0
   -0.0720    2.0451   -0.6157 C   0  0  0  0  0  0  0  0  0  0  0  0
   -1.2211    1.3650   -0.3814 N   0  0  0  0  0  0  0  0  0  0  0  0
   -4.0025    0.4471   -0.1425 C   0  0  0  0  0  0  0  0  0  0  0  0
   -5.3878    0.4074   -0.2113 C   0  0  0  0  0  0  0  0  0  0  0  0
   -6.0782   -0.7017    0.2442 C   0  0  0  0  0  0  0  0  0  0  0  0
    5.8071   -0.4702    0.7729 C   0  0  0  0  0  0  0  0  0  0  0  0
    4.8493   -0.9698   -0.0950 C   0  0  0  0  0  0  0  0  0  0  0  0
    3.7353   -0.2311   -0.4658 C   0  0  0  0  0  0  0  0  0  0  0  0
    2.6521    3.0654   -0.7441 O   0  0  0  0  0  0  0  0  0  0  0  0
    0.6942   -0.1805    0.4211 S   0  0  0  0  0  0  0  0  0  0  0  0
   -0.9804    0.2018    0.1529 C   0  0  0  0  0  0  0  0  0  0  0  0
   -1.9108   -0.7011    0.5015 N   0  0  0  0  0  0  0  0  0  0  0  0
   -3.3014   -0.6354    0.3874 C   0  0  0  0  0  0  0  0  0  0  0  0
   -4.0141   -1.7469    0.8440 C   0  0  0  0  0  0  0  0  0  0  0  0
   -5.3937   -1.7845    0.7751 C   0  0  0  0  0  0  0  0  0  0  0  0
    5.9710   -2.9540   -0.2807 O   0  0  0  0  0  0  0  0  0  0  0  0
    5.0158   -2.3096   -0.6420 N   0  0  0  0  0  0  0  0  0  0  0  0
    4.1902   -2.7076   -1.4290 O   0  0  0  0  0  0  0  0  0  0  0  0
    0.6966    3.7954   -1.2913 H   0  0  0  0  0  0  0  0  0  0  0  0
   -1.0383    3.6742   -1.3418 H   0  0  0  0  0  0  0  0  0  0  0  0
    6.3859    1.2254    1.9379 H   0  0  0  0  0  0  0  0  0  0  0  0
    4.4441    2.5855    1.2710 H   0  0  0  0  0  0  0  0  0  0  0  0
   -3.4838    1.3194   -0.5044 H   0  0  0  0  0  0  0  0  0  0  0  0
   -5.9191    1.2535   -0.6250 H   0  0  0  0  0  0  0  0  0  0  0  0
    6.6655   -1.0580    1.0638 H   0  0  0  0  0  0  0  0  0  0  0  0
    3.0144   -0.6407   -1.1600 H   0  0  0  0  0  0  0  0  0  0  0  0
   -1.5652   -1.5577    0.9082 H   0  0  0  0  0  0  0  0  0  0  0  0
   -3.4866   -2.5966    1.2599 H   0  0  0  0  0  0  0  0  0  0  0  0
   -5.9250   -2.6547    1.1349 H   0  0  0  0  0  0  0  0  0  0  0  0
   -0.1433    3.2613   -1.1441 N   0  0  0  0  0  0  0  0  0  0  0  0
 36  7  1  0
  2 12  2  0
  3  2  1  0
  4  3  2  0
  4 14  1  0
  5  4  1  0
  6  5  1  0
  6 16  1  0
  7  6  2  0
  8  7  1  0
  8 17  2  0
  9 19  2  0
  9 10  1  0
 10 11  2  0
 11  1  1  0
 11 21  1  0
 13 12  1  0
 13 23  1  0
 14 13  2  0
 15  5  2  0
 17 16  1  0
 18 17  1  0
 18 19  1  0
 19 20  1  0
 20 21  2  0
 23 22  2  0
 24 23  1  0
 36 25  1  0
 36 26  1  0
  2 27  1  0
  3 28  1  0
  9 29  1  0
 10 30  1  0
 12 31  1  0
 14 32  1  0
 18 33  1  0
 20 34  1  0
 21 35  1  0
M  CHG  2  23   1  24  -1
M  END
