
     RDKit          3D

 97103  0  0  0  0  0  0  0  0999 V2000
    7.2993    7.3168   -1.7536 O   0  0  0  0  0  0  0  0  0  0  0  0
    7.3399    6.2300   -1.1972 C   0  0  0  0  0  0  0  0  0  0  0  0
    8.1932    5.8614   -0.2084 N   0  0  0  0  0  0  0  0  0  0  0  0
    7.9666    4.5303    0.2901 C   0  0  2  0  0  0  0  0  0  0  0  0
    6.5453    5.1576   -1.4629 N   0  0  0  0  0  0  0  0  0  0  0  0
    6.8723    3.9930   -0.6800 C   0  0  2  0  0  0  0  0  0  0  0  0
    5.6926    3.4781    0.1532 C   0  0  1  0  0  0  0  0  0  0  0  0
    5.6179    4.6086    1.5820 S   0  0  0  0  0  0  0  0  0  0  0  0
    7.4194    4.4947    1.7217 C   0  0  0  0  0  0  0  0  0  0  0  0
    4.3785    3.3804   -0.5967 C   0  0  0  0  0  0  0  0  0  0  0  0
    3.2481    2.8097    0.2499 C   0  0  0  0  0  0  0  0  0  0  0  0
    2.0162    2.4697   -0.5767 C   0  0  0  0  0  0  0  0  0  0  0  0
    0.9280    1.8471    0.2823 C   0  0  0  0  0  0  0  0  0  0  0  0
   -0.1387    1.1269   -0.5094 C   0  0  0  0  0  0  0  0  0  0  0  0
   -0.2138    1.1356   -1.7219 O   0  0  0  0  0  0  0  0  0  0  0  0
   -1.0063    0.4399    0.2747 N   0  0  0  0  0  0  0  0  0  0  0  0
   -1.9486   -0.3903   -0.2655 N   0  0  0  0  0  0  0  0  0  0  0  0
   -2.0264   -1.6957    0.2142 C   0  0  0  0  0  0  0  0  0  0  0  0
   -3.2923   -2.2989    0.3238 C   0  0  0  0  0  0  0  0  0  0  0  0
   -4.5355   -1.5566    0.0012 C   0  0  0  0  0  0  0  0  0  0  0  0
   -5.3128   -1.9341   -1.0919 C   0  0  0  0  0  0  0  0  0  0  0  0
   -6.5001   -1.2801   -1.3782 C   0  0  0  0  0  0  0  0  0  0  0  0
   -6.9110   -0.2337   -0.5628 C   0  0  0  0  0  0  0  0  0  0  0  0
   -8.4666    0.5519   -0.8767 S   0  0  1  0  0  0  0  0  0  0  0  0
   -8.7783    0.3943   -2.2870 O   0  0  0  0  0  0  0  0  0  0  0  0
   -9.5944   -0.3173   -0.0337 N   0  0  0  0  0  0  0  0  0  0  0  0
   -9.5170   -0.2580    1.4271 C   0  0  0  0  0  0  0  0  0  0  0  0
  -10.8173   -0.7936    1.9976 C   0  0  0  0  0  0  0  0  0  0  0  0
  -11.0849   -2.0999    1.5463 O   0  0  0  0  0  0  0  0  0  0  0  0
  -11.1726   -2.1410    0.1420 C   0  0  0  0  0  0  0  0  0  0  0  0
   -9.8901   -1.6668   -0.5178 C   0  0  0  0  0  0  0  0  0  0  0  0
   -8.4306    1.8807   -0.2907 O   0  0  0  0  0  0  0  0  0  0  0  0
   -6.1486    0.1651    0.5281 C   0  0  0  0  0  0  0  0  0  0  0  0
   -4.9657   -0.5002    0.8047 C   0  0  0  0  0  0  0  0  0  0  0  0
   -3.4022   -3.6153    0.7540 C   0  0  0  0  0  0  0  0  0  0  0  0
   -2.2824   -4.3401    1.1253 C   0  0  0  0  0  0  0  0  0  0  0  0
   -1.0382   -3.7417    1.0295 C   0  0  0  0  0  0  0  0  0  0  0  0
   -0.8841   -2.4404    0.5571 C   0  0  0  0  0  0  0  0  0  0  0  0
    0.5058   -1.9441    0.4017 C   0  0  0  0  0  0  0  0  0  0  0  0
    1.3412   -1.8479    1.5139 C   0  0  0  0  0  0  0  0  0  0  0  0
    2.6653   -1.4644    1.3796 C   0  0  0  0  0  0  0  0  0  0  0  0
    3.1606   -1.1727    0.1147 C   0  0  0  0  0  0  0  0  0  0  0  0
    2.3442   -1.2592   -1.0069 C   0  0  0  0  0  0  0  0  0  0  0  0
    1.0251   -1.6529   -0.8577 C   0  0  0  0  0  0  0  0  0  0  0  0
    4.8739   -0.7779   -0.0784 S   0  0  1  0  0  0  0  0  0  0  0  0
    5.0383   -0.0110   -1.3015 O   0  0  0  0  0  0  0  0  0  0  0  0
    5.3642   -0.2426    1.1823 O   0  0  0  0  0  0  0  0  0  0  0  0
    5.6495   -2.2248   -0.3134 N   0  0  0  0  0  0  0  0  0  0  0  0
    5.3655   -2.9211   -1.5703 C   0  0  0  0  0  0  0  0  0  0  0  0
    6.3944   -4.0224   -1.7515 C   0  0  0  0  0  0  0  0  0  0  0  0
    6.3977   -4.9144   -0.6625 O   0  0  0  0  0  0  0  0  0  0  0  0
    6.6881   -4.2394    0.5379 C   0  0  0  0  0  0  0  0  0  0  0  0
    5.6792   -3.1423    0.8276 C   0  0  0  0  0  0  0  0  0  0  0  0
    8.7519    6.5373    0.2847 H   0  0  0  0  0  0  0  0  0  0  0  0
    6.0571    5.0907   -2.3401 H   0  0  0  0  0  0  0  0  0  0  0  0
    8.8801    3.9336    0.2410 H   0  0  0  0  0  0  0  0  0  0  0  0
    7.2508    3.1835   -1.3106 H   0  0  0  0  0  0  0  0  0  0  0  0
    7.6902    3.5521    2.2002 H   0  0  0  0  0  0  0  0  0  0  0  0
    7.8085    5.3090    2.3322 H   0  0  0  0  0  0  0  0  0  0  0  0
    5.9593    2.4845    0.5294 H   0  0  0  0  0  0  0  0  0  0  0  0
    4.0940    4.3595   -0.9905 H   0  0  0  0  0  0  0  0  0  0  0  0
    4.5361    2.7224   -1.4569 H   0  0  0  0  0  0  0  0  0  0  0  0
    3.5989    1.9020    0.7509 H   0  0  0  0  0  0  0  0  0  0  0  0
    2.9829    3.5117    1.0471 H   0  0  0  0  0  0  0  0  0  0  0  0
    1.6393    3.3649   -1.0780 H   0  0  0  0  0  0  0  0  0  0  0  0
    2.3063    1.7719   -1.3659 H   0  0  0  0  0  0  0  0  0  0  0  0
    1.3760    1.1244    0.9721 H   0  0  0  0  0  0  0  0  0  0  0  0
    0.4532    2.6029    0.9162 H   0  0  0  0  0  0  0  0  0  0  0  0
   -0.9799    0.5500    1.2797 H   0  0  0  0  0  0  0  0  0  0  0  0
   -2.8391    0.0653   -0.4041 H   0  0  0  0  0  0  0  0  0  0  0  0
   -4.3861   -4.0611    0.8307 H   0  0  0  0  0  0  0  0  0  0  0  0
   -4.9833   -2.7422   -1.7316 H   0  0  0  0  0  0  0  0  0  0  0  0
   -4.3812   -0.1985    1.6650 H   0  0  0  0  0  0  0  0  0  0  0  0
   -7.0824   -1.5833   -2.2377 H   0  0  0  0  0  0  0  0  0  0  0  0
   -6.4606    0.9854    1.1598 H   0  0  0  0  0  0  0  0  0  0  0  0
   -8.6717   -0.8484    1.8038 H   0  0  0  0  0  0  0  0  0  0  0  0
   -9.3898    0.7723    1.7546 H   0  0  0  0  0  0  0  0  0  0  0  0
  -10.0383   -1.6548   -1.5959 H   0  0  0  0  0  0  0  0  0  0  0  0
   -9.0700   -2.3606   -0.2902 H   0  0  0  0  0  0  0  0  0  0  0  0
  -10.7437   -0.8280    3.0849 H   0  0  0  0  0  0  0  0  0  0  0  0
  -11.6373   -0.1126    1.7323 H   0  0  0  0  0  0  0  0  0  0  0  0
  -11.3626   -3.1748   -0.1475 H   0  0  0  0  0  0  0  0  0  0  0  0
  -12.0105   -1.5268   -0.2139 H   0  0  0  0  0  0  0  0  0  0  0  0
   -2.3781   -5.3567    1.4809 H   0  0  0  0  0  0  0  0  0  0  0  0
   -0.1504   -4.3020    1.2964 H   0  0  0  0  0  0  0  0  0  0  0  0
    0.9510   -2.0658    2.4997 H   0  0  0  0  0  0  0  0  0  0  0  0
    0.3915   -1.7236   -1.7316 H   0  0  0  0  0  0  0  0  0  0  0  0
    3.2925   -1.3852    2.2570 H   0  0  0  0  0  0  0  0  0  0  0  0
    2.7201   -1.0179   -1.9920 H   0  0  0  0  0  0  0  0  0  0  0  0
    4.3561   -3.3529   -1.5651 H   0  0  0  0  0  0  0  0  0  0  0  0
    5.4396   -2.2295   -2.4076 H   0  0  0  0  0  0  0  0  0  0  0  0
    5.9931   -2.6148    1.7262 H   0  0  0  0  0  0  0  0  0  0  0  0
    4.6893   -3.5812    1.0093 H   0  0  0  0  0  0  0  0  0  0  0  0
    6.1537   -4.5942   -2.6480 H   0  0  0  0  0  0  0  0  0  0  0  0
    7.3869   -3.5732   -1.8901 H   0  0  0  0  0  0  0  0  0  0  0  0
    6.6605   -4.9712    1.3453 H   0  0  0  0  0  0  0  0  0  0  0  0
    7.6956   -3.8036    0.5053 H   0  0  0  0  0  0  0  0  0  0  0  0
  1  2  2  0
  2  3  1  0
  2  5  1  0
  3  4  1  0
  4  6  1  0
  4  9  1  0
  5  6  1  0
  6  7  1  0
  7  8  1  0
  7 10  1  0
  8  9  1  0
 10 11  1  0
 11 12  1  0
 12 13  1  0
 13 14  1  0
 14 15  2  0
 14 16  1  0
 16 17  1  0
 17 18  1  0
 18 19  1  0
 18 38  2  0
 19 20  1  0
 19 35  2  0
 20 21  2  0
 20 34  1  0
 21 22  1  0
 22 23  2  0
 24 23  1  6
 23 33  1  0
 24 25  2  0
 24 26  1  0
 24 32  2  0
 26 27  1  0
 26 31  1  0
 27 28  1  0
 28 29  1  0
 29 30  1  0
 30 31  1  0
 33 34  2  0
 35 36  1  0
 36 37  2  0
 37 38  1  0
 38 39  1  0
 39 40  2  0
 39 44  1  0
 40 41  1  0
 41 42  2  0
 42 43  1  0
 45 42  1  1
 43 44  2  0
 45 46  2  0
 45 47  2  0
 45 48  1  0
 48 49  1  0
 48 53  1  0
 49 50  1  0
 50 51  1  0
 51 52  1  0
 52 53  1  0
  3 54  1  0
  5 55  1  0
  4 56  1  1
  6 57  1  6
  9 58  1  0
  9 59  1  0
  7 60  1  1
 10 61  1  0
 10 62  1  0
 11 63  1  0
 11 64  1  0
 12 65  1  0
 12 66  1  0
 13 67  1  0
 13 68  1  0
 16 69  1  0
 17 70  1  0
 35 71  1  0
 21 72  1  0
 34 73  1  0
 22 74  1  0
 33 75  1  0
 27 76  1  0
 27 77  1  0
 31 78  1  0
 31 79  1  0
 28 80  1  0
 28 81  1  0
 30 82  1  0
 30 83  1  0
 36 84  1  0
 37 85  1  0
 40 86  1  0
 44 87  1  0
 41 88  1  0
 43 89  1  0
 49 90  1  0
 49 91  1  0
 53 92  1  0
 53 93  1  0
 50 94  1  0
 50 95  1  0
 52 96  1  0
 52 97  1  0
M  END
