
     RDKit          3D

 26 27  0  0  0  0  0  0  0  0999 V2000
   -0.8654   -2.2920    0.1492 C   0  0  0  0  0  0  0  0  0  0  0  0
    0.2102   -1.3190    0.2154 C   0  0  0  0  0  0  0  0  0  0  0  0
    0.0000    0.0148    0.1632 C   0  0  0  0  0  0  0  0  0  0  0  0
    1.1096    1.0287    0.2250 C   0  0  0  0  0  0  0  0  0  0  0  0
   -1.3569    0.5146    0.0645 C   0  0  0  0  0  0  0  0  0  0  0  0
   -1.6858    1.8784    0.0433 C   0  0  0  0  0  0  0  0  0  0  0  0
   -2.9956    2.2963   -0.0480 C   0  0  0  0  0  0  0  0  0  0  0  0
   -4.0217    1.3521   -0.1229 C   0  0  0  0  0  0  0  0  0  0  0  0
   -3.7326    0.0054   -0.0988 C   0  0  0  0  0  0  0  0  0  0  0  0
   -2.4044   -0.4192   -0.0009 C   0  0  0  0  0  0  0  0  0  0  0  0
   -2.1169   -1.7583    0.0343 N   0  0  0  0  0  0  0  0  0  0  0  0
   -0.6899   -3.5041    0.1871 O   0  0  0  0  0  0  0  0  0  0  0  0
    3.2995   -0.5620    0.9942 O   0  0  0  0  0  0  0  0  0  0  0  0
    2.9008   -0.1867   -1.4669 O   0  0  0  0  0  0  0  0  0  0  0  0
    3.5725    1.8399   -0.0103 O   0  0  0  0  0  0  0  0  0  0  0  0
    2.8050    0.4308    0.0116 P   0  0  1  0  0  0  0  0  0  0  0  0
    1.1991   -1.7409    0.3237 H   0  0  0  0  0  0  0  0  0  0  0  0
    0.9449    1.7986   -0.5335 H   0  0  0  0  0  0  0  0  0  0  0  0
    1.0709    1.5493    1.1875 H   0  0  0  0  0  0  0  0  0  0  0  0
   -0.9056    2.6241    0.1027 H   0  0  0  0  0  0  0  0  0  0  0  0
   -3.2249    3.3530   -0.0616 H   0  0  0  0  0  0  0  0  0  0  0  0
   -5.0518    1.6744   -0.1983 H   0  0  0  0  0  0  0  0  0  0  0  0
   -4.5266   -0.7289   -0.1521 H   0  0  0  0  0  0  0  0  0  0  0  0
   -2.8869   -2.4122   -0.0167 H   0  0  0  0  0  0  0  0  0  0  0  0
    2.6487    0.4059   -2.1874 H   0  0  0  0  0  0  0  0  0  0  0  0
    4.5349    1.7620    0.0506 H   0  0  0  0  0  0  0  0  0  0  0  0
 13 16  2  0
 16 15  1  6
  8  7  2  0
  8  9  1  0
  7  6  1  0
  9 10  2  0
 16 14  1  0
 16  4  1  0
  6  5  2  0
 10  5  1  0
 10 11  1  0
  5  3  1  0
 11  1  1  0
  3  2  2  0
  3  4  1  0
  1 12  2  0
  1  2  1  0
  2 17  1  0
  4 18  1  0
  4 19  1  0
  6 20  1  0
  7 21  1  0
  8 22  1  0
  9 23  1  0
 11 24  1  0
 14 25  1  0
 15 26  1  0
M  END
