
     RDKit          3D

 30 30  0  0  0  0  0  0  0  0999 V2000
   -0.2431    1.4027   -0.0927 C   0  0  0  0  0  0  0  0  0  0  0  0
    0.7179    0.2236   -0.1971 C   0  0  1  0  0  0  0  0  0  0  0  0
    2.0444    0.6415    0.2092 N   0  0  0  0  0  0  0  0  0  0  0  0
    3.1570   -0.0800   -0.1329 C   0  0  0  0  0  0  0  0  0  0  0  0
    4.2801    0.2676    0.5912 N   0  0  0  0  0  0  0  0  0  0  0  0
    3.1034   -0.9933   -1.0320 N   0  0  0  0  0  0  0  0  0  0  0  0
    0.1963   -0.9625    0.6143 C   0  0  0  0  0  0  0  0  0  0  0  0
   -1.2182   -1.3473    0.1963 C   0  0  0  0  0  0  0  0  0  0  0  0
   -2.1873   -0.1721    0.3069 C   0  0  1  0  0  0  0  0  0  0  0  0
   -1.6579    1.0104   -0.5043 C   0  0  0  0  0  0  0  0  0  0  0  0
   -3.5916   -0.5844   -0.1196 C   0  0  0  0  0  0  0  0  0  0  0  0
   -4.5629    0.4821    0.0838 N   0  0  0  0  0  0  0  0  0  0  0  0
   -0.2559    1.7676    0.9421 H   0  0  0  0  0  0  0  0  0  0  0  0
    0.1165    2.2287   -0.7115 H   0  0  0  0  0  0  0  0  0  0  0  0
    0.7849   -0.0773   -1.2460 H   0  0  0  0  0  0  0  0  0  0  0  0
    2.0814    1.0990    1.1081 H   0  0  0  0  0  0  0  0  0  0  0  0
    4.3169    1.2153    0.9348 H   0  0  0  0  0  0  0  0  0  0  0  0
    5.1559   -0.0093    0.1771 H   0  0  0  0  0  0  0  0  0  0  0  0
    4.0258   -1.3763   -1.2039 H   0  0  0  0  0  0  0  0  0  0  0  0
    0.8754   -1.8098    0.4965 H   0  0  0  0  0  0  0  0  0  0  0  0
    0.2043   -0.6918    1.6766 H   0  0  0  0  0  0  0  0  0  0  0  0
   -1.2059   -1.7069   -0.8402 H   0  0  0  0  0  0  0  0  0  0  0  0
   -1.5723   -2.1840    0.8056 H   0  0  0  0  0  0  0  0  0  0  0  0
   -2.2373    0.1325    1.3607 H   0  0  0  0  0  0  0  0  0  0  0  0
   -2.3158    1.8765   -0.3961 H   0  0  0  0  0  0  0  0  0  0  0  0
   -1.6676    0.7438   -1.5685 H   0  0  0  0  0  0  0  0  0  0  0  0
   -3.5503   -0.9474   -1.1586 H   0  0  0  0  0  0  0  0  0  0  0  0
   -3.9012   -1.4401    0.4877 H   0  0  0  0  0  0  0  0  0  0  0  0
   -4.4232    1.2064   -0.6091 H   0  0  0  0  0  0  0  0  0  0  0  0
   -5.4931    0.1234   -0.0890 H   0  0  0  0  0  0  0  0  0  0  0  0
  2  1  1  0
  1 10  1  0
  1 13  1  0
  1 14  1  0
  3  2  1  0
  2  7  1  0
  2 15  1  6
  4  3  1  0
  3 16  1  0
  6  4  2  0
  4  5  1  0
  5 17  1  0
  5 18  1  0
  6 19  1  0
  7  8  1  0
  7 20  1  0
  7 21  1  0
  8  9  1  0
  8 22  1  0
  8 23  1  0
 10  9  1  0
  9 11  1  0
  9 24  1  1
 10 25  1  0
 10 26  1  0
 11 12  1  0
 11 27  1  0
 11 28  1  0
 12 29  1  0
 12 30  1  0
M  END
