
     RDKit          3D

 43 44  0  0  0  0  0  0  0  0999 V2000
    5.5248   -1.4337   -0.0619 C   0  0  0  0  0  0  0  0  0  0  0  0
    4.0180   -1.6718   -0.0997 C   0  0  1  0  0  0  0  0  0  0  0  0
    3.6007   -2.0443   -1.5286 C   0  0  0  0  0  0  0  0  0  0  0  0
    3.6606   -2.8105    0.8654 C   0  0  0  0  0  0  0  0  0  0  0  0
    3.2873   -0.3970    0.3234 C   0  0  0  0  0  0  0  0  0  0  0  0
    3.8585    0.6270    0.6666 O   0  0  0  0  0  0  0  0  0  0  0  0
    1.9415   -0.4563    0.2955 N   0  0  0  0  0  0  0  0  0  0  0  0
    1.1317    0.6808    0.6418 C   0  0  1  0  0  0  0  0  0  0  0  0
    1.4883    1.8797   -0.2476 C   0  0  0  0  0  0  0  0  0  0  0  0
    1.7207    1.7707   -1.4342 O   0  0  0  0  0  0  0  0  0  0  0  0
    1.4512    3.0427    0.4166 N   0  0  0  0  0  0  0  0  0  0  0  0
    1.5196    4.2225   -0.2558 O   0  0  0  0  0  0  0  0  0  0  0  0
   -0.3309    0.3659    0.4429 C   0  0  0  0  0  0  0  0  0  0  0  0
   -0.8003   -0.1166   -0.7771 C   0  0  0  0  0  0  0  0  0  0  0  0
   -2.1408   -0.4059   -0.9585 C   0  0  0  0  0  0  0  0  0  0  0  0
   -1.2400    0.5724    1.4720 C   0  0  0  0  0  0  0  0  0  0  0  0
   -2.5888    0.3050    1.2975 C   0  0  0  0  0  0  0  0  0  0  0  0
   -3.0397   -0.1974    0.0831 C   0  0  0  0  0  0  0  0  0  0  0  0
   -4.4012   -0.5022   -0.0957 N   0  0  0  0  0  0  0  0  0  0  0  0
   -4.9225   -0.5690   -1.3233 N   0  0  0  0  0  0  0  0  0  0  0  0
   -6.1878   -0.8844   -1.1491 C   0  0  0  0  0  0  0  0  0  0  0  0
   -6.5004   -1.0290    0.2158 C   0  0  0  0  0  0  0  0  0  0  0  0
   -5.3198   -0.7760    0.8623 C   0  0  0  0  0  0  0  0  0  0  0  0
    5.8288   -0.6428   -0.7478 H   0  0  0  0  0  0  0  0  0  0  0  0
    5.8709   -1.1676    0.9369 H   0  0  0  0  0  0  0  0  0  0  0  0
    6.0425   -2.3469   -0.3597 H   0  0  0  0  0  0  0  0  0  0  0  0
    4.1750   -2.9087   -1.8643 H   0  0  0  0  0  0  0  0  0  0  0  0
    2.5448   -2.3078   -1.6061 H   0  0  0  0  0  0  0  0  0  0  0  0
    3.7905   -1.2264   -2.2253 H   0  0  0  0  0  0  0  0  0  0  0  0
    3.9451   -2.5669    1.8903 H   0  0  0  0  0  0  0  0  0  0  0  0
    2.5962   -3.0498    0.8615 H   0  0  0  0  0  0  0  0  0  0  0  0
    4.1952   -3.7171    0.5773 H   0  0  0  0  0  0  0  0  0  0  0  0
    1.4767   -1.3134    0.0462 H   0  0  0  0  0  0  0  0  0  0  0  0
    1.2897    0.9467    1.6924 H   0  0  0  0  0  0  0  0  0  0  0  0
    1.2256    3.1172    1.3982 H   0  0  0  0  0  0  0  0  0  0  0  0
    2.4520    4.4764   -0.2679 H   0  0  0  0  0  0  0  0  0  0  0  0
   -0.1175   -0.2718   -1.6027 H   0  0  0  0  0  0  0  0  0  0  0  0
   -2.4867   -0.7930   -1.9060 H   0  0  0  0  0  0  0  0  0  0  0  0
   -0.8990    0.9530    2.4266 H   0  0  0  0  0  0  0  0  0  0  0  0
   -3.2755    0.4973    2.1108 H   0  0  0  0  0  0  0  0  0  0  0  0
   -6.8406   -0.9983   -2.0009 H   0  0  0  0  0  0  0  0  0  0  0  0
   -7.4467   -1.2886    0.6592 H   0  0  0  0  0  0  0  0  0  0  0  0
   -5.0718   -0.7923    1.9104 H   0  0  0  0  0  0  0  0  0  0  0  0
  4  2  1  0
 12 11  1  0
  1  2  1  0
  2  3  1  0
  2  5  1  1
 11  9  1  0
 10  9  2  0
  5  7  1  0
  5  6  2  0
  9  8  1  0
  7  8  1  0
  8 13  1  0
 13 16  2  0
 13 14  1  0
 16 17  1  0
 14 15  2  0
 17 18  2  0
 15 18  1  0
 18 19  1  0
 19 20  1  0
 19 23  1  0
 20 21  2  0
 23 22  2  0
 21 22  1  0
  1 24  1  0
  1 25  1  0
  1 26  1  0
  3 27  1  0
  3 28  1  0
  3 29  1  0
  4 30  1  0
  4 31  1  0
  4 32  1  0
  7 33  1  0
  8 34  1  1
 11 35  1  0
 12 36  1  0
 14 37  1  0
 15 38  1  0
 16 39  1  0
 17 40  1  0
 21 41  1  0
 22 42  1  0
 23 43  1  0
M  END
