
     RDKit          3D

 37 39  0  0  0  0  0  0  0  0999 V2000
    3.4322   -2.1122   -0.3202 N   0  0  0  0  0  0  0  0  0  0  0  0
    2.3049   -2.8066   -0.4294 C   0  0  0  0  0  0  0  0  0  0  0  0
    1.0692   -2.3510   -0.4507 N   0  0  0  0  0  0  0  0  0  0  0  0
    1.0136   -1.0231   -0.3531 C   0  0  0  0  0  0  0  0  0  0  0  0
    2.0977   -0.1510   -0.2429 C   0  0  0  0  0  0  0  0  0  0  0  0
    3.3671   -0.7792   -0.2235 C   0  0  0  0  0  0  0  0  0  0  0  0
    4.5074   -0.0989   -0.0933 N   0  0  0  0  0  0  0  0  0  0  0  0
    1.5536    1.1765   -0.1596 C   0  0  0  0  0  0  0  0  0  0  0  0
    0.1918    1.0337   -0.2399 C   0  0  0  0  0  0  0  0  0  0  0  0
   -0.1335   -0.2843   -0.3525 N   0  0  0  0  0  0  0  0  0  0  0  0
   -1.4781   -0.8255   -0.4221 C   0  0  1  0  0  0  0  0  0  0  0  0
    2.2815    2.4527   -0.0927 C   0  0  0  0  0  0  0  0  0  0  0  0
    1.5661    3.5330    0.2561 N   0  0  0  0  0  0  0  0  0  0  0  0
    3.4798    2.5318   -0.3638 O   0  0  0  0  0  0  0  0  0  0  0  0
   -2.1275   -1.0259    0.9528 C   0  0  2  0  0  0  0  0  0  0  0  0
   -1.8069   -2.2836    1.4524 O   0  0  0  0  0  0  0  0  0  0  0  0
   -3.6040   -0.7720    0.6371 C   0  0  2  0  0  0  0  0  0  0  0  0
   -4.1328   -1.9399    0.0706 O   0  0  0  0  0  0  0  0  0  0  0  0
   -3.4771    0.3661   -0.3734 C   0  0  2  0  0  0  0  0  0  0  0  0
   -2.2881    0.0762   -1.1119 O   0  0  0  0  0  0  0  0  0  0  0  0
   -3.4057    1.7225    0.3068 C   0  0  0  0  0  0  0  0  0  0  0  0
   -3.0261    2.6873   -0.6426 O   0  0  0  0  0  0  0  0  0  0  0  0
    2.4233   -3.8824   -0.5095 H   0  0  0  0  0  0  0  0  0  0  0  0
    5.3811   -0.5863   -0.1968 H   0  0  0  0  0  0  0  0  0  0  0  0
    4.4845    0.9089   -0.1824 H   0  0  0  0  0  0  0  0  0  0  0  0
   -0.5774    1.7892   -0.2831 H   0  0  0  0  0  0  0  0  0  0  0  0
   -1.4017   -1.7816   -0.9503 H   0  0  0  0  0  0  0  0  0  0  0  0
    0.6420    3.4700    0.6454 H   0  0  0  0  0  0  0  0  0  0  0  0
    2.0215    4.4291    0.3190 H   0  0  0  0  0  0  0  0  0  0  0  0
   -1.7821   -0.2280    1.6236 H   0  0  0  0  0  0  0  0  0  0  0  0
   -2.0770   -2.3252    2.3750 H   0  0  0  0  0  0  0  0  0  0  0  0
   -4.1650   -0.4586    1.5275 H   0  0  0  0  0  0  0  0  0  0  0  0
   -5.0548   -1.7788   -0.1534 H   0  0  0  0  0  0  0  0  0  0  0  0
   -4.3084    0.3706   -1.0849 H   0  0  0  0  0  0  0  0  0  0  0  0
   -4.3973    1.9287    0.7304 H   0  0  0  0  0  0  0  0  0  0  0  0
   -2.7048    1.6970    1.1535 H   0  0  0  0  0  0  0  0  0  0  0  0
   -3.0163    3.5452   -0.2084 H   0  0  0  0  0  0  0  0  0  0  0  0
  1  2  2  0
  1  6  1  0
  2  3  1  0
  3  4  2  0
  4  5  1  0
  4 10  1  0
  5  6  2  0
  5  8  1  0
  6  7  1  0
  8  9  2  0
  8 12  1  0
  9 10  1  0
 10 11  1  0
 11 15  1  0
 11 20  1  0
 12 13  1  0
 12 14  2  0
 15 16  1  0
 15 17  1  0
 17 18  1  0
 17 19  1  0
 19 20  1  0
 19 21  1  0
 21 22  1  0
  2 23  1  0
  7 24  1  0
  7 25  1  0
  9 26  1  0
 11 27  1  6
 13 28  1  0
 13 29  1  0
 15 30  1  1
 16 31  1  0
 17 32  1  1
 18 33  1  0
 19 34  1  6
 21 35  1  0
 21 36  1  0
 22 37  1  0
M  END
