
     RDKit          3D

 62 66  0  0  0  0  0  0  0  0999 V2000
    4.5932   -2.7852   -0.3384 C   0  0  0  0  0  0  0  0  0  0  0  0
    5.7885   -2.0819   -0.2332 C   0  0  0  0  0  0  0  0  0  0  0  0
    5.7529   -0.6945   -0.1999 C   0  0  0  0  0  0  0  0  0  0  0  0
    4.5487    0.0008   -0.2673 C   0  0  0  0  0  0  0  0  0  0  0  0
    3.3377   -0.6970   -0.3678 C   0  0  0  0  0  0  0  0  0  0  0  0
    3.3969   -2.0896   -0.4061 C   0  0  0  0  0  0  0  0  0  0  0  0
    4.5954    1.5069   -0.2083 C   0  0  0  0  0  0  0  0  0  0  0  0
    3.3024    2.1652   -0.6611 C   0  0  0  0  0  0  0  0  0  0  0  0
    2.1164    1.4834    0.0039 C   0  0  2  0  0  0  0  0  0  0  0  0
    2.0148    0.0350   -0.4961 C   0  0  2  0  0  0  0  0  0  0  0  0
    0.7930    2.1764   -0.2615 C   0  0  1  0  0  0  0  0  0  0  0  0
   -0.3943    1.4981    0.4533 C   0  0  2  0  0  0  0  0  0  0  0  0
   -0.4942    0.0533   -0.0288 C   0  0  0  0  0  0  0  0  0  0  0  0
    0.8344   -0.6858    0.1628 C   0  0  0  0  0  0  0  0  0  0  0  0
    0.6358    3.6554    0.0782 C   0  0  0  0  0  0  0  0  0  0  0  0
   -0.8826    3.8594   -0.0138 C   0  0  0  0  0  0  0  0  0  0  0  0
   -1.5019    2.4764    0.0991 C   0  0  0  0  0  0  0  0  0  0  0  0
    6.9932   -2.6895   -0.1647 O   0  0  0  0  0  0  0  0  0  0  0  0
   -2.7388    2.3142   -0.1065 N   0  0  0  0  0  0  0  0  0  0  0  0
   -0.2684    1.5529    1.9892 C   0  0  0  0  0  0  0  0  0  0  0  0
    4.5905   -3.8691   -0.3709 H   0  0  0  0  0  0  0  0  0  0  0  0
    6.6826   -0.1406   -0.1219 H   0  0  0  0  0  0  0  0  0  0  0  0
    2.4864   -2.6675   -0.4972 H   0  0  0  0  0  0  0  0  0  0  0  0
    4.8057    1.8079    0.8237 H   0  0  0  0  0  0  0  0  0  0  0  0
    5.4396    1.8697   -0.7997 H   0  0  0  0  0  0  0  0  0  0  0  0
    3.3320    3.2292   -0.4157 H   0  0  0  0  0  0  0  0  0  0  0  0
    3.1990    2.0965   -1.7496 H   0  0  0  0  0  0  0  0  0  0  0  0
    2.3036    1.4719    1.0864 H   0  0  0  0  0  0  0  0  0  0  0  0
    1.7855    0.1013   -1.5711 H   0  0  0  0  0  0  0  0  0  0  0  0
    0.5957    2.0799   -1.3414 H   0  0  0  0  0  0  0  0  0  0  0  0
   -1.2817   -0.4898    0.4957 H   0  0  0  0  0  0  0  0  0  0  0  0
   -0.7608    0.0402   -1.0903 H   0  0  0  0  0  0  0  0  0  0  0  0
    0.7125   -1.6868   -0.2544 H   0  0  0  0  0  0  0  0  0  0  0  0
    1.0424   -0.8270    1.2280 H   0  0  0  0  0  0  0  0  0  0  0  0
    1.0095    3.8685    1.0822 H   0  0  0  0  0  0  0  0  0  0  0  0
    1.1772    4.3045   -0.6095 H   0  0  0  0  0  0  0  0  0  0  0  0
   -1.2781    4.5207    0.7594 H   0  0  0  0  0  0  0  0  0  0  0  0
   -1.1680    4.2950   -0.9735 H   0  0  0  0  0  0  0  0  0  0  0  0
    6.8858   -3.6460   -0.2053 H   0  0  0  0  0  0  0  0  0  0  0  0
   -1.1118    1.0372    2.4487 H   0  0  0  0  0  0  0  0  0  0  0  0
    0.6425    1.0727    2.3438 H   0  0  0  0  0  0  0  0  0  0  0  0
   -0.2624    2.5738    2.3724 H   0  0  0  0  0  0  0  0  0  0  0  0
   -3.3816    1.0767   -0.0084 C   0  0  0  0  0  0  0  0  0  0  0  0
   -3.7627    0.5471    1.2215 C   0  0  0  0  0  0  0  0  0  0  0  0
   -4.4497   -0.6588    1.2842 C   0  0  0  0  0  0  0  0  0  0  0  0
   -4.7869   -1.3679    0.1367 C   0  0  0  0  0  0  0  0  0  0  0  0
   -4.4250   -0.8124   -1.0912 C   0  0  0  0  0  0  0  0  0  0  0  0
   -3.7468    0.3916   -1.1683 C   0  0  0  0  0  0  0  0  0  0  0  0
   -5.5068   -2.6935    0.2193 C   0  0  1  0  0  0  0  0  0  0  0  0
   -6.8174   -2.6814   -0.5661 C   0  0  0  0  0  0  0  0  0  0  0  0
   -4.6029   -3.8386   -0.2396 C   0  0  0  0  0  0  0  0  0  0  0  0
   -3.5184    1.0769    2.1342 H   0  0  0  0  0  0  0  0  0  0  0  0
   -4.7221   -1.0566    2.2554 H   0  0  0  0  0  0  0  0  0  0  0  0
   -4.6752   -1.3239   -2.0139 H   0  0  0  0  0  0  0  0  0  0  0  0
   -3.4802    0.8024   -2.1344 H   0  0  0  0  0  0  0  0  0  0  0  0
   -5.7513   -2.8682    1.2719 H   0  0  0  0  0  0  0  0  0  0  0  0
   -7.3446   -3.6302   -0.4534 H   0  0  0  0  0  0  0  0  0  0  0  0
   -7.4808   -1.8876   -0.2203 H   0  0  0  0  0  0  0  0  0  0  0  0
   -6.6432   -2.5282   -1.6329 H   0  0  0  0  0  0  0  0  0  0  0  0
   -3.6912   -3.8841    0.3572 H   0  0  0  0  0  0  0  0  0  0  0  0
   -5.1140   -4.7984   -0.1451 H   0  0  0  0  0  0  0  0  0  0  0  0
   -4.3114   -3.7210   -1.2853 H   0  0  0  0  0  0  0  0  0  0  0  0
  1  6  2  0
  1  2  1  0
  6  5  1  0
 18  2  1  0
  2  3  2  0
 14 13  1  0
 14 10  1  0
 13 12  1  0
  5 10  1  0
  5  4  2  0
 10  9  1  0
  3  4  1  0
  4  7  1  0
 19 17  2  0
 12 20  1  1
 12 17  1  0
 12 11  1  0
  9 11  1  0
  9  8  1  0
 17 16  1  0
 11 15  1  0
  7  8  1  0
 16 15  1  0
  1 21  1  0
  3 22  1  0
  6 23  1  0
  7 24  1  0
  7 25  1  0
  8 26  1  0
  8 27  1  0
  9 28  1  1
 10 29  1  6
 11 30  1  6
 13 31  1  0
 13 32  1  0
 14 33  1  0
 14 34  1  0
 15 35  1  0
 15 36  1  0
 16 37  1  0
 16 38  1  0
 18 39  1  0
 20 40  1  0
 20 41  1  0
 20 42  1  0
 19 43  1  0
 43 44  2  0
 44 45  1  0
 45 46  2  0
 46 47  1  0
 47 48  2  0
 48 43  1  0
 46 49  1  0
 49 50  1  0
 49 51  1  0
 44 52  1  0
 45 53  1  0
 47 54  1  0
 48 55  1  0
 49 56  1  1
 50 57  1  0
 50 58  1  0
 50 59  1  0
 51 60  1  0
 51 61  1  0
 51 62  1  0
M  END
