
     RDKit          3D

 32 32  0  0  0  0  0  0  0  0999 V2000
    5.4692   -1.4869    0.0656 N   0  0  0  0  0  0  0  0  0  0  0  0
    4.6150   -0.4273   -0.0144 C   0  0  0  0  0  0  0  0  0  0  0  0
    5.1630    0.7601   -0.3747 N   0  0  0  0  0  0  0  0  0  0  0  0
    3.3577   -0.6274    0.2532 N   0  0  0  0  0  0  0  0  0  0  0  0
    2.6436    0.5416    0.2587 N   0  0  0  0  0  0  0  0  0  0  0  0
    1.3844    0.4532    0.4330 C   0  0  0  0  0  0  0  0  0  0  0  0
    0.5730    1.7144    0.4435 C   0  0  0  0  0  0  0  0  0  0  0  0
   -0.5572    1.6413   -0.5945 C   0  0  0  0  0  0  0  0  0  0  0  0
    0.5885   -0.8077    0.6072 C   0  0  0  0  0  0  0  0  0  0  0  0
   -0.5528   -0.8807   -0.4217 C   0  0  0  0  0  0  0  0  0  0  0  0
   -1.3583    0.3864   -0.4163 C   0  0  0  0  0  0  0  0  0  0  0  0
   -2.6178    0.4894   -0.2521 N   0  0  0  0  0  0  0  0  0  0  0  0
   -3.3242   -0.6713   -0.0756 N   0  0  0  0  0  0  0  0  0  0  0  0
   -4.5984   -0.4474    0.0598 C   0  0  0  0  0  0  0  0  0  0  0  0
   -5.2062    0.7566   -0.0909 N   0  0  0  0  0  0  0  0  0  0  0  0
   -5.4097   -1.4956    0.3773 N   0  0  0  0  0  0  0  0  0  0  0  0
    5.0189   -2.3868    0.1086 H   0  0  0  0  0  0  0  0  0  0  0  0
    6.2769   -1.4729   -0.5364 H   0  0  0  0  0  0  0  0  0  0  0  0
    6.1443    0.8995   -0.1996 H   0  0  0  0  0  0  0  0  0  0  0  0
    4.5768    1.5630   -0.2092 H   0  0  0  0  0  0  0  0  0  0  0  0
    0.1272    1.8473    1.4362 H   0  0  0  0  0  0  0  0  0  0  0  0
    1.2150    2.5760    0.2563 H   0  0  0  0  0  0  0  0  0  0  0  0
   -1.2064    2.5145   -0.5201 H   0  0  0  0  0  0  0  0  0  0  0  0
   -0.1121    1.6460   -1.5962 H   0  0  0  0  0  0  0  0  0  0  0  0
    1.2242   -1.6871    0.5289 H   0  0  0  0  0  0  0  0  0  0  0  0
    0.1532   -0.8070    1.6127 H   0  0  0  0  0  0  0  0  0  0  0  0
   -1.1823   -1.7466   -0.2281 H   0  0  0  0  0  0  0  0  0  0  0  0
   -0.1175   -1.0105   -1.4189 H   0  0  0  0  0  0  0  0  0  0  0  0
   -4.5777    1.5439   -0.1144 H   0  0  0  0  0  0  0  0  0  0  0  0
   -6.0696    0.9127    0.4021 H   0  0  0  0  0  0  0  0  0  0  0  0
   -6.3620   -1.4542    0.0516 H   0  0  0  0  0  0  0  0  0  0  0  0
   -4.9880   -2.4038    0.2689 H   0  0  0  0  0  0  0  0  0  0  0  0
  1  2  1  0
  1 17  1  0
  1 18  1  0
  2  3  1  0
  2  4  2  0
  3 19  1  0
  3 20  1  0
  4  5  1  0
  5  6  2  0
  6  7  1  0
  6  9  1  0
  7  8  1  0
  7 21  1  0
  7 22  1  0
  8 11  1  0
  8 23  1  0
  8 24  1  0
  9 10  1  0
  9 25  1  0
  9 26  1  0
 10 11  1  0
 10 27  1  0
 10 28  1  0
 11 12  2  0
 12 13  1  0
 13 14  2  0
 14 15  1  0
 14 16  1  0
 15 29  1  0
 15 30  1  0
 16 31  1  0
 16 32  1  0
M  END
