
     RDKit          3D

 45 47  0  0  0  0  0  0  0  0999 V2000
   -3.5272   -4.1182    0.8585 O   0  0  0  0  0  0  0  0  0  0  0  0
   -2.6249   -3.2904    0.3433 C   0  0  0  0  0  0  0  0  0  0  0  0
   -1.4869   -3.6107    0.0912 O   0  0  0  0  0  0  0  0  0  0  0  0
   -3.1708   -1.9543    0.1184 C   0  0  0  0  0  0  0  0  0  0  0  0
   -4.4534   -1.6187    0.4915 N   0  0  0  0  0  0  0  0  0  0  0  0
   -4.6865   -0.3269    0.1673 C   0  0  0  0  0  0  0  0  0  0  0  0
   -5.8328    0.4505    0.3510 C   0  0  0  0  0  0  0  0  0  0  0  0
   -5.7631    1.7511   -0.0897 C   0  0  0  0  0  0  0  0  0  0  0  0
   -7.1501    2.7759    0.1042 Cl  0  0  0  0  0  0  0  0  0  0  0  0
   -4.6155    2.2953   -0.6957 C   0  0  0  0  0  0  0  0  0  0  0  0
   -3.4963    1.5148   -0.8697 C   0  0  0  0  0  0  0  0  0  0  0  0
   -3.5168    0.1820   -0.4372 C   0  0  0  0  0  0  0  0  0  0  0  0
   -2.5560   -0.8704   -0.4665 C   0  0  0  0  0  0  0  0  0  0  0  0
   -1.1670   -0.7546   -0.9989 C   0  0  0  0  0  0  0  0  0  0  0  0
   -0.1587   -0.4048    0.0971 C   0  0  0  0  0  0  0  0  0  0  0  0
    1.2387   -0.2801   -0.4725 C   0  0  0  0  0  0  0  0  0  0  0  0
    2.1230    0.0153    0.5970 O   0  0  0  0  0  0  0  0  0  0  0  0
    3.4340    0.1745    0.3374 C   0  0  0  0  0  0  0  0  0  0  0  0
    4.2526    0.4286    1.4367 C   0  0  0  0  0  0  0  0  0  0  0  0
    5.6176    0.6186    1.2883 C   0  0  0  0  0  0  0  0  0  0  0  0
    6.4764    0.8942    2.4850 C   0  0  0  0  0  0  0  0  0  0  0  0
    6.1509    0.5452    0.0001 C   0  0  0  0  0  0  0  0  0  0  0  0
    7.8623    0.7826   -0.2129 Cl  0  0  0  0  0  0  0  0  0  0  0  0
    5.3654    0.2889   -1.1170 C   0  0  0  0  0  0  0  0  0  0  0  0
    5.9503    0.2106   -2.4948 C   0  0  0  0  0  0  0  0  0  0  0  0
    3.9958    0.1038   -0.9324 C   0  0  0  0  0  0  0  0  0  0  0  0
   -3.1359   -4.9931    1.0012 H   0  0  0  0  0  0  0  0  0  0  0  0
   -5.1133   -2.2364    0.9360 H   0  0  0  0  0  0  0  0  0  0  0  0
   -6.7253    0.0505    0.8126 H   0  0  0  0  0  0  0  0  0  0  0  0
   -4.6194    3.3261   -1.0216 H   0  0  0  0  0  0  0  0  0  0  0  0
   -2.6141    1.9348   -1.3359 H   0  0  0  0  0  0  0  0  0  0  0  0
   -0.8689   -1.6836   -1.4857 H   0  0  0  0  0  0  0  0  0  0  0  0
   -1.1490    0.0193   -1.7713 H   0  0  0  0  0  0  0  0  0  0  0  0
   -0.4474    0.5350    0.5746 H   0  0  0  0  0  0  0  0  0  0  0  0
   -0.1740   -1.1801    0.8665 H   0  0  0  0  0  0  0  0  0  0  0  0
    1.5340   -1.2158   -0.9617 H   0  0  0  0  0  0  0  0  0  0  0  0
    1.2742    0.5131   -1.2284 H   0  0  0  0  0  0  0  0  0  0  0  0
    3.8120    0.4795    2.4252 H   0  0  0  0  0  0  0  0  0  0  0  0
    7.2564    0.1405    2.5998 H   0  0  0  0  0  0  0  0  0  0  0  0
    6.9754    1.8611    2.4046 H   0  0  0  0  0  0  0  0  0  0  0  0
    5.8790    0.9005    3.3949 H   0  0  0  0  0  0  0  0  0  0  0  0
    6.6951   -0.5831   -2.5682 H   0  0  0  0  0  0  0  0  0  0  0  0
    5.1757    0.0127   -3.2332 H   0  0  0  0  0  0  0  0  0  0  0  0
    6.4473    1.1415   -2.7714 H   0  0  0  0  0  0  0  0  0  0  0  0
    3.3872   -0.0889   -1.8056 H   0  0  0  0  0  0  0  0  0  0  0  0
 25 24  1  0
 26 24  2  0
 26 18  1  0
 14 13  1  0
 14 15  1  0
 11 10  1  0
 11 12  2  0
 10  8  2  0
 24 22  1  0
 12 13  1  0
 12  6  1  0
 13  4  2  0
  8  9  1  0
  8  7  1  0
  3  2  2  0
 17 18  1  0
 17 16  1  0
  6  7  2  0
  6  5  1  0
  4  5  1  0
  4  2  1  0
 18 19  2  0
  2  1  1  0
 15 16  1  0
 22 23  1  0
 22 20  2  0
 19 20  1  0
 20 21  1  0
  1 27  1  0
  5 28  1  0
  7 29  1  0
 10 30  1  0
 11 31  1  0
 14 32  1  0
 14 33  1  0
 15 34  1  0
 15 35  1  0
 16 36  1  0
 16 37  1  0
 19 38  1  0
 21 39  1  0
 21 40  1  0
 21 41  1  0
 25 42  1  0
 25 43  1  0
 25 44  1  0
 26 45  1  0
M  END
