
     RDKit          3D

 32 33  0  0  0  0  0  0  0  0999 V2000
   -4.3086   -1.6666    0.4327 O   0  0  0  0  0  0  0  0  0  0  0  0
   -3.3880   -1.2898   -0.2568 N   0  0  0  0  0  0  0  0  0  0  0  0
   -2.8150   -1.9851   -1.0602 O   0  0  0  0  0  0  0  0  0  0  0  0
   -2.9713    0.0901   -0.1152 C   0  0  0  0  0  0  0  0  0  0  0  0
   -3.9518    1.0343    0.1636 C   0  0  0  0  0  0  0  0  0  0  0  0
   -3.6094    2.3658    0.2913 C   0  0  0  0  0  0  0  0  0  0  0  0
   -2.2777    2.7399    0.1604 C   0  0  0  0  0  0  0  0  0  0  0  0
   -1.2957    1.8000   -0.0979 C   0  0  0  0  0  0  0  0  0  0  0  0
   -1.6274    0.4571   -0.2479 C   0  0  0  0  0  0  0  0  0  0  0  0
   -0.7131   -0.4989   -0.5034 O   0  0  0  0  0  0  0  0  0  0  0  0
    0.6107   -0.2370   -0.2509 C   0  0  0  0  0  0  0  0  0  0  0  0
    1.4877   -0.0961   -1.3099 C   0  0  0  0  0  0  0  0  0  0  0  0
    2.8276    0.0966   -1.0387 C   0  0  0  0  0  0  0  0  0  0  0  0
    3.6748    0.2253   -2.0776 F   0  0  0  0  0  0  0  0  0  0  0  0
    3.3294    0.1663    0.2504 C   0  0  0  0  0  0  0  0  0  0  0  0
    4.7970    0.3431    0.5211 C   0  0  0  0  0  0  0  0  0  0  0  0
    5.5838   -0.9544    0.3406 C   0  0  0  0  0  0  0  0  0  0  0  0
    2.4184    0.0243    1.2938 C   0  0  0  0  0  0  0  0  0  0  0  0
    1.0628   -0.1805    1.0670 C   0  0  0  0  0  0  0  0  0  0  0  0
    0.1503   -0.3206    2.0425 O   0  0  0  0  0  0  0  0  0  0  0  0
   -4.9828    0.7253    0.2643 H   0  0  0  0  0  0  0  0  0  0  0  0
   -4.3734    3.1038    0.4899 H   0  0  0  0  0  0  0  0  0  0  0  0
   -1.9953    3.7793    0.2608 H   0  0  0  0  0  0  0  0  0  0  0  0
   -0.2645    2.1156   -0.1864 H   0  0  0  0  0  0  0  0  0  0  0  0
    1.1280   -0.1425   -2.3301 H   0  0  0  0  0  0  0  0  0  0  0  0
    5.2108    1.1175   -0.1277 H   0  0  0  0  0  0  0  0  0  0  0  0
    4.9229    0.7011    1.5441 H   0  0  0  0  0  0  0  0  0  0  0  0
    6.6366   -0.7996    0.5776 H   0  0  0  0  0  0  0  0  0  0  0  0
    5.2042   -1.7370    0.9983 H   0  0  0  0  0  0  0  0  0  0  0  0
    5.5237   -1.3209   -0.6840 H   0  0  0  0  0  0  0  0  0  0  0  0
    2.7830    0.0743    2.3143 H   0  0  0  0  0  0  0  0  0  0  0  0
    0.5698   -0.2630    2.9092 H   0  0  0  0  0  0  0  0  0  0  0  0
 16 17  1  0
 16 15  1  0
 15 18  2  0
 15 13  1  0
 18 19  1  0
 14 13  1  0
 13 12  2  0
 19 20  1  0
 19 11  2  0
 12 11  1  0
 11 10  1  0
 10  9  1  0
  9  8  1  0
  9  4  2  0
  8  7  2  0
  1  2  1  0
  7  6  1  0
  4  2  1  0
  4  5  1  0
  2  3  2  0
  6  5  2  0
  5 21  1  0
  6 22  1  0
  7 23  1  0
  8 24  1  0
 12 25  1  0
 16 26  1  0
 16 27  1  0
 17 28  1  0
 17 29  1  0
 17 30  1  0
 18 31  1  0
 20 32  1  0
M  CHG  2   1  -1   2   1
M  END
