
     RDKit          3D

 43 45  0  0  0  0  0  0  0  0999 V2000
    5.5916   -5.8696    1.1816 C   0  0  0  0  0  0  0  0  0  0  0  0
    6.1851   -5.1652    0.1102 O   0  0  0  0  0  0  0  0  0  0  0  0
    5.6614   -3.9757   -0.2427 C   0  0  0  0  0  0  0  0  0  0  0  0
    6.2810   -3.3236   -1.3113 C   0  0  0  0  0  0  0  0  0  0  0  0
    5.7925   -2.1054   -1.7458 C   0  0  0  0  0  0  0  0  0  0  0  0
    4.6911   -1.5193   -1.1335 C   0  0  0  0  0  0  0  0  0  0  0  0
    4.0713   -2.1603   -0.0652 C   0  0  0  0  0  0  0  0  0  0  0  0
    4.5612   -3.3921    0.3784 C   0  0  0  0  0  0  0  0  0  0  0  0
    2.8965   -1.5584    0.5993 C   0  0  0  0  0  0  0  0  0  0  0  0
    1.8819   -0.9653   -0.1525 C   0  0  0  0  0  0  0  0  0  0  0  0
    0.7742   -0.4201    0.4783 C   0  0  0  0  0  0  0  0  0  0  0  0
    0.6687   -0.4560    1.8617 C   0  0  0  0  0  0  0  0  0  0  0  0
    1.6742   -1.0315    2.6340 C   0  0  0  0  0  0  0  0  0  0  0  0
    1.5533   -1.0802    4.1306 C   0  0  0  0  0  0  0  0  0  0  0  0
    0.9112   -2.3805    4.6425 C   0  0  0  0  0  0  0  0  0  0  0  0
    1.7538   -3.5945    4.3740 C   0  0  0  0  0  0  0  0  0  0  0  0
    2.8446   -3.8791    5.1853 C   0  0  0  0  0  0  0  0  0  0  0  0
    3.6004   -5.0095    4.8967 C   0  0  0  0  0  0  0  0  0  0  0  0
    3.2623   -5.8025    3.8213 C   0  0  0  0  0  0  0  0  0  0  0  0
    2.1549   -5.4259    3.0452 C   0  0  0  0  0  0  0  0  0  0  0  0
    1.8099   -6.1321    1.9270 N   0  0  0  0  0  0  0  0  0  0  0  0
    1.4200   -4.3532    3.3319 N   0  0  0  0  0  0  0  0  0  0  0  0
    2.7783   -1.5780    1.9882 C   0  0  0  0  0  0  0  0  0  0  0  0
    4.5438   -6.1096    0.9806 H   0  0  0  0  0  0  0  0  0  0  0  0
    5.6494   -5.3099    2.1187 H   0  0  0  0  0  0  0  0  0  0  0  0
    6.1497   -6.7961    1.2926 H   0  0  0  0  0  0  0  0  0  0  0  0
    7.1367   -3.7804   -1.7931 H   0  0  0  0  0  0  0  0  0  0  0  0
    6.2803   -1.6005   -2.5696 H   0  0  0  0  0  0  0  0  0  0  0  0
    4.3327   -0.5563   -1.4737 H   0  0  0  0  0  0  0  0  0  0  0  0
    4.0476   -3.8919    1.1905 H   0  0  0  0  0  0  0  0  0  0  0  0
    1.9488   -0.9476   -1.2333 H   0  0  0  0  0  0  0  0  0  0  0  0
   -0.0134    0.0315   -0.1113 H   0  0  0  0  0  0  0  0  0  0  0  0
   -0.1999   -0.0269    2.3474 H   0  0  0  0  0  0  0  0  0  0  0  0
    2.5373   -0.9580    4.5903 H   0  0  0  0  0  0  0  0  0  0  0  0
    0.9447   -0.2417    4.4756 H   0  0  0  0  0  0  0  0  0  0  0  0
   -0.0696   -2.5093    4.1814 H   0  0  0  0  0  0  0  0  0  0  0  0
    0.7534   -2.2796    5.7187 H   0  0  0  0  0  0  0  0  0  0  0  0
    3.0877   -3.2432    6.0265 H   0  0  0  0  0  0  0  0  0  0  0  0
    4.4481   -5.2749    5.5159 H   0  0  0  0  0  0  0  0  0  0  0  0
    3.8261   -6.6948    3.5816 H   0  0  0  0  0  0  0  0  0  0  0  0
    0.8793   -5.9732    1.5761 H   0  0  0  0  0  0  0  0  0  0  0  0
    2.1049   -7.0929    1.8770 H   0  0  0  0  0  0  0  0  0  0  0  0
    3.5752   -2.0108    2.5832 H   0  0  0  0  0  0  0  0  0  0  0  0
  1  2  1  0
  1 24  1  0
  1 25  1  0
  1 26  1  0
  2  3  1  0
  3  4  2  0
  3  8  1  0
  4  5  1  0
  4 27  1  0
  5  6  2  0
  5 28  1  0
  6  7  1  0
  6 29  1  0
  7  8  2  0
  7  9  1  0
  8 30  1  0
  9 23  1  0
  9 10  2  0
 10 11  1  0
 10 31  1  0
 11 12  2  0
 11 32  1  0
 12 13  1  0
 12 33  1  0
 13 23  2  0
 13 14  1  0
 14 15  1  0
 14 34  1  0
 14 35  1  0
 15 16  1  0
 15 36  1  0
 15 37  1  0
 16 22  1  0
 16 17  2  0
 17 18  1  0
 17 38  1  0
 18 19  2  0
 18 39  1  0
 19 20  1  0
 19 40  1  0
 20 21  1  0
 20 22  2  0
 21 41  1  0
 21 42  1  0
 23 43  1  0
M  END
