
     RDKit          3D

 17 16  0  0  0  0  0  0  0  0999 V2000
   -1.9812   -0.1066   -0.0808 P   0  0  1  0  0  0  0  0  0  0  0  0
    4.1608    0.7374    0.2005 O   0  0  0  0  0  0  0  0  0  0  0  0
    3.2212   -1.2280   -0.2851 O   0  0  0  0  0  0  0  0  0  0  0  0
   -2.8326    1.2394   -0.0689 O   0  0  0  0  0  0  0  0  0  0  0  0
   -2.2018   -0.8421    1.3198 O   0  0  0  0  0  0  0  0  0  0  0  0
   -2.2036   -1.0611   -1.1822 O   0  0  0  0  0  0  0  0  0  0  0  0
   -0.5424    0.5863   -0.0200 O   0  0  0  0  0  0  0  0  0  0  0  0
    0.6318   -0.2237   -0.1342 C   0  0  0  0  0  0  0  0  0  0  0  0
    1.8198    0.6872    0.0860 C   0  0  0  0  0  0  0  0  0  0  0  0
    3.1226   -0.0555   -0.0240 C   0  0  0  0  0  0  0  0  0  0  0  0
    4.9863    0.2355    0.1229 H   0  0  0  0  0  0  0  0  0  0  0  0
   -3.7841    1.1077   -0.1764 H   0  0  0  0  0  0  0  0  0  0  0  0
   -2.1237   -0.2793    2.1018 H   0  0  0  0  0  0  0  0  0  0  0  0
    0.6192   -1.0219    0.6119 H   0  0  0  0  0  0  0  0  0  0  0  0
    0.6711   -0.6841   -1.1227 H   0  0  0  0  0  0  0  0  0  0  0  0
    1.8193    1.5000   -0.6456 H   0  0  0  0  0  0  0  0  0  0  0  0
    1.7646    1.1595    1.0703 H   0  0  0  0  0  0  0  0  0  0  0  0
  6  1  2  0
  1  4  1  6
  1  5  1  0
  1  7  1  0
  7  8  1  0
  8  9  1  0
  9 10  1  0
 10  3  2  0
 10  2  1  0
  2 11  1  0
  4 12  1  0
  5 13  1  0
  8 14  1  0
  8 15  1  0
  9 16  1  0
  9 17  1  0
M  END
