
     RDKit          3D

 23 23  0  0  0  0  0  0  0  0999 V2000
    0.5566   -0.3267    1.1381 N   0  0  0  0  0  0  0  0  0  0  0  0
   -0.0431    0.1080    2.2571 C   0  0  0  0  0  0  0  0  0  0  0  0
   -0.8649    1.0036    2.3144 O   0  0  0  0  0  0  0  0  0  0  0  0
    0.3890   -0.5582    3.3368 O   0  0  0  0  0  0  0  0  0  0  0  0
    0.1917    0.1491   -0.1827 C   0  0  1  0  0  0  0  0  0  0  0  0
    1.3822    0.0079   -1.1262 C   0  0  0  0  0  0  0  0  0  0  0  0
    1.0323    0.4957   -2.5287 C   0  0  0  0  0  0  0  0  0  0  0  0
   -0.1953   -0.2178   -3.0851 C   0  0  0  0  0  0  0  0  0  0  0  0
   -1.3831   -0.0870   -2.1376 C   0  0  0  0  0  0  0  0  0  0  0  0
   -1.0318   -0.5799   -0.7376 C   0  0  0  0  0  0  0  0  0  0  0  0
    1.1490   -1.1410    1.1964 H   0  0  0  0  0  0  0  0  0  0  0  0
   -0.0594   -0.2115    4.1188 H   0  0  0  0  0  0  0  0  0  0  0  0
   -0.0470    1.2127   -0.0920 H   0  0  0  0  0  0  0  0  0  0  0  0
    2.2353    0.5649   -0.7308 H   0  0  0  0  0  0  0  0  0  0  0  0
    1.6845   -1.0453   -1.1715 H   0  0  0  0  0  0  0  0  0  0  0  0
    0.8402    1.5736   -2.4979 H   0  0  0  0  0  0  0  0  0  0  0  0
    1.8884    0.3541   -3.1920 H   0  0  0  0  0  0  0  0  0  0  0  0
   -0.4496    0.1832   -4.0690 H   0  0  0  0  0  0  0  0  0  0  0  0
    0.0360   -1.2783   -3.2315 H   0  0  0  0  0  0  0  0  0  0  0  0
   -1.6933    0.9625   -2.0862 H   0  0  0  0  0  0  0  0  0  0  0  0
   -2.2413   -0.6428   -2.5220 H   0  0  0  0  0  0  0  0  0  0  0  0
   -0.8170   -1.6541   -0.7677 H   0  0  0  0  0  0  0  0  0  0  0  0
   -1.8790   -0.4451   -0.0607 H   0  0  0  0  0  0  0  0  0  0  0  0
  1  2  1  0
  1  5  1  0
  1 11  1  0
  2  3  2  0
  2  4  1  0
  4 12  1  0
  5  6  1  0
  5 10  1  0
  5 13  1  1
  6  7  1  0
  6 14  1  0
  6 15  1  0
  7  8  1  0
  7 16  1  0
  7 17  1  0
  8  9  1  0
  8 18  1  0
  8 19  1  0
  9 10  1  0
  9 20  1  0
  9 21  1  0
 10 22  1  0
 10 23  1  0
M  END
