
     RDKit          3D

 63 66  0  0  0  0  0  0  0  0999 V2000
   -7.4377   -0.9191   -2.2805 C   0  0  0  0  0  0  0  0  0  0  0  0
   -8.7490   -1.5929   -1.9250 C   0  0  0  0  0  0  0  0  0  0  0  0
   -8.5378   -2.8158   -1.2536 O   0  0  0  0  0  0  0  0  0  0  0  0
   -7.7712   -2.6194   -0.0869 C   0  0  0  0  0  0  0  0  0  0  0  0
   -6.4384   -1.9660   -0.3988 C   0  0  0  0  0  0  0  0  0  0  0  0
   -6.6514   -0.6993   -1.0783 N   0  0  0  0  0  0  0  0  0  0  0  0
   -5.4132   -0.0070   -1.3585 C   0  0  0  0  0  0  0  0  0  0  0  0
   -4.8440    0.6529   -0.1093 C   0  0  0  0  0  0  0  0  0  0  0  0
   -3.5487    1.2289   -0.3974 N   0  0  0  0  0  0  0  0  0  0  0  0
   -2.6089    1.4169    0.5356 C   0  0  0  0  0  0  0  0  0  0  0  0
   -2.7314    1.1086    1.7081 O   0  0  0  0  0  0  0  0  0  0  0  0
   -1.3548    2.1082    0.0293 C   0  0  0  0  0  0  0  0  0  0  0  0
   -0.2757    1.5921    0.7700 O   0  0  0  0  0  0  0  0  0  0  0  0
    0.9351    2.1360    0.6189 C   0  0  0  0  0  0  0  0  0  0  0  0
    1.1915    3.2575   -0.1547 C   0  0  0  0  0  0  0  0  0  0  0  0
    2.5119    3.6847   -0.1837 C   0  0  0  0  0  0  0  0  0  0  0  0
    2.9984    4.7313   -0.8581 O   0  0  0  0  0  0  0  0  0  0  0  0
    4.3579    4.8159   -0.6219 N   0  0  0  0  0  0  0  0  0  0  0  0
    4.6880    3.8490    0.1733 C   0  0  0  0  0  0  0  0  0  0  0  0
    6.0858    3.6505    0.6293 C   0  0  0  0  0  0  0  0  0  0  0  0
    3.5382    3.0650    0.5060 C   0  0  0  0  0  0  0  0  0  0  0  0
    3.2710    1.9393    1.2806 C   0  0  0  0  0  0  0  0  0  0  0  0
    1.9768    1.4739    1.3292 C   0  0  0  0  0  0  0  0  0  0  0  0
    1.7048    0.3000    2.0748 N   0  0  0  0  0  0  0  0  0  0  0  0
    1.8929   -1.1672    1.3143 S   0  0  1  0  0  0  0  0  0  0  0  0
    3.0330   -1.0241    0.4271 O   0  0  0  0  0  0  0  0  0  0  0  0
    1.9172   -2.1793    2.3497 O   0  0  0  0  0  0  0  0  0  0  0  0
    0.4560   -1.3933    0.2991 C   0  0  0  0  0  0  0  0  0  0  0  0
    0.5968   -1.2816   -1.0746 C   0  0  0  0  0  0  0  0  0  0  0  0
   -0.5190   -1.4331   -1.8811 C   0  0  0  0  0  0  0  0  0  0  0  0
   -0.3488   -1.2671   -3.7509 Br  0  0  0  0  0  0  0  0  0  0  0  0
   -1.7557   -1.7097   -1.3212 C   0  0  0  0  0  0  0  0  0  0  0  0
   -1.8915   -1.8175    0.0530 C   0  0  0  0  0  0  0  0  0  0  0  0
   -0.7926   -1.6407    0.8893 C   0  0  0  0  0  0  0  0  0  0  0  0
   -0.8398   -1.6785    2.2170 O   0  0  0  0  0  0  0  0  0  0  0  0
   -2.0669   -1.9886    2.8622 C   0  0  0  0  0  0  0  0  0  0  0  0
   -6.8947   -1.5350   -3.0178 H   0  0  0  0  0  0  0  0  0  0  0  0
   -7.6524    0.0418   -2.7538 H   0  0  0  0  0  0  0  0  0  0  0  0
   -9.3466   -0.9126   -1.3017 H   0  0  0  0  0  0  0  0  0  0  0  0
   -9.3174   -1.8097   -2.8306 H   0  0  0  0  0  0  0  0  0  0  0  0
   -8.3186   -1.9942    0.6330 H   0  0  0  0  0  0  0  0  0  0  0  0
   -7.6103   -3.5976    0.3687 H   0  0  0  0  0  0  0  0  0  0  0  0
   -5.9097   -1.8090    0.5433 H   0  0  0  0  0  0  0  0  0  0  0  0
   -5.8220   -2.6501   -1.0087 H   0  0  0  0  0  0  0  0  0  0  0  0
   -4.6582   -0.6777   -1.8047 H   0  0  0  0  0  0  0  0  0  0  0  0
   -5.6118    0.7674   -2.1043 H   0  0  0  0  0  0  0  0  0  0  0  0
   -5.5409    1.4143    0.2517 H   0  0  0  0  0  0  0  0  0  0  0  0
   -4.7199   -0.0730    0.6947 H   0  0  0  0  0  0  0  0  0  0  0  0
   -3.3697    1.5452   -1.3379 H   0  0  0  0  0  0  0  0  0  0  0  0
   -1.2035    1.9516   -1.0440 H   0  0  0  0  0  0  0  0  0  0  0  0
   -1.4762    3.1850    0.1955 H   0  0  0  0  0  0  0  0  0  0  0  0
    0.4262    3.7758   -0.7149 H   0  0  0  0  0  0  0  0  0  0  0  0
    6.1419    3.7034    1.7168 H   0  0  0  0  0  0  0  0  0  0  0  0
    6.4466    2.6658    0.3307 H   0  0  0  0  0  0  0  0  0  0  0  0
    6.7483    4.4050    0.2108 H   0  0  0  0  0  0  0  0  0  0  0  0
    4.0466    1.4324    1.8381 H   0  0  0  0  0  0  0  0  0  0  0  0
    0.8979    0.3240    2.6913 H   0  0  0  0  0  0  0  0  0  0  0  0
    1.5684   -1.0801   -1.5043 H   0  0  0  0  0  0  0  0  0  0  0  0
   -2.6284   -1.8441   -1.9464 H   0  0  0  0  0  0  0  0  0  0  0  0
   -2.8677   -2.0379    0.4608 H   0  0  0  0  0  0  0  0  0  0  0  0
   -2.8244   -1.2313    2.6608 H   0  0  0  0  0  0  0  0  0  0  0  0
   -2.4373   -2.9710    2.5625 H   0  0  0  0  0  0  0  0  0  0  0  0
   -1.8511   -2.0015    3.9267 H   0  0  0  0  0  0  0  0  0  0  0  0
  3  2  1  0
  3  4  1  0
 32 33  2  0
 32 30  1  0
 33 34  1  0
  2  1  1  0
 36 35  1  0
 11 10  2  0
  4  5  1  0
  6  1  1  0
  6  5  1  0
  6  7  1  0
  8  7  1  0
  8  9  1  0
 31 30  1  0
 30 29  2  0
 34 35  1  0
 34 28  2  0
 10  9  1  0
 10 12  1  0
 29 28  1  0
 12 13  1  0
 28 25  1  0
 13 14  1  0
 27 25  2  0
 25 24  1  1
 25 26  2  0
 14 15  2  0
 14 23  1  0
 15 16  1  0
 24 23  1  0
 23 22  2  0
 16 17  1  0
 16 21  2  0
 22 21  1  0
 17 18  1  0
 21 19  1  0
 18 19  2  0
 19 20  1  0
  1 37  1  0
  1 38  1  0
  2 39  1  0
  2 40  1  0
  4 41  1  0
  4 42  1  0
  5 43  1  0
  5 44  1  0
  7 45  1  0
  7 46  1  0
  8 47  1  0
  8 48  1  0
  9 49  1  0
 12 50  1  0
 12 51  1  0
 15 52  1  0
 20 53  1  0
 20 54  1  0
 20 55  1  0
 22 56  1  0
 24 57  1  0
 29 58  1  0
 32 59  1  0
 33 60  1  0
 36 61  1  0
 36 62  1  0
 36 63  1  0
M  END
