
     RDKit          3D

 50 52  0  0  0  0  0  0  0  0999 V2000
    8.1448    0.9530   -0.7664 C   0  0  0  0  0  0  0  0  0  0  0  0
    6.0233   -0.0799   -0.5493 C   0  0  0  0  0  0  0  0  0  0  0  0
    4.4823   -2.3075   -0.4769 C   0  0  0  0  0  0  0  0  0  0  0  0
    3.8553   -1.0623   -0.3051 C   0  0  0  0  0  0  0  0  0  0  0  0
    1.0379    2.0872    0.2032 C   0  0  0  0  0  0  0  0  0  0  0  0
   -0.2929    1.7844    0.3961 C   0  0  0  0  0  0  0  0  0  0  0  0
   -0.6148    0.3990    0.4057 C   0  0  0  0  0  0  0  0  0  0  0  0
   -2.3182   -1.3712    0.6379 C   0  0  0  0  0  0  0  0  0  0  0  0
   -1.6593   -2.3482    1.3795 C   0  0  0  0  0  0  0  0  0  0  0  0
   -4.0189   -2.9814    0.0553 C   0  0  0  0  0  0  0  0  0  0  0  0
   -5.4396   -0.3155   -0.6361 C   0  0  0  0  0  0  0  0  0  0  0  0
   -5.8964    0.7325   -1.6265 C   0  0  0  0  0  0  0  0  0  0  0  0
   -7.2715    1.2966   -1.3199 C   0  0  0  0  0  0  0  0  0  0  0  0
   -1.3048    2.8526    0.5941 C   0  0  1  0  0  0  0  0  0  0  0  0
    4.6523    0.0718   -0.3433 C   0  0  0  0  0  0  0  0  0  0  0  0
   -6.1535   -0.7760    0.2333 O   0  0  0  0  0  0  0  0  0  0  0  0
   -3.5024   -1.6940   -0.0346 C   0  0  0  0  0  0  0  0  0  0  0  0
   -3.3603   -3.9485    0.7958 C   0  0  0  0  0  0  0  0  0  0  0  0
   -2.1791   -3.6295    1.4534 C   0  0  0  0  0  0  0  0  0  0  0  0
   -1.8820   -0.0376    0.5859 N   0  0  0  0  0  0  0  0  0  0  0  0
    0.3327   -0.5025    0.2321 N   0  0  0  0  0  0  0  0  0  0  0  0
    1.5842   -0.0842    0.0606 C   0  0  0  0  0  0  0  0  0  0  0  0
    2.4837   -1.0871   -0.1040 N   0  0  0  0  0  0  0  0  0  0  0  0
    5.7754   -2.4382   -0.6698 N   0  0  0  0  0  0  0  0  0  0  0  0
    6.5503   -1.3581   -0.7094 C   0  0  0  0  0  0  0  0  0  0  0  0
    6.7450    1.0511   -0.5753 O   0  0  0  0  0  0  0  0  0  0  0  0
    1.9899    1.1805    0.0366 N   0  0  0  0  0  0  0  0  0  0  0  0
   -2.2921    2.7921   -0.3229 F   0  0  0  0  0  0  0  0  0  0  0  0
   -1.9123    2.7647    1.7900 F   0  0  0  0  0  0  0  0  0  0  0  0
   -0.7788    4.0744    0.5146 F   0  0  0  0  0  0  0  0  0  0  0  0
    8.5299    1.9691   -0.7460 H   0  0  0  0  0  0  0  0  0  0  0  0
    8.6238    0.3774    0.0296 H   0  0  0  0  0  0  0  0  0  0  0  0
    8.3932    0.5003   -1.7295 H   0  0  0  0  0  0  0  0  0  0  0  0
    3.8905   -3.2182   -0.4506 H   0  0  0  0  0  0  0  0  0  0  0  0
    1.3693    3.1184    0.1813 H   0  0  0  0  0  0  0  0  0  0  0  0
   -0.7509   -2.1042    1.9092 H   0  0  0  0  0  0  0  0  0  0  0  0
   -4.9281   -3.2297   -0.4748 H   0  0  0  0  0  0  0  0  0  0  0  0
   -5.1539    1.5349   -1.6602 H   0  0  0  0  0  0  0  0  0  0  0  0
   -5.8834    0.2807   -2.6232 H   0  0  0  0  0  0  0  0  0  0  0  0
   -8.0370    0.5225   -1.3379 H   0  0  0  0  0  0  0  0  0  0  0  0
   -7.2998    1.7764   -0.3421 H   0  0  0  0  0  0  0  0  0  0  0  0
   -7.5393    2.0459   -2.0638 H   0  0  0  0  0  0  0  0  0  0  0  0
    4.2332    1.0575   -0.2147 H   0  0  0  0  0  0  0  0  0  0  0  0
   -3.6133   -0.2742   -1.5477 H   0  0  0  0  0  0  0  0  0  0  0  0
   -3.7645   -4.9501    0.8538 H   0  0  0  0  0  0  0  0  0  0  0  0
   -1.6619   -4.3787    2.0377 H   0  0  0  0  0  0  0  0  0  0  0  0
   -2.6282    0.6379    0.5637 H   0  0  0  0  0  0  0  0  0  0  0  0
    2.0675   -2.0066   -0.0715 H   0  0  0  0  0  0  0  0  0  0  0  0
    7.6072   -1.5288   -0.8713 H   0  0  0  0  0  0  0  0  0  0  0  0
   -4.1432   -0.7002   -0.8009 N   0  0  0  0  0  0  0  0  0  0  0  0
 26  1  1  0
 26  2  1  0
 25  2  2  0
 25 24  1  0
  2 15  1  0
 24  3  2  0
 15  4  2  0
  3  4  1  0
  4 23  1  0
 23 22  1  0
 50 17  1  0
 50 11  1  0
 10 18  2  0
 10 17  1  0
 12 13  1  0
 12 11  1  0
 18 19  1  0
 17  8  2  0
 22 21  2  0
 22 27  1  0
 21  7  1  0
 11 16  2  0
 27  5  2  0
 19  9  2  0
  8  9  1  0
  8 20  1  0
  7 20  1  0
  7  6  2  0
  5  6  1  0
  6 14  1  0
 14 29  1  1
 14 30  1  0
 14 28  1  0
  1 31  1  0
  1 32  1  0
  1 33  1  0
  3 34  1  0
  5 35  1  0
  9 36  1  0
 10 37  1  0
 12 38  1  0
 12 39  1  0
 13 40  1  0
 13 41  1  0
 13 42  1  0
 15 43  1  0
 50 44  1  0
 18 45  1  0
 19 46  1  0
 20 47  1  0
 23 48  1  0
 25 49  1  0
M  END
