
     RDKit          3D

 36 38  0  0  0  0  0  0  0  0999 V2000
   -3.0848   -0.8395    1.2748 N   0  0  0  0  0  0  0  0  0  0  0  0
   -2.0831   -1.4412    1.8509 C   0  0  0  0  0  0  0  0  0  0  0  0
   -2.7470    0.0158    0.2742 C   0  0  0  0  0  0  0  0  0  0  0  0
    0.8137   -0.9112   -0.0165 N   0  0  0  0  0  0  0  0  0  0  0  0
   -1.4101    0.1920   -0.1652 C   0  0  0  0  0  0  0  0  0  0  0  0
    3.4393    0.4308   -0.2328 N   0  0  0  0  0  0  0  0  0  0  0  0
   -1.1434    1.2489   -1.0610 C   0  0  0  0  0  0  0  0  0  0  0  0
   -2.1559    2.0168   -1.5791 C   0  0  0  0  0  0  0  0  0  0  0  0
   -3.4886    1.7637   -1.2218 C   0  0  0  0  0  0  0  0  0  0  0  0
   -0.4404   -0.7092    0.4298 C   0  0  0  0  0  0  0  0  0  0  0  0
    1.3699   -0.4775   -1.2861 C   0  0  0  0  0  0  0  0  0  0  0  0
    2.3633    0.6721   -1.1793 C   0  0  0  0  0  0  0  0  0  0  0  0
   -3.7755    0.7894   -0.3033 C   0  0  0  0  0  0  0  0  0  0  0  0
    1.7526   -1.6927    0.7824 C   0  0  0  0  0  0  0  0  0  0  0  0
   -0.8008   -1.4161    1.4953 N   0  0  0  0  0  0  0  0  0  0  0  0
    4.5501    1.3283   -0.4872 C   0  0  0  0  0  0  0  0  0  0  0  0
    2.9847    0.5144    1.1529 C   0  0  0  0  0  0  0  0  0  0  0  0
    2.5460   -0.8235    1.7482 C   0  0  0  0  0  0  0  0  0  0  0  0
   -2.3122   -2.0577    2.7158 H   0  0  0  0  0  0  0  0  0  0  0  0
   -4.7910    0.6122    0.0269 H   0  0  0  0  0  0  0  0  0  0  0  0
    1.8906   -1.3370   -1.7132 H   0  0  0  0  0  0  0  0  0  0  0  0
    0.5787   -0.2326   -1.9906 H   0  0  0  0  0  0  0  0  0  0  0  0
    1.2265   -2.4783    1.3172 H   0  0  0  0  0  0  0  0  0  0  0  0
    2.4328   -2.1768    0.0833 H   0  0  0  0  0  0  0  0  0  0  0  0
   -0.1331    1.5107   -1.3282 H   0  0  0  0  0  0  0  0  0  0  0  0
    1.8407    1.6142   -0.9415 H   0  0  0  0  0  0  0  0  0  0  0  0
    2.7937    0.8002   -2.1751 H   0  0  0  0  0  0  0  0  0  0  0  0
    4.2972    2.3918   -0.3576 H   0  0  0  0  0  0  0  0  0  0  0  0
    5.3748    1.0989    0.1882 H   0  0  0  0  0  0  0  0  0  0  0  0
    4.9128    1.1960   -1.5075 H   0  0  0  0  0  0  0  0  0  0  0  0
    3.7996    0.9015    1.7674 H   0  0  0  0  0  0  0  0  0  0  0  0
    2.1701    1.2487    1.2491 H   0  0  0  0  0  0  0  0  0  0  0  0
   -1.9212    2.8274   -2.2556 H   0  0  0  0  0  0  0  0  0  0  0  0
   -4.2842    2.3620   -1.6464 H   0  0  0  0  0  0  0  0  0  0  0  0
    1.9550   -0.6216    2.6448 H   0  0  0  0  0  0  0  0  0  0  0  0
    3.4198   -1.3957    2.0701 H   0  0  0  0  0  0  0  0  0  0  0  0
  1  2  2  0
  1  3  1  0
  2 15  1  0
  3  5  2  0
  3 13  1  0
  4 10  1  0
  4 11  1  0
  4 14  1  0
  5  7  1  0
  5 10  1  0
  6 12  1  0
  6 16  1  0
  6 17  1  0
  7  8  2  0
  8  9  1  0
  9 13  2  0
 10 15  2  0
 11 12  1  0
 14 18  1  0
 17 18  1  0
  2 19  1  0
 13 20  1  0
 11 21  1  0
 11 22  1  0
 14 23  1  0
 14 24  1  0
  7 25  1  0
 12 26  1  0
 12 27  1  0
 16 28  1  0
 16 29  1  0
 16 30  1  0
 17 31  1  0
 17 32  1  0
  8 33  1  0
  9 34  1  0
 18 35  1  0
 18 36  1  0
M  END
