
     RDKit          3D

 22 22  0  0  0  0  0  0  0  0999 V2000
    2.1926    1.2172   -0.0761 C   0  0  0  0  0  0  0  0  0  0  0  0
    2.8490    0.0105    0.1115 C   0  0  0  0  0  0  0  0  0  0  0  0
    2.1952   -1.1990   -0.0666 C   0  0  0  0  0  0  0  0  0  0  0  0
   -4.2217   -0.0112   -1.2032 N   0  0  0  0  0  0  0  0  0  0  0  0
    0.8598   -1.1937   -0.4385 C   0  0  0  0  0  0  0  0  0  0  0  0
    4.5169    0.0137    0.5750 Cl  0  0  0  0  0  0  0  0  0  0  0  0
    0.8577    1.2060   -0.4491 C   0  0  0  0  0  0  0  0  0  0  0  0
    0.1827    0.0046   -0.6387 C   0  0  0  0  0  0  0  0  0  0  0  0
   -1.2673    0.0013   -1.0196 C   0  0  0  0  0  0  0  0  0  0  0  0
   -2.1961    0.0560    0.5538 S   0  0  0  0  0  0  0  0  0  0  0  0
   -3.8621    0.0081    0.0564 C   0  0  0  0  0  0  0  0  0  0  0  0
   -4.7497   -0.0054    1.0242 N   0  0  0  0  0  0  0  0  0  0  0  0
    2.7108    2.1553    0.0670 H   0  0  0  0  0  0  0  0  0  0  0  0
    2.7162   -2.1346    0.0826 H   0  0  0  0  0  0  0  0  0  0  0  0
   -3.5587    0.0124   -1.9597 H   0  0  0  0  0  0  0  0  0  0  0  0
   -5.1965   -0.0455   -1.4659 H   0  0  0  0  0  0  0  0  0  0  0  0
    0.3468   -2.1367   -0.5805 H   0  0  0  0  0  0  0  0  0  0  0  0
    0.3435    2.1470   -0.5996 H   0  0  0  0  0  0  0  0  0  0  0  0
   -1.5204    0.8758   -1.6178 H   0  0  0  0  0  0  0  0  0  0  0  0
   -1.5319   -0.9074   -1.5588 H   0  0  0  0  0  0  0  0  0  0  0  0
   -4.4766   -0.0058    1.9943 H   0  0  0  0  0  0  0  0  0  0  0  0
   -5.7404   -0.0169    0.8324 H   0  0  0  0  0  0  0  0  0  0  0  0
 10  9  1  0
 10 11  1  0
  9  8  1  0
 12 11  2  0
 11  4  1  0
  8  5  2  0
  8  7  1  0
  5  3  1  0
  7  1  2  0
  3  2  2  0
  1  2  1  0
  2  6  1  0
  1 13  1  0
  3 14  1  0
  4 15  1  0
  4 16  1  0
  5 17  1  0
  7 18  1  0
  9 19  1  0
  9 20  1  0
 12 21  1  0
 12 22  1  0
M  CHG  1  12   1
M  END
