
     RDKit          3D

 62 66  0  0  0  0  0  0  0  0999 V2000
    5.7078    0.8164    1.9328 O   0  0  0  0  0  0  0  0  0  0  0  0
    5.0776    0.5830    0.9293 C   0  0  0  0  0  0  0  0  0  0  0  0
    5.6484    0.7970   -0.4608 C   0  0  2  0  0  0  0  0  0  0  0  0
    7.1182    0.3828   -0.4885 C   0  0  0  0  0  0  0  0  0  0  0  0
    5.5442    2.3065   -0.7442 C   0  0  0  0  0  0  0  0  0  0  0  0
    4.8642    0.0015   -1.5038 C   0  0  0  0  0  0  0  0  0  0  0  0
    3.3678    0.1581   -1.3109 C   0  0  0  0  0  0  0  0  0  0  0  0
    2.9459   -0.3466    0.0638 C   0  0  1  0  0  0  0  0  0  0  0  0
    3.8144    0.2050    1.0762 O   0  0  0  0  0  0  0  0  0  0  0  0
    1.4804   -0.0167    0.4584 C   0  0  2  0  0  0  0  0  0  0  0  0
    1.3167   -0.2026    1.9757 C   0  0  0  0  0  0  0  0  0  0  0  0
    0.7327   -1.1013   -0.3316 C   0  0  1  0  0  0  0  0  0  0  0  0
    1.5218   -2.3774   -0.0409 C   0  0  0  0  0  0  0  0  0  0  0  0
    2.9793   -1.8966    0.1297 C   0  0  0  0  0  0  0  0  0  0  0  0
   -0.7658   -1.0885   -0.0831 C   0  0  1  0  0  0  0  0  0  0  0  0
   -1.3148    0.2913   -0.4809 C   0  0  2  0  0  0  0  0  0  0  0  0
   -0.5831    1.4242    0.2520 C   0  0  0  0  0  0  0  0  0  0  0  0
    0.9333    1.3484    0.0505 C   0  0  0  0  0  0  0  0  0  0  0  0
   -2.8252    0.3474   -0.3522 C   0  0  0  0  0  0  0  0  0  0  0  0
   -3.4920    1.5715   -0.2753 C   0  0  0  0  0  0  0  0  0  0  0  0
   -4.8702    1.6512   -0.1869 C   0  0  0  0  0  0  0  0  0  0  0  0
   -5.6357    0.4880   -0.1809 C   0  0  0  0  0  0  0  0  0  0  0  0
   -7.1288    0.4893   -0.1115 C   0  0  0  0  0  0  0  0  0  0  0  0
   -7.7809   -0.4817   -0.4743 O   0  0  0  0  0  0  0  0  0  0  0  0
   -7.7036    1.6055    0.3626 N   0  0  0  0  0  0  0  0  0  0  0  0
   -4.9806   -0.7323   -0.2810 C   0  0  0  0  0  0  0  0  0  0  0  0
   -3.5949   -0.8237   -0.3588 C   0  0  0  0  0  0  0  0  0  0  0  0
   -2.9688   -2.1931   -0.4302 C   0  0  0  0  0  0  0  0  0  0  0  0
   -1.5095   -2.1684   -0.8539 C   0  0  0  0  0  0  0  0  0  0  0  0
    7.7192    0.9665    0.2069 H   0  0  0  0  0  0  0  0  0  0  0  0
    7.2422   -0.6734   -0.2451 H   0  0  0  0  0  0  0  0  0  0  0  0
    7.5167    0.5416   -1.4918 H   0  0  0  0  0  0  0  0  0  0  0  0
    5.9351    2.5118   -1.7418 H   0  0  0  0  0  0  0  0  0  0  0  0
    4.5171    2.6711   -0.7078 H   0  0  0  0  0  0  0  0  0  0  0  0
    6.1290    2.8828   -0.0274 H   0  0  0  0  0  0  0  0  0  0  0  0
    5.1533    0.3442   -2.4997 H   0  0  0  0  0  0  0  0  0  0  0  0
    5.1497   -1.0534   -1.4496 H   0  0  0  0  0  0  0  0  0  0  0  0
    3.0962    1.2068   -1.4433 H   0  0  0  0  0  0  0  0  0  0  0  0
    2.8320   -0.3959   -2.0824 H   0  0  0  0  0  0  0  0  0  0  0  0
    0.2698   -0.2219    2.2727 H   0  0  0  0  0  0  0  0  0  0  0  0
    1.7630   -1.1281    2.3400 H   0  0  0  0  0  0  0  0  0  0  0  0
    1.7815    0.6207    2.5183 H   0  0  0  0  0  0  0  0  0  0  0  0
    0.8572   -0.8717   -1.3992 H   0  0  0  0  0  0  0  0  0  0  0  0
    1.4255   -3.1120   -0.8404 H   0  0  0  0  0  0  0  0  0  0  0  0
    1.1634   -2.8555    0.8737 H   0  0  0  0  0  0  0  0  0  0  0  0
    3.6292   -2.3076   -0.6442 H   0  0  0  0  0  0  0  0  0  0  0  0
    3.3918   -2.2235    1.0850 H   0  0  0  0  0  0  0  0  0  0  0  0
   -0.9629   -1.2534    0.9837 H   0  0  0  0  0  0  0  0  0  0  0  0
   -1.0884    0.4122   -1.5516 H   0  0  0  0  0  0  0  0  0  0  0  0
   -0.9166    2.3932   -0.1219 H   0  0  0  0  0  0  0  0  0  0  0  0
   -0.8403    1.4024    1.3146 H   0  0  0  0  0  0  0  0  0  0  0  0
    1.1326    1.5312   -1.0083 H   0  0  0  0  0  0  0  0  0  0  0  0
    1.4237    2.1542    0.6043 H   0  0  0  0  0  0  0  0  0  0  0  0
   -2.9286    2.4946   -0.2938 H   0  0  0  0  0  0  0  0  0  0  0  0
   -5.3288    2.6313   -0.1495 H   0  0  0  0  0  0  0  0  0  0  0  0
   -7.1788    2.3521    0.7822 H   0  0  0  0  0  0  0  0  0  0  0  0
   -8.7062    1.6539    0.4414 H   0  0  0  0  0  0  0  0  0  0  0  0
   -5.5655   -1.6446   -0.2937 H   0  0  0  0  0  0  0  0  0  0  0  0
   -3.5541   -2.8254   -1.1020 H   0  0  0  0  0  0  0  0  0  0  0  0
   -3.0432   -2.6596    0.5580 H   0  0  0  0  0  0  0  0  0  0  0  0
   -1.4238   -1.9786   -1.9295 H   0  0  0  0  0  0  0  0  0  0  0  0
   -1.0674   -3.1499   -0.6707 H   0  0  0  0  0  0  0  0  0  0  0  0
  1  2  2  0
  2  3  1  0
  2  9  1  0
  3  4  1  1
  3  5  1  0
  3  6  1  0
  4 30  1  0
  4 31  1  0
  4 32  1  0
  5 33  1  0
  5 34  1  0
  5 35  1  0
  6  7  1  0
  6 36  1  0
  6 37  1  0
  7  8  1  0
  7 38  1  0
  7 39  1  0
  8  9  1  1
  8 10  1  0
  8 14  1  0
 10 11  1  1
 10 12  1  0
 10 18  1  0
 11 40  1  0
 11 41  1  0
 11 42  1  0
 12 13  1  0
 12 15  1  0
 12 43  1  6
 13 14  1  0
 13 44  1  0
 13 45  1  0
 14 46  1  0
 14 47  1  0
 15 16  1  0
 15 29  1  0
 15 48  1  1
 16 17  1  0
 16 19  1  0
 16 49  1  6
 17 18  1  0
 17 50  1  0
 17 51  1  0
 18 52  1  0
 18 53  1  0
 19 20  2  0
 19 27  1  0
 20 21  1  0
 20 54  1  0
 21 22  2  0
 21 55  1  0
 22 23  1  0
 22 26  1  0
 23 24  2  0
 23 25  1  0
 25 56  1  0
 25 57  1  0
 26 27  2  0
 26 58  1  0
 27 28  1  0
 28 29  1  0
 28 59  1  0
 28 60  1  0
 29 61  1  0
 29 62  1  0
M  END
