
     RDKit          3D

 46 49  0  0  0  0  0  0  0  0999 V2000
    5.6795    0.8231    1.4904 C   0  0  0  0  0  0  0  0  0  0  0  0
    4.4128    0.8240    2.0388 C   0  0  0  0  0  0  0  0  0  0  0  0
    3.6258   -0.4743    0.1255 C   0  0  0  0  0  0  0  0  0  0  0  0
    5.9661    0.1959    0.2957 C   0  0  0  0  0  0  0  0  0  0  0  0
   -2.8794    0.5082    2.1618 O   0  0  0  0  0  0  0  0  0  0  0  0
   -2.4645    2.6391    2.6717 O   0  0  0  0  0  0  0  0  0  0  0  0
   -3.2906    2.2024    0.5324 C   0  0  0  0  0  0  0  0  0  0  0  0
   -3.7266    3.5189    0.4014 C   0  0  0  0  0  0  0  0  0  0  0  0
   -4.1744    4.0007   -0.8198 C   0  0  0  0  0  0  0  0  0  0  0  0
   -4.1765    3.1782   -1.9344 C   0  0  0  0  0  0  0  0  0  0  0  0
   -3.7274    1.8690   -1.8264 C   0  0  0  0  0  0  0  0  0  0  0  0
   -3.3014    1.3865   -0.6029 C   0  0  0  0  0  0  0  0  0  0  0  0
   -2.8326    0.0375   -0.5427 N   0  0  0  0  0  0  0  0  0  0  0  0
   -3.7183   -0.9473   -0.3909 C   0  0  0  0  0  0  0  0  0  0  0  0
   -3.3886   -2.2719   -0.2629 C   0  0  0  0  0  0  0  0  0  0  0  0
   -4.5306   -3.1916   -0.1123 C   0  0  0  0  0  0  0  0  0  0  0  0
   -5.6869   -2.8268   -0.1475 O   0  0  0  0  0  0  0  0  0  0  0  0
   -4.1937   -4.4577    0.0739 O   0  0  0  0  0  0  0  0  0  0  0  0
   -1.9954   -2.6731   -0.2679 C   0  0  0  0  0  0  0  0  0  0  0  0
   -1.5890   -3.8222   -0.1617 O   0  0  0  0  0  0  0  0  0  0  0  0
   -1.0416   -1.5545   -0.4180 C   0  0  0  0  0  0  0  0  0  0  0  0
    0.3258   -1.8193   -0.3981 C   0  0  0  0  0  0  0  0  0  0  0  0
   -1.4716   -0.2339   -0.5591 C   0  0  0  0  0  0  0  0  0  0  0  0
   -0.5372    0.7856   -0.7380 C   0  0  0  0  0  0  0  0  0  0  0  0
    0.8058    0.4865   -0.7489 C   0  0  0  0  0  0  0  0  0  0  0  0
    1.9187    1.7622   -1.0751 Cl  0  0  0  0  0  0  0  0  0  0  0  0
    1.2757   -0.8231   -0.5446 C   0  0  0  0  0  0  0  0  0  0  0  0
    2.6222   -1.1462   -0.5657 N   0  0  0  0  0  0  0  0  0  0  0  0
    4.9290   -0.4319   -0.3749 C   0  0  0  0  0  0  0  0  0  0  0  0
    5.2568   -1.1961   -1.8842 Cl  0  0  0  0  0  0  0  0  0  0  0  0
    6.6650    1.4490    2.1425 F   0  0  0  0  0  0  0  0  0  0  0  0
    3.4224    0.1558    1.3518 C   0  0  0  0  0  0  0  0  0  0  0  0
    2.1979    0.1178    1.8844 F   0  0  0  0  0  0  0  0  0  0  0  0
    4.2015    1.3096    2.9824 H   0  0  0  0  0  0  0  0  0  0  0  0
    6.9684    0.2059   -0.1097 H   0  0  0  0  0  0  0  0  0  0  0  0
   -2.2361    2.2712    3.5393 H   0  0  0  0  0  0  0  0  0  0  0  0
   -3.7367    4.1762    1.2593 H   0  0  0  0  0  0  0  0  0  0  0  0
   -4.5200    5.0225   -0.8954 H   0  0  0  0  0  0  0  0  0  0  0  0
   -4.5180    3.5509   -2.8901 H   0  0  0  0  0  0  0  0  0  0  0  0
   -3.7020    1.2206   -2.6921 H   0  0  0  0  0  0  0  0  0  0  0  0
   -4.7537   -0.6360   -0.3729 H   0  0  0  0  0  0  0  0  0  0  0  0
   -5.0017   -4.9842    0.1718 H   0  0  0  0  0  0  0  0  0  0  0  0
    0.6553   -2.8402   -0.2538 H   0  0  0  0  0  0  0  0  0  0  0  0
   -0.8480    1.8081   -0.8998 H   0  0  0  0  0  0  0  0  0  0  0  0
    2.8210   -2.1138   -0.7745 H   0  0  0  0  0  0  0  0  0  0  0  0
   -2.8614    1.6742    1.8577 C   0  0  0  0  0  0  0  0  0  0  0  0
  4  1  2  0
  1 31  1  0
  1  2  1  0
 32  2  2  0
  2 34  1  0
 29  3  2  0
 28  3  1  0
  3 32  1  0
 29  4  1  0
  4 35  1  0
  5 46  2  0
  7 46  1  0
 46  6  1  0
  6 36  1  0
  8  7  2  0
 12  7  1  0
  9  8  1  0
  8 37  1  0
 10  9  2  0
  9 38  1  0
 10 11  1  0
 10 39  1  0
 11 12  2  0
 11 40  1  0
 12 13  1  0
 14 13  1  0
 13 23  1  0
 14 15  2  0
 14 41  1  0
 16 15  1  0
 15 19  1  0
 17 16  2  0
 16 18  1  0
 18 42  1  0
 19 21  1  0
 19 20  2  0
 23 21  2  0
 21 22  1  0
 22 27  2  0
 22 43  1  0
 23 24  1  0
 24 25  2  0
 24 44  1  0
 25 26  1  0
 25 27  1  0
 27 28  1  0
 28 45  1  0
 30 29  1  0
 32 33  1  0
M  END
