
     RDKit          3D

 26 26  0  0  0  0  0  0  0  0999 V2000
    0.0912    0.9714    0.7498 C   0  0  2  0  0  0  0  0  0  0  0  0
   -0.8625   -0.1878    0.8323 C   0  0  0  0  0  0  0  0  0  0  0  0
   -1.7865   -0.3675   -0.1183 C   0  0  0  0  0  0  0  0  0  0  0  0
   -1.9183    0.5898   -1.2207 C   0  0  0  0  0  0  0  0  0  0  0  0
   -1.3078    1.7728   -1.1650 C   0  0  0  0  0  0  0  0  0  0  0  0
   -0.5157    2.1804    0.0458 C   0  0  1  0  0  0  0  0  0  0  0  0
   -2.6734   -1.5597   -0.0215 C   0  0  0  0  0  0  0  0  0  0  0  0
   -2.6130   -2.3815    0.8604 O   0  0  0  0  0  0  0  0  0  0  0  0
   -3.5457   -1.6206   -1.0160 O   0  0  0  0  0  0  0  0  0  0  0  0
   -1.3410    2.8169    1.0002 O   0  0  0  0  0  0  0  0  0  0  0  0
    1.2248    0.5941   -0.0230 O   0  0  0  0  0  0  0  0  0  0  0  0
    2.1586   -0.1923    0.5383 C   0  0  0  0  0  0  0  0  0  0  0  0
    3.2311   -0.4840   -0.4626 C   0  0  0  0  0  0  0  0  0  0  0  0
    3.1958   -0.0763   -1.5944 O   0  0  0  0  0  0  0  0  0  0  0  0
    4.2049   -1.2301    0.0303 O   0  0  0  0  0  0  0  0  0  0  0  0
    2.1838   -0.6638    1.7842 C   0  0  0  0  0  0  0  0  0  0  0  0
    0.4048    1.2850    1.7524 H   0  0  0  0  0  0  0  0  0  0  0  0
   -0.7646   -0.8950    1.6449 H   0  0  0  0  0  0  0  0  0  0  0  0
   -2.5232    0.3295   -2.0784 H   0  0  0  0  0  0  0  0  0  0  0  0
   -1.4214    2.4882   -1.9703 H   0  0  0  0  0  0  0  0  0  0  0  0
    0.3121    2.8345   -0.2567 H   0  0  0  0  0  0  0  0  0  0  0  0
   -4.0998   -2.4112   -0.9283 H   0  0  0  0  0  0  0  0  0  0  0  0
   -1.7819    3.5593    0.5748 H   0  0  0  0  0  0  0  0  0  0  0  0
    4.8691   -1.4007   -0.6541 H   0  0  0  0  0  0  0  0  0  0  0  0
    3.0023   -1.2795    2.1198 H   0  0  0  0  0  0  0  0  0  0  0  0
    1.4090   -0.4623    2.5102 H   0  0  0  0  0  0  0  0  0  0  0  0
  1  2  1  0
  1  6  1  0
  1 11  1  0
  2  3  2  0
  3  4  1  0
  3  7  1  0
  4  5  2  0
  5  6  1  0
  6 10  1  0
  7  8  2  0
  7  9  1  0
 11 12  1  0
 12 13  1  0
 12 16  2  0
 13 14  2  0
 13 15  1  0
  1 17  1  1
  2 18  1  0
  4 19  1  0
  5 20  1  0
  6 21  1  6
  9 22  1  0
 10 23  1  0
 15 24  1  0
 16 25  1  0
 16 26  1  0
M  END
