
     RDKit          3D

 25 27  0  0  0  0  0  0  0  0999 V2000
   -4.9641    1.4390   -0.0115 F   0  0  0  0  0  0  0  0  0  0  0  0
   -5.1900   -1.4259    0.0002 Cl  0  0  0  0  0  0  0  0  0  0  0  0
    2.6109    1.5752    0.0088 N   0  0  0  0  0  0  0  0  0  0  0  0
    6.4483    0.0216    0.0196 O   0  0  0  0  0  0  0  0  0  0  0  0
    4.1395   -0.0727    0.0208 C   0  0  0  0  0  0  0  0  0  0  0  0
    2.0170    0.3702    0.0152 N   0  0  0  0  0  0  0  0  0  0  0  0
    5.4924   -2.0035    0.0339 O   0  0  0  0  0  0  0  0  0  0  0  0
    3.8936    1.3217    0.0120 C   0  0  0  0  0  0  0  0  0  0  0  0
   -0.1275    1.3983    0.0056 N   0  0  0  0  0  0  0  0  0  0  0  0
    2.8941   -0.6505    0.0228 C   0  0  0  0  0  0  0  0  0  0  0  0
   -0.0223   -0.8311    0.0152 N   0  0  0  0  0  0  0  0  0  0  0  0
    0.6360    0.2837    0.0126 C   0  0  0  0  0  0  0  0  0  0  0  0
   -1.4259    0.9647    0.0032 C   0  0  0  0  0  0  0  0  0  0  0  0
   -2.6347    1.6439   -0.0042 C   0  0  0  0  0  0  0  0  0  0  0  0
   -3.7626    0.8549   -0.0046 C   0  0  0  0  0  0  0  0  0  0  0  0
   -3.7072   -0.5433    0.0016 C   0  0  0  0  0  0  0  0  0  0  0  0
   -2.4969   -1.2089    0.0086 C   0  0  0  0  0  0  0  0  0  0  0  0
   -1.3398   -0.4375    0.0094 C   0  0  0  0  0  0  0  0  0  0  0  0
    7.2740   -0.4856    0.0211 H   0  0  0  0  0  0  0  0  0  0  0  0
    4.6086    2.1293    0.0078 H   0  0  0  0  0  0  0  0  0  0  0  0
    2.5799   -1.6809    0.0287 H   0  0  0  0  0  0  0  0  0  0  0  0
   -2.7066    2.7233   -0.0090 H   0  0  0  0  0  0  0  0  0  0  0  0
   -2.4538   -2.2892    0.0129 H   0  0  0  0  0  0  0  0  0  0  0  0
    0.2047    2.3515    0.0023 H   0  0  0  0  0  0  0  0  0  0  0  0
    5.4072   -0.7989    0.0258 C   0  0  0  0  0  0  0  0  0  0  0  0
 15  1  1  0
  2 16  1  0
  7 25  2  0
 25  5  1  0
 25  4  1  0
  6  3  1  0
  8  3  2  0
  4 19  1  0
 10  5  2  0
  5  8  1  0
 10  6  1  0
 12  6  1  0
  8 20  1  0
 13  9  1  0
 12  9  1  0
 10 21  1  0
 18 11  1  0
 11 12  2  0
 18 13  2  0
 13 14  1  0
 15 14  2  0
 14 22  1  0
 16 15  1  0
 17 16  2  0
 17 18  1  0
 17 23  1  0
  9 24  1  0
M  END
