
     RDKit          3D

 58 62  0  0  0  0  0  0  0  0999 V2000
   -5.7444   -2.4745    0.9973 C   0  0  0  0  0  0  0  0  0  0  0  0
   -5.9820   -3.9136    0.5000 C   0  0  0  0  0  0  0  0  0  0  0  0
   -6.2826   -3.7821   -0.9974 C   0  0  0  0  0  0  0  0  0  0  0  0
   -5.4337   -2.5918   -1.4236 C   0  0  0  0  0  0  0  0  0  0  0  0
   -5.6515   -1.6039   -0.2762 C   0  0  2  0  0  0  0  0  0  0  0  0
   -4.6541   -0.5545   -0.2020 N   0  0  0  0  0  0  0  0  0  0  0  0
   -3.3103   -0.7373    0.0061 C   0  0  0  0  0  0  0  0  0  0  0  0
   -4.8852    0.7737   -0.3505 C   0  0  0  0  0  0  0  0  0  0  0  0
   -6.0761    1.3360   -0.5683 N   0  0  0  0  0  0  0  0  0  0  0  0
   -6.0157    2.6485   -0.6459 C   0  0  0  0  0  0  0  0  0  0  0  0
   -4.9475    3.4292   -0.5029 N   0  0  0  0  0  0  0  0  0  0  0  0
   -3.7618    2.8602   -0.2699 C   0  0  0  0  0  0  0  0  0  0  0  0
   -2.7070    3.6774   -0.1021 N   0  0  0  0  0  0  0  0  0  0  0  0
   -3.6658    1.4537   -0.2253 C   0  0  0  0  0  0  0  0  0  0  0  0
   -2.6525    0.4627   -0.0025 C   0  0  0  0  0  0  0  0  0  0  0  0
   -1.2064    0.6312    0.1666 C   0  0  0  0  0  0  0  0  0  0  0  0
   -0.4563    1.4399   -0.6894 C   0  0  0  0  0  0  0  0  0  0  0  0
    0.9126    1.5692   -0.5347 C   0  0  0  0  0  0  0  0  0  0  0  0
   -0.5221   -0.0409    1.1796 C   0  0  0  0  0  0  0  0  0  0  0  0
    0.8480    0.0799    1.3450 C   0  0  0  0  0  0  0  0  0  0  0  0
    1.5869    0.8914    0.4824 C   0  0  0  0  0  0  0  0  0  0  0  0
    2.9591    1.1068    0.6126 N   0  0  0  0  0  0  0  0  0  0  0  0
    3.8848    0.2045    1.0797 C   0  0  0  0  0  0  0  0  0  0  0  0
    3.5870   -0.9120    1.4785 O   0  0  0  0  0  0  0  0  0  0  0  0
    5.1545    0.6769    1.0628 N   0  0  0  0  0  0  0  0  0  0  0  0
    6.2917   -0.1003    1.4833 C   0  0  0  0  0  0  0  0  0  0  0  0
    7.1742   -0.5557    0.3454 C   0  0  0  0  0  0  0  0  0  0  0  0
    6.6312   -1.0763   -0.8269 C   0  0  0  0  0  0  0  0  0  0  0  0
    7.4564   -1.5216   -1.8498 C   0  0  0  0  0  0  0  0  0  0  0  0
    8.8381   -1.4537   -1.7159 C   0  0  0  0  0  0  0  0  0  0  0  0
    9.3876   -0.9354   -0.5517 C   0  0  0  0  0  0  0  0  0  0  0  0
    8.5581   -0.4872    0.4691 C   0  0  0  0  0  0  0  0  0  0  0  0
   -6.5539   -2.1217    1.6367 H   0  0  0  0  0  0  0  0  0  0  0  0
   -4.8307   -2.4063    1.5896 H   0  0  0  0  0  0  0  0  0  0  0  0
   -5.0793   -4.5117    0.6387 H   0  0  0  0  0  0  0  0  0  0  0  0
   -6.7822   -4.4154    1.0437 H   0  0  0  0  0  0  0  0  0  0  0  0
   -6.0540   -4.6896   -1.5570 H   0  0  0  0  0  0  0  0  0  0  0  0
   -7.3413   -3.5592   -1.1559 H   0  0  0  0  0  0  0  0  0  0  0  0
   -4.3809   -2.8844   -1.4781 H   0  0  0  0  0  0  0  0  0  0  0  0
   -5.7120   -2.1722   -2.3913 H   0  0  0  0  0  0  0  0  0  0  0  0
   -6.6030   -1.0952   -0.4322 H   0  0  0  0  0  0  0  0  0  0  0  0
   -2.8973   -1.7271    0.1264 H   0  0  0  0  0  0  0  0  0  0  0  0
   -6.9508    3.1647   -0.8392 H   0  0  0  0  0  0  0  0  0  0  0  0
   -2.8874    4.6610    0.0108 H   0  0  0  0  0  0  0  0  0  0  0  0
   -1.8557    3.3305    0.3045 H   0  0  0  0  0  0  0  0  0  0  0  0
   -0.9399    1.9544   -1.5108 H   0  0  0  0  0  0  0  0  0  0  0  0
    1.4688    2.1945   -1.2234 H   0  0  0  0  0  0  0  0  0  0  0  0
   -1.0772   -0.6574    1.8762 H   0  0  0  0  0  0  0  0  0  0  0  0
    1.3264   -0.4380    2.1611 H   0  0  0  0  0  0  0  0  0  0  0  0
    3.3085    1.9299    0.1466 H   0  0  0  0  0  0  0  0  0  0  0  0
    6.8842    0.4853    2.1893 H   0  0  0  0  0  0  0  0  0  0  0  0
    5.5565   -1.1369   -0.9485 H   0  0  0  0  0  0  0  0  0  0  0  0
    7.0195   -1.9239   -2.7548 H   0  0  0  0  0  0  0  0  0  0  0  0
    9.4799   -1.7993   -2.5160 H   0  0  0  0  0  0  0  0  0  0  0  0
   10.4623   -0.8716   -0.4389 H   0  0  0  0  0  0  0  0  0  0  0  0
    8.9943   -0.0743    1.3714 H   0  0  0  0  0  0  0  0  0  0  0  0
    5.3411    1.6015    0.7087 H   0  0  0  0  0  0  0  0  0  0  0  0
    5.9248   -0.9668    2.0340 H   0  0  0  0  0  0  0  0  0  0  0  0
 29 28  2  0
 29 30  1  0
 28 27  1  0
 30 31  2  0
 27 26  1  0
 27 32  2  0
 25 26  1  0
 25 23  1  0
 31 32  1  0
 22 23  1  0
 22 21  1  0
 23 24  2  0
 18 21  1  0
 18 17  2  0
 21 20  2  0
 17 16  1  0
 20 19  1  0
 16 19  2  0
 16 15  1  0
  4  3  1  0
  4  5  1  0
  3  2  1  0
 15  7  2  0
 15 14  1  0
 13 12  1  0
  7  6  1  0
 14 12  2  0
 14  8  1  0
 12 11  1  0
  6  8  1  0
  6  5  1  0
  8  9  2  0
 11 10  2  0
  5  1  1  0
  2  1  1  0
  9 10  1  0
  1 33  1  0
  1 34  1  0
  2 35  1  0
  2 36  1  0
  3 37  1  0
  3 38  1  0
  4 39  1  0
  4 40  1  0
  5 41  1  6
  7 42  1  0
 10 43  1  0
 13 44  1  0
 13 45  1  0
 17 46  1  0
 18 47  1  0
 19 48  1  0
 20 49  1  0
 22 50  1  0
 26 51  1  0
 28 52  1  0
 29 53  1  0
 30 54  1  0
 31 55  1  0
 32 56  1  0
 25 57  1  0
 26 58  1  0
M  END
