
     RDKit          3D

 40 41  0  0  0  0  0  0  0  0999 V2000
    0.2189   -0.9168    2.2088 O   0  0  0  0  0  0  0  0  0  0  0  0
    0.3251   -1.2970    1.0551 C   0  0  0  0  0  0  0  0  0  0  0  0
   -0.7979   -2.0776    0.3777 C   0  0  1  0  0  0  0  0  0  0  0  0
   -0.9058   -3.4308    1.0709 C   0  0  0  0  0  0  0  0  0  0  0  0
   -1.5316   -3.6063    2.0974 O   0  0  0  0  0  0  0  0  0  0  0  0
   -2.1173   -1.3078    0.4880 C   0  0  0  0  0  0  0  0  0  0  0  0
   -2.0262    0.0650   -0.1202 C   0  0  0  0  0  0  0  0  0  0  0  0
   -1.9268    0.2327   -1.5005 C   0  0  0  0  0  0  0  0  0  0  0  0
   -1.8280    1.4942   -2.0689 C   0  0  0  0  0  0  0  0  0  0  0  0
   -2.0215    1.2010    0.6840 C   0  0  0  0  0  0  0  0  0  0  0  0
   -1.9301    2.4744    0.1369 C   0  0  0  0  0  0  0  0  0  0  0  0
   -1.8359    2.5956   -1.2343 C   0  0  0  0  0  0  0  0  0  0  0  0
   -1.7401    3.8233   -1.7754 F   0  0  0  0  0  0  0  0  0  0  0  0
    1.4061   -1.0870    0.2876 N   0  0  0  0  0  0  0  0  0  0  0  0
    2.5796   -0.3708    0.7216 C   0  0  0  0  0  0  0  0  0  0  0  0
    2.7662    0.9613    0.0354 C   0  0  0  0  0  0  0  0  0  0  0  0
    1.6847    1.7186   -0.4033 C   0  0  0  0  0  0  0  0  0  0  0  0
    1.8854    2.9631   -0.9866 C   0  0  0  0  0  0  0  0  0  0  0  0
    3.1701    3.4663   -1.1402 C   0  0  0  0  0  0  0  0  0  0  0  0
    4.2550    2.7139   -0.7091 C   0  0  0  0  0  0  0  0  0  0  0  0
    4.0523    1.4692   -0.1292 C   0  0  0  0  0  0  0  0  0  0  0  0
   -0.2408   -4.4026    0.4229 N   0  0  0  0  0  0  0  0  0  0  0  0
   -0.0735   -5.6190    1.0082 O   0  0  0  0  0  0  0  0  0  0  0  0
   -0.5611   -2.2336   -0.6790 H   0  0  0  0  0  0  0  0  0  0  0  0
   -2.8958   -1.8871   -0.0136 H   0  0  0  0  0  0  0  0  0  0  0  0
   -2.4021   -1.2298    1.5363 H   0  0  0  0  0  0  0  0  0  0  0  0
   -1.9303   -0.6327   -2.1527 H   0  0  0  0  0  0  0  0  0  0  0  0
   -1.7545    1.6171   -3.1416 H   0  0  0  0  0  0  0  0  0  0  0  0
   -2.0910    1.0951    1.7590 H   0  0  0  0  0  0  0  0  0  0  0  0
   -1.9298    3.3515    0.7705 H   0  0  0  0  0  0  0  0  0  0  0  0
    1.3943   -1.4153   -0.6647 H   0  0  0  0  0  0  0  0  0  0  0  0
    2.5012   -0.2227    1.7988 H   0  0  0  0  0  0  0  0  0  0  0  0
    3.4601   -0.9953    0.5570 H   0  0  0  0  0  0  0  0  0  0  0  0
    0.6757    1.3408   -0.2943 H   0  0  0  0  0  0  0  0  0  0  0  0
    1.0341    3.5415   -1.3223 H   0  0  0  0  0  0  0  0  0  0  0  0
    3.3262    4.4346   -1.5978 H   0  0  0  0  0  0  0  0  0  0  0  0
    5.2616    3.0926   -0.8308 H   0  0  0  0  0  0  0  0  0  0  0  0
    4.9059    0.8851    0.1958 H   0  0  0  0  0  0  0  0  0  0  0  0
    0.3564   -4.2239   -0.3721 H   0  0  0  0  0  0  0  0  0  0  0  0
   -0.7648   -6.1895    0.6475 H   0  0  0  0  0  0  0  0  0  0  0  0
 23 22  1  0
  5  4  2  0
 22  4  1  0
  4  3  1  0
  6  3  1  0
  6  7  1  0
  3  2  1  0
  1  2  2  0
  7  8  2  0
  7 10  1  0
  2 14  1  0
  8  9  1  0
 10 11  2  0
  9 12  2  0
 11 12  1  0
 14 15  1  0
 12 13  1  0
 15 16  1  0
 21 16  1  0
 21 20  2  0
 16 17  2  0
 20 19  1  0
 17 18  1  0
 19 18  2  0
  3 24  1  6
  6 25  1  0
  6 26  1  0
  8 27  1  0
  9 28  1  0
 10 29  1  0
 11 30  1  0
 14 31  1  0
 15 32  1  0
 15 33  1  0
 17 34  1  0
 18 35  1  0
 19 36  1  0
 20 37  1  0
 21 38  1  0
 22 39  1  0
 23 40  1  0
M  END
