
     RDKit          3D

 28 29  0  0  0  0  0  0  0  0999 V2000
    0.3309    1.7526   -0.8343 S   0  0  0  0  0  0  0  0  0  0  0  0
    0.2146    0.0281   -0.8131 C   0  0  0  0  0  0  0  0  0  0  0  0
    1.2835   -0.5739   -0.4170 N   0  0  0  0  0  0  0  0  0  0  0  0
    2.2654    0.3206   -0.0961 C   0  0  0  0  0  0  0  0  0  0  0  0
    1.9325    1.6298   -0.2590 C   0  0  0  0  0  0  0  0  0  0  0  0
    3.5881   -0.1397    0.4016 C   0  0  0  0  0  0  0  0  0  0  0  0
    4.4639    0.6617    0.6976 O   0  0  0  0  0  0  0  0  0  0  0  0
    3.7161   -1.4675    0.4927 N   0  0  0  0  0  0  0  0  0  0  0  0
   -1.0563   -0.6437   -1.2372 C   0  0  1  0  0  0  0  0  0  0  0  0
   -1.6661   -1.4856   -0.1057 C   0  0  2  0  0  0  0  0  0  0  0  0
   -2.5356   -2.4680   -0.5952 O   0  0  0  0  0  0  0  0  0  0  0  0
   -2.4965   -0.4178    0.5937 C   0  0  2  0  0  0  0  0  0  0  0  0
   -3.4621   -0.9675    1.4391 O   0  0  0  0  0  0  0  0  0  0  0  0
   -3.0614    0.3673   -0.5957 C   0  0  2  0  0  0  0  0  0  0  0  0
   -2.0068    0.3501   -1.5627 O   0  0  0  0  0  0  0  0  0  0  0  0
   -3.4593    1.7898   -0.2795 C   0  0  0  0  0  0  0  0  0  0  0  0
    2.5393    2.5009   -0.0701 H   0  0  0  0  0  0  0  0  0  0  0  0
    2.9627   -2.0820    0.2331 H   0  0  0  0  0  0  0  0  0  0  0  0
    4.5750   -1.8768    0.8210 H   0  0  0  0  0  0  0  0  0  0  0  0
   -0.8437   -1.2636   -2.1159 H   0  0  0  0  0  0  0  0  0  0  0  0
   -0.8880   -1.9105    0.5385 H   0  0  0  0  0  0  0  0  0  0  0  0
   -2.0144   -3.1529   -1.0259 H   0  0  0  0  0  0  0  0  0  0  0  0
   -1.8046    0.2331    1.1487 H   0  0  0  0  0  0  0  0  0  0  0  0
   -3.7685   -0.2790    2.0363 H   0  0  0  0  0  0  0  0  0  0  0  0
   -3.9281   -0.1732   -0.9964 H   0  0  0  0  0  0  0  0  0  0  0  0
   -2.6286    2.3502    0.1528 H   0  0  0  0  0  0  0  0  0  0  0  0
   -3.8059    2.3157   -1.1694 H   0  0  0  0  0  0  0  0  0  0  0  0
   -4.2816    1.7928    0.4380 H   0  0  0  0  0  0  0  0  0  0  0  0
  1  2  1  0
  1  5  1  0
  2  3  2  0
  2  9  1  0
  3  4  1  0
  4  5  2  0
  4  6  1  0
  5 17  1  0
  6  7  2  0
  6  8  1  0
  8 18  1  0
  8 19  1  0
  9 10  1  0
  9 15  1  0
  9 20  1  6
 10 11  1  0
 10 12  1  0
 10 21  1  1
 11 22  1  0
 12 13  1  0
 12 14  1  0
 12 23  1  1
 13 24  1  0
 14 15  1  0
 14 16  1  0
 14 25  1  6
 16 26  1  0
 16 27  1  0
 16 28  1  0
M  END
