
     RDKit          3D

 35 36  0  0  0  0  0  0  0  0999 V2000
   -5.4227   -2.3024   -0.0262 O   0  0  0  0  0  0  0  0  0  0  0  0
   -4.1222   -2.4814    0.1459 C   0  0  0  0  0  0  0  0  0  0  0  0
   -3.6158   -3.5664    0.2992 O   0  0  0  0  0  0  0  0  0  0  0  0
   -3.3542   -1.2076    0.1276 C   0  0  0  0  0  0  0  0  0  0  0  0
   -1.9815   -1.2847    0.2968 C   0  0  0  0  0  0  0  0  0  0  0  0
   -3.9792    0.0247   -0.0547 C   0  0  0  0  0  0  0  0  0  0  0  0
   -3.1964    1.1713   -0.0685 C   0  0  0  0  0  0  0  0  0  0  0  0
   -3.7918    2.5201   -0.2663 C   0  0  0  0  0  0  0  0  0  0  0  0
   -5.0998    2.4845   -0.4705 O   0  0  0  0  0  0  0  0  0  0  0  0
   -3.1529    3.5442   -0.2453 O   0  0  0  0  0  0  0  0  0  0  0  0
   -1.8155    1.0985    0.0928 C   0  0  0  0  0  0  0  0  0  0  0  0
   -1.1852   -0.1329    0.2858 C   0  0  0  0  0  0  0  0  0  0  0  0
    0.1676   -0.2480    0.4876 N   0  0  0  0  0  0  0  0  0  0  0  0
    1.0652    0.8523    0.2164 C   0  0  0  0  0  0  0  0  0  0  0  0
    2.4717    0.4629    0.5759 C   0  0  0  0  0  0  0  0  0  0  0  0
    3.4449    0.3638   -0.4054 C   0  0  0  0  0  0  0  0  0  0  0  0
    2.8088    0.1844    1.8995 C   0  0  0  0  0  0  0  0  0  0  0  0
    4.1015   -0.1808    2.2397 C   0  0  0  0  0  0  0  0  0  0  0  0
    5.0829   -0.2773    1.2653 C   0  0  0  0  0  0  0  0  0  0  0  0
    4.7364   -0.0010   -0.0473 C   0  0  0  0  0  0  0  0  0  0  0  0
    5.7544   -0.0952   -1.0837 N   0  0  0  0  0  0  0  0  0  0  0  0
    5.4321    0.1520   -2.2218 O   0  0  0  0  0  0  0  0  0  0  0  0
    6.8723   -0.4151   -0.7550 O   0  0  0  0  0  0  0  0  0  0  0  0
   -5.8806   -3.1562   -0.0141 H   0  0  0  0  0  0  0  0  0  0  0  0
   -1.5128   -2.2504    0.4428 H   0  0  0  0  0  0  0  0  0  0  0  0
   -5.0488    0.0863   -0.1835 H   0  0  0  0  0  0  0  0  0  0  0  0
   -5.4379    3.3828   -0.6023 H   0  0  0  0  0  0  0  0  0  0  0  0
   -1.2363    2.0111    0.0608 H   0  0  0  0  0  0  0  0  0  0  0  0
    0.5465   -1.1585    0.2764 H   0  0  0  0  0  0  0  0  0  0  0  0
    1.0247    1.1748   -0.8315 H   0  0  0  0  0  0  0  0  0  0  0  0
    0.7703    1.7130    0.8225 H   0  0  0  0  0  0  0  0  0  0  0  0
    3.1902    0.5711   -1.4354 H   0  0  0  0  0  0  0  0  0  0  0  0
    2.0526    0.2579    2.6709 H   0  0  0  0  0  0  0  0  0  0  0  0
    4.3532   -0.3889    3.2702 H   0  0  0  0  0  0  0  0  0  0  0  0
    6.0897   -0.5592    1.5355 H   0  0  0  0  0  0  0  0  0  0  0  0
 14 13  1  0
 14 15  1  0
 13 12  1  0
  3  2  2  0
  5 12  1  0
  5  4  2  0
 12 11  2  0
  2  4  1  0
  2  1  1  0
 15 16  2  0
 15 17  1  0
  4  6  1  0
 16 20  1  0
 11  7  1  0
 17 18  2  0
  6  7  2  0
  7  8  1  0
 20 21  1  0
 20 19  2  0
 10  8  2  0
 21 22  2  0
 21 23  1  0
 18 19  1  0
  8  9  1  0
  1 24  1  0
  5 25  1  0
  6 26  1  0
  9 27  1  0
 11 28  1  0
 13 29  1  0
 14 30  1  0
 14 31  1  0
 16 32  1  0
 17 33  1  0
 18 34  1  0
 19 35  1  0
M  CHG  2  21   1  23  -1
M  END
