
     RDKit          3D

 16 16  0  0  0  0  0  0  0  0999 V2000
   -0.1471    3.5144    0.1144 C   0  0  0  0  0  0  0  0  0  0  0  0
   -1.2258    4.0761    0.2067 O   0  0  0  0  0  0  0  0  0  0  0  0
    0.9931    4.1620    0.0465 O   0  0  0  0  0  0  0  0  0  0  0  0
   -2.3967    1.7845    0.2150 O   0  0  0  0  0  0  0  0  0  0  0  0
   -0.0140    2.0476    0.0678 C   0  0  0  0  0  0  0  0  0  0  0  0
   -1.1850    1.2663    0.1223 C   0  0  0  0  0  0  0  0  0  0  0  0
   -1.0514   -0.1269    0.0735 C   0  0  0  0  0  0  0  0  0  0  0  0
    0.1877   -0.7279   -0.0239 C   0  0  0  0  0  0  0  0  0  0  0  0
    1.3327    0.0627   -0.0752 C   0  0  0  0  0  0  0  0  0  0  0  0
    1.2377    1.4369   -0.0307 C   0  0  0  0  0  0  0  0  0  0  0  0
   -2.7772   -1.3102    0.1494 I   0  0  0  0  0  0  0  0  0  0  0  0
    3.2148   -0.8558   -0.2217 I   0  0  0  0  0  0  0  0  0  0  0  0
    0.8447    5.1198    0.0789 H   0  0  0  0  0  0  0  0  0  0  0  0
   -2.3116    2.7649    0.2395 H   0  0  0  0  0  0  0  0  0  0  0  0
    0.2632   -1.8060   -0.0593 H   0  0  0  0  0  0  0  0  0  0  0  0
    2.1269    2.0496   -0.0712 H   0  0  0  0  0  0  0  0  0  0  0  0
  1  2  2  0
  1  3  1  0
  1  5  1  0
  3 13  1  0
  4  6  1  0
  4 14  1  0
  5  6  2  0
  5 10  1  0
  6  7  1  0
  7  8  2  0
  7 11  1  0
  8  9  1  0
  8 15  1  0
  9 10  2  0
  9 12  1  0
 10 16  1  0
M  END
