
     RDKit          3D

 18 18  0  0  0  0  0  0  0  0999 V2000
   -3.0447   -0.0473   -0.0879 C   0  0  0  0  0  0  0  0  0  0  0  0
   -3.8494   -0.0534    0.8015 O   0  0  0  0  0  0  0  0  0  0  0  0
   -1.7463    0.0080    0.1538 O   0  0  0  0  0  0  0  0  0  0  0  0
   -0.8734    0.0226   -0.9939 C   0  0  0  0  0  0  0  0  0  0  0  0
    0.5361    0.0045   -0.4926 C   0  0  0  0  0  0  0  0  0  0  0  0
    1.1707   -1.2037   -0.2178 C   0  0  0  0  0  0  0  0  0  0  0  0
    2.4666   -1.2210    0.2780 C   0  0  0  0  0  0  0  0  0  0  0  0
    3.1394   -0.0271    0.5063 C   0  0  0  0  0  0  0  0  0  0  0  0
    2.5132    1.1822    0.2346 C   0  0  0  0  0  0  0  0  0  0  0  0
    1.2165    1.1961   -0.2611 C   0  0  0  0  0  0  0  0  0  0  0  0
   -3.3153   -0.0875   -1.1542 H   0  0  0  0  0  0  0  0  0  0  0  0
   -1.0758   -0.8496   -1.6192 H   0  0  0  0  0  0  0  0  0  0  0  0
   -1.0652    0.9205   -1.5845 H   0  0  0  0  0  0  0  0  0  0  0  0
    0.6525   -2.1378   -0.3993 H   0  0  0  0  0  0  0  0  0  0  0  0
    2.9524   -2.1656    0.4840 H   0  0  0  0  0  0  0  0  0  0  0  0
    4.1509   -0.0401    0.8912 H   0  0  0  0  0  0  0  0  0  0  0  0
    3.0342    2.1148    0.4072 H   0  0  0  0  0  0  0  0  0  0  0  0
    0.7333    2.1419   -0.4753 H   0  0  0  0  0  0  0  0  0  0  0  0
  1  2  2  0
  1  3  1  0
  1 11  1  0
  3  4  1  0
  4  5  1  0
  4 12  1  0
  4 13  1  0
  5  6  2  0
  5 10  1  0
  6  7  1  0
  6 14  1  0
  7  8  2  0
  7 15  1  0
  8  9  1  0
  8 16  1  0
  9 10  2  0
  9 17  1  0
 10 18  1  0
M  END
