
     RDKit          3D

 41 43  0  0  0  0  0  0  0  0999 V2000
    3.5882    0.5746    0.3292 C   0  0  0  0  0  0  0  0  0  0  0  0
    4.3695    0.2831    1.4298 C   0  0  0  0  0  0  0  0  0  0  0  0
    5.4814   -0.5404    1.3109 C   0  0  0  0  0  0  0  0  0  0  0  0
    5.7785   -1.0689    0.0674 C   0  0  0  0  0  0  0  0  0  0  0  0
    1.2718    0.9459    0.4242 C   0  0  0  0  0  0  0  0  0  0  0  0
    0.2312    1.8602    0.3051 C   0  0  0  0  0  0  0  0  0  0  0  0
   -1.0955    1.4651    0.3002 C   0  0  0  0  0  0  0  0  0  0  0  0
    0.9513   -0.3984    0.5391 C   0  0  0  0  0  0  0  0  0  0  0  0
   -3.8234    0.1813   -0.1448 C   0  0  0  0  0  0  0  0  0  0  0  0
   -6.2383   -2.6304    0.1208 C   0  0  0  0  0  0  0  0  0  0  0  0
   -7.2362   -0.8519   -0.9591 C   0  0  0  0  0  0  0  0  0  0  0  0
   -6.2237    0.1297   -0.4061 C   0  0  0  0  0  0  0  0  0  0  0  0
   -3.7764    1.2765   -0.6871 O   0  0  0  0  0  0  0  0  0  0  0  0
   -4.9755   -0.5527   -0.0922 N   0  0  0  0  0  0  0  0  0  0  0  0
   -7.4428   -1.9357   -0.0823 O   0  0  0  0  0  0  0  0  0  0  0  0
   -5.1576   -1.7456    0.7204 C   0  0  0  0  0  0  0  0  0  0  0  0
   -1.4120    0.1107    0.3952 C   0  0  0  0  0  0  0  0  0  0  0  0
    0.6079    3.5423    0.1758 Cl  0  0  0  0  0  0  0  0  0  0  0  0
   -0.3704   -0.8075    0.5145 C   0  0  0  0  0  0  0  0  0  0  0  0
    2.5358    1.4412    0.4501 O   0  0  0  0  0  0  0  0  0  0  0  0
    3.8974    0.0386   -0.9250 C   0  0  0  0  0  0  0  0  0  0  0  0
    3.0947    0.3611   -1.9475 O   0  0  0  0  0  0  0  0  0  0  0  0
    5.0037   -0.7928   -1.0492 C   0  0  0  0  0  0  0  0  0  0  0  0
    7.1561   -2.1023   -0.1128 Cl  0  0  0  0  0  0  0  0  0  0  0  0
    4.1124    0.7104    2.3905 H   0  0  0  0  0  0  0  0  0  0  0  0
    6.0937   -0.7630    2.1729 H   0  0  0  0  0  0  0  0  0  0  0  0
   -1.8650    2.2158    0.2291 H   0  0  0  0  0  0  0  0  0  0  0  0
    1.7281   -1.1443    0.6440 H   0  0  0  0  0  0  0  0  0  0  0  0
   -5.8724   -3.0515   -0.8264 H   0  0  0  0  0  0  0  0  0  0  0  0
   -8.1936   -0.3477   -1.0943 H   0  0  0  0  0  0  0  0  0  0  0  0
   -6.9005   -1.2121   -1.9417 H   0  0  0  0  0  0  0  0  0  0  0  0
   -6.6264    0.6112    0.4936 H   0  0  0  0  0  0  0  0  0  0  0  0
   -6.0453    0.9057   -1.1455 H   0  0  0  0  0  0  0  0  0  0  0  0
   -4.2556   -2.3552    0.7489 H   0  0  0  0  0  0  0  0  0  0  0  0
   -5.4130   -1.4767    1.7520 H   0  0  0  0  0  0  0  0  0  0  0  0
   -0.5876   -1.8656    0.5935 H   0  0  0  0  0  0  0  0  0  0  0  0
    3.3972   -0.0506   -2.7648 H   0  0  0  0  0  0  0  0  0  0  0  0
    5.2604   -1.2168   -2.0122 H   0  0  0  0  0  0  0  0  0  0  0  0
   -2.7186   -0.3852    0.4358 N   0  0  0  0  0  0  0  0  0  0  0  0
   -6.4395   -3.4584    0.8012 H   0  0  0  0  0  0  0  0  0  0  0  0
   -2.7870   -1.3188    0.8024 H   0  0  0  0  0  0  0  0  0  0  0  0
  1  2  2  0
  1 20  1  0
  1 21  1  0
  2  3  1  0
  2 25  1  0
  3  4  2  0
  3 26  1  0
  4 23  1  0
  4 24  1  0
  5  6  2  0
  5  8  1  0
  5 20  1  0
  6  7  1  0
  6 18  1  0
  7 17  2  0
  7 27  1  0
  8 19  2  0
  8 28  1  0
  9 13  2  0
  9 14  1  0
  9 39  1  0
 10 15  1  0
 10 16  1  0
 10 40  1  0
 10 29  1  0
 11 12  1  0
 11 15  1  0
 11 30  1  0
 11 31  1  0
 12 14  1  0
 12 32  1  0
 12 33  1  0
 14 16  1  0
 16 34  1  0
 16 35  1  0
 39 17  1  0
 39 41  1  0
 17 19  1  0
 19 36  1  0
 21 22  1  0
 21 23  2  0
 22 37  1  0
 23 38  1  0
M  END
