
     RDKit          3D

 45 47  0  0  0  0  0  0  0  0999 V2000
    2.1313   -0.7744   -0.4211 C   0  0  0  0  0  0  0  0  0  0  0  0
    3.5028   -0.8339   -0.2697 C   0  0  0  0  0  0  0  0  0  0  0  0
    4.1630   -0.0004    0.6135 C   0  0  0  0  0  0  0  0  0  0  0  0
    3.3973    0.8883    1.3486 C   0  0  0  0  0  0  0  0  0  0  0  0
    1.3436    1.9707    2.1704 C   0  0  0  0  0  0  0  0  0  0  0  0
   -0.1800    1.9999    2.2056 C   0  0  0  0  0  0  0  0  0  0  0  0
   -1.8570    3.7994   -0.6964 C   0  0  0  0  0  0  0  0  0  0  0  0
   -1.7666    2.8307   -1.6867 C   0  0  0  0  0  0  0  0  0  0  0  0
   -1.1567    1.6144   -1.4140 C   0  0  0  0  0  0  0  0  0  0  0  0
   -0.6456    1.3558   -0.1450 C   0  0  0  0  0  0  0  0  0  0  0  0
    2.0098    0.9711    1.2501 C   0  0  0  0  0  0  0  0  0  0  0  0
    1.3617    0.1166    0.3388 C   0  0  0  0  0  0  0  0  0  0  0  0
   -2.7798   -2.4285   -0.4786 C   0  0  0  0  0  0  0  0  0  0  0  0
   -5.0350   -1.7749    0.0849 C   0  0  0  0  0  0  0  0  0  0  0  0
   -1.3440    3.5396    0.5673 C   0  0  0  0  0  0  0  0  0  0  0  0
   -0.7490    2.3173    0.8607 C   0  0  0  0  0  0  0  0  0  0  0  0
   -2.1177   -1.2049    0.1427 C   0  0  0  0  0  0  0  0  0  0  0  0
   -4.5194   -4.0559   -0.3690 C   0  0  0  0  0  0  0  0  0  0  0  0
   -0.0326    0.1179    0.1682 N   0  0  0  0  0  0  0  0  0  0  0  0
   -4.0237   -2.8064    0.1648 N   0  0  0  0  0  0  0  0  0  0  0  0
    4.4098   -1.9621   -1.2292 Cl  0  0  0  0  0  0  0  0  0  0  0  0
    1.6575   -1.4166   -1.1505 H   0  0  0  0  0  0  0  0  0  0  0  0
    5.2360   -0.0438    0.7370 H   0  0  0  0  0  0  0  0  0  0  0  0
    3.9014    1.5391    2.0539 H   0  0  0  0  0  0  0  0  0  0  0  0
    1.6986    2.9712    1.9051 H   0  0  0  0  0  0  0  0  0  0  0  0
   -0.5653    1.0399    2.5577 H   0  0  0  0  0  0  0  0  0  0  0  0
   -2.3287    4.7506   -0.9061 H   0  0  0  0  0  0  0  0  0  0  0  0
   -2.1637    3.0223   -2.6751 H   0  0  0  0  0  0  0  0  0  0  0  0
   -1.0817    0.8672   -2.1945 H   0  0  0  0  0  0  0  0  0  0  0  0
   -2.9179   -2.2495   -1.5605 H   0  0  0  0  0  0  0  0  0  0  0  0
   -2.0965   -3.2800   -0.3965 H   0  0  0  0  0  0  0  0  0  0  0  0
   -5.2935   -1.4976   -0.9497 H   0  0  0  0  0  0  0  0  0  0  0  0
   -5.9481   -2.1179    0.5732 H   0  0  0  0  0  0  0  0  0  0  0  0
   -4.7136   -0.8712    0.6024 H   0  0  0  0  0  0  0  0  0  0  0  0
   -1.4215    4.2914    1.3441 H   0  0  0  0  0  0  0  0  0  0  0  0
   -0.1189   -1.9414    0.0596 H   0  0  0  0  0  0  0  0  0  0  0  0
   -0.6312   -1.1695   -1.4264 H   0  0  0  0  0  0  0  0  0  0  0  0
   -2.6734   -0.3016   -0.1168 H   0  0  0  0  0  0  0  0  0  0  0  0
   -2.1335   -1.2911    1.2325 H   0  0  0  0  0  0  0  0  0  0  0  0
   -3.7673   -4.8382   -0.2545 H   0  0  0  0  0  0  0  0  0  0  0  0
   -5.4104   -4.3687    0.1775 H   0  0  0  0  0  0  0  0  0  0  0  0
   -4.7856   -4.0008   -1.4366 H   0  0  0  0  0  0  0  0  0  0  0  0
    1.7129    1.7874    3.1830 H   0  0  0  0  0  0  0  0  0  0  0  0
   -0.4884    2.7533    2.9322 H   0  0  0  0  0  0  0  0  0  0  0  0
   -0.6752   -1.0877   -0.3309 C   0  0  0  0  0  0  0  0  0  0  0  0
  1 12  2  0
  1  2  1  0
  1 22  1  0
  2 21  1  0
  2  3  2  0
  3  4  1  0
  3 23  1  0
  4 11  2  0
  4 24  1  0
  5 11  1  0
  5  6  1  0
  5 25  1  0
  6 16  1  0
  6 26  1  0
  7  8  2  0
  7 15  1  0
  7 27  1  0
  8  9  1  0
  8 28  1  0
  9 10  2  0
  9 29  1  0
 10 19  1  0
 10 16  1  0
 11 12  1  0
 12 19  1  0
 13 20  1  0
 13 17  1  0
 13 30  1  0
 13 31  1  0
 14 20  1  0
 14 32  1  0
 14 33  1  0
 14 34  1  0
 15 16  2  0
 15 35  1  0
 45 17  1  0
 45 19  1  0
 45 36  1  0
 45 37  1  0
 17 38  1  0
 17 39  1  0
 18 20  1  0
 18 40  1  0
 18 41  1  0
 18 42  1  0
  5 43  1  0
  6 44  1  0
M  END
