
     RDKit          3D

 21 20  0  0  0  0  0  0  0  0999 V2000
   -2.4680   -0.2889    1.4526 O   0  0  0  0  0  0  0  0  0  0  0  0
   -1.9114    0.1587    0.0210 P   0  0  1  0  0  0  0  0  0  0  0  0
   -2.5242   -0.8293   -1.0708 O   0  0  0  0  0  0  0  0  0  0  0  0
   -2.1355    1.6056   -0.1595 O   0  0  0  0  0  0  0  0  0  0  0  0
   -0.4066   -0.3551   -0.0817 O   0  0  0  0  0  0  0  0  0  0  0  0
    0.6185    0.2758    0.7198 C   0  0  0  0  0  0  0  0  0  0  0  0
    1.8859   -0.4744    0.5079 C   0  0  0  0  0  0  0  0  0  0  0  0
    3.0073   -0.0074   -0.0479 C   0  0  0  0  0  0  0  0  0  0  0  0
    4.2185   -0.8836   -0.1664 C   0  0  0  0  0  0  0  0  0  0  0  0
    3.1973    1.3778   -0.5878 C   0  0  0  0  0  0  0  0  0  0  0  0
   -2.4074   -1.2335    1.6483 H   0  0  0  0  0  0  0  0  0  0  0  0
   -3.4406   -0.6343   -1.3080 H   0  0  0  0  0  0  0  0  0  0  0  0
    0.7046    1.3263    0.4427 H   0  0  0  0  0  0  0  0  0  0  0  0
    0.3307    0.2303    1.7740 H   0  0  0  0  0  0  0  0  0  0  0  0
    1.8779   -1.5005    0.8649 H   0  0  0  0  0  0  0  0  0  0  0  0
    4.5293   -0.9703   -1.2103 H   0  0  0  0  0  0  0  0  0  0  0  0
    5.0645   -0.4505    0.3726 H   0  0  0  0  0  0  0  0  0  0  0  0
    4.0438   -1.8861    0.2221 H   0  0  0  0  0  0  0  0  0  0  0  0
    2.3027    1.9951   -0.5581 H   0  0  0  0  0  0  0  0  0  0  0  0
    3.9801    1.8959   -0.0289 H   0  0  0  0  0  0  0  0  0  0  0  0
    3.5368    1.3312   -1.6249 H   0  0  0  0  0  0  0  0  0  0  0  0
  4  2  2  0
  2  3  1  6
  2  1  1  0
  2  5  1  0
  6  5  1  0
  6  7  1  0
  7  8  2  0
  9  8  1  0
  8 10  1  0
  1 11  1  0
  3 12  1  0
  6 13  1  0
  6 14  1  0
  7 15  1  0
  9 16  1  0
  9 17  1  0
  9 18  1  0
 10 19  1  0
 10 20  1  0
 10 21  1  0
M  END
