
     RDKit          3D

 20 20  0  0  0  0  0  0  0  0999 V2000
    0.6289    1.4366    0.1065 C   0  0  0  0  0  0  0  0  0  0  0  0
   -0.6279    0.6861   -0.3263 C   0  0  1  0  0  0  0  0  0  0  0  0
   -0.6284   -0.7195    0.2527 C   0  0  2  0  0  0  0  0  0  0  0  0
    0.6370   -1.4641   -0.1654 C   0  0  0  0  0  0  0  0  0  0  0  0
    1.9001   -0.7220    0.2552 C   0  0  0  0  0  0  0  0  0  0  0  0
    1.9009    0.6992   -0.2954 C   0  0  0  0  0  0  0  0  0  0  0  0
   -1.7948   -1.3793   -0.1917 O   0  0  0  0  0  0  0  0  0  0  0  0
   -1.8028    1.3409    0.1031 O   0  0  0  0  0  0  0  0  0  0  0  0
    0.6184    2.4402   -0.3296 H   0  0  0  0  0  0  0  0  0  0  0  0
    0.6078    1.5659    1.1944 H   0  0  0  0  0  0  0  0  0  0  0  0
   -0.6164    0.5965   -1.4254 H   0  0  0  0  0  0  0  0  0  0  0  0
   -0.6306   -0.6304    1.3519 H   0  0  0  0  0  0  0  0  0  0  0  0
    0.6249   -2.4691    0.2675 H   0  0  0  0  0  0  0  0  0  0  0  0
    0.6306   -1.5905   -1.2539 H   0  0  0  0  0  0  0  0  0  0  0  0
    1.9638   -0.6912    1.3480 H   0  0  0  0  0  0  0  0  0  0  0  0
    2.7822   -1.2651   -0.0906 H   0  0  0  0  0  0  0  0  0  0  0  0
    1.9809    0.6681   -1.3870 H   0  0  0  0  0  0  0  0  0  0  0  0
    2.7752    1.2467    0.0629 H   0  0  0  0  0  0  0  0  0  0  0  0
   -1.7589   -2.2872    0.1256 H   0  0  0  0  0  0  0  0  0  0  0  0
   -1.7652    2.2498   -0.2107 H   0  0  0  0  0  0  0  0  0  0  0  0
  5  4  1  0
  5  6  1  0
  4  3  1  0
  6  1  1  0
  3  7  1  0
  3  2  1  0
  1  2  1  0
  2  8  1  0
  1  9  1  0
  1 10  1  0
  2 11  1  6
  3 12  1  1
  4 13  1  0
  4 14  1  0
  5 15  1  0
  5 16  1  0
  6 17  1  0
  6 18  1  0
  7 19  1  0
  8 20  1  0
M  END
