
     RDKit          3D

 31 33  0  0  0  0  0  0  0  0999 V2000
   -3.6461    1.0927    0.0197 C   0  0  0  0  0  0  0  0  0  0  0  0
   -3.6275   -0.2036   -0.4752 C   0  0  0  0  0  0  0  0  0  0  0  0
   -2.4867   -0.9910   -0.3541 C   0  0  0  0  0  0  0  0  0  0  0  0
   -0.1227   -1.2715    0.3077 C   0  0  0  0  0  0  0  0  0  0  0  0
    2.0186   -1.9363    0.3866 C   0  0  0  0  0  0  0  0  0  0  0  0
    1.6682    0.4902    0.2983 C   0  0  0  0  0  0  0  0  0  0  0  0
    1.5423    1.1782   -0.8996 C   0  0  0  0  0  0  0  0  0  0  0  0
    2.0167    2.4649   -1.0478 C   0  0  0  0  0  0  0  0  0  0  0  0
    2.3112    1.0994    1.3658 C   0  0  0  0  0  0  0  0  0  0  0  0
   -1.3242   -0.4581    0.2407 C   0  0  0  0  0  0  0  0  0  0  0  0
   -1.3844    0.8409    0.7565 C   0  0  0  0  0  0  0  0  0  0  0  0
   -2.5176    1.6162    0.6562 C   0  0  0  0  0  0  0  0  0  0  0  0
   -4.7279    1.8791   -0.0728 O   0  0  0  0  0  0  0  0  0  0  0  0
   -2.5597   -2.2371   -0.8309 O   0  0  0  0  0  0  0  0  0  0  0  0
   -0.1447   -2.5653    0.2534 N   0  0  0  0  0  0  0  0  0  0  0  0
    1.1471   -2.9650    0.2948 N   0  0  0  0  0  0  0  0  0  0  0  0
    1.1746   -0.8260    0.4006 N   0  0  0  0  0  0  0  0  0  0  0  0
    2.6544    3.0661    0.0287 C   0  0  0  0  0  0  0  0  0  0  0  0
    2.8070    2.3871    1.2307 C   0  0  0  0  0  0  0  0  0  0  0  0
    3.2314   -1.9375    0.4377 O   0  0  0  0  0  0  0  0  0  0  0  0
    0.9339    0.5701   -1.9216 F   0  0  0  0  0  0  0  0  0  0  0  0
   -4.5064   -0.6288   -0.9464 H   0  0  0  0  0  0  0  0  0  0  0  0
    1.8968    2.9822   -1.9904 H   0  0  0  0  0  0  0  0  0  0  0  0
    2.4077    0.5644    2.3012 H   0  0  0  0  0  0  0  0  0  0  0  0
   -0.5286    1.2588    1.2675 H   0  0  0  0  0  0  0  0  0  0  0  0
   -2.5376    2.6158    1.0689 H   0  0  0  0  0  0  0  0  0  0  0  0
   -5.4410    1.4280   -0.5397 H   0  0  0  0  0  0  0  0  0  0  0  0
   -1.7572   -2.7385   -0.5865 H   0  0  0  0  0  0  0  0  0  0  0  0
    1.3801   -3.9448    0.2726 H   0  0  0  0  0  0  0  0  0  0  0  0
    3.0340    4.0731   -0.0783 H   0  0  0  0  0  0  0  0  0  0  0  0
    3.3077    2.8603    2.0637 H   0  0  0  0  0  0  0  0  0  0  0  0
 13  1  1  0
  1  2  2  0
  1 12  1  0
 19 18  2  0
 19  9  1  0
  2  3  1  0
 12 11  2  0
 18  8  1  0
  9  6  2  0
  3 14  1  0
  3 10  2  0
 11 10  1  0
  8  7  2  0
 10  4  1  0
  6  7  1  0
  6 17  1  0
  7 21  1  0
  4 17  1  0
  4 15  2  0
 17  5  1  0
 15 16  1  0
  5 20  2  0
  5 16  1  0
  2 22  1  0
  8 23  1  0
  9 24  1  0
 11 25  1  0
 12 26  1  0
 13 27  1  0
 14 28  1  0
 16 29  1  0
 18 30  1  0
 19 31  1  0
M  END
