
     RDKit          3D

 19 19  0  0  0  0  0  0  0  0999 V2000
    1.7282    1.9441    0.0366 C   0  0  0  0  0  0  0  0  0  0  0  0
   -1.5985    0.0674   -0.0300 C   0  0  0  0  0  0  0  0  0  0  0  0
   -0.6400    1.0812   -0.0362 C   0  0  0  0  0  0  0  0  0  0  0  0
    0.7235    0.8298    0.0461 C   0  0  0  0  0  0  0  0  0  0  0  0
    1.1428   -0.5028    0.1360 C   0  0  0  0  0  0  0  0  0  0  0  0
    0.2089   -1.5306    0.1393 C   0  0  0  0  0  0  0  0  0  0  0  0
   -1.1478   -1.2432    0.0573 C   0  0  0  0  0  0  0  0  0  0  0  0
    2.4737   -0.7302    0.2129 O   0  0  0  0  0  0  0  0  0  0  0  0
    2.3360    1.9480    0.9433 H   0  0  0  0  0  0  0  0  0  0  0  0
    2.4162    1.8626   -0.8070 H   0  0  0  0  0  0  0  0  0  0  0  0
    1.2329    2.9115   -0.0324 H   0  0  0  0  0  0  0  0  0  0  0  0
   -3.4458    0.6919    0.8892 H   0  0  0  0  0  0  0  0  0  0  0  0
   -3.2695    1.2096   -0.7787 H   0  0  0  0  0  0  0  0  0  0  0  0
   -3.6496   -0.4708   -0.4117 H   0  0  0  0  0  0  0  0  0  0  0  0
   -0.9676    2.1134   -0.1106 H   0  0  0  0  0  0  0  0  0  0  0  0
    0.5372   -2.5625    0.2053 H   0  0  0  0  0  0  0  0  0  0  0  0
   -1.8593   -2.0605    0.0603 H   0  0  0  0  0  0  0  0  0  0  0  0
    2.6459   -1.6760    0.2739 H   0  0  0  0  0  0  0  0  0  0  0  0
   -3.0646    0.3902   -0.0890 C   0  0  0  0  0  0  0  0  0  0  0  0
 19  2  1  0
  2  7  2  0
  2  3  1  0
  7  6  1  0
  3  4  2  0
  6  5  2  0
  4  5  1  0
  4  1  1  0
  5  8  1  0
  1  9  1  0
  1 10  1  0
  1 11  1  0
 19 12  1  0
 19 13  1  0
 19 14  1  0
  3 15  1  0
  6 16  1  0
  7 17  1  0
  8 18  1  0
M  END
