
     RDKit          3D

 40 43  0  0  0  0  0  0  0  0999 V2000
   -2.5446    2.6271    0.0862 O   0  0  0  0  0  0  0  0  0  0  0  0
   -1.4454    2.1526   -0.0608 C   0  0  0  0  0  0  0  0  0  0  0  0
   -0.2963    2.8770   -0.2998 N   0  0  0  0  0  0  0  0  0  0  0  0
    0.8250    2.0802   -0.4304 C   0  0  0  0  0  0  0  0  0  0  0  0
    1.9372    2.4774   -0.6712 O   0  0  0  0  0  0  0  0  0  0  0  0
    0.3493    0.6910   -0.2310 C   0  0  0  0  0  0  0  0  0  0  0  0
   -1.0220    0.7285   -0.0299 C   0  0  0  0  0  0  0  0  0  0  0  0
   -1.7499   -0.4465    0.1521 C   0  0  0  0  0  0  0  0  0  0  0  0
   -3.1075   -0.8295    0.3906 C   0  0  0  0  0  0  0  0  0  0  0  0
   -4.3372    0.0121    0.5033 C   0  0  0  0  0  0  0  0  0  0  0  0
   -4.8719    0.4199   -0.8616 C   0  0  0  0  0  0  0  0  0  0  0  0
   -6.0178    1.2217   -0.6716 O   0  0  0  0  0  0  0  0  0  0  0  0
   -3.0907   -2.1953    0.4720 C   0  0  0  0  0  0  0  0  0  0  0  0
   -1.8312   -2.6910    0.3016 N   0  0  0  0  0  0  0  0  0  0  0  0
   -1.4529   -4.0841    0.3390 C   0  0  0  0  0  0  0  0  0  0  0  0
   -0.9838   -1.6488    0.1032 C   0  0  0  0  0  0  0  0  0  0  0  0
    0.3927   -1.6850   -0.0988 C   0  0  0  0  0  0  0  0  0  0  0  0
    1.0867   -0.4949   -0.2617 C   0  0  0  0  0  0  0  0  0  0  0  0
    2.5517   -0.5281   -0.4641 C   0  0  0  0  0  0  0  0  0  0  0  0
    3.0793   -1.0990   -1.6198 C   0  0  0  0  0  0  0  0  0  0  0  0
    3.4471   -0.0498    0.4900 C   0  0  0  0  0  0  0  0  0  0  0  0
    2.8490    0.6266    1.9688 Cl  0  0  0  0  0  0  0  0  0  0  0  0
    4.8179   -0.1216    0.3028 C   0  0  0  0  0  0  0  0  0  0  0  0
    5.3184   -0.6850   -0.8623 C   0  0  0  0  0  0  0  0  0  0  0  0
    4.4490   -1.1775   -1.8239 C   0  0  0  0  0  0  0  0  0  0  0  0
   -0.2805    3.8834   -0.3864 H   0  0  0  0  0  0  0  0  0  0  0  0
   -5.1074   -0.5563    1.0310 H   0  0  0  0  0  0  0  0  0  0  0  0
   -4.1351    0.9045    1.0964 H   0  0  0  0  0  0  0  0  0  0  0  0
   -4.0922    0.9559   -1.4162 H   0  0  0  0  0  0  0  0  0  0  0  0
   -5.1067   -0.4866   -1.4349 H   0  0  0  0  0  0  0  0  0  0  0  0
   -6.3786    1.4395   -1.5354 H   0  0  0  0  0  0  0  0  0  0  0  0
   -3.9189   -2.8661    0.6460 H   0  0  0  0  0  0  0  0  0  0  0  0
   -1.0338   -4.3981   -0.6159 H   0  0  0  0  0  0  0  0  0  0  0  0
   -0.7202   -4.2656    1.1246 H   0  0  0  0  0  0  0  0  0  0  0  0
   -2.3347   -4.6839    0.5440 H   0  0  0  0  0  0  0  0  0  0  0  0
    0.9283   -2.6263   -0.1153 H   0  0  0  0  0  0  0  0  0  0  0  0
    2.4000   -1.4793   -2.3723 H   0  0  0  0  0  0  0  0  0  0  0  0
    5.4898    0.2535    1.0629 H   0  0  0  0  0  0  0  0  0  0  0  0
    6.3886   -0.7405   -1.0105 H   0  0  0  0  0  0  0  0  0  0  0  0
    4.8333   -1.6216   -2.7321 H   0  0  0  0  0  0  0  0  0  0  0  0
  1  2  2  0
  2  3  1  0
  2  7  1  0
  3  4  1  0
  4  5  2  0
  4  6  1  0
  6  7  2  0
  6 18  1  0
  7  8  1  0
  8  9  1  0
  8 16  2  0
  9 10  1  0
  9 13  2  0
 10 11  1  0
 11 12  1  0
 13 14  1  0
 14 15  1  0
 14 16  1  0
 16 17  1  0
 17 18  2  0
 18 19  1  0
 19 20  2  0
 19 21  1  0
 20 25  1  0
 21 22  1  0
 21 23  2  0
 23 24  1  0
 24 25  2  0
  3 26  1  0
 10 27  1  0
 10 28  1  0
 11 29  1  0
 11 30  1  0
 12 31  1  0
 13 32  1  0
 15 33  1  0
 15 34  1  0
 15 35  1  0
 17 36  1  0
 20 37  1  0
 23 38  1  0
 24 39  1  0
 25 40  1  0
M  END
