
     RDKit          3D

 38 41  0  0  0  0  0  0  0  0999 V2000
    2.0951   -1.3415   -0.4275 C   0  0  0  0  0  0  0  0  0  0  0  0
    0.6312    0.4762    0.2398 N   0  0  0  0  0  0  0  0  0  0  0  0
    2.2361   -2.2709   -1.2073 O   0  0  0  0  0  0  0  0  0  0  0  0
    0.7453   -0.9726    0.1824 C   0  0  1  0  0  0  0  0  0  0  0  0
   -0.4128   -1.5717   -0.6156 C   0  0  0  0  0  0  0  0  0  0  0  0
   -1.7508   -1.2318   -0.0428 C   0  0  0  0  0  0  0  0  0  0  0  0
    1.5005    2.4827    0.8193 O   0  0  0  0  0  0  0  0  0  0  0  0
    4.8036    0.9502   -0.4880 C   0  0  0  0  0  0  0  0  0  0  0  0
    4.1940    1.3437    0.8561 C   0  0  0  0  0  0  0  0  0  0  0  0
    4.4153   -0.5152   -0.6320 C   0  0  0  0  0  0  0  0  0  0  0  0
    1.6213    1.2802    0.6576 C   0  0  0  0  0  0  0  0  0  0  0  0
    2.9055    0.5230    0.9474 C   0  0  1  0  0  0  0  0  0  0  0  0
    3.0910   -0.5436   -0.0306 N   0  0  0  0  0  0  0  0  0  0  0  0
   -2.4043   -1.8947    0.9592 C   0  0  0  0  0  0  0  0  0  0  0  0
   -2.5947   -0.1290   -0.4027 C   0  0  0  0  0  0  0  0  0  0  0  0
   -3.5863   -1.2745    1.2421 N   0  0  0  0  0  0  0  0  0  0  0  0
   -3.7367   -0.1917    0.4277 C   0  0  0  0  0  0  0  0  0  0  0  0
   -2.4993    0.9009   -1.3490 C   0  0  0  0  0  0  0  0  0  0  0  0
   -4.6473    1.7427   -0.6006 C   0  0  0  0  0  0  0  0  0  0  0  0
   -4.7719    0.7375    0.3387 C   0  0  0  0  0  0  0  0  0  0  0  0
   -3.5220    1.8246   -1.4380 C   0  0  0  0  0  0  0  0  0  0  0  0
   -0.2921    0.8798    0.1587 H   0  0  0  0  0  0  0  0  0  0  0  0
    0.7110   -1.3911    1.1986 H   0  0  0  0  0  0  0  0  0  0  0  0
   -0.3481   -1.2353   -1.6536 H   0  0  0  0  0  0  0  0  0  0  0  0
   -0.2786   -2.6530   -0.6310 H   0  0  0  0  0  0  0  0  0  0  0  0
    4.3594    1.5323   -1.2982 H   0  0  0  0  0  0  0  0  0  0  0  0
    5.8818    1.0984   -0.5196 H   0  0  0  0  0  0  0  0  0  0  0  0
    4.8623    1.0602    1.6697 H   0  0  0  0  0  0  0  0  0  0  0  0
    4.0019    2.4108    0.9483 H   0  0  0  0  0  0  0  0  0  0  0  0
    4.3701   -0.8560   -1.6648 H   0  0  0  0  0  0  0  0  0  0  0  0
    5.1036   -1.1673   -0.0869 H   0  0  0  0  0  0  0  0  0  0  0  0
    2.7928    0.1012    1.9552 H   0  0  0  0  0  0  0  0  0  0  0  0
   -2.1082   -2.7825    1.4965 H   0  0  0  0  0  0  0  0  0  0  0  0
   -1.6402    0.9708   -2.0065 H   0  0  0  0  0  0  0  0  0  0  0  0
   -5.4337    2.4800   -0.6963 H   0  0  0  0  0  0  0  0  0  0  0  0
   -5.6415    0.6748    0.9807 H   0  0  0  0  0  0  0  0  0  0  0  0
   -3.4601    2.6244   -2.1642 H   0  0  0  0  0  0  0  0  0  0  0  0
   -4.2526   -1.5917    1.9261 H   0  0  0  0  0  0  0  0  0  0  0  0
  3  1  2  0
  1  4  1  0
  1 13  1  0
  4  2  1  0
  2 11  1  0
  2 22  1  0
  5  4  1  0
  4 23  1  1
  5  6  1  0
  5 24  1  0
  5 25  1  0
 15  6  1  0
  6 14  2  0
 11  7  2  0
 10  8  1  0
  8  9  1  0
  8 26  1  0
  8 27  1  0
 12  9  1  0
  9 28  1  0
  9 29  1  0
 13 10  1  0
 10 30  1  0
 10 31  1  0
 12 11  1  0
 13 12  1  0
 12 32  1  1
 16 14  1  0
 14 33  1  0
 18 15  2  0
 15 17  1  0
 17 16  1  0
 20 17  2  0
 21 18  1  0
 18 34  1  0
 21 19  2  0
 19 20  1  0
 19 35  1  0
 20 36  1  0
 21 37  1  0
 16 38  1  0
M  END
