
     RDKit          3D

 46 49  0  0  0  0  0  0  0  0999 V2000
   -1.8228   -2.4551   -0.4133 C   0  0  0  0  0  0  0  0  0  0  0  0
   -3.2321   -2.0536   -0.6681 C   0  0  0  0  0  0  0  0  0  0  0  0
   -2.9777    1.7254   -2.0586 C   0  0  0  0  0  0  0  0  0  0  0  0
   -1.9009    0.8868   -1.7931 C   0  0  0  0  0  0  0  0  0  0  0  0
   -1.4609    0.6853   -0.4969 C   0  0  0  0  0  0  0  0  0  0  0  0
   -0.3656   -0.2734   -0.2250 C   0  0  0  0  0  0  0  0  0  0  0  0
   -2.1154    1.3207    0.5636 C   0  0  0  0  0  0  0  0  0  0  0  0
   -2.2289    1.6867    2.9037 C   0  0  0  0  0  0  0  0  0  0  0  0
    3.8641    0.7530   -1.5199 C   0  0  0  0  0  0  0  0  0  0  0  0
    3.8105    0.7533    0.0097 C   0  0  1  0  0  0  0  0  0  0  0  0
    1.6573   -2.2387    0.2059 N   0  0  0  0  0  0  0  0  0  0  0  0
    1.3842    1.4955    0.0895 C   0  0  0  0  0  0  0  0  0  0  0  0
    2.8014    1.7833    0.5132 C   0  0  0  0  0  0  0  0  0  0  0  0
    1.9344   -0.9482    0.2405 C   0  0  0  0  0  0  0  0  0  0  0  0
    3.3661   -0.6082    0.5369 C   0  0  0  0  0  0  0  0  0  0  0  0
    0.6213    2.4012   -0.1765 O   0  0  0  0  0  0  0  0  0  0  0  0
    5.1958    1.0842    0.5570 C   0  0  0  0  0  0  0  0  0  0  0  0
    0.9643    0.0747    0.0391 C   0  0  0  0  0  0  0  0  0  0  0  0
   -1.6281    1.0584    1.7896 O   0  0  0  0  0  0  0  0  0  0  0  0
   -3.1993    2.1514    0.3057 C   0  0  0  0  0  0  0  0  0  0  0  0
   -3.6216    2.3506   -1.0053 C   0  0  0  0  0  0  0  0  0  0  0  0
   -0.6628   -1.6326   -0.2408 C   0  0  0  0  0  0  0  0  0  0  0  0
    0.3860   -2.5409   -0.0179 C   0  0  0  0  0  0  0  0  0  0  0  0
   -0.1602   -3.7648   -0.0763 N   0  0  0  0  0  0  0  0  0  0  0  0
   -1.4845   -3.7136   -0.3059 N   0  0  0  0  0  0  0  0  0  0  0  0
   -3.3494   -1.6231   -1.6627 H   0  0  0  0  0  0  0  0  0  0  0  0
   -3.8897   -2.9178   -0.5914 H   0  0  0  0  0  0  0  0  0  0  0  0
   -3.5659   -1.2999    0.0449 H   0  0  0  0  0  0  0  0  0  0  0  0
   -3.3088    1.8788   -3.0768 H   0  0  0  0  0  0  0  0  0  0  0  0
   -1.3929    0.3836   -2.6067 H   0  0  0  0  0  0  0  0  0  0  0  0
   -1.6763    1.3561    3.7797 H   0  0  0  0  0  0  0  0  0  0  0  0
   -2.1685    2.7761    2.8385 H   0  0  0  0  0  0  0  0  0  0  0  0
   -3.2767    1.3978    3.0202 H   0  0  0  0  0  0  0  0  0  0  0  0
    4.1522    1.7360   -1.8975 H   0  0  0  0  0  0  0  0  0  0  0  0
    4.6006    0.0303   -1.8762 H   0  0  0  0  0  0  0  0  0  0  0  0
    2.9076    0.4953   -1.9798 H   0  0  0  0  0  0  0  0  0  0  0  0
    2.8128    1.7875    1.6114 H   0  0  0  0  0  0  0  0  0  0  0  0
    3.0644    2.7929    0.1891 H   0  0  0  0  0  0  0  0  0  0  0  0
    4.0005   -1.4056    0.1431 H   0  0  0  0  0  0  0  0  0  0  0  0
    3.4910   -0.6262    1.6271 H   0  0  0  0  0  0  0  0  0  0  0  0
    5.5343    2.0594    0.2019 H   0  0  0  0  0  0  0  0  0  0  0  0
    5.1988    1.1067    1.6486 H   0  0  0  0  0  0  0  0  0  0  0  0
    5.9284    0.3410    0.2354 H   0  0  0  0  0  0  0  0  0  0  0  0
   -3.7255    2.6502    1.1083 H   0  0  0  0  0  0  0  0  0  0  0  0
   -4.4673    3.0002   -1.1907 H   0  0  0  0  0  0  0  0  0  0  0  0
    0.2971   -4.6536    0.0504 H   0  0  0  0  0  0  0  0  0  0  0  0
 10 17  1  1
 15 10  1  0
 15 14  1  0
 11 14  2  0
 11 23  1  0
 10  9  1  0
 10 13  1  0
 24 23  1  0
 24 25  1  0
 14 18  1  0
 23 22  2  0
 13 12  1  0
 25  1  2  0
 18 12  1  0
 18  6  2  0
 22  1  1  0
 22  6  1  0
 12 16  2  0
  1  2  1  0
  6  5  1  0
  4  5  1  0
  4  3  2  0
  5  7  2  0
  3 21  1  0
  7 19  1  0
  7 20  1  0
 21 20  2  0
 19  8  1  0
  2 26  1  0
  2 27  1  0
  2 28  1  0
  3 29  1  0
  4 30  1  0
  8 31  1  0
  8 32  1  0
  8 33  1  0
  9 34  1  0
  9 35  1  0
  9 36  1  0
 13 37  1  0
 13 38  1  0
 15 39  1  0
 15 40  1  0
 17 41  1  0
 17 42  1  0
 17 43  1  0
 20 44  1  0
 21 45  1  0
 24 46  1  0
M  END
