
     RDKit          3D

 24 25  0  0  0  0  0  0  0  0999 V2000
   -1.8922    2.5051    0.1441 C   0  0  0  0  0  0  0  0  0  0  0  0
    0.0585    1.0843    0.0933 C   0  0  0  0  0  0  0  0  0  0  0  0
    3.4182   -0.6919   -0.0165 C   0  0  0  0  0  0  0  0  0  0  0  0
    1.9682   -0.4060    0.0058 C   0  0  0  0  0  0  0  0  0  0  0  0
    1.0264   -1.4598   -0.0386 C   0  0  0  0  0  0  0  0  0  0  0  0
   -0.7678   -0.0654    0.0691 C   0  0  0  0  0  0  0  0  0  0  0  0
   -2.1768    0.1073    0.0893 C   0  0  0  0  0  0  0  0  0  0  0  0
   -3.0832   -1.0728    0.1550 C   0  0  0  0  0  0  0  0  0  0  0  0
   -2.7164    1.3717    0.1053 C   0  0  0  0  0  0  0  0  0  0  0  0
   -0.5318    2.3647    0.1419 C   0  0  0  0  0  0  0  0  0  0  0  0
    1.4750    0.8901    0.0621 C   0  0  0  0  0  0  0  0  0  0  0  0
   -0.2661   -1.3180   -0.0122 N   0  0  0  0  0  0  0  0  0  0  0  0
    4.2953    0.1364    0.0002 O   0  0  0  0  0  0  0  0  0  0  0  0
    3.6678   -1.9977   -0.0551 O   0  0  0  0  0  0  0  0  0  0  0  0
   -4.1431   -0.9159   -0.6279 O   0  0  0  0  0  0  0  0  0  0  0  0
   -2.9075   -2.0354    0.8555 O   0  0  0  0  0  0  0  0  0  0  0  0
    2.3136    1.9076    0.0832 O   0  0  0  0  0  0  0  0  0  0  0  0
   -2.3360    3.4901    0.1779 H   0  0  0  0  0  0  0  0  0  0  0  0
   -3.7895    1.5070    0.1134 H   0  0  0  0  0  0  0  0  0  0  0  0
    0.0645    3.2683    0.1766 H   0  0  0  0  0  0  0  0  0  0  0  0
    4.6254   -2.1437   -0.0667 H   0  0  0  0  0  0  0  0  0  0  0  0
   -4.7536   -1.6605   -0.5132 H   0  0  0  0  0  0  0  0  0  0  0  0
    1.8627    2.7594    0.1086 H   0  0  0  0  0  0  0  0  0  0  0  0
    1.3851   -2.4797   -0.1050 H   0  0  0  0  0  0  0  0  0  0  0  0
  1  9  2  0
  1 10  1  0
  9  7  1  0
 16  8  2  0
 10  2  2  0
  7  8  1  0
  7  6  2  0
  8 15  1  0
  2  6  1  0
  2 11  1  0
  6 12  1  0
 17 11  1  0
 11  4  2  0
 12  5  2  0
  4  5  1  0
  4  3  1  0
 13  3  2  0
  3 14  1  0
  1 18  1  0
  9 19  1  0
 10 20  1  0
 14 21  1  0
 15 22  1  0
 17 23  1  0
  5 24  1  0
M  END
