
     RDKit          3D

 28 29  0  0  0  0  0  0  0  0999 V2000
   -3.3937    0.1458   -0.8562 C   0  0  0  0  0  0  0  0  0  0  0  0
   -4.1672   -0.2863    0.3660 C   0  0  0  0  0  0  0  0  0  0  0  0
   -3.6793   -0.6775    1.3946 O   0  0  0  0  0  0  0  0  0  0  0  0
    0.8751    0.0571   -0.2285 C   0  0  0  0  0  0  0  0  0  0  0  0
    0.1811   -1.0922   -0.6110 C   0  0  0  0  0  0  0  0  0  0  0  0
   -1.1890   -1.0626   -0.8142 C   0  0  0  0  0  0  0  0  0  0  0  0
   -1.9111    0.1141   -0.6425 C   0  0  0  0  0  0  0  0  0  0  0  0
   -1.2235    1.2603   -0.2597 C   0  0  0  0  0  0  0  0  0  0  0  0
    0.1476    1.2347   -0.0559 C   0  0  0  0  0  0  0  0  0  0  0  0
    5.1138   -0.0373    0.3546 C   0  0  0  0  0  0  0  0  0  0  0  0
    3.1369    1.1044   -0.4092 C   0  0  0  0  0  0  0  0  0  0  0  0
    2.3370    0.0268   -0.0235 C   0  0  0  0  0  0  0  0  0  0  0  0
    4.5111    1.0730   -0.2224 C   0  0  0  0  0  0  0  0  0  0  0  0
    2.9549   -1.0830    0.5562 C   0  0  0  0  0  0  0  0  0  0  0  0
    4.3291   -1.1151    0.7435 C   0  0  0  0  0  0  0  0  0  0  0  0
   -3.6845   -0.5084   -1.6836 H   0  0  0  0  0  0  0  0  0  0  0  0
   -3.7259    1.1485   -1.1381 H   0  0  0  0  0  0  0  0  0  0  0  0
   -5.4769   -0.1891    0.1670 O   0  0  0  0  0  0  0  0  0  0  0  0
   -1.6984   -1.9666   -1.1263 H   0  0  0  0  0  0  0  0  0  0  0  0
   -1.7650    2.1879   -0.1151 H   0  0  0  0  0  0  0  0  0  0  0  0
    0.6507    2.1406    0.2585 H   0  0  0  0  0  0  0  0  0  0  0  0
    6.1859   -0.0623    0.5000 H   0  0  0  0  0  0  0  0  0  0  0  0
    2.6862    1.9698   -0.8790 H   0  0  0  0  0  0  0  0  0  0  0  0
    5.1130    1.9158   -0.5372 H   0  0  0  0  0  0  0  0  0  0  0  0
    2.3561   -1.9243    0.8830 H   0  0  0  0  0  0  0  0  0  0  0  0
    4.7863   -1.9831    1.2005 H   0  0  0  0  0  0  0  0  0  0  0  0
   -5.9550   -0.4822    0.9571 H   0  0  0  0  0  0  0  0  0  0  0  0
    0.7199   -2.0173   -0.7755 H   0  0  0  0  0  0  0  0  0  0  0  0
  1  2  1  0
  1  7  1  0
  1 16  1  0
  1 17  1  0
  2  3  2  0
  2 18  1  0
  4  5  2  0
  4  9  1  0
  4 12  1  0
  5  6  1  0
  5 28  1  0
  6  7  2  0
  6 19  1  0
  7  8  1  0
  8  9  2  0
  8 20  1  0
  9 21  1  0
 10 13  2  0
 10 15  1  0
 10 22  1  0
 11 12  2  0
 11 13  1  0
 11 23  1  0
 12 14  1  0
 13 24  1  0
 14 15  2  0
 14 25  1  0
 15 26  1  0
 18 27  1  0
M  END
