
     RDKit          3D

 64 68  0  0  0  0  0  0  0  0999 V2000
   -3.8884   -2.2773    0.4592 C   0  0  0  0  0  0  0  0  0  0  0  0
   -3.7872   -3.5302    1.0739 C   0  0  0  0  0  0  0  0  0  0  0  0
   -4.6584   -4.5411    0.7299 C   0  0  0  0  0  0  0  0  0  0  0  0
    9.3476   -1.2297    0.7590 C   0  0  0  0  0  0  0  0  0  0  0  0
    1.8543    0.5161    0.4006 C   0  0  0  0  0  0  0  0  0  0  0  0
    1.5180    0.3860    1.7546 C   0  0  0  0  0  0  0  0  0  0  0  0
    0.2917   -0.1210    2.1170 C   0  0  0  0  0  0  0  0  0  0  0  0
    3.4771    1.1743   -1.2092 C   0  0  0  0  0  0  0  0  0  0  0  0
   -2.1074   -1.4792    2.7077 O   0  0  0  0  0  0  0  0  0  0  0  0
   -3.0748   -1.0951    0.6162 C   0  0  0  0  0  0  0  0  0  0  0  0
   -3.4830   -0.0643   -0.1794 C   0  0  0  0  0  0  0  0  0  0  0  0
   -2.9641    1.2988   -0.2753 C   0  0  0  0  0  0  0  0  0  0  0  0
   -2.7772    1.9051   -1.5171 C   0  0  0  0  0  0  0  0  0  0  0  0
   -2.2475    3.1794   -1.6187 C   0  0  0  0  0  0  0  0  0  0  0  0
   -1.8930    3.8804   -0.4681 C   0  0  0  0  0  0  0  0  0  0  0  0
   -1.3686    5.1176   -0.5038 O   0  0  0  0  0  0  0  0  0  0  0  0
   -2.0909    3.2932    0.7809 C   0  0  0  0  0  0  0  0  0  0  0  0
   -2.6223    2.0217    0.8694 C   0  0  0  0  0  0  0  0  0  0  0  0
   -4.8586   -0.4966   -1.1549 S   0  0  0  0  0  0  0  0  0  0  0  0
   -4.8905   -2.1024   -0.5084 C   0  0  0  0  0  0  0  0  0  0  0  0
   -5.7767   -3.1099   -0.8682 C   0  0  0  0  0  0  0  0  0  0  0  0
   -5.6553   -4.3383   -0.2378 C   0  0  0  0  0  0  0  0  0  0  0  0
   -6.5169   -5.3117   -0.5888 O   0  0  0  0  0  0  0  0  0  0  0  0
   -0.6455   -0.5006    1.1492 C   0  0  0  0  0  0  0  0  0  0  0  0
    0.9374    0.1219   -0.5741 C   0  0  0  0  0  0  0  0  0  0  0  0
   -0.2966   -0.3760   -0.1923 C   0  0  0  0  0  0  0  0  0  0  0  0
    4.8694    1.7663   -1.2153 C   0  0  0  0  0  0  0  0  0  0  0  0
    5.8563    0.9635   -0.5247 N   0  0  0  0  0  0  0  0  0  0  0  0
    6.1432   -0.2876   -1.2044 C   0  0  0  0  0  0  0  0  0  0  0  0
    7.1076   -1.1437   -0.3987 C   0  0  0  0  0  0  0  0  0  0  0  0
    8.4081   -0.4028   -0.1057 C   0  0  1  0  0  0  0  0  0  0  0  0
    8.0718    0.9385    0.5383 C   0  0  0  0  0  0  0  0  0  0  0  0
    7.0737    1.7234   -0.2973 C   0  0  0  0  0  0  0  0  0  0  0  0
   -3.0312   -3.7166    1.8239 H   0  0  0  0  0  0  0  0  0  0  0  0
   -4.5714   -5.5066    1.2151 H   0  0  0  0  0  0  0  0  0  0  0  0
   10.2791   -0.6973    0.9591 H   0  0  0  0  0  0  0  0  0  0  0  0
    8.8851   -1.4617    1.7213 H   0  0  0  0  0  0  0  0  0  0  0  0
    2.2318    0.6900    2.5100 H   0  0  0  0  0  0  0  0  0  0  0  0
    0.0475   -0.2096    3.1676 H   0  0  0  0  0  0  0  0  0  0  0  0
    3.4478    0.2108   -1.7275 H   0  0  0  0  0  0  0  0  0  0  0  0
    2.8036    1.8522   -1.7441 H   0  0  0  0  0  0  0  0  0  0  0  0
   -3.0220    1.3701   -2.4265 H   0  0  0  0  0  0  0  0  0  0  0  0
   -2.1009    3.6227   -2.5971 H   0  0  0  0  0  0  0  0  0  0  0  0
   -1.2802    5.4212   -1.4142 H   0  0  0  0  0  0  0  0  0  0  0  0
   -1.8361    3.8399    1.6799 H   0  0  0  0  0  0  0  0  0  0  0  0
   -2.7917    1.5950    1.8495 H   0  0  0  0  0  0  0  0  0  0  0  0
   -6.5402   -2.9495   -1.6190 H   0  0  0  0  0  0  0  0  0  0  0  0
   -6.3438   -6.1135   -0.0831 H   0  0  0  0  0  0  0  0  0  0  0  0
    1.1626    0.2013   -1.6282 H   0  0  0  0  0  0  0  0  0  0  0  0
   -0.9889   -0.6830   -0.9646 H   0  0  0  0  0  0  0  0  0  0  0  0
    5.1383    1.9505   -2.2698 H   0  0  0  0  0  0  0  0  0  0  0  0
    4.8282    2.7481   -0.7357 H   0  0  0  0  0  0  0  0  0  0  0  0
    5.2156   -0.8432   -1.3528 H   0  0  0  0  0  0  0  0  0  0  0  0
    6.5652   -0.1072   -2.2105 H   0  0  0  0  0  0  0  0  0  0  0  0
    6.6321   -1.4285    0.5464 H   0  0  0  0  0  0  0  0  0  0  0  0
    7.3088   -2.0700   -0.9435 H   0  0  0  0  0  0  0  0  0  0  0  0
    8.9038   -0.2010   -1.0644 H   0  0  0  0  0  0  0  0  0  0  0  0
    7.6522    0.7671    1.5360 H   0  0  0  0  0  0  0  0  0  0  0  0
    8.9772    1.5364    0.6721 H   0  0  0  0  0  0  0  0  0  0  0  0
    7.5496    2.0158   -1.2513 H   0  0  0  0  0  0  0  0  0  0  0  0
    6.8112    2.6521    0.2158 H   0  0  0  0  0  0  0  0  0  0  0  0
   -1.9465   -1.0442    1.5804 C   0  0  0  0  0  0  0  0  0  0  0  0
    3.0638    1.0214    0.1405 O   0  0  0  0  0  0  0  0  0  0  0  0
    9.6016   -2.1757    0.2776 H   0  0  0  0  0  0  0  0  0  0  0  0
 17 18  2  0
 17 15  1  0
 18 12  1  0
 16 15  1  0
 15 14  2  0
 12 11  1  0
 12 13  2  0
 19 11  1  0
 19 20  1  0
  9 62  2  0
 11 10  2  0
 14 13  1  0
 20 21  2  0
 20  1  1  0
 21 22  1  0
 10  1  1  0
 10 62  1  0
  1  2  2  0
 62 24  1  0
 22 23  1  0
 22  3  2  0
  2  3  1  0
 24  7  1  0
 24 26  2  0
  7  6  2  0
 26 25  1  0
  6  5  1  0
 25  5  2  0
  5 63  1  0
 63  8  1  0
  8 27  1  0
 27 28  1  0
 28 29  1  0
 28 33  1  0
 29 30  1  0
 33 32  1  0
 30 31  1  0
 32 31  1  0
 31  4  1  0
  2 34  1  0
  3 35  1  0
  4 64  1  0
  4 36  1  0
  4 37  1  0
  6 38  1  0
  7 39  1  0
  8 40  1  0
  8 41  1  0
 13 42  1  0
 14 43  1  0
 16 44  1  0
 17 45  1  0
 18 46  1  0
 21 47  1  0
 23 48  1  0
 25 49  1  0
 26 50  1  0
 27 51  1  0
 27 52  1  0
 29 53  1  0
 29 54  1  0
 30 55  1  0
 30 56  1  0
 31 57  1  6
 32 58  1  0
 32 59  1  0
 33 60  1  0
 33 61  1  0
M  END
