
     RDKit          3D

 29 30  0  0  0  0  0  0  0  0999 V2000
   -0.0660    0.7758   -2.5971 C   0  0  1  0  0  0  0  0  0  0  0  0
   -0.2853    0.5656   -1.1320 C   0  0  0  0  0  0  0  0  0  0  0  0
   -1.5897    0.2850   -0.6596 C   0  0  0  0  0  0  0  0  0  0  0  0
    0.1238   -0.0545    3.8495 C   0  0  0  0  0  0  0  0  0  0  0  0
    1.4276    0.2265    3.3722 C   0  0  0  0  0  0  0  0  0  0  0  0
    1.6419    0.4393    2.0410 C   0  0  0  0  0  0  0  0  0  0  0  0
    0.5719    0.3880    1.1177 C   0  0  0  0  0  0  0  0  0  0  0  0
    0.7719    0.6097   -0.2615 C   0  0  0  0  0  0  0  0  0  0  0  0
   -0.1525   -0.2907    5.2901 C   0  0  0  0  0  0  0  0  0  0  0  0
   -1.8033    0.0620    0.6704 C   0  0  0  0  0  0  0  0  0  0  0  0
   -0.7329    0.1081    1.5929 C   0  0  0  0  0  0  0  0  0  0  0  0
   -0.9295   -0.1130    2.9712 C   0  0  0  0  0  0  0  0  0  0  0  0
    0.9267   -0.1633    6.0470 O   0  0  0  0  0  0  0  0  0  0  0  0
   -1.2430   -0.5667    5.7290 O   0  0  0  0  0  0  0  0  0  0  0  0
   -1.1245    1.4324   -3.1471 F   0  0  0  0  0  0  0  0  0  0  0  0
    1.0345    1.5414   -2.8203 F   0  0  0  0  0  0  0  0  0  0  0  0
    0.1511   -0.7780   -3.5946 P   0  0  1  0  0  0  0  0  0  0  0  0
    1.3740   -1.4266   -2.8071 O   0  0  0  0  0  0  0  0  0  0  0  0
   -1.1532   -1.6432   -3.2763 O   0  0  0  0  0  0  0  0  0  0  0  0
    0.2976   -0.5291   -5.0415 O   0  0  0  0  0  0  0  0  0  0  0  0
   -2.4276    0.2554   -1.3424 H   0  0  0  0  0  0  0  0  0  0  0  0
    2.2626    0.2727    4.0563 H   0  0  0  0  0  0  0  0  0  0  0  0
    2.6401    0.6531    1.6805 H   0  0  0  0  0  0  0  0  0  0  0  0
    1.7758    0.8184   -0.6073 H   0  0  0  0  0  0  0  0  0  0  0  0
   -2.8025   -0.1491    1.0294 H   0  0  0  0  0  0  0  0  0  0  0  0
   -1.9283   -0.3278    3.3291 H   0  0  0  0  0  0  0  0  0  0  0  0
    0.7025   -0.3237    6.9758 H   0  0  0  0  0  0  0  0  0  0  0  0
    1.8759   -2.0927   -3.2997 H   0  0  0  0  0  0  0  0  0  0  0  0
   -1.1721   -2.1194   -2.4350 H   0  0  0  0  0  0  0  0  0  0  0  0
  1  2  1  0
  1 15  1  6
  1 16  1  0
  1 17  1  0
  2  3  2  0
  2  8  1  0
  3 10  1  0
  3 21  1  0
  4  5  1  0
  4  9  1  0
  4 12  2  0
  5  6  2  0
  5 22  1  0
  6  7  1  0
  6 23  1  0
  7  8  2  0
  7 11  1  0
  8 24  1  0
  9 13  1  0
  9 14  2  0
 10 11  2  0
 10 25  1  0
 11 12  1  0
 12 26  1  0
 13 27  1  0
 17 18  1  1
 17 19  1  0
 17 20  2  0
 18 28  1  0
 19 29  1  0
M  END
