
     RDKit          3D

 55 59  0  0  0  0  0  0  0  0999 V2000
    3.4929    2.8872    0.0572 C   0  0  0  0  0  0  0  0  0  0  0  0
    2.1091    2.7599    0.2333 C   0  0  0  0  0  0  0  0  0  0  0  0
    1.4998    1.5393    0.0576 C   0  0  0  0  0  0  0  0  0  0  0  0
    2.2614    0.4080   -0.3051 C   0  0  0  0  0  0  0  0  0  0  0  0
    6.6438   -0.7184    0.2647 C   0  0  0  0  0  0  0  0  0  0  0  0
    8.1434   -0.5978    0.0769 C   0  0  0  0  0  0  0  0  0  0  0  0
    1.6343   -0.8431   -0.4754 C   0  0  0  0  0  0  0  0  0  0  0  0
    2.3823   -1.9344   -0.8481 C   0  0  0  0  0  0  0  0  0  0  0  0
    3.7605   -1.8120   -1.0564 C   0  0  0  0  0  0  0  0  0  0  0  0
    0.1915   -0.9921   -0.2494 C   0  0  0  0  0  0  0  0  0  0  0  0
   -1.9151    0.0245    0.3241 C   0  0  0  0  0  0  0  0  0  0  0  0
   -2.3739   -0.2031    1.6219 C   0  0  0  0  0  0  0  0  0  0  0  0
   -3.7478   -0.3386    1.8367 C   0  0  0  0  0  0  0  0  0  0  0  0
   -4.5993   -0.2467    0.7543 C   0  0  0  0  0  0  0  0  0  0  0  0
   -4.1149   -0.0241   -0.5365 C   0  0  0  0  0  0  0  0  0  0  0  0
   -2.7656    0.1196   -0.7728 C   0  0  0  0  0  0  0  0  0  0  0  0
   -6.3568   -0.1864   -0.6548 C   0  0  0  0  0  0  0  0  0  0  0  0
    0.0454    1.4236    0.2500 C   0  0  0  0  0  0  0  0  0  0  0  0
   -0.6613    2.3663    0.5337 O   0  0  0  0  0  0  0  0  0  0  0  0
   -0.5083    0.1582    0.0993 N   0  0  0  0  0  0  0  0  0  0  0  0
   -0.3904   -2.0506   -0.3495 O   0  0  0  0  0  0  0  0  0  0  0  0
    4.4151   -0.6135   -0.8871 C   0  0  0  0  0  0  0  0  0  0  0  0
    5.9038   -0.5511   -1.0656 C   0  0  0  0  0  0  0  0  0  0  0  0
    8.7771   -0.7841    1.3230 O   0  0  0  0  0  0  0  0  0  0  0  0
    3.6602    0.5311   -0.4993 C   0  0  0  0  0  0  0  0  0  0  0  0
    4.2487    1.8008   -0.3005 C   0  0  0  0  0  0  0  0  0  0  0  0
   -5.2029    0.0043   -1.3785 N   0  0  0  0  0  0  0  0  0  0  0  0
   -5.1472    0.2013   -2.8040 C   0  0  0  0  0  0  0  0  0  0  0  0
   -7.4950   -0.2143   -1.0870 O   0  0  0  0  0  0  0  0  0  0  0  0
   -5.9676   -0.3406    0.6575 N   0  0  0  0  0  0  0  0  0  0  0  0
   -1.4170   -0.2982    2.7749 C   0  0  0  0  0  0  0  0  0  0  0  0
    3.9635    3.8497    0.2027 H   0  0  0  0  0  0  0  0  0  0  0  0
    1.5226    3.6256    0.5094 H   0  0  0  0  0  0  0  0  0  0  0  0
    6.4015   -1.6961    0.6891 H   0  0  0  0  0  0  0  0  0  0  0  0
    6.3039    0.0329    0.9829 H   0  0  0  0  0  0  0  0  0  0  0  0
    8.4765   -1.3416   -0.6595 H   0  0  0  0  0  0  0  0  0  0  0  0
    8.3735    0.3890   -0.3467 H   0  0  0  0  0  0  0  0  0  0  0  0
    1.9081   -2.8971   -0.9849 H   0  0  0  0  0  0  0  0  0  0  0  0
    4.3216   -2.6877   -1.3567 H   0  0  0  0  0  0  0  0  0  0  0  0
   -4.1254   -0.5180    2.8353 H   0  0  0  0  0  0  0  0  0  0  0  0
   -2.3726    0.2988   -1.7654 H   0  0  0  0  0  0  0  0  0  0  0  0
   -7.8878   -0.5669    1.3905 H   0  0  0  0  0  0  0  0  0  0  0  0
   -6.6612   -1.5073    2.2485 H   0  0  0  0  0  0  0  0  0  0  0  0
   -6.7715    0.2456    2.4947 H   0  0  0  0  0  0  0  0  0  0  0  0
    6.1996    0.3871   -1.5414 H   0  0  0  0  0  0  0  0  0  0  0  0
    6.2108   -1.3460   -1.7485 H   0  0  0  0  0  0  0  0  0  0  0  0
    9.7261   -0.7071    1.1905 H   0  0  0  0  0  0  0  0  0  0  0  0
    5.3145    1.9280   -0.4311 H   0  0  0  0  0  0  0  0  0  0  0  0
   -6.1474    0.1035   -3.2148 H   0  0  0  0  0  0  0  0  0  0  0  0
   -4.7640    1.1927   -3.0439 H   0  0  0  0  0  0  0  0  0  0  0  0
   -4.5053   -0.5474   -3.2675 H   0  0  0  0  0  0  0  0  0  0  0  0
   -0.9009    0.6476    2.9500 H   0  0  0  0  0  0  0  0  0  0  0  0
   -1.9435   -0.5546    3.6925 H   0  0  0  0  0  0  0  0  0  0  0  0
   -0.6546   -1.0612    2.6118 H   0  0  0  0  0  0  0  0  0  0  0  0
   -6.8675   -0.5546    1.7617 C   0  0  0  0  0  0  0  0  0  0  0  0
 29 17  2  0
 28 27  1  0
 17 27  1  0
 17 30  1  0
 27 15  1  0
 30 55  1  0
 30 14  1  0
 15 14  2  0
 15 16  1  0
 14 13  1  0
 16 11  2  0
 19 18  2  0
 13 12  2  0
 11 12  1  0
 11 20  1  0
 18 20  1  0
 18  3  1  0
  2  3  1  0
  2  1  2  0
 12 31  1  0
 20 10  1  0
  3  4  2  0
  1 26  1  0
  4 25  1  0
  4  7  1  0
 26 25  2  0
 10  7  1  0
 10 21  2  0
 25 22  1  0
  7  8  2  0
  8  9  1  0
 22  9  2  0
 22 23  1  0
 23  5  1  0
  5  6  1  0
  6 24  1  0
  1 32  1  0
  2 33  1  0
  5 34  1  0
  5 35  1  0
  6 36  1  0
  6 37  1  0
  8 38  1  0
  9 39  1  0
 13 40  1  0
 16 41  1  0
 55 42  1  0
 55 43  1  0
 55 44  1  0
 23 45  1  0
 23 46  1  0
 24 47  1  0
 26 48  1  0
 28 49  1  0
 28 50  1  0
 28 51  1  0
 31 52  1  0
 31 53  1  0
 31 54  1  0
M  END
