
     RDKit          3D

 21 22  0  0  0  0  0  0  0  0999 V2000
   -0.9994   -1.1277    0.0963 C   0  0  0  0  0  0  0  0  0  0  0  0
   -2.3277   -0.7451    0.0966 C   0  0  0  0  0  0  0  0  0  0  0  0
   -2.3393    0.6037    0.0733 N   0  0  0  0  0  0  0  0  0  0  0  0
   -1.1050    1.1263    0.0334 N   0  0  0  0  0  0  0  0  0  0  0  0
   -0.2889    0.0876    0.0588 C   0  0  0  0  0  0  0  0  0  0  0  0
    1.1503    0.2813    0.0338 C   0  0  0  0  0  0  0  0  0  0  0  0
    2.2244   -1.0478    0.2690 S   0  0  0  0  0  0  0  0  0  0  0  0
    3.6062   -0.0482    0.1008 C   0  0  0  0  0  0  0  0  0  0  0  0
    3.2569    1.2490   -0.1214 C   0  0  0  0  0  0  0  0  0  0  0  0
    1.8512    1.4398   -0.1603 C   0  0  0  0  0  0  0  0  0  0  0  0
   -3.4966    1.4606    0.0323 C   0  0  0  0  0  0  0  0  0  0  0  0
   -3.4854   -1.4822    0.1861 N   0  0  0  0  0  0  0  0  0  0  0  0
   -0.6158   -2.1355    0.1063 H   0  0  0  0  0  0  0  0  0  0  0  0
    4.5960   -0.4704    0.1771 H   0  0  0  0  0  0  0  0  0  0  0  0
    3.9766    2.0435   -0.2563 H   0  0  0  0  0  0  0  0  0  0  0  0
    1.3759    2.3949   -0.3328 H   0  0  0  0  0  0  0  0  0  0  0  0
   -4.2998    1.0269    0.6248 H   0  0  0  0  0  0  0  0  0  0  0  0
   -3.2327    2.4234    0.4601 H   0  0  0  0  0  0  0  0  0  0  0  0
   -3.8516    1.6104   -0.9879 H   0  0  0  0  0  0  0  0  0  0  0  0
   -3.3252   -2.4733    0.0942 H   0  0  0  0  0  0  0  0  0  0  0  0
   -4.2261   -1.1955   -0.4381 H   0  0  0  0  0  0  0  0  0  0  0  0
  1  2  2  0
  1  5  1  0
  2  3  1  0
  2 12  1  0
  3  4  1  0
  3 11  1  0
  4  5  2  0
  5  6  1  0
  6  7  1  0
  6 10  2  0
  7  8  1  0
  8  9  2  0
  9 10  1  0
  1 13  1  0
  8 14  1  0
  9 15  1  0
 10 16  1  0
 11 17  1  0
 11 18  1  0
 11 19  1  0
 12 20  1  0
 12 21  1  0
M  END
