
     RDKit          3D

 12 12  0  0  0  0  0  0  0  0999 V2000
    0.0394    0.0127    0.6897 C   0  0  0  0  0  0  0  0  0  0  0  0
   -1.1012    0.1077   -0.0635 N   0  0  0  0  0  0  0  0  0  0  0  0
    1.1266   -0.0774   -0.1354 C   0  0  0  0  0  0  0  0  0  0  0  0
   -0.7089    0.0752   -1.3123 C   0  0  0  0  0  0  0  0  0  0  0  0
    0.6278   -0.0355   -1.4068 N   0  0  0  0  0  0  0  0  0  0  0  0
    0.0095    0.0157    2.1791 C   0  0  0  0  0  0  0  0  0  0  0  0
    2.1805   -0.1629    0.0694 H   0  0  0  0  0  0  0  0  0  0  0  0
   -1.3478    0.1289   -2.1803 H   0  0  0  0  0  0  0  0  0  0  0  0
    1.1627   -0.0848   -2.2587 H   0  0  0  0  0  0  0  0  0  0  0  0
   -0.4094    0.9444    2.5704 H   0  0  0  0  0  0  0  0  0  0  0  0
   -0.6004   -0.8017    2.5679 H   0  0  0  0  0  0  0  0  0  0  0  0
    1.0126   -0.0947    2.5890 H   0  0  0  0  0  0  0  0  0  0  0  0
  1  2  1  0
  1  3  2  0
  1  6  1  0
  2  4  2  0
  3  5  1  0
  3  7  1  0
  4  5  1  0
  4  8  1  0
  5  9  1  0
  6 10  1  0
  6 11  1  0
  6 12  1  0
M  END
