
     RDKit          3D

 45 47  0  0  0  0  0  0  0  0999 V2000
    4.3617   -1.4112   -0.1549 C   0  0  0  0  0  0  0  0  0  0  0  0
    5.6874   -1.4773   -0.2389 N   0  0  0  0  0  0  0  0  0  0  0  0
    6.3490   -0.3219   -0.2294 C   0  0  0  0  0  0  0  0  0  0  0  0
    5.8123    0.8913   -0.1492 N   0  0  0  0  0  0  0  0  0  0  0  0
    4.4787    0.9536   -0.0695 C   0  0  0  0  0  0  0  0  0  0  0  0
    3.6756   -0.1737   -0.0664 C   0  0  0  0  0  0  0  0  0  0  0  0
    3.6940   -2.5761   -0.1385 N   0  0  0  0  0  0  0  0  0  0  0  0
    7.7031   -0.3962   -0.2731 N   0  0  0  0  0  0  0  0  0  0  0  0
    3.9110    2.3391    0.0412 C   0  0  0  0  0  0  0  0  0  0  0  0
    4.1507    2.9350    1.4272 C   0  0  0  0  0  0  0  0  0  0  0  0
    0.1623    0.1842    1.2930 C   0  0  0  0  0  0  0  0  0  0  0  0
    1.5406    0.1339    1.2188 C   0  0  0  0  0  0  0  0  0  0  0  0
    2.1989   -0.1304    0.0156 C   0  0  0  0  0  0  0  0  0  0  0  0
    1.4075   -0.3509   -1.1084 C   0  0  0  0  0  0  0  0  0  0  0  0
    0.0216   -0.3011   -1.0530 C   0  0  0  0  0  0  0  0  0  0  0  0
   -0.6304   -0.0377    0.1569 C   0  0  0  0  0  0  0  0  0  0  0  0
   -2.0034   -0.0191    0.2770 N   0  0  0  0  0  0  0  0  0  0  0  0
   -6.5492    0.7865   -0.6080 C   0  0  0  0  0  0  0  0  0  0  0  0
   -5.2155    0.9377   -0.9404 C   0  0  0  0  0  0  0  0  0  0  0  0
   -4.3028   -0.0130   -0.5005 C   0  0  0  0  0  0  0  0  0  0  0  0
   -4.7354   -1.0891    0.2710 C   0  0  0  0  0  0  0  0  0  0  0  0
   -6.0768   -1.1895    0.5754 C   0  0  0  0  0  0  0  0  0  0  0  0
   -7.0162   -0.2673    0.1505 C   0  0  0  0  0  0  0  0  0  0  0  0
   -2.8524    0.1037   -0.8836 C   0  0  0  0  0  0  0  0  0  0  0  0
   -6.4973   -2.2261    1.3121 F   0  0  0  0  0  0  0  0  0  0  0  0
    4.1917   -3.4370   -0.2828 H   0  0  0  0  0  0  0  0  0  0  0  0
    2.6904   -2.6032   -0.1531 H   0  0  0  0  0  0  0  0  0  0  0  0
    8.2043    0.4401   -0.5191 H   0  0  0  0  0  0  0  0  0  0  0  0
    8.1136   -1.2600   -0.5837 H   0  0  0  0  0  0  0  0  0  0  0  0
    2.8438    2.3361   -0.1795 H   0  0  0  0  0  0  0  0  0  0  0  0
    4.3952    2.9682   -0.7093 H   0  0  0  0  0  0  0  0  0  0  0  0
    3.6425    2.3562    2.1993 H   0  0  0  0  0  0  0  0  0  0  0  0
    5.2137    2.9530    1.6672 H   0  0  0  0  0  0  0  0  0  0  0  0
    3.7770    3.9577    1.4770 H   0  0  0  0  0  0  0  0  0  0  0  0
   -0.3154    0.3966    2.2427 H   0  0  0  0  0  0  0  0  0  0  0  0
    2.1213    0.3097    2.1165 H   0  0  0  0  0  0  0  0  0  0  0  0
    1.8812   -0.5524   -2.0622 H   0  0  0  0  0  0  0  0  0  0  0  0
   -0.5401   -0.4653   -1.9630 H   0  0  0  0  0  0  0  0  0  0  0  0
   -2.3364    0.4935    1.0799 H   0  0  0  0  0  0  0  0  0  0  0  0
   -4.8943    1.7873   -1.5294 H   0  0  0  0  0  0  0  0  0  0  0  0
   -4.0371   -1.8366    0.6244 H   0  0  0  0  0  0  0  0  0  0  0  0
   -8.0639   -0.3668    0.4019 H   0  0  0  0  0  0  0  0  0  0  0  0
   -2.6895    1.0427   -1.4277 H   0  0  0  0  0  0  0  0  0  0  0  0
   -2.6228   -0.7041   -1.5835 H   0  0  0  0  0  0  0  0  0  0  0  0
   -7.4278    1.7031   -1.0333 F   0  0  0  0  0  0  0  0  0  0  0  0
  1  2  2  0
  1  6  1  0
  1  7  1  0
  2  3  1  0
  3  4  2  0
  3  8  1  0
  4  5  1  0
  5  6  2  0
  5  9  1  0
  6 13  1  0
  7 26  1  0
  7 27  1  0
  8 28  1  0
  8 29  1  0
  9 10  1  0
  9 30  1  0
  9 31  1  0
 10 32  1  0
 10 33  1  0
 10 34  1  0
 11 12  2  0
 11 16  1  0
 11 35  1  0
 12 13  1  0
 12 36  1  0
 13 14  2  0
 14 15  1  0
 14 37  1  0
 15 16  2  0
 15 38  1  0
 16 17  1  0
 17 24  1  0
 17 39  1  0
 18 19  2  0
 18 23  1  0
 18 45  1  0
 19 20  1  0
 19 40  1  0
 20 21  2  0
 20 24  1  0
 21 22  1  0
 21 41  1  0
 22 23  2  0
 22 25  1  0
 23 42  1  0
 24 43  1  0
 24 44  1  0
M  END
