
     RDKit          3D

 36 38  0  0  0  0  0  0  0  0999 V2000
    2.5379   -2.3230    0.2572 N   0  0  0  0  0  0  0  0  0  0  0  0
    1.2475   -2.1784    0.2342 N   0  0  0  0  0  0  0  0  0  0  0  0
    0.6838   -0.9870    0.1149 C   0  0  0  0  0  0  0  0  0  0  0  0
    1.5058    0.1463   -0.0717 C   0  0  0  0  0  0  0  0  0  0  0  0
    2.8119    0.0174   -0.0045 N   0  0  0  0  0  0  0  0  0  0  0  0
    3.2930   -1.2143    0.1959 C   0  0  0  0  0  0  0  0  0  0  0  0
   -3.5549   -0.9791    0.4330 N   0  0  0  0  0  0  0  0  0  0  0  0
   -2.8317   -0.0838    1.1046 C   0  0  0  0  0  0  0  0  0  0  0  0
   -1.4466   -0.0394    1.0181 C   0  0  0  0  0  0  0  0  0  0  0  0
   -0.7875   -0.9617    0.2125 C   0  0  0  0  0  0  0  0  0  0  0  0
   -1.5531   -1.8975   -0.4698 C   0  0  0  0  0  0  0  0  0  0  0  0
   -2.9376   -1.8700   -0.3373 C   0  0  0  0  0  0  0  0  0  0  0  0
    0.0849    4.0556   -0.9848 C   0  0  0  0  0  0  0  0  0  0  0  0
    1.1171    3.8797   -0.0722 C   0  0  0  0  0  0  0  0  0  0  0  0
    1.5765    2.6048    0.2201 C   0  0  0  0  0  0  0  0  0  0  0  0
    0.9891    1.4924   -0.3799 C   0  0  0  0  0  0  0  0  0  0  0  0
   -0.0440    1.6745   -1.2978 C   0  0  0  0  0  0  0  0  0  0  0  0
   -0.4878    2.9515   -1.6032 C   0  0  0  0  0  0  0  0  0  0  0  0
    4.6124   -1.3638    0.3183 N   0  0  0  0  0  0  0  0  0  0  0  0
   -3.7953   -2.8680   -1.0554 C   0  0  0  0  0  0  0  0  0  0  0  0
   -0.8956    0.7028    1.5804 H   0  0  0  0  0  0  0  0  0  0  0  0
   -1.0830   -2.6296   -1.1133 H   0  0  0  0  0  0  0  0  0  0  0  0
   -0.2707    5.0513   -1.2152 H   0  0  0  0  0  0  0  0  0  0  0  0
    1.5669    4.7368    0.4114 H   0  0  0  0  0  0  0  0  0  0  0  0
    2.3841    2.4695    0.9278 H   0  0  0  0  0  0  0  0  0  0  0  0
   -0.4928    0.8231   -1.7926 H   0  0  0  0  0  0  0  0  0  0  0  0
   -1.2830    3.0822   -2.3249 H   0  0  0  0  0  0  0  0  0  0  0  0
    5.2249   -0.5701    0.2571 H   0  0  0  0  0  0  0  0  0  0  0  0
    5.0106   -2.2735    0.4712 H   0  0  0  0  0  0  0  0  0  0  0  0
   -3.9703   -3.7446   -0.4277 H   0  0  0  0  0  0  0  0  0  0  0  0
   -4.7665   -2.4409   -1.2997 H   0  0  0  0  0  0  0  0  0  0  0  0
   -3.3235   -3.2142   -1.9738 H   0  0  0  0  0  0  0  0  0  0  0  0
   -3.8817    0.3798    2.9116 H   0  0  0  0  0  0  0  0  0  0  0  0
   -2.9804    1.7379    2.2486 H   0  0  0  0  0  0  0  0  0  0  0  0
   -4.4919    1.2142    1.4919 H   0  0  0  0  0  0  0  0  0  0  0  0
   -3.5824    0.8704    1.9831 C   0  0  0  0  0  0  0  0  0  0  0  0
 13 18  2  0
 13 14  1  0
 18 17  1  0
 14 15  2  0
 17 16  2  0
 15 16  1  0
 16  4  1  0
 19  6  1  0
  5  4  2  0
  5  6  1  0
  4  3  1  0
  6  1  2  0
  1  2  1  0
  3  2  2  0
  3 10  1  0
 10 11  2  0
 10  9  1  0
 11 12  1  0
  9  8  2  0
 12 20  1  0
 12  7  2  0
  8  7  1  0
  8 36  1  0
  9 21  1  0
 11 22  1  0
 13 23  1  0
 14 24  1  0
 15 25  1  0
 17 26  1  0
 18 27  1  0
 19 28  1  0
 19 29  1  0
 20 30  1  0
 20 31  1  0
 20 32  1  0
 36 33  1  0
 36 34  1  0
 36 35  1  0
M  END
