
     RDKit          3D

 21 22  0  0  0  0  0  0  0  0999 V2000
    0.8920   -1.5165   -0.0109 N   0  0  0  0  0  0  0  0  0  0  0  0
   -0.4169   -1.1051   -0.0072 C   0  0  0  0  0  0  0  0  0  0  0  0
   -1.5315   -1.9421   -0.0066 C   0  0  0  0  0  0  0  0  0  0  0  0
   -2.7952   -1.3843   -0.0030 C   0  0  0  0  0  0  0  0  0  0  0  0
   -2.9473    0.0035    0.0017 C   0  0  0  0  0  0  0  0  0  0  0  0
   -4.5478    0.6703    0.0068 Cl  0  0  0  0  0  0  0  0  0  0  0  0
   -1.8634    0.8619    0.0016 C   0  0  0  0  0  0  0  0  0  0  0  0
   -0.6016    0.2847   -0.0034 C   0  0  0  0  0  0  0  0  0  0  0  0
    0.9417    1.0830   -0.0061 S   0  0  0  0  0  0  0  0  0  0  0  0
    1.6839   -0.5013   -0.0105 C   0  0  0  0  0  0  0  0  0  0  0  0
    3.0427   -0.6575   -0.0147 N   0  0  0  0  0  0  0  0  0  0  0  0
    3.9487    0.3654   -0.0129 C   0  0  0  0  0  0  0  0  0  0  0  0
    3.5805    1.5244   -0.0055 O   0  0  0  0  0  0  0  0  0  0  0  0
    5.3885   -0.0500   -0.0168 C   0  0  0  0  0  0  0  0  0  0  0  0
    3.3685   -1.6141   -0.0228 H   0  0  0  0  0  0  0  0  0  0  0  0
   -1.4062   -3.0167   -0.0092 H   0  0  0  0  0  0  0  0  0  0  0  0
   -3.6671   -2.0235   -0.0036 H   0  0  0  0  0  0  0  0  0  0  0  0
   -1.9965    1.9351    0.0056 H   0  0  0  0  0  0  0  0  0  0  0  0
    5.5259   -1.1282   -0.0495 H   0  0  0  0  0  0  0  0  0  0  0  0
    5.8876    0.3937   -0.8779 H   0  0  0  0  0  0  0  0  0  0  0  0
    5.8754    0.3371    0.8783 H   0  0  0  0  0  0  0  0  0  0  0  0
  1  2  1  0
  1 10  2  0
  2  3  2  0
  2  8  1  0
  3  4  1  0
  4  5  2  0
  5  6  1  0
  5  7  1  0
  7  8  2  0
  8  9  1  0
  9 10  1  0
 10 11  1  0
 11 12  1  0
 12 13  2  0
 12 14  1  0
 11 15  1  0
  3 16  1  0
  4 17  1  0
  7 18  1  0
 14 19  1  0
 14 20  1  0
 14 21  1  0
M  END
