
     RDKit          3D

 48 51  0  0  0  0  0  0  0  0999 V2000
    6.2096    0.2984   -0.7277 C   0  0  0  0  0  0  0  0  0  0  0  0
    7.0302    1.1977   -0.0752 C   0  0  0  0  0  0  0  0  0  0  0  0
    6.4203    2.2637    0.5536 C   0  0  0  0  0  0  0  0  0  0  0  0
    5.0509    2.4515    0.5501 C   0  0  0  0  0  0  0  0  0  0  0  0
    4.2947    1.5152   -0.1217 C   0  0  0  0  0  0  0  0  0  0  0  0
    4.8274    0.4142   -0.7805 C   0  0  0  0  0  0  0  0  0  0  0  0
    3.9580   -0.5782   -1.5007 C   0  0  0  0  0  0  0  0  0  0  0  0
    3.2141   -2.9742    1.1328 N   0  0  0  0  0  0  0  0  0  0  0  0
    3.7475   -2.2271    0.2288 C   0  0  0  0  0  0  0  0  0  0  0  0
    3.1205   -1.3537   -0.5784 N   0  0  0  0  0  0  0  0  0  0  0  0
    1.7427   -1.2282   -0.4859 C   0  0  0  0  0  0  0  0  0  0  0  0
    1.0880   -2.0040    0.4783 C   0  0  0  0  0  0  0  0  0  0  0  0
   -0.2985   -1.9201    0.6197 C   0  0  0  0  0  0  0  0  0  0  0  0
   -1.0163   -1.0857   -0.1994 C   0  0  0  0  0  0  0  0  0  0  0  0
   -0.3743   -0.3206   -1.1724 C   0  0  0  0  0  0  0  0  0  0  0  0
    0.9922   -0.3881   -1.3175 C   0  0  0  0  0  0  0  0  0  0  0  0
    1.8576   -2.9077    1.3466 C   0  0  0  0  0  0  0  0  0  0  0  0
    1.3292   -3.5786    2.2167 O   0  0  0  0  0  0  0  0  0  0  0  0
   -6.3460   -0.5952   -0.7406 F   0  0  0  0  0  0  0  0  0  0  0  0
   -2.3835   -1.0467   -0.0933 O   0  0  0  0  0  0  0  0  0  0  0  0
   -2.9787    0.0196    0.4929 C   0  0  0  0  0  0  0  0  0  0  0  0
   -2.2812    0.9459    1.2545 C   0  0  0  0  0  0  0  0  0  0  0  0
   -2.9665    1.9974    1.8387 C   0  0  0  0  0  0  0  0  0  0  0  0
   -4.3359    2.1196    1.6827 C   0  0  0  0  0  0  0  0  0  0  0  0
   -5.0399    1.1851    0.9312 C   0  0  0  0  0  0  0  0  0  0  0  0
   -4.3636    0.1342    0.3142 C   0  0  0  0  0  0  0  0  0  0  0  0
   -5.0490   -0.8671   -0.5703 C   0  0  1  0  0  0  0  0  0  0  0  0
    7.1832    3.1490    1.1947 F   0  0  0  0  0  0  0  0  0  0  0  0
   -4.9787   -2.1099   -0.0780 F   0  0  0  0  0  0  0  0  0  0  0  0
   -4.5110   -0.8978   -1.7960 F   0  0  0  0  0  0  0  0  0  0  0  0
    6.7859   -0.7422   -1.3353 F   0  0  0  0  0  0  0  0  0  0  0  0
    2.9688    1.6682   -0.1411 F   0  0  0  0  0  0  0  0  0  0  0  0
   -6.5402    1.3435    0.9356 C   0  0  0  0  0  0  0  0  0  0  0  0
   -7.2292    0.6925    1.7018 O   0  0  0  0  0  0  0  0  0  0  0  0
   -6.9968    2.2955    0.1191 N   0  0  0  0  0  0  0  0  0  0  0  0
    8.1036    1.0659   -0.0590 H   0  0  0  0  0  0  0  0  0  0  0  0
    4.5902    3.2944    1.0469 H   0  0  0  0  0  0  0  0  0  0  0  0
    3.3277   -0.0794   -2.2290 H   0  0  0  0  0  0  0  0  0  0  0  0
    4.5634   -1.2786   -2.0711 H   0  0  0  0  0  0  0  0  0  0  0  0
    4.8200   -2.2953    0.0792 H   0  0  0  0  0  0  0  0  0  0  0  0
   -0.7970   -2.5185    1.3712 H   0  0  0  0  0  0  0  0  0  0  0  0
   -0.9490    0.3242   -1.8248 H   0  0  0  0  0  0  0  0  0  0  0  0
    1.4509    0.2101   -2.0900 H   0  0  0  0  0  0  0  0  0  0  0  0
   -1.2138    0.8532    1.4011 H   0  0  0  0  0  0  0  0  0  0  0  0
   -2.4224    2.7231    2.4277 H   0  0  0  0  0  0  0  0  0  0  0  0
   -4.8629    2.9395    2.1517 H   0  0  0  0  0  0  0  0  0  0  0  0
   -6.3875    2.7877   -0.5117 H   0  0  0  0  0  0  0  0  0  0  0  0
   -7.9807    2.5110    0.0804 H   0  0  0  0  0  0  0  0  0  0  0  0
 28  3  1  0
 27 30  1  6
 29 27  1  0
 19 27  1  0
  3  2  1  0
  3  4  2  0
 27 26  1  0
  2  1  2  0
  4  5  1  0
 35 33  1  0
 34 33  2  0
 33 25  1  0
 26 25  2  0
 26 21  1  0
  1 31  1  0
  1  6  1  0
 20 14  1  0
 20 21  1  0
  5  6  2  0
  5 32  1  0
 25 24  1  0
 14 15  2  0
 14 13  1  0
 21 22  2  0
  6  7  1  0
 15 16  1  0
 13 12  2  0
 16 11  2  0
 12 11  1  0
 12 17  1  0
 18 17  2  0
 24 23  2  0
 11 10  1  0
 17  8  1  0
 22 23  1  0
  7 10  1  0
  8  9  2  0
 10  9  1  0
  2 36  1  0
  4 37  1  0
  7 38  1  0
  7 39  1  0
  9 40  1  0
 13 41  1  0
 15 42  1  0
 16 43  1  0
 22 44  1  0
 23 45  1  0
 24 46  1  0
 35 47  1  0
 35 48  1  0
M  END
