
     RDKit          3D

 36 36  0  0  0  0  0  0  0  0999 V2000
   -4.4305   -0.6582   -0.1473 S   0  0  1  0  0  0  0  0  0  0  0  0
    2.2455    0.3986    0.0536 N   0  0  0  0  0  0  0  0  0  0  0  0
    1.4824    2.4242    0.6810 O   0  0  0  0  0  0  0  0  0  0  0  0
   -0.1315    0.7550    0.1986 C   0  0  0  0  0  0  0  0  0  0  0  0
   -1.7694   -1.0094    0.3349 C   0  0  0  0  0  0  0  0  0  0  0  0
   -0.4578   -0.5795    0.4347 C   0  0  0  0  0  0  0  0  0  0  0  0
   -2.7540   -0.0958   -0.0135 C   0  0  0  0  0  0  0  0  0  0  0  0
   -1.1362    1.6581   -0.1319 C   0  0  0  0  0  0  0  0  0  0  0  0
   -2.4503    1.2354   -0.2543 C   0  0  0  0  0  0  0  0  0  0  0  0
    3.6507    0.7425    0.1484 C   0  0  0  0  0  0  0  0  0  0  0  0
   -5.1780    0.3542   -0.8792 O   0  0  0  0  0  0  0  0  0  0  0  0
    4.5169   -0.4842   -0.0846 C   0  0  0  0  0  0  0  0  0  0  0  0
   -4.4377   -2.0260   -0.6439 O   0  0  0  0  0  0  0  0  0  0  0  0
    6.0006   -0.1679    0.0439 C   0  0  0  0  0  0  0  0  0  0  0  0
   -4.8605   -0.7495    1.4423 N   0  0  0  0  0  0  0  0  0  0  0  0
    6.8887   -1.3808   -0.2051 C   0  0  0  0  0  0  0  0  0  0  0  0
    8.3699   -1.0656   -0.0528 C   0  0  0  0  0  0  0  0  0  0  0  0
    2.0093   -0.4852   -0.3679 H   0  0  0  0  0  0  0  0  0  0  0  0
   -2.0104   -2.0449    0.5334 H   0  0  0  0  0  0  0  0  0  0  0  0
    0.3007   -1.2957    0.7224 H   0  0  0  0  0  0  0  0  0  0  0  0
   -0.8955    2.6975   -0.3073 H   0  0  0  0  0  0  0  0  0  0  0  0
   -3.2199    1.9429   -0.5307 H   0  0  0  0  0  0  0  0  0  0  0  0
    3.8999    1.5197   -0.5811 H   0  0  0  0  0  0  0  0  0  0  0  0
    3.8528    1.1582    1.1381 H   0  0  0  0  0  0  0  0  0  0  0  0
    4.2452   -1.2641    0.6336 H   0  0  0  0  0  0  0  0  0  0  0  0
    4.3137   -0.8888   -1.0817 H   0  0  0  0  0  0  0  0  0  0  0  0
    6.2681    0.6283   -0.6590 H   0  0  0  0  0  0  0  0  0  0  0  0
    6.2021    0.2281    1.0449 H   0  0  0  0  0  0  0  0  0  0  0  0
   -5.0626    0.1571    1.8516 H   0  0  0  0  0  0  0  0  0  0  0  0
   -5.6390   -1.3858    1.5855 H   0  0  0  0  0  0  0  0  0  0  0  0
    6.6108   -2.1804    0.4884 H   0  0  0  0  0  0  0  0  0  0  0  0
    6.6966   -1.7696   -1.2096 H   0  0  0  0  0  0  0  0  0  0  0  0
    8.5969   -0.7188    0.9569 H   0  0  0  0  0  0  0  0  0  0  0  0
    8.9880   -1.9425   -0.2481 H   0  0  0  0  0  0  0  0  0  0  0  0
    8.6802   -0.2819   -0.7465 H   0  0  0  0  0  0  0  0  0  0  0  0
    1.2697    1.2707    0.3330 C   0  0  0  0  0  0  0  0  0  0  0  0
  7  1  1  0
  1 15  1  1
 11  1  2  0
  1 13  2  0
 10  2  1  0
  2 36  1  0
  2 18  1  0
  3 36  2  0
 36  4  1  0
  4  8  2  0
  4  6  1  0
  6  5  2  0
  5  7  1  0
  5 19  1  0
  6 20  1  0
  9  7  2  0
  8  9  1  0
  8 21  1  0
  9 22  1  0
 10 12  1  0
 10 23  1  0
 10 24  1  0
 14 12  1  0
 12 25  1  0
 12 26  1  0
 14 16  1  0
 14 27  1  0
 14 28  1  0
 15 29  1  0
 15 30  1  0
 17 16  1  0
 16 31  1  0
 16 32  1  0
 17 33  1  0
 17 34  1  0
 17 35  1  0
M  END
