
     RDKit          3D

 35 37  0  0  0  0  0  0  0  0999 V2000
   -1.7583   -0.4873   -1.3431 C   0  0  0  0  0  0  0  0  0  0  0  0
   -1.6063    0.7512    0.6998 C   0  0  0  0  0  0  0  0  0  0  0  0
   -2.9804    0.6650    0.8508 C   0  0  0  0  0  0  0  0  0  0  0  0
    0.5171    0.2035   -0.5600 C   0  0  2  0  0  0  0  0  0  0  0  0
    2.6572   -0.9164    0.1033 C   0  0  0  0  0  0  0  0  0  0  0  0
   -5.8151   -1.2292   -0.3619 N   0  0  0  0  0  0  0  0  0  0  0  0
   -5.9561    0.8587    0.5764 N   0  0  0  0  0  0  0  0  0  0  0  0
   -3.7603   -0.0094   -0.0866 C   0  0  0  0  0  0  0  0  0  0  0  0
   -3.1321   -0.5903   -1.1856 C   0  0  0  0  0  0  0  0  0  0  0  0
   -0.9797    0.1778   -0.4031 C   0  0  0  0  0  0  0  0  0  0  0  0
    1.1563   -0.9681    0.1801 C   0  0  0  0  0  0  0  0  0  0  0  0
    3.4250   -2.0743    0.0538 C   0  0  0  0  0  0  0  0  0  0  0  0
    4.8100   -1.9911    0.0074 C   0  0  0  0  0  0  0  0  0  0  0  0
    5.4381   -0.7509    0.0122 C   0  0  0  0  0  0  0  0  0  0  0  0
    4.6727    0.4047    0.0639 C   0  0  0  0  0  0  0  0  0  0  0  0
    3.2800    0.3376    0.1091 C   0  0  0  0  0  0  0  0  0  0  0  0
    2.3516    1.5867    0.1657 B   0  0  0  0  0  0  0  0  0  0  0  0
    2.8478    2.8079    0.4825 O   0  0  0  0  0  0  0  0  0  0  0  0
    1.0190    1.4449   -0.0916 O   0  0  0  0  0  0  0  0  0  0  0  0
   -1.2898   -0.9266   -2.2157 H   0  0  0  0  0  0  0  0  0  0  0  0
   -1.0256    1.2673    1.4532 H   0  0  0  0  0  0  0  0  0  0  0  0
   -3.4434    1.1101    1.7229 H   0  0  0  0  0  0  0  0  0  0  0  0
    0.7587    0.1094   -1.6264 H   0  0  0  0  0  0  0  0  0  0  0  0
   -5.2739   -2.0774   -0.3383 H   0  0  0  0  0  0  0  0  0  0  0  0
   -6.7905   -1.3535   -0.1410 H   0  0  0  0  0  0  0  0  0  0  0  0
   -5.3943    1.6813    0.7607 H   0  0  0  0  0  0  0  0  0  0  0  0
   -3.7134   -1.1053   -1.9397 H   0  0  0  0  0  0  0  0  0  0  0  0
    0.8362   -0.9497    1.2286 H   0  0  0  0  0  0  0  0  0  0  0  0
    0.7779   -1.9010   -0.2423 H   0  0  0  0  0  0  0  0  0  0  0  0
    2.9417   -3.0444    0.0462 H   0  0  0  0  0  0  0  0  0  0  0  0
    5.4025   -2.8961   -0.0374 H   0  0  0  0  0  0  0  0  0  0  0  0
    6.5180   -0.6893   -0.0263 H   0  0  0  0  0  0  0  0  0  0  0  0
    5.1677    1.3684    0.0649 H   0  0  0  0  0  0  0  0  0  0  0  0
    2.1946    3.5159    0.4637 H   0  0  0  0  0  0  0  0  0  0  0  0
   -5.2383   -0.0791    0.0873 C   0  0  0  0  0  0  0  0  0  0  0  0
  7 35  2  0
 35  6  1  0
 35  8  1  0
  9  1  2  0
  9  8  1  0
  1 10  1  0
  8  3  2  0
 18 17  1  0
 19 17  1  0
 19  4  1  0
 17 16  1  0
 10  2  2  0
 10  4  1  0
  3  2  1  0
  4 11  1  0
 16 15  1  0
 16  5  2  0
 11  5  1  0
 15 14  2  0
  5 12  1  0
 14 13  1  0
 12 13  2  0
  1 20  1  0
  2 21  1  0
  3 22  1  0
  4 23  1  6
  6 24  1  0
  6 25  1  0
  7 26  1  0
  9 27  1  0
 11 28  1  0
 11 29  1  0
 12 30  1  0
 13 31  1  0
 14 32  1  0
 15 33  1  0
 18 34  1  0
M  END
