
     RDKit          3D

 62 67  0  0  0  0  0  0  0  0999 V2000
   -3.3650    1.9045   -1.0077 C   0  0  0  0  0  0  0  0  0  0  0  0
   -4.8198    1.8352   -1.3767 C   0  0  0  0  0  0  0  0  0  0  0  0
   -5.5120    0.7307   -0.5936 C   0  0  0  0  0  0  0  0  0  0  0  0
   -4.6797   -0.5410   -0.6656 C   0  0  1  0  0  0  0  0  0  0  0  0
   -1.3974    0.8847   -0.0549 C   0  0  0  0  0  0  0  0  0  0  0  0
    0.7079    2.0530    0.0449 N   0  0  0  0  0  0  0  0  0  0  0  0
    1.6249    1.5887   -0.9862 C   0  0  0  0  0  0  0  0  0  0  0  0
    3.9025    0.5609   -0.9399 C   0  0  0  0  0  0  0  0  0  0  0  0
    5.7760   -3.7889    1.1018 C   0  0  0  0  0  0  0  0  0  0  0  0
    4.8778   -4.5702    0.3849 C   0  0  0  0  0  0  0  0  0  0  0  0
    4.3553   -4.0966   -0.8105 C   0  0  0  0  0  0  0  0  0  0  0  0
    5.6337    1.0513    0.6435 C   0  0  0  0  0  0  0  0  0  0  0  0
    4.7506    2.1557    1.1679 C   0  0  0  0  0  0  0  0  0  0  0  0
   -1.2648    3.1510   -0.8989 C   0  0  0  0  0  0  0  0  0  0  0  0
   -2.6072    3.0488   -1.2382 C   0  0  0  0  0  0  0  0  0  0  0  0
   -3.3803   -0.3461   -0.1252 O   0  0  0  0  0  0  0  0  0  0  0  0
   -2.7415    0.8127   -0.4086 C   0  0  0  0  0  0  0  0  0  0  0  0
   -0.6741    2.0393   -0.2929 C   0  0  0  0  0  0  0  0  0  0  0  0
    2.9811    1.3772   -0.3987 C   0  0  0  0  0  0  0  0  0  0  0  0
    5.1737    0.3712   -0.4591 N   0  0  0  0  0  0  0  0  0  0  0  0
    5.6199   -2.0523   -0.5683 C   0  0  0  0  0  0  0  0  0  0  0  0
    6.1445   -2.5381    0.6279 C   0  0  0  0  0  0  0  0  0  0  0  0
    4.7281   -2.8451   -1.2844 C   0  0  0  0  0  0  0  0  0  0  0  0
    6.7142    0.8179    1.1381 O   0  0  0  0  0  0  0  0  0  0  0  0
    3.3067    2.1074    0.7886 C   0  0  0  0  0  0  0  0  0  0  0  0
    2.4544    2.7335    1.5166 N   0  0  0  0  0  0  0  0  0  0  0  0
    1.0961    2.6695    1.1935 C   0  0  0  0  0  0  0  0  0  0  0  0
    0.2820    3.1435    1.9666 O   0  0  0  0  0  0  0  0  0  0  0  0
   -5.3069   -1.6521    0.1346 C   0  0  0  0  0  0  0  0  0  0  0  0
   -5.2879   -1.5315    1.4564 N   0  0  0  0  0  0  0  0  0  0  0  0
   -5.8470   -2.4687    2.2057 C   0  0  0  0  0  0  0  0  0  0  0  0
   -6.4693   -3.5907    1.6751 C   0  0  0  0  0  0  0  0  0  0  0  0
   -6.5077   -3.7339    0.2994 C   0  0  0  0  0  0  0  0  0  0  0  0
   -5.9174   -2.7447   -0.4612 C   0  0  0  0  0  0  0  0  0  0  0  0
   -5.9384   -2.8492   -1.7968 F   0  0  0  0  0  0  0  0  0  0  0  0
   -5.3010    2.7954   -1.1829 H   0  0  0  0  0  0  0  0  0  0  0  0
   -4.9234    1.6480   -2.4498 H   0  0  0  0  0  0  0  0  0  0  0  0
   -5.6424    1.0193    0.4525 H   0  0  0  0  0  0  0  0  0  0  0  0
   -6.5042    0.5330   -1.0017 H   0  0  0  0  0  0  0  0  0  0  0  0
   -4.5797   -0.8376   -1.7159 H   0  0  0  0  0  0  0  0  0  0  0  0
   -0.9165    0.0338    0.4124 H   0  0  0  0  0  0  0  0  0  0  0  0
    1.2357    0.6625   -1.4121 H   0  0  0  0  0  0  0  0  0  0  0  0
    1.6693    2.3214   -1.8013 H   0  0  0  0  0  0  0  0  0  0  0  0
    3.6647   -0.0191   -1.8230 H   0  0  0  0  0  0  0  0  0  0  0  0
    5.8489   -0.6179   -2.1495 H   0  0  0  0  0  0  0  0  0  0  0  0
    7.0357   -0.4594   -0.8698 H   0  0  0  0  0  0  0  0  0  0  0  0
    4.5918   -5.5468    0.7533 H   0  0  0  0  0  0  0  0  0  0  0  0
    3.6603   -4.7016   -1.3778 H   0  0  0  0  0  0  0  0  0  0  0  0
    4.8701    2.2288    2.2481 H   0  0  0  0  0  0  0  0  0  0  0  0
    5.1608    3.0858    0.7511 H   0  0  0  0  0  0  0  0  0  0  0  0
   -3.0951    3.9004   -1.7006 H   0  0  0  0  0  0  0  0  0  0  0  0
    6.8475   -1.9356    1.1885 H   0  0  0  0  0  0  0  0  0  0  0  0
    4.3242   -2.4900   -2.2257 H   0  0  0  0  0  0  0  0  0  0  0  0
   -5.8022   -2.3233    3.2786 H   0  0  0  0  0  0  0  0  0  0  0  0
   -6.9140   -4.3331    2.3228 H   0  0  0  0  0  0  0  0  0  0  0  0
   -6.9779   -4.5863   -0.1731 H   0  0  0  0  0  0  0  0  0  0  0  0
    5.9907   -0.6819   -1.0705 C   0  0  0  0  0  0  0  0  0  0  0  0
   -0.4950    4.4139   -1.1515 C   0  0  0  0  0  0  0  0  0  0  0  0
    6.1946   -4.1559    2.0299 H   0  0  0  0  0  0  0  0  0  0  0  0
   -0.2159    4.9053   -0.2179 H   0  0  0  0  0  0  0  0  0  0  0  0
    0.4258    4.2317   -1.7075 H   0  0  0  0  0  0  0  0  0  0  0  0
   -1.0899    5.1203   -1.7285 H   0  0  0  0  0  0  0  0  0  0  0  0
 24 12  2  0
 13 12  1  0
 13 25  1  0
 12 20  1  0
 26 25  2  0
 26 27  1  0
  9 10  2  0
  9 22  1  0
 10 11  1  0
 25 19  1  0
 22 21  2  0
 28 27  2  0
 11 23  2  0
 27  6  1  0
 21 23  1  0
 21 57  1  0
 20 57  1  0
 20  8  1  0
 19  8  2  0
 19  7  1  0
  6  7  1  0
  6 18  1  0
 18  5  1  0
 18 14  2  0
  5 17  2  0
 31 30  2  0
 31 32  1  0
 58 14  1  0
 14 15  1  0
 30 29  1  0
 17 16  1  0
 17  1  1  0
 16  4  1  0
 32 33  2  0
 15  1  2  0
  1  2  1  0
 29  4  1  0
 29 34  2  0
  3  4  1  0
  3  2  1  0
 33 34  1  0
 34 35  1  0
  2 36  1  0
  2 37  1  0
  3 38  1  0
  3 39  1  0
  4 40  1  6
  5 41  1  0
  7 42  1  0
  7 43  1  0
  8 44  1  0
 57 45  1  0
 57 46  1  0
  9 59  1  0
 10 47  1  0
 11 48  1  0
 13 49  1  0
 13 50  1  0
 58 60  1  0
 58 61  1  0
 58 62  1  0
 15 51  1  0
 22 52  1  0
 23 53  1  0
 31 54  1  0
 32 55  1  0
 33 56  1  0
M  END
