
     RDKit          3D

 21 21  0  0  0  0  0  0  0  0999 V2000
   -0.8358    1.5958   -0.2761 C   0  0  0  0  0  0  0  0  0  0  0  0
    0.5260    1.4571   -0.5216 C   0  0  0  0  0  0  0  0  0  0  0  0
    1.1201    0.2096   -0.5122 C   0  0  0  0  0  0  0  0  0  0  0  0
    0.3384   -0.9251   -0.2389 C   0  0  0  0  0  0  0  0  0  0  0  0
    2.5789    0.0681   -0.7771 C   0  0  0  0  0  0  0  0  0  0  0  0
   -1.5503    3.1739   -0.3034 Cl  0  0  0  0  0  0  0  0  0  0  0  0
   -1.6136    0.4931   -0.0119 C   0  0  0  0  0  0  0  0  0  0  0  0
    3.4777   -0.2691    0.7569 Cl  0  0  0  0  0  0  0  0  0  0  0  0
    0.9469   -2.1013   -0.2317 O   0  0  0  0  0  0  0  0  0  0  0  0
   -1.0410   -0.7827    0.0113 C   0  0  0  0  0  0  0  0  0  0  0  0
   -1.8572   -1.9761    0.2945 C   0  0  0  0  0  0  0  0  0  0  0  0
   -1.3379   -3.0875    0.3063 O   0  0  0  0  0  0  0  0  0  0  0  0
   -3.3223   -1.8198    0.5629 C   0  0  0  0  0  0  0  0  0  0  0  0
    1.1291    2.3324   -0.7270 H   0  0  0  0  0  0  0  0  0  0  0  0
    2.8045   -0.7517   -1.4543 H   0  0  0  0  0  0  0  0  0  0  0  0
    2.9949    0.9853   -1.1850 H   0  0  0  0  0  0  0  0  0  0  0  0
   -2.6701    0.6202    0.1763 H   0  0  0  0  0  0  0  0  0  0  0  0
    0.2652   -2.7880   -0.0380 H   0  0  0  0  0  0  0  0  0  0  0  0
   -3.4995   -1.1367    1.3940 H   0  0  0  0  0  0  0  0  0  0  0  0
   -3.8297   -1.4062   -0.3103 H   0  0  0  0  0  0  0  0  0  0  0  0
   -3.7640   -2.7843    0.7999 H   0  0  0  0  0  0  0  0  0  0  0  0
  5  8  1  0
  5  3  1  0
  2  3  1  0
  2  1  2  0
  6  1  1  0
  3  4  2  0
  1  7  1  0
  4  9  1  0
  4 10  1  0
  7 10  2  0
 10 11  1  0
 11 12  2  0
 11 13  1  0
  2 14  1  0
  5 15  1  0
  5 16  1  0
  7 17  1  0
  9 18  1  0
 13 19  1  0
 13 20  1  0
 13 21  1  0
M  END
