
     RDKit          3D

 23 23  0  0  0  0  0  0  0  0999 V2000
    4.9850    0.8197    0.6191 C   0  0  0  0  0  0  0  0  0  0  0  0
    4.1758   -0.2230    0.4396 C   0  0  0  0  0  0  0  0  0  0  0  0
    2.7742   -0.1795    0.0087 C   0  0  0  0  0  0  0  0  0  0  0  0
    2.0395   -1.3655   -0.0244 C   0  0  0  0  0  0  0  0  0  0  0  0
    0.7089   -1.3735   -0.4118 C   0  0  0  0  0  0  0  0  0  0  0  0
    0.0804   -0.1932   -0.7893 C   0  0  0  0  0  0  0  0  0  0  0  0
    0.8072    0.9957   -0.7644 C   0  0  0  0  0  0  0  0  0  0  0  0
    2.1337    1.0023   -0.3759 C   0  0  0  0  0  0  0  0  0  0  0  0
   -1.3622   -0.1947   -1.1888 C   0  0  0  0  0  0  0  0  0  0  0  0
   -2.3480    0.1175    0.2731 S   0  0  1  0  0  0  0  0  0  0  0  0
   -2.2210   -0.9898    1.2018 O   0  0  0  0  0  0  0  0  0  0  0  0
   -2.0851    1.4541    0.7721 O   0  0  0  0  0  0  0  0  0  0  0  0
   -3.7918    0.0758   -0.4201 O   0  0  0  0  0  0  0  0  0  0  0  0
    6.0059    0.6755    0.9452 H   0  0  0  0  0  0  0  0  0  0  0  0
    4.6723    1.8437    0.4577 H   0  0  0  0  0  0  0  0  0  0  0  0
    4.5651   -1.2172    0.6355 H   0  0  0  0  0  0  0  0  0  0  0  0
    2.5147   -2.2963    0.2606 H   0  0  0  0  0  0  0  0  0  0  0  0
    2.6737    1.9404   -0.3740 H   0  0  0  0  0  0  0  0  0  0  0  0
    0.1621   -2.3079   -0.4329 H   0  0  0  0  0  0  0  0  0  0  0  0
    0.3355    1.9235   -1.0624 H   0  0  0  0  0  0  0  0  0  0  0  0
   -1.5963    0.5900   -1.9090 H   0  0  0  0  0  0  0  0  0  0  0  0
   -1.6797   -1.1575   -1.5901 H   0  0  0  0  0  0  0  0  0  0  0  0
   -4.5040    0.2323    0.2245 H   0  0  0  0  0  0  0  0  0  0  0  0
  1  2  2  0
  2  3  1  0
  3  4  2  0
  3  8  1  0
  4  5  1  0
  5  6  2  0
  6  7  1  0
  6  9  1  0
  7  8  2  0
  9 10  1  0
 10 11  2  0
 10 12  2  0
 10 13  1  6
  1 14  1  0
  1 15  1  0
  2 16  1  0
  4 17  1  0
  8 18  1  0
  5 19  1  0
  7 20  1  0
  9 21  1  0
  9 22  1  0
 13 23  1  0
M  END
