
     RDKit          3D

 19 19  0  0  0  0  0  0  0  0999 V2000
    1.6714    1.2596    0.0210 C   0  0  0  0  0  0  0  0  0  0  0  0
    2.4637    0.1279    0.0019 C   0  0  0  0  0  0  0  0  0  0  0  0
    1.9299   -1.1486   -0.0059 C   0  0  0  0  0  0  0  0  0  0  0  0
    0.5541   -1.2875    0.0076 C   0  0  0  0  0  0  0  0  0  0  0  0
    3.7935    0.2709   -0.0102 F   0  0  0  0  0  0  0  0  0  0  0  0
    0.2954    1.1009    0.0316 C   0  0  0  0  0  0  0  0  0  0  0  0
   -0.2820   -0.1693    0.0258 C   0  0  0  0  0  0  0  0  0  0  0  0
   -1.7563   -0.3731    0.0327 C   0  0  0  0  0  0  0  0  0  0  0  0
   -2.2266   -1.4897    0.0519 O   0  0  0  0  0  0  0  0  0  0  0  0
   -2.6439    0.8512    0.0399 C   0  0  0  0  0  0  0  0  0  0  0  0
   -4.0404    0.5031   -0.0644 N   0  0  0  0  0  0  0  0  0  0  0  0
    2.1175    2.2450    0.0273 H   0  0  0  0  0  0  0  0  0  0  0  0
    2.5786   -2.0142   -0.0224 H   0  0  0  0  0  0  0  0  0  0  0  0
    0.1260   -2.2808    0.0023 H   0  0  0  0  0  0  0  0  0  0  0  0
   -0.3198    1.9903    0.0479 H   0  0  0  0  0  0  0  0  0  0  0  0
   -2.3798    1.4411    0.9320 H   0  0  0  0  0  0  0  0  0  0  0  0
   -2.3706    1.4802   -0.8124 H   0  0  0  0  0  0  0  0  0  0  0  0
   -4.3514    0.0500    0.7848 H   0  0  0  0  0  0  0  0  0  0  0  0
   -4.5828    1.3527   -0.1436 H   0  0  0  0  0  0  0  0  0  0  0  0
 11 10  1  0
 10  8  1  0
  8  9  2  0
  8  7  1  0
  7  4  2  0
  7  6  1  0
  4  3  1  0
  6  1  2  0
  3  2  2  0
  1  2  1  0
  2  5  1  0
  1 12  1  0
  3 13  1  0
  4 14  1  0
  6 15  1  0
 10 16  1  0
 10 17  1  0
 11 18  1  0
 11 19  1  0
M  END
