
     RDKit          3D

 75 78  0  0  0  0  0  0  0  0999 V2000
    9.5752    1.1616   -0.2582 C   0  0  0  0  0  0  0  0  0  0  0  0
    8.4168    1.3290   -1.2355 C   0  0  1  0  0  0  0  0  0  0  0  0
    7.8329    2.7359   -1.1819 C   0  0  0  0  0  0  0  0  0  0  0  0
    8.8900    1.0177   -2.6503 C   0  0  0  0  0  0  0  0  0  0  0  0
    7.3894    0.3291   -1.0092 O   0  0  0  0  0  0  0  0  0  0  0  0
    6.7409    0.2116    0.1515 C   0  0  0  0  0  0  0  0  0  0  0  0
    6.8809    0.9393    1.1153 O   0  0  0  0  0  0  0  0  0  0  0  0
    5.8836   -0.8273    0.1042 N   0  0  0  0  0  0  0  0  0  0  0  0
    5.1453   -1.2779    1.2625 C   0  0  0  0  0  0  0  0  0  0  0  0
    3.8962   -2.0552    0.8669 C   0  0  1  0  0  0  0  0  0  0  0  0
    3.2345   -2.6352    2.1150 C   0  0  0  0  0  0  0  0  0  0  0  0
    1.9629   -3.4040    1.7807 C   0  0  0  0  0  0  0  0  0  0  0  0
    0.9651   -2.5432    1.0103 C   0  0  2  0  0  0  0  0  0  0  0  0
   -0.2865   -3.3559    0.6925 C   0  0  0  0  0  0  0  0  0  0  0  0
   -1.3652   -2.5266    0.1953 N   0  0  0  0  0  0  0  0  0  0  0  0
   -2.6373   -2.6269    0.5977 C   0  0  0  0  0  0  0  0  0  0  0  0
   -3.0579   -3.4624    1.3844 O   0  0  0  0  0  0  0  0  0  0  0  0
   -3.5502   -1.5760    0.0361 C   0  0  0  0  0  0  0  0  0  0  0  0
   -3.2675   -0.2606    0.2695 C   0  0  0  0  0  0  0  0  0  0  0  0
   -4.1808    0.7443   -0.1427 C   0  0  0  0  0  0  0  0  0  0  0  0
   -5.2938    0.4483   -0.7633 N   0  0  0  0  0  0  0  0  0  0  0  0
   -5.5890   -0.8432   -1.0280 C   0  0  0  0  0  0  0  0  0  0  0  0
   -6.7904   -1.1187   -1.7206 C   0  0  0  0  0  0  0  0  0  0  0  0
   -7.1357   -2.4072   -2.0223 C   0  0  0  0  0  0  0  0  0  0  0  0
   -6.2968   -3.4754   -1.6463 C   0  0  0  0  0  0  0  0  0  0  0  0
   -5.1298   -3.2399   -0.9699 C   0  0  0  0  0  0  0  0  0  0  0  0
   -4.7487   -1.9191   -0.6425 C   0  0  0  0  0  0  0  0  0  0  0  0
   -3.9183    2.1678    0.1508 C   0  0  0  0  0  0  0  0  0  0  0  0
   -4.9769    3.0738    0.2301 C   0  0  0  0  0  0  0  0  0  0  0  0
   -4.7520    4.4072    0.5287 C   0  0  0  0  0  0  0  0  0  0  0  0
   -3.4613    4.8843    0.7465 C   0  0  0  0  0  0  0  0  0  0  0  0
   -3.1894    6.3377    1.0408 C   0  0  0  0  0  0  0  0  0  0  0  0
   -4.3196    6.9986    1.6653 N   0  0  0  0  0  0  0  0  0  0  0  0
   -2.4047    3.9817    0.6592 C   0  0  0  0  0  0  0  0  0  0  0  0
   -2.6254    2.6460    0.3660 C   0  0  0  0  0  0  0  0  0  0  0  0
    1.6246   -1.9669   -0.2427 C   0  0  0  0  0  0  0  0  0  0  0  0
    2.9020   -1.2004    0.0854 C   0  0  0  0  0  0  0  0  0  0  0  0
    9.3092    1.4444    0.7575 H   0  0  0  0  0  0  0  0  0  0  0  0
    9.9363    0.1317   -0.2530 H   0  0  0  0  0  0  0  0  0  0  0  0
   10.4029    1.7970   -0.5761 H   0  0  0  0  0  0  0  0  0  0  0  0
    8.5963    3.4510   -1.4919 H   0  0  0  0  0  0  0  0  0  0  0  0
    6.9898    2.8366   -1.8678 H   0  0  0  0  0  0  0  0  0  0  0  0
    7.5055    3.0094   -0.1814 H   0  0  0  0  0  0  0  0  0  0  0  0
    9.2934    0.0062   -2.7194 H   0  0  0  0  0  0  0  0  0  0  0  0
    8.0775    1.1157   -3.3715 H   0  0  0  0  0  0  0  0  0  0  0  0
    9.6789    1.7117   -2.9395 H   0  0  0  0  0  0  0  0  0  0  0  0
    5.9344   -1.4489   -0.6879 H   0  0  0  0  0  0  0  0  0  0  0  0
    5.7761   -1.9063    1.9026 H   0  0  0  0  0  0  0  0  0  0  0  0
    4.8560   -0.4086    1.8555 H   0  0  0  0  0  0  0  0  0  0  0  0
    4.2012   -2.8994    0.2323 H   0  0  0  0  0  0  0  0  0  0  0  0
    3.9371   -3.2898    2.6381 H   0  0  0  0  0  0  0  0  0  0  0  0
    2.9971   -1.8214    2.8105 H   0  0  0  0  0  0  0  0  0  0  0  0
    2.6490   -0.3141    0.6793 H   0  0  0  0  0  0  0  0  0  0  0  0
    3.3558   -0.8335   -0.8379 H   0  0  0  0  0  0  0  0  0  0  0  0
    2.2194   -4.2876    1.1848 H   0  0  0  0  0  0  0  0  0  0  0  0
    1.5010   -3.7733    2.7002 H   0  0  0  0  0  0  0  0  0  0  0  0
    0.6653   -1.7084    1.6571 H   0  0  0  0  0  0  0  0  0  0  0  0
   -0.0504   -4.1388   -0.0362 H   0  0  0  0  0  0  0  0  0  0  0  0
   -0.6420   -3.8545    1.5937 H   0  0  0  0  0  0  0  0  0  0  0  0
    1.8523   -2.7849   -0.9365 H   0  0  0  0  0  0  0  0  0  0  0  0
    0.9404   -1.2983   -0.7737 H   0  0  0  0  0  0  0  0  0  0  0  0
   -1.1585   -1.8726   -0.5431 H   0  0  0  0  0  0  0  0  0  0  0  0
   -2.3743    0.0111    0.8159 H   0  0  0  0  0  0  0  0  0  0  0  0
   -7.4215   -0.2863   -2.0048 H   0  0  0  0  0  0  0  0  0  0  0  0
   -8.0553   -2.6121   -2.5545 H   0  0  0  0  0  0  0  0  0  0  0  0
   -6.5801   -4.4896   -1.8939 H   0  0  0  0  0  0  0  0  0  0  0  0
   -4.4998   -4.0722   -0.6882 H   0  0  0  0  0  0  0  0  0  0  0  0
   -5.9881    2.7248    0.0684 H   0  0  0  0  0  0  0  0  0  0  0  0
   -1.7724    1.9834    0.2952 H   0  0  0  0  0  0  0  0  0  0  0  0
   -5.5890    5.0884    0.6044 H   0  0  0  0  0  0  0  0  0  0  0  0
   -2.2574    6.4043    1.6185 H   0  0  0  0  0  0  0  0  0  0  0  0
   -2.9851    6.8454    0.0929 H   0  0  0  0  0  0  0  0  0  0  0  0
   -1.3903    4.3254    0.8256 H   0  0  0  0  0  0  0  0  0  0  0  0
   -4.4191    6.6723    2.6185 H   0  0  0  0  0  0  0  0  0  0  0  0
   -4.1334    7.9908    1.7273 H   0  0  0  0  0  0  0  0  0  0  0  0
  1  2  1  0
  2  3  1  0
  2  4  1  0
  2  5  1  1
  5  6  1  0
  6  7  2  0
  6  8  1  0
  8  9  1  0
  9 10  1  0
 10 11  1  0
 10 37  1  0
 11 12  1  0
 12 13  1  0
 13 14  1  0
 13 36  1  0
 14 15  1  0
 15 16  1  0
 16 17  2  0
 16 18  1  0
 18 19  2  0
 18 27  1  0
 19 20  1  0
 20 21  2  0
 20 28  1  0
 21 22  1  0
 22 23  1  0
 22 27  2  0
 23 24  2  0
 24 25  1  0
 25 26  2  0
 26 27  1  0
 28 29  2  0
 28 35  1  0
 29 30  1  0
 30 31  2  0
 31 32  1  0
 31 34  1  0
 32 33  1  0
 34 35  2  0
 36 37  1  0
  1 38  1  0
  1 39  1  0
  1 40  1  0
  3 41  1  0
  3 42  1  0
  3 43  1  0
  4 44  1  0
  4 45  1  0
  4 46  1  0
  8 47  1  0
  9 48  1  0
  9 49  1  0
 10 50  1  6
 11 51  1  0
 11 52  1  0
 37 53  1  0
 37 54  1  0
 12 55  1  0
 12 56  1  0
 13 57  1  1
 14 58  1  0
 14 59  1  0
 36 60  1  0
 36 61  1  0
 15 62  1  0
 19 63  1  0
 23 64  1  0
 24 65  1  0
 25 66  1  0
 26 67  1  0
 29 68  1  0
 35 69  1  0
 30 70  1  0
 32 71  1  0
 32 72  1  0
 34 73  1  0
 33 74  1  0
 33 75  1  0
M  END
