
     RDKit          3D

 44 46  0  0  0  0  0  0  0  0999 V2000
   -1.0382    0.1516   -0.1179 C   0  0  0  0  0  0  0  0  0  0  0  0
    2.7180    0.1270   -0.5745 C   0  0  1  0  0  0  0  0  0  0  0  0
    4.0526    0.4702    1.4312 C   0  0  0  0  0  0  0  0  0  0  0  0
    4.6189   -2.0643    1.7114 C   0  0  0  0  0  0  0  0  0  0  0  0
    4.4475   -3.3396    1.1822 C   0  0  0  0  0  0  0  0  0  0  0  0
    3.1007   -2.4564   -0.6164 C   0  0  0  0  0  0  0  0  0  0  0  0
   -5.6765   -0.7107   -1.3253 C   0  0  0  0  0  0  0  0  0  0  0  0
   -6.2006   -0.1387   -0.1765 C   0  0  0  0  0  0  0  0  0  0  0  0
   -5.3279    0.3838    0.7606 C   0  0  0  0  0  0  0  0  0  0  0  0
   -3.9584    0.3564    0.5932 C   0  0  0  0  0  0  0  0  0  0  0  0
   -3.4385   -0.2191   -0.5649 C   0  0  0  0  0  0  0  0  0  0  0  0
   -4.3092   -0.7510   -1.5183 C   0  0  0  0  0  0  0  0  0  0  0  0
   -5.8251    0.9368    1.8678 F   0  0  0  0  0  0  0  0  0  0  0  0
   -2.0757   -0.2998   -0.8405 N   0  0  0  0  0  0  0  0  0  0  0  0
   -1.0888    0.7267    0.9520 O   0  0  0  0  0  0  0  0  0  0  0  0
    0.3041   -0.1443   -0.8083 C   0  0  0  0  0  0  0  0  0  0  0  0
    1.3486    0.3219   -0.1337 N   0  0  0  0  0  0  0  0  0  0  0  0
    0.3477   -0.7423   -1.8718 O   0  0  0  0  0  0  0  0  0  0  0  0
    3.6455    1.1533    0.1081 C   0  0  1  0  0  0  0  0  0  0  0  0
    4.0274   -0.9880    1.0690 C   0  0  0  0  0  0  0  0  0  0  0  0
    3.2754   -1.1896   -0.0841 C   0  0  0  0  0  0  0  0  0  0  0  0
    4.7698    1.3962   -0.7651 N   0  0  0  0  0  0  0  0  0  0  0  0
    3.6963   -3.5357    0.0275 C   0  0  0  0  0  0  0  0  0  0  0  0
    5.6999    2.3663   -0.4782 C   0  0  0  0  0  0  0  0  0  0  0  0
    5.5627    3.3426    0.3418 N   0  0  0  0  0  0  0  0  0  0  0  0
    6.8409    2.2755   -1.2423 N   0  0  0  0  0  0  0  0  0  0  0  0
    2.7455    0.2307   -1.6605 H   0  0  0  0  0  0  0  0  0  0  0  0
    5.0186    0.8200    1.7968 H   0  0  0  0  0  0  0  0  0  0  0  0
    3.3220    0.6800    2.2191 H   0  0  0  0  0  0  0  0  0  0  0  0
    5.2125   -1.9199    2.6058 H   0  0  0  0  0  0  0  0  0  0  0  0
    4.9099   -4.1884    1.6696 H   0  0  0  0  0  0  0  0  0  0  0  0
    2.5174   -2.6048   -1.5158 H   0  0  0  0  0  0  0  0  0  0  0  0
   -6.3391   -1.1236   -2.0730 H   0  0  0  0  0  0  0  0  0  0  0  0
   -3.3312    0.7806    1.3612 H   0  0  0  0  0  0  0  0  0  0  0  0
   -3.9165   -1.1982   -2.4223 H   0  0  0  0  0  0  0  0  0  0  0  0
   -1.8218   -0.7565   -1.7077 H   0  0  0  0  0  0  0  0  0  0  0  0
    1.1721    0.7586    0.7605 H   0  0  0  0  0  0  0  0  0  0  0  0
    3.1147    2.0934    0.2713 H   0  0  0  0  0  0  0  0  0  0  0  0
    5.1097    0.5933   -1.2742 H   0  0  0  0  0  0  0  0  0  0  0  0
    3.5798   -4.5336   -0.3748 H   0  0  0  0  0  0  0  0  0  0  0  0
    4.6531    3.3464    0.7850 H   0  0  0  0  0  0  0  0  0  0  0  0
    7.1572    1.3487   -1.4815 H   0  0  0  0  0  0  0  0  0  0  0  0
    7.5922    2.8571   -0.9076 H   0  0  0  0  0  0  0  0  0  0  0  0
   -7.8987   -0.0677    0.0965 Cl  0  0  0  0  0  0  0  0  0  0  0  0
  4  5  1  0
  4 20  2  0
  3 20  1  0
  3 19  1  0
 25 24  2  0
  5 23  2  0
 20 21  1  0
 24 26  1  0
 24 22  1  0
 19 22  1  0
 19  2  1  0
 23  6  1  0
 21  2  1  0
 21  6  2  0
  2 17  1  0
 17 16  1  0
 16 18  2  0
 16  1  1  0
 15  1  2  0
  1 14  1  0
 14 11  1  0
 10 11  2  0
 10  9  1  0
 11 12  1  0
 13  9  1  0
  9  8  2  0
 12  7  2  0
  8  7  1  0
  8 44  1  0
  2 27  1  6
  3 28  1  0
  3 29  1  0
  4 30  1  0
  5 31  1  0
  6 32  1  0
  7 33  1  0
 10 34  1  0
 12 35  1  0
 14 36  1  0
 17 37  1  0
 19 38  1  1
 22 39  1  0
 23 40  1  0
 25 41  1  0
 26 42  1  0
 26 43  1  0
M  END
