
     RDKit          3D

 57 59  0  0  0  0  0  0  0  0999 V2000
    0.2724    0.4164   -0.5362 C   0  0  1  0  0  0  0  0  0  0  0  0
    0.7233    1.5220   -1.5178 C   0  0  0  0  0  0  0  0  0  0  0  0
   -0.9620   -0.2672   -1.1099 C   0  0  0  0  0  0  0  0  0  0  0  0
    6.1313   -3.5573    1.5930 C   0  0  0  0  0  0  0  0  0  0  0  0
    1.9911    2.1776   -1.0562 C   0  0  0  0  0  0  0  0  0  0  0  0
    3.2329    1.6854   -1.4490 C   0  0  0  0  0  0  0  0  0  0  0  0
    1.9532    3.2558   -0.1766 C   0  0  0  0  0  0  0  0  0  0  0  0
    4.4117    2.2452   -0.9767 C   0  0  0  0  0  0  0  0  0  0  0  0
    4.3300    3.3119   -0.1040 C   0  0  0  0  0  0  0  0  0  0  0  0
    3.1183    3.8345    0.3045 C   0  0  0  0  0  0  0  0  0  0  0  0
    3.2193   -1.5705    0.6668 C   0  0  0  0  0  0  0  0  0  0  0  0
   -6.3285   -1.9671    2.3758 C   0  0  0  0  0  0  0  0  0  0  0  0
    4.1289   -1.8974    1.6968 C   0  0  0  0  0  0  0  0  0  0  0  0
   -3.4195    0.6339   -2.8648 C   0  0  0  0  0  0  0  0  0  0  0  0
    4.9528   -2.8028    1.1149 C   0  0  0  0  0  0  0  0  0  0  0  0
   -4.9122   -2.3443    2.0009 C   0  0  0  0  0  0  0  0  0  0  0  0
   -3.3516    0.0098   -1.4882 C   0  0  2  0  0  0  0  0  0  0  0  0
   -4.5738    0.4340   -0.6730 C   0  0  0  0  0  0  0  0  0  0  0  0
   -4.6291   -0.2173    0.7113 C   0  0  1  0  0  0  0  0  0  0  0  0
   -5.8418    0.3176    1.4640 C   0  0  0  0  0  0  0  0  0  0  0  0
   -4.5637   -1.7406    0.6518 C   0  0  0  0  0  0  0  0  0  0  0  0
    5.4655    3.8633    0.3590 F   0  0  0  0  0  0  0  0  0  0  0  0
    1.3078   -0.5583   -0.3373 N   0  0  0  0  0  0  0  0  0  0  0  0
    3.4848   -2.2234   -0.4278 N   0  0  0  0  0  0  0  0  0  0  0  0
   -6.5352   -0.5384    2.2291 N   0  0  0  0  0  0  0  0  0  0  0  0
   -2.1251    0.3375   -0.8167 N   0  0  0  0  0  0  0  0  0  0  0  0
    4.5609   -2.9920   -0.1539 O   0  0  0  0  0  0  0  0  0  0  0  0
   -0.8730   -1.2630   -1.8079 O   0  0  0  0  0  0  0  0  0  0  0  0
    1.9521    0.0841    1.7475 O   0  0  0  0  0  0  0  0  0  0  0  0
   -6.1486    1.5035    1.3939 O   0  0  0  0  0  0  0  0  0  0  0  0
    0.0370    0.8690    0.4283 H   0  0  0  0  0  0  0  0  0  0  0  0
    0.8620    1.0797   -2.5073 H   0  0  0  0  0  0  0  0  0  0  0  0
   -0.0775    2.2585   -1.6110 H   0  0  0  0  0  0  0  0  0  0  0  0
    6.0065   -4.6291    1.4377 H   0  0  0  0  0  0  0  0  0  0  0  0
    7.0356   -3.2467    1.0681 H   0  0  0  0  0  0  0  0  0  0  0  0
    6.2750   -3.3777    2.6553 H   0  0  0  0  0  0  0  0  0  0  0  0
    3.2890    0.8529   -2.1393 H   0  0  0  0  0  0  0  0  0  0  0  0
    0.9978    3.6559    0.1412 H   0  0  0  0  0  0  0  0  0  0  0  0
    5.3741    1.8576   -1.2836 H   0  0  0  0  0  0  0  0  0  0  0  0
    3.0836    4.6748    0.9855 H   0  0  0  0  0  0  0  0  0  0  0  0
   -7.0384   -2.5137    1.7471 H   0  0  0  0  0  0  0  0  0  0  0  0
   -6.5423   -2.2372    3.4103 H   0  0  0  0  0  0  0  0  0  0  0  0
    4.1625   -1.5228    2.7049 H   0  0  0  0  0  0  0  0  0  0  0  0
   -4.3490    0.4067   -3.4161 H   0  0  0  0  0  0  0  0  0  0  0  0
   -4.2146   -1.9845    2.7626 H   0  0  0  0  0  0  0  0  0  0  0  0
   -4.8262   -3.4312    1.9747 H   0  0  0  0  0  0  0  0  0  0  0  0
   -3.3953   -1.0719   -1.6525 H   0  0  0  0  0  0  0  0  0  0  0  0
   -4.5840    1.5209   -0.5727 H   0  0  0  0  0  0  0  0  0  0  0  0
   -5.4681    0.1612   -1.2397 H   0  0  0  0  0  0  0  0  0  0  0  0
   -3.7643    0.1326    1.2894 H   0  0  0  0  0  0  0  0  0  0  0  0
   -3.5622   -2.0549    0.3528 H   0  0  0  0  0  0  0  0  0  0  0  0
   -5.2548   -2.1173   -0.1103 H   0  0  0  0  0  0  0  0  0  0  0  0
    1.5162   -1.1797   -1.1061 H   0  0  0  0  0  0  0  0  0  0  0  0
   -7.3393   -0.1455    2.6969 H   0  0  0  0  0  0  0  0  0  0  0  0
   -2.0979    1.2029   -0.2981 H   0  0  0  0  0  0  0  0  0  0  0  0
    2.0963   -0.5958    0.7469 C   0  0  0  0  0  0  0  0  0  0  0  0
   -2.5514    1.3126   -3.3451 O   0  0  0  0  0  0  0  0  0  0  0  0
 22  9  1  0
  9 10  2  0
  9  8  1  0
 10  7  1  0
 27 24  1  0
 27 15  1  0
  8  6  2  0
 24 11  2  0
  4 15  1  0
 15 13  2  0
  7  5  2  0
 11 13  1  0
 11 56  1  0
  6  5  1  0
  5  2  1  0
 56 23  1  0
 56 29  2  0
 23  1  1  0
  2  1  1  0
  1  3  1  0
  3 28  2  0
  3 26  1  0
 16 12  1  0
 16 21  1  0
 26 17  1  0
 12 25  1  0
 21 19  1  0
 19 20  1  0
 19 18  1  0
 25 20  1  0
 17 18  1  0
 17 14  1  0
 30 20  2  0
 14 57  2  0
  1 31  1  1
  2 32  1  0
  2 33  1  0
  4 34  1  0
  4 35  1  0
  4 36  1  0
  6 37  1  0
  7 38  1  0
  8 39  1  0
 10 40  1  0
 12 41  1  0
 12 42  1  0
 13 43  1  0
 14 44  1  0
 16 45  1  0
 16 46  1  0
 17 47  1  6
 18 48  1  0
 18 49  1  0
 19 50  1  1
 21 51  1  0
 21 52  1  0
 23 53  1  0
 25 54  1  0
 26 55  1  0
M  END
