
     RDKit          3D

 18 18  0  0  0  0  0  0  0  0999 V2000
    0.7276   -0.0551   -1.1713 C   0  0  0  0  0  0  0  0  0  0  0  0
    0.4926   -0.0087    0.1919 C   0  0  0  0  0  0  0  0  0  0  0  0
   -0.8198   -0.0727    0.6494 C   0  0  0  0  0  0  0  0  0  0  0  0
   -1.8836   -0.1643   -0.2351 C   0  0  0  0  0  0  0  0  0  0  0  0
   -1.6411   -0.2051   -1.5928 C   0  0  0  0  0  0  0  0  0  0  0  0
   -0.3328   -0.1544   -2.0725 C   0  0  0  0  0  0  0  0  0  0  0  0
   -0.0944   -0.2196   -3.8046 S   0  0  0  0  0  0  0  0  0  0  0  0
    1.6676    0.2449    1.0878 C   0  0  0  0  0  0  0  0  0  0  0  0
    2.4942   -0.7814    1.1041 O   0  0  0  0  0  0  0  0  0  0  0  0
    1.8481    1.2960    1.6409 O   0  0  0  0  0  0  0  0  0  0  0  0
   -1.0896   -0.1105    2.0697 N   0  0  0  0  0  0  0  0  0  0  0  0
   -2.1999    0.1745    2.4486 O   0  0  0  0  0  0  0  0  0  0  0  0
   -0.1850   -0.4437    2.8022 O   0  0  0  0  0  0  0  0  0  0  0  0
    1.7440    0.0039   -1.5376 H   0  0  0  0  0  0  0  0  0  0  0  0
   -2.9000   -0.2264    0.1266 H   0  0  0  0  0  0  0  0  0  0  0  0
   -2.4752   -0.2867   -2.2766 H   0  0  0  0  0  0  0  0  0  0  0  0
    1.2414   -0.1617   -3.8058 H   0  0  0  0  0  0  0  0  0  0  0  0
    3.2786   -0.5762    1.6377 H   0  0  0  0  0  0  0  0  0  0  0  0
  1  2  2  0
  1  6  1  0
  1 14  1  0
  2  3  1  0
  2  8  1  0
  3  4  2  0
  3 11  1  0
  4  5  1  0
  4 15  1  0
  5  6  2  0
  5 16  1  0
  6  7  1  0
  7 17  1  0
  8  9  1  0
  8 10  2  0
  9 18  1  0
 11 12  2  0
 11 13  1  0
M  CHG  2  11   1  13  -1
M  END
