
     RDKit          3D

 63 68  0  0  0  0  0  0  0  0999 V2000
   -2.4762   -0.0375   -5.6055 N   0  0  0  0  0  0  0  0  0  0  0  0
   -3.0149   -0.8190   -4.7487 C   0  0  0  0  0  0  0  0  0  0  0  0
   -3.8068   -1.8950   -5.0373 N   0  0  0  0  0  0  0  0  0  0  0  0
   -2.8281   -0.5362   -3.3001 C   0  0  0  0  0  0  0  0  0  0  0  0
   -1.7238    0.2031   -2.8791 C   0  0  0  0  0  0  0  0  0  0  0  0
   -1.5230    0.4771   -1.5380 C   0  0  0  0  0  0  0  0  0  0  0  0
   -2.4215    0.0253   -0.5774 C   0  0  0  0  0  0  0  0  0  0  0  0
   -3.5389   -0.6848   -0.9981 C   0  0  0  0  0  0  0  0  0  0  0  0
   -3.7400   -0.9710   -2.3398 C   0  0  0  0  0  0  0  0  0  0  0  0
   -2.2086    0.2985    0.8925 C   0  0  2  0  0  0  0  0  0  0  0  0
   -1.3656    1.4442    1.1438 N   0  0  0  0  0  0  0  0  0  0  0  0
   -2.0332    2.7121    1.3743 C   0  0  0  0  0  0  0  0  0  0  0  0
   -1.0377    3.4895    2.2242 C   0  0  0  0  0  0  0  0  0  0  0  0
   -0.4648    2.4017    3.1325 C   0  0  0  0  0  0  0  0  0  0  0  0
   -0.4000    1.1793    2.2138 C   0  0  1  0  0  0  0  0  0  0  0  0
   -0.7998   -0.1678    2.8254 C   0  0  2  0  0  0  0  0  0  0  0  0
    0.3962   -1.0823    3.0910 C   0  0  2  0  0  0  0  0  0  0  0  0
    0.6034   -1.6951    1.7865 N   0  0  0  0  0  0  0  0  0  0  0  0
   -0.4813   -1.6471    0.9801 C   0  0  0  0  0  0  0  0  0  0  0  0
   -0.5656   -2.1638   -0.1198 O   0  0  0  0  0  0  0  0  0  0  0  0
   -1.5640   -0.8556    1.6921 C   0  0  2  0  0  0  0  0  0  0  0  0
    1.9180   -2.0676    1.2992 C   0  0  0  0  0  0  0  0  0  0  0  0
    2.6608   -0.8541    0.7990 C   0  0  0  0  0  0  0  0  0  0  0  0
    3.6575   -0.2704    1.5663 C   0  0  0  0  0  0  0  0  0  0  0  0
    4.3048    0.9091    1.1710 C   0  0  0  0  0  0  0  0  0  0  0  0
    3.9022    1.4649   -0.0155 C   0  0  0  0  0  0  0  0  0  0  0  0
    4.3669    2.5766   -0.6374 O   0  0  0  0  0  0  0  0  0  0  0  0
    3.4995    2.8047   -1.7398 C   0  0  0  0  0  0  0  0  0  0  0  0
    2.7338    1.6206   -1.9175 O   0  0  0  0  0  0  0  0  0  0  0  0
    2.9098    0.8848   -0.7928 C   0  0  0  0  0  0  0  0  0  0  0  0
    2.2743   -0.2696   -0.4207 C   0  0  0  0  0  0  0  0  0  0  0  0
    0.1070   -2.0996    4.1937 C   0  0  0  0  0  0  0  0  0  0  0  0
    1.1665   -3.1771    4.3726 C   0  0  0  0  0  0  0  0  0  0  0  0
   -2.6497   -0.3594   -6.5541 H   0  0  0  0  0  0  0  0  0  0  0  0
   -3.8258   -2.2081   -5.9948 H   0  0  0  0  0  0  0  0  0  0  0  0
   -3.8533   -2.6475   -4.3702 H   0  0  0  0  0  0  0  0  0  0  0  0
   -1.0145    0.5567   -3.6158 H   0  0  0  0  0  0  0  0  0  0  0  0
   -0.6563    1.0442   -1.2228 H   0  0  0  0  0  0  0  0  0  0  0  0
   -4.2705   -1.0184   -0.2704 H   0  0  0  0  0  0  0  0  0  0  0  0
   -4.6312   -1.5132   -2.6304 H   0  0  0  0  0  0  0  0  0  0  0  0
   -3.2050    0.4571    1.3360 H   0  0  0  0  0  0  0  0  0  0  0  0
   -2.9783    2.5795    1.9260 H   0  0  0  0  0  0  0  0  0  0  0  0
   -2.2791    3.2175    0.4366 H   0  0  0  0  0  0  0  0  0  0  0  0
   -1.5066    4.3070    2.7718 H   0  0  0  0  0  0  0  0  0  0  0  0
   -0.2530    3.9169    1.5955 H   0  0  0  0  0  0  0  0  0  0  0  0
   -1.1463    2.2143    3.9667 H   0  0  0  0  0  0  0  0  0  0  0  0
    0.5065    2.6633    3.5525 H   0  0  0  0  0  0  0  0  0  0  0  0
    0.6088    1.0910    1.7869 H   0  0  0  0  0  0  0  0  0  0  0  0
   -1.4168   -0.0282    3.7157 H   0  0  0  0  0  0  0  0  0  0  0  0
    1.2827   -0.4987    3.3630 H   0  0  0  0  0  0  0  0  0  0  0  0
   -2.3393   -1.5434    2.0386 H   0  0  0  0  0  0  0  0  0  0  0  0
    1.7944   -2.8063    0.5071 H   0  0  0  0  0  0  0  0  0  0  0  0
    2.4786   -2.5493    2.0985 H   0  0  0  0  0  0  0  0  0  0  0  0
    3.9438   -0.7309    2.5040 H   0  0  0  0  0  0  0  0  0  0  0  0
    5.0827    1.3542    1.7765 H   0  0  0  0  0  0  0  0  0  0  0  0
    4.0865    3.0029   -2.6365 H   0  0  0  0  0  0  0  0  0  0  0  0
    2.8351    3.6483   -1.5222 H   0  0  0  0  0  0  0  0  0  0  0  0
    1.5022   -0.7132   -1.0355 H   0  0  0  0  0  0  0  0  0  0  0  0
   -0.8620   -2.5705    4.0009 H   0  0  0  0  0  0  0  0  0  0  0  0
   -0.0056   -1.5406    5.1267 H   0  0  0  0  0  0  0  0  0  0  0  0
    0.9352   -3.8030    5.2346 H   0  0  0  0  0  0  0  0  0  0  0  0
    1.2251   -3.8325    3.5032 H   0  0  0  0  0  0  0  0  0  0  0  0
    2.1567   -2.7477    4.5377 H   0  0  0  0  0  0  0  0  0  0  0  0
  1  2  2  0
  1 34  1  0
  2  3  1  0
  2  4  1  0
  3 35  1  0
  3 36  1  0
  4  5  2  0
  4  9  1  0
  5  6  1  0
  5 37  1  0
  6  7  2  0
  6 38  1  0
  7  8  1  0
  7 10  1  0
  8  9  2  0
  8 39  1  0
  9 40  1  0
 10 11  1  0
 10 21  1  0
 10 41  1  1
 11 12  1  0
 11 15  1  0
 12 13  1  0
 12 42  1  0
 12 43  1  0
 13 14  1  0
 13 44  1  0
 13 45  1  0
 14 15  1  0
 14 46  1  0
 14 47  1  0
 15 16  1  0
 15 48  1  6
 16 17  1  0
 16 21  1  0
 16 49  1  1
 17 18  1  0
 17 32  1  0
 17 50  1  1
 18 19  1  0
 18 22  1  0
 19 20  2  0
 19 21  1  0
 21 51  1  1
 22 23  1  0
 22 52  1  0
 22 53  1  0
 23 24  2  0
 23 31  1  0
 24 25  1  0
 24 54  1  0
 25 26  2  0
 25 55  1  0
 26 27  1  0
 26 30  1  0
 27 28  1  0
 28 29  1  0
 28 56  1  0
 28 57  1  0
 29 30  1  0
 30 31  2  0
 31 58  1  0
 32 33  1  0
 32 59  1  0
 32 60  1  0
 33 61  1  0
 33 62  1  0
 33 63  1  0
M  END
