
     RDKit          3D

 27 29  0  0  0  0  0  0  0  0999 V2000
   -2.5492   -0.5083   -1.1202 C   0  0  0  0  0  0  0  0  0  0  0  0
   -3.9277   -0.6548   -1.0772 C   0  0  0  0  0  0  0  0  0  0  0  0
   -4.6472   -0.1838    0.0144 C   0  0  0  0  0  0  0  0  0  0  0  0
   -3.9869    0.4347    1.0670 C   0  0  0  0  0  0  0  0  0  0  0  0
   -2.6062    0.5785    1.0340 C   0  0  0  0  0  0  0  0  0  0  0  0
   -1.8991    0.1087   -0.0617 C   0  0  0  0  0  0  0  0  0  0  0  0
   -0.4815    0.2861   -0.1051 N   0  0  0  0  0  0  0  0  0  0  0  0
    0.0189    1.5346   -0.3546 C   0  0  0  0  0  0  0  0  0  0  0  0
    1.2584    1.8419   -0.3981 N   0  0  0  0  0  0  0  0  0  0  0  0
    2.1678    0.8320   -0.1754 C   0  0  0  0  0  0  0  0  0  0  0  0
    3.5352    1.1323   -0.2131 C   0  0  0  0  0  0  0  0  0  0  0  0
    4.4660    0.1405    0.0073 C   0  0  0  0  0  0  0  0  0  0  0  0
    4.0609   -1.1730    0.2696 C   0  0  0  0  0  0  0  0  0  0  0  0
    2.7193   -1.4833    0.3093 C   0  0  0  0  0  0  0  0  0  0  0  0
    1.7651   -0.4857    0.0872 C   0  0  0  0  0  0  0  0  0  0  0  0
    0.3438   -0.8066    0.1352 C   0  0  0  0  0  0  0  0  0  0  0  0
   -0.1199   -1.9057    0.3641 O   0  0  0  0  0  0  0  0  0  0  0  0
   -1.9859   -0.8641   -1.9729 H   0  0  0  0  0  0  0  0  0  0  0  0
   -4.4401   -1.1329   -1.9011 H   0  0  0  0  0  0  0  0  0  0  0  0
   -5.7228   -0.2973    0.0425 H   0  0  0  0  0  0  0  0  0  0  0  0
   -4.5428    0.8045    1.9180 H   0  0  0  0  0  0  0  0  0  0  0  0
   -2.0831    1.0518    1.8550 H   0  0  0  0  0  0  0  0  0  0  0  0
   -0.7309    2.2977   -0.5279 H   0  0  0  0  0  0  0  0  0  0  0  0
    3.8409    2.1500   -0.4182 H   0  0  0  0  0  0  0  0  0  0  0  0
    5.5210    0.3793   -0.0235 H   0  0  0  0  0  0  0  0  0  0  0  0
    4.8014   -1.9424    0.4408 H   0  0  0  0  0  0  0  0  0  0  0  0
    2.3971   -2.4956    0.5126 H   0  0  0  0  0  0  0  0  0  0  0  0
  3  2  1  0
  3  4  2  0
  2  1  2  0
  4  5  1  0
  1  6  1  0
  5  6  2  0
  6  7  1  0
  7  8  1  0
  7 16  1  0
  8  9  2  0
 17 16  2  0
 16 15  1  0
  9 10  1  0
 15 10  2  0
 15 14  1  0
 10 11  1  0
 14 13  2  0
 11 12  2  0
 13 12  1  0
  1 18  1  0
  2 19  1  0
  3 20  1  0
  4 21  1  0
  5 22  1  0
  8 23  1  0
 11 24  1  0
 12 25  1  0
 13 26  1  0
 14 27  1  0
M  END
