
     RDKit          3D

 47 49  0  0  0  0  0  0  0  0999 V2000
    5.2465   -0.0447   -1.1518 C   0  0  0  0  0  0  0  0  0  0  0  0
    5.8298   -0.3319    0.0729 C   0  0  0  0  0  0  0  0  0  0  0  0
    5.0841   -0.3440    1.2419 C   0  0  0  0  0  0  0  0  0  0  0  0
    3.7287   -0.0605    1.1799 C   0  0  0  0  0  0  0  0  0  0  0  0
    3.1346    0.2276   -0.0404 C   0  0  0  0  0  0  0  0  0  0  0  0
    3.8900    0.2365   -1.2039 C   0  0  0  0  0  0  0  0  0  0  0  0
   -5.2589    1.0161   -0.7167 C   0  0  0  0  0  0  0  0  0  0  0  0
   -5.8967   -1.1851    1.0204 C   0  0  0  0  0  0  0  0  0  0  0  0
   -7.0067   -0.2718    0.5318 C   0  0  1  0  0  0  0  0  0  0  0  0
   -6.6101    0.3243   -0.8125 C   0  0  0  0  0  0  0  0  0  0  0  0
   -4.5714   -0.4390    1.0540 C   0  0  0  0  0  0  0  0  0  0  0  0
    1.2378    1.8113   -0.0097 C   0  0  0  0  0  0  0  0  0  0  0  0
   -0.1180    1.7052   -0.0617 C   0  0  0  0  0  0  0  0  0  0  0  0
    0.7466   -0.3864   -0.2007 C   0  0  0  0  0  0  0  0  0  0  0  0
   -0.4481    0.3190   -0.1804 C   0  0  0  0  0  0  0  0  0  0  0  0
   -2.9345    0.7139   -0.2675 C   0  0  0  0  0  0  0  0  0  0  0  0
   -1.9567   -1.4688   -0.3913 O   0  0  0  0  0  0  0  0  0  0  0  0
   -4.2329    0.0947   -0.2553 N   0  0  0  0  0  0  0  0  0  0  0  0
    1.7485    0.5284   -0.0936 N   0  0  0  0  0  0  0  0  0  0  0  0
    7.5230   -0.6818    0.1444 Cl  0  0  0  0  0  0  0  0  0  0  0  0
    5.8381   -0.0410   -2.0567 H   0  0  0  0  0  0  0  0  0  0  0  0
    5.5493   -0.5705    2.1911 H   0  0  0  0  0  0  0  0  0  0  0  0
    3.1341   -0.0623    2.0841 H   0  0  0  0  0  0  0  0  0  0  0  0
    3.4222    0.4617   -2.1532 H   0  0  0  0  0  0  0  0  0  0  0  0
   -4.9722    1.3964   -1.6999 H   0  0  0  0  0  0  0  0  0  0  0  0
   -5.3415    1.8947   -0.0517 H   0  0  0  0  0  0  0  0  0  0  0  0
   -6.1236   -1.5620    2.0208 H   0  0  0  0  0  0  0  0  0  0  0  0
   -5.8136   -2.0487    0.3530 H   0  0  0  0  0  0  0  0  0  0  0  0
   -7.1119    0.5521    1.2559 H   0  0  0  0  0  0  0  0  0  0  0  0
   -7.3589    1.0454   -1.1530 H   0  0  0  0  0  0  0  0  0  0  0  0
   -6.5565   -0.4744   -1.5588 H   0  0  0  0  0  0  0  0  0  0  0  0
   -4.6300    0.3698    1.8047 H   0  0  0  0  0  0  0  0  0  0  0  0
   -3.7855   -1.1173    1.3843 H   0  0  0  0  0  0  0  0  0  0  0  0
   -0.8034    2.5373   -0.0221 H   0  0  0  0  0  0  0  0  0  0  0  0
   -2.7925    1.4221    0.5674 H   0  0  0  0  0  0  0  0  0  0  0  0
   -2.8364    1.3205   -1.1751 H   0  0  0  0  0  0  0  0  0  0  0  0
    1.0120   -1.8456   -0.3102 C   0  0  0  0  0  0  0  0  0  0  0  0
    2.1142    3.0040    0.1206 C   0  0  0  0  0  0  0  0  0  0  0  0
   -1.7753   -0.2689   -0.2822 C   0  0  0  0  0  0  0  0  0  0  0  0
   -8.2043   -1.0182    0.4626 O   0  0  0  0  0  0  0  0  0  0  0  0
    0.7232   -2.3699    0.6021 H   0  0  0  0  0  0  0  0  0  0  0  0
    0.4394   -2.2831   -1.1250 H   0  0  0  0  0  0  0  0  0  0  0  0
    2.0661   -2.0476   -0.4902 H   0  0  0  0  0  0  0  0  0  0  0  0
    2.8051    3.1043   -0.7188 H   0  0  0  0  0  0  0  0  0  0  0  0
    1.5022    3.9033    0.1526 H   0  0  0  0  0  0  0  0  0  0  0  0
    2.7138    2.9781    1.0327 H   0  0  0  0  0  0  0  0  0  0  0  0
   -8.9148   -0.4207    0.2096 H   0  0  0  0  0  0  0  0  0  0  0  0
 10  7  1  0
 10  9  1  0
  7 18  1  0
  9 40  1  0
  9  8  1  0
 16 18  1  0
 16 39  1  0
 18 11  1  0
 11  8  1  0
 39 17  2  0
 39 15  1  0
 13 15  1  0
 13 12  2  0
 15 14  2  0
 12 38  1  0
 12 19  1  0
 14 19  1  0
 14 37  1  0
 19  5  1  0
  6  5  1  0
  6  1  2  0
  5  4  2  0
  1  2  1  0
  4  3  1  0
  2  3  2  0
  2 20  1  0
  1 21  1  0
  3 22  1  0
  4 23  1  0
  6 24  1  0
 37 41  1  0
 37 42  1  0
 37 43  1  0
 38 44  1  0
 38 45  1  0
 38 46  1  0
  7 25  1  0
  7 26  1  0
  8 27  1  0
  8 28  1  0
  9 29  1  1
 10 30  1  0
 10 31  1  0
 11 32  1  0
 11 33  1  0
 13 34  1  0
 16 35  1  0
 16 36  1  0
 40 47  1  0
M  END
