
     RDKit          3D

 33 33  0  0  0  0  0  0  0  0999 V2000
   -1.7709   -3.0753    0.5392 O   0  0  0  0  0  0  0  0  0  0  0  0
   -0.7912   -2.2437    0.2294 C   0  0  0  0  0  0  0  0  0  0  0  0
    0.3500   -2.5681    0.0480 O   0  0  0  0  0  0  0  0  0  0  0  0
   -1.2929   -0.8365    0.1164 C   0  0  0  0  0  0  0  0  0  0  0  0
   -2.6197   -0.7226   -0.2220 N   0  0  0  0  0  0  0  0  0  0  0  0
   -3.2630    0.4640   -0.4102 C   0  0  0  0  0  0  0  0  0  0  0  0
   -4.4305    0.5472   -0.7295 O   0  0  0  0  0  0  0  0  0  0  0  0
   -2.4625    1.5571   -0.2049 N   0  0  0  0  0  0  0  0  0  0  0  0
   -1.1321    1.5627    0.1578 C   0  0  0  0  0  0  0  0  0  0  0  0
   -0.5454    2.6152    0.3154 O   0  0  0  0  0  0  0  0  0  0  0  0
   -0.5109    0.2445    0.3268 C   0  0  0  0  0  0  0  0  0  0  0  0
    0.9373    0.2370    0.7119 C   0  0  0  0  0  0  0  0  0  0  0  0
    1.8479    0.4099   -0.5080 C   0  0  0  0  0  0  0  0  0  0  0  0
    3.3566    0.3921   -0.2137 C   0  0  1  0  0  0  0  0  0  0  0  0
    3.7261    1.4764    0.7999 C   0  0  0  0  0  0  0  0  0  0  0  0
    3.7925   -0.9768    0.3114 C   0  0  0  0  0  0  0  0  0  0  0  0
    4.0899    0.6693   -1.5282 C   0  0  0  0  0  0  0  0  0  0  0  0
   -1.4479   -3.9896    0.5686 H   0  0  0  0  0  0  0  0  0  0  0  0
   -2.9007    2.4600   -0.3404 H   0  0  0  0  0  0  0  0  0  0  0  0
    1.0989    1.0605    1.4090 H   0  0  0  0  0  0  0  0  0  0  0  0
    1.1855   -0.6770    1.2447 H   0  0  0  0  0  0  0  0  0  0  0  0
    1.6246   -0.3793   -1.2318 H   0  0  0  0  0  0  0  0  0  0  0  0
    1.6016    1.3597   -0.9920 H   0  0  0  0  0  0  0  0  0  0  0  0
    3.3105    1.2726    1.7886 H   0  0  0  0  0  0  0  0  0  0  0  0
    4.8102    1.5441    0.9139 H   0  0  0  0  0  0  0  0  0  0  0  0
    3.3639    2.4566    0.4810 H   0  0  0  0  0  0  0  0  0  0  0  0
    3.5610   -1.7646   -0.4086 H   0  0  0  0  0  0  0  0  0  0  0  0
    4.8697   -0.9968    0.4912 H   0  0  0  0  0  0  0  0  0  0  0  0
    3.3023   -1.2348    1.2511 H   0  0  0  0  0  0  0  0  0  0  0  0
    3.8227    1.6473   -1.9353 H   0  0  0  0  0  0  0  0  0  0  0  0
    5.1726    0.6540   -1.3842 H   0  0  0  0  0  0  0  0  0  0  0  0
    3.8467   -0.0824   -2.2830 H   0  0  0  0  0  0  0  0  0  0  0  0
   -3.1704   -1.5560   -0.3724 H   0  0  0  0  0  0  0  0  0  0  0  0
  7  6  2  0
  6  5  1  0
  6  8  1  0
  5  4  1  0
  8  9  1  0
  2  3  2  0
  2  4  1  0
  2  1  1  0
  4 11  2  0
  9 11  1  0
  9 10  2  0
 11 12  1  0
 12 13  1  0
 14 17  1  6
 13 14  1  0
 15 14  1  0
 14 16  1  0
  1 18  1  0
  8 19  1  0
 12 20  1  0
 12 21  1  0
 13 22  1  0
 13 23  1  0
 15 24  1  0
 15 25  1  0
 15 26  1  0
 16 27  1  0
 16 28  1  0
 16 29  1  0
 17 30  1  0
 17 31  1  0
 17 32  1  0
  5 33  1  0
M  END
