
     RDKit          3D

 10  9  0  0  0  0  0  0  0  0999 V2000
    0.8624   -0.0931    1.0279 C   0  0  0  0  0  0  0  0  0  0  0  0
    0.5414    0.1321    2.4069 N   0  0  0  0  0  0  0  0  0  0  0  0
   -0.2584    0.1242    0.0231 C   0  0  0  0  0  0  0  0  0  0  0  0
   -1.4286    0.3348    0.3515 O   0  0  0  0  0  0  0  0  0  0  0  0
    0.3436    0.0280   -1.5877 S   0  0  0  0  0  0  0  0  0  0  0  0
    1.7202    0.5832    0.7445 H   0  0  0  0  0  0  0  0  0  0  0  0
    1.2097   -1.1617    0.9147 H   0  0  0  0  0  0  0  0  0  0  0  0
    0.2771    1.0849    2.5666 H   0  0  0  0  0  0  0  0  0  0  0  0
   -0.2064   -0.4639    2.7056 H   0  0  0  0  0  0  0  0  0  0  0  0
   -0.7680    0.2165   -2.2868 H   0  0  0  0  0  0  0  0  0  0  0  0
  1  2  1  0
  1  3  1  0
  1  6  1  0
  1  7  1  0
  2  8  1  0
  2  9  1  0
  3  4  2  0
  3  5  1  0
  5 10  1  0
M  END
