
     RDKit          3D

 42 46  0  0  0  0  0  0  0  0999 V2000
   -3.2419    0.6083    0.8522 C   0  0  0  0  0  0  0  0  0  0  0  0
   -4.1998   -0.3623    0.7146 C   0  0  0  0  0  0  0  0  0  0  0  0
   -4.7787   -1.1212    1.6774 O   0  0  0  0  0  0  0  0  0  0  0  0
   -5.5669   -2.0888    0.9969 C   0  0  0  0  0  0  0  0  0  0  0  0
   -5.6850   -1.6537   -0.3509 O   0  0  0  0  0  0  0  0  0  0  0  0
   -4.7501   -0.6858   -0.5167 C   0  0  0  0  0  0  0  0  0  0  0  0
   -4.3643   -0.0474   -1.6672 C   0  0  0  0  0  0  0  0  0  0  0  0
   -3.3836    0.9453   -1.5391 C   0  0  0  0  0  0  0  0  0  0  0  0
   -2.8274    1.2734   -0.3126 C   0  0  0  0  0  0  0  0  0  0  0  0
   -1.7739    2.3375   -0.2216 C   0  0  0  0  0  0  0  0  0  0  0  0
   -0.3869    1.7854   -0.1214 C   0  0  0  0  0  0  0  0  0  0  0  0
   -0.1286    0.5263   -0.1584 N   0  0  0  0  0  0  0  0  0  0  0  0
    1.1647    0.0927   -0.0524 C   0  0  0  0  0  0  0  0  0  0  0  0
    1.4064   -1.2909   -0.0851 C   0  0  0  0  0  0  0  0  0  0  0  0
    2.6948   -1.7487    0.0260 C   0  0  0  0  0  0  0  0  0  0  0  0
    2.9956   -3.4976    0.0315 S   0  0  1  0  0  0  0  0  0  0  0  0
    3.9527   -3.8114    1.0813 O   0  0  0  0  0  0  0  0  0  0  0  0
    1.7040   -4.1687    0.0459 O   0  0  0  0  0  0  0  0  0  0  0  0
    3.8062   -3.6802   -1.3913 N   0  0  0  0  0  0  0  0  0  0  0  0
    3.7887   -0.8816    0.1730 C   0  0  0  0  0  0  0  0  0  0  0  0
    3.5658    0.4709    0.2047 C   0  0  0  0  0  0  0  0  0  0  0  0
    2.2587    0.9644    0.0946 C   0  0  0  0  0  0  0  0  0  0  0  0
    1.9384    2.3498    0.1270 C   0  0  0  0  0  0  0  0  0  0  0  0
    2.6706    3.4289    0.2494 N   0  0  0  0  0  0  0  0  0  0  0  0
    0.6275    2.6927    0.0171 N   0  0  0  0  0  0  0  0  0  0  0  0
    0.4973    4.0323    0.0635 N   0  0  0  0  0  0  0  0  0  0  0  0
    1.7515    4.4281    0.2063 C   0  0  0  0  0  0  0  0  0  0  0  0
    2.1023    5.7251    0.3522 N   0  0  0  0  0  0  0  0  0  0  0  0
   -2.8232    0.8552    1.8195 H   0  0  0  0  0  0  0  0  0  0  0  0
   -5.0689   -3.0639    1.0300 H   0  0  0  0  0  0  0  0  0  0  0  0
   -6.5545   -2.1483    1.4541 H   0  0  0  0  0  0  0  0  0  0  0  0
   -4.7965   -0.2892   -2.6286 H   0  0  0  0  0  0  0  0  0  0  0  0
   -3.0546    1.4688   -2.4280 H   0  0  0  0  0  0  0  0  0  0  0  0
   -1.8174    2.9970   -1.0929 H   0  0  0  0  0  0  0  0  0  0  0  0
   -1.9436    2.9882    0.6414 H   0  0  0  0  0  0  0  0  0  0  0  0
    0.5662   -1.9632   -0.1930 H   0  0  0  0  0  0  0  0  0  0  0  0
    4.7951   -1.2680    0.2589 H   0  0  0  0  0  0  0  0  0  0  0  0
    3.1990   -3.6444   -2.2037 H   0  0  0  0  0  0  0  0  0  0  0  0
    4.3618   -4.5307   -1.3984 H   0  0  0  0  0  0  0  0  0  0  0  0
    4.3923    1.1591    0.3180 H   0  0  0  0  0  0  0  0  0  0  0  0
    3.0592    5.9518    0.1384 H   0  0  0  0  0  0  0  0  0  0  0  0
    1.4363    6.4128    0.0407 H   0  0  0  0  0  0  0  0  0  0  0  0
  1  2  2  0
  1  9  1  0
  2  3  1  0
  2  6  1  0
  3  4  1  0
  4  5  1  0
  5  6  1  0
  6  7  2  0
  7  8  1  0
  8  9  2  0
  9 10  1  0
 10 11  1  0
 11 12  2  0
 11 25  1  0
 12 13  1  0
 13 14  2  0
 13 22  1  0
 14 15  1  0
 15 16  1  0
 15 20  2  0
 16 17  2  0
 16 18  2  0
 16 19  1  6
 20 21  1  0
 21 22  2  0
 22 23  1  0
 23 24  2  0
 23 25  1  0
 24 27  1  0
 25 26  1  0
 26 27  2  0
 27 28  1  0
  1 29  1  0
  4 30  1  0
  4 31  1  0
  7 32  1  0
  8 33  1  0
 10 34  1  0
 10 35  1  0
 14 36  1  0
 20 37  1  0
 19 38  1  0
 19 39  1  0
 21 40  1  0
 28 41  1  0
 28 42  1  0
M  END
