
     RDKit          3D

 37 40  0  0  0  0  0  0  0  0999 V2000
    3.4435   -0.6527   -0.4580 C   0  0  0  0  0  0  0  0  0  0  0  0
    2.5089    0.2254    0.0647 C   0  0  0  0  0  0  0  0  0  0  0  0
    1.6691   -0.1067    1.1047 C   0  0  0  0  0  0  0  0  0  0  0  0
   -0.5814    1.0008    0.7195 C   0  0  2  0  0  0  0  0  0  0  0  0
   -1.5981    1.9691    1.3185 C   0  0  0  0  0  0  0  0  0  0  0  0
   -2.7251    2.2435    0.3263 C   0  0  0  0  0  0  0  0  0  0  0  0
   -3.2710    0.9675   -0.2169 C   0  0  0  0  0  0  0  0  0  0  0  0
   -1.2345   -0.3549    0.4663 C   0  0  0  0  0  0  0  0  0  0  0  0
   -4.4247    0.6169   -0.8457 C   0  0  0  0  0  0  0  0  0  0  0  0
   -3.2697   -1.1715   -0.7411 C   0  0  0  0  0  0  0  0  0  0  0  0
    1.8246   -1.4091    1.6058 C   0  0  0  0  0  0  0  0  0  0  0  0
    2.7550   -2.2939    1.0844 C   0  0  0  0  0  0  0  0  0  0  0  0
    3.5952   -1.9293    0.0263 C   0  0  0  0  0  0  0  0  0  0  0  0
    4.1037   -0.0498   -1.4792 O   0  0  0  0  0  0  0  0  0  0  0  0
    3.7266    1.3190   -1.4323 C   0  0  0  0  0  0  0  0  0  0  0  0
    2.5640    1.3981   -0.6208 O   0  0  0  0  0  0  0  0  0  0  0  0
    0.6375    0.8443    1.6351 C   0  0  0  0  0  0  0  0  0  0  0  0
   -2.5245   -0.1949   -0.1715 N   0  0  0  0  0  0  0  0  0  0  0  0
   -4.4208   -0.7214   -1.1675 N   0  0  0  0  0  0  0  0  0  0  0  0
   -2.7860   -2.4558   -0.8925 N   0  0  0  0  0  0  0  0  0  0  0  0
   -0.2492    1.4104   -0.2418 H   0  0  0  0  0  0  0  0  0  0  0  0
   -1.9981    1.5507    2.2487 H   0  0  0  0  0  0  0  0  0  0  0  0
   -1.1065    2.9080    1.5813 H   0  0  0  0  0  0  0  0  0  0  0  0
   -3.5216    2.8251    0.7930 H   0  0  0  0  0  0  0  0  0  0  0  0
   -2.3287    2.8577   -0.4884 H   0  0  0  0  0  0  0  0  0  0  0  0
   -0.6010   -0.9779   -0.1683 H   0  0  0  0  0  0  0  0  0  0  0  0
   -1.3603   -0.8821    1.4193 H   0  0  0  0  0  0  0  0  0  0  0  0
   -5.2626    1.2544   -1.0866 H   0  0  0  0  0  0  0  0  0  0  0  0
    1.1984   -1.7243    2.4319 H   0  0  0  0  0  0  0  0  0  0  0  0
    2.8404   -3.2866    1.5054 H   0  0  0  0  0  0  0  0  0  0  0  0
    4.3220   -2.6158   -0.3861 H   0  0  0  0  0  0  0  0  0  0  0  0
    4.5334    1.9118   -0.9858 H   0  0  0  0  0  0  0  0  0  0  0  0
    0.3034    0.5001    2.6179 H   0  0  0  0  0  0  0  0  0  0  0  0
    1.0805    1.8320    1.7882 H   0  0  0  0  0  0  0  0  0  0  0  0
   -2.3859   -2.8532   -0.0538 H   0  0  0  0  0  0  0  0  0  0  0  0
   -3.4988   -3.0752   -1.2485 H   0  0  0  0  0  0  0  0  0  0  0  0
    3.5018    1.6758   -2.4368 H   0  0  0  0  0  0  0  0  0  0  0  0
 20 10  1  0
 19 10  2  0
 19  9  1  0
 10 18  1  0
  9  7  2  0
 18  7  1  0
 18  8  1  0
  7  6  1  0
  8  4  1  0
  6  5  1  0
  4  5  1  0
  4 17  1  0
 11 12  2  0
 11  3  1  0
 12 13  1  0
  3 17  1  0
  3  2  2  0
 13  1  2  0
  2  1  1  0
  2 16  1  0
  1 14  1  0
 16 15  1  0
 14 15  1  0
  4 21  1  6
  5 22  1  0
  5 23  1  0
  6 24  1  0
  6 25  1  0
  8 26  1  0
  8 27  1  0
  9 28  1  0
 11 29  1  0
 12 30  1  0
 13 31  1  0
 15 32  1  0
 17 33  1  0
 17 34  1  0
 20 35  1  0
 20 36  1  0
 15 37  1  0
M  END
