
     RDKit          3D

 68 71  0  0  0  0  0  0  0  0999 V2000
   -7.3908    2.2097   -2.4362 O   0  0  0  0  0  0  0  0  0  0  0  0
   -7.6658    2.2055   -1.2459 C   0  0  0  0  0  0  0  0  0  0  0  0
   -8.6553    3.1122   -0.5441 C   0  0  0  0  0  0  0  0  0  0  0  0
   -8.3202    2.9458    0.9345 C   0  0  0  0  0  0  0  0  0  0  0  0
   -7.6998    1.5496    1.0056 C   0  0  0  0  0  0  0  0  0  0  0  0
   -7.1588    1.3618   -0.3270 N   0  0  0  0  0  0  0  0  0  0  0  0
   -6.2480    0.2870   -0.6294 C   0  0  0  0  0  0  0  0  0  0  0  0
   -4.8142    0.6131   -0.2277 C   0  0  0  0  0  0  0  0  0  0  0  0
   -3.8906   -0.5687   -0.4742 C   0  0  0  0  0  0  0  0  0  0  0  0
   -2.5473   -0.2488   -0.0396 N   0  0  0  0  0  0  0  0  0  0  0  0
   -1.5088   -1.0815   -0.2406 C   0  0  0  0  0  0  0  0  0  0  0  0
   -1.6634   -2.1571   -0.8249 O   0  0  0  0  0  0  0  0  0  0  0  0
   -0.1973   -0.6418    0.2657 C   0  0  0  0  0  0  0  0  0  0  0  0
    0.8775   -1.5520    0.5180 C   0  0  0  0  0  0  0  0  0  0  0  0
    0.7605   -2.8642    0.2930 N   0  0  0  0  0  0  0  0  0  0  0  0
    1.8212   -3.8176    0.5115 C   0  0  2  0  0  0  0  0  0  0  0  0
    2.9065   -3.8602   -0.5651 C   0  0  0  0  0  0  0  0  0  0  0  0
    3.6350   -5.1651   -0.2533 C   0  0  0  0  0  0  0  0  0  0  0  0
    2.5409   -6.1261    0.2687 C   0  0  0  0  0  0  0  0  0  0  0  0
    1.2994   -5.2544    0.5328 C   0  0  0  0  0  0  0  0  0  0  0  0
    0.1028    0.6881    0.5150 C   0  0  0  0  0  0  0  0  0  0  0  0
    1.2508    1.1347    0.9872 N   0  0  0  0  0  0  0  0  0  0  0  0
    2.1723    0.1927    1.2316 C   0  0  0  0  0  0  0  0  0  0  0  0
    2.0304   -1.1121    1.0115 N   0  0  0  0  0  0  0  0  0  0  0  0
    3.3462    0.5714    1.7670 N   0  0  0  0  0  0  0  0  0  0  0  0
    3.8392    1.9280    1.8295 C   0  0  0  0  0  0  0  0  0  0  0  0
    5.0455    2.1327    0.9493 C   0  0  0  0  0  0  0  0  0  0  0  0
    6.2830    2.4202    1.5035 C   0  0  0  0  0  0  0  0  0  0  0  0
    7.4152    2.5907    0.7126 C   0  0  0  0  0  0  0  0  0  0  0  0
    7.3007    2.4617   -0.6605 C   0  0  0  0  0  0  0  0  0  0  0  0
    6.0722    2.1711   -1.2458 C   0  0  0  0  0  0  0  0  0  0  0  0
    4.9440    2.0105   -0.4465 C   0  0  0  0  0  0  0  0  0  0  0  0
    3.7169    1.7396   -0.9214 O   0  0  0  0  0  0  0  0  0  0  0  0
    3.5468    1.5301   -2.3067 C   0  0  0  0  0  0  0  0  0  0  0  0
   -8.5806    4.1370   -0.9058 H   0  0  0  0  0  0  0  0  0  0  0  0
   -9.6637    2.7569   -0.7764 H   0  0  0  0  0  0  0  0  0  0  0  0
   -7.5831    3.6909    1.2365 H   0  0  0  0  0  0  0  0  0  0  0  0
   -9.1828    3.0448    1.5900 H   0  0  0  0  0  0  0  0  0  0  0  0
   -6.9155    1.4794    1.7610 H   0  0  0  0  0  0  0  0  0  0  0  0
   -8.4447    0.7780    1.2268 H   0  0  0  0  0  0  0  0  0  0  0  0
   -6.5884   -0.6123   -0.1082 H   0  0  0  0  0  0  0  0  0  0  0  0
   -6.3015    0.0761   -1.6981 H   0  0  0  0  0  0  0  0  0  0  0  0
   -4.4670    1.4831   -0.7910 H   0  0  0  0  0  0  0  0  0  0  0  0
   -4.7836    0.8826    0.8325 H   0  0  0  0  0  0  0  0  0  0  0  0
   -4.2669   -1.4504    0.0556 H   0  0  0  0  0  0  0  0  0  0  0  0
   -3.8808   -0.8188   -1.5371 H   0  0  0  0  0  0  0  0  0  0  0  0
   -2.4484    0.5066    0.6183 H   0  0  0  0  0  0  0  0  0  0  0  0
   -0.0726   -3.1601   -0.1965 H   0  0  0  0  0  0  0  0  0  0  0  0
    2.2939   -3.5908    1.4711 H   0  0  0  0  0  0  0  0  0  0  0  0
    2.4316   -3.9030   -1.5504 H   0  0  0  0  0  0  0  0  0  0  0  0
    3.5533   -2.9833   -0.5426 H   0  0  0  0  0  0  0  0  0  0  0  0
    4.1653   -5.5662   -1.1173 H   0  0  0  0  0  0  0  0  0  0  0  0
    4.3834   -4.9916    0.5231 H   0  0  0  0  0  0  0  0  0  0  0  0
    2.3179   -6.9071   -0.4583 H   0  0  0  0  0  0  0  0  0  0  0  0
    2.8700   -6.6316    1.1771 H   0  0  0  0  0  0  0  0  0  0  0  0
    0.7961   -5.5005    1.4683 H   0  0  0  0  0  0  0  0  0  0  0  0
    0.5683   -5.3838   -0.2709 H   0  0  0  0  0  0  0  0  0  0  0  0
   -0.6338    1.4572    0.3013 H   0  0  0  0  0  0  0  0  0  0  0  0
    4.0202   -0.1677    1.8912 H   0  0  0  0  0  0  0  0  0  0  0  0
    3.0238    2.5933    1.5505 H   0  0  0  0  0  0  0  0  0  0  0  0
    4.1116    2.1713    2.8594 H   0  0  0  0  0  0  0  0  0  0  0  0
    6.3627    2.5086    2.5809 H   0  0  0  0  0  0  0  0  0  0  0  0
    8.3700    2.8170    1.1677 H   0  0  0  0  0  0  0  0  0  0  0  0
    8.1683    2.5867   -1.2956 H   0  0  0  0  0  0  0  0  0  0  0  0
    6.0118    2.0799   -2.3220 H   0  0  0  0  0  0  0  0  0  0  0  0
    3.8034    2.4174   -2.8913 H   0  0  0  0  0  0  0  0  0  0  0  0
    4.1422    0.6873   -2.6675 H   0  0  0  0  0  0  0  0  0  0  0  0
    2.4939    1.3039   -2.4555 H   0  0  0  0  0  0  0  0  0  0  0  0
 26 25  1  0
 26 27  1  0
 25 23  1  0
 27 28  2  0
 27 32  1  0
 23 22  1  0
 23 24  2  0
 22 21  2  0
 33 32  1  0
 33 34  1  0
 28 29  1  0
 32 31  2  0
 24 14  1  0
 21 13  1  0
 29 30  2  0
 31 30  1  0
 14 13  2  0
 14 15  1  0
 13 11  1  0
 16 15  1  0
 16 20  1  0
 16 17  1  0
 11 12  2  0
 11 10  1  0
 20 19  1  0
 10  9  1  0
 17 18  1  0
  9  8  1  0
 19 18  1  0
  8  7  1  0
  7  6  1  0
  6  2  1  0
  6  5  1  0
  1  2  2  0
  2  3  1  0
  5  4  1  0
  3  4  1  0
  3 35  1  0
  3 36  1  0
  4 37  1  0
  4 38  1  0
  5 39  1  0
  5 40  1  0
  7 41  1  0
  7 42  1  0
  8 43  1  0
  8 44  1  0
  9 45  1  0
  9 46  1  0
 10 47  1  0
 15 48  1  0
 16 49  1  1
 17 50  1  0
 17 51  1  0
 18 52  1  0
 18 53  1  0
 19 54  1  0
 19 55  1  0
 20 56  1  0
 20 57  1  0
 21 58  1  0
 25 59  1  0
 26 60  1  0
 26 61  1  0
 28 62  1  0
 29 63  1  0
 30 64  1  0
 31 65  1  0
 34 66  1  0
 34 67  1  0
 34 68  1  0
M  END
