
     RDKit          3D

 51 53  0  0  0  0  0  0  0  0999 V2000
    4.9817    4.7159    0.3858 C   0  0  0  0  0  0  0  0  0  0  0  0
   -2.4373   -2.6022    1.8447 C   0  0  0  0  0  0  0  0  0  0  0  0
    2.2257   -3.8857    0.7885 C   0  0  0  0  0  0  0  0  0  0  0  0
    2.6368   -2.5823   -1.1857 C   0  0  0  0  0  0  0  0  0  0  0  0
   -4.0773    1.6860    0.7221 C   0  0  0  0  0  0  0  0  0  0  0  0
   -4.5036    0.4320   -1.2840 C   0  0  0  0  0  0  0  0  0  0  0  0
    1.0883    2.5474   -1.0744 C   0  0  0  0  0  0  0  0  0  0  0  0
    2.1132    1.5268    0.8461 C   0  0  0  0  0  0  0  0  0  0  0  0
    0.9711   -3.3082    0.8955 C   0  0  0  0  0  0  0  0  0  0  0  0
    1.3836   -2.0082   -1.0580 C   0  0  0  0  0  0  0  0  0  0  0  0
   -2.8201    1.1084    0.8054 C   0  0  0  0  0  0  0  0  0  0  0  0
   -3.2465   -0.1411   -1.1804 C   0  0  0  0  0  0  0  0  0  0  0  0
    0.0829    1.6005   -1.0366 C   0  0  0  0  0  0  0  0  0  0  0  0
    1.1002    0.5771    0.8600 C   0  0  0  0  0  0  0  0  0  0  0  0
    4.0981    3.5384    0.7227 C   0  0  0  0  0  0  0  0  0  0  0  0
   -1.9631   -2.6918    0.3944 C   0  0  0  0  0  0  0  0  0  0  0  0
    3.0505    3.4856   -0.2350 O   0  0  0  0  0  0  0  0  0  0  0  0
   -1.0227   -0.4129   -0.0428 C   0  0  0  0  0  0  0  0  0  0  0  0
    3.0726   -3.5218   -0.2546 C   0  0  0  0  0  0  0  0  0  0  0  0
   -4.9297    1.3493   -0.3270 C   0  0  0  0  0  0  0  0  0  0  0  0
    2.1177    2.5200   -0.1308 C   0  0  0  0  0  0  0  0  0  0  0  0
    0.5256   -2.3429   -0.0097 C   0  0  0  0  0  0  0  0  0  0  0  0
   -2.3839    0.1737   -0.1314 C   0  0  0  0  0  0  0  0  0  0  0  0
    0.0744    0.5823   -0.0795 C   0  0  0  0  0  0  0  0  0  0  0  0
    5.7889    4.7829    1.1145 H   0  0  0  0  0  0  0  0  0  0  0  0
    5.4306    4.6094   -0.6018 H   0  0  0  0  0  0  0  0  0  0  0  0
    4.4258    5.6533    0.4154 H   0  0  0  0  0  0  0  0  0  0  0  0
   -3.2494   -3.3066    2.0298 H   0  0  0  0  0  0  0  0  0  0  0  0
   -1.6360   -2.8304    2.5487 H   0  0  0  0  0  0  0  0  0  0  0  0
   -2.8019   -1.6011    2.0752 H   0  0  0  0  0  0  0  0  0  0  0  0
    4.7777   -3.7677   -1.0783 H   0  0  0  0  0  0  0  0  0  0  0  0
   -6.3343    2.5135    0.2411 H   0  0  0  0  0  0  0  0  0  0  0  0
    2.5498   -4.6205    1.5153 H   0  0  0  0  0  0  0  0  0  0  0  0
    3.2739   -2.2999   -2.0166 H   0  0  0  0  0  0  0  0  0  0  0  0
   -4.3915    2.3998    1.4758 H   0  0  0  0  0  0  0  0  0  0  0  0
   -5.1545    0.1737   -2.1102 H   0  0  0  0  0  0  0  0  0  0  0  0
    1.0813    3.3210   -1.8323 H   0  0  0  0  0  0  0  0  0  0  0  0
    2.8789    1.4755    1.6079 H   0  0  0  0  0  0  0  0  0  0  0  0
    0.3396   -3.6174    1.7193 H   0  0  0  0  0  0  0  0  0  0  0  0
    1.0653   -1.2877   -1.8004 H   0  0  0  0  0  0  0  0  0  0  0  0
   -2.1688    1.3918    1.6237 H   0  0  0  0  0  0  0  0  0  0  0  0
   -2.9277   -0.8426   -1.9423 H   0  0  0  0  0  0  0  0  0  0  0  0
   -0.7078    1.6499   -1.7755 H   0  0  0  0  0  0  0  0  0  0  0  0
    1.1138   -0.1807    1.6328 H   0  0  0  0  0  0  0  0  0  0  0  0
    4.6780    2.6093    0.7044 H   0  0  0  0  0  0  0  0  0  0  0  0
    3.6844    3.6487    1.7309 H   0  0  0  0  0  0  0  0  0  0  0  0
   -1.6507   -3.7142    0.1757 H   0  0  0  0  0  0  0  0  0  0  0  0
   -2.8102   -2.4942   -0.2624 H   0  0  0  0  0  0  0  0  0  0  0  0
   -6.1611    1.8812   -0.4650 O   0  0  0  0  0  0  0  0  0  0  0  0
   -0.8222   -1.7396    0.0948 C   0  0  0  0  0  0  0  0  0  0  0  0
    4.2854   -4.1082   -0.3231 O   0  0  0  0  0  0  0  0  0  0  0  0
  1 15  1  0
  2 16  1  0
 51 19  1  0
 49 20  1  0
  3  9  2  0
  3 19  1  0
  4 10  1  0
  4 19  2  0
  5 11  2  0
  5 20  1  0
  6 12  1  0
  6 20  2  0
  7 13  2  0
  7 21  1  0
  8 14  1  0
  8 21  2  0
  9 22  1  0
 10 22  2  0
 11 23  1  0
 12 23  2  0
 13 24  1  0
 14 24  2  0
 15 17  1  0
 16 50  1  0
 17 21  1  0
 50 18  2  0
 50 22  1  0
 18 23  1  0
 18 24  1  0
  1 25  1  0
  1 26  1  0
  1 27  1  0
  2 28  1  0
  2 29  1  0
  2 30  1  0
 51 31  1  0
 49 32  1  0
  3 33  1  0
  4 34  1  0
  5 35  1  0
  6 36  1  0
  7 37  1  0
  8 38  1  0
  9 39  1  0
 10 40  1  0
 11 41  1  0
 12 42  1  0
 13 43  1  0
 14 44  1  0
 15 45  1  0
 15 46  1  0
 16 47  1  0
 16 48  1  0
M  END
