
     RDKit          3D

 38 40  0  0  0  0  0  0  0  0999 V2000
    1.3002   -0.9905    0.6254 C   0  0  0  0  0  0  0  0  0  0  0  0
    1.7792   -2.2759    0.5661 C   0  0  0  0  0  0  0  0  0  0  0  0
    1.3187   -3.2387   -0.1963 N   0  0  0  0  0  0  0  0  0  0  0  0
    0.2881   -2.8843   -0.9786 C   0  0  0  0  0  0  0  0  0  0  0  0
   -0.2774   -1.6821   -1.0242 N   0  0  0  0  0  0  0  0  0  0  0  0
    0.2071   -0.7302   -0.2309 C   0  0  0  0  0  0  0  0  0  0  0  0
    1.7655    3.2607    1.0971 C   0  0  0  0  0  0  0  0  0  0  0  0
    2.8701    3.9948    0.7032 C   0  0  0  0  0  0  0  0  0  0  0  0
    3.3996    3.7665   -0.5596 C   0  0  0  0  0  0  0  0  0  0  0  0
    2.8956    2.8762   -1.4025 N   0  0  0  0  0  0  0  0  0  0  0  0
    1.8345    2.1760   -1.0141 C   0  0  0  0  0  0  0  0  0  0  0  0
    1.2216    2.3244    0.2238 C   0  0  0  0  0  0  0  0  0  0  0  0
    0.0019    1.5354    0.6353 C   0  0  0  0  0  0  0  0  0  0  0  0
   -0.3783    0.4878   -0.2799 N   0  0  0  0  0  0  0  0  0  0  0  0
   -0.2331   -3.8414   -1.7622 N   0  0  0  0  0  0  0  0  0  0  0  0
    3.1250   -2.6967    1.5783 Cl  0  0  0  0  0  0  0  0  0  0  0  0
   -1.4431    0.7917   -1.2236 C   0  0  0  0  0  0  0  0  0  0  0  0
   -2.8100    0.7006   -0.6003 C   0  0  0  0  0  0  0  0  0  0  0  0
   -3.3879   -0.5231   -0.2731 C   0  0  0  0  0  0  0  0  0  0  0  0
   -4.6393   -0.5396    0.3176 C   0  0  0  0  0  0  0  0  0  0  0  0
   -5.2736    0.6708    0.5659 C   0  0  0  0  0  0  0  0  0  0  0  0
   -4.7404    1.8448    0.2560 N   0  0  0  0  0  0  0  0  0  0  0  0
   -3.5401    1.8476   -0.3132 C   0  0  0  0  0  0  0  0  0  0  0  0
    1.7557   -0.2535    1.2657 H   0  0  0  0  0  0  0  0  0  0  0  0
    3.3170    4.7295    1.3585 H   0  0  0  0  0  0  0  0  0  0  0  0
    4.2646    4.3246   -0.9004 H   0  0  0  0  0  0  0  0  0  0  0  0
    1.4535    1.4567   -1.7315 H   0  0  0  0  0  0  0  0  0  0  0  0
    0.1432    1.1307    1.6403 H   0  0  0  0  0  0  0  0  0  0  0  0
   -0.8419    2.2234    0.7298 H   0  0  0  0  0  0  0  0  0  0  0  0
    0.2502   -4.7165   -1.8626 H   0  0  0  0  0  0  0  0  0  0  0  0
   -0.9008   -3.5903   -2.4698 H   0  0  0  0  0  0  0  0  0  0  0  0
   -1.2780    1.8029   -1.6024 H   0  0  0  0  0  0  0  0  0  0  0  0
   -1.3685    0.1152   -2.0716 H   0  0  0  0  0  0  0  0  0  0  0  0
   -2.8657   -1.4469   -0.4871 H   0  0  0  0  0  0  0  0  0  0  0  0
   -5.1212   -1.4714    0.5803 H   0  0  0  0  0  0  0  0  0  0  0  0
   -6.2530    0.6889    1.0313 H   0  0  0  0  0  0  0  0  0  0  0  0
   -3.1305    2.8221   -0.5646 H   0  0  0  0  0  0  0  0  0  0  0  0
    1.3299    3.4130    2.0778 H   0  0  0  0  0  0  0  0  0  0  0  0
 16  2  1  0
  8  7  2  0
  8  9  1  0
  7 12  1  0
  9 10  2  0
  2  1  2  0
  2  3  1  0
  1  6  1  0
  3  4  2  0
 12 13  1  0
 12 11  2  0
 10 11  1  0
 13 14  1  0
  6 14  1  0
  6  5  2  0
  4  5  1  0
  4 15  1  0
 14 17  1  0
 17 18  1  0
 19 18  2  0
 19 20  1  0
 18 23  1  0
 20 21  2  0
 23 22  2  0
 21 22  1  0
  1 24  1  0
  7 38  1  0
  8 25  1  0
  9 26  1  0
 11 27  1  0
 13 28  1  0
 13 29  1  0
 15 30  1  0
 15 31  1  0
 17 32  1  0
 17 33  1  0
 19 34  1  0
 20 35  1  0
 21 36  1  0
 23 37  1  0
M  END
