
     RDKit          3D

 34 35  0  0  0  0  0  0  0  0999 V2000
   -3.0760   -1.3631    0.0021 C   0  0  0  0  0  0  0  0  0  0  0  0
   -4.4425   -1.1804   -0.6354 C   0  0  0  0  0  0  0  0  0  0  0  0
   -0.3948   -1.3594    1.0593 C   0  0  0  0  0  0  0  0  0  0  0  0
    0.7137   -1.8000    0.1279 C   0  0  0  0  0  0  0  0  0  0  0  0
   -2.5577    0.8283   -0.7841 O   0  0  0  0  0  0  0  0  0  0  0  0
   -2.1977   -0.1338   -0.1299 C   0  0  0  0  0  0  0  0  0  0  0  0
   -0.9979   -0.1513    0.5301 N   0  0  0  0  0  0  0  0  0  0  0  0
   -0.0595    0.8964    0.3695 C   0  0  0  0  0  0  0  0  0  0  0  0
   -0.4337    2.2211    0.5489 C   0  0  0  0  0  0  0  0  0  0  0  0
    0.4677    3.2566    0.3559 C   0  0  0  0  0  0  0  0  0  0  0  0
    1.7689    2.9480   -0.0092 C   0  0  0  0  0  0  0  0  0  0  0  0
    2.1710    1.6297   -0.1448 C   0  0  0  0  0  0  0  0  0  0  0  0
    1.2830    0.5618    0.0693 C   0  0  0  0  0  0  0  0  0  0  0  0
    1.7030   -0.7513    0.0180 N   0  0  0  0  0  0  0  0  0  0  0  0
    2.9743   -1.0595   -0.6205 C   0  0  0  0  0  0  0  0  0  0  0  0
    3.4108   -2.5071   -0.4816 C   0  0  0  0  0  0  0  0  0  0  0  0
   -3.1902   -1.6204    1.0582 H   0  0  0  0  0  0  0  0  0  0  0  0
   -2.5684   -2.2170   -0.4570 H   0  0  0  0  0  0  0  0  0  0  0  0
   -5.0248   -2.0941   -0.5194 H   0  0  0  0  0  0  0  0  0  0  0  0
   -5.0012   -0.3703   -0.1679 H   0  0  0  0  0  0  0  0  0  0  0  0
   -4.3684   -0.9672   -1.7005 H   0  0  0  0  0  0  0  0  0  0  0  0
   -1.1236   -2.1554    1.1660 H   0  0  0  0  0  0  0  0  0  0  0  0
    0.0045   -1.1549    2.0552 H   0  0  0  0  0  0  0  0  0  0  0  0
    1.1739   -2.6964    0.5412 H   0  0  0  0  0  0  0  0  0  0  0  0
    0.2837   -2.0749   -0.8456 H   0  0  0  0  0  0  0  0  0  0  0  0
   -1.4499    2.4476    0.8377 H   0  0  0  0  0  0  0  0  0  0  0  0
    0.1536    4.2832    0.4868 H   0  0  0  0  0  0  0  0  0  0  0  0
    2.4901    3.7359   -0.1848 H   0  0  0  0  0  0  0  0  0  0  0  0
    3.1976    1.4397   -0.4197 H   0  0  0  0  0  0  0  0  0  0  0  0
    2.9465   -0.7902   -1.6846 H   0  0  0  0  0  0  0  0  0  0  0  0
    3.7533   -0.4449   -0.1661 H   0  0  0  0  0  0  0  0  0  0  0  0
    4.4029   -2.6092   -0.9204 H   0  0  0  0  0  0  0  0  0  0  0  0
    3.4803   -2.8099    0.5637 H   0  0  0  0  0  0  0  0  0  0  0  0
    2.7533   -3.2036   -1.0006 H   0  0  0  0  0  0  0  0  0  0  0  0
 11 10  2  0
 11 12  1  0
 10  9  1  0
  2  1  1  0
  1  6  1  0
 12 13  2  0
  9  8  2  0
 13  8  1  0
 13 14  1  0
  8  7  1  0
 15 14  1  0
 15 16  1  0
  6  7  1  0
  6  5  2  0
 14  4  1  0
  7  3  1  0
  4  3  1  0
  1 17  1  0
  1 18  1  0
  2 19  1  0
  2 20  1  0
  2 21  1  0
  3 22  1  0
  3 23  1  0
  4 24  1  0
  4 25  1  0
  9 26  1  0
 10 27  1  0
 11 28  1  0
 12 29  1  0
 15 30  1  0
 15 31  1  0
 16 32  1  0
 16 33  1  0
 16 34  1  0
M  END
