
     RDKit          3D

 52 54  0  0  0  0  0  0  0  0999 V2000
   -9.6294    1.5222   -1.3642 O   0  0  0  0  0  0  0  0  0  0  0  0
   -8.9727    1.2794   -0.3820 C   0  0  0  0  0  0  0  0  0  0  0  0
   -7.6040    0.6739   -0.3866 C   0  0  0  0  0  0  0  0  0  0  0  0
   -6.6276    1.4849    0.4765 C   0  0  0  0  0  0  0  0  0  0  0  0
   -5.2696    0.8443    0.5193 C   0  0  0  0  0  0  0  0  0  0  0  0
   -4.2565    1.2502   -0.3401 C   0  0  0  0  0  0  0  0  0  0  0  0
   -3.0081    0.6421   -0.3521 C   0  0  0  0  0  0  0  0  0  0  0  0
   -4.9933   -0.2075    1.3898 C   0  0  0  0  0  0  0  0  0  0  0  0
   -3.7572   -0.8275    1.3927 C   0  0  0  0  0  0  0  0  0  0  0  0
   -2.7482   -0.4154    0.5188 C   0  0  0  0  0  0  0  0  0  0  0  0
   -1.5362   -1.1125    0.5787 N   0  0  0  0  0  0  0  0  0  0  0  0
   -0.4046   -0.9276   -0.1390 C   0  0  0  0  0  0  0  0  0  0  0  0
   -0.2322   -0.0416   -0.9533 O   0  0  0  0  0  0  0  0  0  0  0  0
    0.6414   -2.0106    0.0997 C   0  0  1  0  0  0  0  0  0  0  0  0
    0.5151   -3.1129   -0.9670 C   0  0  0  0  0  0  0  0  0  0  0  0
    1.9578   -3.5415   -1.2121 C   0  0  0  0  0  0  0  0  0  0  0  0
    2.7330   -2.2353   -1.1102 C   0  0  0  0  0  0  0  0  0  0  0  0
    1.9801   -1.5054   -0.0979 N   0  0  0  0  0  0  0  0  0  0  0  0
    2.4135   -0.4561    0.6188 C   0  0  0  0  0  0  0  0  0  0  0  0
    1.7694    0.0758    1.5040 O   0  0  0  0  0  0  0  0  0  0  0  0
    3.6336   -0.0680    0.2441 O   0  0  0  0  0  0  0  0  0  0  0  0
    4.2250    1.0201    0.9654 C   0  0  0  0  0  0  0  0  0  0  0  0
    5.5493    1.2943    0.3203 C   0  0  0  0  0  0  0  0  0  0  0  0
    5.6670    2.2697   -0.6649 C   0  0  0  0  0  0  0  0  0  0  0  0
    6.8875    2.5031   -1.2848 C   0  0  0  0  0  0  0  0  0  0  0  0
    8.0025    1.7578   -0.9256 C   0  0  0  0  0  0  0  0  0  0  0  0
    7.8934    0.7815    0.0572 C   0  0  0  0  0  0  0  0  0  0  0  0
    6.6725    0.5523    0.6755 C   0  0  0  0  0  0  0  0  0  0  0  0
   -7.7014   -0.3324    0.0374 H   0  0  0  0  0  0  0  0  0  0  0  0
   -7.2384    0.5706   -1.4093 H   0  0  0  0  0  0  0  0  0  0  0  0
   -9.3707    1.4951    0.6273 H   0  0  0  0  0  0  0  0  0  0  0  0
   -6.5430    2.4973    0.0762 H   0  0  0  0  0  0  0  0  0  0  0  0
   -7.0309    1.5787    1.4881 H   0  0  0  0  0  0  0  0  0  0  0  0
   -4.4351    2.0705   -1.0257 H   0  0  0  0  0  0  0  0  0  0  0  0
   -5.7538   -0.5528    2.0805 H   0  0  0  0  0  0  0  0  0  0  0  0
   -2.2564    0.9989   -1.0361 H   0  0  0  0  0  0  0  0  0  0  0  0
   -3.5734   -1.6441    2.0816 H   0  0  0  0  0  0  0  0  0  0  0  0
   -1.5171   -1.8696    1.2455 H   0  0  0  0  0  0  0  0  0  0  0  0
    0.5321   -2.4355    1.1036 H   0  0  0  0  0  0  0  0  0  0  0  0
   -0.1281   -3.9247   -0.6319 H   0  0  0  0  0  0  0  0  0  0  0  0
    0.0887   -2.7044   -1.8860 H   0  0  0  0  0  0  0  0  0  0  0  0
    2.2865   -4.2344   -0.4353 H   0  0  0  0  0  0  0  0  0  0  0  0
    2.0930   -4.0288   -2.1765 H   0  0  0  0  0  0  0  0  0  0  0  0
    3.7664   -2.3877   -0.8036 H   0  0  0  0  0  0  0  0  0  0  0  0
    2.7356   -1.6969   -2.0624 H   0  0  0  0  0  0  0  0  0  0  0  0
    3.5798    1.8993    0.9176 H   0  0  0  0  0  0  0  0  0  0  0  0
    4.3514    0.7465    2.0152 H   0  0  0  0  0  0  0  0  0  0  0  0
    4.8006    2.8565   -0.9471 H   0  0  0  0  0  0  0  0  0  0  0  0
    6.5931   -0.2066    1.4447 H   0  0  0  0  0  0  0  0  0  0  0  0
    6.9663    3.2666   -2.0476 H   0  0  0  0  0  0  0  0  0  0  0  0
    8.9548    1.9382   -1.4074 H   0  0  0  0  0  0  0  0  0  0  0  0
    8.7601    0.1993    0.3425 H   0  0  0  0  0  0  0  0  0  0  0  0
  1  2  2  0
  2  3  1  0
  3  4  1  0
  4  5  1  0
  5  6  2  0
  5  8  1  0
  6  7  1  0
  7 10  2  0
  8  9  2  0
  9 10  1  0
 10 11  1  0
 11 12  1  0
 12 13  2  0
 12 14  1  0
 14 15  1  0
 14 18  1  0
 15 16  1  0
 16 17  1  0
 17 18  1  0
 18 19  1  0
 19 20  2  0
 19 21  1  0
 21 22  1  0
 22 23  1  0
 23 24  2  0
 23 28  1  0
 24 25  1  0
 25 26  2  0
 26 27  1  0
 27 28  2  0
  3 29  1  0
  3 30  1  0
  2 31  1  0
  4 32  1  0
  4 33  1  0
  6 34  1  0
  8 35  1  0
  7 36  1  0
  9 37  1  0
 11 38  1  0
 14 39  1  1
 15 40  1  0
 15 41  1  0
 16 42  1  0
 16 43  1  0
 17 44  1  0
 17 45  1  0
 22 46  1  0
 22 47  1  0
 24 48  1  0
 28 49  1  0
 25 50  1  0
 26 51  1  0
 27 52  1  0
M  END
