
     RDKit          3D

 59 61  0  0  0  0  0  0  0  0999 V2000
    5.4136   -3.0077    1.2306 C   0  0  0  0  0  0  0  0  0  0  0  0
    4.6432   -1.8670    1.0604 C   0  0  0  0  0  0  0  0  0  0  0  0
   -5.2259   -0.9697    0.9264 C   0  0  0  0  0  0  0  0  0  0  0  0
    6.6427   -3.1226    0.5979 C   0  0  0  0  0  0  0  0  0  0  0  0
   -4.1025   -0.1827    0.8838 C   0  0  0  0  0  0  0  0  0  0  0  0
    6.3572   -0.9483   -0.3548 C   0  0  0  0  0  0  0  0  0  0  0  0
   -4.6288   -1.8466   -1.1924 C   0  0  0  0  0  0  0  0  0  0  0  0
    5.1121   -0.8301    0.2572 C   0  0  0  0  0  0  0  0  0  0  0  0
   -5.5178   -1.8493   -0.1218 C   0  0  0  0  0  0  0  0  0  0  0  0
    7.1305   -2.0947   -0.2074 C   0  0  0  0  0  0  0  0  0  0  0  0
   -3.2615   -0.2734   -0.2461 C   0  0  0  0  0  0  0  0  0  0  0  0
    4.3387    0.4332    0.0474 C   0  0  0  0  0  0  0  0  0  0  0  0
   -1.1561    4.9715   -0.3212 C   0  0  0  0  0  0  0  0  0  0  0  0
   -1.4442    3.8725   -1.3399 C   0  0  0  0  0  0  0  0  0  0  0  0
   -1.0887    4.4248    1.1013 C   0  0  0  0  0  0  0  0  0  0  0  0
   -0.4303    2.7402   -1.2144 C   0  0  0  0  0  0  0  0  0  0  0  0
   -0.1133    3.2531    1.2065 C   0  0  0  0  0  0  0  0  0  0  0  0
   -0.3856    2.1254    0.1945 C   0  0  2  0  0  0  0  0  0  0  0  0
    8.4456   -2.2299   -0.9176 C   0  0  0  0  0  0  0  0  0  0  0  0
    0.6957    1.0344    0.3006 C   0  0  0  0  0  0  0  0  0  0  0  0
   -1.7276    1.4746    0.5713 C   0  0  0  0  0  0  0  0  0  0  0  0
    2.1118    1.4477   -0.0753 C   0  0  0  0  0  0  0  0  0  0  0  0
   -3.5452   -1.0962   -1.2646 N   0  0  0  0  0  0  0  0  0  0  0  0
   -6.8444   -3.6956   -0.9253 N   0  0  0  0  0  0  0  0  0  0  0  0
   -2.1367    0.4543   -0.3637 N   0  0  0  0  0  0  0  0  0  0  0  0
    3.0041    0.3235    0.1275 N   0  0  0  0  0  0  0  0  0  0  0  0
    4.9018    1.4955   -0.1867 O   0  0  0  0  0  0  0  0  0  0  0  0
   -7.6401   -2.4143    0.7446 O   0  0  0  0  0  0  0  0  0  0  0  0
    5.0567   -3.8071    1.8665 H   0  0  0  0  0  0  0  0  0  0  0  0
    3.6982   -1.7863    1.5829 H   0  0  0  0  0  0  0  0  0  0  0  0
   -5.8868   -0.9105    1.7812 H   0  0  0  0  0  0  0  0  0  0  0  0
    7.2346   -4.0199    0.7363 H   0  0  0  0  0  0  0  0  0  0  0  0
   -3.8757    0.4921    1.6970 H   0  0  0  0  0  0  0  0  0  0  0  0
    6.7276   -0.1339   -0.9657 H   0  0  0  0  0  0  0  0  0  0  0  0
   -4.8051   -2.4707   -2.0630 H   0  0  0  0  0  0  0  0  0  0  0  0
   -0.1960    5.4368   -0.5695 H   0  0  0  0  0  0  0  0  0  0  0  0
   -1.9092    5.7602   -0.3878 H   0  0  0  0  0  0  0  0  0  0  0  0
   -2.4629    3.4940   -1.2120 H   0  0  0  0  0  0  0  0  0  0  0  0
   -1.4018    4.2834   -2.3514 H   0  0  0  0  0  0  0  0  0  0  0  0
   -0.7733    5.2141    1.7882 H   0  0  0  0  0  0  0  0  0  0  0  0
   -2.0877    4.1255    1.4308 H   0  0  0  0  0  0  0  0  0  0  0  0
   -0.6089    1.9768   -1.9789 H   0  0  0  0  0  0  0  0  0  0  0  0
    0.5577    3.1477   -1.4485 H   0  0  0  0  0  0  0  0  0  0  0  0
    0.8974    3.6360    1.0361 H   0  0  0  0  0  0  0  0  0  0  0  0
   -0.1175    2.8439    2.2220 H   0  0  0  0  0  0  0  0  0  0  0  0
    8.3113   -2.6925   -1.8977 H   0  0  0  0  0  0  0  0  0  0  0  0
    8.9142   -1.2598   -1.0803 H   0  0  0  0  0  0  0  0  0  0  0  0
    9.1412   -2.8541   -0.3578 H   0  0  0  0  0  0  0  0  0  0  0  0
    0.7057    0.6613    1.3305 H   0  0  0  0  0  0  0  0  0  0  0  0
    0.4104    0.1848   -0.3289 H   0  0  0  0  0  0  0  0  0  0  0  0
   -1.6198    1.0380    1.5709 H   0  0  0  0  0  0  0  0  0  0  0  0
   -2.5112    2.2332    0.6529 H   0  0  0  0  0  0  0  0  0  0  0  0
    2.1601    1.7764   -1.1169 H   0  0  0  0  0  0  0  0  0  0  0  0
    2.4526    2.2832    0.5381 H   0  0  0  0  0  0  0  0  0  0  0  0
   -6.0789   -3.9998   -1.4996 H   0  0  0  0  0  0  0  0  0  0  0  0
   -7.6682   -4.2739   -0.9221 H   0  0  0  0  0  0  0  0  0  0  0  0
   -1.6518    0.3684   -1.2422 H   0  0  0  0  0  0  0  0  0  0  0  0
    2.5932   -0.5954    0.1651 H   0  0  0  0  0  0  0  0  0  0  0  0
   -6.7507   -2.6717   -0.0595 C   0  0  0  0  0  0  0  0  0  0  0  0
 13 14  1  0
 13 15  1  0
 14 16  1  0
 16 18  1  0
 15 17  1  0
 22 26  1  0
 22 20  1  0
 27 12  2  0
 26 12  1  0
  2  1  2  0
  2  8  1  0
 12  8  1  0
 17 18  1  0
  1  4  1  0
  8  6  2  0
 18 20  1  6
 18 21  1  0
  4 10  2  0
  6 10  1  0
 10 19  1  0
 21 25  1  0
 25 11  1  0
  5 11  1  0
  5  3  2  0
 11 23  2  0
  3  9  1  0
 23  7  1  0
  9  7  2  0
  9 59  1  0
 28 59  2  0
 59 24  1  0
  1 29  1  0
  2 30  1  0
  3 31  1  0
  4 32  1  0
  5 33  1  0
  6 34  1  0
  7 35  1  0
 13 36  1  0
 13 37  1  0
 14 38  1  0
 14 39  1  0
 15 40  1  0
 15 41  1  0
 16 42  1  0
 16 43  1  0
 17 44  1  0
 17 45  1  0
 19 46  1  0
 19 47  1  0
 19 48  1  0
 20 49  1  0
 20 50  1  0
 21 51  1  0
 21 52  1  0
 22 53  1  0
 22 54  1  0
 24 55  1  0
 24 56  1  0
 25 57  1  0
 26 58  1  0
M  END
