
     RDKit          3D

 49 52  0  0  0  0  0  0  0  0999 V2000
   -4.3431    2.6427   -0.1693 C   0  0  0  0  0  0  0  0  0  0  0  0
   -3.7153    1.4052   -0.1030 C   0  0  0  0  0  0  0  0  0  0  0  0
   -4.4737    0.2530    0.1270 C   0  0  0  0  0  0  0  0  0  0  0  0
   -5.8450    0.2901    0.2937 C   0  0  0  0  0  0  0  0  0  0  0  0
   -6.4584    1.5361    0.2248 C   0  0  0  0  0  0  0  0  0  0  0  0
   -5.7227    2.6957   -0.0022 C   0  0  0  0  0  0  0  0  0  0  0  0
   -2.3319    0.9533   -0.2261 C   0  0  0  0  0  0  0  0  0  0  0  0
   -2.3420   -0.5190   -0.0462 C   0  0  0  0  0  0  0  0  0  0  0  0
   -3.6398   -0.8466    0.1510 N   0  0  0  0  0  0  0  0  0  0  0  0
   -1.3349   -1.4554   -0.0396 C   0  0  0  0  0  0  0  0  0  0  0  0
    0.1049   -1.3949   -0.2115 C   0  0  0  0  0  0  0  0  0  0  0  0
    0.5854   -2.7124   -0.0365 C   0  0  0  0  0  0  0  0  0  0  0  0
   -0.4730   -3.5465    0.2203 N   0  0  0  0  0  0  0  0  0  0  0  0
   -1.6595   -2.8663    0.2260 C   0  0  0  0  0  0  0  0  0  0  0  0
    1.0226   -0.4012   -0.5096 C   0  0  0  0  0  0  0  0  0  0  0  0
    2.3734   -0.7300   -0.5975 C   0  0  0  0  0  0  0  0  0  0  0  0
    2.8294   -2.0316   -0.4197 C   0  0  0  0  0  0  0  0  0  0  0  0
    1.9228   -3.0431   -0.1344 C   0  0  0  0  0  0  0  0  0  0  0  0
   -2.7549   -3.3806    0.4253 O   0  0  0  0  0  0  0  0  0  0  0  0
   -1.2482    1.5915   -0.4442 N   0  0  0  0  0  0  0  0  0  0  0  0
   -1.4242    2.9117   -0.5715 O   0  0  0  0  0  0  0  0  0  0  0  0
    3.5324    0.5674   -0.9286 S   0  0  1  0  0  0  0  0  0  0  0  0
    4.7069   -0.0623   -1.5170 O   0  0  0  0  0  0  0  0  0  0  0  0
    2.8345    1.6104   -1.6679 O   0  0  0  0  0  0  0  0  0  0  0  0
    3.9892    1.2147    0.5011 N   0  0  0  0  0  0  0  0  0  0  0  0
    4.8725    0.4413    1.3729 C   0  0  0  0  0  0  0  0  0  0  0  0
    6.3217    0.8798    1.2683 C   0  0  0  0  0  0  0  0  0  0  0  0
    3.3085    2.3730    1.0725 C   0  0  0  0  0  0  0  0  0  0  0  0
    2.1326    2.0426    1.9778 C   0  0  0  0  0  0  0  0  0  0  0  0
   -3.7886    3.5515   -0.3463 H   0  0  0  0  0  0  0  0  0  0  0  0
   -6.4182   -0.6101    0.4703 H   0  0  0  0  0  0  0  0  0  0  0  0
   -7.5312    1.6021    0.3496 H   0  0  0  0  0  0  0  0  0  0  0  0
   -6.2288    3.6502   -0.0497 H   0  0  0  0  0  0  0  0  0  0  0  0
   -3.9248   -1.8045    0.3138 H   0  0  0  0  0  0  0  0  0  0  0  0
   -0.4018   -4.5425    0.3631 H   0  0  0  0  0  0  0  0  0  0  0  0
    0.6890    0.6073   -0.6844 H   0  0  0  0  0  0  0  0  0  0  0  0
    3.8790   -2.2732   -0.5143 H   0  0  0  0  0  0  0  0  0  0  0  0
    2.2578   -4.0632   -0.0022 H   0  0  0  0  0  0  0  0  0  0  0  0
   -0.5469    3.2671   -0.7588 H   0  0  0  0  0  0  0  0  0  0  0  0
    4.5136    0.5608    2.3970 H   0  0  0  0  0  0  0  0  0  0  0  0
    4.7818   -0.6257    1.1610 H   0  0  0  0  0  0  0  0  0  0  0  0
    6.7097    0.7085    0.2656 H   0  0  0  0  0  0  0  0  0  0  0  0
    6.4298    1.9396    1.5020 H   0  0  0  0  0  0  0  0  0  0  0  0
    6.9361    0.3202    1.9741 H   0  0  0  0  0  0  0  0  0  0  0  0
    4.0639    2.9248    1.6356 H   0  0  0  0  0  0  0  0  0  0  0  0
    2.9961    3.0341    0.2675 H   0  0  0  0  0  0  0  0  0  0  0  0
    1.3264    1.5467    1.4387 H   0  0  0  0  0  0  0  0  0  0  0  0
    2.4278    1.3963    2.8053 H   0  0  0  0  0  0  0  0  0  0  0  0
    1.7306    2.9621    2.4038 H   0  0  0  0  0  0  0  0  0  0  0  0
  1  2  2  0
  2  3  1  0
  2  7  1  0
  3  9  1  0
  4  3  2  0
  5  4  1  0
  6  1  1  0
  6  5  2  0
  7  8  1  0
  8 10  2  0
  9  8  1  0
 10 11  1  0
 10 14  1  0
 11 12  2  0
 12 13  1  0
 12 18  1  0
 14 13  1  0
 15 11  1  0
 15 16  2  0
 16 17  1  0
 17 18  2  0
 19 14  2  0
 20  7  2  0
 21 20  1  0
 22 16  1  0
 22 23  2  0
 22 24  2  0
 22 25  1  1
 26 25  1  0
 27 26  1  0
 28 25  1  0
 29 28  1  0
  1 30  1  0
  4 31  1  0
  5 32  1  0
  6 33  1  0
  9 34  1  0
 13 35  1  0
 15 36  1  0
 17 37  1  0
 18 38  1  0
 21 39  1  0
 26 40  1  0
 26 41  1  0
 27 42  1  0
 27 43  1  0
 27 44  1  0
 28 45  1  0
 28 46  1  0
 29 47  1  0
 29 48  1  0
 29 49  1  0
M  END
