
     RDKit          3D

 40 43  0  0  0  0  0  0  0  0999 V2000
   -3.5804   -2.5654   -1.0504 C   0  0  0  0  0  0  0  0  0  0  0  0
   -3.8657   -1.7381    0.0006 C   0  0  0  0  0  0  0  0  0  0  0  0
   -2.9041   -0.8166    0.4735 C   0  0  0  0  0  0  0  0  0  0  0  0
   -1.6329   -0.7506   -0.1503 C   0  0  0  0  0  0  0  0  0  0  0  0
   -1.3704   -1.6189   -1.2375 C   0  0  0  0  0  0  0  0  0  0  0  0
   -2.3187   -2.5031   -1.6747 C   0  0  0  0  0  0  0  0  0  0  0  0
   -3.1840    0.0445    1.5581 C   0  0  0  0  0  0  0  0  0  0  0  0
   -2.2450    0.9230    2.0047 C   0  0  0  0  0  0  0  0  0  0  0  0
   -0.9668    0.9942    1.3963 C   0  0  0  0  0  0  0  0  0  0  0  0
   -0.6644    0.1787    0.3249 C   0  0  0  0  0  0  0  0  0  0  0  0
    0.6683    0.1795   -0.3364 C   0  0  0  0  0  0  0  0  0  0  0  0
    1.6409   -0.7426    0.1443 C   0  0  0  0  0  0  0  0  0  0  0  0
    2.9128   -0.8054   -0.4786 C   0  0  0  0  0  0  0  0  0  0  0  0
    3.1896    0.0526   -1.5663 C   0  0  0  0  0  0  0  0  0  0  0  0
    2.2467    0.9248   -2.0178 C   0  0  0  0  0  0  0  0  0  0  0  0
    0.9676    0.9916   -1.4111 C   0  0  0  0  0  0  0  0  0  0  0  0
    1.3813   -1.6083    1.2346 C   0  0  0  0  0  0  0  0  0  0  0  0
    2.3334   -2.4868    1.6753 C   0  0  0  0  0  0  0  0  0  0  0  0
    3.5955   -2.5460    1.0517 C   0  0  0  0  0  0  0  0  0  0  0  0
    3.8779   -1.7211   -0.0020 C   0  0  0  0  0  0  0  0  0  0  0  0
   -0.0429    1.9472   -1.9309 C   0  0  0  0  0  0  0  0  0  0  0  0
    0.4734    2.8125   -2.7970 O   0  0  0  0  0  0  0  0  0  0  0  0
   -1.2087    1.9564   -1.6194 O   0  0  0  0  0  0  0  0  0  0  0  0
    0.0390    1.9575    1.9112 C   0  0  0  0  0  0  0  0  0  0  0  0
    1.1991    1.9871    1.5803 O   0  0  0  0  0  0  0  0  0  0  0  0
   -0.4740    2.8048    2.7965 O   0  0  0  0  0  0  0  0  0  0  0  0
   -4.3215   -3.2684   -1.4074 H   0  0  0  0  0  0  0  0  0  0  0  0
   -4.8343   -1.7761    0.4833 H   0  0  0  0  0  0  0  0  0  0  0  0
   -0.4099   -1.5863   -1.7341 H   0  0  0  0  0  0  0  0  0  0  0  0
   -2.1016   -3.1583   -2.5077 H   0  0  0  0  0  0  0  0  0  0  0  0
   -4.1553   -0.0031    2.0341 H   0  0  0  0  0  0  0  0  0  0  0  0
   -2.4810    1.5643    2.8415 H   0  0  0  0  0  0  0  0  0  0  0  0
    4.1614    0.0073   -2.0416 H   0  0  0  0  0  0  0  0  0  0  0  0
    2.4801    1.5640   -2.8569 H   0  0  0  0  0  0  0  0  0  0  0  0
    0.4203   -1.5780    1.7303 H   0  0  0  0  0  0  0  0  0  0  0  0
    2.1185   -3.1404    2.5103 H   0  0  0  0  0  0  0  0  0  0  0  0
    4.3394   -3.2448    1.4109 H   0  0  0  0  0  0  0  0  0  0  0  0
    4.8469   -1.7570   -0.4843 H   0  0  0  0  0  0  0  0  0  0  0  0
   -0.2232    3.4030   -3.1198 H   0  0  0  0  0  0  0  0  0  0  0  0
    0.2177    3.4086    3.1058 H   0  0  0  0  0  0  0  0  0  0  0  0
  2  1  2  0
  6  1  1  0
  1 27  1  0
  3  2  1  0
  2 28  1  0
  7  3  2  0
  4  3  1  0
 10  4  2  0
  4  5  1  0
  5  6  2  0
  5 29  1  0
  6 30  1  0
  8  7  1  0
  7 31  1  0
  9  8  2  0
  8 32  1  0
 24  9  1  0
  9 10  1  0
 11 10  1  0
 16 11  1  0
 11 12  2  0
 13 12  1  0
 12 17  1  0
 14 13  2  0
 13 20  1  0
 15 14  1  0
 14 33  1  0
 15 16  2  0
 15 34  1  0
 21 16  1  0
 17 18  2  0
 17 35  1  0
 19 18  1  0
 18 36  1  0
 20 19  2  0
 19 37  1  0
 20 38  1  0
 23 21  2  0
 21 22  1  0
 22 39  1  0
 25 24  2  0
 26 24  1  0
 26 40  1  0
M  END
