
     RDKit          3D

 26 27  0  0  0  0  0  0  0  0999 V2000
   -2.8571    0.0392   -0.2214 C   0  0  0  0  0  0  0  0  0  0  0  0
   -2.4763    1.4228    0.0146 C   0  0  0  0  0  0  0  0  0  0  0  0
   -1.1662    1.4504    0.3750 C   0  0  0  0  0  0  0  0  0  0  0  0
    0.4424   -0.5823    0.6311 C   0  0  0  0  0  0  0  0  0  0  0  0
    0.1609   -1.8980    0.4462 C   0  0  0  0  0  0  0  0  0  0  0  0
   -1.2379   -2.0038    0.0455 C   0  0  0  0  0  0  0  0  0  0  0  0
    1.0522   -3.0787    0.5726 C   0  0  0  0  0  0  0  0  0  0  0  0
    1.7289    0.0292    1.0152 C   0  0  0  0  0  0  0  0  0  0  0  0
   -0.3153    2.6084    0.7307 C   0  0  0  0  0  0  0  0  0  0  0  0
   -3.4330    2.5548   -0.1117 C   0  0  0  0  0  0  0  0  0  0  0  0
   -0.6847    0.1600    0.3717 N   0  0  0  0  0  0  0  0  0  0  0  0
   -1.6819   -0.6822    0.0216 N   0  0  0  0  0  0  0  0  0  0  0  0
   -3.9119   -0.4553   -0.5519 O   0  0  0  0  0  0  0  0  0  0  0  0
   -1.9145   -2.9726   -0.2189 O   0  0  0  0  0  0  0  0  0  0  0  0
    2.6982    0.6261   -0.5901 Br  0  0  0  0  0  0  0  0  0  0  0  0
    0.6043   -3.8377    1.2146 H   0  0  0  0  0  0  0  0  0  0  0  0
    1.2325   -3.5392   -0.4001 H   0  0  0  0  0  0  0  0  0  0  0  0
    2.0183   -2.8138    0.9976 H   0  0  0  0  0  0  0  0  0  0  0  0
    1.6175    0.8919    1.6679 H   0  0  0  0  0  0  0  0  0  0  0  0
    2.3612   -0.7001    1.5150 H   0  0  0  0  0  0  0  0  0  0  0  0
   -0.8871    3.5277    0.6387 H   0  0  0  0  0  0  0  0  0  0  0  0
    0.0385    2.5400    1.7600 H   0  0  0  0  0  0  0  0  0  0  0  0
    0.5530    2.6851    0.0763 H   0  0  0  0  0  0  0  0  0  0  0  0
   -4.1176    2.3904   -0.9433 H   0  0  0  0  0  0  0  0  0  0  0  0
   -4.0382    2.6709    0.7893 H   0  0  0  0  0  0  0  0  0  0  0  0
   -2.9196    3.4981   -0.2896 H   0  0  0  0  0  0  0  0  0  0  0  0
  8  4  1  0
  7  5  1  0
  4  5  2  0
  4 11  1  0
  5  6  1  0
 11  3  1  0
 11 12  1  0
  6 14  2  0
  6 12  1  0
  9  3  1  0
  3  2  2  0
 12  1  1  0
  2  1  1  0
  2 10  1  0
  1 13  2  0
  8 15  1  0
  7 16  1  0
  7 17  1  0
  7 18  1  0
  8 19  1  0
  8 20  1  0
  9 21  1  0
  9 22  1  0
  9 23  1  0
 10 24  1  0
 10 25  1  0
 10 26  1  0
M  END
