
     RDKit          3D

 39 41  0  0  0  0  0  0  0  0999 V2000
    2.4376    2.1737   -0.0057 C   0  0  0  0  0  0  0  0  0  0  0  0
    3.0830    0.9460    0.0074 N   0  0  0  0  0  0  0  0  0  0  0  0
    4.4351    1.1971    0.0066 C   0  0  0  0  0  0  0  0  0  0  0  0
    4.5311    2.5589   -0.0069 C   0  0  0  0  0  0  0  0  0  0  0  0
    3.3092    3.1571   -0.0146 N   0  0  0  0  0  0  0  0  0  0  0  0
    1.0312    2.1765   -0.0083 C   0  0  0  0  0  0  0  0  0  0  0  0
    0.3797    0.9725    0.0043 C   0  0  0  0  0  0  0  0  0  0  0  0
    1.0749   -0.2027    0.0141 N   0  0  0  0  0  0  0  0  0  0  0  0
    2.3593   -0.2116    0.0149 C   0  0  0  0  0  0  0  0  0  0  0  0
    3.2867   -1.6869    0.0271 S   0  0  0  0  0  0  0  0  0  0  0  0
    1.9671   -2.9370    0.0156 C   0  0  0  0  0  0  0  0  0  0  0  0
    2.6147   -4.3104    0.0380 C   0  0  0  0  0  0  0  0  0  0  0  0
   -1.0878    0.8387    0.0051 C   0  0  0  0  0  0  0  0  0  0  0  0
   -1.9327    1.9387    0.0351 C   0  0  0  0  0  0  0  0  0  0  0  0
   -3.3134    1.7755    0.0303 C   0  0  0  0  0  0  0  0  0  0  0  0
   -3.8795    0.5107   -0.0040 C   0  0  0  0  0  0  0  0  0  0  0  0
   -3.0311   -0.6161   -0.0298 C   0  0  0  0  0  0  0  0  0  0  0  0
   -1.6613   -0.4410   -0.0254 C   0  0  0  0  0  0  0  0  0  0  0  0
   -5.1959    0.2520   -0.0145 O   0  0  0  0  0  0  0  0  0  0  0  0
   -3.6521   -1.8098   -0.0584 O   0  0  0  0  0  0  0  0  0  0  0  0
   -6.0945    1.3439    0.0025 C   0  0  0  0  0  0  0  0  0  0  0  0
   -2.8544   -2.9755   -0.0806 C   0  0  0  0  0  0  0  0  0  0  0  0
    5.1827    0.4232    0.0160 H   0  0  0  0  0  0  0  0  0  0  0  0
    5.4418    3.1381   -0.0111 H   0  0  0  0  0  0  0  0  0  0  0  0
    0.5177    3.1261   -0.0215 H   0  0  0  0  0  0  0  0  0  0  0  0
    1.3329   -2.7810    0.8866 H   0  0  0  0  0  0  0  0  0  0  0  0
    1.3636   -2.7952   -0.8795 H   0  0  0  0  0  0  0  0  0  0  0  0
    3.2138   -4.4601    0.9357 H   0  0  0  0  0  0  0  0  0  0  0  0
    1.8350   -5.0708    0.0265 H   0  0  0  0  0  0  0  0  0  0  0  0
    3.2511   -4.4722   -0.8316 H   0  0  0  0  0  0  0  0  0  0  0  0
   -1.5439    2.9474    0.0651 H   0  0  0  0  0  0  0  0  0  0  0  0
   -3.9388    2.6573    0.0547 H   0  0  0  0  0  0  0  0  0  0  0  0
   -0.9996   -1.2947   -0.0454 H   0  0  0  0  0  0  0  0  0  0  0  0
   -5.9903    1.9444    0.9099 H   0  0  0  0  0  0  0  0  0  0  0  0
   -5.9638    1.9936   -0.8667 H   0  0  0  0  0  0  0  0  0  0  0  0
   -7.0948    0.9193   -0.0236 H   0  0  0  0  0  0  0  0  0  0  0  0
   -3.5397   -3.8192   -0.0946 H   0  0  0  0  0  0  0  0  0  0  0  0
   -2.2231   -3.0218   -0.9721 H   0  0  0  0  0  0  0  0  0  0  0  0
   -2.2204   -3.0538    0.8068 H   0  0  0  0  0  0  0  0  0  0  0  0
  1  2  1  0
  1  5  2  0
  1  6  1  0
  2  3  1  0
  2  9  1  0
  3  4  2  0
  4  5  1  0
  6  7  2  0
  7  8  1  0
  7 13  1  0
  8  9  2  0
  9 10  1  0
 10 11  1  0
 11 12  1  0
 13 14  2  0
 13 18  1  0
 14 15  1  0
 15 16  2  0
 16 17  1  0
 16 19  1  0
 17 18  2  0
 17 20  1  0
 19 21  1  0
 20 22  1  0
  3 23  1  0
  4 24  1  0
  6 25  1  0
 11 26  1  0
 11 27  1  0
 12 28  1  0
 12 29  1  0
 12 30  1  0
 14 31  1  0
 15 32  1  0
 18 33  1  0
 21 34  1  0
 21 35  1  0
 21 36  1  0
 22 37  1  0
 22 38  1  0
 22 39  1  0
M  END
