
     RDKit          3D

 27 27  0  0  0  0  0  0  0  0999 V2000
    0.1900   -1.2369   -0.3385 C   0  0  0  0  0  0  0  0  0  0  0  0
   -1.2723   -1.0679   -0.6975 C   0  0  0  0  0  0  0  0  0  0  0  0
   -1.1864    1.3034   -0.0686 C   0  0  0  0  0  0  0  0  0  0  0  0
    0.2759    1.1798    0.3038 C   0  0  0  0  0  0  0  0  0  0  0  0
    0.9510    0.0707   -0.5094 C   0  0  1  0  0  0  0  0  0  0  0  0
    2.4082   -0.0800   -0.1424 C   0  0  0  0  0  0  0  0  0  0  0  0
    3.0748    1.0550   -0.3027 O   0  0  0  0  0  0  0  0  0  0  0  0
    2.9189   -1.1007    0.2437 O   0  0  0  0  0  0  0  0  0  0  0  0
   -1.9494    0.0194    0.0904 N   0  0  1  0  0  0  0  0  0  0  0  0
    0.3017   -1.6192    0.6775 H   0  0  0  0  0  0  0  0  0  0  0  0
    0.5858   -2.0075   -1.0008 H   0  0  0  0  0  0  0  0  0  0  0  0
   -1.3823   -0.7993   -1.7492 H   0  0  0  0  0  0  0  0  0  0  0  0
   -1.8319   -1.9853   -0.5218 H   0  0  0  0  0  0  0  0  0  0  0  0
   -1.6879    2.0550    0.5397 H   0  0  0  0  0  0  0  0  0  0  0  0
   -1.2869    1.5952   -1.1148 H   0  0  0  0  0  0  0  0  0  0  0  0
    0.7261    2.1500    0.0955 H   0  0  0  0  0  0  0  0  0  0  0  0
    0.3958    1.0024    1.3752 H   0  0  0  0  0  0  0  0  0  0  0  0
    0.9202    0.3631   -1.5667 H   0  0  0  0  0  0  0  0  0  0  0  0
   -3.8801   -0.7107   -0.3533 H   0  0  0  0  0  0  0  0  0  0  0  0
   -3.8156    1.0029    0.1161 H   0  0  0  0  0  0  0  0  0  0  0  0
   -3.2570    0.5014   -1.4952 H   0  0  0  0  0  0  0  0  0  0  0  0
   -1.0824   -0.5611    1.9483 H   0  0  0  0  0  0  0  0  0  0  0  0
   -2.5284    0.4559    2.0695 H   0  0  0  0  0  0  0  0  0  0  0  0
   -2.6769   -1.2511    1.6024 H   0  0  0  0  0  0  0  0  0  0  0  0
    4.0054    0.9336   -0.0612 H   0  0  0  0  0  0  0  0  0  0  0  0
   -3.3217    0.2167   -0.4488 C   0  0  0  0  0  0  0  0  0  0  0  0
   -2.0604   -0.3597    1.5254 C   0  0  0  0  0  0  0  0  0  0  0  0
  1  2  1  0
  1  5  1  0
  2  9  1  0
  3  4  1  0
  3  9  1  0
  4  5  1  0
  5  6  1  0
  9 26  1  6
 27  9  1  0
  6  7  1  0
  6  8  2  0
  1 10  1  0
  1 11  1  0
  2 12  1  0
  2 13  1  0
  3 14  1  0
  3 15  1  0
  4 16  1  0
  4 17  1  0
  5 18  1  6
 26 19  1  0
 26 20  1  0
 26 21  1  0
 27 22  1  0
 27 23  1  0
 27 24  1  0
  7 25  1  0
M  CHG  1   9   1
M  END
