
     RDKit          3D

 13 13  0  0  0  0  0  0  0  0999 V2000
    0.2821   -1.1609    0.0203 N   0  0  0  0  0  0  0  0  0  0  0  0
    0.9045    0.0162    0.0335 C   0  0  0  0  0  0  0  0  0  0  0  0
    0.1983    1.2327    0.0095 C   0  0  0  0  0  0  0  0  0  0  0  0
   -1.1775    1.1935   -0.0275 C   0  0  0  0  0  0  0  0  0  0  0  0
   -1.8333   -0.0371   -0.0364 C   0  0  0  0  0  0  0  0  0  0  0  0
   -1.0476   -1.1731   -0.0119 C   0  0  0  0  0  0  0  0  0  0  0  0
    2.2666   -0.0004    0.1156 N   0  0  0  0  0  0  0  0  0  0  0  0
    0.7319    2.1747    0.0183 H   0  0  0  0  0  0  0  0  0  0  0  0
   -1.7425    2.1168   -0.0505 H   0  0  0  0  0  0  0  0  0  0  0  0
   -2.9111   -0.1085   -0.0652 H   0  0  0  0  0  0  0  0  0  0  0  0
   -1.5101   -2.1549   -0.0204 H   0  0  0  0  0  0  0  0  0  0  0  0
    2.7169   -0.8623   -0.1458 H   0  0  0  0  0  0  0  0  0  0  0  0
    2.7606    0.8250   -0.1800 H   0  0  0  0  0  0  0  0  0  0  0  0
  1  6  2  0
  1  2  1  0
  6  5  1  0
  7  2  1  0
  2  3  2  0
  5  4  2  0
  4  3  1  0
  3  8  1  0
  4  9  1  0
  5 10  1  0
  6 11  1  0
  7 12  1  0
  7 13  1  0
M  END
