
     RDKit          3D

 25 24  0  0  0  0  0  0  0  0999 V2000
   -0.2319   -0.2762   -3.3181 C   0  0  0  0  0  0  0  0  0  0  0  0
   -0.9734   -0.0025   -2.0392 C   0  0  0  0  0  0  0  0  0  0  0  0
   -0.0155    0.0592   -0.8622 C   0  0  0  0  0  0  0  0  0  0  0  0
   -0.6528   -0.0754    0.4904 C   0  0  0  0  0  0  0  0  0  0  0  0
    1.1696    0.2204   -1.0307 O   0  0  0  0  0  0  0  0  0  0  0  0
    0.2855    0.1147    1.6702 C   0  0  0  0  0  0  0  0  0  0  0  0
   -0.4367   -0.0545    3.0014 C   0  0  0  0  0  0  0  0  0  0  0  0
    0.4866    0.0976    4.2036 C   0  0  0  0  0  0  0  0  0  0  0  0
   -0.2393   -0.0781    5.5301 C   0  0  0  0  0  0  0  0  0  0  0  0
    0.2235   -1.3533   -3.6069 O   0  0  0  0  0  0  0  0  0  0  0  0
   -0.1198    0.7988   -4.0827 O   0  0  0  0  0  0  0  0  0  0  0  0
   -1.7143   -0.7871   -1.8732 H   0  0  0  0  0  0  0  0  0  0  0  0
   -1.5179    0.9445   -2.0737 H   0  0  0  0  0  0  0  0  0  0  0  0
   -1.1201   -1.0672    0.5230 H   0  0  0  0  0  0  0  0  0  0  0  0
   -1.4932    0.6268    0.5372 H   0  0  0  0  0  0  0  0  0  0  0  0
    0.7423    1.1074    1.6263 H   0  0  0  0  0  0  0  0  0  0  0  0
    1.1057   -0.6058    1.6098 H   0  0  0  0  0  0  0  0  0  0  0  0
   -0.9132   -1.0406    3.0336 H   0  0  0  0  0  0  0  0  0  0  0  0
   -1.2493    0.6768    3.0728 H   0  0  0  0  0  0  0  0  0  0  0  0
    0.9633    1.0824    4.1724 H   0  0  0  0  0  0  0  0  0  0  0  0
    1.2972   -0.6340    4.1314 H   0  0  0  0  0  0  0  0  0  0  0  0
    0.4418    0.0204    6.3761 H   0  0  0  0  0  0  0  0  0  0  0  0
   -1.0279    0.6669    5.6520 H   0  0  0  0  0  0  0  0  0  0  0  0
   -0.7060   -1.0630    5.5944 H   0  0  0  0  0  0  0  0  0  0  0  0
    0.3787    0.5850   -4.8862 H   0  0  0  0  0  0  0  0  0  0  0  0
  1  2  1  0
  1 10  2  0
  1 11  1  0
  2  3  1  0
  2 12  1  0
  2 13  1  0
  3  4  1  0
  3  5  2  0
  4  6  1  0
  4 14  1  0
  4 15  1  0
  6  7  1  0
  6 16  1  0
  6 17  1  0
  7  8  1  0
  7 18  1  0
  7 19  1  0
  8  9  1  0
  8 20  1  0
  8 21  1  0
  9 22  1  0
  9 23  1  0
  9 24  1  0
 11 25  1  0
M  END
