
     RDKit          3D

 48 51  0  0  0  0  0  0  0  0999 V2000
   -2.3002    5.6739    0.4027 C   0  0  0  0  0  0  0  0  0  0  0  0
   -2.2239   -4.1098    1.6599 Cl  0  0  0  0  0  0  0  0  0  0  0  0
   -2.4121    4.6508   -0.5285 C   0  0  0  0  0  0  0  0  0  0  0  0
   -1.5154    3.5903   -0.5446 C   0  0  0  0  0  0  0  0  0  0  0  0
   -0.5027    3.5537    0.4253 C   0  0  0  0  0  0  0  0  0  0  0  0
   -0.3925    4.5699    1.3677 C   0  0  0  0  0  0  0  0  0  0  0  0
   -1.2852    5.6317    1.3462 C   0  0  0  0  0  0  0  0  0  0  0  0
   -1.6037    2.5537   -1.6352 C   0  0  0  0  0  0  0  0  0  0  0  0
   -1.7356    1.2036   -1.1093 N   0  0  0  0  0  0  0  0  0  0  0  0
   -1.2294    0.1293   -1.7723 C   0  0  0  0  0  0  0  0  0  0  0  0
   -1.4086   -1.1868   -1.1299 C   0  0  0  0  0  0  0  0  0  0  0  0
   -0.5924    0.2287   -2.8060 O   0  0  0  0  0  0  0  0  0  0  0  0
    0.3569    2.4429    0.4336 N   0  0  0  0  0  0  0  0  0  0  0  0
    1.6995    2.4430    0.6074 C   0  0  0  0  0  0  0  0  0  0  0  0
    2.3037    1.0835    0.5029 C   0  0  0  0  0  0  0  0  0  0  0  0
    2.3825    3.4263    0.8033 O   0  0  0  0  0  0  0  0  0  0  0  0
   -2.1226   -1.4217    0.4249 S   0  0  0  0  0  0  0  0  0  0  0  0
   -1.7753   -3.0989    0.3666 C   0  0  0  0  0  0  0  0  0  0  0  0
   -1.1425   -3.4688   -0.7814 C   0  0  0  0  0  0  0  0  0  0  0  0
   -0.9317   -2.3628   -1.6357 C   0  0  0  0  0  0  0  0  0  0  0  0
    3.5237    0.8905    0.1187 N   0  0  0  0  0  0  0  0  0  0  0  0
    3.8169   -0.4366    0.0551 C   0  0  0  0  0  0  0  0  0  0  0  0
    2.7992   -1.2766    0.3973 C   0  0  0  0  0  0  0  0  0  0  0  0
    1.4230   -0.3684    0.8394 S   0  0  0  0  0  0  0  0  0  0  0  0
    2.8942   -2.7647    0.3918 C   0  0  0  0  0  0  0  0  0  0  0  0
    4.0427   -3.1624   -0.3987 N   0  0  0  0  0  0  0  0  0  0  0  0
    5.2430   -2.4451    0.0012 C   0  0  0  0  0  0  0  0  0  0  0  0
    5.1436   -0.9686   -0.3690 C   0  0  0  0  0  0  0  0  0  0  0  0
    4.2202   -4.5968   -0.3460 C   0  0  0  0  0  0  0  0  0  0  0  0
   -3.0032    6.4957    0.3913 H   0  0  0  0  0  0  0  0  0  0  0  0
   -3.2030    4.6819   -1.2675 H   0  0  0  0  0  0  0  0  0  0  0  0
    0.3755    4.5289    2.1263 H   0  0  0  0  0  0  0  0  0  0  0  0
   -1.1900    6.4198    2.0811 H   0  0  0  0  0  0  0  0  0  0  0  0
   -2.4386    2.7884   -2.2992 H   0  0  0  0  0  0  0  0  0  0  0  0
   -0.6995    2.5849   -2.2443 H   0  0  0  0  0  0  0  0  0  0  0  0
   -2.4881    1.0645   -0.4492 H   0  0  0  0  0  0  0  0  0  0  0  0
   -0.0791    1.5880    0.1175 H   0  0  0  0  0  0  0  0  0  0  0  0
   -0.8425   -4.4818   -1.0034 H   0  0  0  0  0  0  0  0  0  0  0  0
   -0.4314   -2.4325   -2.5905 H   0  0  0  0  0  0  0  0  0  0  0  0
    2.9544   -3.1297    1.4318 H   0  0  0  0  0  0  0  0  0  0  0  0
    1.9912   -3.2053   -0.0407 H   0  0  0  0  0  0  0  0  0  0  0  0
    5.4325   -2.5455    1.0832 H   0  0  0  0  0  0  0  0  0  0  0  0
    6.0978   -2.8887   -0.5109 H   0  0  0  0  0  0  0  0  0  0  0  0
    5.2666   -0.8411   -1.4481 H   0  0  0  0  0  0  0  0  0  0  0  0
    5.9496   -0.4098    0.1103 H   0  0  0  0  0  0  0  0  0  0  0  0
    3.3123   -5.0969   -0.6868 H   0  0  0  0  0  0  0  0  0  0  0  0
    5.0336   -4.8951   -1.0077 H   0  0  0  0  0  0  0  0  0  0  0  0
    4.4493   -4.9704    0.6636 H   0  0  0  0  0  0  0  0  0  0  0  0
  1  3  2  0
  1  7  1  0
  2 18  1  0
  3  4  1  0
  4  5  2  0
  4  8  1  0
  5  6  1  0
  5 13  1  0
  6  7  2  0
  8  9  1  0
  9 10  1  0
 10 11  1  0
 10 12  2  0
 11 17  1  0
 11 20  2  0
 13 14  1  0
 14 15  1  0
 14 16  2  0
 15 21  2  0
 15 24  1  0
 17 18  1  0
 18 19  2  0
 19 20  1  0
 21 22  1  0
 22 23  2  0
 22 28  1  0
 23 24  1  0
 23 25  1  0
 25 26  1  0
 26 27  1  0
 26 29  1  0
 27 28  1  0
  1 30  1  0
  3 31  1  0
  6 32  1  0
  7 33  1  0
  8 34  1  0
  8 35  1  0
  9 36  1  0
 13 37  1  0
 19 38  1  0
 20 39  1  0
 25 40  1  0
 25 41  1  0
 27 42  1  0
 27 43  1  0
 28 44  1  0
 28 45  1  0
 29 46  1  0
 29 47  1  0
 29 48  1  0
M  END
