
     RDKit          3D

 34 36  0  0  0  0  0  0  0  0999 V2000
   -3.9095   -0.7512   -2.1979 F   0  0  0  0  0  0  0  0  0  0  0  0
   -2.9502   -0.7321   -1.2762 C   0  0  0  0  0  0  0  0  0  0  0  0
   -1.7869   -1.4096   -1.5701 C   0  0  0  0  0  0  0  0  0  0  0  0
   -3.1375   -0.0371   -0.0857 C   0  0  0  0  0  0  0  0  0  0  0  0
   -4.3724    0.7260    0.2855 C   0  0  1  0  0  0  0  0  0  0  0  0
   -4.9541    0.2114    1.3777 F   0  0  0  0  0  0  0  0  0  0  0  0
   -4.0894    2.0052    0.5648 F   0  0  0  0  0  0  0  0  0  0  0  0
   -5.2949    0.7367   -0.6733 F   0  0  0  0  0  0  0  0  0  0  0  0
   -2.0740   -0.0918    0.8131 C   0  0  0  0  0  0  0  0  0  0  0  0
   -2.2077    0.5320    1.9845 F   0  0  0  0  0  0  0  0  0  0  0  0
   -0.9029   -0.7686    0.5778 C   0  0  0  0  0  0  0  0  0  0  0  0
   -0.7521   -1.4236   -0.6418 C   0  0  0  0  0  0  0  0  0  0  0  0
    0.3922   -2.1493   -0.9535 N   0  0  0  0  0  0  0  0  0  0  0  0
    1.6170   -2.0335   -0.3753 C   0  0  0  0  0  0  0  0  0  0  0  0
    2.4273   -3.0909   -0.0515 C   0  0  0  0  0  0  0  0  0  0  0  0
    3.7091   -2.8635    0.4924 C   0  0  0  0  0  0  0  0  0  0  0  0
    4.5750   -4.0331    0.8237 C   0  0  0  0  0  0  0  0  0  0  0  0
    2.1479   -0.7997   -0.1512 N   0  0  0  0  0  0  0  0  0  0  0  0
    3.4011   -0.6365    0.3981 C   0  0  0  0  0  0  0  0  0  0  0  0
    4.1826   -1.6567    0.7277 N   0  0  0  0  0  0  0  0  0  0  0  0
    1.6068    0.3862   -0.4469 N   0  0  0  0  0  0  0  0  0  0  0  0
    2.5480    1.2046   -0.0402 C   0  0  0  0  0  0  0  0  0  0  0  0
    3.6506    0.6604    0.4786 N   0  0  0  0  0  0  0  0  0  0  0  0
    2.4014    2.6854   -0.1748 C   0  0  1  0  0  0  0  0  0  0  0  0
    1.1881    3.0189   -0.6020 F   0  0  0  0  0  0  0  0  0  0  0  0
    2.6128    3.2924    0.9940 F   0  0  0  0  0  0  0  0  0  0  0  0
    3.2928    3.1736   -1.0417 F   0  0  0  0  0  0  0  0  0  0  0  0
   -1.6902   -1.9161   -2.5216 H   0  0  0  0  0  0  0  0  0  0  0  0
   -0.1487   -0.7975    1.3516 H   0  0  0  0  0  0  0  0  0  0  0  0
    0.2442   -3.0090   -1.4628 H   0  0  0  0  0  0  0  0  0  0  0  0
    2.0651   -4.0985   -0.1965 H   0  0  0  0  0  0  0  0  0  0  0  0
    5.4324   -3.7265    1.4175 H   0  0  0  0  0  0  0  0  0  0  0  0
    4.0156   -4.7929    1.3684 H   0  0  0  0  0  0  0  0  0  0  0  0
    4.9387   -4.4984   -0.0945 H   0  0  0  0  0  0  0  0  0  0  0  0
 17 16  1  0
 16 20  2  0
 16 15  1  0
 20 19  1  0
 15 14  2  0
 19 23  2  0
 19 18  1  0
 23 22  1  0
 10  9  1  0
 18 14  1  0
 18 21  1  0
 14 13  1  0
 11  9  2  0
 11 12  1  0
 22 21  2  0
 22 24  1  0
  9  4  1  0
  5  7  1  1
 24 25  1  6
 27 24  1  0
 13 12  1  0
 12  3  2  0
 24 26  1  0
  4  5  1  0
  4  2  2  0
  5  6  1  0
  5  8  1  0
  3  2  1  0
  2  1  1  0
  3 28  1  0
 11 29  1  0
 13 30  1  0
 15 31  1  0
 17 32  1  0
 17 33  1  0
 17 34  1  0
M  END
