
     RDKit          3D

 55 58  0  0  0  0  0  0  0  0999 V2000
    3.3746   -4.7541   -0.2719 Cl  0  0  0  0  0  0  0  0  0  0  0  0
    4.8288    1.6501    0.6688 C   0  0  0  0  0  0  0  0  0  0  0  0
    5.4921    0.5636    0.9850 N   0  0  0  0  0  0  0  0  0  0  0  0
   -6.3268   -2.4773   -0.9684 O   0  0  0  0  0  0  0  0  0  0  0  0
    5.4685    2.9509    1.0751 C   0  0  0  0  0  0  0  0  0  0  0  0
   -7.8791    1.3082    1.3466 O   0  0  0  0  0  0  0  0  0  0  0  0
    5.0279    4.1266    0.2176 C   0  0  0  0  0  0  0  0  0  0  0  0
   -4.9754   -0.0905   -0.3344 N   0  0  0  0  0  0  0  0  0  0  0  0
    3.5103    4.1771    0.1772 C   0  0  0  0  0  0  0  0  0  0  0  0
   -6.7915   -2.4179    0.3009 N   0  0  0  0  0  0  0  0  0  0  0  0
    2.9393    2.9248   -0.4758 C   0  0  0  0  0  0  0  0  0  0  0  0
    3.5889    1.6394   -0.0243 C   0  0  0  0  0  0  0  0  0  0  0  0
    4.9782   -0.6366    0.6550 C   0  0  0  0  0  0  0  0  0  0  0  0
    3.7432   -0.7746   -0.0196 C   0  0  0  0  0  0  0  0  0  0  0  0
    3.0490    0.4171   -0.3790 C   0  0  0  0  0  0  0  0  0  0  0  0
    5.7054   -1.7990    1.0027 C   0  0  0  0  0  0  0  0  0  0  0  0
    5.2247   -3.0443    0.7124 C   0  0  0  0  0  0  0  0  0  0  0  0
    3.9816   -3.1654    0.0638 C   0  0  0  0  0  0  0  0  0  0  0  0
    3.2496   -2.0697   -0.2972 C   0  0  0  0  0  0  0  0  0  0  0  0
    0.6120    0.5164   -0.3477 C   0  0  0  0  0  0  0  0  0  0  0  0
   -0.5735    0.6375   -1.2881 C   0  0  0  0  0  0  0  0  0  0  0  0
   -1.8916    0.7858   -0.5406 C   0  0  0  0  0  0  0  0  0  0  0  0
   -3.0863    0.8727   -1.4913 C   0  0  0  0  0  0  0  0  0  0  0  0
   -4.3859    1.0165   -0.7544 C   0  0  0  0  0  0  0  0  0  0  0  0
   -4.9308    2.2725   -0.4794 C   0  0  0  0  0  0  0  0  0  0  0  0
   -6.1078    2.3612    0.2328 C   0  0  0  0  0  0  0  0  0  0  0  0
   -6.7256    1.1916    0.6648 C   0  0  0  0  0  0  0  0  0  0  0  0
   -6.1103   -0.0279    0.3590 C   0  0  0  0  0  0  0  0  0  0  0  0
   -6.6968   -1.2823    0.8645 C   0  0  0  0  0  0  0  0  0  0  0  0
   -6.5129   -3.3828   -1.2403 H   0  0  0  0  0  0  0  0  0  0  0  0
    5.2007    3.1495    2.1193 H   0  0  0  0  0  0  0  0  0  0  0  0
    6.5519    2.8243    1.0573 H   0  0  0  0  0  0  0  0  0  0  0  0
    1.8039   -0.4734   -1.6713 H   0  0  0  0  0  0  0  0  0  0  0  0
   -8.3164    0.4586    1.4693 H   0  0  0  0  0  0  0  0  0  0  0  0
    5.4387    5.0533    0.6218 H   0  0  0  0  0  0  0  0  0  0  0  0
    5.4230    4.0207   -0.7975 H   0  0  0  0  0  0  0  0  0  0  0  0
    3.1284    4.2741    1.1984 H   0  0  0  0  0  0  0  0  0  0  0  0
    3.1600    5.0546   -0.3693 H   0  0  0  0  0  0  0  0  0  0  0  0
    1.8630    2.8980   -0.3090 H   0  0  0  0  0  0  0  0  0  0  0  0
    3.0611    2.9921   -1.5625 H   0  0  0  0  0  0  0  0  0  0  0  0
    6.6549   -1.6813    1.5089 H   0  0  0  0  0  0  0  0  0  0  0  0
    5.7862   -3.9291    0.9798 H   0  0  0  0  0  0  0  0  0  0  0  0
    2.2924   -2.2081   -0.7823 H   0  0  0  0  0  0  0  0  0  0  0  0
    0.4580   -0.3250    0.3415 H   0  0  0  0  0  0  0  0  0  0  0  0
    0.6797    1.4102    0.2744 H   0  0  0  0  0  0  0  0  0  0  0  0
   -0.4205    1.4963   -1.9486 H   0  0  0  0  0  0  0  0  0  0  0  0
   -0.6182   -0.2477   -1.9323 H   0  0  0  0  0  0  0  0  0  0  0  0
   -2.0332   -0.0616    0.1376 H   0  0  0  0  0  0  0  0  0  0  0  0
   -1.8606    1.6822    0.0872 H   0  0  0  0  0  0  0  0  0  0  0  0
   -2.9485    1.7191   -2.1690 H   0  0  0  0  0  0  0  0  0  0  0  0
   -3.1232   -0.0281   -2.1087 H   0  0  0  0  0  0  0  0  0  0  0  0
   -4.4376    3.1711   -0.8266 H   0  0  0  0  0  0  0  0  0  0  0  0
   -6.5577    3.3219    0.4502 H   0  0  0  0  0  0  0  0  0  0  0  0
   -7.1009   -1.2844    1.8729 H   0  0  0  0  0  0  0  0  0  0  0  0
    1.8547    0.3628   -1.1049 N   0  0  0  0  0  0  0  0  0  0  0  0
 21 20  1  0
 21 22  1  0
 20 55  1  0
 55 15  1  0
 22 23  1  0
  1 18  1  0
 23 24  1  0
 15 14  2  0
 15 12  1  0
 19 14  1  0
 19 18  2  0
 11 12  1  0
 11  9  1  0
 14 13  1  0
 18 17  1  0
 12  2  2  0
  9  7  1  0
 24  8  2  0
 24 25  1  0
  8 28  1  0
 13 16  1  0
 13  3  2  0
 17 16  2  0
  2  3  1  0
  2  5  1  0
  7  5  1  0
 25 26  2  0
 28 29  1  0
 28 27  2  0
 29 10  2  0
 26 27  1  0
 10  4  1  0
 27  6  1  0
  4 30  1  0
  5 31  1  0
  5 32  1  0
 55 33  1  0
  6 34  1  0
  7 35  1  0
  7 36  1  0
  9 37  1  0
  9 38  1  0
 11 39  1  0
 11 40  1  0
 16 41  1  0
 17 42  1  0
 19 43  1  0
 20 44  1  0
 20 45  1  0
 21 46  1  0
 21 47  1  0
 22 48  1  0
 22 49  1  0
 23 50  1  0
 23 51  1  0
 25 52  1  0
 26 53  1  0
 29 54  1  0
M  END
