
     RDKit          3D

 12 12  0  0  0  0  0  0  0  0999 V2000
   -1.1648    1.1925    0.0328 C   0  0  0  0  0  0  0  0  0  0  0  0
   -1.8733    0.0011    0.0516 C   0  0  0  0  0  0  0  0  0  0  0  0
    0.2290   -1.1501   -0.0055 C   0  0  0  0  0  0  0  0  0  0  0  0
    0.9089    0.0215   -0.0232 N   0  0  0  0  0  0  0  0  0  0  0  0
    2.1801    0.0307   -0.0569 O   0  0  0  0  0  0  0  0  0  0  0  0
    0.2120    1.1827   -0.0041 C   0  0  0  0  0  0  0  0  0  0  0  0
   -1.1473   -1.1799    0.0320 C   0  0  0  0  0  0  0  0  0  0  0  0
   -1.6690    2.1484    0.0472 H   0  0  0  0  0  0  0  0  0  0  0  0
   -2.9530   -0.0071    0.0808 H   0  0  0  0  0  0  0  0  0  0  0  0
    0.8102    2.0812   -0.0210 H   0  0  0  0  0  0  0  0  0  0  0  0
   -1.6380   -2.1429    0.0452 H   0  0  0  0  0  0  0  0  0  0  0  0
    0.8407   -2.0393   -0.0228 H   0  0  0  0  0  0  0  0  0  0  0  0
  1  2  2  0
  1  6  1  0
  2  7  1  0
  7  3  2  0
  4  5  1  0
  4  6  2  0
  4  3  1  0
  1  8  1  0
  2  9  1  0
  6 10  1  0
  7 11  1  0
  3 12  1  0
M  CHG  2   4   1   5  -1
M  END
