
     RDKit          3D

 21 22  0  0  0  0  0  0  0  0999 V2000
    1.9873    0.1197    0.0028 C   0  0  0  0  0  0  0  0  0  0  0  0
    3.5921   -1.3511   -0.0112 C   0  0  0  0  0  0  0  0  0  0  0  0
    4.1984   -0.1388   -0.0080 C   0  0  0  0  0  0  0  0  0  0  0  0
    3.1516    0.8248    0.0014 C   0  0  0  0  0  0  0  0  0  0  0  0
    0.5969    0.5394    0.0104 C   0  0  0  0  0  0  0  0  0  0  0  0
   -0.8527    2.3026    0.0297 C   0  0  0  0  0  0  0  0  0  0  0  0
   -1.9673    1.4752    0.0287 C   0  0  0  0  0  0  0  0  0  0  0  0
   -1.7542    0.1025    0.0166 C   0  0  0  0  0  0  0  0  0  0  0  0
   -0.4532   -0.3777    0.0068 C   0  0  0  0  0  0  0  0  0  0  0  0
   -2.8733   -0.8847    0.0138 C   0  0  0  0  0  0  0  0  0  0  0  0
    0.3913    1.8569    0.0211 N   0  0  0  0  0  0  0  0  0  0  0  0
    2.2545   -1.2036   -0.0046 O   0  0  0  0  0  0  0  0  0  0  0  0
   -4.0605   -0.3066    0.0375 O   0  0  0  0  0  0  0  0  0  0  0  0
   -2.7028   -2.0775   -0.0067 O   0  0  0  0  0  0  0  0  0  0  0  0
    3.9671   -2.3614   -0.0187 H   0  0  0  0  0  0  0  0  0  0  0  0
    5.2600    0.0458   -0.0117 H   0  0  0  0  0  0  0  0  0  0  0  0
    3.2487    1.8977    0.0062 H   0  0  0  0  0  0  0  0  0  0  0  0
   -0.9800    3.3787    0.0375 H   0  0  0  0  0  0  0  0  0  0  0  0
   -2.9564    1.9086    0.0366 H   0  0  0  0  0  0  0  0  0  0  0  0
   -0.2666   -1.4422   -0.0030 H   0  0  0  0  0  0  0  0  0  0  0  0
   -4.7615   -0.9759    0.0360 H   0  0  0  0  0  0  0  0  0  0  0  0
  3  4  1  0
  3  2  2  0
  4  1  2  0
  2 12  1  0
 12  1  1  0
  1  5  1  0
  9  5  2  0
  9  8  1  0
  5 11  1  0
 14 10  2  0
 10 13  1  0
 10  8  1  0
  8  7  2  0
 11  6  2  0
  7  6  1  0
  2 15  1  0
  3 16  1  0
  4 17  1  0
  6 18  1  0
  7 19  1  0
  9 20  1  0
 13 21  1  0
M  END
