
     RDKit          3D

 13 13  0  0  0  0  0  0  0  0999 V2000
    2.5429    0.4908   -0.0047 C   0  0  0  0  0  0  0  0  0  0  0  0
   -2.4114    0.4786    0.2169 N   0  0  0  0  0  0  0  0  0  0  0  0
    0.0104    1.0649    0.1416 C   0  0  0  0  0  0  0  0  0  0  0  0
    0.6881   -1.0673   -0.1265 N   0  0  0  0  0  0  0  0  0  0  0  0
   -0.6961   -1.0128   -0.0715 O   0  0  0  0  0  0  0  0  0  0  0  0
    1.0916    0.1655    0.0030 C   0  0  0  0  0  0  0  0  0  0  0  0
   -1.0860    0.2503    0.0861 C   0  0  0  0  0  0  0  0  0  0  0  0
    2.8453    0.9147    0.9531 H   0  0  0  0  0  0  0  0  0  0  0  0
    3.1452   -0.3958   -0.1930 H   0  0  0  0  0  0  0  0  0  0  0  0
    2.7671    1.2309   -0.7727 H   0  0  0  0  0  0  0  0  0  0  0  0
   -2.7080    1.4306    0.0771 H   0  0  0  0  0  0  0  0  0  0  0  0
   -3.0402   -0.2004   -0.1832 H   0  0  0  0  0  0  0  0  0  0  0  0
    0.0402    2.1348    0.2560 H   0  0  0  0  0  0  0  0  0  0  0  0
  1  6  1  0
  2  7  1  0
  3  6  1  0
  3  7  2  0
  4  5  1  0
  4  6  2  0
  5  7  1  0
  1  8  1  0
  1  9  1  0
  1 10  1  0
  2 11  1  0
  2 12  1  0
  3 13  1  0
M  END
