
     RDKit          3D

 69 70  0  0  0  0  0  0  0  0999 V2000
    2.5861    2.1091    4.8330 C   0  0  0  0  0  0  0  0  0  0  0  0
    1.4485    1.7432    4.0942 O   0  0  0  0  0  0  0  0  0  0  0  0
    1.1874    0.3613    4.1743 C   0  0  0  0  0  0  0  0  0  0  0  0
   -2.5453    2.0013    4.9787 C   0  0  0  0  0  0  0  0  0  0  0  0
   -2.3541   -0.3238    5.9229 C   0  0  0  0  0  0  0  0  0  0  0  0
    0.2075   -0.4248    1.9921 C   0  0  0  0  0  0  0  0  0  0  0  0
   -0.8898   -0.7353    1.1842 C   0  0  0  0  0  0  0  0  0  0  0  0
   -2.1631   -0.5173    1.7253 C   0  0  0  0  0  0  0  0  0  0  0  0
   -2.3351   -0.0549    2.9541 N   0  0  0  0  0  0  0  0  0  0  0  0
   -1.3002    0.2289    3.7320 C   0  0  0  0  0  0  0  0  0  0  0  0
    0.0132    0.0421    3.2960 C   0  0  0  0  0  0  0  0  0  0  0  0
    3.5716    0.4656    0.5309 C   0  0  0  0  0  0  0  0  0  0  0  0
    2.2790    0.5666    1.0253 C   0  0  0  0  0  0  0  0  0  0  0  0
    1.5901   -0.5612    1.4626 C   0  0  0  0  0  0  0  0  0  0  0  0
    2.2218   -1.8006    1.4036 C   0  0  0  0  0  0  0  0  0  0  0  0
    3.5148   -1.9206    0.9155 C   0  0  0  0  0  0  0  0  0  0  0  0
    4.1657   -0.7799    0.4867 C   0  0  0  0  0  0  0  0  0  0  0  0
    5.4178   -0.8853    0.0118 F   0  0  0  0  0  0  0  0  0  0  0  0
    1.1720    0.3072   -7.6704 O   0  0  0  0  0  0  0  0  0  0  0  0
   -0.0057    2.1324   -8.1643 O   0  0  0  0  0  0  0  0  0  0  0  0
   -1.2035   -0.3233   -5.6666 O   0  0  0  0  0  0  0  0  0  0  0  0
    0.1787    1.5704   -5.8820 C   0  0  0  0  0  0  0  0  0  0  0  0
   -0.1062    0.3245   -5.0586 C   0  0  1  0  0  0  0  0  0  0  0  0
   -0.3740    0.6943   -3.6022 C   0  0  0  0  0  0  0  0  0  0  0  0
   -0.5292   -0.5094   -2.6747 C   0  0  1  0  0  0  0  0  0  0  0  0
   -0.7017   -0.0690   -1.2274 C   0  0  0  0  0  0  0  0  0  0  0  0
   -3.4366   -0.8256    0.9665 C   0  0  1  0  0  0  0  0  0  0  0  0
   -3.9948   -2.1693    1.4398 C   0  0  0  0  0  0  0  0  0  0  0  0
   -4.4716    0.2856    1.1125 C   0  0  0  0  0  0  0  0  0  0  0  0
   -1.5873   -1.3699   -3.0857 O   0  0  0  0  0  0  0  0  0  0  0  0
    2.7166    3.1866    4.7391 H   0  0  0  0  0  0  0  0  0  0  0  0
    2.4837    1.8643    5.8973 H   0  0  0  0  0  0  0  0  0  0  0  0
    3.4924    1.6165    4.4607 H   0  0  0  0  0  0  0  0  0  0  0  0
    2.0653   -0.2153    3.8576 H   0  0  0  0  0  0  0  0  0  0  0  0
    0.9880    0.0638    5.2123 H   0  0  0  0  0  0  0  0  0  0  0  0
   -0.7513    1.0621    5.6272 H   0  0  0  0  0  0  0  0  0  0  0  0
   -2.0470    2.7935    4.4182 H   0  0  0  0  0  0  0  0  0  0  0  0
   -3.4768    1.7590    4.4677 H   0  0  0  0  0  0  0  0  0  0  0  0
   -2.7894    2.3936    5.9673 H   0  0  0  0  0  0  0  0  0  0  0  0
   -1.7219   -1.2052    6.0399 H   0  0  0  0  0  0  0  0  0  0  0  0
   -2.6020    0.0459    6.9192 H   0  0  0  0  0  0  0  0  0  0  0  0
   -3.2789   -0.6346    5.4354 H   0  0  0  0  0  0  0  0  0  0  0  0
    4.1050    1.3431    0.1896 H   0  0  0  0  0  0  0  0  0  0  0  0
    1.8033    1.5374    1.0680 H   0  0  0  0  0  0  0  0  0  0  0  0
    1.7018   -2.6873    1.7437 H   0  0  0  0  0  0  0  0  0  0  0  0
    4.0044   -2.8845    0.8700 H   0  0  0  0  0  0  0  0  0  0  0  0
    0.2584    1.9102   -9.0701 H   0  0  0  0  0  0  0  0  0  0  0  0
   -1.5125   -0.9983   -5.0471 H   0  0  0  0  0  0  0  0  0  0  0  0
   -0.6625    2.2633   -5.8241 H   0  0  0  0  0  0  0  0  0  0  0  0
    1.0482    2.0901   -5.4671 H   0  0  0  0  0  0  0  0  0  0  0  0
    0.7867   -0.3182   -5.0841 H   0  0  0  0  0  0  0  0  0  0  0  0
   -1.2603    1.3368   -3.5358 H   0  0  0  0  0  0  0  0  0  0  0  0
    0.4679    1.2869   -3.2352 H   0  0  0  0  0  0  0  0  0  0  0  0
    0.3763   -1.1221   -2.7510 H   0  0  0  0  0  0  0  0  0  0  0  0
   -1.6239    0.5195   -1.1396 H   0  0  0  0  0  0  0  0  0  0  0  0
    0.1118    0.6175   -0.9772 H   0  0  0  0  0  0  0  0  0  0  0  0
    0.2323   -1.7709   -0.3154 H   0  0  0  0  0  0  0  0  0  0  0  0
   -1.4884   -1.9439   -0.4766 H   0  0  0  0  0  0  0  0  0  0  0  0
   -3.2085   -0.9169   -0.0971 H   0  0  0  0  0  0  0  0  0  0  0  0
   -4.8948   -2.4331    0.8822 H   0  0  0  0  0  0  0  0  0  0  0  0
   -3.2697   -2.9735    1.3024 H   0  0  0  0  0  0  0  0  0  0  0  0
   -4.2533   -2.1270    2.4991 H   0  0  0  0  0  0  0  0  0  0  0  0
   -4.7472    0.4335    2.1556 H   0  0  0  0  0  0  0  0  0  0  0  0
   -4.0938    1.2344    0.7281 H   0  0  0  0  0  0  0  0  0  0  0  0
   -5.3725    0.0329    0.5512 H   0  0  0  0  0  0  0  0  0  0  0  0
   -2.4244   -0.9276   -2.9006 H   0  0  0  0  0  0  0  0  0  0  0  0
   -0.7075   -1.2243   -0.2275 C   0  0  0  0  0  0  0  0  0  0  0  0
   -1.6595    0.7627    5.1022 C   0  0  1  0  0  0  0  0  0  0  0  0
    0.5010    1.2447   -7.3160 C   0  0  0  0  0  0  0  0  0  0  0  0
  1  2  1  0
  1 31  1  0
  1 32  1  0
  1 33  1  0
  2  3  1  0
  3 11  1  0
  3 34  1  0
  3 35  1  0
 68  4  1  0
 68  5  1  0
 68 10  1  0
 68 36  1  1
  4 37  1  0
  4 38  1  0
  4 39  1  0
  5 40  1  0
  5 41  1  0
  5 42  1  0
  6  7  2  0
  6 11  1  0
  6 14  1  0
  7  8  1  0
  7 67  1  0
  8  9  2  0
  8 27  1  0
  9 10  1  0
 10 11  2  0
 12 13  2  0
 12 17  1  0
 12 43  1  0
 13 14  1  0
 13 44  1  0
 14 15  2  0
 15 16  1  0
 15 45  1  0
 16 17  2  0
 16 46  1  0
 17 18  1  0
 19 69  2  0
 20 69  1  0
 20 47  1  0
 21 23  1  0
 21 48  1  0
 69 22  1  0
 22 23  1  0
 22 49  1  0
 22 50  1  0
 23 24  1  0
 23 51  1  1
 24 25  1  0
 24 52  1  0
 24 53  1  0
 25 26  1  0
 25 30  1  0
 25 54  1  1
 26 67  1  0
 26 55  1  0
 26 56  1  0
 67 57  1  0
 67 58  1  0
 27 28  1  0
 27 29  1  0
 27 59  1  6
 28 60  1  0
 28 61  1  0
 28 62  1  0
 29 63  1  0
 29 64  1  0
 29 65  1  0
 30 66  1  0
M  END
