
     RDKit          3D

 34 35  0  0  0  0  0  0  0  0999 V2000
    2.2332    0.6227   -1.5646 C   0  0  0  0  0  0  0  0  0  0  0  0
    2.5375   -1.7533   -1.4666 C   0  0  0  0  0  0  0  0  0  0  0  0
    1.9329   -0.5421    0.5434 C   0  0  0  0  0  0  0  0  0  0  0  0
   -1.5152    0.3356    0.1864 C   0  0  0  0  0  0  0  0  0  0  0  0
   -4.1770   -1.6224    0.2776 C   0  0  0  0  0  0  0  0  0  0  0  0
   -2.5020   -0.0489   -0.7123 C   0  0  0  0  0  0  0  0  0  0  0  0
   -2.9756    0.8836   -1.6284 C   0  0  0  0  0  0  0  0  0  0  0  0
   -2.4807    2.1802   -1.6325 C   0  0  0  0  0  0  0  0  0  0  0  0
   -1.5089    2.5674   -0.7226 C   0  0  0  0  0  0  0  0  0  0  0  0
   -1.0225    1.6351    0.1854 C   0  0  0  0  0  0  0  0  0  0  0  0
    1.9397    0.6361   -0.2083 C   0  0  0  0  0  0  0  0  0  0  0  0
    2.5363   -0.5727   -2.1932 C   0  0  0  0  0  0  0  0  0  0  0  0
    2.2355   -1.7336   -0.1170 C   0  0  0  0  0  0  0  0  0  0  0  0
   -0.0246    2.0134    1.1238 N   0  0  0  0  0  0  0  0  0  0  0  0
   -4.6221   -0.7561    0.9848 O   0  0  0  0  0  0  0  0  0  0  0  0
   -4.6395   -2.8667    0.2599 O   0  0  0  0  0  0  0  0  0  0  0  0
    2.3581    2.3585    1.7611 O   0  0  0  0  0  0  0  0  0  0  0  0
    1.5368    3.1902   -0.4562 O   0  0  0  0  0  0  0  0  0  0  0  0
    1.6151   -0.4745    1.8349 O   0  0  0  0  0  0  0  0  0  0  0  0
    1.5393    2.1742    0.5793 S   0  0  1  0  0  0  0  0  0  0  0  0
    2.2173   -3.2029    0.7963 Cl  0  0  0  0  0  0  0  0  0  0  0  0
    2.2258    1.5422   -2.1320 H   0  0  0  0  0  0  0  0  0  0  0  0
    2.7689   -2.6939   -1.9474 H   0  0  0  0  0  0  0  0  0  0  0  0
   -1.1224   -0.3820    0.8979 H   0  0  0  0  0  0  0  0  0  0  0  0
   -2.2514   -2.1648   -0.4289 H   0  0  0  0  0  0  0  0  0  0  0  0
   -3.3831   -1.7457   -1.6877 H   0  0  0  0  0  0  0  0  0  0  0  0
   -3.7355    0.5977   -2.3456 H   0  0  0  0  0  0  0  0  0  0  0  0
   -2.8631    2.8993   -2.3447 H   0  0  0  0  0  0  0  0  0  0  0  0
   -1.1433    3.5843   -0.7113 H   0  0  0  0  0  0  0  0  0  0  0  0
    2.7673   -0.5881   -3.2485 H   0  0  0  0  0  0  0  0  0  0  0  0
   -0.0545    1.4889    1.9928 H   0  0  0  0  0  0  0  0  0  0  0  0
   -5.3737   -2.9582    0.8857 H   0  0  0  0  0  0  0  0  0  0  0  0
    1.6052   -1.3493    2.2484 H   0  0  0  0  0  0  0  0  0  0  0  0
   -3.0353   -1.4494   -0.6945 C   0  0  0  0  0  0  0  0  0  0  0  0
 15  5  2  0
 16  5  1  0
  5 34  1  0
 34  6  1  0
  7  6  1  0
  7  8  2  0
  6  4  2  0
  8  9  1  0
  4 10  1  0
  9 10  2  0
 10 14  1  0
 20 14  1  1
 18 20  2  0
 20 11  1  0
 20 17  2  0
  1 11  2  0
  1 12  1  0
 11  3  1  0
 12  2  2  0
  3 19  1  0
  3 13  2  0
  2 13  1  0
 13 21  1  0
  1 22  1  0
  2 23  1  0
  4 24  1  0
 34 25  1  0
 34 26  1  0
  7 27  1  0
  8 28  1  0
  9 29  1  0
 12 30  1  0
 14 31  1  0
 16 32  1  0
 19 33  1  0
M  END
