
     RDKit          3D

 26 26  0  0  0  0  0  0  0  0999 V2000
    0.7777    0.9786    0.8240 O   0  0  0  0  0  0  0  0  0  0  0  0
    0.6354    1.0903   -0.3907 C   0  0  0  0  0  0  0  0  0  0  0  0
    1.6519    0.9177   -1.2356 N   0  0  0  0  0  0  0  0  0  0  0  0
    2.9791    0.6261   -0.7321 C   0  0  0  0  0  0  0  0  0  0  0  0
    2.9212   -0.3871    0.4958 B   0  0  0  0  0  0  0  0  0  0  0  0
   -0.7070    1.4332   -1.0077 C   0  0  0  0  0  0  0  0  0  0  0  0
   -1.7811    0.5225   -0.4825 C   0  0  0  0  0  0  0  0  0  0  0  0
   -2.4940    0.8456    0.6684 C   0  0  0  0  0  0  0  0  0  0  0  0
   -3.4600   -0.0176    1.1681 C   0  0  0  0  0  0  0  0  0  0  0  0
   -3.7219   -1.2201    0.5242 C   0  0  0  0  0  0  0  0  0  0  0  0
   -3.0154   -1.5506   -0.6249 C   0  0  0  0  0  0  0  0  0  0  0  0
   -2.0520   -0.6838   -1.1230 C   0  0  0  0  0  0  0  0  0  0  0  0
    2.2585   -1.5635    0.2963 O   0  0  0  0  0  0  0  0  0  0  0  0
    3.6788   -0.0964    1.5943 O   0  0  0  0  0  0  0  0  0  0  0  0
    1.5121    1.0609   -2.2216 H   0  0  0  0  0  0  0  0  0  0  0  0
   -0.9292    2.4715   -0.7483 H   0  0  0  0  0  0  0  0  0  0  0  0
   -0.6603    1.3813   -2.0969 H   0  0  0  0  0  0  0  0  0  0  0  0
    3.5507    0.1740   -1.5459 H   0  0  0  0  0  0  0  0  0  0  0  0
    3.5003    1.5515   -0.4658 H   0  0  0  0  0  0  0  0  0  0  0  0
   -2.2992    1.7838    1.1734 H   0  0  0  0  0  0  0  0  0  0  0  0
   -1.5089   -0.9474   -2.0233 H   0  0  0  0  0  0  0  0  0  0  0  0
   -4.0084    0.2494    2.0625 H   0  0  0  0  0  0  0  0  0  0  0  0
   -4.4745   -1.8931    0.9143 H   0  0  0  0  0  0  0  0  0  0  0  0
   -3.2155   -2.4841   -1.1353 H   0  0  0  0  0  0  0  0  0  0  0  0
    2.2545   -2.1705    1.0421 H   0  0  0  0  0  0  0  0  0  0  0  0
    3.6814   -0.7664    2.2847 H   0  0  0  0  0  0  0  0  0  0  0  0
  1  2  2  0
  2  3  1  0
  2  6  1  0
  3  4  1  0
  4  5  1  0
  5 13  1  0
  5 14  1  0
  6  7  1  0
  7  8  2  0
  7 12  1  0
  8  9  1  0
  9 10  2  0
 10 11  1  0
 11 12  2  0
  3 15  1  0
  6 16  1  0
  6 17  1  0
  4 18  1  0
  4 19  1  0
  8 20  1  0
 12 21  1  0
  9 22  1  0
 10 23  1  0
 11 24  1  0
 13 25  1  0
 14 26  1  0
M  END
