
     RDKit          3D

 19 19  0  0  0  0  0  0  0  0999 V2000
   -2.7914    1.2667    0.1840 O   0  0  0  0  0  0  0  0  0  0  0  0
   -2.8370   -0.9559    0.0414 O   0  0  0  0  0  0  0  0  0  0  0  0
    0.0251    1.2508    0.0340 C   0  0  0  0  0  0  0  0  0  0  0  0
    1.2701   -1.2270   -0.1550 C   0  0  0  0  0  0  0  0  0  0  0  0
    1.4130    1.1876   -0.0342 C   0  0  0  0  0  0  0  0  0  0  0  0
    2.0253   -0.0566   -0.1298 C   0  0  0  0  0  0  0  0  0  0  0  0
   -0.7325    0.0847    0.0092 C   0  0  0  0  0  0  0  0  0  0  0  0
   -0.1157   -1.1597   -0.0867 C   0  0  0  0  0  0  0  0  0  0  0  0
   -2.2113    0.2116    0.0878 C   0  0  0  0  0  0  0  0  0  0  0  0
    2.2332    2.4438   -0.0018 C   0  0  0  0  0  0  0  0  0  0  0  0
   -3.7945   -0.8186    0.0918 H   0  0  0  0  0  0  0  0  0  0  0  0
   -0.4648    2.2131    0.1099 H   0  0  0  0  0  0  0  0  0  0  0  0
    3.1076   -0.1163   -0.1814 H   0  0  0  0  0  0  0  0  0  0  0  0
   -0.6912   -2.0753   -0.1068 H   0  0  0  0  0  0  0  0  0  0  0  0
    2.7961   -2.3739   -0.2801 H   0  0  0  0  0  0  0  0  0  0  0  0
    2.0963    2.9777    0.9398 H   0  0  0  0  0  0  0  0  0  0  0  0
    3.2956    2.2329   -0.1133 H   0  0  0  0  0  0  0  0  0  0  0  0
    1.9405    3.1255   -0.8011 H   0  0  0  0  0  0  0  0  0  0  0  0
    1.8359   -2.4478   -0.2422 O   0  0  0  0  0  0  0  0  0  0  0  0
 19  4  1  0
  4  8  2  0
  4  6  1  0
  8  7  1  0
  1  9  2  0
  6  5  2  0
  7  9  1  0
  7  3  2  0
  9  2  1  0
  5  3  1  0
  5 10  1  0
  2 11  1  0
  3 12  1  0
  6 13  1  0
  8 14  1  0
 19 15  1  0
 10 16  1  0
 10 17  1  0
 10 18  1  0
M  END
