
     RDKit          3D

 63 67  0  0  0  0  0  0  0  0999 V2000
   -9.9795    1.5853   -1.0676 O   0  0  0  0  0  0  0  0  0  0  0  0
   -2.5663   -1.9416    0.7717 C   0  0  0  0  0  0  0  0  0  0  0  0
   -1.3941   -1.4331    0.2289 C   0  0  0  0  0  0  0  0  0  0  0  0
   -0.1489   -1.9610    0.5768 C   0  0  0  0  0  0  0  0  0  0  0  0
    9.0619    0.2571   -1.1564 C   0  0  0  0  0  0  0  0  0  0  0  0
   -0.0926   -3.0302    1.4723 C   0  0  0  0  0  0  0  0  0  0  0  0
   -2.5035   -3.0042    1.6730 C   0  0  0  0  0  0  0  0  0  0  0  0
    3.2048   -0.7630   -0.6625 C   0  0  0  0  0  0  0  0  0  0  0  0
    5.4898    0.2631   -0.8744 C   0  0  0  0  0  0  0  0  0  0  0  0
    7.2479    1.9925   -0.9744 C   0  0  0  0  0  0  0  0  0  0  0  0
   10.3003   -0.1866   -0.7729 C   0  0  0  0  0  0  0  0  0  0  0  0
   11.0987    0.5254    0.1111 C   0  0  0  0  0  0  0  0  0  0  0  0
   10.6910    1.7197    0.6470 C   0  0  0  0  0  0  0  0  0  0  0  0
    9.4255    2.1844    0.2625 C   0  0  0  0  0  0  0  0  0  0  0  0
    8.6189    1.4779   -0.6163 C   0  0  0  0  0  0  0  0  0  0  0  0
    4.5058   -0.4245    0.0491 C   0  0  0  0  0  0  0  0  0  0  0  0
   -1.2701   -3.5357    2.0065 C   0  0  0  0  0  0  0  0  0  0  0  0
   12.2510   -1.2372   -0.5957 C   0  0  0  0  0  0  0  0  0  0  0  0
    0.9667   -1.3690   -0.0195 N   0  0  0  0  0  0  0  0  0  0  0  0
   -8.8555    1.7874   -0.6307 C   0  0  0  0  0  0  0  0  0  0  0  0
   -4.2748   -0.0473    0.5406 C   0  0  0  0  0  0  0  0  0  0  0  0
   -3.8544   -1.3411    0.4131 C   0  0  0  0  0  0  0  0  0  0  0  0
    2.7083   -2.4151    1.0024 O   0  0  0  0  0  0  0  0  0  0  0  0
   -5.9764   -1.2929   -0.2946 C   0  0  0  0  0  0  0  0  0  0  0  0
   -4.8951   -2.0937   -0.1044 N   0  0  0  0  0  0  0  0  0  0  0  0
   -5.6304    0.0207    0.0984 C   0  0  0  0  0  0  0  0  0  0  0  0
   -7.2365   -1.6099   -0.7881 C   0  0  0  0  0  0  0  0  0  0  0  0
   -8.1705   -0.5916   -0.8920 C   0  0  0  0  0  0  0  0  0  0  0  0
   -7.8398    0.7400   -0.5010 C   0  0  0  0  0  0  0  0  0  0  0  0
   -6.5691    1.0296   -0.0079 C   0  0  0  0  0  0  0  0  0  0  0  0
    6.1878    1.2622   -0.3109 N   0  0  0  0  0  0  0  0  0  0  0  0
   -8.4644    2.9839   -0.2368 O   0  0  0  0  0  0  0  0  0  0  0  0
    5.6379   -0.0888   -2.0375 O   0  0  0  0  0  0  0  0  0  0  0  0
   10.9379   -1.3275   -1.1323 O   0  0  0  0  0  0  0  0  0  0  0  0
   12.2486   -0.1570    0.3283 O   0  0  0  0  0  0  0  0  0  0  0  0
   -1.4495   -0.6199   -0.4853 H   0  0  0  0  0  0  0  0  0  0  0  0
    0.8491   -3.4700    1.7543 H   0  0  0  0  0  0  0  0  0  0  0  0
   -3.4059   -3.4019    2.1188 H   0  0  0  0  0  0  0  0  0  0  0  0
    3.4155   -1.3380   -1.5687 H   0  0  0  0  0  0  0  0  0  0  0  0
    2.7041    0.1509   -0.9885 H   0  0  0  0  0  0  0  0  0  0  0  0
    7.1611    3.0429   -0.6944 H   0  0  0  0  0  0  0  0  0  0  0  0
    7.0830    1.9327   -2.0494 H   0  0  0  0  0  0  0  0  0  0  0  0
   11.3091    2.2770    1.3374 H   0  0  0  0  0  0  0  0  0  0  0  0
    9.0740    3.1253    0.6670 H   0  0  0  0  0  0  0  0  0  0  0  0
    4.3061    0.1844    0.9328 H   0  0  0  0  0  0  0  0  0  0  0  0
    4.9845   -1.3410    0.4036 H   0  0  0  0  0  0  0  0  0  0  0  0
   -1.2154   -4.3610    2.7040 H   0  0  0  0  0  0  0  0  0  0  0  0
   12.5038   -2.1636   -0.0800 H   0  0  0  0  0  0  0  0  0  0  0  0
    0.7548   -0.6454   -0.6898 H   0  0  0  0  0  0  0  0  0  0  0  0
   -7.5070   -2.6166   -1.0792 H   0  0  0  0  0  0  0  0  0  0  0  0
   -6.3115    2.0383    0.2874 H   0  0  0  0  0  0  0  0  0  0  0  0
    6.0343    1.4631    0.6641 H   0  0  0  0  0  0  0  0  0  0  0  0
   -9.1805    3.6258   -0.3567 H   0  0  0  0  0  0  0  0  0  0  0  0
   12.9682   -1.0385   -1.3990 H   0  0  0  0  0  0  0  0  0  0  0  0
   -3.2149    1.5361    1.3493 I   0  0  0  0  0  0  0  0  0  0  0  0
   -4.8460   -3.4975   -0.4485 C   0  0  0  0  0  0  0  0  0  0  0  0
    2.2871   -1.5994    0.2026 C   0  0  0  0  0  0  0  0  0  0  0  0
   -9.3794   -0.9104   -1.3634 O   0  0  0  0  0  0  0  0  0  0  0  0
    8.4462   -0.3047   -1.8469 H   0  0  0  0  0  0  0  0  0  0  0  0
   -5.1818   -4.1244    0.3772 H   0  0  0  0  0  0  0  0  0  0  0  0
   -5.4863   -3.6812   -1.3084 H   0  0  0  0  0  0  0  0  0  0  0  0
   -3.8323   -3.7807   -0.7164 H   0  0  0  0  0  0  0  0  0  0  0  0
   -9.9245   -0.0957   -1.3862 H   0  0  0  0  0  0  0  0  0  0  0  0
 35 18  1  0
 35 12  1  0
 18 34  1  0
  1 20  2  0
 12 13  2  0
 12 11  1  0
 13 14  1  0
 34 11  1  0
 20 32  1  0
 20 29  1  0
 11  5  2  0
 55 21  1  0
 30 29  1  0
 30 26  2  0
 14 15  2  0
 29 28  2  0
  5 15  1  0
 23 57  2  0
 26 21  1  0
 26 24  1  0
 15 10  1  0
 21 22  2  0
 28 58  1  0
 28 27  1  0
 57 19  1  0
 57  8  1  0
 24 27  2  0
 24 25  1  0
 22  2  1  0
 22 25  1  0
  3  2  2  0
  3  4  1  0
 19  4  1  0
 10 31  1  0
  2  7  1  0
  4  6  2  0
 25 56  1  0
 31  9  1  0
  8 16  1  0
  6 17  1  0
  7 17  2  0
 16  9  1  0
  9 33  2  0
  3 36  1  0
  5 59  1  0
  6 37  1  0
  7 38  1  0
  8 39  1  0
  8 40  1  0
 10 41  1  0
 10 42  1  0
 13 43  1  0
 14 44  1  0
 16 45  1  0
 16 46  1  0
 17 47  1  0
 18 48  1  0
 19 49  1  0
 56 60  1  0
 56 61  1  0
 56 62  1  0
 58 63  1  0
 27 50  1  0
 30 51  1  0
 31 52  1  0
 32 53  1  0
 18 54  1  0
M  END
