
     RDKit          3D

 38 39  0  0  0  0  0  0  0  0999 V2000
    4.9828    0.1594   -0.4247 C   0  0  0  0  0  0  0  0  0  0  0  0
    5.6857   -0.8444   -0.4396 O   0  0  0  0  0  0  0  0  0  0  0  0
    5.3138    1.3435   -1.3038 C   0  0  0  0  0  0  0  0  0  0  0  0
    3.8959    0.2640    0.3723 N   0  0  0  0  0  0  0  0  0  0  0  0
   -0.4089   -1.7044   -0.5357 O   0  0  0  0  0  0  0  0  0  0  0  0
   -3.1362   -0.9434   -0.4833 N   0  0  0  0  0  0  0  0  0  0  0  0
    3.4485   -0.8526    1.1860 C   0  0  0  0  0  0  0  0  0  0  0  0
   -1.2908    0.1346    0.4929 N   0  0  0  0  0  0  0  0  0  0  0  0
    2.1025   -1.3716    0.6943 C   0  0  0  0  0  0  0  0  0  0  0  0
    1.0728   -0.2481    0.6794 C   0  0  1  0  0  0  0  0  0  0  0  0
    1.5975    0.9378   -0.1435 C   0  0  0  0  0  0  0  0  0  0  0  0
    2.9643    1.3757    0.3683 C   0  0  0  0  0  0  0  0  0  0  0  0
   -0.2735   -0.7094    0.1433 C   0  0  0  0  0  0  0  0  0  0  0  0
   -2.6429    0.0951    0.1610 C   0  0  0  0  0  0  0  0  0  0  0  0
   -3.4357    1.1817    0.5504 C   0  0  0  0  0  0  0  0  0  0  0  0
   -4.7777    1.1577    0.2426 C   0  0  0  0  0  0  0  0  0  0  0  0
   -5.3205    0.0707   -0.4455 C   0  0  0  0  0  0  0  0  0  0  0  0
   -4.4352   -0.9431   -0.7739 C   0  0  0  0  0  0  0  0  0  0  0  0
   -6.7711    0.0072   -0.8121 C   0  0  0  0  0  0  0  0  0  0  0  0
    4.5218    1.5382   -2.0283 H   0  0  0  0  0  0  0  0  0  0  0  0
    5.4593    2.2565   -0.7262 H   0  0  0  0  0  0  0  0  0  0  0  0
    6.2306    1.1338   -1.8483 H   0  0  0  0  0  0  0  0  0  0  0  0
    4.1962   -1.6396    1.1635 H   0  0  0  0  0  0  0  0  0  0  0  0
    3.3615   -0.5126    2.2236 H   0  0  0  0  0  0  0  0  0  0  0  0
   -1.0229    0.9311    1.0516 H   0  0  0  0  0  0  0  0  0  0  0  0
    2.2221   -1.7872   -0.3089 H   0  0  0  0  0  0  0  0  0  0  0  0
    1.7736   -2.1847    1.3448 H   0  0  0  0  0  0  0  0  0  0  0  0
    0.9260    0.0998    1.7102 H   0  0  0  0  0  0  0  0  0  0  0  0
    1.6779    0.6506   -1.1958 H   0  0  0  0  0  0  0  0  0  0  0  0
    0.9129    1.7871   -0.0898 H   0  0  0  0  0  0  0  0  0  0  0  0
    2.8678    1.7535    1.3918 H   0  0  0  0  0  0  0  0  0  0  0  0
    3.3422    2.1968   -0.2345 H   0  0  0  0  0  0  0  0  0  0  0  0
   -3.0041    2.0223    1.0787 H   0  0  0  0  0  0  0  0  0  0  0  0
   -5.4083    1.9878    0.5379 H   0  0  0  0  0  0  0  0  0  0  0  0
   -4.7963   -1.8199   -1.3036 H   0  0  0  0  0  0  0  0  0  0  0  0
   -7.0243    0.7614   -1.5592 H   0  0  0  0  0  0  0  0  0  0  0  0
   -7.0337   -0.9664   -1.2241 H   0  0  0  0  0  0  0  0  0  0  0  0
   -7.4081    0.1860    0.0547 H   0  0  0  0  0  0  0  0  0  0  0  0
  1  2  2  0
  1  3  1  0
  1  4  1  0
  4  7  1  0
  4 12  1  0
  5 13  2  0
  6 14  2  0
  6 18  1  0
  7  9  1  0
  8 13  1  0
  8 14  1  0
  9 10  1  0
 10 11  1  0
 10 13  1  0
 11 12  1  0
 14 15  1  0
 15 16  2  0
 16 17  1  0
 17 18  2  0
 17 19  1  0
  3 20  1  0
  3 21  1  0
  3 22  1  0
  7 23  1  0
  7 24  1  0
  8 25  1  0
  9 26  1  0
  9 27  1  0
 10 28  1  1
 11 29  1  0
 11 30  1  0
 12 31  1  0
 12 32  1  0
 15 33  1  0
 16 34  1  0
 18 35  1  0
 19 36  1  0
 19 37  1  0
 19 38  1  0
M  END
