
     RDKit          3D

120119  0  0  0  0  0  0  0  0999 V2000
   -4.7791    6.2679   -1.3182 C   0  0  0  0  0  0  0  0  0  0  0  0
   -5.0699    5.1262   -2.0813 O   0  0  0  0  0  0  0  0  0  0  0  0
   -4.5044    5.8969    0.1292 C   0  0  2  0  0  0  0  0  0  0  0  0
   -3.4999    4.8815    0.2293 O   0  0  0  0  0  0  0  0  0  0  0  0
   -5.6999    5.4211    0.9227 C   0  0  0  0  0  0  0  0  0  0  0  0
   -6.2053    4.2093    0.3712 O   0  0  0  0  0  0  0  0  0  0  0  0
   -7.3185    3.7148    0.9006 C   0  0  0  0  0  0  0  0  0  0  0  0
   -7.8966    4.2345    1.8231 O   0  0  0  0  0  0  0  0  0  0  0  0
   -7.7507    2.4516    0.2067 C   0  0  0  0  0  0  0  0  0  0  0  0
   -9.0650    1.8962    0.7302 C   0  0  0  0  0  0  0  0  0  0  0  0
   -9.4991    0.6360   -0.0090 C   0  0  0  0  0  0  0  0  0  0  0  0
  -10.8187    0.0835    0.5131 C   0  0  0  0  0  0  0  0  0  0  0  0
  -11.2864   -1.1736   -0.2106 C   0  0  0  0  0  0  0  0  0  0  0  0
  -12.6040   -1.7120    0.3320 C   0  0  0  0  0  0  0  0  0  0  0  0
  -13.0909   -2.9708   -0.3760 C   0  0  0  0  0  0  0  0  0  0  0  0
  -14.4037   -3.4993    0.1882 C   0  0  0  0  0  0  0  0  0  0  0  0
  -14.8993   -4.7662   -0.4986 C   0  0  0  0  0  0  0  0  0  0  0  0
  -16.2057   -5.2897    0.0848 C   0  0  0  0  0  0  0  0  0  0  0  0
  -16.7086   -6.5602   -0.5896 C   0  0  0  0  0  0  0  0  0  0  0  0
  -18.0068   -7.0853    0.0114 C   0  0  0  0  0  0  0  0  0  0  0  0
  -18.5055   -8.3576   -0.6603 C   0  0  0  0  0  0  0  0  0  0  0  0
   -2.2165    5.2278    0.1649 C   0  0  0  0  0  0  0  0  0  0  0  0
   -1.8391    6.3586   -0.0126 O   0  0  0  0  0  0  0  0  0  0  0  0
   -1.3189    4.0381    0.3676 C   0  0  0  0  0  0  0  0  0  0  0  0
    0.1406    4.3093    0.0418 C   0  0  0  0  0  0  0  0  0  0  0  0
    1.0194    3.0961    0.3193 C   0  0  0  0  0  0  0  0  0  0  0  0
    2.4843    3.3378   -0.0187 C   0  0  0  0  0  0  0  0  0  0  0  0
    3.3762    2.1400    0.2827 C   0  0  0  0  0  0  0  0  0  0  0  0
    4.8397    2.3784   -0.0653 C   0  0  0  0  0  0  0  0  0  0  0  0
    5.7355    1.1853    0.2430 C   0  0  0  0  0  0  0  0  0  0  0  0
    7.1982    1.4237   -0.1087 C   0  0  0  0  0  0  0  0  0  0  0  0
    8.0950    0.2320    0.2026 C   0  0  0  0  0  0  0  0  0  0  0  0
    9.5576    0.4694   -0.1503 C   0  0  0  0  0  0  0  0  0  0  0  0
   10.4539   -0.7223    0.1620 C   0  0  0  0  0  0  0  0  0  0  0  0
   11.9169   -0.4860   -0.1900 C   0  0  0  0  0  0  0  0  0  0  0  0
   12.8119   -1.6780    0.1251 C   0  0  0  0  0  0  0  0  0  0  0  0
   14.2756   -1.4439   -0.2251 C   0  0  0  0  0  0  0  0  0  0  0  0
   15.1682   -2.6373    0.0918 C   0  0  0  0  0  0  0  0  0  0  0  0
   16.6331   -2.4059   -0.2549 C   0  0  0  0  0  0  0  0  0  0  0  0
   17.5230   -3.6001    0.0666 C   0  0  0  0  0  0  0  0  0  0  0  0
   18.9890   -3.3715   -0.2779 C   0  0  0  0  0  0  0  0  0  0  0  0
   19.8761   -4.5675    0.0438 C   0  0  0  0  0  0  0  0  0  0  0  0
   21.3428   -4.3438   -0.3018 C   0  0  0  0  0  0  0  0  0  0  0  0
   22.2175   -5.5466    0.0236 C   0  0  0  0  0  0  0  0  0  0  0  0
   -3.9051    6.8003   -1.7090 H   0  0  0  0  0  0  0  0  0  0  0  0
   -5.6063    6.9909   -1.3115 H   0  0  0  0  0  0  0  0  0  0  0  0
   -5.0792    5.3902   -3.0055 H   0  0  0  0  0  0  0  0  0  0  0  0
   -4.1716    6.8120    0.6299 H   0  0  0  0  0  0  0  0  0  0  0  0
   -5.4093    5.2697    1.9656 H   0  0  0  0  0  0  0  0  0  0  0  0
   -6.4609    6.2047    0.9007 H   0  0  0  0  0  0  0  0  0  0  0  0
   -7.8173    2.6580   -0.8660 H   0  0  0  0  0  0  0  0  0  0  0  0
   -6.9500    1.7122    0.3122 H   0  0  0  0  0  0  0  0  0  0  0  0
   -8.9743    1.6756    1.7972 H   0  0  0  0  0  0  0  0  0  0  0  0
   -9.8480    2.6542    0.6392 H   0  0  0  0  0  0  0  0  0  0  0  0
   -9.5917    0.8531   -1.0786 H   0  0  0  0  0  0  0  0  0  0  0  0
   -8.7208   -0.1299    0.0793 H   0  0  0  0  0  0  0  0  0  0  0  0
  -10.7208   -0.1321    1.5828 H   0  0  0  0  0  0  0  0  0  0  0  0
  -11.5912    0.8562    0.4310 H   0  0  0  0  0  0  0  0  0  0  0  0
  -11.3922   -0.9599   -1.2799 H   0  0  0  0  0  0  0  0  0  0  0  0
  -10.5157   -1.9485   -0.1316 H   0  0  0  0  0  0  0  0  0  0  0  0
  -12.4939   -1.9207    1.4021 H   0  0  0  0  0  0  0  0  0  0  0  0
  -13.3718   -0.9339    0.2551 H   0  0  0  0  0  0  0  0  0  0  0  0
  -13.2109   -2.7638   -1.4451 H   0  0  0  0  0  0  0  0  0  0  0  0
  -12.3240   -3.7494   -0.3032 H   0  0  0  0  0  0  0  0  0  0  0  0
  -14.2818   -3.6943    1.2596 H   0  0  0  0  0  0  0  0  0  0  0  0
  -15.1708   -2.7207    0.1102 H   0  0  0  0  0  0  0  0  0  0  0  0
  -15.0306   -4.5725   -1.5690 H   0  0  0  0  0  0  0  0  0  0  0  0
  -14.1310   -5.5441   -0.4250 H   0  0  0  0  0  0  0  0  0  0  0  0
  -16.0715   -5.4785    1.1558 H   0  0  0  0  0  0  0  0  0  0  0  0
  -16.9734   -4.5112    0.0107 H   0  0  0  0  0  0  0  0  0  0  0  0
  -16.8543   -6.3715   -1.6591 H   0  0  0  0  0  0  0  0  0  0  0  0
  -15.9385   -7.3371   -0.5227 H   0  0  0  0  0  0  0  0  0  0  0  0
  -17.8590   -7.2720    1.0797 H   0  0  0  0  0  0  0  0  0  0  0  0
  -18.7760   -6.3095   -0.0554 H   0  0  0  0  0  0  0  0  0  0  0  0
  -17.7629   -9.1551   -0.5934 H   0  0  0  0  0  0  0  0  0  0  0  0
  -19.4229   -8.7210   -0.1959 H   0  0  0  0  0  0  0  0  0  0  0  0
  -18.7145   -8.1920   -1.7189 H   0  0  0  0  0  0  0  0  0  0  0  0
   -1.4220    3.7287    1.4140 H   0  0  0  0  0  0  0  0  0  0  0  0
   -1.6995    3.1996   -0.2222 H   0  0  0  0  0  0  0  0  0  0  0  0
    0.2376    4.5957   -1.0094 H   0  0  0  0  0  0  0  0  0  0  0  0
    0.5017    5.1585    0.6274 H   0  0  0  0  0  0  0  0  0  0  0  0
    0.9303    2.8180    1.3752 H   0  0  0  0  0  0  0  0  0  0  0  0
    0.6514    2.2365   -0.2517 H   0  0  0  0  0  0  0  0  0  0  0  0
    2.5735    3.5994   -1.0788 H   0  0  0  0  0  0  0  0  0  0  0  0
    2.8472    4.2087    0.5385 H   0  0  0  0  0  0  0  0  0  0  0  0
    3.2922    1.8847    1.3449 H   0  0  0  0  0  0  0  0  0  0  0  0
    3.0094    1.2659   -0.2673 H   0  0  0  0  0  0  0  0  0  0  0  0
    4.9236    2.6295   -1.1286 H   0  0  0  0  0  0  0  0  0  0  0  0
    5.2047    3.2558    0.4808 H   0  0  0  0  0  0  0  0  0  0  0  0
    5.6540    0.9365    1.3070 H   0  0  0  0  0  0  0  0  0  0  0  0
    5.3698    0.3065   -0.3003 H   0  0  0  0  0  0  0  0  0  0  0  0
    7.2799    1.6705   -1.1732 H   0  0  0  0  0  0  0  0  0  0  0  0
    7.5634    2.3036    0.4330 H   0  0  0  0  0  0  0  0  0  0  0  0
    8.0140   -0.0138    1.2674 H   0  0  0  0  0  0  0  0  0  0  0  0
    7.7290   -0.6483   -0.3379 H   0  0  0  0  0  0  0  0  0  0  0  0
    9.6389    0.7150   -1.2151 H   0  0  0  0  0  0  0  0  0  0  0  0
    9.9233    1.3497    0.3905 H   0  0  0  0  0  0  0  0  0  0  0  0
   10.3720   -0.9677    1.2269 H   0  0  0  0  0  0  0  0  0  0  0  0
   10.0882   -1.6028   -0.3786 H   0  0  0  0  0  0  0  0  0  0  0  0
   11.9990   -0.2425   -1.2552 H   0  0  0  0  0  0  0  0  0  0  0  0
   12.2827    0.3951    0.3493 H   0  0  0  0  0  0  0  0  0  0  0  0
   12.7283   -1.9219    1.1902 H   0  0  0  0  0  0  0  0  0  0  0  0
   12.4459   -2.5587   -0.4147 H   0  0  0  0  0  0  0  0  0  0  0  0
   14.3596   -1.2007   -1.2902 H   0  0  0  0  0  0  0  0  0  0  0  0
   14.6423   -0.5635    0.3146 H   0  0  0  0  0  0  0  0  0  0  0  0
   15.0814   -2.8815    1.1566 H   0  0  0  0  0  0  0  0  0  0  0  0
   14.8020   -3.5174   -0.4489 H   0  0  0  0  0  0  0  0  0  0  0  0
   16.7203   -2.1648   -1.3203 H   0  0  0  0  0  0  0  0  0  0  0  0
   16.9996   -1.5249    0.2843 H   0  0  0  0  0  0  0  0  0  0  0  0
   17.4344   -3.8414    1.1318 H   0  0  0  0  0  0  0  0  0  0  0  0
   17.1563   -4.4808   -0.4729 H   0  0  0  0  0  0  0  0  0  0  0  0
   19.0782   -3.1298   -1.3430 H   0  0  0  0  0  0  0  0  0  0  0  0
   19.3561   -2.4914    0.2623 H   0  0  0  0  0  0  0  0  0  0  0  0
   19.7881   -4.8088    1.1091 H   0  0  0  0  0  0  0  0  0  0  0  0
   19.5077   -5.4481   -0.4948 H   0  0  0  0  0  0  0  0  0  0  0  0
   21.4307   -4.1042   -1.3662 H   0  0  0  0  0  0  0  0  0  0  0  0
   21.7117   -3.4651    0.2366 H   0  0  0  0  0  0  0  0  0  0  0  0
   21.8825   -6.4344   -0.5167 H   0  0  0  0  0  0  0  0  0  0  0  0
   23.2600   -5.3709   -0.2446 H   0  0  0  0  0  0  0  0  0  0  0  0
   22.1853   -5.7809    1.0894 H   0  0  0  0  0  0  0  0  0  0  0  0
 42 41  1  0
 42 43  1  0
 40 41  1  0
 40 39  1  0
 38 39  1  0
 38 37  1  0
 44 43  1  0
 36 37  1  0
 36 35  1  0
 34 35  1  0
 34 33  1  0
 32 33  1  0
 32 31  1  0
 30 31  1  0
 30 29  1  0
 28 29  1  0
 28 27  1  0
 26 27  1  0
 26 25  1  0
 25 24  1  0
 24 22  1  0
  2  1  1  0
 22  4  1  0
 22 23  2  0
  1  3  1  0
  4  3  1  0
  3  5  1  0
  5  6  1  0
  6  7  1  0
  8  7  2  0
  7  9  1  0
  9 10  1  0
 10 11  1  0
 11 12  1  0
 12 13  1  0
 13 14  1  0
 14 15  1  0
 21 20  1  0
 15 16  1  0
 20 19  1  0
 16 17  1  0
 19 18  1  0
 18 17  1  0
  1 45  1  0
  1 46  1  0
  2 47  1  0
  3 48  1  1
  5 49  1  0
  5 50  1  0
  9 51  1  0
  9 52  1  0
 10 53  1  0
 10 54  1  0
 11 55  1  0
 11 56  1  0
 12 57  1  0
 12 58  1  0
 13 59  1  0
 13 60  1  0
 14 61  1  0
 14 62  1  0
 15 63  1  0
 15 64  1  0
 16 65  1  0
 16 66  1  0
 17 67  1  0
 17 68  1  0
 18 69  1  0
 18 70  1  0
 19 71  1  0
 19 72  1  0
 20 73  1  0
 20 74  1  0
 21 75  1  0
 21 76  1  0
 21 77  1  0
 24 78  1  0
 24 79  1  0
 25 80  1  0
 25 81  1  0
 26 82  1  0
 26 83  1  0
 27 84  1  0
 27 85  1  0
 28 86  1  0
 28 87  1  0
 29 88  1  0
 29 89  1  0
 30 90  1  0
 30 91  1  0
 31 92  1  0
 31 93  1  0
 32 94  1  0
 32 95  1  0
 33 96  1  0
 33 97  1  0
 34 98  1  0
 34 99  1  0
 35100  1  0
 35101  1  0
 36102  1  0
 36103  1  0
 37104  1  0
 37105  1  0
 38106  1  0
 38107  1  0
 39108  1  0
 39109  1  0
 40110  1  0
 40111  1  0
 41112  1  0
 41113  1  0
 42114  1  0
 42115  1  0
 43116  1  0
 43117  1  0
 44118  1  0
 44119  1  0
 44120  1  0
M  END
