
     RDKit          3D

 49 52  0  0  0  0  0  0  0  0999 V2000
    1.8619   -2.2077    7.6676 N   0  0  0  0  0  0  0  0  0  0  0  0
    1.5075   -0.9910    7.5014 C   0  0  0  0  0  0  0  0  0  0  0  0
    2.1322    0.0120    8.1791 N   0  0  0  0  0  0  0  0  0  0  0  0
    0.3879   -0.5479    6.6223 C   0  0  0  0  0  0  0  0  0  0  0  0
    0.1439   -1.2199    5.4256 C   0  0  0  0  0  0  0  0  0  0  0  0
   -0.8952   -0.8418    4.5875 C   0  0  0  0  0  0  0  0  0  0  0  0
   -1.7126    0.2234    4.9619 C   0  0  0  0  0  0  0  0  0  0  0  0
   -1.4815    0.8956    6.1511 C   0  0  0  0  0  0  0  0  0  0  0  0
   -0.4310    0.5194    6.9780 C   0  0  0  0  0  0  0  0  0  0  0  0
   -1.1188   -1.5580    3.2796 C   0  0  0  0  0  0  0  0  0  0  0  0
   -0.7848   -0.7265    2.1342 N   0  0  0  0  0  0  0  0  0  0  0  0
   -1.7547   -0.1072    1.4404 C   0  0  0  0  0  0  0  0  0  0  0  0
   -2.9474   -0.2514    1.6631 O   0  0  0  0  0  0  0  0  0  0  0  0
   -1.3604    0.7839    0.2751 C   0  0  0  0  0  0  0  0  0  0  0  0
    0.0566    1.1098    0.2304 N   0  0  0  0  0  0  0  0  0  0  0  0
    0.9046   -0.0449    0.4990 C   0  0  0  0  0  0  0  0  0  0  0  0
    0.6292   -0.4773    1.9177 C   0  0  0  0  0  0  0  0  0  0  0  0
    0.5227    2.1703   -0.9479 S   0  0  1  0  0  0  0  0  0  0  0  0
   -0.3996    3.2866   -0.9000 O   0  0  0  0  0  0  0  0  0  0  0  0
    1.9516    2.3666   -0.8027 O   0  0  0  0  0  0  0  0  0  0  0  0
    0.2679    1.3421   -2.4701 C   0  0  0  0  0  0  0  0  0  0  0  0
   -0.8622    1.3785   -3.2143 C   0  0  0  0  0  0  0  0  0  0  0  0
   -0.7762    0.5056   -4.3413 C   0  0  0  0  0  0  0  0  0  0  0  0
    0.4542   -0.1728   -4.3914 C   0  0  0  0  0  0  0  0  0  0  0  0
    1.4897    0.2710   -3.0776 S   0  0  0  0  0  0  0  0  0  0  0  0
    0.7571   -1.0771   -5.4054 C   0  0  0  0  0  0  0  0  0  0  0  0
   -0.2092   -1.2895   -6.3655 C   0  0  0  0  0  0  0  0  0  0  0  0
    0.1082   -2.4124   -7.6418 Cl  0  0  0  0  0  0  0  0  0  0  0  0
   -1.4454   -0.6298   -6.3457 C   0  0  0  0  0  0  0  0  0  0  0  0
   -1.7271    0.2654   -5.3400 C   0  0  0  0  0  0  0  0  0  0  0  0
    1.2342   -2.8355    7.1793 H   0  0  0  0  0  0  0  0  0  0  0  0
    2.9720   -0.2392    8.6762 H   0  0  0  0  0  0  0  0  0  0  0  0
    2.1542    0.9286    7.7646 H   0  0  0  0  0  0  0  0  0  0  0  0
    0.7858   -2.0422    5.1301 H   0  0  0  0  0  0  0  0  0  0  0  0
   -2.5345    0.5279    4.3254 H   0  0  0  0  0  0  0  0  0  0  0  0
   -2.1250    1.7156    6.4417 H   0  0  0  0  0  0  0  0  0  0  0  0
   -0.2679    1.0469    7.9090 H   0  0  0  0  0  0  0  0  0  0  0  0
   -0.4973   -2.4549    3.2369 H   0  0  0  0  0  0  0  0  0  0  0  0
   -2.1547   -1.8778    3.1884 H   0  0  0  0  0  0  0  0  0  0  0  0
   -1.9493    1.6948    0.3636 H   0  0  0  0  0  0  0  0  0  0  0  0
   -1.6897    0.2609   -0.6343 H   0  0  0  0  0  0  0  0  0  0  0  0
    0.7024   -0.8610   -0.2045 H   0  0  0  0  0  0  0  0  0  0  0  0
    1.9543    0.2267    0.4185 H   0  0  0  0  0  0  0  0  0  0  0  0
    0.9991    0.2801    2.6138 H   0  0  0  0  0  0  0  0  0  0  0  0
    1.1751   -1.4007    2.1153 H   0  0  0  0  0  0  0  0  0  0  0  0
   -1.7222    1.9930   -2.9885 H   0  0  0  0  0  0  0  0  0  0  0  0
    1.7059   -1.5950   -5.4367 H   0  0  0  0  0  0  0  0  0  0  0  0
   -2.1742   -0.8268   -7.1194 H   0  0  0  0  0  0  0  0  0  0  0  0
   -2.6793    0.7787   -5.3199 H   0  0  0  0  0  0  0  0  0  0  0  0
  1  2  2  0
  1 31  1  0
  2  3  1  0
  2  4  1  0
  3 32  1  0
  3 33  1  0
  4  5  2  0
  4  9  1  0
  5  6  1  0
  5 34  1  0
  6  7  2  0
  6 10  1  0
  7  8  1  0
  7 35  1  0
  8  9  2  0
  8 36  1  0
  9 37  1  0
 10 11  1  0
 10 38  1  0
 10 39  1  0
 11 12  1  0
 11 17  1  0
 12 13  2  0
 12 14  1  0
 14 15  1  0
 14 40  1  0
 14 41  1  0
 15 16  1  0
 15 18  1  0
 16 17  1  0
 16 42  1  0
 16 43  1  0
 17 44  1  0
 17 45  1  0
 18 19  2  0
 18 20  2  0
 18 21  1  6
 21 22  2  0
 21 25  1  0
 22 23  1  0
 22 46  1  0
 23 24  2  0
 23 30  1  0
 24 25  1  0
 24 26  1  0
 26 27  2  0
 26 47  1  0
 27 28  1  0
 27 29  1  0
 29 30  2  0
 29 48  1  0
 30 49  1  0
M  END
