
     RDKit          3D

 29 30  0  0  0  0  0  0  0  0999 V2000
   -1.3212    0.4677    0.0864 C   0  0  0  0  0  0  0  0  0  0  0  0
   -2.7849    0.5008    0.0408 C   0  0  0  0  0  0  0  0  0  0  0  0
   -0.6583    1.7197    0.0628 C   0  0  0  0  0  0  0  0  0  0  0  0
   -0.2079    2.7818    0.0300 N   0  0  0  0  0  0  0  0  0  0  0  0
   -3.4754   -0.4941    0.0455 O   0  0  0  0  0  0  0  0  0  0  0  0
   -3.2546    1.7323   -0.0048 O   0  0  0  0  0  0  0  0  0  0  0  0
   -4.6734    1.9002   -0.0569 C   0  0  0  0  0  0  0  0  0  0  0  0
   -0.6817   -0.7473    0.1240 C   0  0  0  0  0  0  0  0  0  0  0  0
    0.6699   -0.9341    0.1844 N   0  0  0  0  0  0  0  0  0  0  0  0
    1.1347   -2.2473    0.1709 C   0  0  0  0  0  0  0  0  0  0  0  0
   -0.0070   -3.2135    0.1308 C   0  0  0  0  0  0  0  0  0  0  0  0
   -1.5395   -2.2590    0.0973 S   0  0  0  0  0  0  0  0  0  0  0  0
    1.6181    0.1196    0.2623 C   0  0  0  0  0  0  0  0  0  0  0  0
    1.9893    0.6490    1.4876 C   0  0  0  0  0  0  0  0  0  0  0  0
    2.9156    1.6776    1.5346 C   0  0  0  0  0  0  0  0  0  0  0  0
    3.4754    2.1588    0.3579 C   0  0  0  0  0  0  0  0  0  0  0  0
    3.1252    1.6176   -0.8714 C   0  0  0  0  0  0  0  0  0  0  0  0
    2.1991    0.5974   -0.8998 C   0  0  0  0  0  0  0  0  0  0  0  0
    1.8274    0.0598   -2.0641 F   0  0  0  0  0  0  0  0  0  0  0  0
    2.3017   -2.5222    0.1956 O   0  0  0  0  0  0  0  0  0  0  0  0
   -5.1522    1.4991    0.8359 H   0  0  0  0  0  0  0  0  0  0  0  0
   -4.8407    2.9715   -0.1064 H   0  0  0  0  0  0  0  0  0  0  0  0
   -5.0960    1.4247   -0.9412 H   0  0  0  0  0  0  0  0  0  0  0  0
    0.0661   -3.8417   -0.7573 H   0  0  0  0  0  0  0  0  0  0  0  0
    0.0210   -3.8563    1.0109 H   0  0  0  0  0  0  0  0  0  0  0  0
    1.5406    0.2611    2.3928 H   0  0  0  0  0  0  0  0  0  0  0  0
    3.2005    2.1018    2.4872 H   0  0  0  0  0  0  0  0  0  0  0  0
    4.1988    2.9617    0.3928 H   0  0  0  0  0  0  0  0  0  0  0  0
    3.5610    1.9825   -1.7918 H   0  0  0  0  0  0  0  0  0  0  0  0
 15 14  2  0
 15 16  1  0
 14 13  1  0
 16 17  2  0
 20 10  2  0
 13  9  1  0
 13 18  2  0
 10  9  1  0
 10 11  1  0
 17 18  1  0
  9  8  1  0
 18 19  1  0
 11 12  1  0
  4  3  3  0
  8 12  1  0
  8  1  2  0
  3  1  1  0
  1  2  1  0
  2  5  2  0
  2  6  1  0
  6  7  1  0
  7 21  1  0
  7 22  1  0
  7 23  1  0
 11 24  1  0
 11 25  1  0
 14 26  1  0
 15 27  1  0
 16 28  1  0
 17 29  1  0
M  END
