
     RDKit          3D

 31 31  0  0  0  0  0  0  0  0999 V2000
    4.6090    0.5963   -0.0921 C   0  0  0  0  0  0  0  0  0  0  0  0
    3.3780   -1.2858   -1.0228 N   0  0  0  0  0  0  0  0  0  0  0  0
    5.2008    0.1091    0.8724 O   0  0  0  0  0  0  0  0  0  0  0  0
   -3.1966   -2.0853   -0.5254 N   0  0  0  0  0  0  0  0  0  0  0  0
   -1.7279   -0.4694    0.5399 C   0  0  0  0  0  0  0  0  0  0  0  0
   -2.7840    0.4311    0.6910 C   0  0  0  0  0  0  0  0  0  0  0  0
   -4.0551    0.0489    0.2209 C   0  0  0  0  0  0  0  0  0  0  0  0
   -4.2161   -1.2184   -0.3806 C   0  0  0  0  0  0  0  0  0  0  0  0
   -0.3656   -0.1122    1.0203 C   0  0  1  0  0  0  0  0  0  0  0  0
    0.1506   -0.9713    2.0064 O   0  0  0  0  0  0  0  0  0  0  0  0
    3.3211    0.1336   -0.7581 C   0  0  1  0  0  0  0  0  0  0  0  0
    2.1722    0.6207    0.1340 C   0  0  0  0  0  0  0  0  0  0  0  0
    0.6554   -0.0522   -0.4790 S   0  0  0  0  0  0  0  0  0  0  0  0
   -5.0602    0.9740    0.3950 O   0  0  0  0  0  0  0  0  0  0  0  0
   -5.5166    1.6286   -0.7856 C   0  0  0  0  0  0  0  0  0  0  0  0
    5.1499    1.7023   -0.6700 O   0  0  0  0  0  0  0  0  0  0  0  0
    3.7262   -1.7885   -0.2290 H   0  0  0  0  0  0  0  0  0  0  0  0
    2.4655   -1.6223   -1.2677 H   0  0  0  0  0  0  0  0  0  0  0  0
   -1.1784   -2.4584   -0.2149 H   0  0  0  0  0  0  0  0  0  0  0  0
   -2.6452    1.4156    1.1615 H   0  0  0  0  0  0  0  0  0  0  0  0
   -5.1938   -1.5599   -0.7633 H   0  0  0  0  0  0  0  0  0  0  0  0
   -0.3453    0.9030    1.5071 H   0  0  0  0  0  0  0  0  0  0  0  0
    0.6606   -1.6691    1.5728 H   0  0  0  0  0  0  0  0  0  0  0  0
    3.2379    0.6563   -1.7611 H   0  0  0  0  0  0  0  0  0  0  0  0
    2.3273    0.3068    1.1958 H   0  0  0  0  0  0  0  0  0  0  0  0
    2.1321    1.7364    0.1007 H   0  0  0  0  0  0  0  0  0  0  0  0
   -4.6848    2.1980   -1.2667 H   0  0  0  0  0  0  0  0  0  0  0  0
   -5.9541    0.8898   -1.5001 H   0  0  0  0  0  0  0  0  0  0  0  0
   -6.3057    2.3259   -0.4039 H   0  0  0  0  0  0  0  0  0  0  0  0
    5.9663    1.9485   -0.2035 H   0  0  0  0  0  0  0  0  0  0  0  0
   -1.9859   -1.7170   -0.0758 C   0  0  0  0  0  0  0  0  0  0  0  0
  1  3  2  0
  1 16  1  0
  2 11  1  0
  2 17  1  0
  2 18  1  0
  4 31  2  0
 31 19  1  0
  5 31  1  0
  5  9  1  0
  6  5  2  0
  6 20  1  0
  7  6  1  0
  7  8  2  0
  8  4  1  0
  8 21  1  0
  9 13  1  0
  9 22  1  1
 10  9  1  0
 10 23  1  0
 11  1  1  0
 11 12  1  0
 11 24  1  6
 12 25  1  0
 12 26  1  0
 13 12  1  0
 14  7  1  0
 15 14  1  0
 15 27  1  0
 15 28  1  0
 15 29  1  0
 16 30  1  0
M  END
