
     RDKit          3D

 43 44  0  0  0  0  0  0  0  0999 V2000
    5.9302    0.8423    2.1113 C   0  0  0  0  0  0  0  0  0  0  0  0
    4.8763    1.3764    1.1525 C   0  0  0  0  0  0  0  0  0  0  0  0
    3.7433    0.3827    0.9276 C   0  0  0  0  0  0  0  0  0  0  0  0
    2.6998    0.9345   -0.0334 C   0  0  0  0  0  0  0  0  0  0  0  0
    1.6168   -0.0130   -0.3096 N   0  0  0  0  0  0  0  0  0  0  0  0
    0.5147   -0.1010    0.5052 C   0  0  0  0  0  0  0  0  0  0  0  0
    0.4412    0.7177    1.5584 N   0  0  0  0  0  0  0  0  0  0  0  0
    1.7924   -0.8657   -1.3878 C   0  0  0  0  0  0  0  0  0  0  0  0
    2.7860   -0.8295   -2.0842 O   0  0  0  0  0  0  0  0  0  0  0  0
    0.7781   -1.7438   -1.6166 N   0  0  0  0  0  0  0  0  0  0  0  0
   -0.3977   -1.8762   -0.8911 C   0  0  0  0  0  0  0  0  0  0  0  0
   -1.2270   -2.7145   -1.2174 O   0  0  0  0  0  0  0  0  0  0  0  0
   -0.5078   -0.9816    0.2063 C   0  0  0  0  0  0  0  0  0  0  0  0
   -1.6386   -1.0665    1.0420 N   0  0  0  0  0  0  0  0  0  0  0  0
   -1.7134   -2.1303    2.0364 C   0  0  0  0  0  0  0  0  0  0  0  0
   -3.6063   -0.2184    1.7386 O   0  0  0  0  0  0  0  0  0  0  0  0
   -2.6639    1.4918   -2.4379 C   0  0  0  0  0  0  0  0  0  0  0  0
   -2.6225    2.8308   -2.0700 C   0  0  0  0  0  0  0  0  0  0  0  0
   -2.5822    3.1775   -0.7264 C   0  0  0  0  0  0  0  0  0  0  0  0
   -2.5856    2.1885    0.2476 C   0  0  0  0  0  0  0  0  0  0  0  0
   -2.6700   -0.1904    0.9564 C   0  0  0  0  0  0  0  0  0  0  0  0
   -2.6015    0.8469   -0.1197 C   0  0  0  0  0  0  0  0  0  0  0  0
   -2.6472    0.5014   -1.4672 C   0  0  0  0  0  0  0  0  0  0  0  0
    6.7399    1.5587    2.2510 H   0  0  0  0  0  0  0  0  0  0  0  0
    5.4995    0.6335    3.0921 H   0  0  0  0  0  0  0  0  0  0  0  0
    6.3694   -0.0853    1.7396 H   0  0  0  0  0  0  0  0  0  0  0  0
    4.4699    2.3147    1.5416 H   0  0  0  0  0  0  0  0  0  0  0  0
    5.3396    1.6196    0.1918 H   0  0  0  0  0  0  0  0  0  0  0  0
    4.1465   -0.5488    0.5207 H   0  0  0  0  0  0  0  0  0  0  0  0
    3.2858    0.1269    1.8885 H   0  0  0  0  0  0  0  0  0  0  0  0
    2.2644    1.8658    0.3317 H   0  0  0  0  0  0  0  0  0  0  0  0
    3.1635    1.1853   -0.9839 H   0  0  0  0  0  0  0  0  0  0  0  0
    1.2275    1.2409    1.8991 H   0  0  0  0  0  0  0  0  0  0  0  0
   -0.3074    0.5921    2.2175 H   0  0  0  0  0  0  0  0  0  0  0  0
    0.9046   -2.3663   -2.4040 H   0  0  0  0  0  0  0  0  0  0  0  0
   -1.7179   -1.7303    3.0509 H   0  0  0  0  0  0  0  0  0  0  0  0
   -2.6086   -2.7361    1.9021 H   0  0  0  0  0  0  0  0  0  0  0  0
   -0.8433   -2.7691    1.9222 H   0  0  0  0  0  0  0  0  0  0  0  0
   -2.5545    4.2194   -0.4350 H   0  0  0  0  0  0  0  0  0  0  0  0
   -2.5654    2.4647    1.2946 H   0  0  0  0  0  0  0  0  0  0  0  0
   -2.6268    3.6019   -2.8292 H   0  0  0  0  0  0  0  0  0  0  0  0
   -2.6841   -0.5393   -1.7630 H   0  0  0  0  0  0  0  0  0  0  0  0
   -2.7083    1.2173   -3.4838 H   0  0  0  0  0  0  0  0  0  0  0  0
  1  2  1  0
  2  3  1  0
  3  4  1  0
  4  5  1  0
  5  6  1  0
  5  8  1  0
  6  7  1  0
  6 13  2  0
  8  9  2  0
  8 10  1  0
 10 11  1  0
 11 12  2  0
 11 13  1  0
 13 14  1  0
 14 15  1  0
 14 21  1  0
 19 20  1  0
 19 18  2  0
 20 22  2  0
 22 23  1  0
 22 21  1  0
 23 17  2  0
 17 18  1  0
 21 16  2  0
  1 24  1  0
  1 25  1  0
  1 26  1  0
  2 27  1  0
  2 28  1  0
  3 29  1  0
  3 30  1  0
  4 31  1  0
  4 32  1  0
  7 33  1  0
  7 34  1  0
 10 35  1  0
 15 36  1  0
 15 37  1  0
 15 38  1  0
 19 39  1  0
 20 40  1  0
 18 41  1  0
 23 42  1  0
 17 43  1  0
M  END
