
     RDKit          3D

 36 36  0  0  0  0  0  0  0  0999 V2000
    0.7186    1.1979   -3.0953 O   0  0  0  0  0  0  0  0  0  0  0  0
    0.0272   -0.2366   -2.9325 P   0  0  2  0  0  0  0  0  0  0  0  0
    0.5889   -1.3134   -3.7674 O   0  0  0  0  0  0  0  0  0  0  0  0
   -1.5167    0.1175   -3.0948 O   0  0  0  0  0  0  0  0  0  0  0  0
    0.1032   -0.6123   -1.3844 O   0  0  0  0  0  0  0  0  0  0  0  0
   -0.4170    0.2375   -0.3493 C   0  0  0  0  0  0  0  0  0  0  0  0
    0.1526   -0.2165    0.9586 C   0  0  0  0  0  0  0  0  0  0  0  0
   -0.6464   -0.9500    1.8213 C   0  0  0  0  0  0  0  0  0  0  0  0
   -0.2344   -1.4024    2.9973 N   0  0  0  0  0  0  0  0  0  0  0  0
    1.0083   -1.1569    3.3830 C   0  0  0  0  0  0  0  0  0  0  0  0
    1.4567   -1.6788    4.7148 C   0  0  0  0  0  0  0  0  0  0  0  0
    1.8904   -0.4277    2.5728 C   0  0  0  0  0  0  0  0  0  0  0  0
    3.1594   -0.1770    2.9450 O   0  0  0  0  0  0  0  0  0  0  0  0
    1.4689    0.0572    1.3383 C   0  0  0  0  0  0  0  0  0  0  0  0
    2.3949    0.9152    0.5091 C   0  0  0  0  0  0  0  0  0  0  0  0
    2.3283    2.3285    0.8705 N   0  0  0  0  0  0  0  0  0  0  0  0
    2.7496    2.7297    2.1367 C   0  0  0  0  0  0  0  0  0  0  0  0
    1.9794    3.4066    2.9934 C   0  0  0  0  0  0  0  0  0  0  0  0
    4.1994    2.5051    2.4161 C   0  0  0  0  0  0  0  0  0  0  0  0
    4.5040    2.6107    3.7005 O   0  0  0  0  0  0  0  0  0  0  0  0
    5.0148    2.2819    1.5552 O   0  0  0  0  0  0  0  0  0  0  0  0
    1.6480    1.1589   -3.3575 H   0  0  0  0  0  0  0  0  0  0  0  0
   -1.7903    0.3801   -3.9838 H   0  0  0  0  0  0  0  0  0  0  0  0
   -1.5050    0.1559   -0.3264 H   0  0  0  0  0  0  0  0  0  0  0  0
   -0.1719    1.2830   -0.5503 H   0  0  0  0  0  0  0  0  0  0  0  0
   -1.6712   -1.1785    1.5466 H   0  0  0  0  0  0  0  0  0  0  0  0
    1.7343   -0.8709    5.3972 H   0  0  0  0  0  0  0  0  0  0  0  0
    0.6532   -2.2421    5.1830 H   0  0  0  0  0  0  0  0  0  0  0  0
    2.3197   -2.3432    4.6247 H   0  0  0  0  0  0  0  0  0  0  0  0
    3.3437   -0.5105    3.8302 H   0  0  0  0  0  0  0  0  0  0  0  0
    3.4212    0.5658    0.5920 H   0  0  0  0  0  0  0  0  0  0  0  0
    2.1453    0.8409   -0.5472 H   0  0  0  0  0  0  0  0  0  0  0  0
    1.4121    2.7059    0.6684 H   0  0  0  0  0  0  0  0  0  0  0  0
    0.9388    3.6008    2.7671 H   0  0  0  0  0  0  0  0  0  0  0  0
    2.3646    3.8256    3.9098 H   0  0  0  0  0  0  0  0  0  0  0  0
    5.4606    2.5129    3.8169 H   0  0  0  0  0  0  0  0  0  0  0  0
  2  1  1  1
  1 22  1  0
  2  3  2  0
  2  5  1  0
  2  4  1  0
  4 23  1  0
  5  6  1  0
  6  7  1  0
  6 24  1  0
  6 25  1  0
  7 14  2  0
  7  8  1  0
  8  9  2  0
  8 26  1  0
  9 10  1  0
 10 12  2  0
 10 11  1  0
 11 27  1  0
 11 28  1  0
 11 29  1  0
 12 13  1  0
 12 14  1  0
 13 30  1  0
 14 15  1  0
 15 16  1  0
 15 31  1  0
 15 32  1  0
 16 17  1  0
 16 33  1  0
 17 19  1  0
 17 18  2  0
 18 34  1  0
 18 35  1  0
 19 21  2  0
 19 20  1  0
 20 36  1  0
M  END
