
     RDKit          3D

 47 50  0  0  0  0  0  0  0  0999 V2000
    6.4328    1.2966   -0.7215 N   0  0  0  0  0  0  0  0  0  0  0  0
    6.1938   -0.3280   -0.5277 S   0  0  2  0  0  0  0  0  0  0  0  0
    7.0718   -0.9076    0.4804 O   0  0  0  0  0  0  0  0  0  0  0  0
    6.2145   -0.8903   -1.8708 O   0  0  0  0  0  0  0  0  0  0  0  0
    4.5467   -0.3659    0.1006 C   0  0  0  0  0  0  0  0  0  0  0  0
    3.4853   -0.1937   -0.7801 C   0  0  0  0  0  0  0  0  0  0  0  0
    4.3173   -0.5814    1.4515 C   0  0  0  0  0  0  0  0  0  0  0  0
    3.0180   -0.6008    1.9258 C   0  0  0  0  0  0  0  0  0  0  0  0
    2.1891   -0.2317   -0.3085 C   0  0  0  0  0  0  0  0  0  0  0  0
    1.9463   -0.4225    1.0533 C   0  0  0  0  0  0  0  0  0  0  0  0
    0.6552   -0.4955    1.5754 N   0  0  0  0  0  0  0  0  0  0  0  0
   -0.4849   -0.0844    0.9546 C   0  0  0  0  0  0  0  0  0  0  0  0
   -0.5274    1.1535    0.3857 N   0  0  0  0  0  0  0  0  0  0  0  0
   -1.6621    1.6329   -0.2237 C   0  0  0  0  0  0  0  0  0  0  0  0
   -2.7933    0.9359   -0.2888 N   0  0  0  0  0  0  0  0  0  0  0  0
   -1.4193    2.8564   -0.6562 N   0  0  0  0  0  0  0  0  0  0  0  0
   -0.1488    3.0702   -0.2716 C   0  0  0  0  0  0  0  0  0  0  0  0
    0.4410    2.0868    0.3679 N   0  0  0  0  0  0  0  0  0  0  0  0
   -1.6431   -0.8085    0.9092 C   0  0  0  0  0  0  0  0  0  0  0  0
   -2.7794   -0.2455    0.2750 C   0  0  0  0  0  0  0  0  0  0  0  0
   -3.8496   -1.0157    0.2544 O   0  0  0  0  0  0  0  0  0  0  0  0
   -5.0454   -0.5883   -0.4271 C   0  0  1  0  0  0  0  0  0  0  0  0
   -5.7925   -1.8510   -0.8205 C   0  0  0  0  0  0  0  0  0  0  0  0
   -7.1068   -1.4943   -1.5110 C   0  0  0  0  0  0  0  0  0  0  0  0
   -7.9696   -0.5941   -0.6341 C   0  0  0  0  0  0  0  0  0  0  0  0
   -7.2061    0.6587   -0.2190 C   0  0  0  0  0  0  0  0  0  0  0  0
   -5.8880    0.3055    0.4690 C   0  0  0  0  0  0  0  0  0  0  0  0
    6.5946    1.7750    0.1591 H   0  0  0  0  0  0  0  0  0  0  0  0
    7.1957    1.4836   -1.3659 H   0  0  0  0  0  0  0  0  0  0  0  0
    3.6566   -0.0508   -1.8385 H   0  0  0  0  0  0  0  0  0  0  0  0
    5.1367   -0.7244    2.1421 H   0  0  0  0  0  0  0  0  0  0  0  0
    2.8358   -0.7538    2.9818 H   0  0  0  0  0  0  0  0  0  0  0  0
    1.3747   -0.1407   -1.0138 H   0  0  0  0  0  0  0  0  0  0  0  0
    0.5140   -1.1880    2.2964 H   0  0  0  0  0  0  0  0  0  0  0  0
    0.3729    3.9958   -0.4645 H   0  0  0  0  0  0  0  0  0  0  0  0
   -1.6778   -1.8067    1.3213 H   0  0  0  0  0  0  0  0  0  0  0  0
   -4.7604   -0.0391   -1.3298 H   0  0  0  0  0  0  0  0  0  0  0  0
   -5.1704   -2.4606   -1.4805 H   0  0  0  0  0  0  0  0  0  0  0  0
   -5.9982   -2.4483    0.0740 H   0  0  0  0  0  0  0  0  0  0  0  0
   -6.8926   -0.9843   -2.4561 H   0  0  0  0  0  0  0  0  0  0  0  0
   -7.6435   -2.4095   -1.7687 H   0  0  0  0  0  0  0  0  0  0  0  0
   -8.8869   -0.3212   -1.1607 H   0  0  0  0  0  0  0  0  0  0  0  0
   -8.2752   -1.1444    0.2622 H   0  0  0  0  0  0  0  0  0  0  0  0
   -7.0058    1.2751   -1.1018 H   0  0  0  0  0  0  0  0  0  0  0  0
   -7.8125    1.2711    0.4514 H   0  0  0  0  0  0  0  0  0  0  0  0
   -6.0961   -0.2224    1.4057 H   0  0  0  0  0  0  0  0  0  0  0  0
   -5.3413    1.2153    0.7240 H   0  0  0  0  0  0  0  0  0  0  0  0
  2  1  1  6
  1 28  1  0
  1 29  1  0
  2  3  2  0
  2  4  2  0
  2  5  1  0
  5  6  2  0
  5  7  1  0
  6  9  1  0
  6 30  1  0
  7  8  2  0
  7 31  1  0
  8 10  1  0
  8 32  1  0
  9 10  2  0
  9 33  1  0
 10 11  1  0
 11 12  1  0
 11 34  1  0
 12 13  1  0
 12 19  2  0
 13 14  1  0
 13 18  1  0
 14 15  1  0
 14 16  2  0
 15 20  2  0
 16 17  1  0
 17 18  2  0
 17 35  1  0
 19 20  1  0
 19 36  1  0
 20 21  1  0
 21 22  1  0
 22 23  1  0
 22 27  1  0
 22 37  1  6
 23 24  1  0
 23 38  1  0
 23 39  1  0
 24 25  1  0
 24 40  1  0
 24 41  1  0
 25 26  1  0
 25 42  1  0
 25 43  1  0
 26 27  1  0
 26 44  1  0
 26 45  1  0
 27 46  1  0
 27 47  1  0
M  END
