
     RDKit          3D

 50 51  0  0  0  0  0  0  0  0999 V2000
   -0.8939   -0.9020    0.0059 N   0  0  0  0  0  0  0  0  0  0  0  0
   -1.3144   -2.2061    0.2131 C   0  0  0  0  0  0  0  0  0  0  0  0
   -2.4771   -2.5314    0.2709 O   0  0  0  0  0  0  0  0  0  0  0  0
   -0.2952   -3.1128    0.3520 N   0  0  0  0  0  0  0  0  0  0  0  0
    1.0667   -2.8985    0.2626 C   0  0  0  0  0  0  0  0  0  0  0  0
    1.8557   -3.8107    0.3936 O   0  0  0  0  0  0  0  0  0  0  0  0
    1.4206   -1.5117    0.0032 C   0  0  0  0  0  0  0  0  0  0  0  0
    0.4284   -0.5996   -0.1050 C   0  0  0  0  0  0  0  0  0  0  0  0
    2.7854   -1.1570   -0.1425 C   0  0  0  0  0  0  0  0  0  0  0  0
    3.9455   -0.8614   -0.2852 C   0  0  0  0  0  0  0  0  0  0  0  0
    5.3379   -0.4745   -0.4605 C   0  0  0  0  0  0  0  0  0  0  0  0
   -1.8702    0.1612   -0.1859 C   0  0  1  0  0  0  0  0  0  0  0  0
    5.6805    0.8520    0.2245 C   0  0  0  0  0  0  0  0  0  0  0  0
    7.1285    1.2571   -0.0155 C   0  0  0  0  0  0  0  0  0  0  0  0
    7.4994    2.5734    0.6564 C   0  0  0  0  0  0  0  0  0  0  0  0
    8.9434    2.9789    0.3953 C   0  0  0  0  0  0  0  0  0  0  0  0
   -2.6682    0.0077   -1.4790 C   0  0  2  0  0  0  0  0  0  0  0  0
   -1.7318   -0.0280   -2.5220 O   0  0  0  0  0  0  0  0  0  0  0  0
   -3.6107    1.2001   -1.5721 C   0  0  1  0  0  0  0  0  0  0  0  0
   -4.3864    1.0357   -2.7309 O   0  0  0  0  0  0  0  0  0  0  0  0
   -4.4674    1.2917   -0.3130 C   0  0  2  0  0  0  0  0  0  0  0  0
   -5.2507    2.4569   -0.4274 O   0  0  0  0  0  0  0  0  0  0  0  0
   -3.5600    1.3443    0.9239 C   0  0  2  0  0  0  0  0  0  0  0  0
   -2.6898    0.2239    0.9332 O   0  0  0  0  0  0  0  0  0  0  0  0
   -4.3562    1.3110    2.2088 C   0  0  0  0  0  0  0  0  0  0  0  0
   -3.4799    1.4609    3.2979 O   0  0  0  0  0  0  0  0  0  0  0  0
   -0.5933   -4.0665    0.5206 H   0  0  0  0  0  0  0  0  0  0  0  0
    0.6555    0.4405   -0.2896 H   0  0  0  0  0  0  0  0  0  0  0  0
    5.9803   -1.2694   -0.0705 H   0  0  0  0  0  0  0  0  0  0  0  0
    5.5582   -0.4015   -1.5299 H   0  0  0  0  0  0  0  0  0  0  0  0
   -1.2767    1.0824   -0.2768 H   0  0  0  0  0  0  0  0  0  0  0  0
    5.0119    1.6326   -0.1486 H   0  0  0  0  0  0  0  0  0  0  0  0
    5.4896    0.7634    1.2973 H   0  0  0  0  0  0  0  0  0  0  0  0
    7.7941    0.4652    0.3454 H   0  0  0  0  0  0  0  0  0  0  0  0
    7.3085    1.3382   -1.0930 H   0  0  0  0  0  0  0  0  0  0  0  0
    6.8276    3.3620    0.3036 H   0  0  0  0  0  0  0  0  0  0  0  0
    7.3300    2.4900    1.7342 H   0  0  0  0  0  0  0  0  0  0  0  0
    9.6382    2.2207    0.7616 H   0  0  0  0  0  0  0  0  0  0  0  0
    9.1304    3.1063   -0.6726 H   0  0  0  0  0  0  0  0  0  0  0  0
    9.1921    3.9192    0.8885 H   0  0  0  0  0  0  0  0  0  0  0  0
   -3.2701   -0.9084   -1.4435 H   0  0  0  0  0  0  0  0  0  0  0  0
   -2.2058   -0.1146   -3.3556 H   0  0  0  0  0  0  0  0  0  0  0  0
   -2.9997    2.1167   -1.6340 H   0  0  0  0  0  0  0  0  0  0  0  0
   -4.9293    1.8228   -2.8452 H   0  0  0  0  0  0  0  0  0  0  0  0
   -5.0973    0.3931   -0.2499 H   0  0  0  0  0  0  0  0  0  0  0  0
   -6.0919    2.3189    0.0164 H   0  0  0  0  0  0  0  0  0  0  0  0
   -2.9687    2.2743    0.8865 H   0  0  0  0  0  0  0  0  0  0  0  0
   -5.0953    2.1193    2.1726 H   0  0  0  0  0  0  0  0  0  0  0  0
   -4.9132    0.3648    2.2552 H   0  0  0  0  0  0  0  0  0  0  0  0
   -4.0042    1.4574    4.1036 H   0  0  0  0  0  0  0  0  0  0  0  0
  1  2  1  0
  1  8  1  0
  1 12  1  0
  2  3  2  0
  2  4  1  0
  4  5  1  0
  5  6  2  0
  5  7  1  0
  7  8  2  0
  7  9  1  0
  9 10  3  0
 10 11  1  0
 11 13  1  0
 12 17  1  0
 12 24  1  0
 13 14  1  0
 14 15  1  0
 15 16  1  0
 17 18  1  0
 17 19  1  0
 19 20  1  0
 19 21  1  0
 21 22  1  0
 21 23  1  0
 23 24  1  0
 23 25  1  0
 25 26  1  0
  4 27  1  0
  8 28  1  0
 11 29  1  0
 11 30  1  0
 12 31  1  6
 13 32  1  0
 13 33  1  0
 14 34  1  0
 14 35  1  0
 15 36  1  0
 15 37  1  0
 16 38  1  0
 16 39  1  0
 16 40  1  0
 17 41  1  1
 18 42  1  0
 19 43  1  6
 20 44  1  0
 21 45  1  1
 22 46  1  0
 23 47  1  6
 25 48  1  0
 25 49  1  0
 26 50  1  0
M  END
