
     RDKit          3D

 60 63  0  0  0  0  0  0  0  0999 V2000
   -8.6260    3.0282    0.8903 C   0  0  0  0  0  0  0  0  0  0  0  0
   -9.7583    2.3568    0.4715 C   0  0  0  0  0  0  0  0  0  0  0  0
   -9.6875    1.1745   -0.2397 C   0  0  0  0  0  0  0  0  0  0  0  0
   -8.4386    0.6514   -0.5345 C   0  0  0  0  0  0  0  0  0  0  0  0
   -7.2694    1.2968   -0.1281 C   0  0  0  0  0  0  0  0  0  0  0  0
   -7.3856    2.4914    0.5847 C   0  0  0  0  0  0  0  0  0  0  0  0
  -10.9631    2.8672    0.7665 F   0  0  0  0  0  0  0  0  0  0  0  0
   -5.9441    0.7284   -0.4353 C   0  0  0  0  0  0  0  0  0  0  0  0
   -4.8578    1.5567   -0.7279 C   0  0  0  0  0  0  0  0  0  0  0  0
   -3.6129    1.0247   -1.0058 C   0  0  0  0  0  0  0  0  0  0  0  0
   -3.4139   -0.3544   -0.9841 C   0  0  0  0  0  0  0  0  0  0  0  0
   -4.4945   -1.1888   -0.7059 C   0  0  0  0  0  0  0  0  0  0  0  0
   -5.7414   -0.6523   -0.4377 C   0  0  0  0  0  0  0  0  0  0  0  0
   -2.0576   -0.8697   -1.2932 C   0  0  0  0  0  0  0  0  0  0  0  0
   -1.2346   -0.2335   -1.9155 O   0  0  0  0  0  0  0  0  0  0  0  0
   -1.7770   -2.1263   -0.8143 N   0  0  0  0  0  0  0  0  0  0  0  0
   -0.3314   -2.9295   -1.1134 S   0  0  2  0  0  0  0  0  0  0  0  0
    0.9052   -1.9587   -0.3407 C   0  0  0  0  0  0  0  0  0  0  0  0
    1.1333   -2.1190    1.0051 C   0  0  0  0  0  0  0  0  0  0  0  0
    2.1076   -1.3617    1.6448 C   0  0  0  0  0  0  0  0  0  0  0  0
    2.8916   -0.4042    0.9316 C   0  0  0  0  0  0  0  0  0  0  0  0
    2.6259   -0.2969   -0.4593 C   0  0  0  0  0  0  0  0  0  0  0  0
    1.6655   -1.0436   -1.0794 C   0  0  0  0  0  0  0  0  0  0  0  0
   -0.0971   -2.9394   -2.5407 O   0  0  0  0  0  0  0  0  0  0  0  0
   -0.4890   -4.1736   -0.3839 O   0  0  0  0  0  0  0  0  0  0  0  0
    2.2822   -1.6009    3.0498 N   0  0  0  0  0  0  0  0  0  0  0  0
    1.5733   -2.4143    3.5967 O   0  0  0  0  0  0  0  0  0  0  0  0
    3.1407   -0.9769    3.6484 O   0  0  0  0  0  0  0  0  0  0  0  0
    3.8261    0.3667    1.4856 N   0  0  0  0  0  0  0  0  0  0  0  0
    4.6104    1.3473    0.7648 C   0  0  0  0  0  0  0  0  0  0  0  0
    5.4730    2.1184    1.7508 C   0  0  0  0  0  0  0  0  0  0  0  0
    6.4958    3.3635    0.9403 S   0  0  0  0  0  0  0  0  0  0  0  0
    7.6989    2.4239    0.0481 C   0  0  0  0  0  0  0  0  0  0  0  0
    8.0588    1.1158    0.3615 C   0  0  0  0  0  0  0  0  0  0  0  0
    9.0486    0.4748   -0.3722 C   0  0  0  0  0  0  0  0  0  0  0  0
    9.6999    1.1301   -1.4074 C   0  0  0  0  0  0  0  0  0  0  0  0
    9.3469    2.4385   -1.7129 C   0  0  0  0  0  0  0  0  0  0  0  0
    8.3479    3.0810   -0.9978 C   0  0  0  0  0  0  0  0  0  0  0  0
   -8.7079    3.9482    1.4539 H   0  0  0  0  0  0  0  0  0  0  0  0
  -10.5895    0.6715   -0.5624 H   0  0  0  0  0  0  0  0  0  0  0  0
   -8.3819   -0.2653   -1.1076 H   0  0  0  0  0  0  0  0  0  0  0  0
   -6.4986    3.0061    0.9309 H   0  0  0  0  0  0  0  0  0  0  0  0
   -4.9885    2.6306   -0.7586 H   0  0  0  0  0  0  0  0  0  0  0  0
   -2.7896    1.6878   -1.2356 H   0  0  0  0  0  0  0  0  0  0  0  0
   -4.3903   -2.2663   -0.7097 H   0  0  0  0  0  0  0  0  0  0  0  0
   -6.5600   -1.3226   -0.2105 H   0  0  0  0  0  0  0  0  0  0  0  0
   -2.3794   -2.5762   -0.1360 H   0  0  0  0  0  0  0  0  0  0  0  0
    0.5620   -2.8341    1.5798 H   0  0  0  0  0  0  0  0  0  0  0  0
    3.2019    0.3930   -1.0576 H   0  0  0  0  0  0  0  0  0  0  0  0
    1.5111   -0.9238   -2.1418 H   0  0  0  0  0  0  0  0  0  0  0  0
    4.0081    0.2364    2.4681 H   0  0  0  0  0  0  0  0  0  0  0  0
    5.2371    0.8558    0.0145 H   0  0  0  0  0  0  0  0  0  0  0  0
    3.9582    2.0483    0.2392 H   0  0  0  0  0  0  0  0  0  0  0  0
    4.8454    2.6862    2.4400 H   0  0  0  0  0  0  0  0  0  0  0  0
    6.0899    1.4527    2.3559 H   0  0  0  0  0  0  0  0  0  0  0  0
    7.5821    0.5810    1.1724 H   0  0  0  0  0  0  0  0  0  0  0  0
    9.3124   -0.5448   -0.1229 H   0  0  0  0  0  0  0  0  0  0  0  0
   10.4726    0.6256   -1.9720 H   0  0  0  0  0  0  0  0  0  0  0  0
    9.8428    2.9634   -2.5190 H   0  0  0  0  0  0  0  0  0  0  0  0
    8.0705    4.0957   -1.2563 H   0  0  0  0  0  0  0  0  0  0  0  0
  1  2  2  0
  1  6  1  0
  1 39  1  0
  2  3  1  0
  2  7  1  0
  3  4  2  0
  3 40  1  0
  4  5  1  0
  4 41  1  0
  5  6  2  0
  5  8  1  0
  6 42  1  0
  8  9  2  0
  8 13  1  0
  9 10  1  0
  9 43  1  0
 10 11  2  0
 10 44  1  0
 11 12  1  0
 11 14  1  0
 12 13  2  0
 12 45  1  0
 13 46  1  0
 14 15  2  0
 14 16  1  0
 17 16  1  6
 16 47  1  0
 17 18  1  0
 17 24  2  0
 17 25  2  0
 18 19  2  0
 18 23  1  0
 19 20  1  0
 19 48  1  0
 20 21  2  0
 20 26  1  0
 21 22  1  0
 21 29  1  0
 22 23  2  0
 22 49  1  0
 23 50  1  0
 26 27  1  0
 26 28  2  0
 29 30  1  0
 29 51  1  0
 30 31  1  0
 30 52  1  0
 30 53  1  0
 31 32  1  0
 31 54  1  0
 31 55  1  0
 32 33  1  0
 33 34  2  0
 33 38  1  0
 34 35  1  0
 34 56  1  0
 35 36  2  0
 35 57  1  0
 36 37  1  0
 36 58  1  0
 37 38  2  0
 37 59  1  0
 38 60  1  0
M  CHG  2  26   1  27  -1
M  END
