
     RDKit          3D

 30 31  0  0  0  0  0  0  0  0999 V2000
    1.6107    1.0673   -0.2366 C   0  0  0  0  0  0  0  0  0  0  0  0
    0.2702    0.7812   -0.2819 C   0  0  0  0  0  0  0  0  0  0  0  0
    2.0302   -1.2078    0.2632 C   0  0  0  0  0  0  0  0  0  0  0  0
    2.5476    0.0623    0.0315 C   0  0  0  0  0  0  0  0  0  0  0  0
   -0.1418   -0.5494   -0.0545 C   0  0  0  0  0  0  0  0  0  0  0  0
    3.9890    0.4115    0.0796 C   0  0  0  0  0  0  0  0  0  0  0  0
    0.7463   -1.5132    0.2245 N   0  0  0  0  0  0  0  0  0  0  0  0
    4.8658   -0.6023    0.1820 N   0  0  0  0  0  0  0  0  0  0  0  0
   -1.4299   -0.9367   -0.1190 N   0  0  0  0  0  0  0  0  0  0  0  0
    4.3543    1.5814    0.0327 O   0  0  0  0  0  0  0  0  0  0  0  0
   -4.9787    0.1295   -0.4137 C   0  0  0  0  0  0  0  0  0  0  0  0
   -4.4298    1.1526    0.6108 C   0  0  0  0  0  0  0  0  0  0  0  0
   -3.8107   -0.8153   -0.7388 C   0  0  0  0  0  0  0  0  0  0  0  0
   -3.0514    0.6259    1.0089 C   0  0  0  0  0  0  0  0  0  0  0  0
   -2.5659   -0.0633   -0.2684 C   0  0  1  0  0  0  0  0  0  0  0  0
    1.9438    2.0816   -0.4121 H   0  0  0  0  0  0  0  0  0  0  0  0
   -0.4452    1.5650   -0.4843 H   0  0  0  0  0  0  0  0  0  0  0  0
    2.6800   -2.0421    0.5097 H   0  0  0  0  0  0  0  0  0  0  0  0
    4.6017   -1.5690    0.1239 H   0  0  0  0  0  0  0  0  0  0  0  0
    5.8524   -0.4030    0.1900 H   0  0  0  0  0  0  0  0  0  0  0  0
   -1.6087   -1.8902    0.1589 H   0  0  0  0  0  0  0  0  0  0  0  0
   -5.3341    0.6359   -1.3113 H   0  0  0  0  0  0  0  0  0  0  0  0
   -4.3331    2.1354    0.1452 H   0  0  0  0  0  0  0  0  0  0  0  0
   -5.0884    1.2754    1.4705 H   0  0  0  0  0  0  0  0  0  0  0  0
   -3.9012   -1.7430   -0.1655 H   0  0  0  0  0  0  0  0  0  0  0  0
   -3.7593   -1.0902   -1.7926 H   0  0  0  0  0  0  0  0  0  0  0  0
   -2.3781    1.4075    1.3646 H   0  0  0  0  0  0  0  0  0  0  0  0
   -3.1369   -0.1245    1.8008 H   0  0  0  0  0  0  0  0  0  0  0  0
   -2.3254    0.7018   -1.0137 H   0  0  0  0  0  0  0  0  0  0  0  0
   -5.8273   -0.4245   -0.0127 H   0  0  0  0  0  0  0  0  0  0  0  0
 11 12  1  0
 11 13  1  0
 12 14  1  0
 13 15  1  0
 14 15  1  0
 15  9  1  0
  9  5  1  0
  2  5  1  0
  2  1  2  0
  5  7  2  0
  1  4  1  0
  7  3  1  0
  4  3  2  0
  4  6  1  0
  6 10  2  0
  6  8  1  0
  1 16  1  0
  2 17  1  0
  3 18  1  0
  8 19  1  0
  8 20  1  0
  9 21  1  0
 11 30  1  0
 11 22  1  0
 12 23  1  0
 12 24  1  0
 13 25  1  0
 13 26  1  0
 14 27  1  0
 14 28  1  0
 15 29  1  6
M  END
