
     RDKit          3D

 57 61  0  0  0  0  0  0  0  0999 V2000
    5.9200    0.1266   -0.0325 C   0  0  0  0  0  0  0  0  0  0  0  0
    5.0636   -0.6477    0.9652 C   0  0  0  0  0  0  0  0  0  0  0  0
    2.7785   -3.7029   -0.5066 C   0  0  0  0  0  0  0  0  0  0  0  0
    3.1862    0.8558    0.6082 C   0  0  0  0  0  0  0  0  0  0  0  0
    3.9930    1.6704   -0.3975 C   0  0  0  0  0  0  0  0  0  0  0  0
    2.9376   -1.5363    0.1107 C   0  0  0  0  0  0  0  0  0  0  0  0
    1.4763   -3.5404   -0.9122 C   0  0  0  0  0  0  0  0  0  0  0  0
    0.9517   -2.2442   -0.7481 C   0  0  0  0  0  0  0  0  0  0  0  0
    5.4948    1.5868   -0.1229 C   0  0  1  0  0  0  0  0  0  0  0  0
    5.8591    2.1985    1.0996 O   0  0  0  0  0  0  0  0  0  0  0  0
    3.6562   -0.5175    0.6432 N   0  0  0  0  0  0  0  0  0  0  0  0
    3.5319   -2.7299   -0.0035 N   0  0  0  0  0  0  0  0  0  0  0  0
    1.6740   -1.2678   -0.2327 N   0  0  0  0  0  0  0  0  0  0  0  0
   -0.3373   -1.9948   -1.1100 N   0  0  0  0  0  0  0  0  0  0  0  0
   -1.0088   -0.7672   -1.0253 C   0  0  0  0  0  0  0  0  0  0  0  0
   -2.2833   -0.7507   -0.4825 C   0  0  0  0  0  0  0  0  0  0  0  0
   -2.9392    0.4773   -0.4902 C   0  0  0  0  0  0  0  0  0  0  0  0
   -2.2988    1.6272   -1.0016 C   0  0  0  0  0  0  0  0  0  0  0  0
   -3.2180    2.7115   -0.8614 C   0  0  0  0  0  0  0  0  0  0  0  0
   -4.3367    2.1884   -0.2890 C   0  0  0  0  0  0  0  0  0  0  0  0
   -4.1732    0.8419   -0.0539 N   0  0  0  0  0  0  0  0  0  0  0  0
   -5.1860   -0.0377    0.5014 C   0  0  1  0  0  0  0  0  0  0  0  0
   -5.8358    0.5061    1.8002 C   0  0  0  0  0  0  0  0  0  0  0  0
   -7.3260    0.6579    1.4866 C   0  0  0  0  0  0  0  0  0  0  0  0
   -7.5787   -0.4134    0.4287 C   0  0  0  0  0  0  0  0  0  0  0  0
   -6.3528   -0.2977   -0.4711 C   0  0  0  0  0  0  0  0  0  0  0  0
   -1.0103    1.4711   -1.5070 C   0  0  0  0  0  0  0  0  0  0  0  0
   -0.3929    0.3060   -1.5339 N   0  0  0  0  0  0  0  0  0  0  0  0
    6.9733    0.0581    0.2504 H   0  0  0  0  0  0  0  0  0  0  0  0
    5.8257   -0.3290   -1.0216 H   0  0  0  0  0  0  0  0  0  0  0  0
    5.3384   -1.6978    0.9732 H   0  0  0  0  0  0  0  0  0  0  0  0
    5.2239   -0.2611    1.9757 H   0  0  0  0  0  0  0  0  0  0  0  0
    3.2528   -4.6752   -0.5962 H   0  0  0  0  0  0  0  0  0  0  0  0
    3.2843    1.2851    1.6101 H   0  0  0  0  0  0  0  0  0  0  0  0
    2.1318    0.8673    0.3472 H   0  0  0  0  0  0  0  0  0  0  0  0
    3.8060    1.2875   -1.4047 H   0  0  0  0  0  0  0  0  0  0  0  0
    3.6454    2.7065   -0.3965 H   0  0  0  0  0  0  0  0  0  0  0  0
    0.8994   -4.3542   -1.3272 H   0  0  0  0  0  0  0  0  0  0  0  0
    6.0352    2.0736   -0.9487 H   0  0  0  0  0  0  0  0  0  0  0  0
    4.6911    3.9332    1.1148 H   0  0  0  0  0  0  0  0  0  0  0  0
    6.2008    3.9606    2.0318 H   0  0  0  0  0  0  0  0  0  0  0  0
    6.2392    4.0654    0.2637 H   0  0  0  0  0  0  0  0  0  0  0  0
   -0.9137   -2.8057   -1.2698 H   0  0  0  0  0  0  0  0  0  0  0  0
   -2.7250   -1.6528   -0.0798 H   0  0  0  0  0  0  0  0  0  0  0  0
   -3.0679    3.7407   -1.1449 H   0  0  0  0  0  0  0  0  0  0  0  0
   -5.2584    2.6813   -0.0200 H   0  0  0  0  0  0  0  0  0  0  0  0
   -4.6820   -0.9770    0.7245 H   0  0  0  0  0  0  0  0  0  0  0  0
   -5.6951   -0.2231    2.5992 H   0  0  0  0  0  0  0  0  0  0  0  0
   -5.3708    1.4332    2.1361 H   0  0  0  0  0  0  0  0  0  0  0  0
   -7.9542    0.5467    2.3709 H   0  0  0  0  0  0  0  0  0  0  0  0
   -7.5323    1.6473    1.0684 H   0  0  0  0  0  0  0  0  0  0  0  0
   -7.6137   -1.4004    0.8986 H   0  0  0  0  0  0  0  0  0  0  0  0
   -8.5146   -0.2761   -0.1137 H   0  0  0  0  0  0  0  0  0  0  0  0
   -6.4700    0.5569   -1.1432 H   0  0  0  0  0  0  0  0  0  0  0  0
   -6.1808   -1.1757   -1.0946 H   0  0  0  0  0  0  0  0  0  0  0  0
   -0.4714    2.3180   -1.9208 H   0  0  0  0  0  0  0  0  0  0  0  0
    5.7333    3.5968    1.1169 C   0  0  0  0  0  0  0  0  0  0  0  0
  7  3  2  0
  7  8  1  0
  3 12  1  0
 14  8  1  0
 14 15  1  0
 28 15  1  0
 28 27  2  0
  8 13  2  0
 15 16  2  0
 27 18  1  0
 12  6  2  0
 13  6  1  0
 16 17  1  0
 18 17  2  0
 18 19  1  0
  6 11  1  0
 17 21  1  0
 19 20  2  0
  2 11  1  0
  2  1  1  0
 11  4  1  0
  1  9  1  0
 21 20  1  0
 21 22  1  0
  5  4  1  0
  5  9  1  0
 22 26  1  0
 22 23  1  0
  9 10  1  0
 26 25  1  0
 10 57  1  0
 23 24  1  0
 25 24  1  0
  1 29  1  0
  1 30  1  0
  2 31  1  0
  2 32  1  0
  3 33  1  0
  4 34  1  0
  4 35  1  0
  5 36  1  0
  5 37  1  0
  7 38  1  0
  9 39  1  6
 57 40  1  0
 57 41  1  0
 57 42  1  0
 14 43  1  0
 16 44  1  0
 19 45  1  0
 20 46  1  0
 22 47  1  1
 23 48  1  0
 23 49  1  0
 24 50  1  0
 24 51  1  0
 25 52  1  0
 25 53  1  0
 26 54  1  0
 26 55  1  0
 27 56  1  0
M  END
