
     RDKit          3D

 30 31  0  0  0  0  0  0  0  0999 V2000
    2.0812    2.1095    1.0685 C   0  0  0  0  0  0  0  0  0  0  0  0
    3.4074    0.7993   -0.6286 C   0  0  0  0  0  0  0  0  0  0  0  0
   -2.4287    1.8858   -0.2678 C   0  0  0  0  0  0  0  0  0  0  0  0
   -3.2656    0.6245   -0.4104 C   0  0  0  0  0  0  0  0  0  0  0  0
   -0.9677    1.6176   -0.5950 C   0  0  0  0  0  0  0  0  0  0  0  0
   -2.7199   -0.4861    0.4892 C   0  0  0  0  0  0  0  0  0  0  0  0
    0.5331   -2.1097   -0.1011 C   0  0  0  0  0  0  0  0  0  0  0  0
   -0.3820    0.4921    0.2876 C   0  0  2  0  0  0  0  0  0  0  0  0
    1.0342    0.1502   -0.0696 C   0  0  0  0  0  0  0  0  0  0  0  0
    2.0229    1.2754   -0.2168 C   0  0  1  0  0  0  0  0  0  0  0  0
   -1.2636   -0.7168    0.2581 C   0  0  0  0  0  0  0  0  0  0  0  0
    1.4317   -1.0494   -0.2465 N   0  0  0  0  0  0  0  0  0  0  0  0
   -0.8396   -1.9050    0.0621 N   0  0  0  0  0  0  0  0  0  0  0  0
    2.7964    2.9218    0.9437 H   0  0  0  0  0  0  0  0  0  0  0  0
    1.1214    2.5602    1.3216 H   0  0  0  0  0  0  0  0  0  0  0  0
    2.4073    1.5046    1.9158 H   0  0  0  0  0  0  0  0  0  0  0  0
    3.8570    0.1638    0.1347 H   0  0  0  0  0  0  0  0  0  0  0  0
    3.3809    0.2352   -1.5598 H   0  0  0  0  0  0  0  0  0  0  0  0
    4.0591    1.6606   -0.7773 H   0  0  0  0  0  0  0  0  0  0  0  0
   -2.8050    2.6703   -0.9267 H   0  0  0  0  0  0  0  0  0  0  0  0
   -2.5099    2.2664    0.7553 H   0  0  0  0  0  0  0  0  0  0  0  0
   -4.3065    0.8179   -0.1476 H   0  0  0  0  0  0  0  0  0  0  0  0
   -3.2586    0.2896   -1.4514 H   0  0  0  0  0  0  0  0  0  0  0  0
   -0.8651    1.3348   -1.6464 H   0  0  0  0  0  0  0  0  0  0  0  0
   -0.3826    2.5257   -0.4503 H   0  0  0  0  0  0  0  0  0  0  0  0
   -2.8446   -0.1851    1.5360 H   0  0  0  0  0  0  0  0  0  0  0  0
   -3.2610   -1.4217    0.3512 H   0  0  0  0  0  0  0  0  0  0  0  0
   -0.3886    0.8546    1.3259 H   0  0  0  0  0  0  0  0  0  0  0  0
    1.6380    1.9260   -1.0105 H   0  0  0  0  0  0  0  0  0  0  0  0
    0.9561   -3.2420   -0.1305 O   0  0  0  0  0  0  0  0  0  0  0  0
  3  5  1  0
  3  4  1  0
  5  8  1  0
  4  6  1  0
  1 10  1  0
 10  2  1  0
 10  9  1  0
  8  9  1  0
  8 11  1  0
  6 11  1  0
  9 12  2  0
 11 13  2  0
 12  7  1  0
 13  7  1  0
  7 30  2  0
  1 14  1  0
  1 15  1  0
  1 16  1  0
  2 17  1  0
  2 18  1  0
  2 19  1  0
  3 20  1  0
  3 21  1  0
  4 22  1  0
  4 23  1  0
  5 24  1  0
  5 25  1  0
  6 26  1  0
  6 27  1  0
  8 28  1  1
 10 29  1  6
M  END
