
     RDKit          3D

 17 17  0  0  0  0  0  0  0  0999 V2000
    1.7306    0.8067   -0.0915 C   0  0  0  0  0  0  0  0  0  0  0  0
   -1.9623    0.0651    0.0133 C   0  0  1  0  0  0  0  0  0  0  0  0
    2.6331    1.8272   -0.1976 N   0  0  0  0  0  0  0  0  0  0  0  0
   -2.6543   -1.0776    0.0525 F   0  0  0  0  0  0  0  0  0  0  0  0
   -2.3883    0.7456   -1.0629 F   0  0  0  0  0  0  0  0  0  0  0  0
   -2.3368    0.7879    1.0813 F   0  0  0  0  0  0  0  0  0  0  0  0
   -0.4936   -0.1546   -0.0168 C   0  0  0  0  0  0  0  0  0  0  0  0
    0.0317   -1.4009   -0.0068 C   0  0  0  0  0  0  0  0  0  0  0  0
    1.3799   -1.5500   -0.0302 N   0  0  0  0  0  0  0  0  0  0  0  0
    2.3005   -0.5393   -0.0717 C   0  0  0  0  0  0  0  0  0  0  0  0
    3.5065   -0.7619   -0.0841 O   0  0  0  0  0  0  0  0  0  0  0  0
    0.3769    0.9700   -0.0532 C   0  0  0  0  0  0  0  0  0  0  0  0
    3.5658    1.6274    0.1255 H   0  0  0  0  0  0  0  0  0  0  0  0
    2.3103    2.7454    0.0596 H   0  0  0  0  0  0  0  0  0  0  0  0
   -0.5406   -2.3148    0.0213 H   0  0  0  0  0  0  0  0  0  0  0  0
    1.7514   -2.4908   -0.0189 H   0  0  0  0  0  0  0  0  0  0  0  0
   -0.0334    1.9732   -0.0572 H   0  0  0  0  0  0  0  0  0  0  0  0
  2  6  1  1
  5  2  1  0
  2  7  1  0
  2  4  1  0
 12  7  1  0
 12  1  2  0
  3  1  1  0
  7  8  2  0
  1 10  1  0
  8  9  1  0
 10  9  1  0
 10 11  2  0
  3 13  1  0
  3 14  1  0
  8 15  1  0
  9 16  1  0
 12 17  1  0
M  END
