
     RDKit          3D

 22 22  0  0  0  0  0  0  0  0999 V2000
   -0.8805    0.6494   -1.5239 C   0  0  1  0  0  0  0  0  0  0  0  0
    0.6353    0.6494   -1.5239 C   0  0  0  0  0  0  0  0  0  0  0  0
    1.1897    0.6494   -0.1558 C   0  0  2  0  0  0  0  0  0  0  0  0
    2.6354    0.4888   -0.2345 O   0  0  0  0  0  0  0  0  0  0  0  0
    0.6241   -0.4609    0.6811 C   0  0  1  0  0  0  0  0  0  0  0  0
    1.0825   -0.3042    2.0271 O   0  0  0  0  0  0  0  0  0  0  0  0
   -0.8995   -0.4614    0.6768 C   0  0  1  0  0  0  0  0  0  0  0  0
   -1.4472   -0.4630   -0.6823 O   0  0  0  0  0  0  0  0  0  0  0  0
   -1.3891   -1.6883    1.4013 C   0  0  0  0  0  0  0  0  0  0  0  0
   -1.3218    1.8414   -1.0348 O   0  0  0  0  0  0  0  0  0  0  0  0
   -1.2302    0.5304   -2.5423 H   0  0  0  0  0  0  0  0  0  0  0  0
    0.9857    1.5326   -2.0441 H   0  0  0  0  0  0  0  0  0  0  0  0
    0.9856   -0.2340   -2.0440 H   0  0  0  0  0  0  0  0  0  0  0  0
    0.9601    1.5970    0.3163 H   0  0  0  0  0  0  0  0  0  0  0  0
    3.0522    1.3239   -0.1014 H   0  0  0  0  0  0  0  0  0  0  0  0
    0.9763   -1.4083    0.2914 H   0  0  0  0  0  0  0  0  0  0  0  0
    1.7714   -0.9246    2.1988 H   0  0  0  0  0  0  0  0  0  0  0  0
   -1.2512    0.4228    1.1948 H   0  0  0  0  0  0  0  0  0  0  0  0
   -2.4662   -1.7571    1.3079 H   0  0  0  0  0  0  0  0  0  0  0  0
   -0.9321   -2.5699    0.9683 H   0  0  0  0  0  0  0  0  0  0  0  0
   -1.1212   -1.6202    2.4487 H   0  0  0  0  0  0  0  0  0  0  0  0
   -1.9595    2.2068   -1.6254 H   0  0  0  0  0  0  0  0  0  0  0  0
  1  2  1  0
  1  8  1  0
  1 10  1  0
  2  3  1  0
  3  4  1  0
  3  5  1  0
  5  6  1  0
  5  7  1  0
  7  8  1  0
  7  9  1  0
  1 11  1  6
  2 12  1  0
  2 13  1  0
  3 14  1  1
  4 15  1  0
  5 16  1  6
  6 17  1  0
  7 18  1  1
  9 19  1  0
  9 20  1  0
  9 21  1  0
 10 22  1  0
M  END
