
     RDKit          3D

 64 68  0  0  0  0  0  0  0  0999 V2000
    4.3626    3.6707    0.5665 O   0  0  0  0  0  0  0  0  0  0  0  0
    4.2810    2.9249   -0.6169 C   0  0  1  0  0  0  0  0  0  0  0  0
    5.6190    2.2588   -0.9402 C   0  0  2  0  0  0  0  0  0  0  0  0
    5.6271    1.0857    0.0505 C   0  0  1  0  0  0  0  0  0  0  0  0
    4.2865    0.7706    0.2970 O   0  0  0  0  0  0  0  0  0  0  0  0
    3.4316    1.6829   -0.3989 C   0  0  1  0  0  0  0  0  0  0  0  0
    2.1551    1.8766    0.3818 C   0  0  0  0  0  0  0  0  0  0  0  0
    1.3239    0.2728    0.6027 S   0  0  0  0  0  0  0  0  0  0  0  0
   -0.3968    0.8373    0.7229 C   0  0  0  0  0  0  0  0  0  0  0  0
   -1.3153   -0.3571    0.9309 C   0  0  0  0  0  0  0  0  0  0  0  0
   -2.6927    0.0907    0.9628 N   0  0  0  0  0  0  0  0  0  0  0  0
   -3.6635   -0.9840    1.0195 C   0  0  0  0  0  0  0  0  0  0  0  0
   -5.0658   -0.4432    0.7927 C   0  0  1  0  0  0  0  0  0  0  0  0
   -5.1492    0.1643   -0.5219 N   0  0  0  0  0  0  0  0  0  0  0  0
   -6.3706    0.9203   -0.6763 C   0  0  0  0  0  0  0  0  0  0  0  0
   -7.5696    0.0492   -0.4137 C   0  0  0  0  0  0  0  0  0  0  0  0
   -8.8155    0.4254   -0.8956 C   0  0  0  0  0  0  0  0  0  0  0  0
   -9.9214   -0.3663   -0.6343 C   0  0  0  0  0  0  0  0  0  0  0  0
  -11.2174    0.0341   -1.1507 N   0  0  0  0  0  0  0  0  0  0  0  0
  -11.2876    1.0570   -1.7926 O   0  0  0  0  0  0  0  0  0  0  0  0
  -12.1688   -0.6746   -0.9147 O   0  0  0  0  0  0  0  0  0  0  0  0
   -9.8170   -1.5356    0.1081 C   0  0  0  0  0  0  0  0  0  0  0  0
   -8.5738   -1.8970    0.5867 C   0  0  0  0  0  0  0  0  0  0  0  0
   -7.4414   -1.1210    0.3381 C   0  0  0  0  0  0  0  0  0  0  0  0
   -6.1025   -1.5540    0.8657 C   0  0  0  0  0  0  0  0  0  0  0  0
    6.3218   -0.0761   -0.4521 N   0  0  0  0  0  0  0  0  0  0  0  0
    7.4469   -0.6484    0.0685 C   0  0  0  0  0  0  0  0  0  0  0  0
    7.7071   -1.7401   -0.7449 C   0  0  0  0  0  0  0  0  0  0  0  0
    6.7658   -1.8459   -1.7364 N   0  0  0  0  0  0  0  0  0  0  0  0
    5.9652   -0.8442   -1.5282 C   0  0  0  0  0  0  0  0  0  0  0  0
    8.8361   -2.5101   -0.4132 C   0  0  0  0  0  0  0  0  0  0  0  0
    9.2132   -3.5796   -1.1167 N   0  0  0  0  0  0  0  0  0  0  0  0
    9.5602   -2.1363    0.6476 N   0  0  0  0  0  0  0  0  0  0  0  0
    9.1884   -1.0627    1.3398 C   0  0  0  0  0  0  0  0  0  0  0  0
    8.1571   -0.2638    1.1261 N   0  0  0  0  0  0  0  0  0  0  0  0
    6.7465    3.0552   -0.7330 O   0  0  0  0  0  0  0  0  0  0  0  0
    5.1853    4.1741    0.5458 H   0  0  0  0  0  0  0  0  0  0  0  0
    3.8996    3.5191   -1.4569 H   0  0  0  0  0  0  0  0  0  0  0  0
    5.5768    1.8742   -1.9675 H   0  0  0  0  0  0  0  0  0  0  0  0
    6.1383    1.3683    0.9759 H   0  0  0  0  0  0  0  0  0  0  0  0
    3.1758    1.2693   -1.3838 H   0  0  0  0  0  0  0  0  0  0  0  0
    2.3399    2.3405    1.3502 H   0  0  0  0  0  0  0  0  0  0  0  0
    1.4950    2.5278   -0.1939 H   0  0  0  0  0  0  0  0  0  0  0  0
   -0.4908    1.5372    1.5562 H   0  0  0  0  0  0  0  0  0  0  0  0
   -0.6731    1.3580   -0.1952 H   0  0  0  0  0  0  0  0  0  0  0  0
   -1.2009   -1.0526    0.0951 H   0  0  0  0  0  0  0  0  0  0  0  0
   -1.0147   -0.9006    1.8387 H   0  0  0  0  0  0  0  0  0  0  0  0
   -2.8251    0.6986    1.7632 H   0  0  0  0  0  0  0  0  0  0  0  0
   -3.4353   -1.6984    0.2225 H   0  0  0  0  0  0  0  0  0  0  0  0
   -3.6392   -1.5463    1.9651 H   0  0  0  0  0  0  0  0  0  0  0  0
   -5.2861    0.2904    1.5908 H   0  0  0  0  0  0  0  0  0  0  0  0
   -4.3517    0.7769   -0.6455 H   0  0  0  0  0  0  0  0  0  0  0  0
   -6.4237    1.7856    0.0051 H   0  0  0  0  0  0  0  0  0  0  0  0
   -6.4236    1.3211   -1.6908 H   0  0  0  0  0  0  0  0  0  0  0  0
   -8.9089    1.3331   -1.4770 H   0  0  0  0  0  0  0  0  0  0  0  0
  -10.6787   -2.1534    0.3142 H   0  0  0  0  0  0  0  0  0  0  0  0
   -8.4783   -2.8039    1.1709 H   0  0  0  0  0  0  0  0  0  0  0  0
   -5.7575   -2.4116    0.2771 H   0  0  0  0  0  0  0  0  0  0  0  0
   -6.2097   -1.9090    1.8935 H   0  0  0  0  0  0  0  0  0  0  0  0
    5.0921   -0.6184   -2.1230 H   0  0  0  0  0  0  0  0  0  0  0  0
    8.6439   -3.9318   -1.8660 H   0  0  0  0  0  0  0  0  0  0  0  0
    9.9775   -4.1477   -0.7945 H   0  0  0  0  0  0  0  0  0  0  0  0
    9.8168   -0.8146    2.1887 H   0  0  0  0  0  0  0  0  0  0  0  0
    6.8907    3.5986   -1.5144 H   0  0  0  0  0  0  0  0  0  0  0  0
  1  2  1  0
  2  3  1  0
  2  6  1  0
  3  4  1  0
  3 36  1  0
  4  5  1  0
  4 26  1  0
  5  6  1  0
  6  7  1  0
  7  8  1  0
  8  9  1  0
  9 10  1  0
 10 11  1  0
 11 12  1  0
 12 13  1  0
 13 14  1  0
 13 25  1  0
 14 15  1  0
 15 16  1  0
 16 17  2  0
 16 24  1  0
 17 18  1  0
 18 19  1  0
 18 22  2  0
 19 20  2  0
 19 21  1  0
 22 23  1  0
 23 24  2  0
 24 25  1  0
 26 27  1  0
 26 30  1  0
 27 28  2  0
 27 35  1  0
 28 29  1  0
 28 31  1  0
 29 30  2  0
 31 32  1  0
 31 33  2  0
 33 34  1  0
 34 35  2  0
  1 37  1  0
  2 38  1  6
  3 39  1  6
  4 40  1  1
  6 41  1  6
  7 42  1  0
  7 43  1  0
  9 44  1  0
  9 45  1  0
 10 46  1  0
 10 47  1  0
 11 48  1  0
 12 49  1  0
 12 50  1  0
 13 51  1  1
 14 52  1  0
 15 53  1  0
 15 54  1  0
 17 55  1  0
 22 56  1  0
 23 57  1  0
 25 58  1  0
 25 59  1  0
 30 60  1  0
 32 61  1  0
 32 62  1  0
 34 63  1  0
 36 64  1  0
M  CHG  2  19   1  21  -1
M  END
