
     RDKit          3D

 60 59  0  0  0  0  0  0  0  0999 V2000
   13.7208   -0.0224    0.5083 C   0  0  0  0  0  0  0  0  0  0  0  0
  -10.1787   -0.9658    2.2955 O   0  0  0  0  0  0  0  0  0  0  0  0
   -7.2785    0.3726    1.2950 O   0  0  0  0  0  0  0  0  0  0  0  0
   -5.4029    1.0527   -0.9881 O   0  0  0  0  0  0  0  0  0  0  0  0
   -9.9121   -0.3389    1.3026 C   0  0  0  0  0  0  0  0  0  0  0  0
   12.4179    0.7442    0.3279 C   0  0  0  0  0  0  0  0  0  0  0  0
   11.1937   -0.1637    0.3284 C   0  0  0  0  0  0  0  0  0  0  0  0
    9.8818    0.5921    0.1596 C   0  0  0  0  0  0  0  0  0  0  0  0
    8.6585   -0.3169    0.1596 C   0  0  0  0  0  0  0  0  0  0  0  0
    7.3474    0.4408   -0.0068 C   0  0  0  0  0  0  0  0  0  0  0  0
    6.1212   -0.4641   -0.0035 C   0  0  0  0  0  0  0  0  0  0  0  0
    4.8139    0.2997   -0.1710 C   0  0  0  0  0  0  0  0  0  0  0  0
    3.5807   -0.5956   -0.1524 C   0  0  0  0  0  0  0  0  0  0  0  0
    2.2804    0.1783   -0.3287 C   0  0  0  0  0  0  0  0  0  0  0  0
    1.0366   -0.7003   -0.2752 C   0  0  0  0  0  0  0  0  0  0  0  0
   -0.2542    0.0862   -0.4645 C   0  0  0  0  0  0  0  0  0  0  0  0
   -1.5084   -0.7733   -0.3714 C   0  0  0  0  0  0  0  0  0  0  0  0
   -2.7865    0.0289   -0.5830 C   0  0  0  0  0  0  0  0  0  0  0  0
   -9.0157   -0.8378    0.2016 C   0  0  0  0  0  0  0  0  0  0  0  0
   -4.0325   -0.8275   -0.4476 C   0  0  0  0  0  0  0  0  0  0  0  0
   -6.5874   -0.9545   -0.5636 C   0  0  0  0  0  0  0  0  0  0  0  0
   -7.5907   -0.3746    0.4025 C   0  0  0  0  0  0  0  0  0  0  0  0
   -5.3296   -0.1151   -0.6887 C   0  0  0  0  0  0  0  0  0  0  0  0
   13.7309   -0.5618    1.4576 H   0  0  0  0  0  0  0  0  0  0  0  0
   13.8596   -0.7574   -0.2873 H   0  0  0  0  0  0  0  0  0  0  0  0
   14.5854    0.6423    0.4979 H   0  0  0  0  0  0  0  0  0  0  0  0
  -10.3576    0.8841    1.0579 O   0  0  0  0  0  0  0  0  0  0  0  0
   12.3160    1.4871    1.1248 H   0  0  0  0  0  0  0  0  0  0  0  0
   12.4489    1.3082   -0.6098 H   0  0  0  0  0  0  0  0  0  0  0  0
   11.2934   -0.9038   -0.4736 H   0  0  0  0  0  0  0  0  0  0  0  0
   11.1674   -0.7341    1.2640 H   0  0  0  0  0  0  0  0  0  0  0  0
    9.7827    1.3313    0.9624 H   0  0  0  0  0  0  0  0  0  0  0  0
    9.9085    1.1630   -0.7756 H   0  0  0  0  0  0  0  0  0  0  0  0
    8.7564   -1.0552   -0.6441 H   0  0  0  0  0  0  0  0  0  0  0  0
    8.6321   -0.8887    1.0942 H   0  0  0  0  0  0  0  0  0  0  0  0
    7.2516    1.1808    0.7957 H   0  0  0  0  0  0  0  0  0  0  0  0
    7.3737    1.0114   -0.9423 H   0  0  0  0  0  0  0  0  0  0  0  0
    6.2153   -1.2054   -0.8048 H   0  0  0  0  0  0  0  0  0  0  0  0
    6.0934   -1.0328    0.9331 H   0  0  0  0  0  0  0  0  0  0  0  0
    4.7270    1.0482    0.6247 H   0  0  0  0  0  0  0  0  0  0  0  0
    4.8394    0.8610   -1.1121 H   0  0  0  0  0  0  0  0  0  0  0  0
    3.6664   -1.3492   -0.9431 H   0  0  0  0  0  0  0  0  0  0  0  0
    3.5500   -1.1499    0.7927 H   0  0  0  0  0  0  0  0  0  0  0  0
    2.2100    0.9486    0.4476 H   0  0  0  0  0  0  0  0  0  0  0  0
    2.3045    0.7144   -1.2844 H   0  0  0  0  0  0  0  0  0  0  0  0
    1.1056   -1.4779   -1.0440 H   0  0  0  0  0  0  0  0  0  0  0  0
    1.0060   -1.2260    0.6859 H   0  0  0  0  0  0  0  0  0  0  0  0
   -0.3063    0.8818    0.2871 H   0  0  0  0  0  0  0  0  0  0  0  0
   -0.2319    0.5907   -1.4371 H   0  0  0  0  0  0  0  0  0  0  0  0
   -1.4560   -1.5781   -1.1128 H   0  0  0  0  0  0  0  0  0  0  0  0
   -1.5393   -1.2640    0.6075 H   0  0  0  0  0  0  0  0  0  0  0  0
   -2.8246    0.8486    0.1402 H   0  0  0  0  0  0  0  0  0  0  0  0
   -2.7631    0.4937   -1.5725 H   0  0  0  0  0  0  0  0  0  0  0  0
   -9.0337   -1.9294    0.1698 H   0  0  0  0  0  0  0  0  0  0  0  0
   -9.3528   -0.4876   -0.7778 H   0  0  0  0  0  0  0  0  0  0  0  0
   -4.0028   -1.6815   -1.1366 H   0  0  0  0  0  0  0  0  0  0  0  0
   -4.0915   -1.2839    0.5484 H   0  0  0  0  0  0  0  0  0  0  0  0
   -6.3635   -1.9710   -0.2240 H   0  0  0  0  0  0  0  0  0  0  0  0
   -7.0381   -1.0669   -1.5541 H   0  0  0  0  0  0  0  0  0  0  0  0
  -10.9074    1.1941    1.7938 H   0  0  0  0  0  0  0  0  0  0  0  0
  1  6  1  0
  1 24  1  0
  1 25  1  0
  1 26  1  0
  3 22  2  0
  5  2  2  0
  5 27  1  0
  6  7  1  0
  6 28  1  0
  6 29  1  0
  7  8  1  0
  7 30  1  0
  7 31  1  0
  8  9  1  0
  8 32  1  0
  8 33  1  0
  9 34  1  0
  9 35  1  0
 10  9  1  0
 10 11  1  0
 10 36  1  0
 10 37  1  0
 11 38  1  0
 11 39  1  0
 12 11  1  0
 12 13  1  0
 12 40  1  0
 12 41  1  0
 13 14  1  0
 13 42  1  0
 13 43  1  0
 14 15  1  0
 14 44  1  0
 14 45  1  0
 15 16  1  0
 15 46  1  0
 15 47  1  0
 16 17  1  0
 16 48  1  0
 16 49  1  0
 17 18  1  0
 17 50  1  0
 17 51  1  0
 18 52  1  0
 18 53  1  0
 19  5  1  0
 19 54  1  0
 19 55  1  0
 20 18  1  0
 20 23  1  0
 20 56  1  0
 20 57  1  0
 21 23  1  0
 21 58  1  0
 21 59  1  0
 22 19  1  0
 22 21  1  0
 23  4  2  0
 27 60  1  0
M  END
