
     RDKit          3D

 26 27  0  0  0  0  0  0  0  0999 V2000
   -3.6843   -0.2102    0.9960 C   0  0  0  0  0  0  0  0  0  0  0  0
   -3.0332   -0.0417   -0.3657 C   0  0  0  0  0  0  0  0  0  0  0  0
   -1.5824    0.0908   -0.2764 N   0  0  0  0  0  0  0  0  0  0  0  0
   -0.7990   -1.0272   -0.2064 C   0  0  0  0  0  0  0  0  0  0  0  0
   -1.2799   -2.1526   -0.2525 O   0  0  0  0  0  0  0  0  0  0  0  0
    0.6336   -0.7616   -0.0777 C   0  0  0  0  0  0  0  0  0  0  0  0
    1.5376   -1.8245   -0.0221 C   0  0  0  0  0  0  0  0  0  0  0  0
    2.8866   -1.5689    0.1034 C   0  0  0  0  0  0  0  0  0  0  0  0
    3.3483   -0.2517    0.1769 C   0  0  0  0  0  0  0  0  0  0  0  0
    2.4626    0.8037    0.1249 C   0  0  0  0  0  0  0  0  0  0  0  0
    1.0896    0.5582   -0.0036 C   0  0  0  0  0  0  0  0  0  0  0  0
    0.1045    1.6131   -0.0628 C   0  0  0  0  0  0  0  0  0  0  0  0
   -1.1494    1.3594   -0.1881 N   0  0  0  0  0  0  0  0  0  0  0  0
    0.5082    3.0498    0.0188 C   0  0  0  0  0  0  0  0  0  0  0  0
   -3.4685    0.6398    1.6435 H   0  0  0  0  0  0  0  0  0  0  0  0
   -4.7661   -0.2767    0.8804 H   0  0  0  0  0  0  0  0  0  0  0  0
   -3.3435   -1.1185    1.4917 H   0  0  0  0  0  0  0  0  0  0  0  0
   -3.2673   -0.8839   -1.0134 H   0  0  0  0  0  0  0  0  0  0  0  0
   -3.3962    0.8595   -0.8556 H   0  0  0  0  0  0  0  0  0  0  0  0
    1.1751   -2.8417   -0.0787 H   0  0  0  0  0  0  0  0  0  0  0  0
    3.5910   -2.3886    0.1458 H   0  0  0  0  0  0  0  0  0  0  0  0
    4.4084   -0.0596    0.2745 H   0  0  0  0  0  0  0  0  0  0  0  0
    2.8324    1.8186    0.1832 H   0  0  0  0  0  0  0  0  0  0  0  0
    1.2165    3.3062   -0.7705 H   0  0  0  0  0  0  0  0  0  0  0  0
   -0.3629    3.6931   -0.0788 H   0  0  0  0  0  0  0  0  0  0  0  0
    0.9928    3.2695    0.9716 H   0  0  0  0  0  0  0  0  0  0  0  0
  1  2  1  0
  2  3  1  0
  3  4  1  0
  3 13  1  0
  4  5  2  0
  4  6  1  0
  6  7  1  0
  6 11  2  0
  7  8  2  0
  8  9  1  0
  9 10  2  0
 10 11  1  0
 11 12  1  0
 12 13  2  0
 12 14  1  0
  1 15  1  0
  1 16  1  0
  1 17  1  0
  2 18  1  0
  2 19  1  0
  7 20  1  0
  8 21  1  0
  9 22  1  0
 10 23  1  0
 14 24  1  0
 14 25  1  0
 14 26  1  0
M  END
