
     RDKit          3D

 66 69  0  0  0  0  0  0  0  0999 V2000
    2.0293   -0.3369   -1.3059 C   0  0  0  0  0  0  0  0  0  0  0  0
    1.1580   -0.9829   -1.8645 O   0  0  0  0  0  0  0  0  0  0  0  0
    1.9420   -2.3270    1.7384 C   0  0  0  0  0  0  0  0  0  0  0  0
    0.9250   -3.1936    2.1093 C   0  0  0  0  0  0  0  0  0  0  0  0
    0.7074   -4.3430    1.3727 C   0  0  0  0  0  0  0  0  0  0  0  0
    1.5234   -4.6364    0.2934 C   0  0  0  0  0  0  0  0  0  0  0  0
    2.5243   -3.7463   -0.0561 C   0  0  0  0  0  0  0  0  0  0  0  0
    3.5636   -4.2096   -1.3682 Cl  0  0  0  0  0  0  0  0  0  0  0  0
    2.7519   -2.5431    0.6198 C   0  0  0  0  0  0  0  0  0  0  0  0
    3.7908   -1.5586    0.1532 C   0  0  0  0  0  0  0  0  0  0  0  0
    3.4396   -0.8896   -1.1925 C   0  0  2  0  0  0  0  0  0  0  0  0
    4.4990    0.0954   -1.6742 C   0  0  0  0  0  0  0  0  0  0  0  0
    4.8425    1.1792   -0.7792 N   0  0  0  0  0  0  0  0  0  0  0  0
    3.9611    2.0334   -0.2075 C   0  0  0  0  0  0  0  0  0  0  0  0
    4.2530    3.2190    0.1972 N   0  0  0  0  0  0  0  0  0  0  0  0
    5.6054    3.5749   -0.0565 N   0  0  0  0  0  0  0  0  0  0  0  0
    6.3901    3.3423    1.1455 C   0  0  0  0  0  0  0  0  0  0  0  0
    5.6402    4.9722   -0.4355 C   0  0  0  0  0  0  0  0  0  0  0  0
    2.5880    1.5562    0.1704 C   0  0  0  0  0  0  0  0  0  0  0  0
    1.7917    0.9277   -0.8725 N   0  0  0  0  0  0  0  0  0  0  0  0
    0.4469    1.4091   -1.0659 C   0  0  0  0  0  0  0  0  0  0  0  0
   -0.5388    0.6858   -0.1540 C   0  0  0  0  0  0  0  0  0  0  0  0
   -0.1776    0.1513    0.8728 O   0  0  0  0  0  0  0  0  0  0  0  0
   -1.8227    0.7433   -0.5876 N   0  0  0  0  0  0  0  0  0  0  0  0
   -2.9751    0.2826    0.0591 C   0  0  0  0  0  0  0  0  0  0  0  0
   -4.1934    0.8070   -0.3714 C   0  0  0  0  0  0  0  0  0  0  0  0
   -5.4008    0.4015    0.1908 C   0  0  0  0  0  0  0  0  0  0  0  0
   -5.3732   -0.5520    1.2115 C   0  0  0  0  0  0  0  0  0  0  0  0
   -4.1649   -1.0813    1.6299 C   0  0  0  0  0  0  0  0  0  0  0  0
   -2.9600   -0.6807    1.0683 C   0  0  0  0  0  0  0  0  0  0  0  0
   -6.6611    0.9716   -0.2780 C   0  0  0  0  0  0  0  0  0  0  0  0
   -6.8674    2.1301   -1.0545 C   0  0  0  0  0  0  0  0  0  0  0  0
   -8.1486    2.3397   -1.2848 N   0  0  0  0  0  0  0  0  0  0  0  0
   -8.7840    1.3421   -0.6782 N   0  0  0  0  0  0  0  0  0  0  0  0
  -10.2225    1.2490   -0.7502 C   0  0  0  0  0  0  0  0  0  0  0  0
   -7.9430    0.4984   -0.0626 C   0  0  0  0  0  0  0  0  0  0  0  0
    0.3157   -2.9766    2.9753 H   0  0  0  0  0  0  0  0  0  0  0  0
   -0.0832   -5.0249    1.6545 H   0  0  0  0  0  0  0  0  0  0  0  0
    1.3877   -5.5511   -0.2665 H   0  0  0  0  0  0  0  0  0  0  0  0
    3.9718   -0.8120    0.9229 H   0  0  0  0  0  0  0  0  0  0  0  0
    4.7457   -2.0712    0.0130 H   0  0  0  0  0  0  0  0  0  0  0  0
    3.4522   -1.6732   -1.9503 H   0  0  0  0  0  0  0  0  0  0  0  0
    5.4182   -0.4679   -1.8369 H   0  0  0  0  0  0  0  0  0  0  0  0
    4.1892    0.4733   -2.6553 H   0  0  0  0  0  0  0  0  0  0  0  0
    5.7070    1.6505   -1.0190 H   0  0  0  0  0  0  0  0  0  0  0  0
    6.3849    2.2822    1.4008 H   0  0  0  0  0  0  0  0  0  0  0  0
    7.4241    3.6360    0.9627 H   0  0  0  0  0  0  0  0  0  0  0  0
    6.0186    3.9065    2.0117 H   0  0  0  0  0  0  0  0  0  0  0  0
    5.2324    5.6363    0.3389 H   0  0  0  0  0  0  0  0  0  0  0  0
    6.6721    5.2659   -0.6286 H   0  0  0  0  0  0  0  0  0  0  0  0
    5.0699    5.1248   -1.3515 H   0  0  0  0  0  0  0  0  0  0  0  0
    2.6693    0.8980    1.0358 H   0  0  0  0  0  0  0  0  0  0  0  0
    2.0499    2.4339    0.5172 H   0  0  0  0  0  0  0  0  0  0  0  0
    0.4138    2.4758   -0.8346 H   0  0  0  0  0  0  0  0  0  0  0  0
    0.1552    1.3101   -2.1126 H   0  0  0  0  0  0  0  0  0  0  0  0
   -1.9866    1.2651   -1.4356 H   0  0  0  0  0  0  0  0  0  0  0  0
   -4.1933    1.5439   -1.1667 H   0  0  0  0  0  0  0  0  0  0  0  0
   -6.2920   -0.8752    1.6839 H   0  0  0  0  0  0  0  0  0  0  0  0
   -4.1529   -1.8256    2.4155 H   0  0  0  0  0  0  0  0  0  0  0  0
   -2.0365   -1.1190    1.4100 H   0  0  0  0  0  0  0  0  0  0  0  0
   -6.1291    2.8193   -1.4371 H   0  0  0  0  0  0  0  0  0  0  0  0
  -10.5428    1.1036   -1.7802 H   0  0  0  0  0  0  0  0  0  0  0  0
  -10.5514    0.4020   -0.1556 H   0  0  0  0  0  0  0  0  0  0  0  0
  -10.6783    2.1556   -0.3581 H   0  0  0  0  0  0  0  0  0  0  0  0
   -8.3034   -0.3708    0.4639 H   0  0  0  0  0  0  0  0  0  0  0  0
    2.2206   -0.9755    2.7893 Cl  0  0  0  0  0  0  0  0  0  0  0  0
 29 30  2  0
 29 28  1  0
 30 25  1  0
 28 27  2  0
 25 24  1  0
 25 26  2  0
 27 26  1  0
 27 31  1  0
 24 22  1  0
 36 31  2  0
 36 34  1  0
 31 32  1  0
  2  1  2  0
  8  7  1  0
 34 35  1  0
 34 33  1  0
 22 21  1  0
 22 23  2  0
 32 33  2  0
 21 20  1  0
  1 20  1  0
  1 11  1  0
 10 11  1  0
 10  9  1  0
  7  9  1  0
  7  6  2  0
 20 19  1  0
 11 12  1  0
  9  3  2  0
  6  5  1  0
 12 13  1  0
 19 14  1  0
 13 14  1  0
  3  4  1  0
  3 66  1  0
  5  4  2  0
 14 15  2  0
 17 16  1  0
 15 16  1  0
 16 18  1  0
  4 37  1  0
  5 38  1  0
  6 39  1  0
 10 40  1  0
 10 41  1  0
 11 42  1  6
 12 43  1  0
 12 44  1  0
 13 45  1  0
 17 46  1  0
 17 47  1  0
 17 48  1  0
 18 49  1  0
 18 50  1  0
 18 51  1  0
 19 52  1  0
 19 53  1  0
 21 54  1  0
 21 55  1  0
 24 56  1  0
 26 57  1  0
 28 58  1  0
 29 59  1  0
 30 60  1  0
 32 61  1  0
 35 62  1  0
 35 63  1  0
 35 64  1  0
 36 65  1  0
M  END
