
     RDKit          3D

 42 45  0  0  0  0  0  0  0  0999 V2000
    5.9750    1.2079   -0.6194 C   0  0  0  0  0  0  0  0  0  0  0  0
   -0.6103   -0.2220   -0.7747 C   0  0  0  0  0  0  0  0  0  0  0  0
   -1.0390    1.5697    0.8082 C   0  0  0  0  0  0  0  0  0  0  0  0
    0.3623    2.0997    0.5175 C   0  0  0  0  0  0  0  0  0  0  0  0
   -2.8980    0.5255   -0.3687 C   0  0  0  0  0  0  0  0  0  0  0  0
   -3.4567   -0.1533   -1.4655 C   0  0  0  0  0  0  0  0  0  0  0  0
   -4.8135   -0.4045   -1.5491 C   0  0  0  0  0  0  0  0  0  0  0  0
   -5.6604    0.0177   -0.5353 C   0  0  0  0  0  0  0  0  0  0  0  0
   -5.1440    0.6852    0.5594 C   0  0  0  0  0  0  0  0  0  0  0  0
   -3.7805    0.9273    0.6451 C   0  0  0  0  0  0  0  0  0  0  0  0
    6.7094    0.0252   -0.7634 C   0  0  0  0  0  0  0  0  0  0  0  0
    4.6876    1.1631   -0.1114 C   0  0  0  0  0  0  0  0  0  0  0  0
    4.1815   -0.0832    0.2474 C   0  0  0  0  0  0  0  0  0  0  0  0
    5.0269   -1.2002    0.0511 C   0  0  0  0  0  0  0  0  0  0  0  0
    3.1065   -1.9269    0.9020 C   0  0  0  0  0  0  0  0  0  0  0  0
    2.9570   -0.5734    0.8012 C   0  0  0  0  0  0  0  0  0  0  0  0
    1.7738    0.2393    1.2011 C   0  0  0  0  0  0  0  0  0  0  0  0
    0.7741    0.3640   -1.0218 C   0  0  0  0  0  0  0  0  0  0  0  0
    6.2567   -1.1780   -0.4383 N   0  0  0  0  0  0  0  0  0  0  0  0
    4.3462   -2.3053    0.4584 N   0  0  0  0  0  0  0  0  0  0  0  0
    1.3157    1.0882    0.1111 N   0  0  0  0  0  0  0  0  0  0  0  0
   -1.5402    0.8082   -0.3229 N   0  0  0  0  0  0  0  0  0  0  0  0
   -7.3658   -0.2948   -0.6425 Cl  0  0  0  0  0  0  0  0  0  0  0  0
    6.4232    2.1473   -0.9125 H   0  0  0  0  0  0  0  0  0  0  0  0
   -0.9529   -0.6592   -1.7102 H   0  0  0  0  0  0  0  0  0  0  0  0
   -0.5621   -1.0425   -0.0437 H   0  0  0  0  0  0  0  0  0  0  0  0
   -1.0452    0.9736    1.7342 H   0  0  0  0  0  0  0  0  0  0  0  0
   -1.6845    2.4317    0.9816 H   0  0  0  0  0  0  0  0  0  0  0  0
    0.2892    2.8405   -0.2854 H   0  0  0  0  0  0  0  0  0  0  0  0
    0.7352    2.6206    1.4019 H   0  0  0  0  0  0  0  0  0  0  0  0
   -2.8377   -0.4781   -2.2897 H   0  0  0  0  0  0  0  0  0  0  0  0
   -5.2057   -0.9214   -2.4147 H   0  0  0  0  0  0  0  0  0  0  0  0
   -5.7916    1.0119    1.3622 H   0  0  0  0  0  0  0  0  0  0  0  0
   -3.4189    1.4272    1.5320 H   0  0  0  0  0  0  0  0  0  0  0  0
    7.7156    0.0663   -1.1656 H   0  0  0  0  0  0  0  0  0  0  0  0
    4.0933    2.0607   -0.0009 H   0  0  0  0  0  0  0  0  0  0  0  0
    2.4085   -2.6643    1.2668 H   0  0  0  0  0  0  0  0  0  0  0  0
    1.0014   -0.4312    1.6064 H   0  0  0  0  0  0  0  0  0  0  0  0
    2.0488    0.9042    2.0266 H   0  0  0  0  0  0  0  0  0  0  0  0
    1.4551   -0.4398   -1.3084 H   0  0  0  0  0  0  0  0  0  0  0  0
    0.7172    1.0515   -1.8716 H   0  0  0  0  0  0  0  0  0  0  0  0
    4.6923   -3.2501    0.4281 H   0  0  0  0  0  0  0  0  0  0  0  0
 19 11  1  0
 19 14  2  0
 11  1  2  0
 14 20  1  0
 14 13  1  0
 20 15  1  0
  1 12  1  0
 13 12  2  0
 13 16  1  0
 15 16  2  0
 16 17  1  0
  4 21  1  0
  4  3  1  0
 17 21  1  0
 21 18  1  0
  3 22  1  0
 10  9  2  0
 10  5  1  0
  9  8  1  0
 18  2  1  0
 22  5  1  0
 22  2  1  0
  5  6  2  0
  8 23  1  0
  8  7  2  0
  6  7  1  0
  1 24  1  0
  2 25  1  0
  2 26  1  0
  3 27  1  0
  3 28  1  0
  4 29  1  0
  4 30  1  0
  6 31  1  0
  7 32  1  0
  9 33  1  0
 10 34  1  0
 11 35  1  0
 12 36  1  0
 15 37  1  0
 17 38  1  0
 17 39  1  0
 18 40  1  0
 18 41  1  0
 20 42  1  0
M  END
