
     RDKit          3D

 53 56  0  0  0  0  0  0  0  0999 V2000
   -2.9763   -4.7857    0.1298 C   0  0  0  0  0  0  0  0  0  0  0  0
   -4.0468   -3.8629    0.0649 O   0  0  0  0  0  0  0  0  0  0  0  0
   -3.7741   -2.5487    0.1240 C   0  0  0  0  0  0  0  0  0  0  0  0
   -4.8726   -1.6934    0.0436 C   0  0  0  0  0  0  0  0  0  0  0  0
   -4.7031   -0.3172    0.1185 C   0  0  0  0  0  0  0  0  0  0  0  0
   -3.4178    0.2057    0.2654 C   0  0  0  0  0  0  0  0  0  0  0  0
   -2.3223   -0.6412    0.3360 C   0  0  0  0  0  0  0  0  0  0  0  0
   -2.4942   -2.0236    0.2724 C   0  0  0  0  0  0  0  0  0  0  0  0
   -0.9739   -0.0147    0.5059 C   0  0  0  0  0  0  0  0  0  0  0  0
   -0.8470    1.0588    1.0701 O   0  0  0  0  0  0  0  0  0  0  0  0
    0.0554   -0.7187   -0.0225 N   0  0  0  0  0  0  0  0  0  0  0  0
    1.4271   -0.4430    0.0158 C   0  0  0  0  0  0  0  0  0  0  0  0
    1.9981    0.7087    0.5519 C   0  0  0  0  0  0  0  0  0  0  0  0
    3.3750    0.8907    0.5402 C   0  0  0  0  0  0  0  0  0  0  0  0
    4.2188   -0.0715   -0.0096 C   0  0  0  0  0  0  0  0  0  0  0  0
    3.6425   -1.2246   -0.5475 C   0  0  0  0  0  0  0  0  0  0  0  0
    2.2762   -1.4061   -0.5339 C   0  0  0  0  0  0  0  0  0  0  0  0
    5.6097    0.0253   -0.0645 N   0  0  0  0  0  0  0  0  0  0  0  0
    6.4142    1.0260    0.3444 C   0  0  0  0  0  0  0  0  0  0  0  0
    6.0454    2.0676    0.8609 O   0  0  0  0  0  0  0  0  0  0  0  0
    7.8719    0.7519    0.1037 C   0  0  0  0  0  0  0  0  0  0  0  0
    8.8178    1.6978    0.4715 C   0  0  0  0  0  0  0  0  0  0  0  0
   10.1543    1.4135    0.2330 C   0  0  0  0  0  0  0  0  0  0  0  0
   10.4879    0.2055   -0.3576 C   0  0  0  0  0  0  0  0  0  0  0  0
    9.4654   -0.6745   -0.6889 C   0  0  0  0  0  0  0  0  0  0  0  0
    8.1891   -0.4071   -0.4635 N   0  0  0  0  0  0  0  0  0  0  0  0
   -5.8592    0.5937    0.0808 C   0  0  0  0  0  0  0  0  0  0  0  0
   -5.9615    1.6246    0.9476 C   0  0  0  0  0  0  0  0  0  0  0  0
   -6.9930    2.5031    0.9305 N   0  0  0  0  0  0  0  0  0  0  0  0
   -8.0296    2.4293    0.0388 C   0  0  0  0  0  0  0  0  0  0  0  0
   -8.9530    3.2146    0.0253 O   0  0  0  0  0  0  0  0  0  0  0  0
   -7.9203    1.3796   -0.8364 N   0  0  0  0  0  0  0  0  0  0  0  0
   -6.9116    0.4318   -0.9110 C   0  0  0  0  0  0  0  0  0  0  0  0
   -6.9509   -0.4339   -1.7641 O   0  0  0  0  0  0  0  0  0  0  0  0
   -3.4162   -5.7744    0.0301 H   0  0  0  0  0  0  0  0  0  0  0  0
   -2.2584   -4.6350   -0.6804 H   0  0  0  0  0  0  0  0  0  0  0  0
   -2.4483   -4.7326    1.0856 H   0  0  0  0  0  0  0  0  0  0  0  0
   -5.8600   -2.1243   -0.0537 H   0  0  0  0  0  0  0  0  0  0  0  0
   -3.2724    1.2773    0.2984 H   0  0  0  0  0  0  0  0  0  0  0  0
   -1.6440   -2.6849    0.3717 H   0  0  0  0  0  0  0  0  0  0  0  0
   -0.1842   -1.5474   -0.5442 H   0  0  0  0  0  0  0  0  0  0  0  0
    1.3870    1.4831    0.9839 H   0  0  0  0  0  0  0  0  0  0  0  0
    3.7721    1.7972    0.9659 H   0  0  0  0  0  0  0  0  0  0  0  0
    4.2704   -1.9931   -0.9824 H   0  0  0  0  0  0  0  0  0  0  0  0
    1.8643   -2.3148   -0.9564 H   0  0  0  0  0  0  0  0  0  0  0  0
    6.0994   -0.7605   -0.4760 H   0  0  0  0  0  0  0  0  0  0  0  0
    8.5173    2.6286    0.9304 H   0  0  0  0  0  0  0  0  0  0  0  0
   10.9221    2.1254    0.5047 H   0  0  0  0  0  0  0  0  0  0  0  0
   11.5166   -0.0573   -0.5600 H   0  0  0  0  0  0  0  0  0  0  0  0
    9.6885   -1.6278   -1.1529 H   0  0  0  0  0  0  0  0  0  0  0  0
   -5.2245    1.8028    1.7179 H   0  0  0  0  0  0  0  0  0  0  0  0
   -7.0190    3.2495    1.6097 H   0  0  0  0  0  0  0  0  0  0  0  0
   -8.6675    1.2942   -1.5151 H   0  0  0  0  0  0  0  0  0  0  0  0
 24 23  1  0
 24 25  2  0
 23 22  2  0
 25 26  1  0
 22 21  1  0
 21 26  2  0
 21 19  1  0
 19 18  1  0
 19 20  2  0
 18 15  1  0
 16 15  2  0
 16 17  1  0
 15 14  1  0
 17 12  2  0
 10  9  2  0
 14 13  2  0
 12 13  1  0
 12 11  1  0
 29 28  1  0
 29 30  1  0
 31 30  2  0
  9 11  1  0
  9  7  1  0
 28 27  2  0
 30 32  1  0
  6  7  2  0
  6  5  1  0
  7  8  1  0
 27  5  1  0
 27 33  1  0
 32 33  1  0
  5  4  2  0
 33 34  2  0
  8  3  2  0
  4  3  1  0
  3  2  1  0
  2  1  1  0
  1 35  1  0
  1 36  1  0
  1 37  1  0
  4 38  1  0
  6 39  1  0
  8 40  1  0
 11 41  1  0
 13 42  1  0
 14 43  1  0
 16 44  1  0
 17 45  1  0
 18 46  1  0
 22 47  1  0
 23 48  1  0
 24 49  1  0
 25 50  1  0
 28 51  1  0
 29 52  1  0
 32 53  1  0
M  END
