
     RDKit          3D

 27 27  0  0  0  0  0  0  0  0999 V2000
    4.3184    0.6299   -0.3207 C   0  0  0  0  0  0  0  0  0  0  0  0
    2.9894    0.1720    0.2612 C   0  0  0  0  0  0  0  0  0  0  0  0
    2.1722   -0.6568   -0.7307 C   0  0  0  0  0  0  0  0  0  0  0  0
    0.8592   -1.1008   -0.1760 C   0  0  0  0  0  0  0  0  0  0  0  0
    0.5590   -2.3064    0.4811 C   0  0  0  0  0  0  0  0  0  0  0  0
   -0.7035   -2.3537    0.8793 N   0  0  0  0  0  0  0  0  0  0  0  0
   -1.1975   -1.1954    0.5033 N   0  0  0  0  0  0  0  0  0  0  0  0
   -2.5002   -0.9105    0.6817 O   0  0  0  0  0  0  0  0  0  0  0  0
   -0.3273   -0.3923   -0.1393 C   0  0  0  0  0  0  0  0  0  0  0  0
   -0.7103    0.9269   -0.7399 C   0  0  2  0  0  0  0  0  0  0  0  0
   -1.3421    1.8567    0.2872 C   0  0  0  0  0  0  0  0  0  0  0  0
   -2.3034    2.5481    0.0838 O   0  0  0  0  0  0  0  0  0  0  0  0
   -0.6757    1.8290    1.4329 O   0  0  0  0  0  0  0  0  0  0  0  0
   -1.5406    0.8609   -1.9210 N   0  0  0  0  0  0  0  0  0  0  0  0
    4.8981    1.1959    0.4090 H   0  0  0  0  0  0  0  0  0  0  0  0
    4.9255   -0.2204   -0.6380 H   0  0  0  0  0  0  0  0  0  0  0  0
    4.1681    1.2694   -1.1922 H   0  0  0  0  0  0  0  0  0  0  0  0
    3.1610   -0.4193    1.1647 H   0  0  0  0  0  0  0  0  0  0  0  0
    2.4037    1.0409    0.5754 H   0  0  0  0  0  0  0  0  0  0  0  0
    2.0193   -0.0766   -1.6460 H   0  0  0  0  0  0  0  0  0  0  0  0
    2.7507   -1.5354   -1.0298 H   0  0  0  0  0  0  0  0  0  0  0  0
    1.2214   -3.1380    0.6722 H   0  0  0  0  0  0  0  0  0  0  0  0
   -2.6183   -0.6963    1.6195 H   0  0  0  0  0  0  0  0  0  0  0  0
    0.2307    1.4129   -1.0247 H   0  0  0  0  0  0  0  0  0  0  0  0
   -1.0734    2.4480    2.0639 H   0  0  0  0  0  0  0  0  0  0  0  0
   -1.0584    0.3334   -2.6367 H   0  0  0  0  0  0  0  0  0  0  0  0
   -2.4008    0.3640   -1.7266 H   0  0  0  0  0  0  0  0  0  0  0  0
  1  2  1  0
  2  3  1  0
  3  4  1  0
  5  4  1  0
  5  6  2  0
  4  9  2  0
  6  7  1  0
  9  7  1  0
  9 10  1  0
 12 11  2  0
  7  8  1  0
 10 11  1  0
 10 14  1  0
 11 13  1  0
  1 15  1  0
  1 16  1  0
  1 17  1  0
  2 18  1  0
  2 19  1  0
  3 20  1  0
  3 21  1  0
  5 22  1  0
  8 23  1  0
 10 24  1  6
 13 25  1  0
 14 26  1  0
 14 27  1  0
M  END
