
     RDKit          3D

 25 25  0  0  0  0  0  0  0  0999 V2000
   -2.4352    0.3956   -0.0006 N   0  0  0  0  0  0  0  0  0  0  0  0
    0.7263   -1.2084   -0.0622 C   0  0  0  0  0  0  0  0  0  0  0  0
    2.0237   -0.4613   -0.0484 C   0  0  0  0  0  0  0  0  0  0  0  0
    2.6498   -0.1098   -1.2404 C   0  0  0  0  0  0  0  0  0  0  0  0
    3.8425    0.6004   -1.2274 C   0  0  0  0  0  0  0  0  0  0  0  0
    4.4185    0.9687   -0.0185 C   0  0  0  0  0  0  0  0  0  0  0  0
    2.6074   -0.0885    1.1592 C   0  0  0  0  0  0  0  0  0  0  0  0
   -4.4522    1.6982    0.0249 C   0  0  0  0  0  0  0  0  0  0  0  0
   -3.8137    0.3386    0.1013 C   0  0  0  0  0  0  0  0  0  0  0  0
   -4.4294   -0.6914    0.2343 O   0  0  0  0  0  0  0  0  0  0  0  0
   -1.5706   -0.6776    0.0080 C   0  0  0  0  0  0  0  0  0  0  0  0
   -1.8830   -1.8375    0.0582 O   0  0  0  0  0  0  0  0  0  0  0  0
   -0.3237   -0.2255   -0.0534 O   0  0  0  0  0  0  0  0  0  0  0  0
    3.7994    0.6219    1.1758 C   0  0  0  0  0  0  0  0  0  0  0  0
   -2.0191    1.3122   -0.0889 H   0  0  0  0  0  0  0  0  0  0  0  0
    0.6396   -1.8308   -0.9550 H   0  0  0  0  0  0  0  0  0  0  0  0
    0.6364   -1.8528    0.8141 H   0  0  0  0  0  0  0  0  0  0  0  0
    2.2062   -0.3970   -2.1863 H   0  0  0  0  0  0  0  0  0  0  0  0
    4.3236    0.8616   -2.1609 H   0  0  0  0  0  0  0  0  0  0  0  0
    5.3496    1.5206   -0.0066 H   0  0  0  0  0  0  0  0  0  0  0  0
    2.1312   -0.3597    2.0939 H   0  0  0  0  0  0  0  0  0  0  0  0
   -4.0456    2.3607    0.7901 H   0  0  0  0  0  0  0  0  0  0  0  0
   -4.2467    2.1571   -0.9435 H   0  0  0  0  0  0  0  0  0  0  0  0
   -5.5272    1.6191    0.1577 H   0  0  0  0  0  0  0  0  0  0  0  0
    4.2473    0.9000    2.1209 H   0  0  0  0  0  0  0  0  0  0  0  0
 10  9  2  0
  8  9  1  0
  9  1  1  0
  1 11  1  0
 12 11  2  0
 11 13  1  0
 13  2  1  0
  2  3  1  0
  4  3  2  0
  4  5  1  0
  3  7  1  0
  5  6  2  0
  7 14  2  0
  6 14  1  0
  1 15  1  0
  2 16  1  0
  2 17  1  0
  4 18  1  0
  5 19  1  0
  6 20  1  0
  7 21  1  0
  8 22  1  0
  8 23  1  0
  8 24  1  0
 14 25  1  0
M  END
