
     RDKit          3D

 56 59  0  0  0  0  0  0  0  0999 V2000
    1.4937   -0.3479   -0.6441 C   0  0  2  0  0  0  0  0  0  0  0  0
    0.7815   -1.6230   -0.2043 C   0  0  0  0  0  0  0  0  0  0  0  0
   -0.6134   -1.6651   -0.8123 C   0  0  2  0  0  0  0  0  0  0  0  0
    3.0413   -0.3326   -0.4907 C   0  0  1  0  0  0  0  0  0  0  0  0
    3.6642   -1.5264   -1.2411 C   0  0  0  0  0  0  0  0  0  0  0  0
   -2.8332   -0.4468   -1.0897 C   0  0  0  0  0  0  0  0  0  0  0  0
   -1.4765   -0.5045   -0.3329 C   0  0  1  0  0  0  0  0  0  0  0  0
   -4.6706   -1.1549    0.3668 O   0  0  0  0  0  0  0  0  0  0  0  0
   -3.9136   -0.0259   -0.0634 C   0  0  1  0  0  0  0  0  0  0  0  0
   -3.0841    0.3894    1.1631 C   0  0  1  0  0  0  0  0  0  0  0  0
   -1.9436   -0.6217    1.1275 C   0  0  0  0  0  0  0  0  0  0  0  0
    3.5679    0.9440   -1.1641 C   0  0  0  0  0  0  0  0  0  0  0  0
   -0.7208    0.8249   -0.5891 C   0  0  1  0  0  0  0  0  0  0  0  0
   -1.6092    2.0144   -0.1641 C   0  0  0  0  0  0  0  0  0  0  0  0
   -2.4891    1.7921    1.0690 C   0  0  0  0  0  0  0  0  0  0  0  0
    0.7643    0.9163   -0.1161 C   0  0  2  0  0  0  0  0  0  0  0  0
    1.3897    2.1437   -0.8123 C   0  0  0  0  0  0  0  0  0  0  0  0
    2.9049    2.2228   -0.6815 C   0  0  0  0  0  0  0  0  0  0  0  0
    3.4999   -0.5032    0.9493 C   0  0  0  0  0  0  0  0  0  0  0  0
   -1.2696   -2.8826   -0.5237 O   0  0  0  0  0  0  0  0  0  0  0  0
   -4.8712    1.0341   -0.5912 C   0  0  0  0  0  0  0  0  0  0  0  0
    1.3697   -0.3076   -1.7373 H   0  0  0  0  0  0  0  0  0  0  0  0
    1.3304   -2.5011   -0.5548 H   0  0  0  0  0  0  0  0  0  0  0  0
    0.7208   -1.7079    0.8822 H   0  0  0  0  0  0  0  0  0  0  0  0
   -0.4989   -1.5563   -1.9050 H   0  0  0  0  0  0  0  0  0  0  0  0
    3.3420   -1.5083   -2.2836 H   0  0  0  0  0  0  0  0  0  0  0  0
    4.7538   -1.4566   -1.2328 H   0  0  0  0  0  0  0  0  0  0  0  0
    3.3908   -2.4899   -0.8154 H   0  0  0  0  0  0  0  0  0  0  0  0
   -2.7899    0.2464   -1.9338 H   0  0  0  0  0  0  0  0  0  0  0  0
   -3.0840   -1.4239   -1.5087 H   0  0  0  0  0  0  0  0  0  0  0  0
   -5.0594   -1.5663   -0.4117 H   0  0  0  0  0  0  0  0  0  0  0  0
   -3.6911    0.3232    2.0715 H   0  0  0  0  0  0  0  0  0  0  0  0
   -2.3136   -1.6276    1.3269 H   0  0  0  0  0  0  0  0  0  0  0  0
   -1.1747   -0.4125    1.8696 H   0  0  0  0  0  0  0  0  0  0  0  0
    4.6541    1.0075   -1.0742 H   0  0  0  0  0  0  0  0  0  0  0  0
    3.3640    0.8333   -2.2348 H   0  0  0  0  0  0  0  0  0  0  0  0
   -0.6400    0.8928   -1.6831 H   0  0  0  0  0  0  0  0  0  0  0  0
    0.7013    0.2010    1.9684 H   0  0  0  0  0  0  0  0  0  0  0  0
    1.9040    1.4385    1.6782 H   0  0  0  0  0  0  0  0  0  0  0  0
    0.2242    1.8787    1.7520 H   0  0  0  0  0  0  0  0  0  0  0  0
   -1.0051    2.9090   -0.0067 H   0  0  0  0  0  0  0  0  0  0  0  0
   -2.2504    2.2644   -1.0124 H   0  0  0  0  0  0  0  0  0  0  0  0
   -3.2791    2.5480    1.0812 H   0  0  0  0  0  0  0  0  0  0  0  0
   -1.9066    1.9563    1.9798 H   0  0  0  0  0  0  0  0  0  0  0  0
    1.1326    2.1088   -1.8778 H   0  0  0  0  0  0  0  0  0  0  0  0
    0.9519    3.0665   -0.4235 H   0  0  0  0  0  0  0  0  0  0  0  0
    3.1967    2.4404    0.3472 H   0  0  0  0  0  0  0  0  0  0  0  0
    3.2711    3.0638   -1.2760 H   0  0  0  0  0  0  0  0  0  0  0  0
    4.7128    0.1587    2.2345 H   0  0  0  0  0  0  0  0  0  0  0  0
   -0.7224   -3.5979   -0.8618 H   0  0  0  0  0  0  0  0  0  0  0  0
   -5.5885    1.3318    0.1762 H   0  0  0  0  0  0  0  0  0  0  0  0
   -4.3504    1.9283   -0.9310 H   0  0  0  0  0  0  0  0  0  0  0  0
   -5.4335    0.6469   -1.4450 H   0  0  0  0  0  0  0  0  0  0  0  0
    0.9053    1.1040    1.3984 C   0  0  0  0  0  0  0  0  0  0  0  0
    3.1198   -1.3855    1.6814 O   0  0  0  0  0  0  0  0  0  0  0  0
    4.4370    0.3612    1.3275 O   0  0  0  0  0  0  0  0  0  0  0  0
 15 10  1  0
 15 14  1  0
 10 11  1  0
 10  9  1  0
 14 13  1  0
 16 54  1  1
 21  9  1  0
 11  7  1  0
  9  8  1  1
  9  6  1  0
 55 19  2  0
 13 16  1  0
 13  7  1  0
 16 17  1  0
 16  1  1  0
 56 19  1  0
 17 18  1  0
  7  6  1  6
  7  3  1  0
  4 19  1  1
 18 12  1  0
  1  2  1  0
  1  4  1  0
  2  3  1  0
  4 12  1  0
  4  5  1  0
  3 20  1  0
  1 22  1  6
  2 23  1  0
  2 24  1  0
  3 25  1  6
  5 26  1  0
  5 27  1  0
  5 28  1  0
  6 29  1  0
  6 30  1  0
  8 31  1  0
 10 32  1  1
 11 33  1  0
 11 34  1  0
 12 35  1  0
 12 36  1  0
 13 37  1  6
 54 38  1  0
 54 39  1  0
 54 40  1  0
 14 41  1  0
 14 42  1  0
 15 43  1  0
 15 44  1  0
 17 45  1  0
 17 46  1  0
 18 47  1  0
 18 48  1  0
 56 49  1  0
 20 50  1  0
 21 51  1  0
 21 52  1  0
 21 53  1  0
M  END
