
     RDKit          3D

 40 42  0  0  0  0  0  0  0  0999 V2000
   -0.9102    0.2845   -1.1384 C   0  0  0  0  0  0  0  0  0  0  0  0
   -2.4004   -0.0202   -1.0106 C   0  0  2  0  0  0  0  0  0  0  0  0
   -3.0471    0.5406    0.2734 C   0  0  2  0  0  0  0  0  0  0  0  0
   -2.1919    0.1848    1.5012 C   0  0  0  0  0  0  0  0  0  0  0  0
   -0.7228    0.5611    1.3513 C   0  0  0  0  0  0  0  0  0  0  0  0
   -2.7554   -1.5198   -1.0110 C   0  0  0  0  0  0  0  0  0  0  0  0
   -3.9615   -1.6755   -0.0631 C   0  0  0  0  0  0  0  0  0  0  0  0
   -4.3602   -0.2534    0.3511 C   0  0  2  0  0  0  0  0  0  0  0  0
   -5.2850    0.3126   -0.5570 O   0  0  0  0  0  0  0  0  0  0  0  0
   -3.2634    2.0488    0.2138 C   0  0  0  0  0  0  0  0  0  0  0  0
    5.3962    1.2275   -0.4037 O   0  0  0  0  0  0  0  0  0  0  0  0
    2.0336   -1.9978    0.3560 F   0  0  0  0  0  0  0  0  0  0  0  0
    4.6016   -1.3818    0.1160 F   0  0  0  0  0  0  0  0  0  0  0  0
   -0.1138   -0.1001    0.1119 C   0  0  2  0  0  0  0  0  0  0  0  0
    1.7832    1.5366   -0.2956 C   0  0  0  0  0  0  0  0  0  0  0  0
    1.3488    0.2365   -0.0338 C   0  0  0  0  0  0  0  0  0  0  0  0
    2.3413   -0.7189    0.0999 C   0  0  0  0  0  0  0  0  0  0  0  0
    3.6846   -0.4090   -0.0209 C   0  0  0  0  0  0  0  0  0  0  0  0
    4.1023    0.8877   -0.2803 C   0  0  0  0  0  0  0  0  0  0  0  0
    3.1216    1.8660   -0.4173 C   0  0  0  0  0  0  0  0  0  0  0  0
   -0.5022   -0.2351   -2.0105 H   0  0  0  0  0  0  0  0  0  0  0  0
   -0.7800    1.3537   -1.3353 H   0  0  0  0  0  0  0  0  0  0  0  0
   -2.9029    0.4466   -1.8638 H   0  0  0  0  0  0  0  0  0  0  0  0
   -2.6119    0.6752    2.3843 H   0  0  0  0  0  0  0  0  0  0  0  0
   -2.2443   -0.8892    1.7041 H   0  0  0  0  0  0  0  0  0  0  0  0
   -0.6057    1.6471    1.2888 H   0  0  0  0  0  0  0  0  0  0  0  0
   -0.1754    0.2469    2.2436 H   0  0  0  0  0  0  0  0  0  0  0  0
   -2.9815   -1.8606   -2.0220 H   0  0  0  0  0  0  0  0  0  0  0  0
   -1.9171   -2.1279   -0.6641 H   0  0  0  0  0  0  0  0  0  0  0  0
   -4.7995   -2.2023   -0.5257 H   0  0  0  0  0  0  0  0  0  0  0  0
   -3.6894   -2.2602    0.8167 H   0  0  0  0  0  0  0  0  0  0  0  0
   -4.7709   -0.2341    1.3716 H   0  0  0  0  0  0  0  0  0  0  0  0
   -6.0523   -0.2656   -0.5965 H   0  0  0  0  0  0  0  0  0  0  0  0
   -3.8227    2.3434   -0.6733 H   0  0  0  0  0  0  0  0  0  0  0  0
   -3.8105    2.4042    1.0903 H   0  0  0  0  0  0  0  0  0  0  0  0
   -2.3160    2.5899    0.1877 H   0  0  0  0  0  0  0  0  0  0  0  0
    5.9764    0.4688   -0.2706 H   0  0  0  0  0  0  0  0  0  0  0  0
   -0.2058   -1.1807    0.2494 H   0  0  0  0  0  0  0  0  0  0  0  0
    1.0491    2.3242   -0.4079 H   0  0  0  0  0  0  0  0  0  0  0  0
    3.4196    2.8865   -0.6195 H   0  0  0  0  0  0  0  0  0  0  0  0
  7  8  1  0
  7  6  1  0
  9  8  1  0
  8  3  1  0
  6  2  1  0
  3  2  1  0
  3  4  1  0
  3 10  1  6
  2  1  1  0
  4  5  1  0
  1 14  1  0
  5 14  1  0
 14 16  1  0
 12 17  1  0
 16 17  1  0
 16 15  2  0
 17 18  2  0
 15 20  1  0
 18 13  1  0
 18 19  1  0
 20 19  2  0
 19 11  1  0
  1 21  1  0
  1 22  1  0
  2 23  1  6
  4 24  1  0
  4 25  1  0
  5 26  1  0
  5 27  1  0
  6 28  1  0
  6 29  1  0
  7 30  1  0
  7 31  1  0
  8 32  1  1
  9 33  1  0
 10 34  1  0
 10 35  1  0
 10 36  1  0
 11 37  1  0
 14 38  1  1
 15 39  1  0
 20 40  1  0
M  END
