
     RDKit          3D

 31 33  0  0  0  0  0  0  0  0999 V2000
   -3.8458    1.6646    0.0183 O   0  0  0  0  0  0  0  0  0  0  0  0
   -2.6947    2.0871    0.0161 C   0  0  0  0  0  0  0  0  0  0  0  0
   -2.4150    3.5711    0.0223 C   0  0  0  0  0  0  0  0  0  0  0  0
   -1.5406    1.2272    0.0062 C   0  0  0  0  0  0  0  0  0  0  0  0
   -1.5779   -0.1741   -0.0032 N   0  0  0  0  0  0  0  0  0  0  0  0
   -2.6492   -1.0102   -0.0044 C   0  0  0  0  0  0  0  0  0  0  0  0
   -2.4749   -2.3537   -0.0144 C   0  0  0  0  0  0  0  0  0  0  0  0
   -1.1695   -2.9188   -0.0215 C   0  0  0  0  0  0  0  0  0  0  0  0
   -1.0204   -4.2653   -0.0707 N   0  0  0  0  0  0  0  0  0  0  0  0
   -0.0869   -2.0540   -0.0175 C   0  0  0  0  0  0  0  0  0  0  0  0
   -0.2902   -0.6737   -0.0115 C   0  0  0  0  0  0  0  0  0  0  0  0
    0.5907    0.4374   -0.0074 C   0  0  0  0  0  0  0  0  0  0  0  0
   -0.2062    1.5833    0.0033 C   0  0  0  0  0  0  0  0  0  0  0  0
    2.0371    0.4246   -0.0125 C   0  0  0  0  0  0  0  0  0  0  0  0
    2.6682   -0.7528   -0.0190 N   0  0  0  0  0  0  0  0  0  0  0  0
    3.9928   -0.7336   -0.0242 C   0  0  0  0  0  0  0  0  0  0  0  0
    4.7205    0.4432   -0.0231 C   0  0  0  0  0  0  0  0  0  0  0  0
    3.9741    1.6123   -0.0160 C   0  0  0  0  0  0  0  0  0  0  0  0
    2.6529    1.6132   -0.0107 N   0  0  0  0  0  0  0  0  0  0  0  0
   -3.3517    4.1239    0.0413 H   0  0  0  0  0  0  0  0  0  0  0  0
   -1.8239    3.8589    0.8925 H   0  0  0  0  0  0  0  0  0  0  0  0
   -1.8541    3.8693   -0.8644 H   0  0  0  0  0  0  0  0  0  0  0  0
   -3.6239   -0.5539    0.0036 H   0  0  0  0  0  0  0  0  0  0  0  0
   -3.3488   -2.9906   -0.0179 H   0  0  0  0  0  0  0  0  0  0  0  0
   -1.7998   -4.8432    0.1947 H   0  0  0  0  0  0  0  0  0  0  0  0
   -0.1190   -4.6557    0.1470 H   0  0  0  0  0  0  0  0  0  0  0  0
    0.9276   -2.4230   -0.0196 H   0  0  0  0  0  0  0  0  0  0  0  0
    0.1640    2.5966    0.0089 H   0  0  0  0  0  0  0  0  0  0  0  0
    4.4918   -1.6966   -0.0296 H   0  0  0  0  0  0  0  0  0  0  0  0
    5.7999    0.4510   -0.0276 H   0  0  0  0  0  0  0  0  0  0  0  0
    4.4611    2.5817   -0.0152 H   0  0  0  0  0  0  0  0  0  0  0  0
 16 15  2  0
 16 17  1  0
 15 14  1  0
  3  2  1  0
 17 18  2  0
 13 12  1  0
 13  4  2  0
 14 12  1  0
 14 19  2  0
 12 11  2  0
  4  2  1  0
  4  5  1  0
  2  1  2  0
 11  5  1  0
 11 10  1  0
  5  6  1  0
 10  8  2  0
  6  7  2  0
  8  7  1  0
  8  9  1  0
 18 19  1  0
  3 20  1  0
  3 21  1  0
  3 22  1  0
  6 23  1  0
  7 24  1  0
  9 25  1  0
  9 26  1  0
 10 27  1  0
 13 28  1  0
 16 29  1  0
 17 30  1  0
 18 31  1  0
M  END
