
     RDKit          3D

 28 28  0  0  0  0  0  0  0  0999 V2000
    3.7803   -1.8650    0.1735 O   0  0  0  0  0  0  0  0  0  0  0  0
    4.2472   -0.7526    0.0886 C   0  0  0  0  0  0  0  0  0  0  0  0
    5.7201   -0.4802    0.0486 C   0  0  0  0  0  0  0  0  0  0  0  0
    3.3640    0.4688   -0.0086 C   0  0  0  0  0  0  0  0  0  0  0  0
    1.9798    0.1013   -0.0531 N   0  0  0  0  0  0  0  0  0  0  0  0
    1.0091    1.0276   -0.0775 C   0  0  0  0  0  0  0  0  0  0  0  0
    1.1996    2.2277   -0.0861 O   0  0  0  0  0  0  0  0  0  0  0  0
   -0.2009    0.4588   -0.0944 O   0  0  0  0  0  0  0  0  0  0  0  0
   -1.3311    1.3389   -0.0937 C   0  0  0  0  0  0  0  0  0  0  0  0
   -2.5554    0.4754   -0.0561 C   0  0  0  0  0  0  0  0  0  0  0  0
   -2.9857   -0.0803    1.1466 C   0  0  0  0  0  0  0  0  0  0  0  0
   -4.1057   -0.8977    1.1843 C   0  0  0  0  0  0  0  0  0  0  0  0
   -4.8094   -1.1680    0.0164 C   0  0  0  0  0  0  0  0  0  0  0  0
   -4.3879   -0.6177   -1.1861 C   0  0  0  0  0  0  0  0  0  0  0  0
   -3.2637    0.1977   -1.2205 C   0  0  0  0  0  0  0  0  0  0  0  0
    6.2904   -1.3515    0.3618 H   0  0  0  0  0  0  0  0  0  0  0  0
    6.0062   -0.2253   -0.9744 H   0  0  0  0  0  0  0  0  0  0  0  0
    5.9831    0.3738    0.6729 H   0  0  0  0  0  0  0  0  0  0  0  0
    3.5872    1.1113    0.8504 H   0  0  0  0  0  0  0  0  0  0  0  0
    3.6676    1.0368   -0.8950 H   0  0  0  0  0  0  0  0  0  0  0  0
    1.7495   -0.8804   -0.0178 H   0  0  0  0  0  0  0  0  0  0  0  0
   -1.2943    1.9946    0.7788 H   0  0  0  0  0  0  0  0  0  0  0  0
   -1.3256    1.9639   -0.9890 H   0  0  0  0  0  0  0  0  0  0  0  0
   -2.4451    0.1325    2.0615 H   0  0  0  0  0  0  0  0  0  0  0  0
   -4.4323   -1.3216    2.1250 H   0  0  0  0  0  0  0  0  0  0  0  0
   -5.6857   -1.8024    0.0457 H   0  0  0  0  0  0  0  0  0  0  0  0
   -4.9333   -0.8214   -2.0985 H   0  0  0  0  0  0  0  0  0  0  0  0
   -2.9390    0.6256   -2.1616 H   0  0  0  0  0  0  0  0  0  0  0  0
  1  2  2  0
  2  3  1  0
  2  4  1  0
  4  5  1  0
  5  6  1  0
  6  7  2  0
  6  8  1  0
  8  9  1  0
  9 10  1  0
 10 11  2  0
 10 15  1  0
 11 12  1  0
 12 13  2  0
 13 14  1  0
 14 15  2  0
  3 16  1  0
  3 17  1  0
  3 18  1  0
  4 19  1  0
  4 20  1  0
  5 21  1  0
  9 22  1  0
  9 23  1  0
 11 24  1  0
 12 25  1  0
 13 26  1  0
 14 27  1  0
 15 28  1  0
M  END
