
     RDKit          3D

 29 29  0  0  0  0  0  0  0  0999 V2000
   -3.0331    1.6392   -0.6715 N   0  0  0  0  0  0  0  0  0  0  0  0
   -2.9251    0.2370   -0.3528 C   0  0  1  0  0  0  0  0  0  0  0  0
   -1.9431   -0.0528    0.8002 C   0  0  0  0  0  0  0  0  0  0  0  0
   -0.5280    0.0417    0.3533 C   0  0  0  0  0  0  0  0  0  0  0  0
    0.1318    1.2753    0.3351 C   0  0  0  0  0  0  0  0  0  0  0  0
    1.4575    1.3596   -0.0846 C   0  0  0  0  0  0  0  0  0  0  0  0
    0.1588   -1.1080   -0.0550 C   0  0  0  0  0  0  0  0  0  0  0  0
    1.4836   -1.0258   -0.4746 C   0  0  0  0  0  0  0  0  0  0  0  0
    2.1428    0.2096   -0.4915 C   0  0  0  0  0  0  0  0  0  0  0  0
    3.5588    0.3105   -0.9387 C   0  0  0  0  0  0  0  0  0  0  0  0
    4.4740   -0.5759   -0.1502 C   0  0  0  0  0  0  0  0  0  0  0  0
    5.3426    0.1046    0.6500 O   0  0  0  0  0  0  0  0  0  0  0  0
    4.5509   -1.8074   -0.1257 O   0  0  0  0  0  0  0  0  0  0  0  0
   -4.2619   -0.4094    0.0034 C   0  0  0  0  0  0  0  0  0  0  0  0
   -5.2448    0.1082    0.5429 O   0  0  0  0  0  0  0  0  0  0  0  0
   -4.3591   -1.7254   -0.3255 O   0  0  0  0  0  0  0  0  0  0  0  0
   -3.6858    1.7841   -1.4165 H   0  0  0  0  0  0  0  0  0  0  0  0
   -3.3185    2.1720    0.1265 H   0  0  0  0  0  0  0  0  0  0  0  0
   -2.5503   -0.2972   -1.2790 H   0  0  0  0  0  0  0  0  0  0  0  0
   -2.1253    0.6615    1.6461 H   0  0  0  0  0  0  0  0  0  0  0  0
   -2.1573   -1.0901    1.1766 H   0  0  0  0  0  0  0  0  0  0  0  0
   -0.4005    2.1847    0.6544 H   0  0  0  0  0  0  0  0  0  0  0  0
    1.9644    2.3357   -0.0937 H   0  0  0  0  0  0  0  0  0  0  0  0
   -0.3502   -2.0842   -0.0450 H   0  0  0  0  0  0  0  0  0  0  0  0
    2.0224   -1.9330   -0.7957 H   0  0  0  0  0  0  0  0  0  0  0  0
    3.6329   -0.0097   -2.0156 H   0  0  0  0  0  0  0  0  0  0  0  0
    3.9224    1.3714   -0.8643 H   0  0  0  0  0  0  0  0  0  0  0  0
    5.9054   -0.5232    1.1316 H   0  0  0  0  0  0  0  0  0  0  0  0
   -5.2333   -2.0641   -0.0691 H   0  0  0  0  0  0  0  0  0  0  0  0
  1  2  1  0
  1 17  1  0
  1 18  1  0
  2  3  1  0
  2 14  1  0
  2 19  1  6
  3  4  1  0
  3 20  1  0
  3 21  1  0
  4  5  2  0
  4  7  1  0
  5  6  1  0
  5 22  1  0
  6  9  2  0
  6 23  1  0
  7  8  2  0
  7 24  1  0
  8  9  1  0
  8 25  1  0
  9 10  1  0
 10 11  1  0
 10 26  1  0
 10 27  1  0
 11 12  1  0
 11 13  2  0
 12 28  1  0
 14 15  2  0
 14 16  1  0
 16 29  1  0
M  END
