
     RDKit          3D

 28 30  0  0  0  0  0  0  0  0999 V2000
    0.1517   -1.0405    0.0059 C   0  0  0  0  0  0  0  0  0  0  0  0
    0.4058    0.3334    0.0208 C   0  0  0  0  0  0  0  0  0  0  0  0
   -0.7039    1.3167    0.0841 C   0  0  0  0  0  0  0  0  0  0  0  0
   -2.0885    0.7918    0.1328 C   0  0  0  0  0  0  0  0  0  0  0  0
   -2.3432   -0.5839    0.1128 C   0  0  0  0  0  0  0  0  0  0  0  0
   -1.2361   -1.5656    0.0443 C   0  0  0  0  0  0  0  0  0  0  0  0
    1.2157   -1.9327   -0.0513 C   0  0  0  0  0  0  0  0  0  0  0  0
    2.5175   -1.4648   -0.0808 C   0  0  0  0  0  0  0  0  0  0  0  0
    2.7773   -0.0957   -0.0632 C   0  0  0  0  0  0  0  0  0  0  0  0
    1.7143    0.7961   -0.0276 C   0  0  0  0  0  0  0  0  0  0  0  0
   -3.1511    1.6880    0.1998 C   0  0  0  0  0  0  0  0  0  0  0  0
   -3.6557   -1.0447    0.1586 C   0  0  0  0  0  0  0  0  0  0  0  0
   -4.4539    1.2208    0.2462 C   0  0  0  0  0  0  0  0  0  0  0  0
   -4.7069   -0.1458    0.2251 C   0  0  0  0  0  0  0  0  0  0  0  0
    4.1668    0.4676   -0.1265 C   0  0  0  0  0  0  0  0  0  0  0  0
    5.1454   -0.3271    0.3239 N   0  0  0  0  0  0  0  0  0  0  0  0
   -0.4818    2.5091    0.0972 O   0  0  0  0  0  0  0  0  0  0  0  0
   -1.4511   -2.7590    0.0209 O   0  0  0  0  0  0  0  0  0  0  0  0
    4.3610    1.5873   -0.5747 O   0  0  0  0  0  0  0  0  0  0  0  0
    1.0312   -2.9976   -0.0754 H   0  0  0  0  0  0  0  0  0  0  0  0
    3.3231   -2.1846   -0.1395 H   0  0  0  0  0  0  0  0  0  0  0  0
    1.9032    1.8609   -0.0284 H   0  0  0  0  0  0  0  0  0  0  0  0
   -2.9597    2.7522    0.2159 H   0  0  0  0  0  0  0  0  0  0  0  0
   -3.8523   -2.1080    0.1430 H   0  0  0  0  0  0  0  0  0  0  0  0
   -5.2746    1.9232    0.2983 H   0  0  0  0  0  0  0  0  0  0  0  0
   -5.7251   -0.5093    0.2612 H   0  0  0  0  0  0  0  0  0  0  0  0
    6.0956    0.0076    0.3255 H   0  0  0  0  0  0  0  0  0  0  0  0
    4.9658   -1.1819    0.8217 H   0  0  0  0  0  0  0  0  0  0  0  0
  7  1  2  0
  1  6  1  0
  1  2  1  0
 10  2  2  0
  2  3  1  0
  3  4  1  0
  3 17  2  0
  5  4  2  0
  4 11  1  0
  6  5  1  0
  5 12  1  0
 18  6  2  0
 20  7  1  0
  8  7  1  0
 21  8  1  0
  8  9  2  0
 15  9  1  0
  9 10  1  0
 10 22  1  0
 11 13  2  0
 11 23  1  0
 24 12  1  0
 12 14  2  0
 14 13  1  0
 13 25  1  0
 14 26  1  0
 16 15  1  0
 15 19  2  0
 27 16  1  0
 16 28  1  0
M  END
