
     RDKit          3D

 62 66  0  0  0  0  0  0  0  0999 V2000
    7.9536   -1.2146    1.5602 C   0  0  0  0  0  0  0  0  0  0  0  0
    5.7703   -1.9702    0.9225 C   0  0  0  0  0  0  0  0  0  0  0  0
    4.7177   -1.9629   -0.1698 C   0  0  0  0  0  0  0  0  0  0  0  0
   -4.7931   -4.3138   -0.9134 O   0  0  0  0  0  0  0  0  0  0  0  0
    0.4044    3.6644   -0.9980 C   0  0  0  0  0  0  0  0  0  0  0  0
   -2.2221    1.2044    0.0011 C   0  0  0  0  0  0  0  0  0  0  0  0
   -2.5813   -0.0991   -0.2532 C   0  0  0  0  0  0  0  0  0  0  0  0
   -4.5704   -1.5958   -0.0186 C   0  0  2  0  0  0  0  0  0  0  0  0
   -3.9014   -2.7494    0.7199 C   0  0  0  0  0  0  0  0  0  0  0  0
   -4.6839   -4.0299    0.4635 C   0  0  0  0  0  0  0  0  0  0  0  0
   -5.4655   -3.2894   -1.6105 C   0  0  0  0  0  0  0  0  0  0  0  0
   -4.7460   -1.9529   -1.4911 C   0  0  0  0  0  0  0  0  0  0  0  0
   -4.3562    0.8100    0.6999 C   0  0  0  0  0  0  0  0  0  0  0  0
   -5.5938    1.0874    1.2738 C   0  0  0  0  0  0  0  0  0  0  0  0
   -4.9183    3.2337    1.7135 C   0  0  0  0  0  0  0  0  0  0  0  0
   -3.6658    3.0598    1.1643 C   0  0  0  0  0  0  0  0  0  0  0  0
   -3.3623    1.8069    0.6214 C   0  0  0  0  0  0  0  0  0  0  0  0
    6.9069   -1.1486    0.5536 N   0  0  0  0  0  0  0  0  0  0  0  0
    9.2798   -0.6388    1.0919 C   0  0  0  0  0  0  0  0  0  0  0  0
    2.1214   -1.0800   -0.0549 O   0  0  0  0  0  0  0  0  0  0  0  0
   -0.8406    3.1623   -0.6743 C   0  0  0  0  0  0  0  0  0  0  0  0
    5.4178    0.2518   -0.7988 C   0  0  0  0  0  0  0  0  0  0  0  0
    6.4755    0.2095    0.2919 C   0  0  0  0  0  0  0  0  0  0  0  0
    2.9807   -0.2741   -0.3891 C   0  0  0  0  0  0  0  0  0  0  0  0
    1.4303    1.6533   -0.6770 C   0  0  0  0  0  0  0  0  0  0  0  0
    0.2245    1.0454   -0.3281 C   0  0  0  0  0  0  0  0  0  0  0  0
   -0.9388    1.8122   -0.3293 C   0  0  0  0  0  0  0  0  0  0  0  0
    4.2961   -0.6037   -0.4574 N   0  0  0  0  0  0  0  0  0  0  0  0
    2.6651    1.0219   -0.7221 N   0  0  0  0  0  0  0  0  0  0  0  0
    1.5150    2.9419   -1.0033 N   0  0  0  0  0  0  0  0  0  0  0  0
   -3.8520   -0.3422    0.1545 N   0  0  0  0  0  0  0  0  0  0  0  0
   -5.8628    2.2815    1.7649 N   0  0  0  0  0  0  0  0  0  0  0  0
    7.6411   -0.7197    2.4950 H   0  0  0  0  0  0  0  0  0  0  0  0
    8.1019   -2.2685    1.8080 H   0  0  0  0  0  0  0  0  0  0  0  0
    5.3094   -1.6370    1.8690 H   0  0  0  0  0  0  0  0  0  0  0  0
    6.1098   -2.9974    1.0746 H   0  0  0  0  0  0  0  0  0  0  0  0
    5.1309   -2.4085   -1.0812 H   0  0  0  0  0  0  0  0  0  0  0  0
    3.8634   -2.5596    0.1351 H   0  0  0  0  0  0  0  0  0  0  0  0
    0.5130    4.7071   -1.2746 H   0  0  0  0  0  0  0  0  0  0  0  0
   -1.9998   -0.8711   -0.7351 H   0  0  0  0  0  0  0  0  0  0  0  0
   -5.5611   -1.4437    0.4160 H   0  0  0  0  0  0  0  0  0  0  0  0
   -2.8708   -2.8738    0.3750 H   0  0  0  0  0  0  0  0  0  0  0  0
   -3.8705   -2.5506    1.7930 H   0  0  0  0  0  0  0  0  0  0  0  0
   -5.6828   -3.9433    0.9163 H   0  0  0  0  0  0  0  0  0  0  0  0
   -4.1854   -4.8798    0.9307 H   0  0  0  0  0  0  0  0  0  0  0  0
   -5.5245   -3.5943   -2.6559 H   0  0  0  0  0  0  0  0  0  0  0  0
   -6.4958   -3.1858   -1.2391 H   0  0  0  0  0  0  0  0  0  0  0  0
   -5.3217   -1.1814   -2.0068 H   0  0  0  0  0  0  0  0  0  0  0  0
   -3.7707   -2.0204   -1.9813 H   0  0  0  0  0  0  0  0  0  0  0  0
   -6.3749    0.3376    1.3402 H   0  0  0  0  0  0  0  0  0  0  0  0
   -5.1886    4.1917    2.1419 H   0  0  0  0  0  0  0  0  0  0  0  0
   -2.9562    3.8755    1.1737 H   0  0  0  0  0  0  0  0  0  0  0  0
    9.6117   -1.1303    0.1768 H   0  0  0  0  0  0  0  0  0  0  0  0
    9.2295    0.4334    0.9023 H   0  0  0  0  0  0  0  0  0  0  0  0
   10.0424   -0.7960    1.8546 H   0  0  0  0  0  0  0  0  0  0  0  0
   -1.7080    3.8040   -0.7253 H   0  0  0  0  0  0  0  0  0  0  0  0
    5.1276    1.2897   -0.9364 H   0  0  0  0  0  0  0  0  0  0  0  0
    5.8505   -0.0857   -1.7460 H   0  0  0  0  0  0  0  0  0  0  0  0
    6.0752    0.6938    1.2001 H   0  0  0  0  0  0  0  0  0  0  0  0
    7.3214    0.8102   -0.0469 H   0  0  0  0  0  0  0  0  0  0  0  0
    0.1930    0.0061   -0.0477 H   0  0  0  0  0  0  0  0  0  0  0  0
    3.3902    1.6538   -1.0199 H   0  0  0  0  0  0  0  0  0  0  0  0
  5 30  2  0
  5 21  1  0
 30 25  1  0
 19  1  1  0
  2  3  1  0
  2 18  1  0
 21 27  2  0
  3 28  1  0
 25 29  1  0
 25 26  2  0
 29 24  1  0
  1 18  1  0
 16 15  1  0
 16 17  2  0
 18 23  1  0
 27 26  1  0
 27  6  1  0
 15 32  2  0
 28 24  1  0
 28 22  1  0
 24 20  2  0
 23 22  1  0
 17  6  1  0
 17 13  1  0
  6  7  2  0
 32 14  1  0
 13 14  2  0
 13 31  1  0
  7 31  1  0
 31  8  1  0
  8 12  1  0
  8  9  1  0
 12 11  1  0
  9 10  1  0
 11  4  1  0
 10  4  1  0
  1 33  1  0
  1 34  1  0
  2 35  1  0
  2 36  1  0
  3 37  1  0
  3 38  1  0
  5 39  1  0
  7 40  1  0
  8 41  1  1
  9 42  1  0
  9 43  1  0
 10 44  1  0
 10 45  1  0
 11 46  1  0
 11 47  1  0
 12 48  1  0
 12 49  1  0
 14 50  1  0
 15 51  1  0
 16 52  1  0
 19 53  1  0
 19 54  1  0
 19 55  1  0
 21 56  1  0
 22 57  1  0
 22 58  1  0
 23 59  1  0
 23 60  1  0
 26 61  1  0
 29 62  1  0
M  END
