
     RDKit          3D

  5  4  0  0  0  0  0  0  0  0999 V2000
   -0.0275    0.5928    0.0233 C   0  0  1  0  0  0  0  0  0  0  0  0
   -1.8627    0.0188   -0.0858 Br  0  0  0  0  0  0  0  0  0  0  0  0
    0.8097   -0.1014    1.6128 Br  0  0  0  0  0  0  0  0  0  0  0  0
    0.9477    0.0586   -1.5492 Br  0  0  0  0  0  0  0  0  0  0  0  0
   -0.0143    1.6815    0.0790 H   0  0  0  0  0  0  0  0  0  0  0  0
  1  2  1  0
  1  3  1  0
  1  4  1  0
  1  5  1  1
M  END
