
     RDKit          3D

 19 19  0  0  0  0  0  0  0  0999 V2000
   -0.0814    0.0236    2.9469 C   0  0  0  0  0  0  0  0  0  0  0  0
   -1.2390    0.0432    3.2992 O   0  0  0  0  0  0  0  0  0  0  0  0
    0.9374    0.0118    3.8021 O   0  0  0  0  0  0  0  0  0  0  0  0
    0.3862    0.0095    1.5529 C   0  0  0  0  0  0  0  0  0  0  0  0
   -0.4896    0.0201    0.5417 C   0  0  0  0  0  0  0  0  0  0  0  0
   -0.1757    0.0069   -0.8828 C   0  0  0  0  0  0  0  0  0  0  0  0
   -1.2318    0.0208   -1.7973 C   0  0  0  0  0  0  0  0  0  0  0  0
   -0.9904    0.0084   -3.1631 C   0  0  0  0  0  0  0  0  0  0  0  0
    0.3139   -0.0184   -3.6355 C   0  0  0  0  0  0  0  0  0  0  0  0
    1.3754   -0.0324   -2.7354 C   0  0  0  0  0  0  0  0  0  0  0  0
    1.1345   -0.0198   -1.3730 C   0  0  0  0  0  0  0  0  0  0  0  0
    0.6059    0.0206    4.7121 H   0  0  0  0  0  0  0  0  0  0  0  0
    1.4564   -0.0100    1.3885 H   0  0  0  0  0  0  0  0  0  0  0  0
   -1.5484    0.0400    0.7824 H   0  0  0  0  0  0  0  0  0  0  0  0
   -2.2519    0.0419   -1.4329 H   0  0  0  0  0  0  0  0  0  0  0  0
   -1.8204    0.0197   -3.8569 H   0  0  0  0  0  0  0  0  0  0  0  0
    0.5054   -0.0282   -4.7005 H   0  0  0  0  0  0  0  0  0  0  0  0
    2.3943   -0.0533   -3.0997 H   0  0  0  0  0  0  0  0  0  0  0  0
    1.9737   -0.0304   -0.6891 H   0  0  0  0  0  0  0  0  0  0  0  0
  1  2  2  0
  1  3  1  0
  1  4  1  0
  3 12  1  0
  4  5  2  0
  4 13  1  0
  5  6  1  0
  5 14  1  0
  6  7  2  0
  6 11  1  0
  7  8  1  0
  7 15  1  0
  8  9  2  0
  8 16  1  0
  9 10  1  0
  9 17  1  0
 10 11  2  0
 10 18  1  0
 11 19  1  0
M  END
