
     RDKit          3D

 27 29  0  0  0  0  0  0  0  0999 V2000
   -0.7749   -0.5005    1.0274 N   0  0  0  0  0  0  0  0  0  0  0  0
   -1.9930   -0.3414    0.4038 C   0  0  0  0  0  0  0  0  0  0  0  0
   -2.2505    0.6913   -0.5053 C   0  0  0  0  0  0  0  0  0  0  0  0
   -3.4990    0.8062   -1.0996 C   0  0  0  0  0  0  0  0  0  0  0  0
   -4.5198   -0.0900   -0.8126 C   0  0  0  0  0  0  0  0  0  0  0  0
   -4.2665   -1.1171    0.0901 C   0  0  0  0  0  0  0  0  0  0  0  0
   -3.0265   -1.2451    0.6916 C   0  0  0  0  0  0  0  0  0  0  0  0
    0.3669    0.2620    0.7826 C   0  0  0  0  0  0  0  0  0  0  0  0
    0.5525    1.5918    1.0493 C   0  0  0  0  0  0  0  0  0  0  0  0
    1.5876   -0.2091    0.2030 C   0  0  0  0  0  0  0  0  0  0  0  0
    2.0636   -1.4255   -0.2777 C   0  0  0  0  0  0  0  0  0  0  0  0
    2.4666    0.8962    0.1519 C   0  0  0  0  0  0  0  0  0  0  0  0
    1.8069    1.9719    0.6578 N   0  0  0  0  0  0  0  0  0  0  0  0
    3.7069    0.8880   -0.3105 N   0  0  0  0  0  0  0  0  0  0  0  0
    4.1305   -0.2843   -0.7602 C   0  0  0  0  0  0  0  0  0  0  0  0
    3.3580   -1.4525   -0.7661 C   0  0  0  0  0  0  0  0  0  0  0  0
   -0.6425   -1.3611    1.5340 H   0  0  0  0  0  0  0  0  0  0  0  0
   -1.4769    1.4064   -0.7509 H   0  0  0  0  0  0  0  0  0  0  0  0
   -3.6696    1.6146   -1.7998 H   0  0  0  0  0  0  0  0  0  0  0  0
   -5.4905    0.0084   -1.2797 H   0  0  0  0  0  0  0  0  0  0  0  0
   -5.0446   -1.8301    0.3330 H   0  0  0  0  0  0  0  0  0  0  0  0
   -2.8481   -2.0523    1.3931 H   0  0  0  0  0  0  0  0  0  0  0  0
   -0.1300    2.3055    1.4822 H   0  0  0  0  0  0  0  0  0  0  0  0
    1.4476   -2.3163   -0.2704 H   0  0  0  0  0  0  0  0  0  0  0  0
    2.1782    2.9053    0.7285 H   0  0  0  0  0  0  0  0  0  0  0  0
    5.1445   -0.3130   -1.1429 H   0  0  0  0  0  0  0  0  0  0  0  0
    3.7852   -2.3667   -1.1543 H   0  0  0  0  0  0  0  0  0  0  0  0
  1  2  1  0
  1  8  1  0
  2  3  2  0
  2  7  1  0
  3  4  1  0
  4  5  2  0
  5  6  1  0
  6  7  2  0
  8  9  2  0
  8 10  1  0
  9 13  1  0
 10 11  2  0
 10 12  1  0
 11 16  1  0
 12 13  1  0
 12 14  2  0
 14 15  1  0
 15 16  2  0
  1 17  1  0
  3 18  1  0
  4 19  1  0
  5 20  1  0
  6 21  1  0
  7 22  1  0
  9 23  1  0
 11 24  1  0
 13 25  1  0
 15 26  1  0
 16 27  1  0
M  END
