
     RDKit          3D

 30 32  0  0  0  0  0  0  0  0999 V2000
   -2.2484    1.5652   -1.0510 C   0  0  0  0  0  0  0  0  0  0  0  0
   -3.6861    0.4615    0.5336 C   0  0  0  0  0  0  0  0  0  0  0  0
    2.1621    1.5829    1.0454 C   0  0  0  0  0  0  0  0  0  0  0  0
    3.3799    0.7059   -0.8404 C   0  0  0  0  0  0  0  0  0  0  0  0
   -1.3494    0.5171   -0.9601 C   0  0  0  0  0  0  0  0  0  0  0  0
   -2.7794   -0.5785    0.6191 C   0  0  0  0  0  0  0  0  0  0  0  0
    1.3315    0.4757    1.0220 C   0  0  0  0  0  0  0  0  0  0  0  0
    2.5393   -0.3913   -0.8699 C   0  0  0  0  0  0  0  0  0  0  0  0
   -0.9357   -3.0542    0.0157 C   0  0  0  0  0  0  0  0  0  0  0  0
   -3.4234    1.5464   -0.3014 C   0  0  0  0  0  0  0  0  0  0  0  0
    3.1941    1.7035    0.1161 C   0  0  0  0  0  0  0  0  0  0  0  0
   -1.5966   -0.5691   -0.1212 C   0  0  0  0  0  0  0  0  0  0  0  0
    1.5172   -0.5073    0.0621 C   0  0  0  0  0  0  0  0  0  0  0  0
   -0.6834   -1.7032   -0.0228 C   0  0  0  0  0  0  0  0  0  0  0  0
    0.2375   -3.7119    0.0783 N   0  0  0  0  0  0  0  0  0  0  0  0
    1.1997   -2.8608    0.0886 N   0  0  0  0  0  0  0  0  0  0  0  0
    0.6695   -1.6418    0.0287 N   0  0  0  0  0  0  0  0  0  0  0  0
   -4.3309    2.5363   -0.3454 O   0  0  0  0  0  0  0  0  0  0  0  0
   -2.0357    2.3950   -1.7152 H   0  0  0  0  0  0  0  0  0  0  0  0
   -4.5959    0.4415    1.1199 H   0  0  0  0  0  0  0  0  0  0  0  0
    2.0100    2.3467    1.7987 H   0  0  0  0  0  0  0  0  0  0  0  0
    4.1786    0.7973   -1.5649 H   0  0  0  0  0  0  0  0  0  0  0  0
   -0.4540    0.5470   -1.5673 H   0  0  0  0  0  0  0  0  0  0  0  0
   -2.9910   -1.4064    1.2842 H   0  0  0  0  0  0  0  0  0  0  0  0
    0.5423    0.3839    1.7561 H   0  0  0  0  0  0  0  0  0  0  0  0
    2.6780   -1.1555   -1.6231 H   0  0  0  0  0  0  0  0  0  0  0  0
   -1.8854   -3.5628   -0.0239 H   0  0  0  0  0  0  0  0  0  0  0  0
   -4.0410    3.2388   -0.9384 H   0  0  0  0  0  0  0  0  0  0  0  0
    3.8086    3.3847    0.7860 H   0  0  0  0  0  0  0  0  0  0  0  0
    4.0358    2.7499    0.0969 O   0  0  0  0  0  0  0  0  0  0  0  0
  1  5  2  0
  1 10  1  0
 18 10  1  0
  5 12  1  0
 10  2  2  0
 12 14  1  0
 12  6  2  0
  2  6  1  0
 14  9  2  0
 14 17  1  0
  9 15  1  0
 17 13  1  0
 17 16  1  0
 15 16  2  0
  8 13  2  0
  8  4  1  0
 13  7  1  0
  4 11  2  0
  7  3  2  0
 11  3  1  0
 11 30  1  0
  1 19  1  0
  2 20  1  0
  3 21  1  0
  4 22  1  0
  5 23  1  0
  6 24  1  0
  7 25  1  0
  8 26  1  0
  9 27  1  0
 18 28  1  0
 30 29  1  0
M  END
