
     RDKit          3D

 44 46  0  0  0  0  0  0  0  0999 V2000
   -1.9252    0.2751    0.2599 C   0  0  0  0  0  0  0  0  0  0  0  0
    0.2901    0.6359    1.1417 C   0  0  0  0  0  0  0  0  0  0  0  0
    6.6038    2.0998   -0.4455 C   0  0  0  0  0  0  0  0  0  0  0  0
    3.8270   -0.4393    0.2207 C   0  0  0  0  0  0  0  0  0  0  0  0
   -2.7270   -0.0425   -1.0012 C   0  0  0  0  0  0  0  0  0  0  0  0
   -9.4050   -0.4422    0.5479 N   0  0  0  0  0  0  0  0  0  0  0  0
   -8.2857   -0.3745    0.2805 C   0  0  0  0  0  0  0  0  0  0  0  0
   -6.9005   -0.2924   -0.0492 C   0  0  0  0  0  0  0  0  0  0  0  0
   -6.1223   -1.4497   -0.0732 C   0  0  0  0  0  0  0  0  0  0  0  0
   -4.7802   -1.3604   -0.3965 C   0  0  0  0  0  0  0  0  0  0  0  0
   -6.3294    0.9445   -0.3490 C   0  0  0  0  0  0  0  0  0  0  0  0
   -4.9859    1.0143   -0.6705 C   0  0  0  0  0  0  0  0  0  0  0  0
   -4.1934   -0.1330   -0.7000 C   0  0  0  0  0  0  0  0  0  0  0  0
   -0.5083    0.3369   -0.0365 N   0  0  0  0  0  0  0  0  0  0  0  0
    1.7519    0.6926    0.7902 C   0  0  0  0  0  0  0  0  0  0  0  0
    2.3985    1.9329    0.6377 C   0  0  0  0  0  0  0  0  0  0  0  0
    2.4627   -0.4650    0.5736 C   0  0  0  0  0  0  0  0  0  0  0  0
    4.4679    0.8154    0.0734 C   0  0  0  0  0  0  0  0  0  0  0  0
    3.7252    1.9907    0.2867 C   0  0  0  0  0  0  0  0  0  0  0  0
    4.4665   -1.6219    0.0443 N   0  0  0  0  0  0  0  0  0  0  0  0
    5.7361   -1.5991   -0.2789 C   0  0  0  0  0  0  0  0  0  0  0  0
    6.3664   -2.7808   -0.5019 N   0  0  0  0  0  0  0  0  0  0  0  0
    6.4718   -0.3851   -0.4462 C   0  0  0  0  0  0  0  0  0  0  0  0
    5.8562    0.8152   -0.2747 C   0  0  0  0  0  0  0  0  0  0  0  0
   -2.3100    1.2034    0.7116 H   0  0  0  0  0  0  0  0  0  0  0  0
   -2.0874   -0.5168    0.9979 H   0  0  0  0  0  0  0  0  0  0  0  0
   -0.0074    1.5771    1.6278 H   0  0  0  0  0  0  0  0  0  0  0  0
    0.1190   -0.1578    1.8742 H   0  0  0  0  0  0  0  0  0  0  0  0
    6.1703    2.7040   -1.2441 H   0  0  0  0  0  0  0  0  0  0  0  0
    6.5704    2.7023    0.4637 H   0  0  0  0  0  0  0  0  0  0  0  0
    7.6487    1.9170   -0.6890 H   0  0  0  0  0  0  0  0  0  0  0  0
   -2.5484    0.7356   -1.7486 H   0  0  0  0  0  0  0  0  0  0  0  0
   -2.3701   -0.9845   -1.4224 H   0  0  0  0  0  0  0  0  0  0  0  0
   -6.5654   -2.4088    0.1582 H   0  0  0  0  0  0  0  0  0  0  0  0
   -4.1788   -2.2605   -0.4180 H   0  0  0  0  0  0  0  0  0  0  0  0
   -6.9342    1.8409   -0.3310 H   0  0  0  0  0  0  0  0  0  0  0  0
   -4.5478    1.9758   -0.9074 H   0  0  0  0  0  0  0  0  0  0  0  0
   -0.3485    1.0620   -0.7278 H   0  0  0  0  0  0  0  0  0  0  0  0
    1.8444    2.8484    0.8063 H   0  0  0  0  0  0  0  0  0  0  0  0
    1.9832   -1.4308    0.6869 H   0  0  0  0  0  0  0  0  0  0  0  0
    4.2021    2.9560    0.1744 H   0  0  0  0  0  0  0  0  0  0  0  0
    5.9067   -3.6160   -0.1799 H   0  0  0  0  0  0  0  0  0  0  0  0
    7.3713   -2.8060   -0.4676 H   0  0  0  0  0  0  0  0  0  0  0  0
    7.5223   -0.4334   -0.7083 H   0  0  0  0  0  0  0  0  0  0  0  0
 22 21  1  0
 23 21  2  0
 23 24  1  0
 21 20  1  0
  3 24  1  0
 24 18  2  0
 20  4  2  0
 18  4  1  0
 18 19  1  0
  4 17  1  0
 19 16  2  0
 17 15  2  0
 16 15  1  0
 15  2  1  0
  2 14  1  0
 14  1  1  0
  1  5  1  0
  5 13  1  0
 12 11  1  0
 12 13  2  0
 11  8  2  0
 13 10  1  0
  8  7  1  0
  8  9  1  0
 10  9  2  0
  7  6  3  0
  1 25  1  0
  1 26  1  0
  2 27  1  0
  2 28  1  0
  3 29  1  0
  3 30  1  0
  3 31  1  0
  5 32  1  0
  5 33  1  0
  9 34  1  0
 10 35  1  0
 11 36  1  0
 12 37  1  0
 14 38  1  0
 16 39  1  0
 17 40  1  0
 19 41  1  0
 22 42  1  0
 22 43  1  0
 23 44  1  0
M  END
