
     RDKit          3D

 63 64  0  0  0  0  0  0  0  0999 V2000
    5.7228   -2.6433   -1.9103 C   0  0  0  0  0  0  0  0  0  0  0  0
    4.8117   -2.1717   -0.8036 C   0  0  0  0  0  0  0  0  0  0  0  0
    4.8863   -2.5938    0.3385 O   0  0  0  0  0  0  0  0  0  0  0  0
    3.8827   -1.2720   -1.2022 N   0  0  0  0  0  0  0  0  0  0  0  0
    2.9710   -0.5984   -0.3148 C   0  0  2  0  0  0  0  0  0  0  0  0
    1.5429   -0.6828   -0.8659 C   0  0  1  0  0  0  0  0  0  0  0  0
    1.0895   -2.0068   -0.8976 O   0  0  0  0  0  0  0  0  0  0  0  0
    3.3709    0.8605   -0.1095 C   0  0  2  0  0  0  0  0  0  0  0  0
    4.6013    0.9057    0.4987 O   0  0  0  0  0  0  0  0  0  0  0  0
    5.2497    2.1682    0.4280 C   0  0  0  0  0  0  0  0  0  0  0  0
    6.5790    2.0499    1.0949 C   0  0  0  0  0  0  0  0  0  0  0  0
    7.7272    2.3702    0.5126 C   0  0  0  0  0  0  0  0  0  0  0  0
    2.4290    1.4873    0.7215 O   0  0  0  0  0  0  0  0  0  0  0  0
    1.1460    1.5655    0.1405 C   0  0  2  0  0  0  0  0  0  0  0  0
    0.2902    2.4495    1.0232 C   0  0  0  0  0  0  0  0  0  0  0  0
    0.8713    3.7300    1.0660 O   0  0  0  0  0  0  0  0  0  0  0  0
    0.5863    0.1441   -0.0165 C   0  0  1  0  0  0  0  0  0  0  0  0
   -0.6654    0.1758   -0.6763 O   0  0  0  0  0  0  0  0  0  0  0  0
   -1.7832   -0.0557    0.1025 C   0  0  1  0  0  0  0  0  0  0  0  0
   -3.0073    0.4357   -0.6753 C   0  0  2  0  0  0  0  0  0  0  0  0
   -2.9575    1.8273   -0.8648 O   0  0  0  0  0  0  0  0  0  0  0  0
   -1.8748   -1.4234    0.3699 O   0  0  0  0  0  0  0  0  0  0  0  0
   -2.9737   -1.7304    1.2028 C   0  0  2  0  0  0  0  0  0  0  0  0
   -2.9034   -3.1944    1.5749 C   0  0  0  0  0  0  0  0  0  0  0  0
   -1.7770   -3.4061    2.3899 O   0  0  0  0  0  0  0  0  0  0  0  0
   -4.2864   -1.3758    0.4994 C   0  0  2  0  0  0  0  0  0  0  0  0
   -4.4738   -2.1286   -0.6751 O   0  0  0  0  0  0  0  0  0  0  0  0
   -4.2588    0.1046    0.1308 C   0  0  2  0  0  0  0  0  0  0  0  0
   -5.4410    0.4104   -0.5695 O   0  0  0  0  0  0  0  0  0  0  0  0
   -5.9791    1.6909   -0.3297 C   0  0  0  0  0  0  0  0  0  0  0  0
   -7.3837    1.6866   -0.7254 C   0  0  0  0  0  0  0  0  0  0  0  0
   -8.5386    1.7021   -1.0556 C   0  0  0  0  0  0  0  0  0  0  0  0
    6.5422   -3.2293   -1.5026 H   0  0  0  0  0  0  0  0  0  0  0  0
    5.1682   -3.2666   -2.6138 H   0  0  0  0  0  0  0  0  0  0  0  0
    6.1329   -1.8048   -2.4735 H   0  0  0  0  0  0  0  0  0  0  0  0
    3.9390   -0.9341   -2.1516 H   0  0  0  0  0  0  0  0  0  0  0  0
    3.0063   -1.1046    0.6525 H   0  0  0  0  0  0  0  0  0  0  0  0
    1.5430   -0.2441   -1.8782 H   0  0  0  0  0  0  0  0  0  0  0  0
    1.6522   -2.4979   -1.5058 H   0  0  0  0  0  0  0  0  0  0  0  0
    3.3927    1.3820   -1.0863 H   0  0  0  0  0  0  0  0  0  0  0  0
    5.3690    2.4791   -0.6172 H   0  0  0  0  0  0  0  0  0  0  0  0
    4.6515    2.9351    0.9336 H   0  0  0  0  0  0  0  0  0  0  0  0
    6.5719    1.7092    2.1261 H   0  0  0  0  0  0  0  0  0  0  0  0
    8.6679    2.3055    1.0435 H   0  0  0  0  0  0  0  0  0  0  0  0
    7.7699    2.7151   -0.5140 H   0  0  0  0  0  0  0  0  0  0  0  0
    1.2102    2.0267   -0.8592 H   0  0  0  0  0  0  0  0  0  0  0  0
   -0.7219    2.4866    0.6064 H   0  0  0  0  0  0  0  0  0  0  0  0
    0.2154    1.9999    2.0238 H   0  0  0  0  0  0  0  0  0  0  0  0
    0.2897    4.3010    1.5758 H   0  0  0  0  0  0  0  0  0  0  0  0
    0.4943   -0.3173    0.9759 H   0  0  0  0  0  0  0  0  0  0  0  0
   -1.7235    0.5016    1.0573 H   0  0  0  0  0  0  0  0  0  0  0  0
   -3.0441   -0.0989   -1.6347 H   0  0  0  0  0  0  0  0  0  0  0  0
   -2.2994    2.0211   -1.5397 H   0  0  0  0  0  0  0  0  0  0  0  0
   -2.9264   -1.1349    2.1304 H   0  0  0  0  0  0  0  0  0  0  0  0
   -3.8354   -3.4530    2.0956 H   0  0  0  0  0  0  0  0  0  0  0  0
   -2.8635   -3.8016    0.6624 H   0  0  0  0  0  0  0  0  0  0  0  0
   -1.7396   -4.3418    2.6069 H   0  0  0  0  0  0  0  0  0  0  0  0
   -5.1077   -1.5313    1.2108 H   0  0  0  0  0  0  0  0  0  0  0  0
   -4.9605   -2.9280   -0.4588 H   0  0  0  0  0  0  0  0  0  0  0  0
   -4.2193    0.6721    1.0738 H   0  0  0  0  0  0  0  0  0  0  0  0
   -5.9116    1.9592    0.7324 H   0  0  0  0  0  0  0  0  0  0  0  0
   -5.4524    2.4711   -0.8868 H   0  0  0  0  0  0  0  0  0  0  0  0
   -9.5633    1.7117   -1.3493 H   0  0  0  0  0  0  0  0  0  0  0  0
  1  2  1  0
  7  6  1  0
  4  2  1  0
  4  5  1  0
  2  3  2  0
 27 26  1  0
  6  5  1  0
  6 17  1  0
 29 30  1  0
 29 28  1  0
 18 17  1  0
 18 19  1  0
 20 21  1  0
 20 28  1  0
 20 19  1  0
  5  8  1  0
 12 11  2  0
 11 10  1  0
 30 31  1  0
 26 28  1  0
 26 23  1  0
 22 19  1  0
 22 23  1  0
 17 14  1  0
  8  9  1  0
  8 13  1  0
  9 10  1  0
 24 23  1  0
 24 25  1  0
 14 13  1  0
 14 15  1  0
 31 32  3  0
 15 16  1  0
  1 33  1  0
  1 34  1  0
  1 35  1  0
  4 36  1  0
  5 37  1  1
  6 38  1  6
  7 39  1  0
  8 40  1  6
 10 41  1  0
 10 42  1  0
 11 43  1  0
 12 44  1  0
 12 45  1  0
 14 46  1  6
 15 47  1  0
 15 48  1  0
 16 49  1  0
 17 50  1  1
 19 51  1  1
 20 52  1  6
 21 53  1  0
 23 54  1  1
 24 55  1  0
 24 56  1  0
 25 57  1  0
 26 58  1  1
 27 59  1  0
 28 60  1  1
 30 61  1  0
 30 62  1  0
 32 63  1  0
M  END
