
     RDKit          3D

 33 33  0  0  0  0  0  0  0  0999 V2000
    6.4869    0.1263    0.0054 C   0  0  0  0  0  0  0  0  0  0  0  0
    5.1080   -0.5380    0.0104 C   0  0  1  0  0  0  0  0  0  0  0  0
    4.9557   -1.4111   -1.2360 C   0  0  0  0  0  0  0  0  0  0  0  0
    4.9549   -1.3927    1.2694 C   0  0  0  0  0  0  0  0  0  0  0  0
    4.0870    0.5918    0.0021 C   0  0  0  0  0  0  0  0  0  0  0  0
    2.7638    0.0326    0.0046 O   0  0  0  0  0  0  0  0  0  0  0  0
    1.7390    0.8570   -0.0015 C   0  0  0  0  0  0  0  0  0  0  0  0
    1.8155    2.0594   -0.0082 O   0  0  0  0  0  0  0  0  0  0  0  0
    0.4366    0.0981    0.0008 C   0  0  0  0  0  0  0  0  0  0  0  0
   -0.8980    1.3150    0.0071 S   0  0  0  0  0  0  0  0  0  0  0  0
   -2.2646    0.2310    0.0118 C   0  0  0  0  0  0  0  0  0  0  0  0
   -2.1512   -1.0395    0.0020 N   0  0  0  0  0  0  0  0  0  0  0  0
   -3.2613   -1.7820    0.0079 N   0  0  0  0  0  0  0  0  0  0  0  0
   -4.5433   -1.3208    0.0219 C   0  0  0  0  0  0  0  0  0  0  0  0
   -5.5152   -2.0423    0.0267 O   0  0  0  0  0  0  0  0  0  0  0  0
   -4.6268    0.0572    0.0300 N   0  0  0  0  0  0  0  0  0  0  0  0
   -3.5688    0.9207    0.0268 C   0  0  0  0  0  0  0  0  0  0  0  0
   -3.6786    2.1252    0.0347 O   0  0  0  0  0  0  0  0  0  0  0  0
    6.6302    0.7444   -0.8838 H   0  0  0  0  0  0  0  0  0  0  0  0
    6.6277    0.7647    0.8805 H   0  0  0  0  0  0  0  0  0  0  0  0
    7.2749   -0.6279    0.0152 H   0  0  0  0  0  0  0  0  0  0  0  0
    5.0340   -0.8185   -2.1502 H   0  0  0  0  0  0  0  0  0  0  0  0
    5.7385   -2.1714   -1.2652 H   0  0  0  0  0  0  0  0  0  0  0  0
    3.9965   -1.9302   -1.2552 H   0  0  0  0  0  0  0  0  0  0  0  0
    5.7373   -2.1528    1.3103 H   0  0  0  0  0  0  0  0  0  0  0  0
    5.0324   -0.7870    2.1752 H   0  0  0  0  0  0  0  0  0  0  0  0
    3.9955   -1.9112    1.2952 H   0  0  0  0  0  0  0  0  0  0  0  0
    4.2113    1.2272    0.8834 H   0  0  0  0  0  0  0  0  0  0  0  0
    4.2126    1.2164   -0.8867 H   0  0  0  0  0  0  0  0  0  0  0  0
    0.3721   -0.5424   -0.8809 H   0  0  0  0  0  0  0  0  0  0  0  0
    0.3761   -0.5464    0.8799 H   0  0  0  0  0  0  0  0  0  0  0  0
   -3.1098   -2.7799   -0.0013 H   0  0  0  0  0  0  0  0  0  0  0  0
   -5.5609    0.4523    0.0392 H   0  0  0  0  0  0  0  0  0  0  0  0
  2  4  1  1
  9  7  1  0
  9 10  1  0
  6  7  1  0
  6  5  1  0
  2  3  1  0
  2  5  1  0
  2  1  1  0
  7  8  2  0
 10 11  1  0
 12 11  2  0
 12 13  1  0
 11 17  1  0
 13 14  1  0
 17 18  2  0
 17 16  1  0
 14 16  1  0
 14 15  2  0
  1 19  1  0
  1 20  1  0
  1 21  1  0
  3 22  1  0
  3 23  1  0
  3 24  1  0
  4 25  1  0
  4 26  1  0
  4 27  1  0
  5 28  1  0
  5 29  1  0
  9 30  1  0
  9 31  1  0
 13 32  1  0
 16 33  1  0
M  END
