
     RDKit          3D

 73 81  0  0  0  0  0  0  0  0999 V2000
   36.3708   29.8133   -9.0064 O   0  0  0  0  0  0  0  0  0  0  0  0
   36.6499   29.0334   -9.9059 C   0  0  0  0  0  0  0  0  0  0  0  0
   35.8534   28.0386  -10.3581 N   0  0  0  0  0  0  0  0  0  0  0  0
   36.4168   27.2647  -11.4334 C   0  0  0  0  0  0  0  0  0  0  0  0
   37.7474   27.9216  -11.6131 C   0  0  0  0  0  0  0  0  0  0  0  0
   37.8842   28.9585  -10.7177 C   0  0  0  0  0  0  0  0  0  0  0  0
   39.0621   29.7301  -10.6892 C   0  0  0  0  0  0  0  0  0  0  0  0
   39.5292   30.8460   -9.9091 C   0  0  0  0  0  0  0  0  0  0  0  0
   38.9891   31.6115   -8.8729 C   0  0  0  0  0  0  0  0  0  0  0  0
   39.7304   32.6558   -8.3514 C   0  0  0  0  0  0  0  0  0  0  0  0
   41.0051   32.9536   -8.8486 C   0  0  0  0  0  0  0  0  0  0  0  0
   41.5670   32.2130   -9.8723 C   0  0  0  0  0  0  0  0  0  0  0  0
   40.8180   31.1580  -10.3912 C   0  0  0  0  0  0  0  0  0  0  0  0
   45.3005   28.1605  -11.3773 N   0  0  0  0  0  0  0  0  0  0  0  0
   40.0963   29.4243  -11.5959 C   0  0  0  0  0  0  0  0  0  0  0  0
   39.9590   28.3570  -12.4956 C   0  0  0  0  0  0  0  0  0  0  0  0
   38.7770   27.6049  -12.5000 C   0  0  0  0  0  0  0  0  0  0  0  0
   38.9486   26.5808  -13.4864 C   0  0  0  0  0  0  0  0  0  0  0  0
   38.1177   25.5471  -13.9143 C   0  0  0  0  0  0  0  0  0  0  0  0
   38.5767   24.6742  -14.8812 C   0  0  0  0  0  0  0  0  0  0  0  0
   39.8592   24.8317  -15.4117 C   0  0  0  0  0  0  0  0  0  0  0  0
   40.6990   25.8552  -15.0065 C   0  0  0  0  0  0  0  0  0  0  0  0
   40.2374   26.7491  -14.0388 C   0  0  0  0  0  0  0  0  0  0  0  0
   41.1433   30.2893  -11.3995 N   0  0  0  0  0  0  0  0  0  0  0  0
   42.1934   28.3631  -13.5513 C   0  0  2  0  0  0  0  0  0  0  0  0
   43.0904   27.7482  -12.4399 C   0  0  2  0  0  0  0  0  0  0  0  0
   42.3904   27.5091  -11.2546 O   0  0  0  0  0  0  0  0  0  0  0  0
   42.0171   26.1721  -11.0077 C   0  0  0  0  0  0  0  0  0  0  0  0
   42.8070   28.1169  -14.9225 C   0  0  0  0  0  0  0  0  0  0  0  0
   42.0992   29.7707  -13.4452 O   0  0  0  0  0  0  0  0  0  0  0  0
   42.3254   30.4208  -12.2338 C   0  0  2  0  0  0  0  0  0  0  0  0
   43.6261   29.9990  -11.5187 C   0  0  0  0  0  0  0  0  0  0  0  0
   45.0890   27.7726   -9.9869 C   0  0  0  0  0  0  0  0  0  0  0  0
   46.3809   27.7165  -12.0648 C   0  0  0  0  0  0  0  0  0  0  0  0
   46.4766   27.7783  -13.2826 O   0  0  0  0  0  0  0  0  0  0  0  0
   47.5091   27.1284  -11.2766 C   0  0  0  0  0  0  0  0  0  0  0  0
   47.8653   25.8023  -11.4994 C   0  0  0  0  0  0  0  0  0  0  0  0
   48.9566   25.2548  -10.8394 C   0  0  0  0  0  0  0  0  0  0  0  0
   49.7137   26.0366   -9.9769 C   0  0  0  0  0  0  0  0  0  0  0  0
   49.3723   27.3669   -9.7698 C   0  0  0  0  0  0  0  0  0  0  0  0
   48.2693   27.9108  -10.4122 C   0  0  0  0  0  0  0  0  0  0  0  0
   40.8298   27.8551  -13.4398 N   0  0  0  0  0  0  0  0  0  0  0  0
   44.2109   28.7401  -12.1497 C   0  0  1  0  0  0  0  0  0  0  0  0
   35.8008   27.3204  -12.3361 H   0  0  0  0  0  0  0  0  0  0  0  0
   38.0040   31.3886   -8.4904 H   0  0  0  0  0  0  0  0  0  0  0  0
   39.3199   33.2539   -7.5483 H   0  0  0  0  0  0  0  0  0  0  0  0
   41.5651   33.7768   -8.4244 H   0  0  0  0  0  0  0  0  0  0  0  0
   42.5551   32.4516  -10.2434 H   0  0  0  0  0  0  0  0  0  0  0  0
   37.1273   25.4238  -13.4957 H   0  0  0  0  0  0  0  0  0  0  0  0
   37.9461   23.8664  -15.2277 H   0  0  0  0  0  0  0  0  0  0  0  0
   40.2144   24.1390  -16.1635 H   0  0  0  0  0  0  0  0  0  0  0  0
   41.6785   25.9232  -15.4489 H   0  0  0  0  0  0  0  0  0  0  0  0
   43.5158   26.8167  -12.8360 H   0  0  0  0  0  0  0  0  0  0  0  0
   41.6885   26.1143   -9.9716 H   0  0  0  0  0  0  0  0  0  0  0  0
   41.1964   25.8318  -11.6458 H   0  0  0  0  0  0  0  0  0  0  0  0
   42.8620   25.4891  -11.1427 H   0  0  0  0  0  0  0  0  0  0  0  0
   43.1389   27.0911  -15.0505 H   0  0  0  0  0  0  0  0  0  0  0  0
   42.1094   28.3681  -15.7204 H   0  0  0  0  0  0  0  0  0  0  0  0
   43.6839   28.7514  -15.0347 H   0  0  0  0  0  0  0  0  0  0  0  0
   42.4033   31.4773  -12.5001 H   0  0  0  0  0  0  0  0  0  0  0  0
   43.4203   29.8682  -10.4578 H   0  0  0  0  0  0  0  0  0  0  0  0
   44.3549   30.8054  -11.6013 H   0  0  0  0  0  0  0  0  0  0  0  0
   45.9298   28.0570   -9.3614 H   0  0  0  0  0  0  0  0  0  0  0  0
   44.2122   28.2726   -9.5937 H   0  0  0  0  0  0  0  0  0  0  0  0
   44.9315   26.6978   -9.8843 H   0  0  0  0  0  0  0  0  0  0  0  0
   47.2864   25.1910  -12.1802 H   0  0  0  0  0  0  0  0  0  0  0  0
   49.2195   24.2183  -11.0056 H   0  0  0  0  0  0  0  0  0  0  0  0
   50.5698   25.6110   -9.4699 H   0  0  0  0  0  0  0  0  0  0  0  0
   49.9631   27.9831   -9.1050 H   0  0  0  0  0  0  0  0  0  0  0  0
   48.0073   28.9485  -10.2438 H   0  0  0  0  0  0  0  0  0  0  0  0
   44.6525   29.0253  -13.1028 H   0  0  0  0  0  0  0  0  0  0  0  0
   34.9312   27.8720   -9.9905 H   0  0  0  0  0  0  0  0  0  0  0  0
   36.5111   26.2079  -11.1654 H   0  0  0  0  0  0  0  0  0  0  0  0
 21 22  2  0
 21 20  1  0
 25 29  1  6
 22 23  1  0
 20 19  2  0
 23 18  2  0
 23 42  1  0
 19 18  1  0
 25 30  1  0
 25 42  1  0
 25 26  1  0
 30 31  1  0
 18 17  1  0
 42 16  1  0
 35 34  2  0
 26 43  1  0
 26 27  1  0
 17 16  2  0
 17  5  1  0
 16 15  1  0
 43 14  1  0
 43 32  1  0
 31 24  1  0
 31 32  1  0
 34 14  1  0
 34 36  1  0
 37 36  2  0
 37 38  1  0
  5  4  1  0
  5  6  2  0
 14 33  1  0
 15 24  1  0
 15  7  2  0
  4  3  1  0
 24 13  1  0
 27 28  1  0
 36 41  1  0
 38 39  2  0
  6  7  1  0
  6  2  1  0
  7  8  1  0
  3  2  1  0
 13  8  2  0
 13 12  1  0
  2  1  2  0
  8  9  1  0
 41 40  2  0
 12 11  2  0
 39 40  1  0
  9 10  2  0
 11 10  1  0
  4 44  1  0
  9 45  1  0
 10 46  1  0
 11 47  1  0
 12 48  1  0
 19 49  1  0
 20 50  1  0
 21 51  1  0
 22 52  1  0
 26 53  1  6
 28 54  1  0
 28 55  1  0
 28 56  1  0
 29 57  1  0
 29 58  1  0
 29 59  1  0
 31 60  1  6
 32 61  1  0
 32 62  1  0
 33 63  1  0
 33 64  1  0
 33 65  1  0
 37 66  1  0
 38 67  1  0
 39 68  1  0
 40 69  1  0
 41 70  1  0
 43 71  1  6
  3 72  1  0
  4 73  1  0
M  END
