
     RDKit          3D

 37 39  0  0  0  0  0  0  0  0999 V2000
    1.3956    0.0834   -0.3199 C   0  0  0  0  0  0  0  0  0  0  0  0
    2.1694   -0.1111    0.8089 C   0  0  0  0  0  0  0  0  0  0  0  0
    3.2069   -1.0821    0.7703 C   0  0  0  0  0  0  0  0  0  0  0  0
    0.7690    1.3820    1.3198 C   0  0  0  0  0  0  0  0  0  0  0  0
    3.2668   -1.6906   -0.4898 N   0  0  0  0  0  0  0  0  0  0  0  0
    1.5183   -0.5058   -1.5174 N   0  0  0  0  0  0  0  0  0  0  0  0
   -2.9395   -2.6682    1.1228 O   0  0  0  0  0  0  0  0  0  0  0  0
   -1.8927   -1.5456    0.6415 P   0  0  1  0  0  0  0  0  0  0  0  0
   -0.5994   -1.6708    1.5811 O   0  0  0  0  0  0  0  0  0  0  0  0
   -1.4870   -1.5926   -0.7822 O   0  0  0  0  0  0  0  0  0  0  0  0
   -2.8126   -0.0586    1.1665 C   0  0  0  0  0  0  0  0  0  0  0  0
   -1.9543    1.6196   -0.3049 C   0  0  1  0  0  0  0  0  0  0  0  0
   -2.3612    3.1018   -0.3607 C   0  0  0  0  0  0  0  0  0  0  0  0
   -1.5180    3.7332   -1.3599 N   0  0  0  0  0  0  0  0  0  0  0  0
   -0.2207    3.1125   -1.1717 C   0  0  0  0  0  0  0  0  0  0  0  0
   -0.4917    1.6266   -0.8567 C   0  0  1  0  0  0  0  0  0  0  0  0
    0.4929    1.0418    0.0187 N   0  0  0  0  0  0  0  0  0  0  0  0
    2.4680   -1.4006   -1.5592 C   0  0  0  0  0  0  0  0  0  0  0  0
    3.9837   -1.4128    1.6539 O   0  0  0  0  0  0  0  0  0  0  0  0
    1.7614    0.7148    1.8235 N   0  0  0  0  0  0  0  0  0  0  0  0
    0.2083    2.1429    1.8392 H   0  0  0  0  0  0  0  0  0  0  0  0
    3.9717   -2.4086   -0.5964 H   0  0  0  0  0  0  0  0  0  0  0  0
    2.1961   -1.8062   -3.5099 H   0  0  0  0  0  0  0  0  0  0  0  0
    3.5518   -2.5819   -2.8319 H   0  0  0  0  0  0  0  0  0  0  0  0
   -2.7339   -3.5633    0.8191 H   0  0  0  0  0  0  0  0  0  0  0  0
   -0.7669   -1.6263    2.5311 H   0  0  0  0  0  0  0  0  0  0  0  0
   -3.7584   -0.0318    0.6114 H   0  0  0  0  0  0  0  0  0  0  0  0
   -3.0661   -0.1432    2.2260 H   0  0  0  0  0  0  0  0  0  0  0  0
   -2.5751    1.0374   -0.9913 H   0  0  0  0  0  0  0  0  0  0  0  0
   -3.4176    3.2438   -0.5857 H   0  0  0  0  0  0  0  0  0  0  0  0
   -2.1644    3.5556    0.6162 H   0  0  0  0  0  0  0  0  0  0  0  0
   -1.8662    3.5154   -2.2859 H   0  0  0  0  0  0  0  0  0  0  0  0
    0.4165    3.2436   -2.0452 H   0  0  0  0  0  0  0  0  0  0  0  0
    0.2834    3.5835   -0.3215 H   0  0  0  0  0  0  0  0  0  0  0  0
   -0.4602    1.0416   -1.7738 H   0  0  0  0  0  0  0  0  0  0  0  0
    2.6719   -2.1183   -2.6802 N   0  0  0  0  0  0  0  0  0  0  0  0
   -2.0704    1.1186    1.0037 O   0  0  0  0  0  0  0  0  0  0  0  0
 10  8  2  0
 14 13  1  0
 14 15  1  0
 13 12  1  0
  8  9  1  1
 15 16  1  0
  8  7  1  0
  8 11  1  0
 12 37  1  0
 12 16  1  0
 37 11  1  0
 16 17  1  0
 17  4  1  0
 17  1  1  0
  4 20  2  0
  1  6  1  0
  1  2  2  0
  6 18  2  0
 20  2  1  0
  2  3  1  0
 18 36  1  0
 18  5  1  0
  3  5  1  0
  3 19  2  0
  4 21  1  0
  5 22  1  0
 36 23  1  0
 36 24  1  0
  7 25  1  0
  9 26  1  0
 11 27  1  0
 11 28  1  0
 12 29  1  6
 13 30  1  0
 13 31  1  0
 14 32  1  0
 15 33  1  0
 15 34  1  0
 16 35  1  6
M  END
