
     RDKit          3D

  8  7  0  0  0  0  0  0  0  0999 V2000
   -1.0736   -0.2833    0.0196 O   0  0  0  0  0  0  0  0  0  0  0  0
   -0.0134    0.5853    0.0072 C   0  0  0  0  0  0  0  0  0  0  0  0
    1.2712   -0.2627    0.0129 C   0  0  0  0  0  0  0  0  0  0  0  0
   -0.0021    1.2361    0.8902 H   0  0  0  0  0  0  0  0  0  0  0  0
   -0.0082    1.2030   -0.8995 H   0  0  0  0  0  0  0  0  0  0  0  0
    1.3312   -0.8834    0.9054 H   0  0  0  0  0  0  0  0  0  0  0  0
    1.3292   -0.8978   -0.8696 H   0  0  0  0  0  0  0  0  0  0  0  0
    2.1225    0.4161    0.0077 H   0  0  0  0  0  0  0  0  0  0  0  0
  1  2  1  0
  2  3  1  0
  2  4  1  0
  2  5  1  0
  3  6  1  0
  3  7  1  0
  3  8  1  0
M  CHG  1   1  -1
M  END
