
     RDKit          3D

 31 34  0  0  0  0  0  0  0  0999 V2000
   -3.8109    0.1663    0.0222 C   0  0  0  0  0  0  0  0  0  0  0  0
   -2.6330    0.9375   -0.0143 C   0  0  0  0  0  0  0  0  0  0  0  0
   -1.3644    0.2917   -0.0062 C   0  0  0  0  0  0  0  0  0  0  0  0
   -1.3272   -1.1293   -0.0328 C   0  0  0  0  0  0  0  0  0  0  0  0
   -0.0948   -1.9040   -0.1546 C   0  0  0  0  0  0  0  0  0  0  0  0
    0.1487   -3.1915    0.4253 C   0  0  0  0  0  0  0  0  0  0  0  0
    1.3825   -3.5570    0.0191 C   0  0  0  0  0  0  0  0  0  0  0  0
    1.0180   -1.6167   -0.8818 C   0  0  0  0  0  0  0  0  0  0  0  0
   -1.1993    2.4524    0.0012 N   0  0  0  0  0  0  0  0  0  0  0  0
   -2.5104    2.2604   -0.0168 N   0  0  0  0  0  0  0  0  0  0  0  0
   -2.4389   -1.8176    0.0391 N   0  0  0  0  0  0  0  0  0  0  0  0
   -3.6366   -1.1850    0.0777 C   0  0  0  0  0  0  0  0  0  0  0  0
    1.9129   -2.6083   -0.7821 O   0  0  0  0  0  0  0  0  0  0  0  0
    1.7336    2.2484   -0.7466 C   0  0  0  0  0  0  0  0  0  0  0  0
    3.1141    2.3336   -0.6434 C   0  0  0  0  0  0  0  0  0  0  0  0
    3.7850    1.6040    0.3262 C   0  0  0  0  0  0  0  0  0  0  0  0
    3.0714    0.7924    1.1982 C   0  0  0  0  0  0  0  0  0  0  0  0
    1.6933    0.7083    1.1013 C   0  0  0  0  0  0  0  0  0  0  0  0
    1.0128    1.4330    0.1239 C   0  0  0  0  0  0  0  0  0  0  0  0
   -0.4440    1.3485    0.0268 C   0  0  0  0  0  0  0  0  0  0  0  0
   -4.7936    0.6160    0.0269 H   0  0  0  0  0  0  0  0  0  0  0  0
   -0.5144   -3.7441    1.0689 H   0  0  0  0  0  0  0  0  0  0  0  0
    1.9913   -4.4247    0.2101 H   0  0  0  0  0  0  0  0  0  0  0  0
    1.2834   -0.7899   -1.5200 H   0  0  0  0  0  0  0  0  0  0  0  0
   -0.8533    3.3978    0.0689 H   0  0  0  0  0  0  0  0  0  0  0  0
   -4.4966   -1.8408    0.1408 H   0  0  0  0  0  0  0  0  0  0  0  0
    3.6665    2.9633   -1.3278 H   0  0  0  0  0  0  0  0  0  0  0  0
    4.8623    1.6663    0.4035 H   0  0  0  0  0  0  0  0  0  0  0  0
    3.5904    0.2253    1.9590 H   0  0  0  0  0  0  0  0  0  0  0  0
    1.1381    0.0835    1.7881 H   0  0  0  0  0  0  0  0  0  0  0  0
    1.2186    2.7964   -1.5263 H   0  0  0  0  0  0  0  0  0  0  0  0
  7 13  1  0
  7  6  2  0
 13  8  1  0
 16 15  1  0
 16 17  2  0
 15 14  2  0
  6  5  1  0
  8  5  2  0
 17 18  1  0
 14 19  1  0
  5  4  1  0
 18 19  2  0
 19 20  1  0
  4 11  2  0
  4  3  1  0
 11 12  1  0
 20  3  2  0
 20  9  1  0
  3  2  1  0
  9 10  1  0
 12  1  2  0
  2 10  2  0
  2  1  1  0
  1 21  1  0
  6 22  1  0
  7 23  1  0
  8 24  1  0
  9 25  1  0
 12 26  1  0
 14 31  1  0
 15 27  1  0
 16 28  1  0
 17 29  1  0
 18 30  1  0
M  END
