
     RDKit          3D

 20 19  0  0  0  0  0  0  0  0999 V2000
   -0.3236   -2.3391   -1.4100 N   0  0  0  0  0  0  0  0  0  0  0  0
   -0.2799   -2.1555    0.0176 C   0  0  2  0  0  0  0  0  0  0  0  0
   -1.4039   -2.8431    0.7873 C   0  0  0  0  0  0  0  0  0  0  0  0
   -1.8726   -2.5701    1.8980 O   0  0  0  0  0  0  0  0  0  0  0  0
   -0.2436   -0.6575    0.4178 C   0  0  0  0  0  0  0  0  0  0  0  0
    0.5406   -0.5437    1.5758 O   0  0  0  0  0  0  0  0  0  0  0  0
   -0.2111    1.7660    1.7474 O   0  0  0  0  0  0  0  0  0  0  0  0
    0.1271    0.5269    2.7265 P   0  0  2  0  0  0  0  0  0  0  0  0
    1.2541    0.9288    3.5631 O   0  0  0  0  0  0  0  0  0  0  0  0
   -1.1779    0.0256    3.4210 N   0  0  0  0  0  0  0  0  0  0  0  0
   -1.9563   -3.9057    0.1428 O   0  0  0  0  0  0  0  0  0  0  0  0
   -1.2807   -0.2698    0.6058 H   0  0  0  0  0  0  0  0  0  0  0  0
    0.2495   -0.0610   -0.4014 H   0  0  0  0  0  0  0  0  0  0  0  0
    0.2826    2.5632    1.9226 H   0  0  0  0  0  0  0  0  0  0  0  0
   -1.2934    0.0287    4.4012 H   0  0  0  0  0  0  0  0  0  0  0  0
   -1.9885   -0.2819    2.9429 H   0  0  0  0  0  0  0  0  0  0  0  0
   -2.6622   -4.2952    0.6858 H   0  0  0  0  0  0  0  0  0  0  0  0
   -1.0936   -1.8533   -1.8236 H   0  0  0  0  0  0  0  0  0  0  0  0
   -0.3675   -3.3118   -1.6423 H   0  0  0  0  0  0  0  0  0  0  0  0
    0.6798   -2.6306    0.3967 H   0  0  0  0  0  0  0  0  0  0  0  0
  1  2  1  0
  2  3  1  0
  3  4  2  0
  2  5  1  0
  5  6  1  0
  8  6  1  6
  7  8  1  0
  8  9  2  0
  8 10  1  0
  3 11  1  0
  5 12  1  0
  5 13  1  0
  7 14  1  0
 10 15  1  0
 10 16  1  0
 11 17  1  0
  1 18  1  0
  1 19  1  0
  2 20  1  1
M  END
