
     RDKit          3D

 31 32  0  0  0  0  0  0  0  0999 V2000
   -1.1389   -0.8605    3.6875 O   0  0  0  0  0  0  0  0  0  0  0  0
    0.0272   -0.2327    3.5999 C   0  0  0  0  0  0  0  0  0  0  0  0
    0.8395   -0.2159    4.4901 O   0  0  0  0  0  0  0  0  0  0  0  0
    0.2258    0.4109    2.2441 C   0  0  1  0  0  0  0  0  0  0  0  0
    1.2424    1.4293    2.3475 N   0  0  0  0  0  0  0  0  0  0  0  0
    0.5162   -0.7192    1.2158 C   0  0  0  0  0  0  0  0  0  0  0  0
    0.7051   -0.1972   -0.1811 C   0  0  0  0  0  0  0  0  0  0  0  0
   -0.4255   -0.1582   -1.1085 C   0  0  0  0  0  0  0  0  0  0  0  0
    1.9057    0.1928   -0.6362 C   0  0  0  0  0  0  0  0  0  0  0  0
    2.1215    0.8530   -1.9698 C   0  0  0  0  0  0  0  0  0  0  0  0
    2.0393   -0.0653   -3.1947 C   0  0  0  0  0  0  0  0  0  0  0  0
    0.8446   -1.0346   -3.1525 C   0  0  0  0  0  0  0  0  0  0  0  0
   -0.3307   -0.5007   -2.4220 C   0  0  0  0  0  0  0  0  0  0  0  0
   -1.5125   -0.3740   -3.0197 O   0  0  0  0  0  0  0  0  0  0  0  0
   -2.4459    0.0559   -2.1076 N   0  0  0  0  0  0  0  0  0  0  0  0
   -1.8024    0.1753   -0.9815 C   0  0  0  0  0  0  0  0  0  0  0  0
   -2.3852    0.5728    0.1397 O   0  0  0  0  0  0  0  0  0  0  0  0
   -1.2091   -1.3106    4.5428 H   0  0  0  0  0  0  0  0  0  0  0  0
   -0.7125    0.8938    1.9647 H   0  0  0  0  0  0  0  0  0  0  0  0
    2.1329    1.0197    2.6041 H   0  0  0  0  0  0  0  0  0  0  0  0
    1.3775    1.8571    1.4402 H   0  0  0  0  0  0  0  0  0  0  0  0
   -0.2885   -1.4565    1.2370 H   0  0  0  0  0  0  0  0  0  0  0  0
    1.4288   -1.2332    1.5304 H   0  0  0  0  0  0  0  0  0  0  0  0
    2.7690    0.0673    0.0091 H   0  0  0  0  0  0  0  0  0  0  0  0
    3.0909    1.3533   -1.9744 H   0  0  0  0  0  0  0  0  0  0  0  0
    1.3691    1.6389   -2.0895 H   0  0  0  0  0  0  0  0  0  0  0  0
    2.9502   -0.6591   -3.2894 H   0  0  0  0  0  0  0  0  0  0  0  0
    1.9804    0.5624   -4.0861 H   0  0  0  0  0  0  0  0  0  0  0  0
    1.1505   -1.9389   -2.6187 H   0  0  0  0  0  0  0  0  0  0  0  0
    0.5631   -1.3438   -4.1595 H   0  0  0  0  0  0  0  0  0  0  0  0
   -3.3251    0.7458   -0.0062 H   0  0  0  0  0  0  0  0  0  0  0  0
  1  2  1  0
  1 18  1  0
  2  3  2  0
  2  4  1  0
  4  5  1  0
  4  6  1  0
  4 19  1  6
  5 20  1  0
  5 21  1  0
  6  7  1  0
  6 22  1  0
  6 23  1  0
  7  8  1  0
  7  9  2  0
  8 13  2  0
  8 16  1  0
  9 10  1  0
  9 24  1  0
 10 11  1  0
 10 25  1  0
 10 26  1  0
 11 12  1  0
 11 27  1  0
 11 28  1  0
 12 13  1  0
 12 29  1  0
 12 30  1  0
 13 14  1  0
 14 15  1  0
 15 16  2  0
 16 17  1  0
 17 31  1  0
M  END
