
     RDKit          3D

 36 37  0  0  0  0  0  0  0  0999 V2000
   -2.4284    1.4501   -0.6882 C   0  0  0  0  0  0  0  0  0  0  0  0
   -3.6671    1.1886   -0.1558 C   0  0  0  0  0  0  0  0  0  0  0  0
   -4.0895   -0.1284   -0.0256 C   0  0  0  0  0  0  0  0  0  0  0  0
   -5.4605   -0.3894    0.5399 C   0  0  0  0  0  0  0  0  0  0  0  0
   -6.3481    0.4243    0.3568 O   0  0  0  0  0  0  0  0  0  0  0  0
   -5.5950   -1.5324    1.2135 N   0  0  0  0  0  0  0  0  0  0  0  0
   -3.2539   -1.1446   -0.4711 C   0  0  0  0  0  0  0  0  0  0  0  0
   -2.0306   -0.8240   -1.0125 C   0  0  0  0  0  0  0  0  0  0  0  0
   -1.6396    0.4518   -1.1077 N   0  0  0  0  0  0  0  0  0  0  0  0
   -0.2999    0.7627   -1.6334 C   0  0  0  0  0  0  0  0  0  0  0  0
    0.7318    0.7407   -0.5171 C   0  0  0  0  0  0  0  0  0  0  0  0
    2.0870    1.1900   -1.0491 C   0  0  0  0  0  0  0  0  0  0  0  0
    3.1083    1.1397   -0.0228 N   0  0  0  0  0  0  0  0  0  0  0  0
    3.4469    2.1745    0.7966 C   0  0  0  0  0  0  0  0  0  0  0  0
    4.3949    1.6774    1.6478 C   0  0  0  0  0  0  0  0  0  0  0  0
    4.6362    0.3706    1.3727 N   0  0  0  0  0  0  0  0  0  0  0  0
    3.8463    0.0655    0.3670 C   0  0  0  0  0  0  0  0  0  0  0  0
    3.7403   -1.2278   -0.2821 C   0  0  0  0  0  0  0  0  0  0  0  0
    4.4446   -2.2002    0.1328 N   0  0  0  0  0  0  0  0  0  0  0  0
    4.2296   -3.3347   -0.5825 O   0  0  0  0  0  0  0  0  0  0  0  0
   -2.0470    2.4543   -0.7982 H   0  0  0  0  0  0  0  0  0  0  0  0
   -4.2856    2.0161    0.1590 H   0  0  0  0  0  0  0  0  0  0  0  0
   -4.8117   -2.1162    1.4539 H   0  0  0  0  0  0  0  0  0  0  0  0
   -6.4780   -1.7558    1.6460 H   0  0  0  0  0  0  0  0  0  0  0  0
   -3.5352   -2.1868   -0.4282 H   0  0  0  0  0  0  0  0  0  0  0  0
   -1.3483   -1.5744   -1.3832 H   0  0  0  0  0  0  0  0  0  0  0  0
   -0.0729    0.0313   -2.4066 H   0  0  0  0  0  0  0  0  0  0  0  0
   -0.3559    1.7408   -2.1081 H   0  0  0  0  0  0  0  0  0  0  0  0
    0.4217    1.4075    0.2909 H   0  0  0  0  0  0  0  0  0  0  0  0
    0.8037   -0.2663   -0.0994 H   0  0  0  0  0  0  0  0  0  0  0  0
    2.4008    0.5841   -1.8990 H   0  0  0  0  0  0  0  0  0  0  0  0
    2.0303    2.2170   -1.4081 H   0  0  0  0  0  0  0  0  0  0  0  0
    3.0008    3.1503    0.6999 H   0  0  0  0  0  0  0  0  0  0  0  0
    4.9124    2.2015    2.4363 H   0  0  0  0  0  0  0  0  0  0  0  0
    3.0540   -1.3379   -1.1201 H   0  0  0  0  0  0  0  0  0  0  0  0
    4.8151   -3.9861   -0.1816 H   0  0  0  0  0  0  0  0  0  0  0  0
  5  4  2  0
  4  6  1  0
  4  3  1  0
  3  2  1  0
  3  7  2  0
  2  1  2  0
  7  8  1  0
  1  9  1  0
  8  9  2  0
  9 10  1  0
 11 10  1  0
 11 12  1  0
 12 13  1  0
 14 13  1  0
 14 15  2  0
 13 17  1  0
 15 16  1  0
 17 16  2  0
 17 18  1  0
 18 19  2  0
 19 20  1  0
  1 21  1  0
  2 22  1  0
  6 23  1  0
  6 24  1  0
  7 25  1  0
  8 26  1  0
 10 27  1  0
 10 28  1  0
 11 29  1  0
 11 30  1  0
 12 31  1  0
 12 32  1  0
 14 33  1  0
 15 34  1  0
 18 35  1  0
 20 36  1  0
M  CHG  1   9   1
M  END
