
     RDKit          3D

 93 98  0  0  0  0  0  0  0  0999 V2000
    3.7690   -3.0299    3.6884 C   0  0  0  0  0  0  0  0  0  0  0  0
    3.4859   -1.9178    2.8686 C   0  0  0  0  0  0  0  0  0  0  0  0
    3.0110   -0.7584    3.5198 C   0  0  0  0  0  0  0  0  0  0  0  0
    2.8091   -0.7332    4.8813 C   0  0  0  0  0  0  0  0  0  0  0  0
    3.0758   -1.8445    5.6838 C   0  0  0  0  0  0  0  0  0  0  0  0
    3.5688   -2.9864    5.0515 C   0  0  0  0  0  0  0  0  0  0  0  0
    3.6359   -1.9684    1.5062 N   0  0  0  0  0  0  0  0  0  0  0  0
    2.7250   -1.7792    7.1104 C   0  0  0  0  0  0  0  0  0  0  0  0
    3.1780   -2.8135    7.9086 N   0  0  0  0  0  0  0  0  0  0  0  0
    2.5062   -3.1464    9.4085 S   0  0  1  0  0  0  0  0  0  0  0  0
    0.8082   -3.3324    9.0204 C   0  0  0  0  0  0  0  0  0  0  0  0
    2.9480   -0.9564    0.7137 C   0  0  0  0  0  0  0  0  0  0  0  0
    3.2566   -1.0437   -0.7649 C   0  0  0  0  0  0  0  0  0  0  0  0
    3.0839   -2.3943   -1.2503 N   0  0  0  0  0  0  0  0  0  0  0  0
    4.0685   -3.2212   -0.5921 C   0  0  0  0  0  0  0  0  0  0  0  0
    3.8027   -3.2814    0.8979 C   0  0  0  0  0  0  0  0  0  0  0  0
    3.1654   -2.4724   -2.6996 C   0  0  0  0  0  0  0  0  0  0  0  0
    2.0416   -0.8968    7.5903 O   0  0  0  0  0  0  0  0  0  0  0  0
    3.0729   -4.4361    9.7584 O   0  0  0  0  0  0  0  0  0  0  0  0
    2.6779   -2.0190   10.2987 O   0  0  0  0  0  0  0  0  0  0  0  0
   -0.1079   -2.3940    9.4171 C   0  0  0  0  0  0  0  0  0  0  0  0
   -1.4395   -2.5057    9.0242 C   0  0  0  0  0  0  0  0  0  0  0  0
   -1.8784   -3.5516    8.1539 C   0  0  0  0  0  0  0  0  0  0  0  0
   -0.8934   -4.5229    7.8297 C   0  0  0  0  0  0  0  0  0  0  0  0
    0.4029   -4.4228    8.2419 C   0  0  0  0  0  0  0  0  0  0  0  0
   -2.3220   -1.4757    9.5010 N   0  0  0  0  0  0  0  0  0  0  0  0
   -1.8649   -0.5807   10.1733 O   0  0  0  0  0  0  0  0  0  0  0  0
   -3.5065   -1.5371    9.2197 O   0  0  0  0  0  0  0  0  0  0  0  0
   -3.1211   -3.6300    7.6608 N   0  0  0  0  0  0  0  0  0  0  0  0
   -3.6120   -4.3718    6.4858 C   0  0  1  0  0  0  0  0  0  0  0  0
   -5.0211   -3.8296    6.2415 C   0  0  0  0  0  0  0  0  0  0  0  0
   -2.7022   -4.0057    5.2990 C   0  0  0  0  0  0  0  0  0  0  0  0
   -3.2390   -4.7826    3.7532 S   0  0  0  0  0  0  0  0  0  0  0  0
   -1.9839   -4.2613    2.6283 C   0  0  0  0  0  0  0  0  0  0  0  0
   -0.9434   -3.3999    2.9660 C   0  0  0  0  0  0  0  0  0  0  0  0
    0.0034   -3.0478    2.0133 C   0  0  0  0  0  0  0  0  0  0  0  0
   -0.0716   -3.5329    0.7174 C   0  0  0  0  0  0  0  0  0  0  0  0
   -1.1159   -4.3871    0.3791 C   0  0  0  0  0  0  0  0  0  0  0  0
   -2.0633   -4.7522    1.3221 C   0  0  0  0  0  0  0  0  0  0  0  0
   -3.7059   -5.8769    6.7426 C   0  0  0  0  0  0  0  0  0  0  0  0
    0.6966   -0.2013   -4.5384 C   0  0  0  0  0  0  0  0  0  0  0  0
   -0.4949   -0.8610   -4.2914 C   0  0  0  0  0  0  0  0  0  0  0  0
   -0.4848   -2.0453   -3.5642 C   0  0  0  0  0  0  0  0  0  0  0  0
    0.7159   -2.5418   -3.0878 C   0  0  0  0  0  0  0  0  0  0  0  0
    1.9248   -1.8882   -3.3279 C   0  0  0  0  0  0  0  0  0  0  0  0
    1.9152   -0.7035   -4.0714 C   0  0  0  0  0  0  0  0  0  0  0  0
    3.2993    1.3599   -3.8794 C   0  0  0  0  0  0  0  0  0  0  0  0
    4.4366    2.1006   -4.1725 C   0  0  0  0  0  0  0  0  0  0  0  0
    5.4378    1.5570   -4.9660 C   0  0  0  0  0  0  0  0  0  0  0  0
    5.2943    0.2688   -5.4658 C   0  0  0  0  0  0  0  0  0  0  0  0
    4.1582   -0.4709   -5.1697 C   0  0  0  0  0  0  0  0  0  0  0  0
    3.1489    0.0641   -4.3699 C   0  0  0  0  0  0  0  0  0  0  0  0
    4.1239   -3.9587    3.2704 H   0  0  0  0  0  0  0  0  0  0  0  0
    2.7741    0.1352    2.9630 H   0  0  0  0  0  0  0  0  0  0  0  0
    2.4221    0.1731    5.3277 H   0  0  0  0  0  0  0  0  0  0  0  0
    3.7772   -3.8945    5.6029 H   0  0  0  0  0  0  0  0  0  0  0  0
    3.8121   -3.5201    7.5585 H   0  0  0  0  0  0  0  0  0  0  0  0
    3.2499    0.0360    1.0465 H   0  0  0  0  0  0  0  0  0  0  0  0
    1.8618   -1.0265    0.8523 H   0  0  0  0  0  0  0  0  0  0  0  0
    2.5739   -0.3644   -1.2790 H   0  0  0  0  0  0  0  0  0  0  0  0
    4.2788   -0.6781   -0.9623 H   0  0  0  0  0  0  0  0  0  0  0  0
    5.0943   -2.8601   -0.7780 H   0  0  0  0  0  0  0  0  0  0  0  0
    4.0122   -4.2419   -0.9743 H   0  0  0  0  0  0  0  0  0  0  0  0
    2.9173   -3.9044    1.0775 H   0  0  0  0  0  0  0  0  0  0  0  0
    4.6543   -3.7872    1.3529 H   0  0  0  0  0  0  0  0  0  0  0  0
    3.2374   -3.5282   -2.9748 H   0  0  0  0  0  0  0  0  0  0  0  0
    4.0751   -1.9889   -3.0790 H   0  0  0  0  0  0  0  0  0  0  0  0
    0.1977   -1.5573   10.0273 H   0  0  0  0  0  0  0  0  0  0  0  0
   -1.1695   -5.3854    7.2476 H   0  0  0  0  0  0  0  0  0  0  0  0
    1.1026   -5.1962    7.9536 H   0  0  0  0  0  0  0  0  0  0  0  0
   -3.7470   -2.9128    7.9947 H   0  0  0  0  0  0  0  0  0  0  0  0
   -5.4949   -4.3407    5.4050 H   0  0  0  0  0  0  0  0  0  0  0  0
   -5.6493   -3.9833    7.1199 H   0  0  0  0  0  0  0  0  0  0  0  0
   -4.9996   -2.7628    6.0126 H   0  0  0  0  0  0  0  0  0  0  0  0
   -2.7097   -2.9206    5.1788 H   0  0  0  0  0  0  0  0  0  0  0  0
   -1.6748   -4.3181    5.4840 H   0  0  0  0  0  0  0  0  0  0  0  0
   -0.8517   -2.9859    3.9593 H   0  0  0  0  0  0  0  0  0  0  0  0
    0.8043   -2.3816    2.3049 H   0  0  0  0  0  0  0  0  0  0  0  0
    0.6746   -3.2497   -0.0162 H   0  0  0  0  0  0  0  0  0  0  0  0
   -1.1946   -4.7776   -0.6277 H   0  0  0  0  0  0  0  0  0  0  0  0
   -2.8680   -5.4213    1.0412 H   0  0  0  0  0  0  0  0  0  0  0  0
   -2.7418   -6.3771    6.8080 H   0  0  0  0  0  0  0  0  0  0  0  0
   -4.2601   -6.3623    5.9396 H   0  0  0  0  0  0  0  0  0  0  0  0
   -4.2431   -6.0601    7.6729 H   0  0  0  0  0  0  0  0  0  0  0  0
   -1.4258   -0.4564   -4.6668 H   0  0  0  0  0  0  0  0  0  0  0  0
   -1.4082   -2.5752   -3.3687 H   0  0  0  0  0  0  0  0  0  0  0  0
    0.7247   -3.4565   -2.5068 H   0  0  0  0  0  0  0  0  0  0  0  0
    2.5238    1.7914   -3.2581 H   0  0  0  0  0  0  0  0  0  0  0  0
    4.5411    3.1036   -3.7792 H   0  0  0  0  0  0  0  0  0  0  0  0
    6.3234    2.1348   -5.1972 H   0  0  0  0  0  0  0  0  0  0  0  0
    6.0664   -0.1613   -6.0907 H   0  0  0  0  0  0  0  0  0  0  0  0
    4.0467   -1.4704   -5.5724 H   0  0  0  0  0  0  0  0  0  0  0  0
    0.6920    0.7176   -5.1122 H   0  0  0  0  0  0  0  0  0  0  0  0
  1  2  2  0
  1  6  1  0
  1 53  1  0
  2  7  1  0
  2  3  1  0
  3  4  2  0
  3 54  1  0
  4  5  1  0
  4 55  1  0
  5  6  2  0
  5  8  1  0
  6 56  1  0
  7 12  1  0
  7 16  1  0
  8  9  1  0
  8 18  2  0
 10  9  1  6
  9 57  1  0
 10 19  2  0
 10 11  1  0
 10 20  2  0
 11 21  2  0
 11 25  1  0
 12 13  1  0
 12 58  1  0
 12 59  1  0
 13 14  1  0
 13 60  1  0
 13 61  1  0
 14 17  1  0
 14 15  1  0
 15 16  1  0
 15 62  1  0
 15 63  1  0
 16 64  1  0
 16 65  1  0
 17 45  1  0
 17 66  1  0
 17 67  1  0
 21 22  1  0
 21 68  1  0
 22 26  1  0
 22 23  2  0
 23 29  1  0
 23 24  1  0
 24 25  2  0
 24 69  1  0
 25 70  1  0
 26 27  1  0
 26 28  2  0
 30 29  1  1
 29 71  1  0
 30 40  1  0
 30 32  1  0
 30 31  1  0
 31 72  1  0
 31 73  1  0
 31 74  1  0
 32 33  1  0
 32 75  1  0
 32 76  1  0
 33 34  1  0
 34 35  2  0
 34 39  1  0
 35 36  1  0
 35 77  1  0
 36 37  2  0
 36 78  1  0
 37 38  1  0
 37 79  1  0
 38 39  2  0
 38 80  1  0
 39 81  1  0
 40 82  1  0
 40 83  1  0
 40 84  1  0
 41 46  2  0
 41 42  1  0
 41 93  1  0
 42 43  2  0
 42 85  1  0
 43 44  1  0
 43 86  1  0
 44 45  2  0
 44 87  1  0
 45 46  1  0
 46 52  1  0
 47 48  2  0
 47 52  1  0
 47 88  1  0
 48 49  1  0
 48 89  1  0
 49 50  2  0
 49 90  1  0
 50 51  1  0
 50 91  1  0
 51 52  2  0
 51 92  1  0
M  CHG  2  26   1  27  -1
M  END
