
     RDKit          3D

 25 25  0  0  0  0  0  0  0  0999 V2000
    1.9964   -0.5206    2.7580 O   0  0  0  0  0  0  0  0  0  0  0  0
    1.1218    0.2343    0.6835 C   0  0  0  0  0  0  0  0  0  0  0  0
    2.4716    0.4176    0.0568 C   0  0  0  0  0  0  0  0  0  0  0  0
   -0.0328    0.4886    0.0230 C   0  0  0  0  0  0  0  0  0  0  0  0
   -1.4197   -0.1524    1.8998 C   0  0  0  0  0  0  0  0  0  0  0  0
   -1.2490    0.2980    0.6229 N   0  0  0  0  0  0  0  0  0  0  0  0
    1.0417   -0.2496    2.0488 C   0  0  0  0  0  0  0  0  0  0  0  0
   -0.2423   -0.4044    2.5477 N   0  0  0  0  0  0  0  0  0  0  0  0
   -0.4635   -0.9310   -4.6242 O   0  0  0  0  0  0  0  0  0  0  0  0
   -0.0932    0.9306   -1.4031 C   0  0  0  0  0  0  0  0  0  0  0  0
   -0.2426   -0.2626   -2.3523 C   0  0  0  0  0  0  0  0  0  0  0  0
   -0.2964    0.1979   -3.7962 C   0  0  0  0  0  0  0  0  0  0  0  0
    3.2574    0.2554    0.7903 H   0  0  0  0  0  0  0  0  0  0  0  0
    2.6414   -0.2841   -0.7615 H   0  0  0  0  0  0  0  0  0  0  0  0
    2.6029    1.4239   -0.3428 H   0  0  0  0  0  0  0  0  0  0  0  0
   -2.0910    0.5063    0.1050 H   0  0  0  0  0  0  0  0  0  0  0  0
   -0.3222   -0.7411    3.4990 H   0  0  0  0  0  0  0  0  0  0  0  0
   -0.4754   -0.6326   -5.5379 H   0  0  0  0  0  0  0  0  0  0  0  0
   -0.9322    1.6188   -1.5378 H   0  0  0  0  0  0  0  0  0  0  0  0
    0.8098    1.4887   -1.6492 H   0  0  0  0  0  0  0  0  0  0  0  0
    0.5966   -0.9498   -2.2153 H   0  0  0  0  0  0  0  0  0  0  0  0
   -1.1546   -0.8152   -2.1115 H   0  0  0  0  0  0  0  0  0  0  0  0
   -1.1223    0.9120   -3.9168 H   0  0  0  0  0  0  0  0  0  0  0  0
    0.6279    0.7396   -4.0369 H   0  0  0  0  0  0  0  0  0  0  0  0
   -2.5103   -0.3119    2.4116 O   0  0  0  0  0  0  0  0  0  0  0  0
  1  7  2  0
  2  3  1  0
  2  4  2  0
  2  7  1  0
  3 13  1  0
  3 14  1  0
  3 15  1  0
  4  6  1  0
  4 10  1  0
  5  6  1  0
  5  8  1  0
  5 25  2  0
  6 16  1  0
  7  8  1  0
  8 17  1  0
  9 12  1  0
  9 18  1  0
 10 11  1  0
 10 19  1  0
 10 20  1  0
 11 12  1  0
 11 21  1  0
 11 22  1  0
 12 23  1  0
 12 24  1  0
M  END
