
     RDKit          3D

 49 52  0  0  0  0  0  0  0  0999 V2000
    3.3261   -0.6107    0.2407 C   0  0  0  0  0  0  0  0  0  0  0  0
    4.5397    0.1034    0.1290 C   0  0  0  0  0  0  0  0  0  0  0  0
    5.7100    1.9242   -0.8447 C   0  0  0  0  0  0  0  0  0  0  0  0
    5.6544   -0.3033    0.8518 C   0  0  0  0  0  0  0  0  0  0  0  0
   -5.4690    0.3601    0.8698 C   0  0  0  0  0  0  0  0  0  0  0  0
   -4.0952    0.4102    0.2651 C   0  0  0  0  0  0  0  0  0  0  0  0
   -3.3459    1.6259    0.3742 C   0  0  0  0  0  0  0  0  0  0  0  0
   -1.5825    0.4902   -0.8429 C   0  0  0  0  0  0  0  0  0  0  0  0
    0.2802   -0.6433   -1.9042 C   0  0  0  0  0  0  0  0  0  0  0  0
    1.2294   -1.1892   -0.8490 C   0  0  0  0  0  0  0  0  0  0  0  0
    5.5930   -1.4298    1.6678 C   0  0  0  0  0  0  0  0  0  0  0  0
    4.4187   -2.1511    1.7670 C   0  0  0  0  0  0  0  0  0  0  0  0
    3.2943   -1.7312    1.0622 C   0  0  0  0  0  0  0  0  0  0  0  0
    1.5940    1.0508   -0.0359 C   0  0  0  0  0  0  0  0  0  0  0  0
    0.6327    1.5796   -1.0876 C   0  0  0  0  0  0  0  0  0  0  0  0
   -3.5084   -0.6485   -0.3728 C   0  0  0  0  0  0  0  0  0  0  0  0
   -4.2228   -1.9603   -0.5195 C   0  0  0  0  0  0  0  0  0  0  0  0
   -5.4046   -2.1044    0.4281 C   0  0  0  0  0  0  0  0  0  0  0  0
   -6.2650   -0.8495    0.3951 C   0  0  0  0  0  0  0  0  0  0  0  0
   -2.0891    1.5838   -0.2183 N   0  0  0  0  0  0  0  0  0  0  0  0
   -0.3608    0.5716   -1.4215 N   0  0  0  0  0  0  0  0  0  0  0  0
    2.2155   -0.1800   -0.5081 N   0  0  0  0  0  0  0  0  0  0  0  0
   -2.2695   -0.6179   -0.9191 N   0  0  0  0  0  0  0  0  0  0  0  0
    4.5315    1.1574   -0.7094 O   0  0  0  0  0  0  0  0  0  0  0  0
    6.5407    1.3334   -1.2400 H   0  0  0  0  0  0  0  0  0  0  0  0
    5.4807    2.7199   -1.5492 H   0  0  0  0  0  0  0  0  0  0  0  0
    6.0181    2.3722    0.1038 H   0  0  0  0  0  0  0  0  0  0  0  0
    6.5897    0.2347    0.7759 H   0  0  0  0  0  0  0  0  0  0  0  0
   -5.3885    0.3375    1.9625 H   0  0  0  0  0  0  0  0  0  0  0  0
   -6.0100    1.2798    0.6341 H   0  0  0  0  0  0  0  0  0  0  0  0
    0.8355   -0.3910   -2.8103 H   0  0  0  0  0  0  0  0  0  0  0  0
   -0.4721   -1.3834   -2.1560 H   0  0  0  0  0  0  0  0  0  0  0  0
    0.6355   -1.5179    0.0185 H   0  0  0  0  0  0  0  0  0  0  0  0
    1.7402   -2.0676   -1.2471 H   0  0  0  0  0  0  0  0  0  0  0  0
    6.4747   -1.7349    2.2162 H   0  0  0  0  0  0  0  0  0  0  0  0
    4.3627   -3.0306    2.3948 H   0  0  0  0  0  0  0  0  0  0  0  0
    2.3747   -2.2936    1.1586 H   0  0  0  0  0  0  0  0  0  0  0  0
    2.3543    1.8066    0.1506 H   0  0  0  0  0  0  0  0  0  0  0  0
    1.0496    0.8887    0.9073 H   0  0  0  0  0  0  0  0  0  0  0  0
    0.1889    2.5142   -0.7525 H   0  0  0  0  0  0  0  0  0  0  0  0
    1.1837    1.8180   -1.9999 H   0  0  0  0  0  0  0  0  0  0  0  0
   -4.5631   -2.0444   -1.5577 H   0  0  0  0  0  0  0  0  0  0  0  0
   -3.5001   -2.7667   -0.3778 H   0  0  0  0  0  0  0  0  0  0  0  0
   -5.9896   -2.9847    0.1558 H   0  0  0  0  0  0  0  0  0  0  0  0
   -5.0422   -2.2727    1.4469 H   0  0  0  0  0  0  0  0  0  0  0  0
   -7.1524   -0.9725    1.0189 H   0  0  0  0  0  0  0  0  0  0  0  0
   -6.6202   -0.6816   -0.6266 H   0  0  0  0  0  0  0  0  0  0  0  0
   -1.5633    2.4449   -0.1712 H   0  0  0  0  0  0  0  0  0  0  0  0
   -3.7136    2.6573    0.9254 O   0  0  0  0  0  0  0  0  0  0  0  0
 19  5  1  0
 19 18  1  0
  5  6  1  0
 18 17  1  0
 49  7  2  0
  6  7  1  0
  6 16  2  0
 17 16  1  0
  7 20  1  0
 16 23  1  0
 20  8  1  0
 23  8  2  0
  8 21  1  0
 21 15  1  0
 21  9  1  0
 15 14  1  0
  9 10  1  0
 14 22  1  0
 10 22  1  0
 22  1  1  0
  1 13  1  0
  1  2  2  0
 13 12  2  0
 24  2  1  0
 24  3  1  0
  2  4  1  0
 12 11  1  0
  4 11  2  0
  3 25  1  0
  3 26  1  0
  3 27  1  0
  4 28  1  0
  5 29  1  0
  5 30  1  0
  9 31  1  0
  9 32  1  0
 10 33  1  0
 10 34  1  0
 11 35  1  0
 12 36  1  0
 13 37  1  0
 14 38  1  0
 14 39  1  0
 15 40  1  0
 15 41  1  0
 17 42  1  0
 17 43  1  0
 18 44  1  0
 18 45  1  0
 19 46  1  0
 19 47  1  0
 20 48  1  0
M  END
