
     RDKit          3D

 31 32  0  0  0  0  0  0  0  0999 V2000
    3.4339    1.6020   -0.2532 N   0  0  0  0  0  0  0  0  0  0  0  0
    2.2463    2.1118    0.1750 C   0  0  0  0  0  0  0  0  0  0  0  0
    1.2098    1.4129    0.4763 N   0  0  0  0  0  0  0  0  0  0  0  0
    1.3718    0.0630    0.3394 C   0  0  0  0  0  0  0  0  0  0  0  0
    2.5620   -0.5191   -0.0874 C   0  0  0  0  0  0  0  0  0  0  0  0
    3.7114    0.2529   -0.4236 C   0  0  0  0  0  0  0  0  0  0  0  0
    4.8016   -0.1473   -0.8071 O   0  0  0  0  0  0  0  0  0  0  0  0
    2.3925   -1.8672   -0.0946 N   0  0  0  0  0  0  0  0  0  0  0  0
    1.1335   -2.1508    0.3181 C   0  0  0  0  0  0  0  0  0  0  0  0
    0.4551   -0.9856    0.6029 C   0  0  0  0  0  0  0  0  0  0  0  0
   -1.8431   -0.5209   -0.0434 N   0  0  0  0  0  0  0  0  0  0  0  0
   -0.9584   -0.8604    1.0594 C   0  0  0  0  0  0  0  0  0  0  0  0
   -3.2450   -0.4841    0.3401 C   0  0  1  0  0  0  0  0  0  0  0  0
   -3.5917    0.7658    1.1383 C   0  0  0  0  0  0  0  0  0  0  0  0
   -4.1446   -0.7180   -0.8639 C   0  0  0  0  0  0  0  0  0  0  0  0
   -3.8974    0.2134   -1.8892 O   0  0  0  0  0  0  0  0  0  0  0  0
   -3.3530    1.9382    0.4018 O   0  0  0  0  0  0  0  0  0  0  0  0
    4.1780    2.2550   -0.4607 H   0  0  0  0  0  0  0  0  0  0  0  0
    2.2174    3.1912    0.2534 H   0  0  0  0  0  0  0  0  0  0  0  0
    0.7942   -3.1722    0.3903 H   0  0  0  0  0  0  0  0  0  0  0  0
   -1.7173   -1.2176   -0.7683 H   0  0  0  0  0  0  0  0  0  0  0  0
   -1.2599   -1.7927    1.5636 H   0  0  0  0  0  0  0  0  0  0  0  0
   -1.0166   -0.0733    1.8141 H   0  0  0  0  0  0  0  0  0  0  0  0
   -3.4919   -1.3165    1.0260 H   0  0  0  0  0  0  0  0  0  0  0  0
   -4.6459    0.6780    1.4384 H   0  0  0  0  0  0  0  0  0  0  0  0
   -3.0114    0.7588    2.0707 H   0  0  0  0  0  0  0  0  0  0  0  0
   -3.9713   -1.7448   -1.2168 H   0  0  0  0  0  0  0  0  0  0  0  0
   -5.1870   -0.6808   -0.5179 H   0  0  0  0  0  0  0  0  0  0  0  0
   -4.4196   -0.0520   -2.6511 H   0  0  0  0  0  0  0  0  0  0  0  0
   -3.5038    2.6832    0.9898 H   0  0  0  0  0  0  0  0  0  0  0  0
    3.0890   -2.5478   -0.3517 H   0  0  0  0  0  0  0  0  0  0  0  0
  1  2  1  0
  1 18  1  0
  2  3  2  0
  2 19  1  0
  4  3  1  0
  4 10  1  0
  5  4  2  0
  6  1  1  0
  6  5  1  0
  7  6  2  0
  8  5  1  0
  8  9  1  0
  9 10  2  0
  9 20  1  0
 10 12  1  0
 11 13  1  0
 11 21  1  0
 12 11  1  0
 12 22  1  0
 12 23  1  0
 13 15  1  0
 13 14  1  0
 13 24  1  1
 14 17  1  0
 14 25  1  0
 14 26  1  0
 15 27  1  0
 15 28  1  0
 16 15  1  0
 16 29  1  0
 17 30  1  0
  8 31  1  0
M  END
