
     RDKit          3D

 43 46  0  0  0  0  0  0  0  0999 V2000
   -6.5150   -1.3263    0.2052 N   0  0  0  0  0  0  0  0  0  0  0  0
   -6.0903   -0.0895    0.4615 C   0  0  0  0  0  0  0  0  0  0  0  0
   -3.8278   -0.5653   -0.1542 C   0  0  0  0  0  0  0  0  0  0  0  0
   -5.8623    1.9179    0.9739 C   0  0  0  0  0  0  0  0  0  0  0  0
   -0.8393    1.4016   -1.5371 C   0  0  2  0  0  0  0  0  0  0  0  0
    2.8284   -0.6319   -0.0901 C   0  0  0  0  0  0  0  0  0  0  0  0
    4.1683   -0.3151   -0.2401 C   0  0  0  0  0  0  0  0  0  0  0  0
    3.8847    1.5993    1.1985 C   0  0  0  0  0  0  0  0  0  0  0  0
    2.5410    1.2912    1.3301 C   0  0  0  0  0  0  0  0  0  0  0  0
    2.0080    0.1805    0.6838 C   0  0  0  0  0  0  0  0  0  0  0  0
    4.6839    0.7969    0.4086 C   0  0  0  0  0  0  0  0  0  0  0  0
   -4.2603   -1.8313   -0.4136 C   0  0  0  0  0  0  0  0  0  0  0  0
   -5.6224   -2.1850   -0.2254 C   0  0  0  0  0  0  0  0  0  0  0  0
   -2.2783    0.9544   -1.4262 C   0  0  0  0  0  0  0  0  0  0  0  0
   -1.7602    0.3564    0.9724 C   0  0  0  0  0  0  0  0  0  0  0  0
   -0.2381    1.8176   -0.2035 C   0  0  0  0  0  0  0  0  0  0  0  0
   -2.4110   -0.1229   -0.3373 C   0  0  1  0  0  0  0  0  0  0  0  0
   -6.7830    0.9472    0.9000 N   0  0  0  0  0  0  0  0  0  0  0  0
   -4.6385    1.5858    0.6188 N   0  0  0  0  0  0  0  0  0  0  0  0
   -4.7815    0.2944    0.2887 N   0  0  0  0  0  0  0  0  0  0  0  0
   -0.3739    0.7122    0.7243 N   0  0  0  0  0  0  0  0  0  0  0  0
    0.3354   -1.3772    1.2355 O   0  0  0  0  0  0  0  0  0  0  0  0
    5.9742    1.0960    0.2707 F   0  0  0  0  0  0  0  0  0  0  0  0
   -0.7335    2.4328   -2.4209 F   0  0  0  0  0  0  0  0  0  0  0  0
   -6.0888    2.9209    1.3029 H   0  0  0  0  0  0  0  0  0  0  0  0
    2.4210   -1.5051   -0.5822 H   0  0  0  0  0  0  0  0  0  0  0  0
    4.3133    2.4548    1.7032 H   0  0  0  0  0  0  0  0  0  0  0  0
    1.9135    1.9169    1.9512 H   0  0  0  0  0  0  0  0  0  0  0  0
   -3.5550   -2.5696   -0.7678 H   0  0  0  0  0  0  0  0  0  0  0  0
   -2.8829    1.8258   -1.1706 H   0  0  0  0  0  0  0  0  0  0  0  0
   -2.6255    0.5738   -2.3889 H   0  0  0  0  0  0  0  0  0  0  0  0
   -2.2705    1.2429    1.3493 H   0  0  0  0  0  0  0  0  0  0  0  0
   -1.8158   -0.4136    1.7372 H   0  0  0  0  0  0  0  0  0  0  0  0
    0.8010    2.1089   -0.3420 H   0  0  0  0  0  0  0  0  0  0  0  0
   -0.7760    2.6848    0.1842 H   0  0  0  0  0  0  0  0  0  0  0  0
   -1.8725   -1.0164   -0.6636 H   0  0  0  0  0  0  0  0  0  0  0  0
   -6.0631   -3.5772   -0.5332 C   0  0  0  0  0  0  0  0  0  0  0  0
   -0.0756    0.3845   -2.0499 F   0  0  0  0  0  0  0  0  0  0  0  0
    0.5874   -0.2374    0.8866 C   0  0  0  0  0  0  0  0  0  0  0  0
    5.2917   -1.3752   -1.3024 Br  0  0  0  0  0  0  0  0  0  0  0  0
   -5.4793   -4.3011    0.0364 H   0  0  0  0  0  0  0  0  0  0  0  0
   -7.1167   -3.7117   -0.3026 H   0  0  0  0  0  0  0  0  0  0  0  0
   -5.9037   -3.7991   -1.5898 H   0  0  0  0  0  0  0  0  0  0  0  0
  5 24  1  6
 16  5  1  0
 16 21  1  0
 22 39  2  0
  5 38  1  0
  5 14  1  0
 21 39  1  0
 21 15  1  0
 39 10  1  0
 14 17  1  0
  9 10  1  0
  9  8  2  0
 15 17  1  0
 10  6  2  0
 17  3  1  0
  8 11  1  0
  6  7  1  0
 12  3  2  0
 12 13  1  0
  3 20  1  0
 11  7  2  0
 11 23  1  0
  7 40  1  0
 37 13  1  0
 13  1  2  0
 20 19  1  0
 20  2  1  0
 19  4  2  0
  1  2  1  0
  2 18  2  0
  4 18  1  0
  4 25  1  0
 37 41  1  0
 37 42  1  0
 37 43  1  0
  6 26  1  0
  8 27  1  0
  9 28  1  0
 12 29  1  0
 14 30  1  0
 14 31  1  0
 15 32  1  0
 15 33  1  0
 16 34  1  0
 16 35  1  0
 17 36  1  6
M  END
