
     RDKit          3D

 60 63  0  0  0  0  0  0  0  0999 V2000
   -5.3449    1.0687    0.8900 C   0  0  0  0  0  0  0  0  0  0  0  0
    0.1076   -2.4407   -1.5962 C   0  0  0  0  0  0  0  0  0  0  0  0
   -4.6522    1.7931    1.8476 C   0  0  0  0  0  0  0  0  0  0  0  0
   -4.7745   -0.0523    0.2988 C   0  0  0  0  0  0  0  0  0  0  0  0
    0.3825   -1.2779   -2.2957 C   0  0  0  0  0  0  0  0  0  0  0  0
   -2.8044    0.2827    1.6608 C   0  0  0  0  0  0  0  0  0  0  0  0
   -1.5968   -0.2678   -1.3351 C   0  0  0  0  0  0  0  0  0  0  0  0
   -1.0019   -2.5424   -0.7619 C   0  0  0  0  0  0  0  0  0  0  0  0
   -3.3727    1.4080    2.2482 C   0  0  0  0  0  0  0  0  0  0  0  0
   -3.5058   -0.4291    0.6983 C   0  0  0  0  0  0  0  0  0  0  0  0
   -1.8680   -1.4441   -0.6434 C   0  0  0  0  0  0  0  0  0  0  0  0
   -0.4731   -0.1991   -2.1420 C   0  0  0  0  0  0  0  0  0  0  0  0
    2.5239   -0.9236    1.0255 C   0  0  0  0  0  0  0  0  0  0  0  0
    3.4641   -1.7174    1.5642 C   0  0  0  0  0  0  0  0  0  0  0  0
    4.7058   -1.1005    1.9852 C   0  0  0  0  0  0  0  0  0  0  0  0
    3.8183    1.0725    1.1897 C   0  0  0  0  0  0  0  0  0  0  0  0
   -0.3073    2.8077    0.4180 C   0  0  0  0  0  0  0  0  0  0  0  0
    0.9380    2.2556    1.1080 C   0  0  0  0  0  0  0  0  0  0  0  0
    0.0047    3.2780   -0.9949 C   0  0  0  0  0  0  0  0  0  0  0  0
    1.8944    1.7120   -1.1612 C   0  0  0  0  0  0  0  0  0  0  0  0
    1.5450    1.1661    0.2288 C   0  0  1  0  0  0  0  0  0  0  0  0
   -2.6336    2.1713    3.3067 C   0  0  0  0  0  0  0  0  0  0  0  0
    3.2816   -3.1881    1.7454 C   0  0  0  0  0  0  0  0  0  0  0  0
    4.7667    0.2626    1.7588 N   0  0  0  0  0  0  0  0  0  0  0  0
    2.6557    0.4293    0.8374 N   0  0  0  0  0  0  0  0  0  0  0  0
    0.6917    2.2527   -1.7834 N   0  0  0  0  0  0  0  0  0  0  0  0
    4.0087    2.2596    1.0168 O   0  0  0  0  0  0  0  0  0  0  0  0
   -0.1491   -4.4648    0.2373 O   0  0  0  0  0  0  0  0  0  0  0  0
    0.8900    1.0466   -3.9667 O   0  0  0  0  0  0  0  0  0  0  0  0
   -1.3112    2.0342   -3.2557 O   0  0  0  0  0  0  0  0  0  0  0  0
   -2.3667   -4.2187    0.2553 O   0  0  0  0  0  0  0  0  0  0  0  0
   -2.9459   -1.5654    0.1532 O   0  0  0  0  0  0  0  0  0  0  0  0
   -0.0717    1.3541   -2.9234 S   0  0  1  0  0  0  0  0  0  0  0  0
   -6.3368    1.3805    0.5910 H   0  0  0  0  0  0  0  0  0  0  0  0
    0.7750   -3.2832   -1.7113 H   0  0  0  0  0  0  0  0  0  0  0  0
   -5.1100    2.6687    2.2918 H   0  0  0  0  0  0  0  0  0  0  0  0
   -5.3055   -0.6192   -0.4546 H   0  0  0  0  0  0  0  0  0  0  0  0
    1.2449   -1.2324   -2.9446 H   0  0  0  0  0  0  0  0  0  0  0  0
   -1.8140   -0.0434    1.9592 H   0  0  0  0  0  0  0  0  0  0  0  0
   -2.2692    0.5764   -1.2519 H   0  0  0  0  0  0  0  0  0  0  0  0
    1.5786   -1.3384    0.7021 H   0  0  0  0  0  0  0  0  0  0  0  0
   -1.0949    2.0494    0.3935 H   0  0  0  0  0  0  0  0  0  0  0  0
   -0.7055    3.6492    0.9872 H   0  0  0  0  0  0  0  0  0  0  0  0
    1.6557    3.0610    1.2681 H   0  0  0  0  0  0  0  0  0  0  0  0
    0.6831    1.8419    2.0859 H   0  0  0  0  0  0  0  0  0  0  0  0
   -0.8939    3.5983   -1.5144 H   0  0  0  0  0  0  0  0  0  0  0  0
    0.6767    4.1404   -0.9602 H   0  0  0  0  0  0  0  0  0  0  0  0
    2.6243    2.5184   -1.0889 H   0  0  0  0  0  0  0  0  0  0  0  0
    2.3377    0.9358   -1.7848 H   0  0  0  0  0  0  0  0  0  0  0  0
    0.7683    0.4116    0.0887 H   0  0  0  0  0  0  0  0  0  0  0  0
   -2.9737    1.8821    4.3027 H   0  0  0  0  0  0  0  0  0  0  0  0
   -1.5617    1.9833    3.2624 H   0  0  0  0  0  0  0  0  0  0  0  0
   -2.7932    3.2446    3.2082 H   0  0  0  0  0  0  0  0  0  0  0  0
    4.0485   -3.7507    1.2116 H   0  0  0  0  0  0  0  0  0  0  0  0
    3.3462   -3.4710    2.7970 H   0  0  0  0  0  0  0  0  0  0  0  0
    2.3110   -3.5092    1.3707 H   0  0  0  0  0  0  0  0  0  0  0  0
    5.6211    0.7313    2.0343 H   0  0  0  0  0  0  0  0  0  0  0  0
   -0.3507   -5.3077    0.6718 H   0  0  0  0  0  0  0  0  0  0  0  0
   -1.2717   -3.8151   -0.0378 C   0  0  0  0  0  0  0  0  0  0  0  0
    5.6410   -1.6875    2.4971 O   0  0  0  0  0  0  0  0  0  0  0  0
 60 15  2  0
 24 15  1  0
 24 16  1  0
 15 14  1  0
 27 16  2  0
 16 25  1  0
 14 23  1  0
 14 13  2  0
 22  9  1  0
 25 13  1  0
 25 21  1  0
  3  9  1  0
  3  1  2  0
  9  6  2  0
 21 20  1  0
 21 18  1  0
  1  4  1  0
  6 10  1  0
 20 26  1  0
 18 17  1  0
 30 33  2  0
  4 10  2  0
 10 32  1  0
 26 33  1  0
 26 19  1  0
 17 19  1  0
 33 12  1  1
 33 29  2  0
  7 11  1  0
  7 12  2  0
 32 11  1  0
 11  8  2  0
 12  5  1  0
  5  2  2  0
  8  2  1  0
  8 59  1  0
 31 59  2  0
 59 28  1  0
  1 34  1  0
  2 35  1  0
  3 36  1  0
  4 37  1  0
  5 38  1  0
  6 39  1  0
  7 40  1  0
 13 41  1  0
 17 42  1  0
 17 43  1  0
 18 44  1  0
 18 45  1  0
 19 46  1  0
 19 47  1  0
 20 48  1  0
 20 49  1  0
 21 50  1  6
 22 51  1  0
 22 52  1  0
 22 53  1  0
 23 54  1  0
 23 55  1  0
 23 56  1  0
 24 57  1  0
 28 58  1  0
M  END
