
     RDKit          3D

 25 25  0  0  0  0  0  0  0  0999 V2000
   -0.0829    0.0522   -3.3762 C   0  0  0  0  0  0  0  0  0  0  0  0
    0.8756    0.2403   -4.0865 O   0  0  0  0  0  0  0  0  0  0  0  0
   -1.3208   -0.0367   -3.8408 O   0  0  0  0  0  0  0  0  0  0  0  0
   -0.0013   -0.1023   -1.8995 C   0  0  0  0  0  0  0  0  0  0  0  0
    1.2498    0.0001   -1.3124 C   0  0  0  0  0  0  0  0  0  0  0  0
    1.3912   -0.1304    0.0730 C   0  0  0  0  0  0  0  0  0  0  0  0
    2.6278   -0.0753    0.6588 N   0  0  0  0  0  0  0  0  0  0  0  0
    0.2494   -0.3731    0.8492 C   0  0  0  0  0  0  0  0  0  0  0  0
    0.3754   -0.5166    2.2451 N   0  0  0  0  0  0  0  0  0  0  0  0
   -0.0550    0.4253    3.1236 C   0  0  0  0  0  0  0  0  0  0  0  0
   -0.5353    1.4831    2.7604 O   0  0  0  0  0  0  0  0  0  0  0  0
    0.1319    0.0493    4.5714 C   0  0  0  0  0  0  0  0  0  0  0  0
   -1.0036   -0.4819    0.2436 C   0  0  0  0  0  0  0  0  0  0  0  0
   -2.0496   -0.7299    1.0470 O   0  0  0  0  0  0  0  0  0  0  0  0
   -1.1387   -0.3434   -1.1329 C   0  0  0  0  0  0  0  0  0  0  0  0
   -1.3197    0.0668   -4.8040 H   0  0  0  0  0  0  0  0  0  0  0  0
    2.1256    0.1877   -1.9198 H   0  0  0  0  0  0  0  0  0  0  0  0
    3.3470    0.3926    0.1324 H   0  0  0  0  0  0  0  0  0  0  0  0
    2.6540    0.1466    1.6407 H   0  0  0  0  0  0  0  0  0  0  0  0
    0.7688   -1.3736    2.6058 H   0  0  0  0  0  0  0  0  0  0  0  0
   -0.2418    0.8380    5.2187 H   0  0  0  0  0  0  0  0  0  0  0  0
   -0.3944   -0.8771    4.8043 H   0  0  0  0  0  0  0  0  0  0  0  0
    1.1880   -0.1134    4.7917 H   0  0  0  0  0  0  0  0  0  0  0  0
   -2.8609   -0.7804    0.5291 H   0  0  0  0  0  0  0  0  0  0  0  0
   -2.1172   -0.4312   -1.5871 H   0  0  0  0  0  0  0  0  0  0  0  0
  1  2  2  0
  1  3  1  0
  1  4  1  0
  3 16  1  0
  4  5  2  0
  4 15  1  0
  5  6  1  0
  5 17  1  0
  6  7  1  0
  6  8  2  0
  7 18  1  0
  7 19  1  0
  8  9  1  0
  8 13  1  0
  9 10  1  0
  9 20  1  0
 10 11  2  0
 10 12  1  0
 12 21  1  0
 12 22  1  0
 12 23  1  0
 13 14  1  0
 13 15  2  0
 14 24  1  0
 15 25  1  0
M  END
