
     RDKit          3D

 47 47  0  0  0  0  0  0  0  0999 V2000
    6.9101   -0.2828   -0.9924 C   0  0  0  0  0  0  0  0  0  0  0  0
    5.5393    0.1655   -0.5793 C   0  0  0  0  0  0  0  0  0  0  0  0
    5.0076    1.3538   -1.0637 C   0  0  0  0  0  0  0  0  0  0  0  0
    3.7396    1.7847   -0.6911 C   0  0  0  0  0  0  0  0  0  0  0  0
    2.9748    1.0279    0.1830 C   0  0  0  0  0  0  0  0  0  0  0  0
    1.5942    1.4674    0.5887 C   0  0  0  0  0  0  0  0  0  0  0  0
    0.6008    0.5578    0.0579 N   0  0  0  0  0  0  0  0  0  0  0  0
   -0.6518    0.4865    0.5705 C   0  0  0  0  0  0  0  0  0  0  0  0
   -0.9892    1.0658    1.5981 O   0  0  0  0  0  0  0  0  0  0  0  0
   -1.5176   -0.3176   -0.1120 N   0  0  0  0  0  0  0  0  0  0  0  0
   -2.9157   -0.2943    0.2228 C   0  0  2  0  0  0  0  0  0  0  0  0
   -3.6933   -1.2337   -0.7004 C   0  0  0  0  0  0  0  0  0  0  0  0
   -3.2834   -2.7059   -0.6215 C   0  0  1  0  0  0  0  0  0  0  0  0
   -3.4866   -3.2868    0.7738 C   0  0  0  0  0  0  0  0  0  0  0  0
   -4.0730   -3.5051   -1.6538 C   0  0  0  0  0  0  0  0  0  0  0  0
   -3.4798    1.1206    0.0783 C   0  0  0  0  0  0  0  0  0  0  0  0
   -3.1518    1.8679   -0.8230 O   0  0  0  0  0  0  0  0  0  0  0  0
   -4.4274    1.4051    0.9889 N   0  0  0  0  0  0  0  0  0  0  0  0
   -4.9626    2.6573    1.0440 O   0  0  0  0  0  0  0  0  0  0  0  0
    3.5066   -0.1649    0.6701 C   0  0  0  0  0  0  0  0  0  0  0  0
    4.7720   -0.6072    0.3082 C   0  0  0  0  0  0  0  0  0  0  0  0
    5.3125   -1.8951    0.8569 C   0  0  0  0  0  0  0  0  0  0  0  0
    7.5933   -0.3202   -0.1411 H   0  0  0  0  0  0  0  0  0  0  0  0
    6.8932   -1.2854   -1.4245 H   0  0  0  0  0  0  0  0  0  0  0  0
    7.3406    0.3909   -1.7318 H   0  0  0  0  0  0  0  0  0  0  0  0
    5.5932    1.9555   -1.7490 H   0  0  0  0  0  0  0  0  0  0  0  0
    3.3494    2.7145   -1.0879 H   0  0  0  0  0  0  0  0  0  0  0  0
    1.5093    1.4760    1.6757 H   0  0  0  0  0  0  0  0  0  0  0  0
    1.4206    2.4933    0.2473 H   0  0  0  0  0  0  0  0  0  0  0  0
    0.7754    0.1838   -0.8614 H   0  0  0  0  0  0  0  0  0  0  0  0
   -1.2797   -0.5969   -1.0511 H   0  0  0  0  0  0  0  0  0  0  0  0
   -3.0451   -0.6269    1.2563 H   0  0  0  0  0  0  0  0  0  0  0  0
   -4.7559   -1.1486   -0.4532 H   0  0  0  0  0  0  0  0  0  0  0  0
   -3.5877   -0.8799   -1.7318 H   0  0  0  0  0  0  0  0  0  0  0  0
   -2.2210   -2.7894   -0.8751 H   0  0  0  0  0  0  0  0  0  0  0  0
   -4.5295   -3.1942    1.0878 H   0  0  0  0  0  0  0  0  0  0  0  0
   -3.2291   -4.3468    0.7925 H   0  0  0  0  0  0  0  0  0  0  0  0
   -2.8696   -2.7939    1.5264 H   0  0  0  0  0  0  0  0  0  0  0  0
   -3.8883   -3.1438   -2.6668 H   0  0  0  0  0  0  0  0  0  0  0  0
   -3.8019   -4.5614   -1.6244 H   0  0  0  0  0  0  0  0  0  0  0  0
   -5.1470   -3.4337   -1.4656 H   0  0  0  0  0  0  0  0  0  0  0  0
   -4.5290    0.8685    1.8387 H   0  0  0  0  0  0  0  0  0  0  0  0
   -5.8075    2.6082    0.5788 H   0  0  0  0  0  0  0  0  0  0  0  0
    2.9162   -0.7647    1.3549 H   0  0  0  0  0  0  0  0  0  0  0  0
    6.2618   -1.7450    1.3749 H   0  0  0  0  0  0  0  0  0  0  0  0
    4.6172   -2.3486    1.5620 H   0  0  0  0  0  0  0  0  0  0  0  0
    5.5010   -2.6214    0.0628 H   0  0  0  0  0  0  0  0  0  0  0  0
  1  2  1  0
  2  3  2  0
  2 21  1  0
  3  4  1  0
 22 21  1  0
 14 13  1  0
 21 20  2  0
 13 12  1  0
 13 15  1  0
  4  5  2  0
 12 11  1  0
 20  5  1  0
  5  6  1  0
 10 11  1  0
 10  8  1  0
 11 16  1  0
  7  8  1  0
  7  6  1  0
  8  9  2  0
 16 17  2  0
 16 18  1  0
 18 19  1  0
  1 23  1  0
  1 24  1  0
  1 25  1  0
  3 26  1  0
  4 27  1  0
  6 28  1  0
  6 29  1  0
  7 30  1  0
 10 31  1  0
 11 32  1  1
 12 33  1  0
 12 34  1  0
 13 35  1  6
 14 36  1  0
 14 37  1  0
 14 38  1  0
 15 39  1  0
 15 40  1  0
 15 41  1  0
 18 42  1  0
 19 43  1  0
 20 44  1  0
 22 45  1  0
 22 46  1  0
 22 47  1  0
M  END
