
     RDKit          3D

 57 61  0  0  0  0  0  0  0  0999 V2000
    3.3118    2.7430    1.0474 C   0  0  0  0  0  0  0  0  0  0  0  0
   -0.3070    2.8779    0.9713 C   0  0  0  0  0  0  0  0  0  0  0  0
   -1.0060    0.5384    0.4141 C   0  0  0  0  0  0  0  0  0  0  0  0
   -2.1402   -0.8887   -1.2947 C   0  0  0  0  0  0  0  0  0  0  0  0
   -5.6627   -1.2937   -0.1200 C   0  0  0  0  0  0  0  0  0  0  0  0
   -6.9046   -1.7092   -0.5880 C   0  0  0  0  0  0  0  0  0  0  0  0
   -8.0615   -1.4546    0.1402 C   0  0  0  0  0  0  0  0  0  0  0  0
   -6.7515   -0.3478    1.8192 C   0  0  0  0  0  0  0  0  0  0  0  0
   -3.9580    0.6047   -1.7297 C   0  0  0  0  0  0  0  0  0  0  0  0
   -1.6072    1.4745   -1.8857 C   0  0  0  0  0  0  0  0  0  0  0  0
    5.9088   -2.2937   -0.1542 C   0  0  0  0  0  0  0  0  0  0  0  0
    4.8282   -2.8847    0.3636 N   0  0  0  0  0  0  0  0  0  0  0  0
    3.8452   -2.0222    0.6910 N   0  0  0  0  0  0  0  0  0  0  0  0
    4.2898   -0.8336    0.3703 C   0  0  0  0  0  0  0  0  0  0  0  0
    3.4676    0.3625    0.5654 C   0  0  0  0  0  0  0  0  0  0  0  0
    2.0850    0.2541    0.4960 C   0  0  0  0  0  0  0  0  0  0  0  0
    1.3272    1.4005    0.7069 C   0  0  0  0  0  0  0  0  0  0  0  0
    1.9175    2.6564    0.9804 C   0  0  0  0  0  0  0  0  0  0  0  0
    4.0679    1.6082    0.8426 C   0  0  0  0  0  0  0  0  0  0  0  0
    0.8480    3.5856    1.1424 C   0  0  0  0  0  0  0  0  0  0  0  0
   -0.0307    1.5637    0.7128 N   0  0  0  0  0  0  0  0  0  0  0  0
   -1.1529    0.2551   -1.0843 C   0  0  1  0  0  0  0  0  0  0  0  0
   -3.4794   -0.4921   -0.9068 N   0  0  0  0  0  0  0  0  0  0  0  0
   -4.4028   -1.6050   -0.8889 C   0  0  0  0  0  0  0  0  0  0  0  0
   -7.9884   -0.7726    1.3464 C   0  0  0  0  0  0  0  0  0  0  0  0
   -5.5993   -0.6075    1.0917 C   0  0  0  0  0  0  0  0  0  0  0  0
   -3.0601    1.8241   -1.5876 C   0  0  0  0  0  0  0  0  0  0  0  0
    5.6051   -0.9274   -0.1756 C   0  0  0  0  0  0  0  0  0  0  0  0
    6.4298    0.0689   -0.7135 C   0  0  0  0  0  0  0  0  0  0  0  0
    7.1310    0.8746   -1.1570 N   0  0  0  0  0  0  0  0  0  0  0  0
    3.7965    3.6854    1.2691 H   0  0  0  0  0  0  0  0  0  0  0  0
   -1.3309    3.2148    1.0213 H   0  0  0  0  0  0  0  0  0  0  0  0
   -0.7128   -0.3783    0.9320 H   0  0  0  0  0  0  0  0  0  0  0  0
   -1.9574    0.8454    0.8471 H   0  0  0  0  0  0  0  0  0  0  0  0
   -2.0958   -1.2087   -2.3509 H   0  0  0  0  0  0  0  0  0  0  0  0
   -1.8405   -1.7531   -0.6950 H   0  0  0  0  0  0  0  0  0  0  0  0
   -6.9715   -2.2344   -1.5341 H   0  0  0  0  0  0  0  0  0  0  0  0
   -9.0204   -1.7812   -0.2413 H   0  0  0  0  0  0  0  0  0  0  0  0
   -6.6859    0.1890    2.7574 H   0  0  0  0  0  0  0  0  0  0  0  0
   -4.0088    0.3045   -2.7927 H   0  0  0  0  0  0  0  0  0  0  0  0
   -4.9752    0.8595   -1.4254 H   0  0  0  0  0  0  0  0  0  0  0  0
   -0.9540    2.3300   -1.6988 H   0  0  0  0  0  0  0  0  0  0  0  0
   -1.5048    1.2407   -2.9503 H   0  0  0  0  0  0  0  0  0  0  0  0
    6.9733   -3.9308   -0.6953 H   0  0  0  0  0  0  0  0  0  0  0  0
    7.6788   -2.4572   -1.1053 H   0  0  0  0  0  0  0  0  0  0  0  0
    4.7052   -3.8692    0.5415 H   0  0  0  0  0  0  0  0  0  0  0  0
    1.6225   -0.6990    0.2726 H   0  0  0  0  0  0  0  0  0  0  0  0
    5.1444    1.6792    0.9225 H   0  0  0  0  0  0  0  0  0  0  0  0
    0.9224    4.6380    1.3645 H   0  0  0  0  0  0  0  0  0  0  0  0
   -0.1811   -0.0755   -1.4655 H   0  0  0  0  0  0  0  0  0  0  0  0
   -3.9003   -2.4509   -0.4085 H   0  0  0  0  0  0  0  0  0  0  0  0
   -4.6694   -1.9465   -1.9035 H   0  0  0  0  0  0  0  0  0  0  0  0
   -8.8883   -0.5694    1.9127 H   0  0  0  0  0  0  0  0  0  0  0  0
   -4.6374   -0.2667    1.4544 H   0  0  0  0  0  0  0  0  0  0  0  0
   -3.4061    2.6107   -2.2615 H   0  0  0  0  0  0  0  0  0  0  0  0
   -3.1609    2.2205   -0.5735 H   0  0  0  0  0  0  0  0  0  0  0  0
    7.0376   -2.9444   -0.5009 N   0  0  0  0  0  0  0  0  0  0  0  0
  8 26  2  0
  8 25  1  0
 26  5  1  0
 25  7  2  0
  5 24  1  0
  5  6  2  0
  7  6  1  0
 24 23  1  0
 23  9  1  0
 23  4  1  0
  9 27  1  0
 27 10  1  0
  4 22  1  0
 22 10  1  0
 22  3  1  0
 20  2  2  0
 20 18  1  0
  2 21  1  0
 21  3  1  0
 21 17  1  0
 18  1  2  0
 18 17  1  0
  1 19  1  0
 17 16  2  0
 19 15  2  0
 16 15  1  0
 15 14  1  0
 14 13  2  0
 14 28  1  0
 13 12  1  0
 28 29  1  0
 28 11  2  0
 29 30  3  0
 12 11  1  0
 11 57  1  0
  1 31  1  0
  2 32  1  0
  3 33  1  0
  3 34  1  0
  4 35  1  0
  4 36  1  0
  6 37  1  0
  7 38  1  0
  8 39  1  0
  9 40  1  0
  9 41  1  0
 10 42  1  0
 10 43  1  0
 57 44  1  0
 57 45  1  0
 12 46  1  0
 16 47  1  0
 19 48  1  0
 20 49  1  0
 22 50  1  6
 24 51  1  0
 24 52  1  0
 25 53  1  0
 26 54  1  0
 27 55  1  0
 27 56  1  0
M  END
