
     RDKit          3D

 15 15  0  0  0  0  0  0  0  0999 V2000
    2.1866   -0.1388    0.0214 C   0  0  0  0  0  0  0  0  0  0  0  0
    2.7935   -1.1832    0.0251 O   0  0  0  0  0  0  0  0  0  0  0  0
    0.7078   -0.0451    0.0077 C   0  0  0  0  0  0  0  0  0  0  0  0
   -0.0304   -1.2279    0.0183 C   0  0  0  0  0  0  0  0  0  0  0  0
   -1.4133   -1.1984    0.0085 C   0  0  0  0  0  0  0  0  0  0  0  0
   -2.0453    0.0318   -0.0132 C   0  0  0  0  0  0  0  0  0  0  0  0
   -3.3818    0.0699   -0.0223 F   0  0  0  0  0  0  0  0  0  0  0  0
   -1.3450    1.2234   -0.0259 C   0  0  0  0  0  0  0  0  0  0  0  0
    0.0392    1.1786   -0.0149 C   0  0  0  0  0  0  0  0  0  0  0  0
    0.4771   -2.1827    0.0347 H   0  0  0  0  0  0  0  0  0  0  0  0
   -1.9913   -2.1128    0.0163 H   0  0  0  0  0  0  0  0  0  0  0  0
   -1.8687    2.1697   -0.0456 H   0  0  0  0  0  0  0  0  0  0  0  0
    0.5871    2.1102   -0.0261 H   0  0  0  0  0  0  0  0  0  0  0  0
    2.7803    1.0463    0.0332 O   0  0  0  0  0  0  0  0  0  0  0  0
    3.7422    0.9330    0.0393 H   0  0  0  0  0  0  0  0  0  0  0  0
  2  1  2  0
  1  3  1  0
  3  4  2  0
  3  9  1  0
  4  5  1  0
  9  8  2  0
  5  6  2  0
  8  6  1  0
  6  7  1  0
  4 10  1  0
  5 11  1  0
  8 12  1  0
  9 13  1  0
  1 14  1  0
 14 15  1  0
M  END
