
     RDKit          3D

 26 26  0  0  0  0  0  0  0  0999 V2000
    0.4307   -1.1878    0.2835 C   0  0  2  0  0  0  0  0  0  0  0  0
   -1.0257   -1.2603   -0.1444 C   0  0  0  0  0  0  0  0  0  0  0  0
   -1.7401   -0.0057    0.3341 C   0  0  1  0  0  0  0  0  0  0  0  0
   -1.0786    1.2582   -0.1867 C   0  0  0  0  0  0  0  0  0  0  0  0
    0.3874    1.2980    0.2405 C   0  0  1  0  0  0  0  0  0  0  0  0
    1.1268    0.0556   -0.2499 C   0  0  1  0  0  0  0  0  0  0  0  0
    1.1573   -2.3958   -0.1886 N   0  0  0  0  0  0  0  0  0  0  0  0
   -3.1611   -0.0517   -0.1029 N   0  0  0  0  0  0  0  0  0  0  0  0
    1.0544    2.4062   -0.3069 O   0  0  0  0  0  0  0  0  0  0  0  0
    2.4514    0.0081    0.2043 O   0  0  0  0  0  0  0  0  0  0  0  0
    0.5047   -1.2128    1.3729 H   0  0  0  0  0  0  0  0  0  0  0  0
   -1.4946   -2.1502    0.2806 H   0  0  0  0  0  0  0  0  0  0  0  0
   -1.0938   -1.3372   -1.2341 H   0  0  0  0  0  0  0  0  0  0  0  0
   -1.7729    0.0074    1.4246 H   0  0  0  0  0  0  0  0  0  0  0  0
   -1.1435    1.2931   -1.2789 H   0  0  0  0  0  0  0  0  0  0  0  0
   -1.5941    2.1396    0.2024 H   0  0  0  0  0  0  0  0  0  0  0  0
    0.4394    1.3127    1.3385 H   0  0  0  0  0  0  0  0  0  0  0  0
    1.0775    0.0396   -1.3508 H   0  0  0  0  0  0  0  0  0  0  0  0
    1.1059   -2.5129   -1.2016 H   0  0  0  0  0  0  0  0  0  0  0  0
    2.1477   -2.3475    0.0577 H   0  0  0  0  0  0  0  0  0  0  0  0
    0.7863   -3.2485    0.2315 H   0  0  0  0  0  0  0  0  0  0  0  0
   -3.6458   -0.8741    0.2588 H   0  0  0  0  0  0  0  0  0  0  0  0
   -3.2559   -0.0708   -1.1194 H   0  0  0  0  0  0  0  0  0  0  0  0
   -3.6810    0.7618    0.2287 H   0  0  0  0  0  0  0  0  0  0  0  0
    0.8420    3.1857    0.2154 H   0  0  0  0  0  0  0  0  0  0  0  0
    2.9455    0.7281   -0.2017 H   0  0  0  0  0  0  0  0  0  0  0  0
  1  2  1  0
  1  6  1  0
  1  7  1  0
  1 11  1  1
  2  3  1  0
  2 12  1  0
  2 13  1  0
  3  4  1  0
  3  8  1  0
  3 14  1  1
  4  5  1  0
  4 15  1  0
  4 16  1  0
  5  6  1  0
  5  9  1  0
  5 17  1  1
  6 10  1  0
  6 18  1  6
  7 19  1  0
  7 20  1  0
  7 21  1  0
  8 22  1  0
  8 23  1  0
  8 24  1  0
  9 25  1  0
 10 26  1  0
M  CHG  2   7   1   8   1
M  END
