
     RDKit          3D

 47 51  0  0  0  0  0  0  0  0999 V2000
    0.4827   -1.1074    1.1467 C   0  0  0  0  0  0  0  0  0  0  0  0
    0.2491   -2.4479    1.3269 C   0  0  0  0  0  0  0  0  0  0  0  0
    0.5431   -3.2210    2.3954 O   0  0  0  0  0  0  0  0  0  0  0  0
   -0.0487   -4.4913    2.1502 C   0  0  0  0  0  0  0  0  0  0  0  0
   -0.4444   -4.5040    0.7794 O   0  0  0  0  0  0  0  0  0  0  0  0
   -0.3478   -3.2310    0.3550 C   0  0  0  0  0  0  0  0  0  0  0  0
   -0.7311   -2.6884   -0.8470 C   0  0  0  0  0  0  0  0  0  0  0  0
   -1.4677   -3.6790   -2.0469 Cl  0  0  0  0  0  0  0  0  0  0  0  0
   -0.4995   -1.3302   -1.0618 C   0  0  0  0  0  0  0  0  0  0  0  0
    0.0988   -0.5549   -0.0800 C   0  0  0  0  0  0  0  0  0  0  0  0
    0.3259    0.9178   -0.3310 C   0  0  1  0  0  0  0  0  0  0  0  0
    1.0801    1.2004   -1.6070 C   0  0  0  0  0  0  0  0  0  0  0  0
    2.3513    0.5830   -1.9950 C   0  0  0  0  0  0  0  0  0  0  0  0
    2.6296    0.4128   -3.1675 O   0  0  0  0  0  0  0  0  0  0  0  0
    3.2879    0.1277   -0.9546 C   0  0  0  0  0  0  0  0  0  0  0  0
    4.1633   -0.9158   -1.0867 C   0  0  0  0  0  0  0  0  0  0  0  0
    4.9731   -1.1165    0.0522 C   0  0  0  0  0  0  0  0  0  0  0  0
    4.7072   -0.1962    1.0216 C   0  0  0  0  0  0  0  0  0  0  0  0
    5.4707   -0.0571    2.5367 Cl  0  0  0  0  0  0  0  0  0  0  0  0
    3.4753    0.9057    0.5749 S   0  0  0  0  0  0  0  0  0  0  0  0
    0.3309    1.9982   -2.3868 C   0  0  0  0  0  0  0  0  0  0  0  0
    0.5932    2.4870   -3.5754 O   0  0  0  0  0  0  0  0  0  0  0  0
   -0.9502    2.3186   -1.7008 C   0  0  0  0  0  0  0  0  0  0  0  0
   -1.8142    3.0466   -2.1428 O   0  0  0  0  0  0  0  0  0  0  0  0
   -0.9259    1.6386   -0.5314 N   0  0  0  0  0  0  0  0  0  0  0  0
   -1.9579    1.6242    0.4233 C   0  0  0  0  0  0  0  0  0  0  0  0
   -3.2791    1.4792    0.0237 C   0  0  0  0  0  0  0  0  0  0  0  0
   -1.6498    1.7295    1.7761 C   0  0  0  0  0  0  0  0  0  0  0  0
   -2.6622    1.6859    2.7208 C   0  0  0  0  0  0  0  0  0  0  0  0
   -3.9852    1.5580    2.3294 C   0  0  0  0  0  0  0  0  0  0  0  0
   -4.2941    1.4579    0.9747 C   0  0  0  0  0  0  0  0  0  0  0  0
   -5.6906    1.3116    0.4872 C   0  0  0  0  0  0  0  0  0  0  0  0
   -5.9840    1.2122   -0.6796 O   0  0  0  0  0  0  0  0  0  0  0  0
   -6.5814    1.3036    1.4662 O   0  0  0  0  0  0  0  0  0  0  0  0
    0.9504   -0.5081    1.9165 H   0  0  0  0  0  0  0  0  0  0  0  0
    0.6809   -5.2802    2.3285 H   0  0  0  0  0  0  0  0  0  0  0  0
   -0.9279   -4.6227    2.7878 H   0  0  0  0  0  0  0  0  0  0  0  0
   -0.7948   -0.8907   -2.0063 H   0  0  0  0  0  0  0  0  0  0  0  0
    0.8398    1.3502    0.5333 H   0  0  0  0  0  0  0  0  0  0  0  0
    4.2103   -1.5344   -1.9714 H   0  0  0  0  0  0  0  0  0  0  0  0
    5.7146   -1.8949    0.1491 H   0  0  0  0  0  0  0  0  0  0  0  0
   -0.1232    3.0778   -3.8552 H   0  0  0  0  0  0  0  0  0  0  0  0
   -3.5238    1.3662   -1.0227 H   0  0  0  0  0  0  0  0  0  0  0  0
   -0.6247    1.8569    2.0985 H   0  0  0  0  0  0  0  0  0  0  0  0
   -2.4156    1.7649    3.7706 H   0  0  0  0  0  0  0  0  0  0  0  0
   -4.7605    1.5361    3.0815 H   0  0  0  0  0  0  0  0  0  0  0  0
   -7.4747    1.2122    1.1021 H   0  0  0  0  0  0  0  0  0  0  0  0
  4  3  1  0
  4  5  1  0
 19 18  1  0
  3  2  1  0
 17 18  2  0
 17 16  1  0
  5  6  1  0
 18 20  1  0
 16 15  2  0
  2  6  1  0
  2  1  2  0
  6  7  2  0
 20 15  1  0
 15 13  1  0
  1 10  1  0
  7  8  1  0
  7  9  1  0
 13 14  2  0
 13 12  1  0
 22 21  1  0
 10  9  2  0
 10 11  1  0
 12 21  2  0
 12 11  1  0
 21 23  1  0
 11 25  1  0
 23 24  2  0
 23 25  1  0
 33 32  2  0
 25 26  1  0
 27 26  2  0
 27 31  1  0
 26 28  1  0
 32 31  1  0
 32 34  1  0
 31 30  2  0
 28 29  2  0
 30 29  1  0
  1 35  1  0
  4 36  1  0
  4 37  1  0
  9 38  1  0
 11 39  1  1
 16 40  1  0
 17 41  1  0
 22 42  1  0
 27 43  1  0
 28 44  1  0
 29 45  1  0
 30 46  1  0
 34 47  1  0
M  END
