
     RDKit          3D

 38 40  0  0  0  0  0  0  0  0999 V2000
    0.9682    3.4532    0.1158 O   0  0  0  0  0  0  0  0  0  0  0  0
    0.2590    2.2783    0.2247 C   0  0  0  0  0  0  0  0  0  0  0  0
   -1.1247    2.3497    0.3687 C   0  0  0  0  0  0  0  0  0  0  0  0
   -1.7656    3.5272    0.4761 O   0  0  0  0  0  0  0  0  0  0  0  0
   -1.8539    1.1750    0.3946 C   0  0  0  0  0  0  0  0  0  0  0  0
   -3.3262    0.9624    0.5739 C   0  0  0  0  0  0  0  0  0  0  0  0
   -3.4504   -0.5480    0.2300 C   0  0  1  0  0  0  0  0  0  0  0  0
   -3.9890   -0.7071   -1.1787 C   0  0  0  0  0  0  0  0  0  0  0  0
   -5.2913   -0.4435   -1.2199 O   0  0  0  0  0  0  0  0  0  0  0  0
   -3.3376   -1.0034   -2.1449 O   0  0  0  0  0  0  0  0  0  0  0  0
   -2.1112   -1.1107    0.3186 N   0  0  0  0  0  0  0  0  0  0  0  0
   -1.1987   -0.0448    0.3087 C   0  0  0  0  0  0  0  0  0  0  0  0
    0.1824   -0.1551    0.1815 C   0  0  0  0  0  0  0  0  0  0  0  0
    0.9107    1.0433    0.1154 C   0  0  0  0  0  0  0  0  0  0  0  0
    2.2813    1.0403   -0.0646 N   0  0  0  0  0  0  0  0  0  0  0  0
    2.8610   -0.1185   -0.6890 C   0  0  1  0  0  0  0  0  0  0  0  0
    4.3711    0.0049   -0.6623 C   0  0  0  0  0  0  0  0  0  0  0  0
    4.9490   -1.0285   -1.2548 O   0  0  0  0  0  0  0  0  0  0  0  0
    4.9738    0.9274   -0.1786 O   0  0  0  0  0  0  0  0  0  0  0  0
    2.3994   -1.3629    0.0616 C   0  0  0  0  0  0  0  0  0  0  0  0
    0.8653   -1.4841    0.0005 C   0  0  1  0  0  0  0  0  0  0  0  0
    0.4872   -2.4977    1.0587 C   0  0  0  0  0  0  0  0  0  0  0  0
    0.0829   -2.2302    2.1633 O   0  0  0  0  0  0  0  0  0  0  0  0
    0.7094   -3.7378    0.6449 O   0  0  0  0  0  0  0  0  0  0  0  0
    1.4340    3.6313    0.9422 H   0  0  0  0  0  0  0  0  0  0  0  0
   -1.1258    4.2483    0.4121 H   0  0  0  0  0  0  0  0  0  0  0  0
   -3.6446    1.1546    1.6023 H   0  0  0  0  0  0  0  0  0  0  0  0
   -3.9434    1.5918   -0.0685 H   0  0  0  0  0  0  0  0  0  0  0  0
   -4.1261   -1.0573    0.9185 H   0  0  0  0  0  0  0  0  0  0  0  0
   -2.0102   -1.7346    1.1062 H   0  0  0  0  0  0  0  0  0  0  0  0
    2.6453    1.9189   -0.4031 H   0  0  0  0  0  0  0  0  0  0  0  0
    2.5620   -0.2171   -1.7451 H   0  0  0  0  0  0  0  0  0  0  0  0
    2.8523   -2.2563   -0.3631 H   0  0  0  0  0  0  0  0  0  0  0  0
    2.7317   -1.2781    1.0999 H   0  0  0  0  0  0  0  0  0  0  0  0
    0.5919   -1.8985   -0.9762 H   0  0  0  0  0  0  0  0  0  0  0  0
   -5.6144   -0.5014   -2.1314 H   0  0  0  0  0  0  0  0  0  0  0  0
    5.9133   -0.9354   -1.2273 H   0  0  0  0  0  0  0  0  0  0  0  0
    0.5148   -4.3677    1.3556 H   0  0  0  0  0  0  0  0  0  0  0  0
  1  2  1  0
  2  3  2  0
  2 14  1  0
  3  4  1  0
  3  5  1  0
  5  6  1  0
  5 12  2  0
  6  7  1  0
  7  8  1  0
  7 11  1  0
  8  9  1  0
  8 10  2  0
 11 12  1  0
 12 13  1  0
 13 14  2  0
 13 21  1  0
 14 15  1  0
 15 16  1  0
 16 17  1  0
 16 20  1  0
 17 18  1  0
 17 19  2  0
 20 21  1  0
 21 22  1  0
 22 23  2  0
 22 24  1  0
  1 25  1  0
  4 26  1  0
  6 27  1  0
  6 28  1  0
  7 29  1  1
 11 30  1  0
 15 31  1  0
 16 32  1  6
 20 33  1  0
 20 34  1  0
 21 35  1  6
  9 36  1  0
 18 37  1  0
 24 38  1  0
M  END
