
     RDKit          3D

 40 43  0  0  0  0  0  0  0  0999 V2000
    5.1287   -0.8292   -0.0411 N   0  0  0  0  0  0  0  0  0  0  0  0
    2.4549    0.2886   -0.1173 N   0  0  0  0  0  0  0  0  0  0  0  0
   -2.7683    2.0101    0.1820 N   0  0  0  0  0  0  0  0  0  0  0  0
    0.1821   -0.1009   -0.0865 N   0  0  0  0  0  0  0  0  0  0  0  0
    5.4711   -1.2271    1.3093 C   0  0  0  0  0  0  0  0  0  0  0  0
   -4.9808    1.5817    0.1668 O   0  0  0  0  0  0  0  0  0  0  0  0
   -4.2383   -2.5304   -0.3117 C   0  0  0  0  0  0  0  0  0  0  0  0
   -2.9102   -2.9564   -0.3773 C   0  0  0  0  0  0  0  0  0  0  0  0
    0.8960    2.1522    0.1589 C   0  0  0  0  0  0  0  0  0  0  0  0
   -4.5225   -1.1897   -0.1558 C   0  0  0  0  0  0  0  0  0  0  0  0
   -1.8788   -2.0452   -0.2876 C   0  0  0  0  0  0  0  0  0  0  0  0
   -0.4070    2.5713    0.2199 C   0  0  0  0  0  0  0  0  0  0  0  0
    4.0046   -1.5527   -0.6009 C   0  0  0  0  0  0  0  0  0  0  0  0
    4.8912    0.5907   -0.1918 C   0  0  0  0  0  0  0  0  0  0  0  0
    2.6492   -1.1529   -0.0309 C   0  0  0  0  0  0  0  0  0  0  0  0
    3.5684    1.0739    0.3950 C   0  0  0  0  0  0  0  0  0  0  0  0
    1.1725    0.7711   -0.0069 C   0  0  0  0  0  0  0  0  0  0  0  0
   -3.8304    1.1675    0.1026 C   0  0  0  0  0  0  0  0  0  0  0  0
   -1.4402    1.6363    0.1218 C   0  0  0  0  0  0  0  0  0  0  0  0
   -3.4874   -0.2561   -0.0638 C   0  0  0  0  0  0  0  0  0  0  0  0
   -2.1525   -0.6820   -0.1301 C   0  0  0  0  0  0  0  0  0  0  0  0
   -1.0875    0.3023   -0.0326 C   0  0  0  0  0  0  0  0  0  0  0  0
   -2.9780    2.9926    0.2996 H   0  0  0  0  0  0  0  0  0  0  0  0
    5.7201   -2.2894    1.3229 H   0  0  0  0  0  0  0  0  0  0  0  0
    6.3547   -0.6763    1.6351 H   0  0  0  0  0  0  0  0  0  0  0  0
    4.6885   -1.0644    2.0625 H   0  0  0  0  0  0  0  0  0  0  0  0
   -5.0425   -3.2500   -0.3832 H   0  0  0  0  0  0  0  0  0  0  0  0
   -2.6882   -4.0087   -0.4986 H   0  0  0  0  0  0  0  0  0  0  0  0
    1.6800    2.8892    0.2337 H   0  0  0  0  0  0  0  0  0  0  0  0
   -5.5491   -0.8538   -0.1021 H   0  0  0  0  0  0  0  0  0  0  0  0
   -0.8495   -2.3728   -0.3394 H   0  0  0  0  0  0  0  0  0  0  0  0
   -0.6296    3.6238    0.3448 H   0  0  0  0  0  0  0  0  0  0  0  0
    3.9926   -1.3790   -1.6822 H   0  0  0  0  0  0  0  0  0  0  0  0
    4.1467   -2.6255   -0.4514 H   0  0  0  0  0  0  0  0  0  0  0  0
    5.7056    1.1509    0.2726 H   0  0  0  0  0  0  0  0  0  0  0  0
    4.9060    0.8295   -1.2606 H   0  0  0  0  0  0  0  0  0  0  0  0
    2.5445   -1.4928    1.0090 H   0  0  0  0  0  0  0  0  0  0  0  0
    1.8707   -1.6558   -0.5993 H   0  0  0  0  0  0  0  0  0  0  0  0
    3.4573    2.1195    0.1159 H   0  0  0  0  0  0  0  0  0  0  0  0
    3.5944    1.0358    1.4927 H   0  0  0  0  0  0  0  0  0  0  0  0
  5  1  1  0
  1 13  1  0
  1 14  1  0
 16  2  1  0
 15  2  1  0
  2 17  1  0
 19  3  1  0
  3 18  1  0
  3 23  1  0
 17  4  1  0
  4 22  2  0
  5 24  1  0
  5 25  1  0
  5 26  1  0
 18  6  2  0
  8  7  2  0
  7 10  1  0
  7 27  1  0
 11  8  1  0
  8 28  1  0
 17  9  2  0
  9 12  1  0
  9 29  1  0
 20 10  2  0
 10 30  1  0
 11 21  2  0
 11 31  1  0
 12 19  2  0
 12 32  1  0
 13 15  1  0
 13 33  1  0
 13 34  1  0
 14 16  1  0
 14 35  1  0
 14 36  1  0
 15 37  1  0
 15 38  1  0
 16 39  1  0
 16 40  1  0
 20 18  1  0
 22 19  1  0
 21 20  1  0
 22 21  1  0
M  END
