
     RDKit          3D

 45 46  0  0  0  0  0  0  0  0999 V2000
    3.6266   -2.5232   -0.5788 O   0  0  0  0  0  0  0  0  0  0  0  0
    2.8259   -1.7795    0.3006 C   0  0  1  0  0  0  0  0  0  0  0  0
    2.0200   -0.7738   -0.5410 C   0  0  1  0  0  0  0  0  0  0  0  0
    0.7040   -1.2371   -0.6226 O   0  0  0  0  0  0  0  0  0  0  0  0
    0.5714   -2.5138   -0.0354 C   0  0  2  0  0  0  0  0  0  0  0  0
   -0.7475   -2.6073    0.6834 C   0  0  0  0  0  0  0  0  0  0  0  0
   -1.8012   -2.5128   -0.3021 O   0  0  0  0  0  0  0  0  0  0  0  0
    1.7453   -2.6766    0.9325 C   0  0  1  0  0  0  0  0  0  0  0  0
    2.1246   -4.0262    0.9937 O   0  0  0  0  0  0  0  0  0  0  0  0
    2.0410    0.6060   -0.0715 N   0  0  0  0  0  0  0  0  0  0  0  0
    2.5766    1.5745   -0.8719 C   0  0  0  0  0  0  0  0  0  0  0  0
    2.6588    2.8656   -0.5193 C   0  0  0  0  0  0  0  0  0  0  0  0
    2.1405    3.2842    0.7578 C   0  0  0  0  0  0  0  0  0  0  0  0
    2.1247    4.4249    1.1857 O   0  0  0  0  0  0  0  0  0  0  0  0
    1.6423    2.2410    1.5190 N   0  0  0  0  0  0  0  0  0  0  0  0
    1.5256    0.9250    1.1664 C   0  0  0  0  0  0  0  0  0  0  0  0
    1.0352    0.1011    1.9108 O   0  0  0  0  0  0  0  0  0  0  0  0
   -2.1350    0.6126   -0.5364 C   0  0  0  0  0  0  0  0  0  0  0  0
   -1.8900    2.0199   -0.0271 C   0  0  2  0  0  0  0  0  0  0  0  0
   -3.1720    2.8292   -0.2680 C   0  0  0  0  0  0  0  0  0  0  0  0
   -0.7001    2.5471   -0.6496 N   0  0  0  0  0  0  0  0  0  0  0  0
   -2.6794   -0.2342    0.4083 N   0  0  0  0  0  0  0  0  0  0  0  0
   -1.9301    0.2660   -1.6710 O   0  0  0  0  0  0  0  0  0  0  0  0
   -3.9673   -1.8661   -1.0805 O   0  0  0  0  0  0  0  0  0  0  0  0
   -3.6295   -2.2920    1.3679 O   0  0  0  0  0  0  0  0  0  0  0  0
   -2.9787    4.1021    0.2972 O   0  0  0  0  0  0  0  0  0  0  0  0
   -3.1530   -1.7993    0.0996 S   0  0  1  0  0  0  0  0  0  0  0  0
    3.6151   -3.4383   -0.2658 H   0  0  0  0  0  0  0  0  0  0  0  0
    3.4373   -1.2762    1.0585 H   0  0  0  0  0  0  0  0  0  0  0  0
    2.4688   -0.7317   -1.5370 H   0  0  0  0  0  0  0  0  0  0  0  0
    0.6333   -3.2930   -0.8073 H   0  0  0  0  0  0  0  0  0  0  0  0
   -0.8331   -3.5664    1.1952 H   0  0  0  0  0  0  0  0  0  0  0  0
   -0.8245   -1.8017    1.4160 H   0  0  0  0  0  0  0  0  0  0  0  0
    1.4858   -2.2951    1.9213 H   0  0  0  0  0  0  0  0  0  0  0  0
    2.4973   -4.2067    1.8622 H   0  0  0  0  0  0  0  0  0  0  0  0
    2.9463    1.2324   -1.8280 H   0  0  0  0  0  0  0  0  0  0  0  0
    3.0889    3.5928   -1.1901 H   0  0  0  0  0  0  0  0  0  0  0  0
    1.2620    2.4786    2.4267 H   0  0  0  0  0  0  0  0  0  0  0  0
   -1.7222    1.9825    1.0546 H   0  0  0  0  0  0  0  0  0  0  0  0
   -3.3563    2.8844   -1.3480 H   0  0  0  0  0  0  0  0  0  0  0  0
   -4.0302    2.3140    0.1838 H   0  0  0  0  0  0  0  0  0  0  0  0
   -0.7862    2.5207   -1.6582 H   0  0  0  0  0  0  0  0  0  0  0  0
   -0.5995    3.5213   -0.3960 H   0  0  0  0  0  0  0  0  0  0  0  0
   -2.8199    0.0844    1.3599 H   0  0  0  0  0  0  0  0  0  0  0  0
   -3.6490    4.6944   -0.0545 H   0  0  0  0  0  0  0  0  0  0  0  0
  1  2  1  0
 17 16  2  0
  2  3  1  0
  2  8  1  0
 16 15  1  0
 16 10  1  0
  3 10  1  0
  3  4  1  0
  9  8  1  0
 15 13  1  0
 10 11  1  0
  8  5  1  0
  5  4  1  0
  5  6  1  0
 13 14  2  0
 13 12  1  0
 11 12  2  0
  6  7  1  0
 26 20  1  0
 27  7  1  6
 24 27  2  0
 20 19  1  0
 27 22  1  0
 27 25  2  0
 22 18  1  0
 18 19  1  0
 18 23  2  0
 19 21  1  0
  1 28  1  0
  2 29  1  1
  3 30  1  6
  5 31  1  6
  6 32  1  0
  6 33  1  0
  8 34  1  1
  9 35  1  0
 11 36  1  0
 12 37  1  0
 15 38  1  0
 19 39  1  1
 20 40  1  0
 20 41  1  0
 21 42  1  0
 21 43  1  0
 22 44  1  0
 26 45  1  0
M  END
