
     RDKit          3D

 28 28  0  0  0  0  0  0  0  0999 V2000
    2.4227   -2.2460    0.7839 F   0  0  0  0  0  0  0  0  0  0  0  0
    2.6209   -1.0205    0.2834 C   0  0  0  0  0  0  0  0  0  0  0  0
    3.8850   -0.6709   -0.1453 C   0  0  0  0  0  0  0  0  0  0  0  0
    4.0728    0.5998   -0.6717 C   0  0  0  0  0  0  0  0  0  0  0  0
    3.0168    1.4933   -0.7698 C   0  0  0  0  0  0  0  0  0  0  0  0
    1.7711    1.0874   -0.3314 C   0  0  0  0  0  0  0  0  0  0  0  0
    0.7492    1.9506   -0.4110 F   0  0  0  0  0  0  0  0  0  0  0  0
    1.5294   -0.1693    0.2005 C   0  0  0  0  0  0  0  0  0  0  0  0
    0.1881   -0.5770    0.7528 C   0  0  0  0  0  0  0  0  0  0  0  0
    0.0644   -0.7872    1.9544 O   0  0  0  0  0  0  0  0  0  0  0  0
   -0.7627   -0.6958   -0.1624 N   0  0  0  0  0  0  0  0  0  0  0  0
   -2.1893   -0.9053    0.0900 C   0  0  2  0  0  0  0  0  0  0  0  0
   -2.6896   -1.9901   -0.8570 C   0  0  0  0  0  0  0  0  0  0  0  0
   -2.9989    0.5382   -0.0521 B   0  0  1  0  0  0  0  0  0  0  0  0
   -2.7662    1.1649   -1.3655 O   0  0  0  0  0  0  0  0  0  0  0  0
   -4.4568    0.3277   -0.0049 O   0  0  0  0  0  0  0  0  0  0  0  0
   -2.5050    1.3809    1.0527 O   0  0  0  0  0  0  0  0  0  0  0  0
    4.7027   -1.3743   -0.0685 H   0  0  0  0  0  0  0  0  0  0  0  0
    5.0556    0.8973   -1.0098 H   0  0  0  0  0  0  0  0  0  0  0  0
    3.1568    2.4863   -1.1750 H   0  0  0  0  0  0  0  0  0  0  0  0
   -0.5122   -0.4834   -1.1158 H   0  0  0  0  0  0  0  0  0  0  0  0
   -2.2643   -1.2851    1.1134 H   0  0  0  0  0  0  0  0  0  0  0  0
   -2.6312   -1.6626   -1.8985 H   0  0  0  0  0  0  0  0  0  0  0  0
   -2.1216   -2.9207   -0.7685 H   0  0  0  0  0  0  0  0  0  0  0  0
   -3.7355   -2.2216   -0.6536 H   0  0  0  0  0  0  0  0  0  0  0  0
   -1.8791    1.5304   -1.3812 H   0  0  0  0  0  0  0  0  0  0  0  0
   -4.6621   -0.3019    0.6898 H   0  0  0  0  0  0  0  0  0  0  0  0
   -2.8753    2.2633    0.9583 H   0  0  0  0  0  0  0  0  0  0  0  0
  1  2  1  0
  2  3  2  0
  2  8  1  0
  3  4  1  0
  4  5  2  0
  5  6  1  0
  6  7  1  0
  6  8  2  0
  8  9  1  0
  9 10  2  0
  9 11  1  0
 11 12  1  0
 12 13  1  0
 12 14  1  0
 14 15  1  6
 14 16  1  0
 14 17  1  0
  3 18  1  0
  4 19  1  0
  5 20  1  0
 11 21  1  0
 12 22  1  1
 13 23  1  0
 13 24  1  0
 13 25  1  0
 15 26  1  0
 16 27  1  0
 17 28  1  0
M  CHG  1  14  -1
M  END
