
     RDKit          3D

 70 72  0  0  0  0  0  0  0  0999 V2000
   -3.6104    1.2145   -0.4228 C   0  0  2  0  0  0  0  0  0  0  0  0
   -2.9211    0.6075    0.6403 O   0  0  0  0  0  0  0  0  0  0  0  0
   -4.4701    2.3427    0.1494 C   0  0  2  0  0  0  0  0  0  0  0  0
   -3.6353    3.2688    0.8932 N   0  0  0  0  0  0  0  0  0  0  0  0
   -5.6789    1.7856    0.9026 C   0  0  0  0  0  0  0  0  0  0  0  0
   -6.4329    0.7795    0.0372 C   0  0  0  0  0  0  0  0  0  0  0  0
   -5.4636   -0.2912   -0.4301 C   0  0  2  0  0  0  0  0  0  0  0  0
   -4.3831    0.2980   -1.1419 O   0  0  0  0  0  0  0  0  0  0  0  0
   -6.0893   -1.3502   -1.3145 C   0  0  0  0  0  0  0  0  0  0  0  0
   -5.1200   -2.3840   -1.6438 N   0  0  0  0  0  0  0  0  0  0  0  0
    0.5562   -1.8560    0.9258 C   0  0  2  0  0  0  0  0  0  0  0  0
    1.5845   -2.8249    0.5631 N   0  0  0  0  0  0  0  0  0  0  0  0
   -0.8383   -2.4545    1.0605 C   0  0  0  0  0  0  0  0  0  0  0  0
   -1.8858   -1.4044    1.4063 C   0  0  2  0  0  0  0  0  0  0  0  0
   -3.1796   -2.0490    1.5582 N   0  0  0  0  0  0  0  0  0  0  0  0
   -1.9274   -0.3451    0.3042 C   0  0  2  0  0  0  0  0  0  0  0  0
   -0.5511    0.3105    0.1877 C   0  0  2  0  0  0  0  0  0  0  0  0
   -0.5855    1.2720   -0.8398 O   0  0  0  0  0  0  0  0  0  0  0  0
    0.5349   -0.7302   -0.0993 C   0  0  1  0  0  0  0  0  0  0  0  0
    1.7963   -0.0981   -0.0743 O   0  0  0  0  0  0  0  0  0  0  0  0
    2.4767    0.1686   -1.2661 C   0  0  2  0  0  0  0  0  0  0  0  0
    3.8546   -0.4945   -1.1944 C   0  0  2  0  0  0  0  0  0  0  0  0
    3.7335   -1.8770   -1.0215 O   0  0  0  0  0  0  0  0  0  0  0  0
    4.7224    0.1656   -0.1145 C   0  0  1  0  0  0  0  0  0  0  0  0
    6.0467   -0.4326   -0.0985 N   0  0  0  0  0  0  0  0  0  0  0  0
    4.7483    1.6930   -0.3173 C   0  0  1  0  0  0  0  0  0  0  0  0
    5.4763    1.9128   -1.5154 O   0  0  0  0  0  0  0  0  0  0  0  0
    3.3222    2.2214   -0.4654 C   0  0  0  0  0  0  0  0  0  0  0  0
    2.5793    1.5481   -1.4656 O   0  0  0  0  0  0  0  0  0  0  0  0
    5.4110    2.4035    0.8580 C   0  0  0  0  0  0  0  0  0  0  0  0
    6.4960   -0.9132    1.1894 C   0  0  0  0  0  0  0  0  0  0  0  0
   -2.9094    1.6306   -1.1494 H   0  0  0  0  0  0  0  0  0  0  0  0
   -4.8510    2.8830   -0.7252 H   0  0  0  0  0  0  0  0  0  0  0  0
   -4.2019    4.0466    1.2085 H   0  0  0  0  0  0  0  0  0  0  0  0
   -3.2906    2.8166    1.7308 H   0  0  0  0  0  0  0  0  0  0  0  0
   -6.3308    2.6119    1.1980 H   0  0  0  0  0  0  0  0  0  0  0  0
   -5.3482    1.2980    1.8263 H   0  0  0  0  0  0  0  0  0  0  0  0
   -6.8832    1.2806   -0.8265 H   0  0  0  0  0  0  0  0  0  0  0  0
   -7.2468    0.3208    0.6037 H   0  0  0  0  0  0  0  0  0  0  0  0
   -5.0832   -0.8083    0.4577 H   0  0  0  0  0  0  0  0  0  0  0  0
   -6.9729   -1.7240   -0.7779 H   0  0  0  0  0  0  0  0  0  0  0  0
   -6.4602   -0.8924   -2.2378 H   0  0  0  0  0  0  0  0  0  0  0  0
   -4.6624   -2.6964   -0.7946 H   0  0  0  0  0  0  0  0  0  0  0  0
   -5.5968   -3.1896   -2.0264 H   0  0  0  0  0  0  0  0  0  0  0  0
    1.7871   -3.4235    1.3547 H   0  0  0  0  0  0  0  0  0  0  0  0
    1.2308   -3.4379   -0.1639 H   0  0  0  0  0  0  0  0  0  0  0  0
   -1.1230   -2.9490    0.1244 H   0  0  0  0  0  0  0  0  0  0  0  0
   -0.8224   -3.2275    1.8343 H   0  0  0  0  0  0  0  0  0  0  0  0
   -1.5638   -0.9034    2.3348 H   0  0  0  0  0  0  0  0  0  0  0  0
   -3.0977   -2.7795    2.2556 H   0  0  0  0  0  0  0  0  0  0  0  0
   -3.8409   -1.3863    1.9417 H   0  0  0  0  0  0  0  0  0  0  0  0
   -2.1851   -0.8429   -0.6404 H   0  0  0  0  0  0  0  0  0  0  0  0
   -0.3191    0.7832    1.1551 H   0  0  0  0  0  0  0  0  0  0  0  0
    0.2456    1.7601   -0.8393 H   0  0  0  0  0  0  0  0  0  0  0  0
    0.3421   -1.1608   -1.0946 H   0  0  0  0  0  0  0  0  0  0  0  0
    1.9184   -0.2214   -2.1261 H   0  0  0  0  0  0  0  0  0  0  0  0
    4.3404   -0.3400   -2.1639 H   0  0  0  0  0  0  0  0  0  0  0  0
    3.0657   -2.0897   -0.3286 H   0  0  0  0  0  0  0  0  0  0  0  0
    4.2482   -0.0213    0.8563 H   0  0  0  0  0  0  0  0  0  0  0  0
    6.7260    0.1978   -0.5009 H   0  0  0  0  0  0  0  0  0  0  0  0
    5.5919    2.8612   -1.6362 H   0  0  0  0  0  0  0  0  0  0  0  0
    3.3518    3.2723   -0.7651 H   0  0  0  0  0  0  0  0  0  0  0  0
    2.8062    2.1832    0.5007 H   0  0  0  0  0  0  0  0  0  0  0  0
    4.8971    2.1831    1.7942 H   0  0  0  0  0  0  0  0  0  0  0  0
    6.4526    2.1004    0.9644 H   0  0  0  0  0  0  0  0  0  0  0  0
    5.3948    3.4876    0.7188 H   0  0  0  0  0  0  0  0  0  0  0  0
    7.5102   -1.3041    1.0968 H   0  0  0  0  0  0  0  0  0  0  0  0
    6.5048   -0.1630    1.9922 H   0  0  0  0  0  0  0  0  0  0  0  0
    5.8632   -1.7381    1.5216 H   0  0  0  0  0  0  0  0  0  0  0  0
    0.8440   -1.4245    1.8905 H   0  0  0  0  0  0  0  0  0  0  0  0
  1  2  1  0
  1  3  1  0
  1  8  1  0
  1 32  1  6
  2 16  1  0
  3  4  1  0
  3  5  1  0
  3 33  1  6
  4 34  1  0
  4 35  1  0
  5  6  1  0
  5 36  1  0
  5 37  1  0
  6  7  1  0
  6 38  1  0
  6 39  1  0
  7  8  1  0
  7  9  1  0
  7 40  1  1
  9 10  1  0
  9 41  1  0
  9 42  1  0
 10 43  1  0
 10 44  1  0
 11 12  1  0
 11 13  1  0
 11 19  1  0
 11 70  1  1
 12 45  1  0
 12 46  1  0
 13 14  1  0
 13 47  1  0
 13 48  1  0
 14 15  1  0
 14 16  1  0
 14 49  1  1
 15 50  1  0
 15 51  1  0
 16 17  1  0
 16 52  1  6
 17 18  1  0
 17 19  1  0
 17 53  1  1
 18 54  1  0
 19 20  1  0
 19 55  1  6
 20 21  1  0
 21 22  1  0
 21 29  1  0
 21 56  1  6
 22 23  1  0
 22 24  1  0
 22 57  1  6
 23 58  1  0
 24 25  1  0
 24 26  1  0
 24 59  1  1
 25 31  1  0
 25 60  1  0
 26 27  1  6
 26 28  1  0
 26 30  1  0
 27 61  1  0
 28 29  1  0
 28 62  1  0
 28 63  1  0
 30 64  1  0
 30 65  1  0
 30 66  1  0
 31 67  1  0
 31 68  1  0
 31 69  1  0
M  END
