
     RDKit          3D

 42 44  0  0  0  0  0  0  0  0999 V2000
   -0.6751    0.9329    1.0578 O   0  0  0  0  0  0  0  0  0  0  0  0
   -6.0839    1.9295   -0.9158 Cl  0  0  0  0  0  0  0  0  0  0  0  0
    1.6809   -0.1348    1.6469 O   0  0  0  0  0  0  0  0  0  0  0  0
   -3.0499   -1.9692    1.3937 O   0  0  0  0  0  0  0  0  0  0  0  0
    2.6098    0.7961   -0.2173 N   0  0  0  0  0  0  0  0  0  0  0  0
   -2.2974    2.4949    0.2070 C   0  0  0  0  0  0  0  0  0  0  0  0
   -2.7672    0.1341    0.3885 C   0  0  0  0  0  0  0  0  0  0  0  0
   -4.0724    0.3650   -0.0307 C   0  0  0  0  0  0  0  0  0  0  0  0
   -1.0794   -1.7694    0.1155 C   0  0  0  0  0  0  0  0  0  0  0  0
   -2.3447   -1.2644    0.7023 C   0  0  0  0  0  0  0  0  0  0  0  0
   -1.8874    1.2082    0.5380 C   0  0  0  0  0  0  0  0  0  0  0  0
   -0.4147   -2.8254    0.7358 C   0  0  0  0  0  0  0  0  0  0  0  0
   -4.4676    1.6491   -0.3594 C   0  0  0  0  0  0  0  0  0  0  0  0
    4.1752   -1.0125    0.3743 C   0  0  0  0  0  0  0  0  0  0  0  0
    0.4499    1.5585    0.4847 C   0  0  0  0  0  0  0  0  0  0  0  0
    3.8632    0.1769   -0.2841 C   0  0  0  0  0  0  0  0  0  0  0  0
    0.6182   -1.7250   -1.5962 C   0  0  0  0  0  0  0  0  0  0  0  0
    1.6352    0.6296    0.7081 C   0  0  0  0  0  0  0  0  0  0  0  0
   -3.5864    2.7145   -0.2504 C   0  0  0  0  0  0  0  0  0  0  0  0
    5.4428   -1.5617    0.2311 C   0  0  0  0  0  0  0  0  0  0  0  0
    4.8299    0.7860   -1.0869 C   0  0  0  0  0  0  0  0  0  0  0  0
   -0.5592   -1.2288   -1.0595 C   0  0  0  0  0  0  0  0  0  0  0  0
    6.0874    0.2232   -1.2256 C   0  0  0  0  0  0  0  0  0  0  0  0
    1.2896   -2.7595   -0.9580 C   0  0  0  0  0  0  0  0  0  0  0  0
    6.4059   -0.9542   -0.5611 C   0  0  0  0  0  0  0  0  0  0  0  0
    0.7700   -3.3100    0.2069 C   0  0  0  0  0  0  0  0  0  0  0  0
    2.4485    1.5022   -0.9199 H   0  0  0  0  0  0  0  0  0  0  0  0
   -1.6253    3.3361    0.3183 H   0  0  0  0  0  0  0  0  0  0  0  0
   -4.7615   -0.4632   -0.1315 H   0  0  0  0  0  0  0  0  0  0  0  0
   -0.8117   -3.2543    1.6468 H   0  0  0  0  0  0  0  0  0  0  0  0
    3.4428   -1.5184    0.9812 H   0  0  0  0  0  0  0  0  0  0  0  0
    0.2963    1.7506   -0.5820 H   0  0  0  0  0  0  0  0  0  0  0  0
    0.6622    2.5203    0.9666 H   0  0  0  0  0  0  0  0  0  0  0  0
    1.0127   -1.3012   -2.5099 H   0  0  0  0  0  0  0  0  0  0  0  0
   -3.9018    3.7166   -0.5064 H   0  0  0  0  0  0  0  0  0  0  0  0
    5.6717   -2.4861    0.7457 H   0  0  0  0  0  0  0  0  0  0  0  0
    4.5940    1.7092   -1.6035 H   0  0  0  0  0  0  0  0  0  0  0  0
   -1.0805   -0.4295   -1.5724 H   0  0  0  0  0  0  0  0  0  0  0  0
    6.8201    0.7117   -1.8544 H   0  0  0  0  0  0  0  0  0  0  0  0
    2.2175   -3.1358   -1.3685 H   0  0  0  0  0  0  0  0  0  0  0  0
    7.3896   -1.3926   -0.6633 H   0  0  0  0  0  0  0  0  0  0  0  0
    1.2923   -4.1165    0.7045 H   0  0  0  0  0  0  0  0  0  0  0  0
  1 11  1  0
  1 15  1  0
  2 13  1  0
  3 18  2  0
  4 10  2  0
  5 16  1  0
  5 18  1  0
  6 11  2  0
  6 19  1  0
  7  8  2  0
  7 10  1  0
  7 11  1  0
  8 13  1  0
  9 10  1  0
  9 12  2  0
  9 22  1  0
 12 26  1  0
 13 19  2  0
 14 16  2  0
 14 20  1  0
 15 18  1  0
 16 21  1  0
 17 22  2  0
 17 24  1  0
 20 25  2  0
 21 23  2  0
 23 25  1  0
 24 26  2  0
  5 27  1  0
  6 28  1  0
  8 29  1  0
 12 30  1  0
 14 31  1  0
 15 32  1  0
 15 33  1  0
 17 34  1  0
 19 35  1  0
 20 36  1  0
 21 37  1  0
 22 38  1  0
 23 39  1  0
 24 40  1  0
 25 41  1  0
 26 42  1  0
M  END
