
     RDKit          3D

161162  0  0  0  0  0  0  0  0999 V2000
   -6.4725    7.3798   -6.8981 C   0  0  2  0  0  0  0  0  0  0  0  0
   -7.5375    8.2877   -6.2968 C   0  0  1  0  0  0  0  0  0  0  0  0
   -8.7092    8.3391   -7.2721 C   0  0  2  0  0  0  0  0  0  0  0  0
   -8.2734    8.7904   -8.6630 C   0  0  2  0  0  0  0  0  0  0  0  0
   -7.1450    7.8675   -9.1082 C   0  0  1  0  0  0  0  0  0  0  0  0
   -6.5473    8.2433  -10.4528 C   0  0  0  0  0  0  0  0  0  0  0  0
   -5.3666    7.3697   -6.0834 O   0  0  0  0  0  0  0  0  0  0  0  0
   -7.9274    7.7581   -5.0584 O   0  0  0  0  0  0  0  0  0  0  0  0
   -7.8204   10.1205   -8.6677 O   0  0  0  0  0  0  0  0  0  0  0  0
   -6.0923    7.8630   -8.1606 O   0  0  0  0  0  0  0  0  0  0  0  0
   -5.6246    7.2842  -10.9117 O   0  0  0  0  0  0  0  0  0  0  0  0
  -12.7156    8.7677  -10.3770 O   0  0  0  0  0  0  0  0  0  0  0  0
  -10.9913    8.8004   -6.7221 C   0  0  2  0  0  0  0  0  0  0  0  0
  -11.6676    9.3454   -5.4633 C   0  0  1  0  0  0  0  0  0  0  0  0
  -13.1551    9.0324   -5.5224 C   0  0  2  0  0  0  0  0  0  0  0  0
  -13.7497    9.5008   -6.8498 C   0  0  1  0  0  0  0  0  0  0  0  0
  -12.9451    8.9186   -8.0174 C   0  0  1  0  0  0  0  0  0  0  0  0
  -13.4350    9.4175   -9.3582 C   0  0  0  0  0  0  0  0  0  0  0  0
   -9.6744    9.2060   -6.7096 O   0  0  0  0  0  0  0  0  0  0  0  0
  -11.0445    8.8291   -4.3098 O   0  0  0  0  0  0  0  0  0  0  0  0
  -13.7830    9.6379   -4.4252 O   0  0  0  0  0  0  0  0  0  0  0  0
  -15.0915    9.0709   -6.8691 O   0  0  0  0  0  0  0  0  0  0  0  0
  -11.5908    9.3016   -7.8805 O   0  0  0  0  0  0  0  0  0  0  0  0
   -4.5270    6.2417   -6.1958 C   0  0  0  0  0  0  0  0  0  0  0  0
   -3.9067    5.9523   -4.8376 C   0  0  2  0  0  0  0  0  0  0  0  0
   -4.9068    5.9218   -3.8184 O   0  0  0  0  0  0  0  0  0  0  0  0
   -5.7532    4.8974   -3.7530 C   0  0  0  0  0  0  0  0  0  0  0  0
   -5.6437    3.9008   -4.4221 O   0  0  0  0  0  0  0  0  0  0  0  0
   -2.9184    7.0211   -4.4261 C   0  0  0  0  0  0  0  0  0  0  0  0
   -2.2480    6.5447   -3.2605 O   0  0  0  0  0  0  0  0  0  0  0  0
   -1.3235    7.3258   -2.7088 C   0  0  0  0  0  0  0  0  0  0  0  0
   -1.0840    8.4410   -3.0980 O   0  0  0  0  0  0  0  0  0  0  0  0
   -6.8589    5.1722   -2.7726 C   0  0  0  0  0  0  0  0  0  0  0  0
   -7.7958    3.9977   -2.5511 C   0  0  0  0  0  0  0  0  0  0  0  0
   -8.9668    4.3731   -1.6515 C   0  0  0  0  0  0  0  0  0  0  0  0
   -9.9982    3.2619   -1.5089 C   0  0  0  0  0  0  0  0  0  0  0  0
  -11.1603    3.6490   -0.6038 C   0  0  0  0  0  0  0  0  0  0  0  0
  -12.2742    2.6117   -0.5517 C   0  0  0  0  0  0  0  0  0  0  0  0
  -13.3907    3.0097    0.4054 C   0  0  0  0  0  0  0  0  0  0  0  0
  -14.5849    2.0544    0.4053 C   0  0  0  0  0  0  0  0  0  0  0  0
  -15.2958    2.0374   -0.9116 C   0  0  0  0  0  0  0  0  0  0  0  0
  -15.6572    0.9543   -1.5927 C   0  0  0  0  0  0  0  0  0  0  0  0
  -16.3574    0.9767   -2.9150 C   0  0  0  0  0  0  0  0  0  0  0  0
   -0.6119    6.6220   -1.5870 C   0  0  0  0  0  0  0  0  0  0  0  0
    0.2436    7.5349   -0.7223 C   0  0  0  0  0  0  0  0  0  0  0  0
    1.0333    6.7396    0.3082 C   0  0  0  0  0  0  0  0  0  0  0  0
    1.8709    7.6039    1.2423 C   0  0  0  0  0  0  0  0  0  0  0  0
    2.6342    6.7630    2.2562 C   0  0  0  0  0  0  0  0  0  0  0  0
    3.4085    7.5688    3.2894 C   0  0  0  0  0  0  0  0  0  0  0  0
    4.0816    6.6798    4.3421 C   0  0  0  0  0  0  0  0  0  0  0  0
    3.0787    5.9195    5.1534 C   0  0  0  0  0  0  0  0  0  0  0  0
    2.9217    4.5990    5.1454 C   0  0  0  0  0  0  0  0  0  0  0  0
    1.8731    3.8436    5.9009 C   0  0  0  0  0  0  0  0  0  0  0  0
    0.9613    3.0180    4.9867 C   0  0  0  0  0  0  0  0  0  0  0  0
    0.1211    3.8565    4.0311 C   0  0  0  0  0  0  0  0  0  0  0  0
   -0.7936    3.0169    3.1466 C   0  0  0  0  0  0  0  0  0  0  0  0
   -1.6373    3.8498    2.1883 C   0  0  0  0  0  0  0  0  0  0  0  0
  -15.6688    0.1005   -3.9657 C   0  0  0  0  0  0  0  0  0  0  0  0
  -14.1780    0.3699   -4.1390 C   0  0  0  0  0  0  0  0  0  0  0  0
  -13.8236    1.8024   -4.5168 C   0  0  0  0  0  0  0  0  0  0  0  0
  -12.3389    1.9634   -4.8151 C   0  0  0  0  0  0  0  0  0  0  0  0
  -11.9118    3.3977   -5.0982 C   0  0  0  0  0  0  0  0  0  0  0  0
  -10.4462    3.5087   -5.4997 C   0  0  0  0  0  0  0  0  0  0  0  0
   -9.9732    4.9451   -5.6550 C   0  0  0  0  0  0  0  0  0  0  0  0
   -2.5520    3.0101    1.3044 C   0  0  0  0  0  0  0  0  0  0  0  0
   -3.4126    3.8443    0.3630 C   0  0  0  0  0  0  0  0  0  0  0  0
   -4.3322    3.0011   -0.5087 C   0  0  0  0  0  0  0  0  0  0  0  0
   -6.8908    6.3592   -7.0046 H   0  0  0  0  0  0  0  0  0  0  0  0
   -7.1133    9.2969   -6.1879 H   0  0  0  0  0  0  0  0  0  0  0  0
   -9.1227    7.3251   -7.3688 H   0  0  0  0  0  0  0  0  0  0  0  0
   -9.1163    8.6517   -9.3558 H   0  0  0  0  0  0  0  0  0  0  0  0
   -7.5741    6.8560   -9.1958 H   0  0  0  0  0  0  0  0  0  0  0  0
   -6.0990    9.2416  -10.3968 H   0  0  0  0  0  0  0  0  0  0  0  0
   -7.3533    8.2890  -11.1875 H   0  0  0  0  0  0  0  0  0  0  0  0
   -8.7110    8.2348   -4.7569 H   0  0  0  0  0  0  0  0  0  0  0  0
   -8.5402   10.6829   -8.3624 H   0  0  0  0  0  0  0  0  0  0  0  0
   -4.8747    7.2796  -10.3091 H   0  0  0  0  0  0  0  0  0  0  0  0
  -13.0702    9.0578  -11.2222 H   0  0  0  0  0  0  0  0  0  0  0  0
  -11.0623    7.6954   -6.7145 H   0  0  0  0  0  0  0  0  0  0  0  0
  -11.5298   10.4324   -5.4393 H   0  0  0  0  0  0  0  0  0  0  0  0
  -13.2747    7.9331   -5.4810 H   0  0  0  0  0  0  0  0  0  0  0  0
  -13.6822   10.5972   -6.8922 H   0  0  0  0  0  0  0  0  0  0  0  0
  -13.0337    7.8194   -7.9935 H   0  0  0  0  0  0  0  0  0  0  0  0
  -13.3113   10.5087   -9.3998 H   0  0  0  0  0  0  0  0  0  0  0  0
  -14.5095    9.2123   -9.4299 H   0  0  0  0  0  0  0  0  0  0  0  0
  -11.4280    7.9728   -4.0920 H   0  0  0  0  0  0  0  0  0  0  0  0
  -14.7231    9.4323   -4.4731 H   0  0  0  0  0  0  0  0  0  0  0  0
  -15.6203    9.7051   -7.3607 H   0  0  0  0  0  0  0  0  0  0  0  0
   -5.0910    5.3676   -6.5352 H   0  0  0  0  0  0  0  0  0  0  0  0
   -3.7245    6.4055   -6.9235 H   0  0  0  0  0  0  0  0  0  0  0  0
   -3.3872    4.9913   -4.9067 H   0  0  0  0  0  0  0  0  0  0  0  0
   -3.4189    7.9713   -4.2278 H   0  0  0  0  0  0  0  0  0  0  0  0
   -2.1994    7.1743   -5.2345 H   0  0  0  0  0  0  0  0  0  0  0  0
   -7.4134    6.0271   -3.1730 H   0  0  0  0  0  0  0  0  0  0  0  0
   -6.4289    5.5199   -1.8285 H   0  0  0  0  0  0  0  0  0  0  0  0
   -8.1760    3.6506   -3.5149 H   0  0  0  0  0  0  0  0  0  0  0  0
   -7.2516    3.1555   -2.1141 H   0  0  0  0  0  0  0  0  0  0  0  0
   -9.4601    5.2643   -2.0558 H   0  0  0  0  0  0  0  0  0  0  0  0
   -8.5939    4.6579   -0.6618 H   0  0  0  0  0  0  0  0  0  0  0  0
   -9.5179    2.3566   -1.1224 H   0  0  0  0  0  0  0  0  0  0  0  0
  -10.3822    3.0011   -2.5012 H   0  0  0  0  0  0  0  0  0  0  0  0
  -11.5799    4.6022   -0.9456 H   0  0  0  0  0  0  0  0  0  0  0  0
  -10.7828    3.8330    0.4083 H   0  0  0  0  0  0  0  0  0  0  0  0
  -11.8668    1.6405   -0.2485 H   0  0  0  0  0  0  0  0  0  0  0  0
  -12.6813    2.4652   -1.5586 H   0  0  0  0  0  0  0  0  0  0  0  0
  -12.9864    3.0814    1.4196 H   0  0  0  0  0  0  0  0  0  0  0  0
  -13.7459    4.0147    0.1508 H   0  0  0  0  0  0  0  0  0  0  0  0
  -14.2642    1.0430    0.6730 H   0  0  0  0  0  0  0  0  0  0  0  0
  -15.2812    2.3752    1.1881 H   0  0  0  0  0  0  0  0  0  0  0  0
  -15.5290    3.0152   -1.3330 H   0  0  0  0  0  0  0  0  0  0  0  0
  -15.4273   -0.0284   -1.1824 H   0  0  0  0  0  0  0  0  0  0  0  0
  -16.4371    2.0090   -3.2666 H   0  0  0  0  0  0  0  0  0  0  0  0
  -17.3857    0.6183   -2.7956 H   0  0  0  0  0  0  0  0  0  0  0  0
    0.0116    5.8451   -2.0442 H   0  0  0  0  0  0  0  0  0  0  0  0
   -1.3451    6.0855   -0.9781 H   0  0  0  0  0  0  0  0  0  0  0  0
   -0.3926    8.2672   -0.2169 H   0  0  0  0  0  0  0  0  0  0  0  0
    0.9346    8.1022   -1.3504 H   0  0  0  0  0  0  0  0  0  0  0  0
    1.6851    6.0267   -0.2091 H   0  0  0  0  0  0  0  0  0  0  0  0
    0.3457    6.1359    0.9117 H   0  0  0  0  0  0  0  0  0  0  0  0
    2.5689    8.2133    0.6582 H   0  0  0  0  0  0  0  0  0  0  0  0
    1.2156    8.3072    1.7680 H   0  0  0  0  0  0  0  0  0  0  0  0
    1.9271    6.1112    2.7774 H   0  0  0  0  0  0  0  0  0  0  0  0
    3.3224    6.0923    1.7289 H   0  0  0  0  0  0  0  0  0  0  0  0
    4.1676    8.1806    2.7927 H   0  0  0  0  0  0  0  0  0  0  0  0
    2.7307    8.2685    3.7902 H   0  0  0  0  0  0  0  0  0  0  0  0
    4.6887    7.3088    5.0004 H   0  0  0  0  0  0  0  0  0  0  0  0
    4.7685    5.9850    3.8490 H   0  0  0  0  0  0  0  0  0  0  0  0
    2.4062    6.5235    5.7610 H   0  0  0  0  0  0  0  0  0  0  0  0
    3.5849    3.9972    4.5248 H   0  0  0  0  0  0  0  0  0  0  0  0
    1.2699    4.5365    6.4956 H   0  0  0  0  0  0  0  0  0  0  0  0
    2.3561    3.1632    6.6106 H   0  0  0  0  0  0  0  0  0  0  0  0
    1.5706    2.3108    4.4130 H   0  0  0  0  0  0  0  0  0  0  0  0
    0.2985    2.4098    5.6097 H   0  0  0  0  0  0  0  0  0  0  0  0
   -0.4807    4.5691    4.6072 H   0  0  0  0  0  0  0  0  0  0  0  0
    0.7777    4.4604    3.3974 H   0  0  0  0  0  0  0  0  0  0  0  0
   -1.4554    2.4126    3.7769 H   0  0  0  0  0  0  0  0  0  0  0  0
   -0.1885    2.3055    2.5730 H   0  0  0  0  0  0  0  0  0  0  0  0
   -2.2410    4.5626    2.7615 H   0  0  0  0  0  0  0  0  0  0  0  0
   -0.9778    4.4533    1.5538 H   0  0  0  0  0  0  0  0  0  0  0  0
  -15.8048   -0.9503   -3.6917 H   0  0  0  0  0  0  0  0  0  0  0  0
  -16.1817    0.2325   -4.9231 H   0  0  0  0  0  0  0  0  0  0  0  0
  -13.6522    0.1126   -3.2134 H   0  0  0  0  0  0  0  0  0  0  0  0
  -13.7878   -0.3088   -4.9047 H   0  0  0  0  0  0  0  0  0  0  0  0
  -14.1065    2.4771   -3.7019 H   0  0  0  0  0  0  0  0  0  0  0  0
  -14.4089    2.1149   -5.3892 H   0  0  0  0  0  0  0  0  0  0  0  0
  -12.0730    1.3292   -5.6683 H   0  0  0  0  0  0  0  0  0  0  0  0
  -11.7584    1.5816   -3.9666 H   0  0  0  0  0  0  0  0  0  0  0  0
  -12.5402    3.8236   -5.8884 H   0  0  0  0  0  0  0  0  0  0  0  0
  -12.0892    4.0114   -4.2071 H   0  0  0  0  0  0  0  0  0  0  0  0
  -10.2818    2.9652   -6.4349 H   0  0  0  0  0  0  0  0  0  0  0  0
   -9.8291    3.0030   -4.7498 H   0  0  0  0  0  0  0  0  0  0  0  0
  -10.0989    5.5102   -4.7287 H   0  0  0  0  0  0  0  0  0  0  0  0
  -10.5385    5.4589   -6.4360 H   0  0  0  0  0  0  0  0  0  0  0  0
   -8.9167    5.0012   -5.9203 H   0  0  0  0  0  0  0  0  0  0  0  0
   -1.9482    2.3074    0.7191 H   0  0  0  0  0  0  0  0  0  0  0  0
   -3.2031    2.3972    1.9374 H   0  0  0  0  0  0  0  0  0  0  0  0
   -2.7666    4.4530   -0.2780 H   0  0  0  0  0  0  0  0  0  0  0  0
   -4.0095    4.5499    0.9492 H   0  0  0  0  0  0  0  0  0  0  0  0
   -5.0044    2.3903    0.0964 H   0  0  0  0  0  0  0  0  0  0  0  0
   -4.9519    3.6282   -1.1495 H   0  0  0  0  0  0  0  0  0  0  0  0
   -3.7652    2.3302   -1.1564 H   0  0  0  0  0  0  0  0  0  0  0  0
  1  2  1  0
  1  7  1  0
  1 10  1  0
  1 68  1  6
  2  3  1  0
  2  8  1  0
  2 69  1  1
  3  4  1  0
  3 19  1  0
  3 70  1  6
  4  5  1  0
  4  9  1  0
  4 71  1  6
  5  6  1  0
  5 10  1  0
  5 72  1  6
  6 11  1  0
  6 73  1  0
  6 74  1  0
  7 24  1  0
  8 75  1  0
  9 76  1  0
 11 77  1  0
 12 18  1  0
 12 78  1  0
 13 14  1  0
 13 19  1  0
 13 23  1  0
 13 79  1  6
 14 15  1  0
 14 20  1  0
 14 80  1  1
 15 16  1  0
 15 21  1  0
 15 81  1  1
 16 17  1  0
 16 22  1  0
 16 82  1  1
 17 18  1  0
 17 23  1  0
 17 83  1  6
 18 84  1  0
 18 85  1  0
 20 86  1  0
 21 87  1  0
 22 88  1  0
 24 25  1  0
 24 89  1  0
 24 90  1  0
 25 26  1  0
 25 29  1  0
 25 91  1  6
 26 27  1  0
 27 28  2  0
 27 33  1  0
 29 30  1  0
 29 92  1  0
 29 93  1  0
 30 31  1  0
 31 32  2  0
 31 44  1  0
 33 34  1  0
 33 94  1  0
 33 95  1  0
 34 35  1  0
 34 96  1  0
 34 97  1  0
 35 36  1  0
 35 98  1  0
 35 99  1  0
 36 37  1  0
 36100  1  0
 36101  1  0
 37 38  1  0
 37102  1  0
 37103  1  0
 38 39  1  0
 38104  1  0
 38105  1  0
 39 40  1  0
 39106  1  0
 39107  1  0
 40 41  1  0
 40108  1  0
 40109  1  0
 41 42  2  0
 41110  1  0
 42 43  1  0
 42111  1  0
 43 58  1  0
 43112  1  0
 43113  1  0
 44 45  1  0
 44114  1  0
 44115  1  0
 45 46  1  0
 45116  1  0
 45117  1  0
 46 47  1  0
 46118  1  0
 46119  1  0
 47 48  1  0
 47120  1  0
 47121  1  0
 48 49  1  0
 48122  1  0
 48123  1  0
 49 50  1  0
 49124  1  0
 49125  1  0
 50 51  1  0
 50126  1  0
 50127  1  0
 51 52  2  0
 51128  1  0
 52 53  1  0
 52129  1  0
 53 54  1  0
 53130  1  0
 53131  1  0
 54 55  1  0
 54132  1  0
 54133  1  0
 55 56  1  0
 55134  1  0
 55135  1  0
 56 57  1  0
 56136  1  0
 56137  1  0
 57 65  1  0
 57138  1  0
 57139  1  0
 58 59  1  0
 58140  1  0
 58141  1  0
 59 60  1  0
 59142  1  0
 59143  1  0
 60 61  1  0
 60144  1  0
 60145  1  0
 61 62  1  0
 61146  1  0
 61147  1  0
 62 63  1  0
 62148  1  0
 62149  1  0
 63 64  1  0
 63150  1  0
 63151  1  0
 64152  1  0
 64153  1  0
 64154  1  0
 65 66  1  0
 65155  1  0
 65156  1  0
 66 67  1  0
 66157  1  0
 66158  1  0
 67159  1  0
 67160  1  0
 67161  1  0
M  END
