
     RDKit          3D

 50 51  0  0  0  0  0  0  0  0999 V2000
   -0.0228   -0.1363   -0.7717 C   0  0  0  0  0  0  0  0  0  0  0  0
   -0.7167    0.9985   -0.3407 C   0  0  0  0  0  0  0  0  0  0  0  0
   -0.7382   -1.1134   -1.4583 C   0  0  0  0  0  0  0  0  0  0  0  0
    1.2863   -0.1907   -0.4901 O   0  0  0  0  0  0  0  0  0  0  0  0
   -2.0694    1.1491   -0.5778 C   0  0  0  0  0  0  0  0  0  0  0  0
    0.1495    2.2365    0.5028 Cl  0  0  0  0  0  0  0  0  0  0  0  0
   -2.0981   -0.9583   -1.6928 C   0  0  0  0  0  0  0  0  0  0  0  0
    2.0300   -1.3252   -0.9275 C   0  0  0  0  0  0  0  0  0  0  0  0
   -2.7829    0.1683   -1.2607 C   0  0  0  0  0  0  0  0  0  0  0  0
    3.4456   -1.1230   -0.4858 C   0  0  0  0  0  0  0  0  0  0  0  0
   -4.2589    0.3246   -1.4807 C   0  0  0  0  0  0  0  0  0  0  0  0
    3.9126   -1.6938    0.6911 C   0  0  0  0  0  0  0  0  0  0  0  0
    4.3119   -0.3227   -1.2267 C   0  0  0  0  0  0  0  0  0  0  0  0
   -5.0630   -0.3348   -0.3703 C   0  0  0  0  0  0  0  0  0  0  0  0
    5.2161   -1.4722    1.1168 C   0  0  0  0  0  0  0  0  0  0  0  0
    5.6105   -0.1011   -0.7988 C   0  0  0  0  0  0  0  0  0  0  0  0
   -6.1069    0.3790    0.0760 N   0  0  0  0  0  0  0  0  0  0  0  0
   -4.7684   -1.4399    0.0607 O   0  0  0  0  0  0  0  0  0  0  0  0
    6.0860   -0.6724    0.3827 C   0  0  0  0  0  0  0  0  0  0  0  0
   -7.0488   -0.1069    1.0590 C   0  0  0  0  0  0  0  0  0  0  0  0
    7.4981   -0.4261    0.8579 C   0  0  1  0  0  0  0  0  0  0  0  0
   -8.2007   -0.8869    0.4349 C   0  0  0  0  0  0  0  0  0  0  0  0
    8.5323   -0.8915   -0.1670 C   0  0  0  0  0  0  0  0  0  0  0  0
    7.7098    1.0446    1.2167 C   0  0  0  0  0  0  0  0  0  0  0  0
   -9.1201   -1.3164    1.4756 N   0  0  0  0  0  0  0  0  0  0  0  0
   -0.2463   -2.0056   -1.8205 H   0  0  0  0  0  0  0  0  0  0  0  0
   -2.5711    2.0423   -0.2272 H   0  0  0  0  0  0  0  0  0  0  0  0
   -2.6241   -1.7352   -2.2327 H   0  0  0  0  0  0  0  0  0  0  0  0
    1.9700   -1.4143   -2.0168 H   0  0  0  0  0  0  0  0  0  0  0  0
    1.6166   -2.2406   -0.4920 H   0  0  0  0  0  0  0  0  0  0  0  0
   -4.5213    1.3788   -1.5853 H   0  0  0  0  0  0  0  0  0  0  0  0
   -4.5531   -0.1623   -2.4147 H   0  0  0  0  0  0  0  0  0  0  0  0
    3.2564   -2.3222    1.2817 H   0  0  0  0  0  0  0  0  0  0  0  0
    3.9708    0.1288   -2.1511 H   0  0  0  0  0  0  0  0  0  0  0  0
    5.5595   -1.9290    2.0377 H   0  0  0  0  0  0  0  0  0  0  0  0
    6.2607    0.5267   -1.3967 H   0  0  0  0  0  0  0  0  0  0  0  0
   -6.2970    1.2723   -0.3474 H   0  0  0  0  0  0  0  0  0  0  0  0
   -6.5176   -0.7321    1.7784 H   0  0  0  0  0  0  0  0  0  0  0  0
   -7.4426    0.7509    1.6048 H   0  0  0  0  0  0  0  0  0  0  0  0
    7.6440   -1.0164    1.7678 H   0  0  0  0  0  0  0  0  0  0  0  0
   -8.7386   -0.2306   -0.2532 H   0  0  0  0  0  0  0  0  0  0  0  0
   -7.7901   -1.7085   -0.1678 H   0  0  0  0  0  0  0  0  0  0  0  0
    9.5412   -0.7809    0.2338 H   0  0  0  0  0  0  0  0  0  0  0  0
    8.3901   -1.9400   -0.4313 H   0  0  0  0  0  0  0  0  0  0  0  0
    8.4809   -0.3036   -1.0858 H   0  0  0  0  0  0  0  0  0  0  0  0
    7.5887    1.6860    0.3418 H   0  0  0  0  0  0  0  0  0  0  0  0
    7.0018    1.3771    1.9766 H   0  0  0  0  0  0  0  0  0  0  0  0
    8.7174    1.2030    1.6048 H   0  0  0  0  0  0  0  0  0  0  0  0
   -9.9419   -1.7272    1.0528 H   0  0  0  0  0  0  0  0  0  0  0  0
   -8.6940   -2.0570    2.0193 H   0  0  0  0  0  0  0  0  0  0  0  0
  1  2  2  0
  1  3  1  0
  1  4  1  0
  2  5  1  0
  2  6  1  0
  3  7  2  0
  3 26  1  0
  4  8  1  0
  5  9  2  0
  5 27  1  0
  7  9  1  0
  7 28  1  0
  8 10  1  0
  8 29  1  0
  8 30  1  0
  9 11  1  0
 10 12  2  0
 10 13  1  0
 11 14  1  0
 11 31  1  0
 11 32  1  0
 12 15  1  0
 12 33  1  0
 13 16  2  0
 13 34  1  0
 14 17  1  0
 14 18  2  0
 15 19  2  0
 15 35  1  0
 16 19  1  0
 16 36  1  0
 17 20  1  0
 17 37  1  0
 19 21  1  0
 20 22  1  0
 20 38  1  0
 20 39  1  0
 21 23  1  0
 21 24  1  0
 21 40  1  1
 22 25  1  0
 22 41  1  0
 22 42  1  0
 23 43  1  0
 23 44  1  0
 23 45  1  0
 24 46  1  0
 24 47  1  0
 24 48  1  0
 25 49  1  0
 25 50  1  0
M  END
