
     RDKit          3D

 21 21  0  0  0  0  0  0  0  0999 V2000
    1.7410    1.0947    0.4597 C   0  0  0  0  0  0  0  0  0  0  0  0
    2.4795   -0.0303    0.1463 C   0  0  0  0  0  0  0  0  0  0  0  0
    1.8936   -1.1700   -0.3669 C   0  0  0  0  0  0  0  0  0  0  0  0
    0.5207   -1.1708   -0.5724 C   0  0  0  0  0  0  0  0  0  0  0  0
    3.8088   -0.0113    0.3421 F   0  0  0  0  0  0  0  0  0  0  0  0
    0.3702    1.0705    0.2472 C   0  0  0  0  0  0  0  0  0  0  0  0
   -0.2592   -0.0591   -0.2701 C   0  0  0  0  0  0  0  0  0  0  0  0
   -1.7557   -0.1016   -0.4810 C   0  0  2  0  0  0  0  0  0  0  0  0
   -2.2426    1.0429   -1.1510 O   0  0  0  0  0  0  0  0  0  0  0  0
   -2.4855   -0.3408    0.8367 C   0  0  0  0  0  0  0  0  0  0  0  0
   -3.9034   -0.5571    0.6123 N   0  0  0  0  0  0  0  0  0  0  0  0
    2.2249    1.9756    0.8606 H   0  0  0  0  0  0  0  0  0  0  0  0
    2.4939   -2.0365   -0.6122 H   0  0  0  0  0  0  0  0  0  0  0  0
    0.0532   -2.0582   -0.9818 H   0  0  0  0  0  0  0  0  0  0  0  0
   -0.1996    1.9572    0.4981 H   0  0  0  0  0  0  0  0  0  0  0  0
   -1.9835   -0.9442   -1.1410 H   0  0  0  0  0  0  0  0  0  0  0  0
   -2.2630    1.7855   -0.5385 H   0  0  0  0  0  0  0  0  0  0  0  0
   -2.0658   -1.2364    1.3003 H   0  0  0  0  0  0  0  0  0  0  0  0
   -2.2607    0.4932    1.5225 H   0  0  0  0  0  0  0  0  0  0  0  0
   -4.3500   -0.7937    1.4886 H   0  0  0  0  0  0  0  0  0  0  0  0
   -4.3375    0.3046    0.3077 H   0  0  0  0  0  0  0  0  0  0  0  0
  5  2  1  0
  3  2  1  0
  3  4  2  0
  2  1  2  0
  4  7  1  0
  1  6  1  0
 11 10  1  0
  7  6  2  0
  7  8  1  0
  8 10  1  0
  8  9  1  0
  1 12  1  0
  3 13  1  0
  4 14  1  0
  6 15  1  0
  8 16  1  6
  9 17  1  0
 10 18  1  0
 10 19  1  0
 11 20  1  0
 11 21  1  0
M  END
