
     RDKit          3D

 17 18  0  0  0  0  0  0  0  0999 V2000
    1.4687    0.3002    0.0463 C   0  0  0  0  0  0  0  0  0  0  0  0
    0.1415    0.7373    0.0714 C   0  0  0  0  0  0  0  0  0  0  0  0
    2.7455    0.9449    0.0590 C   0  0  0  0  0  0  0  0  0  0  0  0
    2.9773    2.2963    0.1678 N   0  0  0  0  0  0  0  0  0  0  0  0
   -0.8394   -0.2262    0.0407 C   0  0  0  0  0  0  0  0  0  0  0  0
   -0.5379   -1.6024   -0.0096 C   0  0  0  0  0  0  0  0  0  0  0  0
   -2.6582    0.2961    0.0697 Br  0  0  0  0  0  0  0  0  0  0  0  0
    0.7652   -2.0415   -0.0290 C   0  0  0  0  0  0  0  0  0  0  0  0
    1.7740   -1.0708   -0.0002 C   0  0  0  0  0  0  0  0  0  0  0  0
    3.1157   -1.1581   -0.0010 N   0  0  0  0  0  0  0  0  0  0  0  0
    3.7065    0.0577    0.0227 N   0  0  0  0  0  0  0  0  0  0  0  0
   -0.0975    1.7921    0.1138 H   0  0  0  0  0  0  0  0  0  0  0  0
    2.3014    2.8739   -0.3084 H   0  0  0  0  0  0  0  0  0  0  0  0
    3.9156    2.5703   -0.0826 H   0  0  0  0  0  0  0  0  0  0  0  0
   -1.3384   -2.3294   -0.0324 H   0  0  0  0  0  0  0  0  0  0  0  0
    0.9903   -3.0988   -0.0665 H   0  0  0  0  0  0  0  0  0  0  0  0
    3.6856   -1.9848   -0.0509 H   0  0  0  0  0  0  0  0  0  0  0  0
  1  2  2  0
  1  3  1  0
  1  9  1  0
  2  5  1  0
  3  4  1  0
  3 11  2  0
  5  6  2  0
  5  7  1  0
  6  8  1  0
  8  9  2  0
  9 10  1  0
 10 11  1  0
  2 12  1  0
  4 13  1  0
  4 14  1  0
  6 15  1  0
  8 16  1  0
 10 17  1  0
M  END
