
     RDKit          3D

 47 48  0  0  0  0  0  0  0  0999 V2000
   -2.4466   -2.1040   -0.8859 C   0  0  0  0  0  0  0  0  0  0  0  0
   -2.5925   -1.4882   -2.2742 C   0  0  0  0  0  0  0  0  0  0  0  0
   -3.7558   -0.5121   -2.2973 C   0  0  0  0  0  0  0  0  0  0  0  0
   -3.7566    0.4293   -1.1213 C   0  0  0  0  0  0  0  0  0  0  0  0
   -4.5472    1.5772   -1.1686 C   0  0  0  0  0  0  0  0  0  0  0  0
   -4.6147    2.4554   -0.1039 C   0  0  0  0  0  0  0  0  0  0  0  0
   -3.8913    2.2067    1.0644 C   0  0  0  0  0  0  0  0  0  0  0  0
   -3.9882    3.1379    2.2384 C   0  0  0  0  0  0  0  0  0  0  0  0
   -3.1032    1.0689    1.1098 C   0  0  0  0  0  0  0  0  0  0  0  0
   -3.0059    0.1763    0.0334 C   0  0  0  0  0  0  0  0  0  0  0  0
   -2.1434   -1.0236    0.1132 C   0  0  0  0  0  0  0  0  0  0  0  0
   -1.1122   -1.0988    0.9665 C   0  0  0  0  0  0  0  0  0  0  0  0
   -0.2446   -2.2767    1.1697 C   0  0  0  0  0  0  0  0  0  0  0  0
   -0.8835   -3.5091    1.7365 C   0  0  0  0  0  0  0  0  0  0  0  0
    1.0852   -2.2218    0.9627 C   0  0  0  0  0  0  0  0  0  0  0  0
    1.7878   -1.0763    0.4398 C   0  0  0  0  0  0  0  0  0  0  0  0
    3.1290   -1.0388    0.3177 C   0  0  0  0  0  0  0  0  0  0  0  0
    3.9154    0.0787   -0.1759 C   0  0  0  0  0  0  0  0  0  0  0  0
    3.2092    1.2987   -0.6864 C   0  0  0  0  0  0  0  0  0  0  0  0
    5.2612   -0.0588   -0.1225 C   0  0  0  0  0  0  0  0  0  0  0  0
    6.2507    0.9464   -0.5067 C   0  0  0  0  0  0  0  0  0  0  0  0
    6.0410    2.0962   -0.8285 O   0  0  0  0  0  0  0  0  0  0  0  0
    7.4867    0.4416   -0.4478 O   0  0  0  0  0  0  0  0  0  0  0  0
   -3.3796   -2.6132   -0.6197 H   0  0  0  0  0  0  0  0  0  0  0  0
   -1.6594   -2.8575   -0.8970 H   0  0  0  0  0  0  0  0  0  0  0  0
   -1.6633   -0.9772   -2.5417 H   0  0  0  0  0  0  0  0  0  0  0  0
   -2.7473   -2.2712   -3.0183 H   0  0  0  0  0  0  0  0  0  0  0  0
   -3.7598    0.0606   -3.2275 H   0  0  0  0  0  0  0  0  0  0  0  0
   -4.6952   -1.0765   -2.2897 H   0  0  0  0  0  0  0  0  0  0  0  0
   -5.1209    1.7834   -2.0655 H   0  0  0  0  0  0  0  0  0  0  0  0
   -5.2390    3.3387   -0.1739 H   0  0  0  0  0  0  0  0  0  0  0  0
   -4.9841    3.1088    2.6847 H   0  0  0  0  0  0  0  0  0  0  0  0
   -3.2705    2.8795    3.0162 H   0  0  0  0  0  0  0  0  0  0  0  0
   -3.8025    4.1709    1.9411 H   0  0  0  0  0  0  0  0  0  0  0  0
   -2.5605    0.8548    2.0228 H   0  0  0  0  0  0  0  0  0  0  0  0
   -0.8714   -0.2360    1.5812 H   0  0  0  0  0  0  0  0  0  0  0  0
   -1.7347   -3.8375    1.1379 H   0  0  0  0  0  0  0  0  0  0  0  0
   -0.1763   -4.3351    1.8067 H   0  0  0  0  0  0  0  0  0  0  0  0
   -1.2734   -3.3069    2.7372 H   0  0  0  0  0  0  0  0  0  0  0  0
    1.6842   -3.0967    1.1989 H   0  0  0  0  0  0  0  0  0  0  0  0
    1.1888   -0.2229    0.1408 H   0  0  0  0  0  0  0  0  0  0  0  0
    3.6939   -1.9098    0.6382 H   0  0  0  0  0  0  0  0  0  0  0  0
    3.0941    2.0339    0.1127 H   0  0  0  0  0  0  0  0  0  0  0  0
    3.7579    1.7795   -1.4895 H   0  0  0  0  0  0  0  0  0  0  0  0
    2.2146    1.0587   -1.0551 H   0  0  0  0  0  0  0  0  0  0  0  0
    5.6651   -0.9918    0.2528 H   0  0  0  0  0  0  0  0  0  0  0  0
    8.1277    1.1270   -0.6858 H   0  0  0  0  0  0  0  0  0  0  0  0
 14 13  1  0
 15 13  2  0
 15 16  1  0
 17 16  2  0
 17 18  1  0
 13 12  1  0
 20 18  2  0
 20 21  1  0
 18 19  1  0
 22 21  2  0
  1  2  1  0
  1 11  1  0
 21 23  1  0
 12 11  2  0
  2  3  1  0
 11 10  1  0
  3  4  1  0
 10  4  2  0
 10  9  1  0
  4  5  1  0
  9  7  2  0
  5  6  2  0
  7  6  1  0
  7  8  1  0
  1 24  1  0
  1 25  1  0
  2 26  1  0
  2 27  1  0
  3 28  1  0
  3 29  1  0
  5 30  1  0
  6 31  1  0
  8 32  1  0
  8 33  1  0
  8 34  1  0
  9 35  1  0
 12 36  1  0
 14 37  1  0
 14 38  1  0
 14 39  1  0
 15 40  1  0
 16 41  1  0
 17 42  1  0
 19 43  1  0
 19 44  1  0
 19 45  1  0
 20 46  1  0
 23 47  1  0
M  END
