
     RDKit          3D

 47 50  0  0  0  0  0  0  0  0999 V2000
    7.4345    1.0576    0.6003 N   0  0  0  0  0  0  0  0  0  0  0  0
    5.0244   -0.3113    0.3329 N   0  0  0  0  0  0  0  0  0  0  0  0
   -4.5701    0.3798   -0.4554 N   0  0  0  0  0  0  0  0  0  0  0  0
   -6.6390    2.2295   -0.6645 N   0  0  0  0  0  0  0  0  0  0  0  0
    8.5600    1.7453    0.6811 C   0  0  0  0  0  0  0  0  0  0  0  0
    8.7715    2.9578    0.0299 C   0  0  0  0  0  0  0  0  0  0  0  0
    7.7476    3.4735   -0.7450 C   0  0  0  0  0  0  0  0  0  0  0  0
    6.5626    2.7585   -0.8369 C   0  0  0  0  0  0  0  0  0  0  0  0
    6.4489    1.5547   -0.1482 C   0  0  0  0  0  0  0  0  0  0  0  0
    5.1913    0.8024   -0.2498 C   0  0  0  0  0  0  0  0  0  0  0  0
    3.7972   -0.9687    0.2477 C   0  0  0  0  0  0  0  0  0  0  0  0
    2.5637   -0.3168    0.2130 C   0  0  0  0  0  0  0  0  0  0  0  0
    1.3794   -1.0346    0.1492 C   0  0  0  0  0  0  0  0  0  0  0  0
    1.4044   -2.4246    0.1081 C   0  0  0  0  0  0  0  0  0  0  0  0
    2.6328   -3.0851    0.1560 C   0  0  0  0  0  0  0  0  0  0  0  0
    3.8091   -2.3651    0.2417 C   0  0  0  0  0  0  0  0  0  0  0  0
   -0.0383   -3.4447    0.0267 S   0  0  0  0  0  0  0  0  0  0  0  0
   -1.3634   -2.2820   -0.0966 C   0  0  0  0  0  0  0  0  0  0  0  0
   -1.7587   -1.7979   -1.3413 C   0  0  0  0  0  0  0  0  0  0  0  0
   -2.8138   -0.9088   -1.4360 C   0  0  0  0  0  0  0  0  0  0  0  0
   -3.5151   -0.5164   -0.2938 C   0  0  0  0  0  0  0  0  0  0  0  0
   -3.1088   -0.9987    0.9527 C   0  0  0  0  0  0  0  0  0  0  0  0
   -2.0389   -1.8737    1.0484 C   0  0  0  0  0  0  0  0  0  0  0  0
   -5.6240    0.2365    0.2342 C   0  0  0  0  0  0  0  0  0  0  0  0
   -6.7495    1.1765    0.1459 C   0  0  0  0  0  0  0  0  0  0  0  0
   -7.8844    0.9306    0.9115 C   0  0  0  0  0  0  0  0  0  0  0  0
   -8.9510    1.8142    0.8288 C   0  0  0  0  0  0  0  0  0  0  0  0
   -8.8394    2.9054   -0.0141 C   0  0  0  0  0  0  0  0  0  0  0  0
   -7.6596    3.0652   -0.7371 C   0  0  0  0  0  0  0  0  0  0  0  0
    9.3442    1.3182    1.2965 H   0  0  0  0  0  0  0  0  0  0  0  0
    9.7157    3.4741    0.1341 H   0  0  0  0  0  0  0  0  0  0  0  0
    7.8656    4.4126   -1.2686 H   0  0  0  0  0  0  0  0  0  0  0  0
    5.7379    3.1261   -1.4338 H   0  0  0  0  0  0  0  0  0  0  0  0
    4.4205    1.2652   -0.8738 H   0  0  0  0  0  0  0  0  0  0  0  0
    2.5128    0.7635    0.2693 H   0  0  0  0  0  0  0  0  0  0  0  0
    0.4417   -0.4956    0.1383 H   0  0  0  0  0  0  0  0  0  0  0  0
    2.6744   -4.1674    0.1349 H   0  0  0  0  0  0  0  0  0  0  0  0
    4.7565   -2.8863    0.2932 H   0  0  0  0  0  0  0  0  0  0  0  0
   -1.2341   -2.1093   -2.2350 H   0  0  0  0  0  0  0  0  0  0  0  0
   -3.1146   -0.5209   -2.4006 H   0  0  0  0  0  0  0  0  0  0  0  0
   -3.6106   -0.6714    1.8547 H   0  0  0  0  0  0  0  0  0  0  0  0
   -1.7250   -2.2341    2.0193 H   0  0  0  0  0  0  0  0  0  0  0  0
   -5.7645   -0.6004    0.9249 H   0  0  0  0  0  0  0  0  0  0  0  0
   -7.9295    0.0641    1.5584 H   0  0  0  0  0  0  0  0  0  0  0  0
   -9.8479    1.6502    1.4109 H   0  0  0  0  0  0  0  0  0  0  0  0
   -9.6419    3.6222   -0.1180 H   0  0  0  0  0  0  0  0  0  0  0  0
   -7.5444    3.9128   -1.4035 H   0  0  0  0  0  0  0  0  0  0  0  0
  5  1  2  0
  1  9  1  0
 10  2  2  0
  2 11  1  0
 21  3  1  0
  3 24  2  0
  4 29  2  0
  4 25  1  0
  6  5  1  0
  5 30  1  0
  6  7  2  0
  6 31  1  0
  7  8  1  0
  7 32  1  0
  8  9  2  0
  8 33  1  0
  9 10  1  0
 10 34  1  0
 11 16  1  0
 11 12  2  0
 12 13  1  0
 12 35  1  0
 13 14  2  0
 13 36  1  0
 15 14  1  0
 14 17  1  0
 16 15  2  0
 15 37  1  0
 16 38  1  0
 17 18  1  0
 23 18  1  0
 18 19  2  0
 19 20  1  0
 19 39  1  0
 21 20  2  0
 20 40  1  0
 22 21  1  0
 23 22  2  0
 22 41  1  0
 23 42  1  0
 24 25  1  0
 24 43  1  0
 25 26  2  0
 26 27  1  0
 26 44  1  0
 28 27  2  0
 27 45  1  0
 29 28  1  0
 28 46  1  0
 29 47  1  0
M  END
