
     RDKit          3D

 62 61  0  0  0  0  0  0  0  0999 V2000
   -1.9103   -0.7499   11.8677 C   0  0  0  0  0  0  0  0  0  0  0  0
   -1.7732    0.1892   10.6773 C   0  0  0  0  0  0  0  0  0  0  0  0
   -1.0206   -0.4402    9.5108 C   0  0  0  0  0  0  0  0  0  0  0  0
   -0.8761    0.4933    8.3160 C   0  0  0  0  0  0  0  0  0  0  0  0
   -0.1281   -0.1335    7.1456 C   0  0  0  0  0  0  0  0  0  0  0  0
    0.0114    0.8117    5.9595 C   0  0  0  0  0  0  0  0  0  0  0  0
    0.7578    0.1951    4.7818 C   0  0  0  0  0  0  0  0  0  0  0  0
    0.8759    1.1738    3.6312 C   0  0  0  0  0  0  0  0  0  0  0  0
    1.5787    0.5825    2.5640 O   0  0  0  0  0  0  0  0  0  0  0  0
    1.7542    1.4639    1.4845 C   0  0  0  0  0  0  0  0  0  0  0  0
    2.5300    0.7916    0.3820 C   0  0  0  0  0  0  0  0  0  0  0  0
    1.7663   -0.2448   -0.1808 O   0  0  0  0  0  0  0  0  0  0  0  0
    2.4258   -0.8860   -1.2424 C   0  0  0  0  0  0  0  0  0  0  0  0
    1.5163   -1.9109   -1.8696 C   0  0  0  0  0  0  0  0  0  0  0  0
    0.4202   -1.2688   -2.4697 O   0  0  0  0  0  0  0  0  0  0  0  0
   -0.4045   -2.1537   -3.1829 C   0  0  0  0  0  0  0  0  0  0  0  0
   -1.5726   -1.4058   -3.7714 C   0  0  0  0  0  0  0  0  0  0  0  0
   -1.1158   -0.4646   -4.7091 O   0  0  0  0  0  0  0  0  0  0  0  0
   -2.1676    0.2256   -5.3341 C   0  0  0  0  0  0  0  0  0  0  0  0
   -1.6132    1.2629   -6.2762 C   0  0  0  0  0  0  0  0  0  0  0  0
   -0.9084    0.6363   -7.3167 O   0  0  0  0  0  0  0  0  0  0  0  0
   -0.3928    1.5511   -8.2507 C   0  0  0  0  0  0  0  0  0  0  0  0
    0.4037    0.8192   -9.3008 C   0  0  0  0  0  0  0  0  0  0  0  0
   -0.4532   -0.0075  -10.0549 O   0  0  0  0  0  0  0  0  0  0  0  0
   -2.4621   -0.2860   12.6860 H   0  0  0  0  0  0  0  0  0  0  0  0
   -2.4409   -1.6623   11.5882 H   0  0  0  0  0  0  0  0  0  0  0  0
   -0.9321   -1.0440   12.2531 H   0  0  0  0  0  0  0  0  0  0  0  0
   -2.7666    0.5001   10.3390 H   0  0  0  0  0  0  0  0  0  0  0  0
   -1.2590    1.1047   10.9859 H   0  0  0  0  0  0  0  0  0  0  0  0
   -0.0271   -0.7552    9.8491 H   0  0  0  0  0  0  0  0  0  0  0  0
   -1.5376   -1.3547    9.1994 H   0  0  0  0  0  0  0  0  0  0  0  0
   -1.8700    0.8102    7.9811 H   0  0  0  0  0  0  0  0  0  0  0  0
   -0.3570    1.4062    8.6287 H   0  0  0  0  0  0  0  0  0  0  0  0
    0.8665   -0.4503    7.4777 H   0  0  0  0  0  0  0  0  0  0  0  0
   -0.6473   -1.0447    6.8288 H   0  0  0  0  0  0  0  0  0  0  0  0
   -0.9846    1.1299    5.6329 H   0  0  0  0  0  0  0  0  0  0  0  0
    0.5301    1.7213    6.2817 H   0  0  0  0  0  0  0  0  0  0  0  0
    1.7570   -0.1152    5.1024 H   0  0  0  0  0  0  0  0  0  0  0  0
    0.2352   -0.7066    4.4481 H   0  0  0  0  0  0  0  0  0  0  0  0
   -0.1267    1.4868    3.3034 H   0  0  0  0  0  0  0  0  0  0  0  0
    1.3922    2.0844    3.9708 H   0  0  0  0  0  0  0  0  0  0  0  0
    0.7856    1.8135    1.0987 H   0  0  0  0  0  0  0  0  0  0  0  0
    2.3119    2.3592    1.7939 H   0  0  0  0  0  0  0  0  0  0  0  0
    2.7720    1.5535   -0.3721 H   0  0  0  0  0  0  0  0  0  0  0  0
    3.4868    0.4140    0.7714 H   0  0  0  0  0  0  0  0  0  0  0  0
    2.7446   -0.1594   -2.0037 H   0  0  0  0  0  0  0  0  0  0  0  0
    3.3327   -1.3998   -0.8935 H   0  0  0  0  0  0  0  0  0  0  0  0
    2.1025   -2.4713   -2.6114 H   0  0  0  0  0  0  0  0  0  0  0  0
    1.1844   -2.6369   -1.1130 H   0  0  0  0  0  0  0  0  0  0  0  0
    0.1589   -2.6576   -3.9814 H   0  0  0  0  0  0  0  0  0  0  0  0
   -0.8028   -2.9426   -2.5297 H   0  0  0  0  0  0  0  0  0  0  0  0
   -2.2418   -2.1403   -4.2413 H   0  0  0  0  0  0  0  0  0  0  0  0
   -2.1500   -0.9164   -2.9737 H   0  0  0  0  0  0  0  0  0  0  0  0
   -2.8235   -0.4687   -5.8793 H   0  0  0  0  0  0  0  0  0  0  0  0
   -2.7972    0.7417   -4.5956 H   0  0  0  0  0  0  0  0  0  0  0  0
   -2.4562    1.8518   -6.6646 H   0  0  0  0  0  0  0  0  0  0  0  0
   -0.9657    1.9603   -5.7249 H   0  0  0  0  0  0  0  0  0  0  0  0
   -1.2013    2.1269   -8.7253 H   0  0  0  0  0  0  0  0  0  0  0  0
    0.2721    2.2793   -7.7650 H   0  0  0  0  0  0  0  0  0  0  0  0
    0.8964    1.5761   -9.9243 H   0  0  0  0  0  0  0  0  0  0  0  0
    1.2009    0.2427   -8.8133 H   0  0  0  0  0  0  0  0  0  0  0  0
    0.0777   -0.4672  -10.7111 H   0  0  0  0  0  0  0  0  0  0  0  0
  1  2  1  0
  1 25  1  0
  1 26  1  0
  1 27  1  0
  2  3  1  0
  2 28  1  0
  2 29  1  0
  3  4  1  0
  3 30  1  0
  3 31  1  0
  4  5  1  0
  4 32  1  0
  4 33  1  0
  5  6  1  0
  5 34  1  0
  5 35  1  0
  6  7  1  0
  6 36  1  0
  6 37  1  0
  7  8  1  0
  7 38  1  0
  7 39  1  0
  8  9  1  0
  8 40  1  0
  8 41  1  0
  9 10  1  0
 10 11  1  0
 10 42  1  0
 10 43  1  0
 11 12  1  0
 11 44  1  0
 11 45  1  0
 12 13  1  0
 13 14  1  0
 13 46  1  0
 13 47  1  0
 14 15  1  0
 14 48  1  0
 14 49  1  0
 15 16  1  0
 16 17  1  0
 16 50  1  0
 16 51  1  0
 17 18  1  0
 17 52  1  0
 17 53  1  0
 18 19  1  0
 19 20  1  0
 19 54  1  0
 19 55  1  0
 20 21  1  0
 20 56  1  0
 20 57  1  0
 21 22  1  0
 22 23  1  0
 22 58  1  0
 22 59  1  0
 23 24  1  0
 23 60  1  0
 23 61  1  0
 24 62  1  0
M  END
