
     RDKit          3D

 37 38  0  0  0  0  0  0  0  0999 V2000
    4.7062    2.0671   -0.6909 Cl  0  0  0  0  0  0  0  0  0  0  0  0
    4.1069    0.6548    0.1057 C   0  0  0  0  0  0  0  0  0  0  0  0
    4.9082    0.0018    1.0333 C   0  0  0  0  0  0  0  0  0  0  0  0
    4.3546   -1.1175    1.6304 C   0  0  0  0  0  0  0  0  0  0  0  0
    3.1438   -1.5875    1.3737 N   0  0  0  0  0  0  0  0  0  0  0  0
    2.3865   -0.9500    0.4747 C   0  0  0  0  0  0  0  0  0  0  0  0
    2.8411    0.2047   -0.1927 C   0  0  0  0  0  0  0  0  0  0  0  0
    1.1721   -1.4952    0.2282 N   0  0  0  0  0  0  0  0  0  0  0  0
    0.1147   -0.8727   -0.5344 C   0  0  2  0  0  0  0  0  0  0  0  0
   -0.5604    0.2812    0.2115 C   0  0  0  0  0  0  0  0  0  0  0  0
   -1.7234    0.8453   -0.5967 C   0  0  0  0  0  0  0  0  0  0  0  0
   -2.6636   -0.2083   -0.9420 N   0  0  0  0  0  0  0  0  0  0  0  0
   -2.0647   -1.2915   -1.6995 C   0  0  0  0  0  0  0  0  0  0  0  0
   -0.9164   -1.9266   -0.9259 C   0  0  0  0  0  0  0  0  0  0  0  0
   -3.8830   -0.3680   -0.3826 C   0  0  0  0  0  0  0  0  0  0  0  0
   -4.6036   -1.3324   -0.5631 O   0  0  0  0  0  0  0  0  0  0  0  0
   -4.2323    0.6679    0.3815 O   0  0  0  0  0  0  0  0  0  0  0  0
   -5.5254    0.6281    0.9943 C   0  0  0  0  0  0  0  0  0  0  0  0
   -5.7023    1.9099    1.7722 C   0  0  0  0  0  0  0  0  0  0  0  0
    5.9020    0.3422    1.2827 H   0  0  0  0  0  0  0  0  0  0  0  0
    4.9322   -1.6661    2.3665 H   0  0  0  0  0  0  0  0  0  0  0  0
    2.2276    0.7261   -0.9126 H   0  0  0  0  0  0  0  0  0  0  0  0
    0.9095   -2.2446    0.8502 H   0  0  0  0  0  0  0  0  0  0  0  0
    0.5444   -0.4831   -1.4651 H   0  0  0  0  0  0  0  0  0  0  0  0
   -0.9243   -0.0779    1.1789 H   0  0  0  0  0  0  0  0  0  0  0  0
    0.1567    1.0816    0.4092 H   0  0  0  0  0  0  0  0  0  0  0  0
   -1.3478    1.2829   -1.5279 H   0  0  0  0  0  0  0  0  0  0  0  0
   -2.2196    1.6413   -0.0510 H   0  0  0  0  0  0  0  0  0  0  0  0
   -2.8198   -2.0326   -1.9449 H   0  0  0  0  0  0  0  0  0  0  0  0
   -1.6889   -0.8827   -2.6431 H   0  0  0  0  0  0  0  0  0  0  0  0
   -1.3077   -2.4162   -0.0275 H   0  0  0  0  0  0  0  0  0  0  0  0
   -0.4466   -2.6976   -1.5402 H   0  0  0  0  0  0  0  0  0  0  0  0
   -5.5973   -0.2375    1.6562 H   0  0  0  0  0  0  0  0  0  0  0  0
   -6.2990    0.5317    0.2297 H   0  0  0  0  0  0  0  0  0  0  0  0
   -5.6601    2.7839    1.1221 H   0  0  0  0  0  0  0  0  0  0  0  0
   -6.6783    1.9017    2.2570 H   0  0  0  0  0  0  0  0  0  0  0  0
   -4.9447    2.0170    2.5486 H   0  0  0  0  0  0  0  0  0  0  0  0
  1  2  1  0
  2  3  2  0
  2  7  1  0
  3  4  1  0
  3 20  1  0
  4  5  2  0
  4 21  1  0
  5  6  1  0
  6  7  2  0
  6  8  1  0
  7 22  1  0
  8  9  1  0
  8 23  1  0
  9 10  1  0
  9 14  1  0
  9 24  1  6
 10 11  1  0
 10 25  1  0
 10 26  1  0
 11 12  1  0
 11 27  1  0
 11 28  1  0
 12 13  1  0
 12 15  1  0
 13 14  1  0
 13 29  1  0
 13 30  1  0
 14 31  1  0
 14 32  1  0
 15 16  2  0
 15 17  1  0
 17 18  1  0
 18 19  1  0
 18 33  1  0
 18 34  1  0
 19 35  1  0
 19 36  1  0
 19 37  1  0
M  END
