
     RDKit          3D

 30 32  0  0  0  0  0  0  0  0999 V2000
   -3.0281   -0.4343   -0.4157 C   0  0  0  0  0  0  0  0  0  0  0  0
   -4.3466    0.0059   -0.3769 C   0  0  0  0  0  0  0  0  0  0  0  0
   -5.3540   -0.6875   -0.9402 O   0  0  0  0  0  0  0  0  0  0  0  0
   -4.6608    1.2076    0.2541 C   0  0  0  0  0  0  0  0  0  0  0  0
   -3.6506    1.9604    0.8292 C   0  0  0  0  0  0  0  0  0  0  0  0
   -2.3306    1.5374    0.7901 C   0  0  0  0  0  0  0  0  0  0  0  0
   -2.0169    0.3264    0.1711 C   0  0  0  0  0  0  0  0  0  0  0  0
   -0.6211   -0.1244    0.1307 C   0  0  0  0  0  0  0  0  0  0  0  0
    0.2451    0.8948   -0.0192 O   0  0  0  0  0  0  0  0  0  0  0  0
    1.5744    0.6913   -0.0390 C   0  0  0  0  0  0  0  0  0  0  0  0
    2.3942    1.8069   -0.1969 C   0  0  0  0  0  0  0  0  0  0  0  0
    3.7590    1.6396   -0.2238 C   0  0  0  0  0  0  0  0  0  0  0  0
    4.3335    0.3633   -0.0933 C   0  0  0  0  0  0  0  0  0  0  0  0
    5.6654    0.1742   -0.1113 O   0  0  0  0  0  0  0  0  0  0  0  0
    3.5159   -0.7373    0.0586 C   0  0  0  0  0  0  0  0  0  0  0  0
    2.1260   -0.5798    0.0855 C   0  0  0  0  0  0  0  0  0  0  0  0
    1.2365   -1.7170    0.2494 C   0  0  0  0  0  0  0  0  0  0  0  0
    1.6105   -2.8796    0.3788 O   0  0  0  0  0  0  0  0  0  0  0  0
   -0.1800   -1.3999    0.2696 C   0  0  0  0  0  0  0  0  0  0  0  0
   -1.0298   -2.4226    0.4559 O   0  0  0  0  0  0  0  0  0  0  0  0
   -2.7909   -1.3604   -0.9234 H   0  0  0  0  0  0  0  0  0  0  0  0
   -5.0252   -1.5001   -1.3409 H   0  0  0  0  0  0  0  0  0  0  0  0
   -5.6887    1.5458    0.2885 H   0  0  0  0  0  0  0  0  0  0  0  0
   -3.8983    2.8933    1.3180 H   0  0  0  0  0  0  0  0  0  0  0  0
   -1.5619    2.1403    1.2533 H   0  0  0  0  0  0  0  0  0  0  0  0
    1.9596    2.7928   -0.2977 H   0  0  0  0  0  0  0  0  0  0  0  0
    4.3943    2.5090   -0.3474 H   0  0  0  0  0  0  0  0  0  0  0  0
    6.1285    1.0112   -0.2268 H   0  0  0  0  0  0  0  0  0  0  0  0
    3.9430   -1.7269    0.1592 H   0  0  0  0  0  0  0  0  0  0  0  0
   -0.4990   -3.2309    0.5284 H   0  0  0  0  0  0  0  0  0  0  0  0
 20 19  1  0
 18 17  2  0
 17 19  1  0
 17 16  1  0
 19  8  2  0
 15 16  1  0
 15 13  2  0
 16 10  2  0
  8  7  1  0
  8  9  1  0
 13 14  1  0
 13 12  1  0
  7  6  1  0
  7  1  2  0
  6  5  2  0
 10  9  1  0
 10 11  1  0
  1  2  1  0
  5  4  1  0
  2  4  2  0
  2  3  1  0
 12 11  2  0
  1 21  1  0
  3 22  1  0
  4 23  1  0
  5 24  1  0
  6 25  1  0
 11 26  1  0
 12 27  1  0
 14 28  1  0
 15 29  1  0
 20 30  1  0
M  END
