
     RDKit          3D

 40 39  0  0  0  0  0  0  0  0999 V2000
   -6.3499    0.1781    0.5717 C   0  0  0  0  0  0  0  0  0  0  0  0
   -7.5565    0.4896   -0.4549 S   0  0  0  0  0  0  0  0  0  0  0  0
   -5.1315   -0.6149    0.2759 C   0  0  0  0  0  0  0  0  0  0  0  0
   -3.8711    0.2544    0.3828 C   0  0  0  0  0  0  0  0  0  0  0  0
   -2.5985   -0.5535    0.1641 C   0  0  0  0  0  0  0  0  0  0  0  0
   -1.3370    0.2949    0.2617 C   0  0  0  0  0  0  0  0  0  0  0  0
   -0.0599   -0.5084    0.0507 C   0  0  0  0  0  0  0  0  0  0  0  0
    1.2049    0.3347    0.1552 C   0  0  0  0  0  0  0  0  0  0  0  0
    2.4818   -0.4688   -0.0549 C   0  0  0  0  0  0  0  0  0  0  0  0
    3.7484    0.3692    0.0650 C   0  0  0  0  0  0  0  0  0  0  0  0
    5.0253   -0.4361   -0.1395 C   0  0  0  0  0  0  0  0  0  0  0  0
    6.2918    0.3998   -0.0085 C   0  0  0  0  0  0  0  0  0  0  0  0
    7.5712   -0.4049   -0.2020 C   0  0  0  0  0  0  0  0  0  0  0  0
    8.8286    0.4418   -0.0630 C   0  0  0  0  0  0  0  0  0  0  0  0
   -6.3877    0.5891    1.5819 H   0  0  0  0  0  0  0  0  0  0  0  0
   -5.0661   -1.4162    1.0212 H   0  0  0  0  0  0  0  0  0  0  0  0
   -5.2006   -1.0750   -0.7108 H   0  0  0  0  0  0  0  0  0  0  0  0
   -3.9283    1.0607   -0.3543 H   0  0  0  0  0  0  0  0  0  0  0  0
   -3.8395    0.7335    1.3661 H   0  0  0  0  0  0  0  0  0  0  0  0
   -2.5525   -1.3626    0.9008 H   0  0  0  0  0  0  0  0  0  0  0  0
   -2.6376   -1.0361   -0.8183 H   0  0  0  0  0  0  0  0  0  0  0  0
   -1.3840    1.1030   -0.4764 H   0  0  0  0  0  0  0  0  0  0  0  0
   -1.3029    0.7817    1.2428 H   0  0  0  0  0  0  0  0  0  0  0  0
   -0.0166   -1.3192    0.7864 H   0  0  0  0  0  0  0  0  0  0  0  0
   -0.0927   -0.9928   -0.9317 H   0  0  0  0  0  0  0  0  0  0  0  0
    1.1621    1.1471   -0.5788 H   0  0  0  0  0  0  0  0  0  0  0  0
    1.2370    0.8174    1.1386 H   0  0  0  0  0  0  0  0  0  0  0  0
    2.5184   -1.2866    0.6736 H   0  0  0  0  0  0  0  0  0  0  0  0
    2.4539   -0.9449   -1.0416 H   0  0  0  0  0  0  0  0  0  0  0  0
    3.7142    1.1864   -0.6644 H   0  0  0  0  0  0  0  0  0  0  0  0
    3.7743    0.8462    1.0513 H   0  0  0  0  0  0  0  0  0  0  0  0
    5.0556   -1.2565    0.5866 H   0  0  0  0  0  0  0  0  0  0  0  0
    5.0028   -0.9088   -1.1280 H   0  0  0  0  0  0  0  0  0  0  0  0
    6.2656    1.2178   -0.7374 H   0  0  0  0  0  0  0  0  0  0  0  0
    6.3108    0.8766    0.9782 H   0  0  0  0  0  0  0  0  0  0  0  0
    7.5981   -1.2216    0.5263 H   0  0  0  0  0  0  0  0  0  0  0  0
    7.5549   -0.8801   -1.1880 H   0  0  0  0  0  0  0  0  0  0  0  0
    8.8520    1.2403   -0.8072 H   0  0  0  0  0  0  0  0  0  0  0  0
    8.8793    0.9108    0.9216 H   0  0  0  0  0  0  0  0  0  0  0  0
    9.7325   -0.1551   -0.1905 H   0  0  0  0  0  0  0  0  0  0  0  0
 14 13  1  0
 13 12  1  0
 12 11  1  0
 11 10  1  0
 10  9  1  0
  9  8  1  0
  7  8  1  0
  7  6  1  0
  3  4  1  0
  3  1  1  0
  5  6  1  0
  5  4  1  0
  1  2  2  0
  1 15  1  0
  3 16  1  0
  3 17  1  0
  4 18  1  0
  4 19  1  0
  5 20  1  0
  5 21  1  0
  6 22  1  0
  6 23  1  0
  7 24  1  0
  7 25  1  0
  8 26  1  0
  8 27  1  0
  9 28  1  0
  9 29  1  0
 10 30  1  0
 10 31  1  0
 11 32  1  0
 11 33  1  0
 12 34  1  0
 12 35  1  0
 13 36  1  0
 13 37  1  0
 14 38  1  0
 14 39  1  0
 14 40  1  0
M  END
