
     RDKit          3D

 21 20  0  0  0  0  0  0  0  0999 V2000
    1.1554    0.4039    0.3125 C   0  0  2  0  0  0  0  0  0  0  0  0
    0.0175   -1.8057    0.3759 N   0  0  0  0  0  0  0  0  0  0  0  0
    2.2800   -0.2857    0.7915 O   0  0  0  0  0  0  0  0  0  0  0  0
   -0.0646   -0.4552   -0.1366 C   0  0  1  0  0  0  0  0  0  0  0  0
   -1.3564    0.3208    0.2194 C   0  0  1  0  0  0  0  0  0  0  0  0
   -1.4505    1.5804   -0.6167 C   0  0  0  0  0  0  0  0  0  0  0  0
   -2.5924   -0.5276    0.0048 C   0  0  0  0  0  0  0  0  0  0  0  0
    0.8797    1.1257    1.1331 H   0  0  0  0  0  0  0  0  0  0  0  0
    1.6165    1.0791   -0.8416 O   0  0  0  0  0  0  0  0  0  0  0  0
    0.0756   -1.8078    1.3750 H   0  0  0  0  0  0  0  0  0  0  0  0
   -0.7787   -2.3375    0.0854 H   0  0  0  0  0  0  0  0  0  0  0  0
    2.4637   -1.0291    0.2029 H   0  0  0  0  0  0  0  0  0  0  0  0
   -0.0173   -0.5354   -1.2658 H   0  0  0  0  0  0  0  0  0  0  0  0
   -1.3104    0.6103    1.3072 H   0  0  0  0  0  0  0  0  0  0  0  0
   -1.6219    1.3234   -1.6901 H   0  0  0  0  0  0  0  0  0  0  0  0
   -2.2990    2.2144   -0.2638 H   0  0  0  0  0  0  0  0  0  0  0  0
   -0.5053    2.1724   -0.5478 H   0  0  0  0  0  0  0  0  0  0  0  0
   -2.6811   -1.3189    0.7877 H   0  0  0  0  0  0  0  0  0  0  0  0
   -3.5075    0.1114    0.0598 H   0  0  0  0  0  0  0  0  0  0  0  0
   -2.5667   -1.0163   -0.9991 H   0  0  0  0  0  0  0  0  0  0  0  0
    2.4317    1.5367   -0.6009 H   0  0  0  0  0  0  0  0  0  0  0  0
  1  4  1  0
  1  3  1  0
  1  8  1  1
  1  9  1  0
  2  4  1  0
  2 10  1  0
  2 11  1  0
  3 12  1  0
  4  5  1  0
  4 13  1  6
  5  6  1  0
  5 14  1  1
  6 15  1  0
  6 16  1  0
  6 17  1  0
  7  5  1  0
  7 18  1  0
  7 19  1  0
  7 20  1  0
  9 21  1  0
M  END
