
     RDKit          3D

 13 13  0  0  0  0  0  0  0  0999 V2000
   -3.0360    0.0227    0.0388 S   0  0  0  0  0  0  0  0  0  0  0  0
    1.4707    0.5531   -0.0571 C   0  0  0  0  0  0  0  0  0  0  0  0
    2.7959    0.6984   -0.1061 F   0  0  0  0  0  0  0  0  0  0  0  0
    0.9321   -0.7209    0.0283 C   0  0  0  0  0  0  0  0  0  0  0  0
    1.7543   -1.7708    0.0565 F   0  0  0  0  0  0  0  0  0  0  0  0
   -0.4317   -0.9103    0.0641 C   0  0  0  0  0  0  0  0  0  0  0  0
   -1.2751    0.1981    0.0529 C   0  0  0  0  0  0  0  0  0  0  0  0
   -0.7340    1.4751   -0.0212 C   0  0  0  0  0  0  0  0  0  0  0  0
    0.6412    1.6518   -0.0862 C   0  0  0  0  0  0  0  0  0  0  0  0
   -3.1371   -0.9134    0.9885 H   0  0  0  0  0  0  0  0  0  0  0  0
   -0.8224   -1.9184    0.1056 H   0  0  0  0  0  0  0  0  0  0  0  0
   -1.3832    2.3397   -0.0160 H   0  0  0  0  0  0  0  0  0  0  0  0
    1.0691    2.6435   -0.1451 H   0  0  0  0  0  0  0  0  0  0  0  0
  3  2  1  0
  9  2  2  0
  9  8  1  0
  2  4  1  0
  8  7  2  0
  4  5  1  0
  4  6  2  0
  7  6  1  0
  7  1  1  0
  1 10  1  0
  6 11  1  0
  8 12  1  0
  9 13  1  0
M  END
