
     RDKit          3D

 64 67  0  0  0  0  0  0  0  0999 V2000
    5.5946    2.4441    1.1610 C   0  0  0  0  0  0  0  0  0  0  0  0
    5.3671    1.2215    0.5504 C   0  0  0  0  0  0  0  0  0  0  0  0
   -2.8684    2.0393    0.4910 C   0  0  0  0  0  0  0  0  0  0  0  0
   -4.4684    1.2816   -1.1092 C   0  0  0  0  0  0  0  0  0  0  0  0
    4.6099    3.4204    1.1914 C   0  0  0  0  0  0  0  0  0  0  0  0
   -3.8878    2.4806    1.3118 C   0  0  0  0  0  0  0  0  0  0  0  0
   -5.5087    1.7229   -0.2985 C   0  0  0  0  0  0  0  0  0  0  0  0
   -1.3230   -3.1336   -0.7495 C   0  0  0  0  0  0  0  0  0  0  0  0
    1.2853   -4.1306   -0.4401 C   0  0  0  0  0  0  0  0  0  0  0  0
   -0.2084   -2.3382   -1.0842 C   0  0  0  0  0  0  0  0  0  0  0  0
    3.1435    1.9307   -0.0208 C   0  0  0  0  0  0  0  0  0  0  0  0
   -3.1414    1.4319   -0.7359 C   0  0  0  0  0  0  0  0  0  0  0  0
    4.1431    0.9596   -0.0553 C   0  0  0  0  0  0  0  0  0  0  0  0
    1.0936   -2.8347   -0.9435 C   0  0  0  0  0  0  0  0  0  0  0  0
   -1.0960   -4.3944   -0.2692 C   0  0  0  0  0  0  0  0  0  0  0  0
    0.1872   -4.8841   -0.1146 C   0  0  0  0  0  0  0  0  0  0  0  0
   -5.2217    2.3247    0.9236 C   0  0  0  0  0  0  0  0  0  0  0  0
    3.3730    3.1619    0.6045 C   0  0  0  0  0  0  0  0  0  0  0  0
    1.8030    1.6438   -0.6106 C   0  0  0  0  0  0  0  0  0  0  0  0
   -1.2386   -6.5092    0.3971 C   0  0  0  0  0  0  0  0  0  0  0  0
    2.6654   -1.3979    1.0266 C   0  0  0  0  0  0  0  0  0  0  0  0
   -7.5146    2.6532    1.4368 C   0  0  0  0  0  0  0  0  0  0  0  0
    2.5421    5.3152    1.1602 C   0  0  0  0  0  0  0  0  0  0  0  0
   -2.0243    0.9307   -1.6039 C   0  0  0  0  0  0  0  0  0  0  0  0
    3.9076   -0.3619   -0.7392 C   0  0  0  0  0  0  0  0  0  0  0  0
    2.3483   -2.0628   -1.2790 C   0  0  0  0  0  0  0  0  0  0  0  0
   -1.5290   -0.3381   -1.0922 N   0  0  0  0  0  0  0  0  0  0  0  0
    2.6470   -0.9754   -0.3587 N   0  0  0  0  0  0  0  0  0  0  0  0
    0.7838    1.6439    0.0347 O   0  0  0  0  0  0  0  0  0  0  0  0
    0.1371   -0.5005   -2.5842 O   0  0  0  0  0  0  0  0  0  0  0  0
    1.8666    1.4376   -1.9152 O   0  0  0  0  0  0  0  0  0  0  0  0
   -1.9889   -5.3318    0.1230 O   0  0  0  0  0  0  0  0  0  0  0  0
    0.1368   -6.1379    0.3802 O   0  0  0  0  0  0  0  0  0  0  0  0
   -6.1500    2.7829    1.7833 O   0  0  0  0  0  0  0  0  0  0  0  0
    2.3613    4.0445    0.5657 O   0  0  0  0  0  0  0  0  0  0  0  0
    6.5499    2.6456    1.6282 H   0  0  0  0  0  0  0  0  0  0  0  0
    6.1401    0.4635    0.5475 H   0  0  0  0  0  0  0  0  0  0  0  0
    4.8176    4.3662    1.6726 H   0  0  0  0  0  0  0  0  0  0  0  0
   -1.8402    2.1727    0.8054 H   0  0  0  0  0  0  0  0  0  0  0  0
   -3.6597    2.9528    2.2594 H   0  0  0  0  0  0  0  0  0  0  0  0
   -4.7120    0.8156   -2.0565 H   0  0  0  0  0  0  0  0  0  0  0  0
   -6.5264    1.5860   -0.6372 H   0  0  0  0  0  0  0  0  0  0  0  0
   -2.3341   -2.7772   -0.8935 H   0  0  0  0  0  0  0  0  0  0  0  0
    2.2869   -4.5184   -0.3057 H   0  0  0  0  0  0  0  0  0  0  0  0
   -2.3729    0.7969   -2.6304 H   0  0  0  0  0  0  0  0  0  0  0  0
   -1.2135    1.6593   -1.6276 H   0  0  0  0  0  0  0  0  0  0  0  0
    3.8961   -0.2018   -1.8205 H   0  0  0  0  0  0  0  0  0  0  0  0
    4.7617   -1.0288   -0.5384 H   0  0  0  0  0  0  0  0  0  0  0  0
    3.1764   -2.7900   -1.3005 H   0  0  0  0  0  0  0  0  0  0  0  0
    2.2801   -1.6445   -2.2828 H   0  0  0  0  0  0  0  0  0  0  0  0
   -1.9512   -0.6996   -0.2519 H   0  0  0  0  0  0  0  0  0  0  0  0
    1.0840    0.9237   -2.2274 H   0  0  0  0  0  0  0  0  0  0  0  0
   -1.5029   -6.8959    1.3812 H   0  0  0  0  0  0  0  0  0  0  0  0
   -1.4276   -7.2603   -0.3757 H   0  0  0  0  0  0  0  0  0  0  0  0
    2.9110   -0.5514    1.6678 H   0  0  0  0  0  0  0  0  0  0  0  0
    1.6839   -1.7605    1.3278 H   0  0  0  0  0  0  0  0  0  0  0  0
    3.4003   -2.1936    1.2259 H   0  0  0  0  0  0  0  0  0  0  0  0
   -7.7580    3.2000    0.5220 H   0  0  0  0  0  0  0  0  0  0  0  0
   -7.8073    1.6075    1.3107 H   0  0  0  0  0  0  0  0  0  0  0  0
   -8.0844    3.0774    2.2597 H   0  0  0  0  0  0  0  0  0  0  0  0
    2.7497    5.2388    2.2303 H   0  0  0  0  0  0  0  0  0  0  0  0
    3.3475    5.8781    0.6819 H   0  0  0  0  0  0  0  0  0  0  0  0
    1.6081    5.8538    1.0218 H   0  0  0  0  0  0  0  0  0  0  0  0
   -0.4962   -0.9817   -1.6391 C   0  0  0  0  0  0  0  0  0  0  0  0
  1  2  2  0
  1  5  1  0
  2 13  1  0
  3  6  2  0
  3 12  1  0
  4  7  1  0
  4 12  2  0
  5 18  2  0
  6 17  1  0
  7 17  2  0
  8 10  2  0
  8 15  1  0
  9 14  2  0
  9 16  1  0
 10 14  1  0
 10 64  1  0
 11 13  2  0
 11 18  1  0
 11 19  1  0
 12 24  1  0
 13 25  1  0
 14 26  1  0
 15 16  2  0
 15 32  1  0
 16 33  1  0
 17 34  1  0
 18 35  1  0
 64 27  1  0
 64 30  2  0
 19 29  2  0
 19 31  1  0
 20 32  1  0
 20 33  1  0
 21 28  1  0
 22 34  1  0
 23 35  1  0
 24 27  1  0
 25 28  1  0
 26 28  1  0
  1 36  1  0
  2 37  1  0
  5 38  1  0
  3 39  1  0
  6 40  1  0
  4 41  1  0
  7 42  1  0
  8 43  1  0
  9 44  1  0
 24 45  1  0
 24 46  1  0
 25 47  1  0
 25 48  1  0
 26 49  1  0
 26 50  1  0
 27 51  1  0
 31 52  1  0
 20 53  1  0
 20 54  1  0
 21 55  1  0
 21 56  1  0
 21 57  1  0
 22 58  1  0
 22 59  1  0
 22 60  1  0
 23 61  1  0
 23 62  1  0
 23 63  1  0
M  END
