
     RDKit          3D

 30 30  0  0  0  0  0  0  0  0999 V2000
    4.0104    0.4868   -1.5589 O   0  0  0  0  0  0  0  0  0  0  0  0
    3.3719    0.3766   -0.0884 P   0  0  1  0  0  0  0  0  0  0  0  0
    3.6716   -1.1161    0.4384 O   0  0  0  0  0  0  0  0  0  0  0  0
    3.8608    1.3491    0.9178 O   0  0  0  0  0  0  0  0  0  0  0  0
    1.6122    0.4582   -0.4667 C   0  0  0  0  0  0  0  0  0  0  0  0
    0.7452    0.2666    0.7836 C   0  0  0  0  0  0  0  0  0  0  0  0
   -0.7157    0.4102    0.4599 C   0  0  0  0  0  0  0  0  0  0  0  0
   -1.3274    1.6447    0.6388 C   0  0  0  0  0  0  0  0  0  0  0  0
   -2.5977    1.8880    0.3549 N   0  0  0  0  0  0  0  0  0  0  0  0
   -3.3543    0.9121   -0.1260 C   0  0  0  0  0  0  0  0  0  0  0  0
   -4.7876    1.2178   -0.4466 C   0  0  0  0  0  0  0  0  0  0  0  0
   -2.8300   -0.3700   -0.3329 C   0  0  0  0  0  0  0  0  0  0  0  0
   -3.5803   -1.3796   -0.8119 O   0  0  0  0  0  0  0  0  0  0  0  0
   -1.4891   -0.6322   -0.0525 C   0  0  0  0  0  0  0  0  0  0  0  0
   -0.9509   -2.0200   -0.2568 C   0  0  0  0  0  0  0  0  0  0  0  0
   -1.4150   -2.8294    0.8033 O   0  0  0  0  0  0  0  0  0  0  0  0
    4.9741    0.5678   -1.5687 H   0  0  0  0  0  0  0  0  0  0  0  0
    3.4578   -1.8277   -0.1789 H   0  0  0  0  0  0  0  0  0  0  0  0
    1.4128    1.4364   -0.9100 H   0  0  0  0  0  0  0  0  0  0  0  0
    1.3728   -0.2856   -1.2306 H   0  0  0  0  0  0  0  0  0  0  0  0
    0.9467   -0.7021    1.2433 H   0  0  0  0  0  0  0  0  0  0  0  0
    1.0152    1.0198    1.5259 H   0  0  0  0  0  0  0  0  0  0  0  0
   -0.7551    2.4759    1.0390 H   0  0  0  0  0  0  0  0  0  0  0  0
   -5.0054    1.0870   -1.5101 H   0  0  0  0  0  0  0  0  0  0  0  0
   -5.4813    0.5829    0.1101 H   0  0  0  0  0  0  0  0  0  0  0  0
   -5.0087    2.2517   -0.1924 H   0  0  0  0  0  0  0  0  0  0  0  0
   -4.4672   -1.0804   -1.0409 H   0  0  0  0  0  0  0  0  0  0  0  0
   -1.2788   -2.4003   -1.2305 H   0  0  0  0  0  0  0  0  0  0  0  0
    0.1430   -2.0008   -0.2898 H   0  0  0  0  0  0  0  0  0  0  0  0
   -1.1609   -3.7374    0.6112 H   0  0  0  0  0  0  0  0  0  0  0  0
  2  1  1  6
  2  3  1  0
  2  4  2  0
  2  5  1  0
  5  6  1  0
  6  7  1  0
  7  8  2  0
  7 14  1  0
  8  9  1  0
  9 10  2  0
 10 11  1  0
 10 12  1  0
 12 13  1  0
 12 14  2  0
 14 15  1  0
 15 16  1  0
  1 17  1  0
  3 18  1  0
  5 19  1  0
  5 20  1  0
  6 21  1  0
  6 22  1  0
  8 23  1  0
 11 24  1  0
 11 25  1  0
 11 26  1  0
 13 27  1  0
 15 28  1  0
 15 29  1  0
 16 30  1  0
M  END
