
     RDKit          3D

 36 36  0  0  0  0  0  0  0  0999 V2000
   -4.4564    1.6385   -0.9174 N   0  0  0  0  0  0  0  0  0  0  0  0
   -4.8856    0.3336   -0.4868 C   0  0  1  0  0  0  0  0  0  0  0  0
   -4.2336   -0.0304    0.8611 C   0  0  0  0  0  0  0  0  0  0  0  0
   -2.7387   -0.1144    0.7613 C   0  0  0  0  0  0  0  0  0  0  0  0
   -2.1233   -1.2864    0.3346 C   0  0  0  0  0  0  0  0  0  0  0  0
   -0.7447   -1.3955    0.2240 C   0  0  0  0  0  0  0  0  0  0  0  0
    0.0592   -0.3037    0.5456 C   0  0  0  0  0  0  0  0  0  0  0  0
    1.4626   -0.3343    0.5087 N   0  0  0  0  0  0  0  0  0  0  0  0
    2.2463   -1.0747   -0.3081 C   0  0  0  0  0  0  0  0  0  0  0  0
    3.7596   -0.8685   -0.1300 C   0  0  1  0  0  0  0  0  0  0  0  0
    4.5477   -1.8009   -1.0277 C   0  0  0  0  0  0  0  0  0  0  0  0
    4.1332    1.0037   -0.7245 Br  0  0  0  0  0  0  0  0  0  0  0  0
    4.1948   -1.0114    1.3198 C   0  0  0  0  0  0  0  0  0  0  0  0
    1.8204   -1.8804   -1.1103 O   0  0  0  0  0  0  0  0  0  0  0  0
   -0.5452    0.8762    0.9773 C   0  0  0  0  0  0  0  0  0  0  0  0
   -1.9228    0.9657    1.0812 C   0  0  0  0  0  0  0  0  0  0  0  0
   -6.3971    0.1976   -0.3502 C   0  0  0  0  0  0  0  0  0  0  0  0
   -6.7837   -1.0725   -0.3240 O   0  0  0  0  0  0  0  0  0  0  0  0
   -7.1609    1.1257   -0.2594 O   0  0  0  0  0  0  0  0  0  0  0  0
   -4.8287    1.8468   -1.8348 H   0  0  0  0  0  0  0  0  0  0  0  0
   -4.8154    2.3513   -0.2940 H   0  0  0  0  0  0  0  0  0  0  0  0
   -4.5573   -0.4008   -1.2292 H   0  0  0  0  0  0  0  0  0  0  0  0
   -4.5177    0.7214    1.6032 H   0  0  0  0  0  0  0  0  0  0  0  0
   -4.6291   -0.9855    1.2115 H   0  0  0  0  0  0  0  0  0  0  0  0
   -2.7316   -2.1500    0.0907 H   0  0  0  0  0  0  0  0  0  0  0  0
   -0.3157   -2.3333   -0.0915 H   0  0  0  0  0  0  0  0  0  0  0  0
    1.9116    0.3780    1.0648 H   0  0  0  0  0  0  0  0  0  0  0  0
    4.2926   -1.6917   -2.0791 H   0  0  0  0  0  0  0  0  0  0  0  0
    5.6151   -1.6230   -0.9067 H   0  0  0  0  0  0  0  0  0  0  0  0
    4.3485   -2.8331   -0.7355 H   0  0  0  0  0  0  0  0  0  0  0  0
    3.9511   -2.0204    1.6599 H   0  0  0  0  0  0  0  0  0  0  0  0
    5.2725   -0.8817    1.4080 H   0  0  0  0  0  0  0  0  0  0  0  0
    3.7160   -0.3072    1.9979 H   0  0  0  0  0  0  0  0  0  0  0  0
    0.0676    1.7322    1.2349 H   0  0  0  0  0  0  0  0  0  0  0  0
   -2.3654    1.8926    1.4233 H   0  0  0  0  0  0  0  0  0  0  0  0
   -7.7444   -1.1288   -0.2077 H   0  0  0  0  0  0  0  0  0  0  0  0
 13 10  1  0
 11 10  1  0
 10  9  1  1
 10 12  1  0
  9  8  1  0
  9 14  2  0
  8  7  1  0
  6  7  2  0
  6  5  1  0
  7 15  1  0
  5  4  2  0
  1  2  1  0
 15 16  2  0
  4 16  1  0
  4  3  1  0
  3  2  1  0
  2 17  1  0
 19 17  2  0
 17 18  1  0
  1 20  1  0
  1 21  1  0
  2 22  1  6
  3 23  1  0
  3 24  1  0
  5 25  1  0
  6 26  1  0
  8 27  1  0
 11 28  1  0
 11 29  1  0
 11 30  1  0
 13 31  1  0
 13 32  1  0
 13 33  1  0
 15 34  1  0
 16 35  1  0
 18 36  1  0
M  END
