
     RDKit          3D

 24 23  0  0  0  0  0  0  0  0999 V2000
    2.1779   -1.0491   -0.8656 C   0  0  0  0  0  0  0  0  0  0  0  0
   -0.5992   -0.4526    0.1314 C   0  0  0  0  0  0  0  0  0  0  0  0
   -2.1610    1.0679   -0.8971 C   0  0  0  0  0  0  0  0  0  0  0  0
    2.9421    0.6957    0.5603 C   0  0  0  0  0  0  0  0  0  0  0  0
    1.8647   -0.2317    0.2887 N   0  0  0  0  0  0  0  0  0  0  0  0
    0.6071    0.4798    0.1362 C   0  0  0  0  0  0  0  0  0  0  0  0
   -1.8586    0.2594    0.2662 N   0  0  0  0  0  0  0  0  0  0  0  0
   -2.9386   -0.6661    0.5341 C   0  0  0  0  0  0  0  0  0  0  0  0
    3.1453   -1.5322   -0.7229 H   0  0  0  0  0  0  0  0  0  0  0  0
    1.4391   -1.8381   -1.0020 H   0  0  0  0  0  0  0  0  0  0  0  0
    2.2289   -0.4700   -1.8020 H   0  0  0  0  0  0  0  0  0  0  0  0
   -0.6020   -1.0844   -0.7733 H   0  0  0  0  0  0  0  0  0  0  0  0
   -0.4977   -1.1293    0.9846 H   0  0  0  0  0  0  0  0  0  0  0  0
   -2.2063    0.4815   -1.8293 H   0  0  0  0  0  0  0  0  0  0  0  0
   -3.1282    1.5548   -0.7660 H   0  0  0  0  0  0  0  0  0  0  0  0
   -1.4195    1.8542   -1.0345 H   0  0  0  0  0  0  0  0  0  0  0  0
    3.1040    1.4252   -0.2497 H   0  0  0  0  0  0  0  0  0  0  0  0
    2.7353    1.2556    1.4736 H   0  0  0  0  0  0  0  0  0  0  0  0
    3.8762    0.1509    0.7051 H   0  0  0  0  0  0  0  0  0  0  0  0
    0.6209    1.1071   -0.7716 H   0  0  0  0  0  0  0  0  0  0  0  0
    0.4963    1.1608    0.9850 H   0  0  0  0  0  0  0  0  0  0  0  0
   -3.0924   -1.4019   -0.2719 H   0  0  0  0  0  0  0  0  0  0  0  0
   -2.7410   -1.2191    1.4536 H   0  0  0  0  0  0  0  0  0  0  0  0
   -3.8742   -0.1204    0.6654 H   0  0  0  0  0  0  0  0  0  0  0  0
  1  5  1  0
  4  5  1  0
  5  6  1  0
  3  7  1  0
  6  2  1  0
  7  2  1  0
  7  8  1  0
  1  9  1  0
  1 10  1  0
  1 11  1  0
  2 12  1  0
  2 13  1  0
  3 14  1  0
  3 15  1  0
  3 16  1  0
  4 17  1  0
  4 18  1  0
  4 19  1  0
  6 20  1  0
  6 21  1  0
  8 22  1  0
  8 23  1  0
  8 24  1  0
M  END
