
     RDKit          3D

 34 36  0  0  0  0  0  0  0  0999 V2000
    1.2504    3.0540    0.0026 C   0  0  0  0  0  0  0  0  0  0  0  0
   -2.4757   -0.0107   -0.0895 C   0  0  0  0  0  0  0  0  0  0  0  0
   -3.3699    0.8647    0.5361 C   0  0  0  0  0  0  0  0  0  0  0  0
   -4.6604    0.4225    0.7534 C   0  0  0  0  0  0  0  0  0  0  0  0
   -4.0627   -1.6310   -0.2669 C   0  0  0  0  0  0  0  0  0  0  0  0
   -5.0280   -0.8547    0.3484 C   0  0  0  0  0  0  0  0  0  0  0  0
   -0.0676   -0.3710   -0.6564 C   0  0  0  0  0  0  0  0  0  0  0  0
    0.6016    1.7112    0.2401 C   0  0  2  0  0  0  0  0  0  0  0  0
    1.1321    0.5674   -0.6297 C   0  0  1  0  0  0  0  0  0  0  0  0
    2.4000   -0.0708   -0.1551 C   0  0  0  0  0  0  0  0  0  0  0  0
    2.4411   -0.7758    1.0474 C   0  0  0  0  0  0  0  0  0  0  0  0
    3.5726    0.0642   -0.8916 C   0  0  0  0  0  0  0  0  0  0  0  0
    3.6280   -1.3328    1.4994 C   0  0  0  0  0  0  0  0  0  0  0  0
    4.7637   -0.4908   -0.4406 C   0  0  0  0  0  0  0  0  0  0  0  0
    4.7941   -1.1923    0.7561 C   0  0  0  0  0  0  0  0  0  0  0  0
   -2.8182   -1.2239   -0.4888 N   0  0  0  0  0  0  0  0  0  0  0  0
   -1.1609    0.3966   -0.3260 N   0  0  0  0  0  0  0  0  0  0  0  0
   -0.8297    1.7375   -0.0663 N   0  0  0  0  0  0  0  0  0  0  0  0
    1.1638    3.3572   -1.0428 H   0  0  0  0  0  0  0  0  0  0  0  0
    0.7958    3.8254    0.6239 H   0  0  0  0  0  0  0  0  0  0  0  0
    2.3099    3.0052    0.2507 H   0  0  0  0  0  0  0  0  0  0  0  0
   -3.0598    1.8508    0.8444 H   0  0  0  0  0  0  0  0  0  0  0  0
   -5.3753    1.0745    1.2379 H   0  0  0  0  0  0  0  0  0  0  0  0
   -4.3010   -2.6323   -0.6078 H   0  0  0  0  0  0  0  0  0  0  0  0
   -6.0292   -1.2329    0.4984 H   0  0  0  0  0  0  0  0  0  0  0  0
    0.7075    1.4337    1.2945 H   0  0  0  0  0  0  0  0  0  0  0  0
    1.2715    0.9373   -1.6553 H   0  0  0  0  0  0  0  0  0  0  0  0
    1.5418   -0.8932    1.6409 H   0  0  0  0  0  0  0  0  0  0  0  0
    3.5561    0.6104   -1.8273 H   0  0  0  0  0  0  0  0  0  0  0  0
    3.6425   -1.8798    2.4333 H   0  0  0  0  0  0  0  0  0  0  0  0
    5.6664   -0.3744   -1.0261 H   0  0  0  0  0  0  0  0  0  0  0  0
    5.7199   -1.6277    1.1090 H   0  0  0  0  0  0  0  0  0  0  0  0
   -0.9731    2.2556   -0.9312 H   0  0  0  0  0  0  0  0  0  0  0  0
   -0.0494   -1.5539   -0.8925 O   0  0  0  0  0  0  0  0  0  0  0  0
  6  4  1  0
  6  5  2  0
  4  3  2  0
  5 16  1  0
  3  2  1  0
 16  2  2  0
  2 17  1  0
 17 18  1  0
 17  7  1  0
 18  8  1  0
 34  7  2  0
  7  9  1  0
  8  9  1  0
  8  1  1  0
  9 10  1  0
 10 12  1  0
 10 11  2  0
 12 14  2  0
 11 13  1  0
 14 15  1  0
 13 15  2  0
  1 19  1  0
  1 20  1  0
  1 21  1  0
  3 22  1  0
  4 23  1  0
  5 24  1  0
  6 25  1  0
  8 26  1  1
  9 27  1  6
 11 28  1  0
 12 29  1  0
 13 30  1  0
 14 31  1  0
 15 32  1  0
 18 33  1  0
M  END
