
     RDKit          3D

 43 46  0  0  0  0  0  0  0  0999 V2000
    5.4793   -0.2061    2.0577 F   0  0  0  0  0  0  0  0  0  0  0  0
    6.0217   -0.2716    0.8309 C   0  0  0  0  0  0  0  0  0  0  0  0
    7.3959   -0.3609    0.7333 C   0  0  0  0  0  0  0  0  0  0  0  0
    7.9780   -0.4017   -0.5253 C   0  0  0  0  0  0  0  0  0  0  0  0
    7.1804   -0.3486   -1.6604 C   0  0  0  0  0  0  0  0  0  0  0  0
    5.8031   -0.2595   -1.5319 C   0  0  0  0  0  0  0  0  0  0  0  0
    5.1869   -0.2255   -0.2792 C   0  0  0  0  0  0  0  0  0  0  0  0
    3.7181   -0.1248   -0.1648 C   0  0  0  0  0  0  0  0  0  0  0  0
    3.0287    0.8245   -0.9175 C   0  0  0  0  0  0  0  0  0  0  0  0
    2.9829   -0.9881    0.6488 C   0  0  0  0  0  0  0  0  0  0  0  0
    1.6018   -0.9069    0.6982 C   0  0  0  0  0  0  0  0  0  0  0  0
    0.9164    0.0553   -0.0411 C   0  0  0  0  0  0  0  0  0  0  0  0
    1.6480    0.9175   -0.8533 C   0  0  0  0  0  0  0  0  0  0  0  0
   -0.5645    0.0922   -0.0095 C   0  0  0  0  0  0  0  0  0  0  0  0
   -1.1540   -1.0624   -0.1739 N   0  0  0  0  0  0  0  0  0  0  0  0
   -2.4986   -1.1335   -0.2014 C   0  0  0  0  0  0  0  0  0  0  0  0
   -3.0993   -2.3974   -0.3978 C   0  0  0  0  0  0  0  0  0  0  0  0
   -4.4572   -2.5214   -0.4653 C   0  0  0  0  0  0  0  0  0  0  0  0
   -5.2590   -1.3708   -0.3367 C   0  0  0  0  0  0  0  0  0  0  0  0
   -6.9768   -1.5490   -0.4385 Cl  0  0  0  0  0  0  0  0  0  0  0  0
   -4.7205   -0.1309   -0.1351 C   0  0  0  0  0  0  0  0  0  0  0  0
   -3.3165    0.0099   -0.0589 C   0  0  0  0  0  0  0  0  0  0  0  0
   -2.6536    1.2450    0.1511 C   0  0  0  0  0  0  0  0  0  0  0  0
   -3.4744    2.4736    0.3879 C   0  0  0  0  0  0  0  0  0  0  0  0
   -4.1666    2.6281    1.3602 O   0  0  0  0  0  0  0  0  0  0  0  0
   -3.3503    3.3441   -0.5960 O   0  0  0  0  0  0  0  0  0  0  0  0
   -1.2828    1.3124    0.1970 C   0  0  0  0  0  0  0  0  0  0  0  0
   -0.5680    2.5955    0.5117 C   0  0  0  0  0  0  0  0  0  0  0  0
    8.0010   -0.3891    1.6300 H   0  0  0  0  0  0  0  0  0  0  0  0
    9.0538   -0.4715   -0.6140 H   0  0  0  0  0  0  0  0  0  0  0  0
    7.6282   -0.3821   -2.6445 H   0  0  0  0  0  0  0  0  0  0  0  0
    5.1825   -0.2308   -2.4187 H   0  0  0  0  0  0  0  0  0  0  0  0
    3.5759    1.5052   -1.5576 H   0  0  0  0  0  0  0  0  0  0  0  0
    3.4843   -1.7544    1.2253 H   0  0  0  0  0  0  0  0  0  0  0  0
    1.0491   -1.5983    1.3211 H   0  0  0  0  0  0  0  0  0  0  0  0
    1.1440    1.6596   -1.4589 H   0  0  0  0  0  0  0  0  0  0  0  0
   -2.4591   -3.2634   -0.5018 H   0  0  0  0  0  0  0  0  0  0  0  0
   -4.9163   -3.4880   -0.6213 H   0  0  0  0  0  0  0  0  0  0  0  0
   -5.3736    0.7252   -0.0407 H   0  0  0  0  0  0  0  0  0  0  0  0
   -3.8759    4.1401   -0.4144 H   0  0  0  0  0  0  0  0  0  0  0  0
   -0.3344    3.1613   -0.3911 H   0  0  0  0  0  0  0  0  0  0  0  0
   -1.1607    3.2419    1.1572 H   0  0  0  0  0  0  0  0  0  0  0  0
    0.3694    2.4036    1.0291 H   0  0  0  0  0  0  0  0  0  0  0  0
  1  2  1  0
  2  3  2  0
  2  7  1  0
  3  4  1  0
  3 29  1  0
  4  5  2  0
  4 30  1  0
  5  6  1  0
  5 31  1  0
  6  7  2  0
  6 32  1  0
  7  8  1  0
  8  9  2  0
  8 10  1  0
  9 13  1  0
  9 33  1  0
 10 11  2  0
 10 34  1  0
 11 12  1  0
 11 35  1  0
 12 13  2  0
 12 14  1  0
 13 36  1  0
 14 27  1  0
 14 15  2  0
 15 16  1  0
 16 22  2  0
 16 17  1  0
 17 18  2  0
 17 37  1  0
 18 19  1  0
 18 38  1  0
 19 21  2  0
 19 20  1  0
 21 22  1  0
 21 39  1  0
 22 23  1  0
 23 24  1  0
 23 27  2  0
 24 25  2  0
 24 26  1  0
 26 40  1  0
 27 28  1  0
 28 41  1  0
 28 42  1  0
 28 43  1  0
M  END
