
     RDKit          3D

 54 56  0  0  0  0  0  0  0  0999 V2000
   -2.4225    4.2475   -0.9372 C   0  0  0  0  0  0  0  0  0  0  0  0
   -2.7361    2.8851   -0.3894 C   0  0  0  0  0  0  0  0  0  0  0  0
   -2.0658    1.7546   -0.8292 C   0  0  0  0  0  0  0  0  0  0  0  0
   -2.3247    0.4786   -0.3327 C   0  0  0  0  0  0  0  0  0  0  0  0
   -3.3181    0.3281    0.6297 C   0  0  0  0  0  0  0  0  0  0  0  0
   -3.9995    1.4503    1.0865 C   0  0  0  0  0  0  0  0  0  0  0  0
   -3.7135    2.7161    0.5992 C   0  0  0  0  0  0  0  0  0  0  0  0
   -4.4160    3.7525    1.1079 O   0  0  0  0  0  0  0  0  0  0  0  0
   -3.6655   -1.0403    1.1350 C   0  0  0  0  0  0  0  0  0  0  0  0
   -3.2318   -2.0919    0.1348 C   0  0  0  0  0  0  0  0  0  0  0  0
   -1.8232   -1.9342   -0.1590 N   0  0  0  0  0  0  0  0  0  0  0  0
   -1.5226   -0.7001   -0.8616 C   0  0  2  0  0  0  0  0  0  0  0  0
   -0.0459   -0.3858   -0.7346 C   0  0  0  0  0  0  0  0  0  0  0  0
    0.7100   -0.0291   -1.8419 C   0  0  0  0  0  0  0  0  0  0  0  0
    2.0504    0.3039   -1.7068 C   0  0  0  0  0  0  0  0  0  0  0  0
    2.6716    0.2810   -0.4588 C   0  0  0  0  0  0  0  0  0  0  0  0
    1.9056   -0.0943    0.6533 C   0  0  0  0  0  0  0  0  0  0  0  0
    0.5727   -0.4210    0.5162 C   0  0  0  0  0  0  0  0  0  0  0  0
    4.0804    0.6405   -0.3710 C   0  0  0  0  0  0  0  0  0  0  0  0
    4.8242    0.6985    0.7399 C   0  0  0  0  0  0  0  0  0  0  0  0
    6.2428    1.0770    0.6709 C   0  0  0  0  0  0  0  0  0  0  0  0
    6.8481    1.3607   -0.3369 O   0  0  0  0  0  0  0  0  0  0  0  0
    6.8065    1.0704    1.8774 O   0  0  0  0  0  0  0  0  0  0  0  0
   -1.2515   -3.0844   -0.8356 C   0  0  0  0  0  0  0  0  0  0  0  0
   -1.0876   -4.3226    0.0462 C   0  0  1  0  0  0  0  0  0  0  0  0
   -0.3969   -5.4166   -0.7614 C   0  0  0  0  0  0  0  0  0  0  0  0
   -0.3095   -4.0056    1.3169 C   0  0  0  0  0  0  0  0  0  0  0  0
   -3.2972    4.7288   -1.3821 H   0  0  0  0  0  0  0  0  0  0  0  0
   -2.0356    4.9196   -0.1669 H   0  0  0  0  0  0  0  0  0  0  0  0
   -1.6645    4.1863   -1.7154 H   0  0  0  0  0  0  0  0  0  0  0  0
   -1.3053    1.8801   -1.5921 H   0  0  0  0  0  0  0  0  0  0  0  0
   -1.7496   -0.7990   -1.9403 H   0  0  0  0  0  0  0  0  0  0  0  0
   -4.7759    1.3374    1.8355 H   0  0  0  0  0  0  0  0  0  0  0  0
   -3.1693   -1.2315    2.0912 H   0  0  0  0  0  0  0  0  0  0  0  0
   -4.7398   -1.1137    1.3181 H   0  0  0  0  0  0  0  0  0  0  0  0
   -4.1490    4.5832    0.7010 H   0  0  0  0  0  0  0  0  0  0  0  0
   -3.3949   -3.0823    0.5593 H   0  0  0  0  0  0  0  0  0  0  0  0
   -3.8568   -2.0325   -0.7732 H   0  0  0  0  0  0  0  0  0  0  0  0
   -1.8332   -3.3506   -1.7357 H   0  0  0  0  0  0  0  0  0  0  0  0
   -0.2550   -2.8081   -1.1921 H   0  0  0  0  0  0  0  0  0  0  0  0
    0.2501   -0.0123   -2.8232 H   0  0  0  0  0  0  0  0  0  0  0  0
   -0.0010   -0.7207    1.3835 H   0  0  0  0  0  0  0  0  0  0  0  0
    2.6226    0.5797   -2.5845 H   0  0  0  0  0  0  0  0  0  0  0  0
    2.3543   -0.1333    1.6377 H   0  0  0  0  0  0  0  0  0  0  0  0
    4.5570    0.8840   -1.3159 H   0  0  0  0  0  0  0  0  0  0  0  0
    4.4187    0.4719    1.7180 H   0  0  0  0  0  0  0  0  0  0  0  0
    7.7395    1.3169    1.8019 H   0  0  0  0  0  0  0  0  0  0  0  0
   -2.0757   -4.7004    0.3320 H   0  0  0  0  0  0  0  0  0  0  0  0
    0.6070   -5.1041   -1.0594 H   0  0  0  0  0  0  0  0  0  0  0  0
   -0.2981   -6.3340   -0.1796 H   0  0  0  0  0  0  0  0  0  0  0  0
   -0.9511   -5.6592   -1.6702 H   0  0  0  0  0  0  0  0  0  0  0  0
   -0.1745   -4.9020    1.9248 H   0  0  0  0  0  0  0  0  0  0  0  0
    0.6817   -3.6123    1.0776 H   0  0  0  0  0  0  0  0  0  0  0  0
   -0.8195   -3.2573    1.9231 H   0  0  0  0  0  0  0  0  0  0  0  0
  1  2  1  0
  2  3  2  0
  2  7  1  0
  3  4  1  0
  4  5  2  0
  4 12  1  0
  5  6  1  0
  5  9  1  0
  6  7  2  0
  7  8  1  0
  9 10  1  0
 10 11  1  0
 11 12  1  0
 11 24  1  0
 12 13  1  0
 13 14  2  0
 13 18  1  0
 14 15  1  0
 15 16  2  0
 16 17  1  0
 16 19  1  0
 17 18  2  0
 19 20  2  0
 20 21  1  0
 21 22  2  0
 21 23  1  0
 24 25  1  0
 25 26  1  0
 25 27  1  0
  1 28  1  0
  1 29  1  0
  1 30  1  0
  3 31  1  0
 12 32  1  6
  6 33  1  0
  9 34  1  0
  9 35  1  0
  8 36  1  0
 10 37  1  0
 10 38  1  0
 24 39  1  0
 24 40  1  0
 14 41  1  0
 18 42  1  0
 15 43  1  0
 17 44  1  0
 19 45  1  0
 20 46  1  0
 23 47  1  0
 25 48  1  1
 26 49  1  0
 26 50  1  0
 26 51  1  0
 27 52  1  0
 27 53  1  0
 27 54  1  0
M  END
