
     RDKit          3D

 21 21  0  0  0  0  0  0  0  0999 V2000
    3.2203   -1.1940   -0.3681 C   0  0  0  0  0  0  0  0  0  0  0  0
    3.9006   -0.0034   -0.5927 C   0  0  0  0  0  0  0  0  0  0  0  0
    3.2956    1.2067   -0.2801 C   0  0  0  0  0  0  0  0  0  0  0  0
    2.0124    1.2246    0.2503 C   0  0  0  0  0  0  0  0  0  0  0  0
    1.3245    0.0369    0.4781 C   0  0  0  0  0  0  0  0  0  0  0  0
    1.9391   -1.1725    0.1642 C   0  0  0  0  0  0  0  0  0  0  0  0
   -0.0706    0.0589    1.0230 C   0  0  0  0  0  0  0  0  0  0  0  0
   -2.2642   -0.0583    0.1634 C   0  0  0  0  0  0  0  0  0  0  0  0
   -2.9574   -0.0798   -1.0094 N   0  0  0  0  0  0  0  0  0  0  0  0
   -0.9584   -0.0419   -0.0998 O   0  0  0  0  0  0  0  0  0  0  0  0
   -2.7557   -0.0088    1.2650 O   0  0  0  0  0  0  0  0  0  0  0  0
   -4.2775   -0.4304   -0.9184 O   0  0  0  0  0  0  0  0  0  0  0  0
    3.6892   -2.1403   -0.6046 H   0  0  0  0  0  0  0  0  0  0  0  0
    4.9009   -0.0188   -1.0062 H   0  0  0  0  0  0  0  0  0  0  0  0
    3.8229    2.1366   -0.4494 H   0  0  0  0  0  0  0  0  0  0  0  0
    1.5456    2.1716    0.4935 H   0  0  0  0  0  0  0  0  0  0  0  0
    1.4172   -2.1052    0.3423 H   0  0  0  0  0  0  0  0  0  0  0  0
   -0.2372   -0.7769    1.7056 H   0  0  0  0  0  0  0  0  0  0  0  0
   -0.2607    0.9860    1.5673 H   0  0  0  0  0  0  0  0  0  0  0  0
   -2.5064   -0.4532   -1.8343 H   0  0  0  0  0  0  0  0  0  0  0  0
   -4.7712    0.3770   -1.1042 H   0  0  0  0  0  0  0  0  0  0  0  0
  4  3  2  0
  4  5  1  0
  3  2  1  0
  7  5  1  0
  7 10  1  0
  9 12  1  0
  9  8  1  0
  5  6  2  0
 10  8  1  0
  2  1  2  0
  8 11  2  0
  6  1  1  0
  1 13  1  0
  2 14  1  0
  3 15  1  0
  4 16  1  0
  6 17  1  0
  7 18  1  0
  7 19  1  0
  9 20  1  0
 12 21  1  0
M  END
