
     RDKit          3D

 99102  0  0  0  0  0  0  0  0999 V2000
   -1.2626   -0.6569   -0.0457 N   0  0  0  0  0  0  0  0  0  0  0  0
   -1.6758   -1.9194   -0.2745 C   0  0  0  0  0  0  0  0  0  0  0  0
   -0.8864   -2.7017   -1.3346 C   0  0  1  0  0  0  0  0  0  0  0  0
    0.5188   -2.7632   -0.9851 N   0  0  0  0  0  0  0  0  0  0  0  0
    0.9902   -2.9429    0.2651 C   0  0  0  0  0  0  0  0  0  0  0  0
    2.3228   -2.8470    0.2861 O   0  0  0  0  0  0  0  0  0  0  0  0
    2.9717   -3.0900    1.5343 C   0  0  0  0  0  0  0  0  0  0  0  0
    4.4665   -2.7927    1.4276 C   0  0  1  0  0  0  0  0  0  0  0  0
    5.0455   -3.1958    2.7878 C   0  0  0  0  0  0  0  0  0  0  0  0
    5.1089   -3.6439    0.3305 C   0  0  0  0  0  0  0  0  0  0  0  0
    4.6823   -1.2905    1.1597 C   0  0  0  0  0  0  0  0  0  0  0  0
    6.1243   -0.7974    1.2747 C   0  0  0  0  0  0  0  0  0  0  0  0
    6.2721    0.6987    0.9975 C   0  0  0  0  0  0  0  0  0  0  0  0
    6.2016    1.0674   -0.4899 C   0  0  0  0  0  0  0  0  0  0  0  0
    6.0570    2.5413   -0.6973 C   0  0  0  0  0  0  0  0  0  0  0  0
    4.7920    3.2277   -0.2672 C   0  0  2  0  0  0  0  0  0  0  0  0
    3.4831    2.4597   -0.2599 C   0  0  0  0  0  0  0  0  0  0  0  0
    2.5020    3.5425   -0.3457 N   0  0  0  0  0  0  0  0  0  0  0  0
    1.1759    3.3358   -0.3562 C   0  0  0  0  0  0  0  0  0  0  0  0
    0.9216    2.0340   -0.1882 O   0  0  0  0  0  0  0  0  0  0  0  0
   -0.3983    1.5258   -0.2943 C   0  0  1  0  0  0  0  0  0  0  0  0
   -0.2609    0.0853   -0.7883 C   0  0  0  0  0  0  0  0  0  0  0  0
   -1.0926    1.3989    1.0558 C   0  0  0  0  0  0  0  0  0  0  0  0
   -1.9920    0.1734    0.9019 C   0  0  1  0  0  0  0  0  0  0  0  0
   -3.3505    0.5428    0.3092 C   0  0  0  0  0  0  0  0  0  0  0  0
   -4.3939    0.3531    1.1089 N   0  0  0  0  0  0  0  0  0  0  0  0
   -5.7965    0.5108    0.7338 C   0  0  1  0  0  0  0  0  0  0  0  0
   -6.5719   -0.8953    1.1641 B   0  0  1  0  0  0  0  0  0  0  0  0
   -6.3688   -1.0092    2.6278 O   0  0  0  0  0  0  0  0  0  0  0  0
   -7.9953   -0.9071    0.7962 O   0  0  0  0  0  0  0  0  0  0  0  0
   -6.3481    1.8235    1.3109 C   0  0  0  0  0  0  0  0  0  0  0  0
   -7.5134    2.3697    0.5062 C   0  0  0  0  0  0  0  0  0  0  0  0
   -7.9608    3.5742    1.0987 O   0  0  0  0  0  0  0  0  0  0  0  0
   -3.4082    0.9890   -0.8347 O   0  0  0  0  0  0  0  0  0  0  0  0
    0.3249    4.1924   -0.4941 O   0  0  0  0  0  0  0  0  0  0  0  0
    3.1052    4.8348   -0.6684 C   0  0  0  0  0  0  0  0  0  0  0  0
    4.4728    4.4030   -1.1749 C   0  0  1  0  0  0  0  0  0  0  0  0
    5.6315    5.3453   -1.2088 C   0  0  0  0  0  0  0  0  0  0  0  0
    6.8546    4.7975   -1.2181 C   0  0  0  0  0  0  0  0  0  0  0  0
    7.0385    3.3472   -1.1353 C   0  0  0  0  0  0  0  0  0  0  0  0
    0.3052   -3.1460    1.2454 O   0  0  0  0  0  0  0  0  0  0  0  0
   -1.4845   -4.0617   -1.7740 C   0  0  1  0  0  0  0  0  0  0  0  0
   -2.8952   -3.8474   -2.3332 C   0  0  0  0  0  0  0  0  0  0  0  0
   -0.6103   -4.5924   -2.9176 C   0  0  0  0  0  0  0  0  0  0  0  0
   -1.5035   -5.1082   -0.6611 C   0  0  0  0  0  0  0  0  0  0  0  0
   -2.6495   -2.3721    0.3081 O   0  0  0  0  0  0  0  0  0  0  0  0
   -6.0058   -2.0320    0.4230 O   0  0  0  0  0  0  0  0  0  0  0  0
    0.7470   -0.2689   -0.5687 H   0  0  0  0  0  0  0  0  0  0  0  0
   -0.4146    0.0129   -1.8662 H   0  0  0  0  0  0  0  0  0  0  0  0
   -2.1044   -0.3478    1.8546 H   0  0  0  0  0  0  0  0  0  0  0  0
   -0.9203   -2.0762   -2.2350 H   0  0  0  0  0  0  0  0  0  0  0  0
    1.1877   -2.6049   -1.7212 H   0  0  0  0  0  0  0  0  0  0  0  0
    2.5301   -2.4647    2.3157 H   0  0  0  0  0  0  0  0  0  0  0  0
    2.8244   -4.1365    1.8198 H   0  0  0  0  0  0  0  0  0  0  0  0
    4.8343   -4.2453    3.0027 H   0  0  0  0  0  0  0  0  0  0  0  0
    6.1277   -3.0739    2.8167 H   0  0  0  0  0  0  0  0  0  0  0  0
    4.6210   -2.5988    3.5985 H   0  0  0  0  0  0  0  0  0  0  0  0
    4.7609   -3.3584   -0.6629 H   0  0  0  0  0  0  0  0  0  0  0  0
    6.1947   -3.5365    0.3408 H   0  0  0  0  0  0  0  0  0  0  0  0
    4.8871   -4.7041    0.4726 H   0  0  0  0  0  0  0  0  0  0  0  0
    4.2912   -1.0541    0.1653 H   0  0  0  0  0  0  0  0  0  0  0  0
    4.0700   -0.7193    1.8680 H   0  0  0  0  0  0  0  0  0  0  0  0
    6.4936   -0.9907    2.2843 H   0  0  0  0  0  0  0  0  0  0  0  0
    6.7806   -1.3569    0.6006 H   0  0  0  0  0  0  0  0  0  0  0  0
    5.5041    1.2393    1.5602 H   0  0  0  0  0  0  0  0  0  0  0  0
    7.2307    1.0483    1.3890 H   0  0  0  0  0  0  0  0  0  0  0  0
    7.1028    0.7057   -0.9919 H   0  0  0  0  0  0  0  0  0  0  0  0
    5.3589    0.5463   -0.9570 H   0  0  0  0  0  0  0  0  0  0  0  0
    8.0055    2.9355   -1.4029 H   0  0  0  0  0  0  0  0  0  0  0  0
    3.4034    1.7903   -1.1219 H   0  0  0  0  0  0  0  0  0  0  0  0
    2.5189    5.3659   -1.4175 H   0  0  0  0  0  0  0  0  0  0  0  0
   -0.9842    2.1286   -0.9866 H   0  0  0  0  0  0  0  0  0  0  0  0
   -0.3456    1.2009    1.8276 H   0  0  0  0  0  0  0  0  0  0  0  0
   -1.6406    2.2953    1.3444 H   0  0  0  0  0  0  0  0  0  0  0  0
   -4.2228   -0.0708    2.0083 H   0  0  0  0  0  0  0  0  0  0  0  0
   -5.8054    0.6049   -0.3576 H   0  0  0  0  0  0  0  0  0  0  0  0
   -6.6510    1.6888    2.3548 H   0  0  0  0  0  0  0  0  0  0  0  0
   -5.5612    2.5867    1.3113 H   0  0  0  0  0  0  0  0  0  0  0  0
   -6.6480   -1.8819    2.9190 H   0  0  0  0  0  0  0  0  0  0  0  0
   -8.4671   -0.2591    1.3232 H   0  0  0  0  0  0  0  0  0  0  0  0
   -5.0460   -1.9871    0.4423 H   0  0  0  0  0  0  0  0  0  0  0  0
   -7.1782    2.5369   -0.5273 H   0  0  0  0  0  0  0  0  0  0  0  0
   -8.3232    1.6339    0.4510 H   0  0  0  0  0  0  0  0  0  0  0  0
   -8.6951    3.9082    0.5763 H   0  0  0  0  0  0  0  0  0  0  0  0
    5.4861    6.4142   -1.3085 H   0  0  0  0  0  0  0  0  0  0  0  0
    7.7358    5.4209   -1.3113 H   0  0  0  0  0  0  0  0  0  0  0  0
   -2.9011   -3.0868   -3.1184 H   0  0  0  0  0  0  0  0  0  0  0  0
   -3.2572   -4.7745   -2.7817 H   0  0  0  0  0  0  0  0  0  0  0  0
   -3.6081   -3.5480   -1.5689 H   0  0  0  0  0  0  0  0  0  0  0  0
    0.4062   -4.8102   -2.5871 H   0  0  0  0  0  0  0  0  0  0  0  0
   -1.0323   -5.5200   -3.3090 H   0  0  0  0  0  0  0  0  0  0  0  0
   -0.5514   -3.8805   -3.7451 H   0  0  0  0  0  0  0  0  0  0  0  0
   -2.0814   -4.7817    0.1998 H   0  0  0  0  0  0  0  0  0  0  0  0
   -1.9488   -6.0320   -1.0368 H   0  0  0  0  0  0  0  0  0  0  0  0
   -0.4961   -5.3542   -0.3244 H   0  0  0  0  0  0  0  0  0  0  0  0
    4.9561    3.6257    0.7485 H   0  0  0  0  0  0  0  0  0  0  0  0
    3.3489    1.8640    0.6434 H   0  0  0  0  0  0  0  0  0  0  0  0
    3.1829    5.4708    0.2188 H   0  0  0  0  0  0  0  0  0  0  0  0
    4.3320    4.0092   -2.1959 H   0  0  0  0  0  0  0  0  0  0  0  0
  1  2  1  0
  1 22  1  0
  1 24  1  0
  2  3  1  0
  2 46  2  0
  3  4  1  0
  3 42  1  0
  3 51  1  6
  4  5  1  0
  4 52  1  0
  5  6  1  0
  5 41  2  0
  6  7  1  0
  7  8  1  0
  7 53  1  0
  7 54  1  0
  8  9  1  1
  8 10  1  0
  8 11  1  0
  9 55  1  0
  9 56  1  0
  9 57  1  0
 10 58  1  0
 10 59  1  0
 10 60  1  0
 11 12  1  0
 11 61  1  0
 11 62  1  0
 12 13  1  0
 12 63  1  0
 12 64  1  0
 13 14  1  0
 13 65  1  0
 13 66  1  0
 14 15  1  0
 14 67  1  0
 14 68  1  0
 15 16  1  0
 15 40  2  0
 16 17  1  0
 16 37  1  0
 17 18  1  0
 17 70  1  0
 18 19  1  0
 18 36  1  0
 19 20  1  0
 19 35  2  0
 20 21  1  0
 21 22  1  0
 21 23  1  0
 21 72  1  6
 22 48  1  0
 22 49  1  0
 23 24  1  0
 23 73  1  0
 23 74  1  0
 24 25  1  0
 24 50  1  1
 25 26  1  0
 25 34  2  0
 26 27  1  0
 26 75  1  0
 27 28  1  0
 27 31  1  0
 27 76  1  6
 28 29  1  1
 28 30  1  0
 28 47  1  0
 29 79  1  0
 30 80  1  0
 31 32  1  0
 31 77  1  0
 31 78  1  0
 32 33  1  0
 32 82  1  0
 32 83  1  0
 33 84  1  0
 36 37  1  0
 36 71  1  0
 37 38  1  0
 38 39  2  0
 38 85  1  0
 39 40  1  0
 39 86  1  0
 40 69  1  0
 42 43  1  6
 42 44  1  0
 42 45  1  0
 43 87  1  0
 43 88  1  0
 43 89  1  0
 44 90  1  0
 44 91  1  0
 44 92  1  0
 45 93  1  0
 45 94  1  0
 45 95  1  0
 47 81  1  0
 16 96  1  1
 17 97  1  0
 36 98  1  0
 37 99  1  6
M  CHG  1  28  -1
M  END
