
     RDKit          3D

 41 42  0  0  0  0  0  0  0  0999 V2000
    3.3995    1.0412   -0.5920 C   0  0  0  0  0  0  0  0  0  0  0  0
    2.0424    0.9138   -0.4342 C   0  0  0  0  0  0  0  0  0  0  0  0
    3.6719   -1.0489    0.4885 C   0  0  0  0  0  0  0  0  0  0  0  0
    4.2685    0.0523   -0.1173 C   0  0  0  0  0  0  0  0  0  0  0  0
    1.5462   -0.2463    0.1975 C   0  0  0  0  0  0  0  0  0  0  0  0
    5.7298    0.2143   -0.3119 C   0  0  0  0  0  0  0  0  0  0  0  0
   -3.8090   -1.8683   -0.6783 C   0  0  0  0  0  0  0  0  0  0  0  0
   -4.8973   -0.8040   -0.7471 C   0  0  0  0  0  0  0  0  0  0  0  0
   -2.4184   -1.2575   -0.8100 C   0  0  0  0  0  0  0  0  0  0  0  0
   -3.2878    0.8920    0.1559 C   0  0  0  0  0  0  0  0  0  0  0  0
   -4.6846    0.2896    0.2963 C   0  0  1  0  0  0  0  0  0  0  0  0
   -2.1894   -0.1653    0.2341 C   0  0  2  0  0  0  0  0  0  0  0  0
   -5.7439    1.3834    0.2214 C   0  0  0  0  0  0  0  0  0  0  0  0
   -0.8184    0.4864    0.1008 C   0  0  0  0  0  0  0  0  0  0  0  0
    2.3703   -1.2042    0.6441 N   0  0  0  0  0  0  0  0  0  0  0  0
    6.5344   -0.6133    0.3790 N   0  0  0  0  0  0  0  0  0  0  0  0
   -7.0805    0.8637    0.4675 N   0  0  0  0  0  0  0  0  0  0  0  0
    0.2314   -0.4665    0.3759 N   0  0  0  0  0  0  0  0  0  0  0  0
    6.1726    1.0612   -1.0802 O   0  0  0  0  0  0  0  0  0  0  0  0
    3.7981    1.9220   -1.0777 H   0  0  0  0  0  0  0  0  0  0  0  0
    1.3775    1.6886   -0.7877 H   0  0  0  0  0  0  0  0  0  0  0  0
    4.2709   -1.8736    0.8622 H   0  0  0  0  0  0  0  0  0  0  0  0
   -3.8786   -2.4042    0.2750 H   0  0  0  0  0  0  0  0  0  0  0  0
   -3.9621   -2.6151   -1.4613 H   0  0  0  0  0  0  0  0  0  0  0  0
   -4.8907   -0.3432   -1.7433 H   0  0  0  0  0  0  0  0  0  0  0  0
   -5.8835   -1.2534   -0.6203 H   0  0  0  0  0  0  0  0  0  0  0  0
   -1.6583   -2.0379   -0.7232 H   0  0  0  0  0  0  0  0  0  0  0  0
   -2.3022   -0.8229   -1.8103 H   0  0  0  0  0  0  0  0  0  0  0  0
   -3.2186    1.4218   -0.8036 H   0  0  0  0  0  0  0  0  0  0  0  0
   -3.1301    1.6434    0.9361 H   0  0  0  0  0  0  0  0  0  0  0  0
   -4.7460   -0.1716    1.2930 H   0  0  0  0  0  0  0  0  0  0  0  0
   -2.2458   -0.6265    1.2306 H   0  0  0  0  0  0  0  0  0  0  0  0
   -5.4592    2.1916    0.9123 H   0  0  0  0  0  0  0  0  0  0  0  0
   -5.7268    1.8204   -0.7824 H   0  0  0  0  0  0  0  0  0  0  0  0
   -0.7053    0.8780   -0.9154 H   0  0  0  0  0  0  0  0  0  0  0  0
   -0.7526    1.3444    0.7822 H   0  0  0  0  0  0  0  0  0  0  0  0
    6.2037   -1.1986    1.1254 H   0  0  0  0  0  0  0  0  0  0  0  0
    7.5325   -0.5085    0.2983 H   0  0  0  0  0  0  0  0  0  0  0  0
   -7.1523    0.5767    1.4361 H   0  0  0  0  0  0  0  0  0  0  0  0
   -7.7577    1.6070    0.3533 H   0  0  0  0  0  0  0  0  0  0  0  0
   -0.0012   -1.2691    0.9404 H   0  0  0  0  0  0  0  0  0  0  0  0
  7  8  1  0
  7  9  1  0
  8 11  1  0
  9 12  1  0
 17 13  1  0
 11 13  1  0
 11 10  1  0
 12 10  1  0
 12 14  1  0
 14 18  1  0
 18  5  1  0
  2  5  1  0
  2  1  2  0
  5 15  2  0
  1  4  1  0
 15  3  1  0
  4  3  2  0
  4  6  1  0
 19  6  2  0
  6 16  1  0
  1 20  1  0
  2 21  1  0
  3 22  1  0
  7 23  1  0
  7 24  1  0
  8 25  1  0
  8 26  1  0
  9 27  1  0
  9 28  1  0
 10 29  1  0
 10 30  1  0
 11 31  1  1
 12 32  1  1
 13 33  1  0
 13 34  1  0
 14 35  1  0
 14 36  1  0
 16 37  1  0
 16 38  1  0
 17 39  1  0
 17 40  1  0
 18 41  1  0
M  END
