
     RDKit          3D

 32 32  0  0  0  0  0  0  0  0999 V2000
   -0.8662   -0.1383    1.8346 C   0  0  0  0  0  0  0  0  0  0  0  0
   -0.5247    0.2435    0.3985 C   0  0  2  0  0  0  0  0  0  0  0  0
   -1.8199    0.3541   -0.3783 C   0  0  0  0  0  0  0  0  0  0  0  0
   -2.6386   -0.5299   -0.4370 O   0  0  0  0  0  0  0  0  0  0  0  0
    0.3896   -0.7807   -0.2993 C   0  0  0  0  0  0  0  0  0  0  0  0
    0.6115   -0.4484   -1.7478 C   0  0  0  0  0  0  0  0  0  0  0  0
    1.4832    0.5761   -2.1123 C   0  0  0  0  0  0  0  0  0  0  0  0
   -0.0699   -1.1309   -2.7516 C   0  0  0  0  0  0  0  0  0  0  0  0
    1.6664    0.9128   -3.4456 C   0  0  0  0  0  0  0  0  0  0  0  0
    0.1113   -0.7985   -4.0883 C   0  0  0  0  0  0  0  0  0  0  0  0
    0.9787    0.2264   -4.4394 C   0  0  0  0  0  0  0  0  0  0  0  0
   -1.9496    1.5158   -0.9973 O   0  0  0  0  0  0  0  0  0  0  0  0
    0.6167   -0.1023    2.8983 S   0  0  2  0  0  0  0  0  0  0  0  0
    1.5172    1.1201    2.6312 N   0  0  0  0  0  0  0  0  0  0  0  0
    1.4638   -1.3838    2.7560 N   0  0  0  0  0  0  0  0  0  0  0  0
   -0.1817    0.0180    4.5061 C   0  0  0  0  0  0  0  0  0  0  0  0
   -1.3003   -1.1371    1.9101 H   0  0  0  0  0  0  0  0  0  0  0  0
   -1.5690    0.5770    2.2679 H   0  0  0  0  0  0  0  0  0  0  0  0
   -0.0260    1.2149    0.4092 H   0  0  0  0  0  0  0  0  0  0  0  0
    1.3405   -0.8046    0.2332 H   0  0  0  0  0  0  0  0  0  0  0  0
   -0.0466   -1.7776   -0.2031 H   0  0  0  0  0  0  0  0  0  0  0  0
    2.0288    1.1146   -1.3454 H   0  0  0  0  0  0  0  0  0  0  0  0
   -0.7457   -1.9360   -2.4879 H   0  0  0  0  0  0  0  0  0  0  0  0
    2.3486    1.7107   -3.7099 H   0  0  0  0  0  0  0  0  0  0  0  0
   -0.4254   -1.3434   -4.8543 H   0  0  0  0  0  0  0  0  0  0  0  0
    1.1211    0.4876   -5.4800 H   0  0  0  0  0  0  0  0  0  0  0  0
   -2.7758    1.5314   -1.5052 H   0  0  0  0  0  0  0  0  0  0  0  0
    1.0411    1.9745    2.9032 H   0  0  0  0  0  0  0  0  0  0  0  0
    0.8613   -2.1976    2.6919 H   0  0  0  0  0  0  0  0  0  0  0  0
    0.6155   -0.0231    5.2458 H   0  0  0  0  0  0  0  0  0  0  0  0
   -0.7242    0.9580    4.5846 H   0  0  0  0  0  0  0  0  0  0  0  0
   -0.8614   -0.8217    4.6409 H   0  0  0  0  0  0  0  0  0  0  0  0
  1  2  1  0
 13  1  1  6
  1 17  1  0
  1 18  1  0
  2  3  1  0
  2  5  1  0
  2 19  1  1
  3  4  2  0
  3 12  1  0
  5  6  1  0
  5 20  1  0
  5 21  1  0
  6  7  2  0
  6  8  1  0
  7  9  1  0
  7 22  1  0
  8 10  2  0
  8 23  1  0
  9 11  2  0
  9 24  1  0
 10 11  1  0
 10 25  1  0
 11 26  1  0
 12 27  1  0
 13 14  2  0
 13 15  2  0
 13 16  1  0
 14 28  1  0
 15 29  1  0
 16 30  1  0
 16 31  1  0
 16 32  1  0
M  END
