
     RDKit          3D

 65 67  0  0  0  0  0  0  0  0999 V2000
    6.3466    0.8361    0.6429 C   0  0  0  0  0  0  0  0  0  0  0  0
    7.3458    0.1670   -0.0570 C   0  0  0  0  0  0  0  0  0  0  0  0
    7.0997   -0.9490   -0.7316 N   0  0  0  0  0  0  0  0  0  0  0  0
    5.8714   -1.4440   -0.7318 C   0  0  0  0  0  0  0  0  0  0  0  0
    4.8059   -0.8591   -0.0605 C   0  0  0  0  0  0  0  0  0  0  0  0
    5.0661    0.3145    0.6377 C   0  0  0  0  0  0  0  0  0  0  0  0
    3.4322   -1.4710   -0.1059 C   0  0  0  0  0  0  0  0  0  0  0  0
    8.7612    0.6691   -0.0919 C   0  0  0  0  0  0  0  0  0  0  0  0
    9.2309    1.5967    0.6518 N   0  0  0  0  0  0  0  0  0  0  0  0
    9.5305    0.0650   -1.0260 N   0  0  0  0  0  0  0  0  0  0  0  0
    2.4402   -0.5576   -0.6225 N   0  0  0  0  0  0  0  0  0  0  0  0
    1.5352    0.0769    0.1369 C   0  0  0  0  0  0  0  0  0  0  0  0
    0.6598    1.0765   -0.6256 C   0  0  2  0  0  0  0  0  0  0  0  0
    1.4328   -0.0568    1.3435 O   0  0  0  0  0  0  0  0  0  0  0  0
    1.1527    2.4733   -0.3835 C   0  0  0  0  0  0  0  0  0  0  0  0
    0.2618    3.1854    0.2902 C   0  0  0  0  0  0  0  0  0  0  0  0
   -0.9691    2.3923    0.5857 C   0  0  0  0  0  0  0  0  0  0  0  0
   -0.6774    1.1247   -0.0726 N   0  0  0  0  0  0  0  0  0  0  0  0
   -1.4462    0.0210   -0.1060 C   0  0  0  0  0  0  0  0  0  0  0  0
   -2.8590    0.1269    0.4734 C   0  0  2  0  0  0  0  0  0  0  0  0
   -1.0279   -1.0112   -0.6152 O   0  0  0  0  0  0  0  0  0  0  0  0
   -3.3366   -1.0969    1.0757 N   0  0  0  0  0  0  0  0  0  0  0  0
   -3.5608   -2.2564    0.2545 C   0  0  0  0  0  0  0  0  0  0  0  0
   -4.4928   -3.2296    0.9363 C   0  0  0  0  0  0  0  0  0  0  0  0
   -4.7279   -4.2839    0.1594 O   0  0  0  0  0  0  0  0  0  0  0  0
   -4.9574   -3.1052    2.0401 O   0  0  0  0  0  0  0  0  0  0  0  0
   -3.7797    0.6977   -0.6162 C   0  0  0  0  0  0  0  0  0  0  0  0
   -5.1626    1.1700   -0.1565 C   0  0  1  0  0  0  0  0  0  0  0  0
   -5.7268    2.1554   -1.1848 C   0  0  0  0  0  0  0  0  0  0  0  0
   -7.1169    2.6593   -0.8134 C   0  0  0  0  0  0  0  0  0  0  0  0
   -8.0879    1.5036   -0.5993 C   0  0  0  0  0  0  0  0  0  0  0  0
   -7.5459    0.5290    0.4387 C   0  0  0  0  0  0  0  0  0  0  0  0
   -6.1548    0.0258    0.0662 C   0  0  0  0  0  0  0  0  0  0  0  0
    6.5446    1.7545    1.1783 H   0  0  0  0  0  0  0  0  0  0  0  0
    5.7189   -2.3556   -1.3007 H   0  0  0  0  0  0  0  0  0  0  0  0
    4.2778    0.8213    1.1809 H   0  0  0  0  0  0  0  0  0  0  0  0
    3.4475   -2.3666   -0.7285 H   0  0  0  0  0  0  0  0  0  0  0  0
    3.1268   -1.7816    0.8930 H   0  0  0  0  0  0  0  0  0  0  0  0
    8.5330    1.9605    1.2871 H   0  0  0  0  0  0  0  0  0  0  0  0
   10.5253    0.2067   -0.9846 H   0  0  0  0  0  0  0  0  0  0  0  0
    9.2051   -0.7962   -1.4305 H   0  0  0  0  0  0  0  0  0  0  0  0
    2.4415   -0.3912   -1.6164 H   0  0  0  0  0  0  0  0  0  0  0  0
    0.6427    0.8289   -1.6930 H   0  0  0  0  0  0  0  0  0  0  0  0
    2.1221    2.8076   -0.7240 H   0  0  0  0  0  0  0  0  0  0  0  0
    0.3728    4.2134    0.6037 H   0  0  0  0  0  0  0  0  0  0  0  0
   -1.1249    2.2728    1.6625 H   0  0  0  0  0  0  0  0  0  0  0  0
   -1.8652    2.8717    0.1796 H   0  0  0  0  0  0  0  0  0  0  0  0
   -2.8434    0.8576    1.2889 H   0  0  0  0  0  0  0  0  0  0  0  0
   -2.7717   -1.3326    1.8797 H   0  0  0  0  0  0  0  0  0  0  0  0
   -4.0244   -1.9685   -0.6913 H   0  0  0  0  0  0  0  0  0  0  0  0
   -2.6552   -2.8077   -0.0238 H   0  0  0  0  0  0  0  0  0  0  0  0
   -5.3100   -4.9082    0.6170 H   0  0  0  0  0  0  0  0  0  0  0  0
   -3.2610    1.5558   -1.0564 H   0  0  0  0  0  0  0  0  0  0  0  0
   -3.8868   -0.0178   -1.4375 H   0  0  0  0  0  0  0  0  0  0  0  0
   -5.0414    1.7103    0.7931 H   0  0  0  0  0  0  0  0  0  0  0  0
   -5.0401    2.9994   -1.2968 H   0  0  0  0  0  0  0  0  0  0  0  0
   -5.7697    1.6601   -2.1629 H   0  0  0  0  0  0  0  0  0  0  0  0
   -7.0547    3.2532    0.1053 H   0  0  0  0  0  0  0  0  0  0  0  0
   -7.4903    3.3317   -1.5899 H   0  0  0  0  0  0  0  0  0  0  0  0
   -9.0673    1.8810   -0.2941 H   0  0  0  0  0  0  0  0  0  0  0  0
   -8.2402    0.9775   -1.5484 H   0  0  0  0  0  0  0  0  0  0  0  0
   -7.5015    1.0278    1.4136 H   0  0  0  0  0  0  0  0  0  0  0  0
   -8.2270   -0.3176    0.5567 H   0  0  0  0  0  0  0  0  0  0  0  0
   -6.2207   -0.5640   -0.8574 H   0  0  0  0  0  0  0  0  0  0  0  0
   -5.7804   -0.6424    0.8409 H   0  0  0  0  0  0  0  0  0  0  0  0
  1  2  2  0
  1  6  1  0
  1 34  1  0
  2  3  1  0
  2  8  1  0
  3  4  2  0
  4  5  1  0
  4 35  1  0
  5  6  2  0
  5  7  1  0
  6 36  1  0
  7 11  1  0
  7 37  1  0
  7 38  1  0
  8  9  2  0
  8 10  1  0
  9 39  1  0
 10 40  1  0
 10 41  1  0
 11 12  1  0
 11 42  1  0
 12 13  1  0
 12 14  2  0
 13 15  1  0
 13 18  1  0
 13 43  1  6
 15 16  2  0
 15 44  1  0
 16 17  1  0
 16 45  1  0
 17 18  1  0
 17 46  1  0
 17 47  1  0
 18 19  1  0
 19 20  1  0
 19 21  2  0
 20 22  1  0
 20 27  1  0
 20 48  1  1
 22 23  1  0
 22 49  1  0
 23 24  1  0
 23 50  1  0
 23 51  1  0
 24 25  1  0
 24 26  2  0
 25 52  1  0
 27 28  1  0
 27 53  1  0
 27 54  1  0
 28 29  1  0
 28 33  1  0
 28 55  1  1
 29 30  1  0
 29 56  1  0
 29 57  1  0
 30 31  1  0
 30 58  1  0
 30 59  1  0
 31 32  1  0
 31 60  1  0
 31 61  1  0
 32 33  1  0
 32 62  1  0
 32 63  1  0
 33 64  1  0
 33 65  1  0
M  END
