
     RDKit          3D

 39 42  0  0  0  0  0  0  0  0999 V2000
   -0.0294    3.2116   -0.2850 O   0  0  0  0  0  0  0  0  0  0  0  0
    0.8742    2.4660    0.0164 C   0  0  0  0  0  0  0  0  0  0  0  0
    1.8176    2.6786    0.9661 N   0  0  0  0  0  0  0  0  0  0  0  0
    2.7553    1.6538    1.0107 C   0  0  0  0  0  0  0  0  0  0  0  0
    3.8732    1.5547    1.8109 C   0  0  0  0  0  0  0  0  0  0  0  0
    4.6800    0.4350    1.6457 C   0  0  0  0  0  0  0  0  0  0  0  0
    4.4113   -0.5658    0.7147 C   0  0  0  0  0  0  0  0  0  0  0  0
    5.3391   -1.7361    0.5809 C   0  0  0  0  0  0  0  0  0  0  0  0
    3.2598   -0.4167   -0.0717 C   0  0  0  0  0  0  0  0  0  0  0  0
    2.8538   -1.7247   -1.3713 Br  0  0  0  0  0  0  0  0  0  0  0  0
    2.4289    0.6739    0.0772 C   0  0  0  0  0  0  0  0  0  0  0  0
    1.1422    1.0669   -0.6054 C   0  0  2  0  0  0  0  0  0  0  0  0
    1.3139    1.1484   -1.9833 O   0  0  0  0  0  0  0  0  0  0  0  0
   -0.0106    0.1482   -0.1569 C   0  0  0  0  0  0  0  0  0  0  0  0
   -1.3382    0.4379   -0.8257 C   0  0  0  0  0  0  0  0  0  0  0  0
   -1.3746    0.9055   -1.9523 O   0  0  0  0  0  0  0  0  0  0  0  0
   -2.5909    0.0909   -0.1247 C   0  0  0  0  0  0  0  0  0  0  0  0
   -3.8101    0.4501   -0.7403 C   0  0  0  0  0  0  0  0  0  0  0  0
   -4.9609    0.1015   -0.0951 C   0  0  0  0  0  0  0  0  0  0  0  0
   -6.2404    0.3351   -0.4644 O   0  0  0  0  0  0  0  0  0  0  0  0
   -7.0734   -0.2326    0.5368 C   0  0  0  0  0  0  0  0  0  0  0  0
   -6.2113   -0.8033    1.5196 O   0  0  0  0  0  0  0  0  0  0  0  0
   -4.9510   -0.5906    1.1114 C   0  0  0  0  0  0  0  0  0  0  0  0
   -3.7796   -0.9609    1.7255 C   0  0  0  0  0  0  0  0  0  0  0  0
   -2.5934   -0.6015    1.0836 C   0  0  0  0  0  0  0  0  0  0  0  0
    1.8743    3.5209    1.5197 H   0  0  0  0  0  0  0  0  0  0  0  0
    4.1233    2.3185    2.5347 H   0  0  0  0  0  0  0  0  0  0  0  0
    5.5639    0.3394    2.2639 H   0  0  0  0  0  0  0  0  0  0  0  0
    4.8289   -2.6851    0.7520 H   0  0  0  0  0  0  0  0  0  0  0  0
    5.7912   -1.7850   -0.4111 H   0  0  0  0  0  0  0  0  0  0  0  0
    6.1474   -1.6621    1.3063 H   0  0  0  0  0  0  0  0  0  0  0  0
    0.4252    1.2032   -2.3714 H   0  0  0  0  0  0  0  0  0  0  0  0
    0.2285   -0.8954   -0.3886 H   0  0  0  0  0  0  0  0  0  0  0  0
   -0.0943    0.1999    0.9289 H   0  0  0  0  0  0  0  0  0  0  0  0
   -3.8291    0.9840   -1.6803 H   0  0  0  0  0  0  0  0  0  0  0  0
   -1.6646   -0.8904    1.5537 H   0  0  0  0  0  0  0  0  0  0  0  0
   -7.6889    0.5434    0.9962 H   0  0  0  0  0  0  0  0  0  0  0  0
   -7.7006   -1.0138    0.1024 H   0  0  0  0  0  0  0  0  0  0  0  0
   -3.7703   -1.5033    2.6605 H   0  0  0  0  0  0  0  0  0  0  0  0
  1  2  2  0
  2  3  1  0
  2 12  1  0
  3  4  1  0
  4  5  2  0
  4 11  1  0
  5  6  1  0
  6  7  2  0
  7  8  1  0
  7  9  1  0
  9 10  1  0
  9 11  2  0
 11 12  1  0
 12 13  1  6
 12 14  1  0
 14 15  1  0
 15 16  2  0
 15 17  1  0
 17 18  2  0
 17 25  1  0
 18 19  1  0
 19 20  1  0
 19 23  2  0
 20 21  1  0
 21 22  1  0
 22 23  1  0
 23 24  1  0
 24 25  2  0
  3 26  1  0
  5 27  1  0
  6 28  1  0
  8 29  1  0
  8 30  1  0
  8 31  1  0
 13 32  1  0
 14 33  1  0
 14 34  1  0
 18 35  1  0
 25 36  1  0
 21 37  1  0
 21 38  1  0
 24 39  1  0
M  END
