
     RDKit          3D

 70 74  0  0  0  0  0  0  0  0999 V2000
   18.9949   16.9897   81.3404 C   0  0  2  0  0  0  0  0  0  0  0  0
   20.1449   17.8233   80.7844 C   0  0  0  0  0  0  0  0  0  0  0  0
   21.4455   17.1829   81.2158 C   0  0  0  0  0  0  0  0  0  0  0  0
   21.2305   15.8747   81.5673 N   0  0  0  0  0  0  0  0  0  0  0  0
   19.6691   15.3070   81.3216 S   0  0  1  0  0  0  0  0  0  0  0  0
   19.2579   14.5167   82.4649 O   0  0  0  0  0  0  0  0  0  0  0  0
   19.5536   14.7194   80.0003 O   0  0  0  0  0  0  0  0  0  0  0  0
   22.5244   17.7200   81.2417 O   0  0  0  0  0  0  0  0  0  0  0  0
   17.6718   17.0594   80.6451 C   0  0  0  0  0  0  0  0  0  0  0  0
   17.5614   17.0599   79.2574 C   0  0  0  0  0  0  0  0  0  0  0  0
   16.3151   17.1362   78.6601 C   0  0  0  0  0  0  0  0  0  0  0  0
   15.1523   17.2106   79.4221 C   0  0  0  0  0  0  0  0  0  0  0  0
   15.2674   17.1941   80.8076 C   0  0  0  0  0  0  0  0  0  0  0  0
   16.5125   17.1159   81.4121 C   0  0  0  0  0  0  0  0  0  0  0  0
   13.8142   17.3857   78.7657 C   0  0  0  0  0  0  0  0  0  0  0  0
   13.4427   18.8764   78.6651 C   0  0  2  0  0  0  0  0  0  0  0  0
   12.1481   18.9614   77.9953 N   0  0  0  0  0  0  0  0  0  0  0  0
   11.2583   20.3484   78.0856 S   0  0  1  0  0  0  0  0  0  0  0  0
   10.0207   20.0713   77.3779 O   0  0  0  0  0  0  0  0  0  0  0  0
   11.2347   20.7401   79.4844 O   0  0  0  0  0  0  0  0  0  0  0  0
   15.7453   20.4382   76.3888 C   0  0  0  0  0  0  0  0  0  0  0  0
   16.2651   20.8894   77.5708 C   0  0  0  0  0  0  0  0  0  0  0  0
   14.6528   19.6554   76.6411 N   0  0  0  0  0  0  0  0  0  0  0  0
   14.5040   19.6471   77.9405 C   0  0  0  0  0  0  0  0  0  0  0  0
   15.4577   20.3777   78.5466 N   0  0  0  0  0  0  0  0  0  0  0  0
   13.7794   23.3252   77.1099 C   0  0  0  0  0  0  0  0  0  0  0  0
   13.6368   23.4068   75.7338 C   0  0  0  0  0  0  0  0  0  0  0  0
   13.0250   22.4247   77.8483 C   0  0  0  0  0  0  0  0  0  0  0  0
   12.1357   21.5972   77.1811 C   0  0  0  0  0  0  0  0  0  0  0  0
   11.9675   21.6557   75.8048 C   0  0  0  0  0  0  0  0  0  0  0  0
   12.7299   22.5710   75.1105 C   0  0  0  0  0  0  0  0  0  0  0  0
   17.0650   14.9774   73.6520 C   0  0  0  0  0  0  0  0  0  0  0  0
   18.0345   14.8521   72.6644 C   0  0  0  0  0  0  0  0  0  0  0  0
   18.8677   15.9271   72.3854 C   0  0  0  0  0  0  0  0  0  0  0  0
   18.7317   17.1177   73.0887 C   0  0  0  0  0  0  0  0  0  0  0  0
   17.7645   17.2564   74.0813 C   0  0  0  0  0  0  0  0  0  0  0  0
   16.9340   16.1694   74.3506 C   0  0  0  0  0  0  0  0  0  0  0  0
   12.5862   22.6492   73.7804 F   0  0  0  0  0  0  0  0  0  0  0  0
   16.4742   19.4129   74.2109 C   0  0  0  0  0  0  0  0  0  0  0  0
   17.5831   18.5529   74.8175 C   0  0  0  0  0  0  0  0  0  0  0  0
   18.8691   17.2142   82.4024 H   0  0  0  0  0  0  0  0  0  0  0  0
   20.1397   17.8603   79.6932 H   0  0  0  0  0  0  0  0  0  0  0  0
   20.0885   18.8483   81.1468 H   0  0  0  0  0  0  0  0  0  0  0  0
   21.9896   15.2382   81.7889 H   0  0  0  0  0  0  0  0  0  0  0  0
   18.4408   17.0105   78.6289 H   0  0  0  0  0  0  0  0  0  0  0  0
   16.5825   17.1111   82.4930 H   0  0  0  0  0  0  0  0  0  0  0  0
   16.2420   17.1483   77.5796 H   0  0  0  0  0  0  0  0  0  0  0  0
   14.3789   17.2465   81.4252 H   0  0  0  0  0  0  0  0  0  0  0  0
   13.8311   16.9599   77.7599 H   0  0  0  0  0  0  0  0  0  0  0  0
   13.0345   16.8725   79.3307 H   0  0  0  0  0  0  0  0  0  0  0  0
   13.3256   19.2671   79.6780 H   0  0  0  0  0  0  0  0  0  0  0  0
   12.1696   18.5932   77.0479 H   0  0  0  0  0  0  0  0  0  0  0  0
   17.1105   21.5191   77.7909 H   0  0  0  0  0  0  0  0  0  0  0  0
   15.4759   21.2964   74.4655 H   0  0  0  0  0  0  0  0  0  0  0  0
   17.1309   21.3011   75.0341 H   0  0  0  0  0  0  0  0  0  0  0  0
   15.5656   20.5213   79.5381 H   0  0  0  0  0  0  0  0  0  0  0  0
   14.4816   23.9740   77.6144 H   0  0  0  0  0  0  0  0  0  0  0  0
   14.2212   24.1074   75.1524 H   0  0  0  0  0  0  0  0  0  0  0  0
   13.1380   22.3770   78.9217 H   0  0  0  0  0  0  0  0  0  0  0  0
   11.2724   21.0137   75.2798 H   0  0  0  0  0  0  0  0  0  0  0  0
   15.5489   18.8333   74.1650 H   0  0  0  0  0  0  0  0  0  0  0  0
   16.7347   19.6671   73.1801 H   0  0  0  0  0  0  0  0  0  0  0  0
   18.1405   13.9231   72.1191 H   0  0  0  0  0  0  0  0  0  0  0  0
   16.1742   16.2566   75.1197 H   0  0  0  0  0  0  0  0  0  0  0  0
   19.6278   15.8399   71.6195 H   0  0  0  0  0  0  0  0  0  0  0  0
   19.3907   17.9489   72.8646 H   0  0  0  0  0  0  0  0  0  0  0  0
   17.3428   18.3510   75.8650 H   0  0  0  0  0  0  0  0  0  0  0  0
   18.5192   19.1180   74.8202 H   0  0  0  0  0  0  0  0  0  0  0  0
   16.2204   20.6971   75.0000 C   0  0  0  0  0  0  0  0  0  0  0  0
   16.4118   14.1447   73.8807 H   0  0  0  0  0  0  0  0  0  0  0  0
  1  2  1  0
  1  5  1  0
  1  9  1  0
  2  3  1  0
  3  4  1  0
  3  8  2  0
  5  4  1  1
  5  6  2  0
  5  7  2  0
  9 10  2  0
  9 14  1  0
 10 11  1  0
 11 12  2  0
 12 13  1  0
 12 15  1  0
 13 14  2  0
 15 16  1  0
 16 17  1  0
 16 24  1  0
 18 17  1  1
 18 19  2  0
 18 20  2  0
 18 29  1  0
 21 22  2  0
 21 23  1  0
 21 69  1  0
 22 25  1  0
 23 24  2  0
 24 25  1  0
 26 27  2  0
 26 28  1  0
 27 31  1  0
 28 29  2  0
 29 30  1  0
 30 31  2  0
 31 38  1  0
 69 39  1  0
 32 33  2  0
 32 37  1  0
 33 34  1  0
 34 35  2  0
 35 36  1  0
 36 37  2  0
 36 40  1  0
 39 40  1  0
  1 41  1  1
  2 42  1  0
  2 43  1  0
  4 44  1  0
 10 45  1  0
 14 46  1  0
 11 47  1  0
 13 48  1  0
 15 49  1  0
 15 50  1  0
 16 51  1  1
 17 52  1  0
 22 53  1  0
 69 54  1  0
 69 55  1  0
 25 56  1  0
 26 57  1  0
 27 58  1  0
 28 59  1  0
 30 60  1  0
 39 61  1  0
 39 62  1  0
 32 70  1  0
 33 63  1  0
 37 64  1  0
 34 65  1  0
 35 66  1  0
 40 67  1  0
 40 68  1  0
M  END
