
     RDKit          3D

 61 64  0  0  0  0  0  0  0  0999 V2000
   -6.3183    1.7643    0.2471 C   0  0  0  0  0  0  0  0  0  0  0  0
   -7.5147    2.3794   -0.4759 C   0  0  0  0  0  0  0  0  0  0  0  0
   -8.6984    1.4264   -0.5275 C   0  0  0  0  0  0  0  0  0  0  0  0
   -8.2838    0.1115   -1.1687 C   0  0  0  0  0  0  0  0  0  0  0  0
   -7.0951   -0.5255   -0.4535 C   0  0  0  0  0  0  0  0  0  0  0  0
   -5.9131    0.4379   -0.3921 C   0  0  2  0  0  0  0  0  0  0  0  0
   -4.7541   -0.1854    0.3715 N   0  0  2  0  0  0  0  0  0  0  0  0
   -3.5558    0.7087    0.4044 C   0  0  0  0  0  0  0  0  0  0  0  0
   -2.4024    0.0793    1.1597 C   0  0  0  0  0  0  0  0  0  0  0  0
   -4.3611   -1.5261   -0.1645 C   0  0  0  0  0  0  0  0  0  0  0  0
   -3.2020   -2.1184    0.6088 C   0  0  0  0  0  0  0  0  0  0  0  0
   -2.0712   -1.2186    0.6203 N   0  0  0  0  0  0  0  0  0  0  0  0
   -0.8430   -1.6367    0.2541 C   0  0  0  0  0  0  0  0  0  0  0  0
   -0.6169   -2.7705   -0.1330 O   0  0  0  0  0  0  0  0  0  0  0  0
    0.2774   -0.6159    0.3328 C   0  0  0  0  0  0  0  0  0  0  0  0
    1.7929   -1.4937   -0.1014 S   0  0  0  0  0  0  0  0  0  0  0  0
    3.0005   -0.2342    0.0315 C   0  0  0  0  0  0  0  0  0  0  0  0
    4.3749   -0.6427   -0.1689 C   0  0  0  0  0  0  0  0  0  0  0  0
    4.7316   -1.9694   -0.4476 C   0  0  0  0  0  0  0  0  0  0  0  0
    6.0436   -2.3381   -0.6355 C   0  0  0  0  0  0  0  0  0  0  0  0
    7.0374   -1.3665   -0.5448 C   0  0  0  0  0  0  0  0  0  0  0  0
    6.7186   -0.0542   -0.2702 C   0  0  0  0  0  0  0  0  0  0  0  0
    5.3848    0.3370   -0.0735 C   0  0  0  0  0  0  0  0  0  0  0  0
    5.0618    1.6514    0.2104 N   0  0  0  0  0  0  0  0  0  0  0  0
    6.1076    2.6717    0.2801 C   0  0  0  0  0  0  0  0  0  0  0  0
    6.5076    3.1946   -1.0894 C   0  0  0  0  0  0  0  0  0  0  0  0
    3.7579    2.0759    0.3649 C   0  0  0  0  0  0  0  0  0  0  0  0
    3.4904    3.2570    0.5588 O   0  0  0  0  0  0  0  0  0  0  0  0
    2.7293    1.0638    0.2911 C   0  0  0  0  0  0  0  0  0  0  0  0
   -5.5004    2.4838    0.2224 H   0  0  0  0  0  0  0  0  0  0  0  0
   -6.5722    1.5964    1.2995 H   0  0  0  0  0  0  0  0  0  0  0  0
   -7.7848    3.3095    0.0269 H   0  0  0  0  0  0  0  0  0  0  0  0
   -7.2180    2.6516   -1.4935 H   0  0  0  0  0  0  0  0  0  0  0  0
   -9.0684    1.2422    0.4866 H   0  0  0  0  0  0  0  0  0  0  0  0
   -9.5219    1.8755   -1.0863 H   0  0  0  0  0  0  0  0  0  0  0  0
   -9.1114   -0.5995   -1.1690 H   0  0  0  0  0  0  0  0  0  0  0  0
   -8.0200    0.2816   -2.2172 H   0  0  0  0  0  0  0  0  0  0  0  0
   -7.3856   -0.8123    0.5627 H   0  0  0  0  0  0  0  0  0  0  0  0
   -6.8310   -1.4381   -0.9859 H   0  0  0  0  0  0  0  0  0  0  0  0
   -5.5222    0.6124   -1.3992 H   0  0  0  0  0  0  0  0  0  0  0  0
   -5.0696   -0.3195    1.3368 H   0  0  0  0  0  0  0  0  0  0  0  0
   -3.2895    0.9226   -0.6297 H   0  0  0  0  0  0  0  0  0  0  0  0
   -3.8272    1.6339    0.9013 H   0  0  0  0  0  0  0  0  0  0  0  0
   -1.5668    0.7702    1.0945 H   0  0  0  0  0  0  0  0  0  0  0  0
   -2.6596   -0.0161    2.2194 H   0  0  0  0  0  0  0  0  0  0  0  0
   -5.2099   -2.1964   -0.0795 H   0  0  0  0  0  0  0  0  0  0  0  0
   -4.1169   -1.3906   -1.2178 H   0  0  0  0  0  0  0  0  0  0  0  0
   -3.5098   -2.3377    1.6362 H   0  0  0  0  0  0  0  0  0  0  0  0
   -2.9328   -3.0606    0.1396 H   0  0  0  0  0  0  0  0  0  0  0  0
    0.0926    0.2014   -0.3681 H   0  0  0  0  0  0  0  0  0  0  0  0
    0.3661   -0.1979    1.3373 H   0  0  0  0  0  0  0  0  0  0  0  0
    3.9659   -2.7310   -0.5160 H   0  0  0  0  0  0  0  0  0  0  0  0
    6.2958   -3.3672   -0.8498 H   0  0  0  0  0  0  0  0  0  0  0  0
    8.0751   -1.6343   -0.6922 H   0  0  0  0  0  0  0  0  0  0  0  0
    7.5233    0.6620   -0.2148 H   0  0  0  0  0  0  0  0  0  0  0  0
    5.7291    3.4845    0.8925 H   0  0  0  0  0  0  0  0  0  0  0  0
    6.9632    2.2637    0.8151 H   0  0  0  0  0  0  0  0  0  0  0  0
    6.9117    2.4087   -1.7277 H   0  0  0  0  0  0  0  0  0  0  0  0
    5.6546    3.6405   -1.5996 H   0  0  0  0  0  0  0  0  0  0  0  0
    7.2738    3.9615   -0.9797 H   0  0  0  0  0  0  0  0  0  0  0  0
    1.7252    1.4299    0.4451 H   0  0  0  0  0  0  0  0  0  0  0  0
 11 10  1  0
 11 12  1  0
 10  7  1  0
 14 13  2  0
  7  6  1  0
  7  8  1  0
 12 13  1  0
 12  9  1  0
 13 15  1  0
  6  5  1  0
  6  1  1  0
  5  4  1  0
  9  8  1  0
  4  3  1  0
 15 16  1  0
  1  2  1  0
 16 17  1  0
  2  3  1  0
 17 29  2  0
 17 18  1  0
 19 18  2  0
 19 20  1  0
 29 27  1  0
 18 23  1  0
 20 21  2  0
 27 28  2  0
 27 24  1  0
 23 24  1  0
 23 22  2  0
 24 25  1  0
 21 22  1  0
 26 25  1  0
  1 30  1  0
  1 31  1  0
  2 32  1  0
  2 33  1  0
  3 34  1  0
  3 35  1  0
  4 36  1  0
  4 37  1  0
  5 38  1  0
  5 39  1  0
  6 40  1  6
  7 41  1  1
  8 42  1  0
  8 43  1  0
  9 44  1  0
  9 45  1  0
 10 46  1  0
 10 47  1  0
 11 48  1  0
 11 49  1  0
 15 50  1  0
 15 51  1  0
 19 52  1  0
 20 53  1  0
 21 54  1  0
 22 55  1  0
 25 56  1  0
 25 57  1  0
 26 58  1  0
 26 59  1  0
 26 60  1  0
 29 61  1  0
M  CHG  1   7   1
M  END
