
     RDKit          3D

 25 25  0  0  0  0  0  0  0  0999 V2000
   -1.6373    1.5365   -0.8879 N   0  0  0  0  0  0  0  0  0  0  0  0
   -1.6957    0.1675   -0.4475 C   0  0  1  0  0  0  0  0  0  0  0  0
   -0.6718   -0.0777    0.6796 C   0  0  0  0  0  0  0  0  0  0  0  0
    0.7445    0.0591    0.1888 C   0  0  0  0  0  0  0  0  0  0  0  0
    1.2993   -1.0448   -0.5516 C   0  0  0  0  0  0  0  0  0  0  0  0
    2.6087   -1.4093   -0.5680 C   0  0  0  0  0  0  0  0  0  0  0  0
    3.6046   -0.8738    0.2029 N   0  0  0  0  0  0  0  0  0  0  0  0
    3.6610    0.3735    0.4624 C   0  0  0  0  0  0  0  0  0  0  0  0
    2.7934    1.3972   -0.2029 C   0  0  0  0  0  0  0  0  0  0  0  0
    1.4533    1.1845    0.4178 C   0  0  0  0  0  0  0  0  0  0  0  0
   -3.0710   -0.2641    0.0448 C   0  0  0  0  0  0  0  0  0  0  0  0
   -3.9467    0.4932    0.3805 O   0  0  0  0  0  0  0  0  0  0  0  0
   -2.2736    1.6870   -1.6600 H   0  0  0  0  0  0  0  0  0  0  0  0
   -1.9372    2.1566   -0.1454 H   0  0  0  0  0  0  0  0  0  0  0  0
   -1.4388   -0.4787   -1.2934 H   0  0  0  0  0  0  0  0  0  0  0  0
   -0.8587    0.6433    1.4801 H   0  0  0  0  0  0  0  0  0  0  0  0
   -0.8239   -1.0712    1.1052 H   0  0  0  0  0  0  0  0  0  0  0  0
    0.6075   -1.7307   -1.0307 H   0  0  0  0  0  0  0  0  0  0  0  0
    2.8842   -2.3173   -1.0933 H   0  0  0  0  0  0  0  0  0  0  0  0
    4.3636    0.7011    1.2250 H   0  0  0  0  0  0  0  0  0  0  0  0
    3.1670    2.4031   -0.0262 H   0  0  0  0  0  0  0  0  0  0  0  0
    2.7632    1.2113   -1.2824 H   0  0  0  0  0  0  0  0  0  0  0  0
    1.0481    1.9583    1.0599 H   0  0  0  0  0  0  0  0  0  0  0  0
   -3.1936   -1.5860    0.0802 O   0  0  0  0  0  0  0  0  0  0  0  0
   -4.0633   -1.8344    0.4283 H   0  0  0  0  0  0  0  0  0  0  0  0
  7  6  1  0
  7  8  2  0
  6  5  2  0
  8  9  1  0
  5  4  1  0
  9 10  1  0
  4 10  2  0
  4  3  1  0
  3  2  1  0
  2 11  1  0
  2  1  1  0
 11 12  2  0
  1 13  1  0
  1 14  1  0
  2 15  1  6
  3 16  1  0
  3 17  1  0
  5 18  1  0
  6 19  1  0
  8 20  1  0
  9 21  1  0
  9 22  1  0
 10 23  1  0
 11 24  1  0
 24 25  1  0
M  END
