
     RDKit          3D

 38 40  0  0  0  0  0  0  0  0999 V2000
    0.3328   -1.7554   -1.9319 N   0  0  0  0  0  0  0  0  0  0  0  0
    1.7082   -1.5237   -2.2833 C   0  0  0  0  0  0  0  0  0  0  0  0
    2.4031   -0.6381   -1.2931 C   0  0  0  0  0  0  0  0  0  0  0  0
    1.7594   -0.4871    0.3178 S   0  0  0  0  0  0  0  0  0  0  0  0
    3.0756    0.5637    0.7018 C   0  0  0  0  0  0  0  0  0  0  0  0
    3.3518    1.2199    1.8965 C   0  0  0  0  0  0  0  0  0  0  0  0
    4.4789    2.0199    1.9502 C   0  0  0  0  0  0  0  0  0  0  0  0
    5.3111    2.1690    0.8342 C   0  0  0  0  0  0  0  0  0  0  0  0
    5.0294    1.5245   -0.3550 C   0  0  0  0  0  0  0  0  0  0  0  0
    3.8982    0.7106   -0.4278 C   0  0  0  0  0  0  0  0  0  0  0  0
    3.4793    0.0173   -1.5402 N   0  0  0  0  0  0  0  0  0  0  0  0
   -0.5904   -0.7769   -2.0019 C   0  0  0  0  0  0  0  0  0  0  0  0
   -0.3282    0.3528   -2.3720 O   0  0  0  0  0  0  0  0  0  0  0  0
   -1.9659   -1.2010   -1.5964 C   0  0  0  0  0  0  0  0  0  0  0  0
   -2.6842   -2.0938   -2.3756 C   0  0  0  0  0  0  0  0  0  0  0  0
   -3.9782   -2.4708   -2.0407 C   0  0  0  0  0  0  0  0  0  0  0  0
   -4.5188   -1.9338   -0.8931 C   0  0  0  0  0  0  0  0  0  0  0  0
   -5.7624   -2.2804   -0.5360 F   0  0  0  0  0  0  0  0  0  0  0  0
   -3.8364   -1.0504   -0.0751 C   0  0  0  0  0  0  0  0  0  0  0  0
   -2.5454   -0.6773   -0.4337 C   0  0  0  0  0  0  0  0  0  0  0  0
   -1.7792    0.1545    0.2885 O   0  0  0  0  0  0  0  0  0  0  0  0
   -2.2502    0.5742    1.5412 C   0  0  0  0  0  0  0  0  0  0  0  0
   -1.1820    1.4239    2.1869 C   0  0  0  0  0  0  0  0  0  0  0  0
   -1.5632    1.7624    3.4114 O   0  0  0  0  0  0  0  0  0  0  0  0
   -0.1497    1.7557    1.6755 O   0  0  0  0  0  0  0  0  0  0  0  0
    0.0664   -2.6655   -1.5938 H   0  0  0  0  0  0  0  0  0  0  0  0
    2.2114   -2.4907   -2.3143 H   0  0  0  0  0  0  0  0  0  0  0  0
    1.7993   -1.0813   -3.2767 H   0  0  0  0  0  0  0  0  0  0  0  0
    2.7059    1.1104    2.7570 H   0  0  0  0  0  0  0  0  0  0  0  0
    4.7182    2.5408    2.8679 H   0  0  0  0  0  0  0  0  0  0  0  0
    6.1860    2.8017    0.9046 H   0  0  0  0  0  0  0  0  0  0  0  0
    5.6675    1.6413   -1.2214 H   0  0  0  0  0  0  0  0  0  0  0  0
   -2.2317   -2.5031   -3.2697 H   0  0  0  0  0  0  0  0  0  0  0  0
   -4.5397   -3.1624   -2.6530 H   0  0  0  0  0  0  0  0  0  0  0  0
   -4.3221   -0.6795    0.8171 H   0  0  0  0  0  0  0  0  0  0  0  0
   -3.1643    1.1744    1.4553 H   0  0  0  0  0  0  0  0  0  0  0  0
   -2.4774   -0.2763    2.1944 H   0  0  0  0  0  0  0  0  0  0  0  0
   -0.8951    2.3276    3.8276 H   0  0  0  0  0  0  0  0  0  0  0  0
  8  7  2  0
  8  9  1  0
  7  6  1  0
  9 10  2  0
  6  5  2  0
 10  5  1  0
 10 11  1  0
  5  4  1  0
 11  3  2  0
  4  3  1  0
  3  2  1  0
 13 12  2  0
  2  1  1  0
 12  1  1  0
 12 14  1  0
 15 14  2  0
 15 16  1  0
 14 20  1  0
 16 17  2  0
 25 23  2  0
 20 21  1  0
 20 19  2  0
 17 19  1  0
 17 18  1  0
 21 22  1  0
 23 22  1  0
 23 24  1  0
  1 26  1  0
  2 27  1  0
  2 28  1  0
  6 29  1  0
  7 30  1  0
  8 31  1  0
  9 32  1  0
 15 33  1  0
 16 34  1  0
 19 35  1  0
 22 36  1  0
 22 37  1  0
 24 38  1  0
M  END
