
     RDKit          3D

 67 66  0  0  0  0  0  0  0  0999 V2000
    7.4279   -0.9944    1.3668 C   0  0  0  0  0  0  0  0  0  0  0  0
    8.5229   -2.4888   -0.3451 C   0  0  0  0  0  0  0  0  0  0  0  0
   -7.1966   -3.6729    0.8542 C   0  0  0  0  0  0  0  0  0  0  0  0
   -5.3565   -2.3359    1.9489 C   0  0  0  0  0  0  0  0  0  0  0  0
    1.5488   -2.3647   -0.1534 C   0  0  0  0  0  0  0  0  0  0  0  0
   -2.8795    0.1833   -3.1073 C   0  0  0  0  0  0  0  0  0  0  0  0
   -1.3472    2.9977    1.8549 O   0  0  0  0  0  0  0  0  0  0  0  0
    1.5760    3.3609    0.8657 O   0  0  0  0  0  0  0  0  0  0  0  0
   -2.0516    0.4939    1.7265 O   0  0  0  0  0  0  0  0  0  0  0  0
   -2.6972    2.1471   -0.1221 O   0  0  0  0  0  0  0  0  0  0  0  0
   -0.1442    3.8401   -0.9430 O   0  0  0  0  0  0  0  0  0  0  0  0
    1.8948    2.2930   -1.4412 O   0  0  0  0  0  0  0  0  0  0  0  0
    6.0746   -2.5881   -0.0245 C   0  0  0  0  0  0  0  0  0  0  0  0
   -5.8675   -2.0934   -0.4993 C   0  0  0  0  0  0  0  0  0  0  0  0
    2.1342   -0.0134    0.5154 C   0  0  0  0  0  0  0  0  0  0  0  0
   -1.5072   -0.5252   -1.1121 C   0  0  0  0  0  0  0  0  0  0  0  0
    4.7209   -2.2619    0.5255 C   0  0  0  0  0  0  0  0  0  0  0  0
   -4.8230   -1.0742   -0.8324 C   0  0  0  0  0  0  0  0  0  0  0  0
    0.7920    0.3877    1.0493 C   0  0  0  0  0  0  0  0  0  0  0  0
   -0.4097    0.4870   -1.2365 C   0  0  0  0  0  0  0  0  0  0  0  0
    3.8885   -1.4344   -0.4661 C   0  0  0  0  0  0  0  0  0  0  0  0
   -3.6182   -1.6964   -1.5593 C   0  0  0  0  0  0  0  0  0  0  0  0
    7.2489   -2.0517    0.3182 C   0  0  0  0  0  0  0  0  0  0  0  0
   -6.1093   -2.6507    0.6903 C   0  0  0  0  0  0  0  0  0  0  0  0
    2.4780   -1.1989    0.0055 C   0  0  0  0  0  0  0  0  0  0  0  0
   -2.5817   -0.6580   -1.9003 C   0  0  0  0  0  0  0  0  0  0  0  0
   -0.0656    1.2468    0.0751 C   0  0  1  0  0  0  0  0  0  0  0  0
   -1.5704    1.8295    0.9737 P   0  0  1  0  0  0  0  0  0  0  0  0
    0.7788    2.8116   -0.4124 P   0  0  1  0  0  0  0  0  0  0  0  0
    7.9322   -0.1217    0.9445 H   0  0  0  0  0  0  0  0  0  0  0  0
    6.4929   -0.6538    1.8067 H   0  0  0  0  0  0  0  0  0  0  0  0
    8.0671   -1.3555    2.1769 H   0  0  0  0  0  0  0  0  0  0  0  0
    9.2194   -2.9081    0.3860 H   0  0  0  0  0  0  0  0  0  0  0  0
    8.3505   -3.2414   -1.1140 H   0  0  0  0  0  0  0  0  0  0  0  0
    9.0356   -1.6421   -0.8086 H   0  0  0  0  0  0  0  0  0  0  0  0
   -6.7971   -4.6153    1.2379 H   0  0  0  0  0  0  0  0  0  0  0  0
   -7.9444   -3.3376    1.5779 H   0  0  0  0  0  0  0  0  0  0  0  0
   -7.7078   -3.8796   -0.0858 H   0  0  0  0  0  0  0  0  0  0  0  0
   -6.0275   -1.9293    2.7100 H   0  0  0  0  0  0  0  0  0  0  0  0
   -4.9253   -3.2463    2.3723 H   0  0  0  0  0  0  0  0  0  0  0  0
   -4.5458   -1.6246    1.8067 H   0  0  0  0  0  0  0  0  0  0  0  0
    1.3638   -2.5566   -1.2135 H   0  0  0  0  0  0  0  0  0  0  0  0
    1.9846   -3.2780    0.2570 H   0  0  0  0  0  0  0  0  0  0  0  0
    0.5813   -2.2230    0.3236 H   0  0  0  0  0  0  0  0  0  0  0  0
   -2.8605   -0.4405   -4.0041 H   0  0  0  0  0  0  0  0  0  0  0  0
   -3.8822    0.6138   -3.0557 H   0  0  0  0  0  0  0  0  0  0  0  0
   -2.1748    0.9979   -3.2615 H   0  0  0  0  0  0  0  0  0  0  0  0
    2.3920    2.9013    1.1003 H   0  0  0  0  0  0  0  0  0  0  0  0
   -2.6691    0.6623    2.4524 H   0  0  0  0  0  0  0  0  0  0  0  0
   -2.9484    1.3765   -0.6534 H   0  0  0  0  0  0  0  0  0  0  0  0
    2.2121    2.9823   -2.0419 H   0  0  0  0  0  0  0  0  0  0  0  0
    6.0762   -3.3352   -0.8153 H   0  0  0  0  0  0  0  0  0  0  0  0
   -6.4726   -2.4242   -1.3407 H   0  0  0  0  0  0  0  0  0  0  0  0
    2.9170    0.7383    0.5632 H   0  0  0  0  0  0  0  0  0  0  0  0
   -1.4154   -1.2352   -0.2968 H   0  0  0  0  0  0  0  0  0  0  0  0
    4.1969   -3.1952    0.7510 H   0  0  0  0  0  0  0  0  0  0  0  0
    4.7865   -1.7166    1.4684 H   0  0  0  0  0  0  0  0  0  0  0  0
   -5.2726   -0.3039   -1.4662 H   0  0  0  0  0  0  0  0  0  0  0  0
   -4.4637   -0.5653    0.0651 H   0  0  0  0  0  0  0  0  0  0  0  0
    0.2209   -0.4980    1.3222 H   0  0  0  0  0  0  0  0  0  0  0  0
    0.9322    0.9402    1.9827 H   0  0  0  0  0  0  0  0  0  0  0  0
    0.5092   -0.0097   -1.5596 H   0  0  0  0  0  0  0  0  0  0  0  0
   -0.6467    1.2016   -2.0252 H   0  0  0  0  0  0  0  0  0  0  0  0
    4.3944   -0.4807   -0.6339 H   0  0  0  0  0  0  0  0  0  0  0  0
    3.8663   -1.9508   -1.4317 H   0  0  0  0  0  0  0  0  0  0  0  0
   -3.1827   -2.4647   -0.9164 H   0  0  0  0  0  0  0  0  0  0  0  0
   -3.9641   -2.1987   -2.4681 H   0  0  0  0  0  0  0  0  0  0  0  0
  1 23  1  0
  1 30  1  0
  1 31  1  0
  1 32  1  0
  2 23  1  0
  2 33  1  0
  2 34  1  0
  2 35  1  0
 24  3  1  0
  3 36  1  0
  3 37  1  0
  3 38  1  0
 24  4  1  0
  4 39  1  0
  4 40  1  0
  4 41  1  0
 25  5  1  0
  5 42  1  0
  5 43  1  0
  5 44  1  0
 26  6  1  0
  6 45  1  0
  6 46  1  0
  6 47  1  0
  7 28  2  0
 29  8  1  1
  8 48  1  0
 28  9  1  1
  9 49  1  0
 28 10  1  0
 10 50  1  0
 11 29  2  0
 29 12  1  0
 12 51  1  0
 23 13  2  0
 13 17  1  0
 13 52  1  0
 18 14  1  0
 14 24  2  0
 14 53  1  0
 15 19  1  0
 15 25  2  0
 15 54  1  0
 20 16  1  0
 16 26  2  0
 16 55  1  0
 17 21  1  0
 17 56  1  0
 17 57  1  0
 22 18  1  0
 18 58  1  0
 18 59  1  0
 27 19  1  1
 19 60  1  0
 19 61  1  0
 27 20  1  0
 20 62  1  0
 20 63  1  0
 21 25  1  0
 21 64  1  0
 21 65  1  0
 26 22  1  0
 22 66  1  0
 22 67  1  0
 28 27  1  0
 29 27  1  0
M  END
