
     RDKit          3D

 26 26  0  0  0  0  0  0  0  0999 V2000
   -4.5695    0.5007    0.0363 Cl  0  0  0  0  0  0  0  0  0  0  0  0
   -2.8545    0.2481   -0.0383 C   0  0  0  0  0  0  0  0  0  0  0  0
   -2.2781   -0.1852   -1.2202 C   0  0  0  0  0  0  0  0  0  0  0  0
   -0.9046   -0.3840   -1.2665 C   0  0  0  0  0  0  0  0  0  0  0  0
   -2.0810    0.4814    1.0887 C   0  0  0  0  0  0  0  0  0  0  0  0
   -0.7117    0.2767    1.0209 C   0  0  0  0  0  0  0  0  0  0  0  0
   -0.0999   -0.1554   -0.1553 C   0  0  0  0  0  0  0  0  0  0  0  0
    1.3905   -0.3917   -0.2189 C   0  0  2  0  0  0  0  0  0  0  0  0
    1.7949   -1.5469    0.7014 C   0  0  0  0  0  0  0  0  0  0  0  0
    1.1472   -2.7827    0.2974 N   0  0  0  0  0  0  0  0  0  0  0  0
    2.1491    0.8890    0.1261 C   0  0  0  0  0  0  0  0  0  0  0  0
    3.6100    0.8573   -0.2378 C   0  0  0  0  0  0  0  0  0  0  0  0
    4.2838    1.8335    0.3608 O   0  0  0  0  0  0  0  0  0  0  0  0
    4.1224    0.0774   -1.0017 O   0  0  0  0  0  0  0  0  0  0  0  0
   -2.8861   -0.3709   -2.0953 H   0  0  0  0  0  0  0  0  0  0  0  0
   -0.4564   -0.7266   -2.1909 H   0  0  0  0  0  0  0  0  0  0  0  0
   -2.5370    0.8177    2.0099 H   0  0  0  0  0  0  0  0  0  0  0  0
   -0.1196    0.4575    1.9104 H   0  0  0  0  0  0  0  0  0  0  0  0
    1.6387   -0.6814   -1.2433 H   0  0  0  0  0  0  0  0  0  0  0  0
    2.8744   -1.6938    0.6310 H   0  0  0  0  0  0  0  0  0  0  0  0
    1.5894   -1.2556    1.7427 H   0  0  0  0  0  0  0  0  0  0  0  0
    1.4866   -3.5412    0.8747 H   0  0  0  0  0  0  0  0  0  0  0  0
    0.1530   -2.7242    0.4814 H   0  0  0  0  0  0  0  0  0  0  0  0
    1.7137    1.7375   -0.4128 H   0  0  0  0  0  0  0  0  0  0  0  0
    2.0483    1.1350    1.1864 H   0  0  0  0  0  0  0  0  0  0  0  0
    5.2107    1.8175    0.0786 H   0  0  0  0  0  0  0  0  0  0  0  0
  3  4  1  0
  3  2  2  0
  1  2  1  0
 10  9  1  0
  4  7  2  0
  2  5  1  0
  9  8  1  0
  7  8  1  0
  7  6  1  0
  5  6  2  0
  8 11  1  0
 11 12  1  0
 12 14  2  0
 12 13  1  0
  3 15  1  0
  4 16  1  0
  5 17  1  0
  6 18  1  0
  8 19  1  6
  9 20  1  0
  9 21  1  0
 10 22  1  0
 10 23  1  0
 11 24  1  0
 11 25  1  0
 13 26  1  0
M  END
