
     RDKit          3D

 55 58  0  0  0  0  0  0  0  0999 V2000
   -4.2458    2.4339   -0.0258 C   0  0  0  0  0  0  0  0  0  0  0  0
    3.4274    0.3819    0.4853 C   0  0  0  0  0  0  0  0  0  0  0  0
   -2.4110    1.3868   -0.6852 C   0  0  0  0  0  0  0  0  0  0  0  0
   -3.6524    1.1764   -0.0575 C   0  0  0  0  0  0  0  0  0  0  0  0
    0.5287   -0.7334   -1.7051 C   0  0  0  0  0  0  0  0  0  0  0  0
   -3.2108   -0.9875    0.1692 C   0  0  0  0  0  0  0  0  0  0  0  0
   -2.3330   -3.6537    0.3436 C   0  0  0  0  0  0  0  0  0  0  0  0
   -2.6848   -5.0729    0.7696 C   0  0  0  0  0  0  0  0  0  0  0  0
   -1.5688    0.2464   -0.8634 C   0  0  0  0  0  0  0  0  0  0  0  0
    1.9220   -0.4362   -1.2155 C   0  0  0  0  0  0  0  0  0  0  0  0
    2.1418    0.1419    0.0326 C   0  0  0  0  0  0  0  0  0  0  0  0
   -3.3390    3.2431   -0.6108 N   0  0  0  0  0  0  0  0  0  0  0  0
   -2.2263    2.6582   -1.0211 N   0  0  0  0  0  0  0  0  0  0  0  0
   -5.3800    3.8083    1.7262 C   0  0  0  0  0  0  0  0  0  0  0  0
   -4.0754   -0.0364    0.3860 N   0  0  0  0  0  0  0  0  0  0  0  0
   -6.4122    3.5683   -0.5634 C   0  0  0  0  0  0  0  0  0  0  0  0
   -5.5603    2.8926    0.5131 C   0  0  1  0  0  0  0  0  0  0  0  0
   -3.7360   -2.5729    0.7359 S   0  0  0  0  0  0  0  0  0  0  0  0
   -1.5674   -5.9520    0.4657 N   0  0  0  0  0  0  0  0  0  0  0  0
   -2.0041   -0.9180   -0.4233 N   0  0  0  0  0  0  0  0  0  0  0  0
   -0.3800    0.3599   -1.4569 N   0  0  0  0  0  0  0  0  0  0  0  0
    4.5368    0.0602   -0.2998 C   0  0  0  0  0  0  0  0  0  0  0  0
    4.3131   -0.5222   -1.5463 C   0  0  0  0  0  0  0  0  0  0  0  0
    3.0238   -0.7639   -1.9963 C   0  0  0  0  0  0  0  0  0  0  0  0
    5.9036    0.3359    0.1943 C   0  0  0  0  0  0  0  0  0  0  0  0
    6.0517    0.4536    1.5138 N   0  0  0  0  0  0  0  0  0  0  0  0
    7.2565    0.7039    2.0050 C   0  0  0  0  0  0  0  0  0  0  0  0
    8.3891    0.8512    1.2183 C   0  0  0  0  0  0  0  0  0  0  0  0
    8.2403    0.7399   -0.1556 C   0  0  0  0  0  0  0  0  0  0  0  0
    6.9837    0.4837   -0.6773 C   0  0  0  0  0  0  0  0  0  0  0  0
    0.5532   -0.9646   -2.7731 H   0  0  0  0  0  0  0  0  0  0  0  0
    0.1326   -1.6145   -1.2001 H   0  0  0  0  0  0  0  0  0  0  0  0
   -1.4484   -3.3007    0.8751 H   0  0  0  0  0  0  0  0  0  0  0  0
   -2.1273   -3.6199   -0.7249 H   0  0  0  0  0  0  0  0  0  0  0  0
   -2.9764   -5.0773    1.8287 H   0  0  0  0  0  0  0  0  0  0  0  0
   -3.5546   -5.4147    0.2044 H   0  0  0  0  0  0  0  0  0  0  0  0
    1.3012    0.4138    0.6598 H   0  0  0  0  0  0  0  0  0  0  0  0
   -3.4372    4.2378   -0.7546 H   0  0  0  0  0  0  0  0  0  0  0  0
   -4.8694    4.7336    1.4519 H   0  0  0  0  0  0  0  0  0  0  0  0
   -6.3510    4.0793    2.1421 H   0  0  0  0  0  0  0  0  0  0  0  0
   -4.7998    3.3231    2.5109 H   0  0  0  0  0  0  0  0  0  0  0  0
   -7.3992    3.8063   -0.1662 H   0  0  0  0  0  0  0  0  0  0  0  0
   -5.9620    4.5046   -0.8991 H   0  0  0  0  0  0  0  0  0  0  0  0
   -6.5429    2.9257   -1.4338 H   0  0  0  0  0  0  0  0  0  0  0  0
   -6.0785    1.9881    0.8424 H   0  0  0  0  0  0  0  0  0  0  0  0
   -0.8150   -5.7798    1.1210 H   0  0  0  0  0  0  0  0  0  0  0  0
   -1.8474   -6.9126    0.6150 H   0  0  0  0  0  0  0  0  0  0  0  0
   -0.1214    1.2700   -1.8058 H   0  0  0  0  0  0  0  0  0  0  0  0
    5.1446   -0.8054   -2.1788 H   0  0  0  0  0  0  0  0  0  0  0  0
    2.8780   -1.2167   -2.9699 H   0  0  0  0  0  0  0  0  0  0  0  0
    7.3272    0.7895    3.0838 H   0  0  0  0  0  0  0  0  0  0  0  0
    9.3501    1.0527    1.6706 H   0  0  0  0  0  0  0  0  0  0  0  0
    9.0886    0.8596   -0.8165 H   0  0  0  0  0  0  0  0  0  0  0  0
    6.8473    0.4180   -1.7478 H   0  0  0  0  0  0  0  0  0  0  0  0
    3.5763    0.8326    1.4572 H   0  0  0  0  0  0  0  0  0  0  0  0
 12 13  1  0
 12  1  1  0
 13  3  2  0
 17  1  1  0
 17 14  1  0
 17 16  1  0
  1  4  2  0
 29 30  2  0
 29 28  1  0
 30 25  1  0
 23 24  2  0
 23 22  1  0
  3  4  1  0
  3  9  1  0
 24 10  1  0
  4 15  1  0
 28 27  2  0
 21  9  1  0
 21  5  1  0
 25 22  1  0
 25 26  2  0
  9 20  2  0
 22  2  2  0
 15  6  2  0
 10  5  1  0
 10 11  2  0
 27 26  1  0
 20  6  1  0
  6 18  1  0
  2 11  1  0
 18  7  1  0
  7  8  1  0
  8 19  1  0
  2 55  1  0
  5 31  1  0
  5 32  1  0
  7 33  1  0
  7 34  1  0
  8 35  1  0
  8 36  1  0
 11 37  1  0
 12 38  1  0
 14 39  1  0
 14 40  1  0
 14 41  1  0
 16 42  1  0
 16 43  1  0
 16 44  1  0
 17 45  1  1
 19 46  1  0
 19 47  1  0
 21 48  1  0
 23 49  1  0
 24 50  1  0
 27 51  1  0
 28 52  1  0
 29 53  1  0
 30 54  1  0
M  END
