
     RDKit          3D

 15 14  0  0  0  0  0  0  0  0999 V2000
    0.4053   -0.0059    2.5514 C   0  0  0  0  0  0  0  0  0  0  0  0
   -0.4584    0.0212    1.2777 C   0  0  0  0  0  0  0  0  0  0  0  0
    0.3354    0.0397    0.0063 C   0  0  0  0  0  0  0  0  0  0  0  0
   -0.4352   -0.0239   -1.2797 C   0  0  0  0  0  0  0  0  0  0  0  0
    0.4554    0.0280   -2.5365 C   0  0  0  0  0  0  0  0  0  0  0  0
    1.6058   -0.0342    2.5074 O   0  0  0  0  0  0  0  0  0  0  0  0
   -0.3335   -0.0048    3.6340 O   0  0  0  0  0  0  0  0  0  0  0  0
   -0.2623   -0.0422   -3.6326 O   0  0  0  0  0  0  0  0  0  0  0  0
    1.6499    0.1435   -2.4779 O   0  0  0  0  0  0  0  0  0  0  0  0
   -1.6258   -0.0646   -1.3995 O   0  0  0  0  0  0  0  0  0  0  0  0
   -1.6528    0.0111    1.3695 O   0  0  0  0  0  0  0  0  0  0  0  0
    0.9844    0.9224   -0.0175 H   0  0  0  0  0  0  0  0  0  0  0  0
    1.0475   -0.7935    0.0262 H   0  0  0  0  0  0  0  0  0  0  0  0
    0.2229   -0.0363    4.4280 H   0  0  0  0  0  0  0  0  0  0  0  0
    0.3113   -0.0465   -4.4148 H   0  0  0  0  0  0  0  0  0  0  0  0
  1  2  1  0
  1  6  2  0
  1  7  1  0
  2  3  1  0
  2 11  2  0
  3  4  1  0
  3 12  1  0
  3 13  1  0
  4  5  1  0
  4 10  2  0
  5  8  1  0
  5  9  2  0
  7 14  1  0
  8 15  1  0
M  END
