
     RDKit          3D

 29 30  0  0  0  0  0  0  0  0999 V2000
   -5.0096    0.5240    1.0780 O   0  0  0  0  0  0  0  0  0  0  0  0
   -3.7389    0.4718    0.6579 C   0  0  0  0  0  0  0  0  0  0  0  0
   -3.1132   -0.7772    0.6271 C   0  0  0  0  0  0  0  0  0  0  0  0
   -3.8265   -1.8454    1.0134 F   0  0  0  0  0  0  0  0  0  0  0  0
   -1.8141   -0.9368    0.2222 C   0  0  0  0  0  0  0  0  0  0  0  0
   -1.0707    0.1790   -0.1815 C   0  0  0  0  0  0  0  0  0  0  0  0
   -1.6825    1.4280   -0.1613 C   0  0  0  0  0  0  0  0  0  0  0  0
   -2.9991    1.5734    0.2523 C   0  0  0  0  0  0  0  0  0  0  0  0
    0.3173    0.0434   -0.6097 C   0  0  0  0  0  0  0  0  0  0  0  0
    0.9070   -1.0854   -0.6372 N   0  0  0  0  0  0  0  0  0  0  0  0
    2.1907   -0.9444   -1.0874 O   0  0  0  0  0  0  0  0  0  0  0  0
    2.5340    0.4575   -1.1337 C   0  0  1  0  0  0  0  0  0  0  0  0
    1.1849    1.1670   -1.0910 C   0  0  0  0  0  0  0  0  0  0  0  0
    3.4013    0.7974    0.0618 C   0  0  0  0  0  0  0  0  0  0  0  0
    4.7287    0.0803    0.1027 C   0  0  0  0  0  0  0  0  0  0  0  0
    5.1845   -0.4814   -0.8673 O   0  0  0  0  0  0  0  0  0  0  0  0
    5.4446    0.1275    1.4218 C   0  0  0  0  0  0  0  0  0  0  0  0
   -5.3211    1.4365    1.0859 H   0  0  0  0  0  0  0  0  0  0  0  0
   -1.3784   -1.9278    0.2190 H   0  0  0  0  0  0  0  0  0  0  0  0
   -1.1395    2.3122   -0.4663 H   0  0  0  0  0  0  0  0  0  0  0  0
   -3.4520    2.5576    0.2637 H   0  0  0  0  0  0  0  0  0  0  0  0
    3.0701    0.6306   -2.0665 H   0  0  0  0  0  0  0  0  0  0  0  0
    0.8492    1.5144   -2.0714 H   0  0  0  0  0  0  0  0  0  0  0  0
    1.1805    2.0271   -0.4196 H   0  0  0  0  0  0  0  0  0  0  0  0
    3.6221    1.8713    0.0545 H   0  0  0  0  0  0  0  0  0  0  0  0
    2.8603    0.6243    0.9981 H   0  0  0  0  0  0  0  0  0  0  0  0
    4.9330   -0.5317    2.1274 H   0  0  0  0  0  0  0  0  0  0  0  0
    6.4797   -0.1945    1.3303 H   0  0  0  0  0  0  0  0  0  0  0  0
    5.4078    1.1301    1.8501 H   0  0  0  0  0  0  0  0  0  0  0  0
 17 15  1  0
 15 14  1  0
 15 16  2  0
 14 12  1  0
 12 13  1  0
 12 11  1  0
 13  9  1  0
 11 10  1  0
 10  9  2  0
  9  6  1  0
  7  6  2  0
  7  8  1  0
  6  5  1  0
  8  2  2  0
  5  3  2  0
  2  3  1  0
  2  1  1  0
  3  4  1  0
  1 18  1  0
  5 19  1  0
  7 20  1  0
  8 21  1  0
 12 22  1  6
 13 23  1  0
 13 24  1  0
 14 25  1  0
 14 26  1  0
 17 27  1  0
 17 28  1  0
 17 29  1  0
M  END
