
     RDKit          3D

 77 79  0  0  0  0  0  0  0  0999 V2000
   -1.3821    2.9662   -0.2767 C   0  0  0  0  0  0  0  0  0  0  0  0
   -1.2638    1.4600   -0.0542 C   0  0  1  0  0  0  0  0  0  0  0  0
   -0.0928    1.2163    0.9251 C   0  0  1  0  0  0  0  0  0  0  0  0
   -0.3657   -0.1700    1.5011 C   0  0  0  0  0  0  0  0  0  0  0  0
   -1.8737   -0.1639    1.5168 C   0  0  0  0  0  0  0  0  0  0  0  0
   -4.4870    1.6815    1.6601 C   0  0  0  0  0  0  0  0  0  0  0  0
   -7.2711   -1.1251   -0.5567 C   0  0  2  0  0  0  0  0  0  0  0  0
   -8.2101   -0.5300    1.7682 C   0  0  0  0  0  0  0  0  0  0  0  0
   -7.5564   -1.5773    0.8781 C   0  0  0  0  0  0  0  0  0  0  0  0
   -8.5434   -0.6482   -1.2753 C   0  0  0  0  0  0  0  0  0  0  0  0
   -9.6722   -1.6685   -1.3173 C   0  0  0  0  0  0  0  0  0  0  0  0
   -6.7294   -2.2660   -1.2046 O   0  0  0  0  0  0  0  0  0  0  0  0
   -4.6132   -0.5399   -0.0429 S   0  0  0  0  0  0  0  0  0  0  0  0
   -3.8307    1.0419    0.4423 C   0  0  2  0  0  0  0  0  0  0  0  0
   -2.3799    0.7582    0.6954 C   0  0  0  0  0  0  0  0  0  0  0  0
   -1.0800    0.7272   -1.3905 C   0  0  0  0  0  0  0  0  0  0  0  0
   -0.0576    3.5337   -0.8028 C   0  0  0  0  0  0  0  0  0  0  0  0
    1.1742    3.1148    0.0199 C   0  0  0  0  0  0  0  0  0  0  0  0
    1.2057    1.6383    0.3259 C   0  0  0  0  0  0  0  0  0  0  0  0
    2.2332    0.8031    0.1109 C   0  0  0  0  0  0  0  0  0  0  0  0
    3.5239    1.1596   -0.4497 C   0  0  0  0  0  0  0  0  0  0  0  0
    4.5541    0.3320   -0.6829 C   0  0  0  0  0  0  0  0  0  0  0  0
    5.8585    0.8433   -1.2125 C   0  0  0  0  0  0  0  0  0  0  0  0
    7.0002    0.5090   -0.2431 C   0  0  1  0  0  0  0  0  0  0  0  0
    6.8225    1.1405    1.0093 O   0  0  0  0  0  0  0  0  0  0  0  0
    4.5737   -1.1402   -0.4050 C   0  0  0  0  0  0  0  0  0  0  0  0
    5.7250   -1.5134    0.5480 C   0  0  1  0  0  0  0  0  0  0  0  0
    5.8091   -2.9047    0.7225 O   0  0  0  0  0  0  0  0  0  0  0  0
    7.0262   -0.9781    0.0033 C   0  0  0  0  0  0  0  0  0  0  0  0
    8.0589   -1.7706   -0.2788 C   0  0  0  0  0  0  0  0  0  0  0  0
    9.3784   -1.3854   -0.8672 C   0  0  0  0  0  0  0  0  0  0  0  0
   10.3913   -2.0243   -0.1139 O   0  0  0  0  0  0  0  0  0  0  0  0
   -2.1828    3.2058   -0.9827 H   0  0  0  0  0  0  0  0  0  0  0  0
   -1.6414    3.4510    0.6703 H   0  0  0  0  0  0  0  0  0  0  0  0
   -0.2809    1.9110    1.7577 H   0  0  0  0  0  0  0  0  0  0  0  0
    0.0145   -0.9851    0.8737 H   0  0  0  0  0  0  0  0  0  0  0  0
    0.0732   -0.3089    2.4913 H   0  0  0  0  0  0  0  0  0  0  0  0
   -2.4583   -0.8601    2.1069 H   0  0  0  0  0  0  0  0  0  0  0  0
   -4.4625    1.0038    2.5129 H   0  0  0  0  0  0  0  0  0  0  0  0
   -3.9553    2.5955    1.9327 H   0  0  0  0  0  0  0  0  0  0  0  0
   -5.5252    1.9545    1.4701 H   0  0  0  0  0  0  0  0  0  0  0  0
   -6.1639    0.3952   -1.6293 H   0  0  0  0  0  0  0  0  0  0  0  0
   -6.5832    0.8545    0.0093 H   0  0  0  0  0  0  0  0  0  0  0  0
   -8.3672   -0.9323    2.7691 H   0  0  0  0  0  0  0  0  0  0  0  0
   -7.5930    0.3630    1.8752 H   0  0  0  0  0  0  0  0  0  0  0  0
   -9.1829   -0.2140    1.3890 H   0  0  0  0  0  0  0  0  0  0  0  0
   -8.1968   -2.4623    0.8373 H   0  0  0  0  0  0  0  0  0  0  0  0
   -6.6182   -1.9002    1.3354 H   0  0  0  0  0  0  0  0  0  0  0  0
   -8.8932    0.2741   -0.8037 H   0  0  0  0  0  0  0  0  0  0  0  0
   -8.2707   -0.3696   -2.2990 H   0  0  0  0  0  0  0  0  0  0  0  0
   -9.3449   -2.6066   -1.7657 H   0  0  0  0  0  0  0  0  0  0  0  0
  -10.0625   -1.8930   -0.3240 H   0  0  0  0  0  0  0  0  0  0  0  0
  -10.5040   -1.2921   -1.9132 H   0  0  0  0  0  0  0  0  0  0  0  0
   -6.5517   -2.0397   -2.1242 H   0  0  0  0  0  0  0  0  0  0  0  0
   -3.9183    1.7215   -0.4099 H   0  0  0  0  0  0  0  0  0  0  0  0
   -1.9880    0.8047   -1.9929 H   0  0  0  0  0  0  0  0  0  0  0  0
   -0.2585    1.1318   -1.9813 H   0  0  0  0  0  0  0  0  0  0  0  0
   -0.8769   -0.3333   -1.2366 H   0  0  0  0  0  0  0  0  0  0  0  0
    0.0871    3.2260   -1.8405 H   0  0  0  0  0  0  0  0  0  0  0  0
   -0.1108    4.6243   -0.8202 H   0  0  0  0  0  0  0  0  0  0  0  0
    2.0744    3.4531   -0.4927 H   0  0  0  0  0  0  0  0  0  0  0  0
    1.1472    3.6534    0.9750 H   0  0  0  0  0  0  0  0  0  0  0  0
    2.0920   -0.2343    0.3970 H   0  0  0  0  0  0  0  0  0  0  0  0
    3.6785    2.2052   -0.6982 H   0  0  0  0  0  0  0  0  0  0  0  0
    6.0918    0.3736   -2.1745 H   0  0  0  0  0  0  0  0  0  0  0  0
    5.8206    1.9222   -1.3899 H   0  0  0  0  0  0  0  0  0  0  0  0
    7.9375    0.8353   -0.7060 H   0  0  0  0  0  0  0  0  0  0  0  0
    6.6111    2.0670    0.8538 H   0  0  0  0  0  0  0  0  0  0  0  0
    3.6315   -1.4939    0.0169 H   0  0  0  0  0  0  0  0  0  0  0  0
    4.7292   -1.6840   -1.3448 H   0  0  0  0  0  0  0  0  0  0  0  0
    5.5286   -1.0210    1.5108 H   0  0  0  0  0  0  0  0  0  0  0  0
    4.9890   -3.2038    1.1272 H   0  0  0  0  0  0  0  0  0  0  0  0
    7.9537   -2.8359   -0.1021 H   0  0  0  0  0  0  0  0  0  0  0  0
    9.4032   -1.7160   -1.9145 H   0  0  0  0  0  0  0  0  0  0  0  0
    9.5200   -0.2994   -0.8832 H   0  0  0  0  0  0  0  0  0  0  0  0
   11.2241   -1.9067   -0.5795 H   0  0  0  0  0  0  0  0  0  0  0  0
   -6.2488    0.0186   -0.6058 C   0  0  0  0  0  0  0  0  0  0  0  0
 32 31  1  0
 31 30  1  0
 30 29  2  0
 25 24  1  0
 29 24  1  0
 29 27  1  0
 24 23  1  0
 27 28  1  0
 27 26  1  0
 23 22  1  0
 26 22  1  0
 22 21  2  0
 21 20  1  0
 20 19  2  0
  4  3  1  0
  4  5  1  0
 19  3  1  0
 19 18  1  0
  2 16  1  6
  3  2  1  0
 18 17  1  0
  5 15  2  0
 10 11  1  0
 10  7  1  0
  2 15  1  0
  2  1  1  0
 17  1  1  0
 15 14  1  0
 77  7  1  0
 77 13  1  0
  7 12  1  6
  7  9  1  0
  8  9  1  0
 14 13  1  0
 14  6  1  0
  1 33  1  0
  1 34  1  0
  3 35  1  1
  4 36  1  0
  4 37  1  0
  5 38  1  0
  6 39  1  0
  6 40  1  0
  6 41  1  0
 77 42  1  0
 77 43  1  0
  8 44  1  0
  8 45  1  0
  8 46  1  0
  9 47  1  0
  9 48  1  0
 10 49  1  0
 10 50  1  0
 11 51  1  0
 11 52  1  0
 11 53  1  0
 12 54  1  0
 14 55  1  6
 16 56  1  0
 16 57  1  0
 16 58  1  0
 17 59  1  0
 17 60  1  0
 18 61  1  0
 18 62  1  0
 20 63  1  0
 21 64  1  0
 23 65  1  0
 23 66  1  0
 24 67  1  6
 25 68  1  0
 26 69  1  0
 26 70  1  0
 27 71  1  1
 28 72  1  0
 30 73  1  0
 31 74  1  0
 31 75  1  0
 32 76  1  0
M  END
