
     RDKit          3D

 19 19  0  0  0  0  0  0  0  0999 V2000
    3.4206   -0.1785   -0.3657 C   0  0  0  0  0  0  0  0  0  0  0  0
    1.2734   -0.0592   -0.2881 C   0  0  0  0  0  0  0  0  0  0  0  0
   -2.5339    0.1351   -0.0445 C   0  0  0  0  0  0  0  0  0  0  0  0
   -2.7304    1.3490   -0.5435 O   0  0  0  0  0  0  0  0  0  0  0  0
   -1.1201   -0.0377    0.4779 C   0  0  1  0  0  0  0  0  0  0  0  0
   -1.0546   -1.2146    1.3098 N   0  0  0  0  0  0  0  0  0  0  0  0
   -0.1494   -0.0153   -0.7190 C   0  0  0  0  0  0  0  0  0  0  0  0
    2.3128   -0.2316   -1.1353 N   0  0  0  0  0  0  0  0  0  0  0  0
    3.0885    0.0134    0.8760 N   0  0  0  0  0  0  0  0  0  0  0  0
    1.7313    0.0893    0.9243 N   0  0  0  0  0  0  0  0  0  0  0  0
    4.4210   -0.2810   -0.7536 H   0  0  0  0  0  0  0  0  0  0  0  0
   -3.6257    1.4180   -0.9082 H   0  0  0  0  0  0  0  0  0  0  0  0
   -0.8969    0.8297    1.1074 H   0  0  0  0  0  0  0  0  0  0  0  0
   -1.1256   -2.0539    0.7476 H   0  0  0  0  0  0  0  0  0  0  0  0
   -0.1491   -1.2405    1.7595 H   0  0  0  0  0  0  0  0  0  0  0  0
   -0.3053    0.8816   -1.3243 H   0  0  0  0  0  0  0  0  0  0  0  0
   -0.3514   -0.8677   -1.3758 H   0  0  0  0  0  0  0  0  0  0  0  0
    2.2736   -0.3786   -2.1323 H   0  0  0  0  0  0  0  0  0  0  0  0
   -3.3771   -0.7241   -0.0308 O   0  0  0  0  0  0  0  0  0  0  0  0
  8  1  1  0
  8  2  1  0
  1  9  2  0
  2  7  1  0
  2 10  2  0
  7  5  1  0
 19  3  2  0
  9 10  1  0
  3  5  1  0
  3  4  1  0
  5  6  1  0
  1 11  1  0
  4 12  1  0
  5 13  1  1
  6 14  1  0
  6 15  1  0
  7 16  1  0
  7 17  1  0
  8 18  1  0
M  END
