
     RDKit          3D

 49 53  0  0  0  0  0  0  0  0999 V2000
   -7.0199    3.1422   -0.8617 N   0  0  0  0  0  0  0  0  0  0  0  0
    4.6560    1.1206   -1.3471 N   0  0  0  0  0  0  0  0  0  0  0  0
   -4.1261    1.2581   -1.6096 C   0  0  0  0  0  0  0  0  0  0  0  0
   -3.8126   -0.6451    2.0612 C   0  0  0  0  0  0  0  0  0  0  0  0
   -2.8867   -0.8992    1.0452 C   0  0  0  0  0  0  0  0  0  0  0  0
    0.1291   -2.8691    0.3606 C   0  0  0  0  0  0  0  0  0  0  0  0
    2.8278   -1.2360   -0.7353 C   0  0  2  0  0  0  0  0  0  0  0  0
    2.2474   -3.5235   -0.8302 C   0  0  2  0  0  0  0  0  0  0  0  0
    5.3474    2.2468   -1.3136 C   0  0  0  0  0  0  0  0  0  0  0  0
    2.6523    0.1695    1.3483 C   0  0  0  0  0  0  0  0  0  0  0  0
   -1.7877   -1.8720    1.2846 C   0  0  0  0  0  0  0  0  0  0  0  0
   -6.0019    2.3040   -0.7196 C   0  0  0  0  0  0  0  0  0  0  0  0
   -4.8818    0.7985    0.7168 C   0  0  0  0  0  0  0  0  0  0  0  0
   -3.9638    0.5521   -0.3110 C   0  0  0  0  0  0  0  0  0  0  0  0
    3.2307   -2.5799   -0.1314 C   0  0  1  0  0  0  0  0  0  0  0  0
    2.6465   -3.7805   -2.1497 O   0  0  0  0  0  0  0  0  0  0  0  0
    4.5775   -2.8313   -0.3892 O   0  0  0  0  0  0  0  0  0  0  0  0
    3.9623    0.9366   -0.2271 C   0  0  0  0  0  0  0  0  0  0  0  0
    3.9287    1.7811    0.8706 C   0  0  0  0  0  0  0  0  0  0  0  0
    4.7115    2.9474    0.7839 C   0  0  0  0  0  0  0  0  0  0  0  0
    3.1376   -0.1034    0.0967 N   0  0  0  0  0  0  0  0  0  0  0  0
    5.4142    3.1473   -0.3371 N   0  0  0  0  0  0  0  0  0  0  0  0
    4.7776    3.8469    1.7654 N   0  0  0  0  0  0  0  0  0  0  0  0
    3.1005    1.2829    1.8438 N   0  0  0  0  0  0  0  0  0  0  0  0
   -5.1754    2.1115   -1.7174 N   0  0  0  0  0  0  0  0  0  0  0  0
   -5.8888    1.6814    0.4900 N   0  0  0  0  0  0  0  0  0  0  0  0
   -4.8073    0.2050    1.8982 N   0  0  0  0  0  0  0  0  0  0  0  0
   -2.9735   -0.2959   -0.1280 N   0  0  0  0  0  0  0  0  0  0  0  0
    0.9907   -2.6612   -0.8664 C   0  0  2  0  0  0  0  0  0  0  0  0
    1.4416   -1.3070   -0.9290 O   0  0  0  0  0  0  0  0  0  0  0  0
   -0.9580   -1.9502    0.2643 O   0  0  0  0  0  0  0  0  0  0  0  0
   -1.6852   -2.5062    2.3051 O   0  0  0  0  0  0  0  0  0  0  0  0
   -7.6658    3.3480   -0.1189 H   0  0  0  0  0  0  0  0  0  0  0  0
   -7.1253    3.6364   -1.7313 H   0  0  0  0  0  0  0  0  0  0  0  0
   -3.7414   -1.1400    3.0211 H   0  0  0  0  0  0  0  0  0  0  0  0
   -0.2463   -3.8951    0.3794 H   0  0  0  0  0  0  0  0  0  0  0  0
    0.6931   -2.7014    1.2823 H   0  0  0  0  0  0  0  0  0  0  0  0
    3.3574   -1.0715   -1.6798 H   0  0  0  0  0  0  0  0  0  0  0  0
    2.0970   -4.4511   -0.2621 H   0  0  0  0  0  0  0  0  0  0  0  0
    1.9592   -0.4897    1.8496 H   0  0  0  0  0  0  0  0  0  0  0  0
    3.0198   -2.5798    0.9466 H   0  0  0  0  0  0  0  0  0  0  0  0
    3.5758   -4.0382   -2.1350 H   0  0  0  0  0  0  0  0  0  0  0  0
    4.8901   -3.5089    0.2189 H   0  0  0  0  0  0  0  0  0  0  0  0
    4.2553    3.7293    2.6154 H   0  0  0  0  0  0  0  0  0  0  0  0
    5.3328    4.6779    1.6560 H   0  0  0  0  0  0  0  0  0  0  0  0
    0.4000   -2.8754   -1.7619 H   0  0  0  0  0  0  0  0  0  0  0  0
   -6.5503    1.8615    1.2346 H   0  0  0  0  0  0  0  0  0  0  0  0
   -3.3453    1.0660   -2.5250 O   0  0  0  0  0  0  0  0  0  0  0  0
    5.9395    2.4696   -2.1947 H   0  0  0  0  0  0  0  0  0  0  0  0
 23 20  1  0
 48  3  2  0
 24 19  1  0
 24 10  2  0
 20 19  2  0
 20 22  1  0
  3 25  1  0
  3 14  1  0
 19 18  1  0
 25 12  2  0
 10 21  1  0
 22  9  2  0
 32 11  2  0
 28 14  2  0
 28  5  1  0
 14 13  1  0
 18 21  1  0
 18  2  2  0
 21  7  1  0
 12  1  1  0
 12 26  1  0
  9  2  1  0
 11  5  1  0
 11 31  1  0
  5  4  2  0
 13 26  1  0
 13 27  2  0
 30  7  1  0
 30 29  1  0
  7 15  1  0
  6 31  1  0
  6 29  1  0
 15  8  1  0
 15 17  1  0
  4 27  1  0
 29  8  1  0
  8 16  1  0
  1 33  1  0
  1 34  1  0
  4 35  1  0
  6 36  1  0
  6 37  1  0
  7 38  1  6
  8 39  1  1
  9 49  1  0
 10 40  1  0
 15 41  1  1
 16 42  1  0
 17 43  1  0
 23 44  1  0
 23 45  1  0
 29 46  1  6
 26 47  1  0
M  END
