
     RDKit          3D

 28 29  0  0  0  0  0  0  0  0999 V2000
    5.9317    0.4003    0.0180 O   0  0  0  0  0  0  0  0  0  0  0  0
    4.5864    0.3923    0.0665 C   0  0  0  0  0  0  0  0  0  0  0  0
    3.8974    1.2071   -0.8287 C   0  0  0  0  0  0  0  0  0  0  0  0
    2.5133    1.2330   -0.8130 C   0  0  0  0  0  0  0  0  0  0  0  0
    1.7827    0.4473    0.0775 C   0  0  0  0  0  0  0  0  0  0  0  0
    0.3083    0.5289    0.0973 C   0  0  0  0  0  0  0  0  0  0  0  0
   -0.5131   -0.5861   -0.0496 C   0  0  0  0  0  0  0  0  0  0  0  0
    0.1565   -2.1573   -0.3244 Cl  0  0  0  0  0  0  0  0  0  0  0  0
   -1.9071   -0.4897   -0.0257 C   0  0  0  0  0  0  0  0  0  0  0  0
   -2.6185   -1.6021   -0.1828 O   0  0  0  0  0  0  0  0  0  0  0  0
   -2.4988    0.7738    0.1528 C   0  0  0  0  0  0  0  0  0  0  0  0
   -3.9422    0.9542    0.1893 C   0  0  0  0  0  0  0  0  0  0  0  0
   -4.7254   -0.0376    0.0390 N   0  0  0  0  0  0  0  0  0  0  0  0
   -6.0413    0.2823    0.0965 O   0  0  0  0  0  0  0  0  0  0  0  0
   -1.6761    1.8904    0.2893 C   0  0  0  0  0  0  0  0  0  0  0  0
   -0.3024    1.7750    0.2611 C   0  0  0  0  0  0  0  0  0  0  0  0
    2.4857   -0.3613    0.9681 C   0  0  0  0  0  0  0  0  0  0  0  0
    3.8699   -0.3894    0.9705 C   0  0  0  0  0  0  0  0  0  0  0  0
    6.2971   -0.1920    0.6845 H   0  0  0  0  0  0  0  0  0  0  0  0
    4.4472    1.8155   -1.5357 H   0  0  0  0  0  0  0  0  0  0  0  0
    1.9931    1.8697   -1.5184 H   0  0  0  0  0  0  0  0  0  0  0  0
   -3.5750   -1.3768   -0.1525 H   0  0  0  0  0  0  0  0  0  0  0  0
   -4.3226    1.9627    0.3472 H   0  0  0  0  0  0  0  0  0  0  0  0
   -6.5024   -0.5497   -0.0562 H   0  0  0  0  0  0  0  0  0  0  0  0
   -2.1286    2.8643    0.4293 H   0  0  0  0  0  0  0  0  0  0  0  0
    0.3171    2.6527    0.3860 H   0  0  0  0  0  0  0  0  0  0  0  0
    1.9510   -0.9650    1.6897 H   0  0  0  0  0  0  0  0  0  0  0  0
    4.3904   -1.0185    1.6838 H   0  0  0  0  0  0  0  0  0  0  0  0
 18 17  1  0
 18  2  2  0
  1  2  1  0
 17  5  2  0
  2  3  1  0
  5  6  1  0
  5  4  1  0
 16 15  2  0
 16  6  1  0
  3  4  2  0
 15 11  1  0
  6  7  2  0
 13 14  1  0
 13 12  2  0
 11  9  2  0
 11 12  1  0
  7  9  1  0
  7  8  1  0
  9 10  1  0
  1 19  1  0
  3 20  1  0
  4 21  1  0
 10 22  1  0
 12 23  1  0
 14 24  1  0
 15 25  1  0
 16 26  1  0
 17 27  1  0
 18 28  1  0
M  END
