
     RDKit          3D

 47 50  0  0  0  0  0  0  0  0999 V2000
   -5.4587    2.1438   -0.4207 N   0  0  0  0  0  0  0  0  0  0  0  0
    2.5952   -0.5503   -0.3970 C   0  0  0  0  0  0  0  0  0  0  0  0
    3.9300    0.0044   -0.3481 C   0  0  0  0  0  0  0  0  0  0  0  0
    3.9919    1.5180   -0.3103 C   0  0  0  0  0  0  0  0  0  0  0  0
    2.8439    2.1907    0.4563 C   0  0  1  0  0  0  0  0  0  0  0  0
    1.5001    1.7387   -0.1415 C   0  0  0  0  0  0  0  0  0  0  0  0
    2.9143    1.8189    1.9395 C   0  0  0  0  0  0  0  0  0  0  0  0
   -2.7713    1.2662   -0.9982 C   0  0  0  0  0  0  0  0  0  0  0  0
   -3.1639   -0.4949    0.5872 C   0  0  0  0  0  0  0  0  0  0  0  0
   -1.0344   -3.0766    0.7457 C   0  0  0  0  0  0  0  0  0  0  0  0
   -5.1005    0.9053   -0.0560 C   0  0  0  0  0  0  0  0  0  0  0  0
   -3.6433    0.5765   -0.1610 C   0  0  0  0  0  0  0  0  0  0  0  0
   -1.4390    0.8972   -1.0781 C   0  0  0  0  0  0  0  0  0  0  0  0
   -1.8265   -0.8468    0.5397 C   0  0  0  0  0  0  0  0  0  0  0  0
   -1.3497   -1.8212    1.3515 O   0  0  0  0  0  0  0  0  0  0  0  0
   -0.2559   -2.9235   -0.5570 C   0  0  0  0  0  0  0  0  0  0  0  0
    0.7890   -1.8703   -0.4719 C   0  0  0  0  0  0  0  0  0  0  0  0
   -0.9554   -0.1472   -0.3033 C   0  0  0  0  0  0  0  0  0  0  0  0
    0.3927   -0.5389   -0.3589 N   0  0  0  0  0  0  0  0  0  0  0  0
    1.4846    0.2629   -0.3090 C   0  0  0  0  0  0  0  0  0  0  0  0
    4.9428   -0.6772   -0.3735 O   0  0  0  0  0  0  0  0  0  0  0  0
    2.1517   -1.9118   -0.4958 C   0  0  0  0  0  0  0  0  0  0  0  0
    3.0119   -3.1243   -0.6128 C   0  0  0  0  0  0  0  0  0  0  0  0
   -6.4259    2.4192   -0.3640 H   0  0  0  0  0  0  0  0  0  0  0  0
   -4.7919    2.8658   -0.6312 H   0  0  0  0  0  0  0  0  0  0  0  0
    4.9555    1.8260    0.1027 H   0  0  0  0  0  0  0  0  0  0  0  0
    3.9759    1.8574   -1.3542 H   0  0  0  0  0  0  0  0  0  0  0  0
    0.6756    2.0754    0.4942 H   0  0  0  0  0  0  0  0  0  0  0  0
    1.3534    2.2254   -1.1132 H   0  0  0  0  0  0  0  0  0  0  0  0
    2.7926    0.7477    2.1061 H   0  0  0  0  0  0  0  0  0  0  0  0
    3.8762    2.1129    2.3647 H   0  0  0  0  0  0  0  0  0  0  0  0
    2.1312    2.3308    2.5022 H   0  0  0  0  0  0  0  0  0  0  0  0
   -3.1173    2.0759   -1.6263 H   0  0  0  0  0  0  0  0  0  0  0  0
   -3.8280   -1.0445    1.2416 H   0  0  0  0  0  0  0  0  0  0  0  0
   -0.4354   -3.6044    1.4866 H   0  0  0  0  0  0  0  0  0  0  0  0
   -1.9495   -3.6503    0.5690 H   0  0  0  0  0  0  0  0  0  0  0  0
   -0.7789    1.4151   -1.7603 H   0  0  0  0  0  0  0  0  0  0  0  0
    0.1965   -3.8864   -0.7954 H   0  0  0  0  0  0  0  0  0  0  0  0
   -0.9452   -2.7071   -1.3797 H   0  0  0  0  0  0  0  0  0  0  0  0
    2.1471    4.2115    0.8351 H   0  0  0  0  0  0  0  0  0  0  0  0
    3.9022    4.0629    0.7499 H   0  0  0  0  0  0  0  0  0  0  0  0
    2.9407    4.0166   -0.7288 H   0  0  0  0  0  0  0  0  0  0  0  0
    3.6805   -3.2233    0.2428 H   0  0  0  0  0  0  0  0  0  0  0  0
    2.4145   -4.0334   -0.6711 H   0  0  0  0  0  0  0  0  0  0  0  0
    3.6410   -3.0844   -1.5025 H   0  0  0  0  0  0  0  0  0  0  0  0
    2.9653    3.7061    0.3178 C   0  0  0  0  0  0  0  0  0  0  0  0
   -5.9029    0.0713    0.3421 O   0  0  0  0  0  0  0  0  0  0  0  0
  5  7  1  1
 47 11  2  0
 46  5  1  0
 15 14  1  0
 15 10  1  0
  5  6  1  0
  5  4  1  0
  9 14  1  0
  9 12  2  0
 11 12  1  0
 11  1  1  0
 14 18  2  0
  6 20  1  0
 12  8  1  0
  4  3  1  0
 10 16  1  0
 20 19  1  0
 20  2  2  0
 18 19  1  0
 18 13  1  0
  3 21  2  0
  3  2  1  0
 19 17  1  0
  2 22  1  0
  8 13  2  0
 17 22  2  0
 17 16  1  0
 22 23  1  0
  1 24  1  0
  1 25  1  0
  4 26  1  0
  4 27  1  0
  6 28  1  0
  6 29  1  0
  7 30  1  0
  7 31  1  0
  7 32  1  0
  8 33  1  0
  9 34  1  0
 10 35  1  0
 10 36  1  0
 13 37  1  0
 16 38  1  0
 16 39  1  0
 46 40  1  0
 46 41  1  0
 46 42  1  0
 23 43  1  0
 23 44  1  0
 23 45  1  0
M  END
