
     RDKit          3D

 70 74  0  0  0  0  0  0  0  0999 V2000
    0.5598   -4.4272    1.3943 C   0  0  0  0  0  0  0  0  0  0  0  0
   -0.9468   -4.1991    1.3572 C   0  0  0  0  0  0  0  0  0  0  0  0
   -1.0593   -2.7545    0.8838 C   0  0  1  0  0  0  0  0  0  0  0  0
    0.0191   -2.6927   -0.1994 C   0  0  0  0  0  0  0  0  0  0  0  0
   -2.8212   -1.1384    0.3281 C   0  0  0  0  0  0  0  0  0  0  0  0
    0.8270    0.8392    0.7463 C   0  0  0  0  0  0  0  0  0  0  0  0
    2.9495    1.8188    0.0693 C   0  0  0  0  0  0  0  0  0  0  0  0
    5.0823    2.9003   -0.3851 C   0  0  0  0  0  0  0  0  0  0  0  0
    6.5587    2.7168   -0.0854 C   0  0  0  0  0  0  0  0  0  0  0  0
    8.5043    1.3964   -0.5438 C   0  0  0  0  0  0  0  0  0  0  0  0
    4.8727    0.5266   -0.6526 C   0  0  0  0  0  0  0  0  0  0  0  0
    3.3425   -4.2296    0.8052 C   0  0  0  0  0  0  0  0  0  0  0  0
    2.7305   -2.5800   -0.8229 O   0  0  0  0  0  0  0  0  0  0  0  0
    1.0687   -3.5259    0.3622 N   0  0  0  0  0  0  0  0  0  0  0  0
   -2.3874   -2.4166    0.4495 N   0  0  0  0  0  0  0  0  0  0  0  0
   -1.8707   -0.1926    0.3634 N   0  0  0  0  0  0  0  0  0  0  0  0
   -2.2090    1.0829    0.2540 C   0  0  0  0  0  0  0  0  0  0  0  0
   -1.2719    2.0570    0.2785 N   0  0  0  0  0  0  0  0  0  0  0  0
    0.1233    1.9354    0.2427 C   0  0  0  0  0  0  0  0  0  0  0  0
    2.2044    0.7865    0.6501 C   0  0  0  0  0  0  0  0  0  0  0  0
    2.2399    2.9300   -0.3923 C   0  0  0  0  0  0  0  0  0  0  0  0
    0.8562    2.9832   -0.3060 C   0  0  0  0  0  0  0  0  0  0  0  0
    4.3435    1.7170    0.0026 N   0  0  0  0  0  0  0  0  0  0  0  0
    7.0839    1.5474   -0.7575 N   0  0  0  0  0  0  0  0  0  0  0  0
    6.3489    0.3686   -0.3491 C   0  0  0  0  0  0  0  0  0  0  0  0
   -3.5688    1.4075    0.1031 C   0  0  0  0  0  0  0  0  0  0  0  0
   -4.2441    2.5921   -0.0462 N   0  0  0  0  0  0  0  0  0  0  0  0
   -5.4902    2.2357   -0.1588 C   0  0  0  0  0  0  0  0  0  0  0  0
   -5.6808    0.8814   -0.0910 N   0  0  0  0  0  0  0  0  0  0  0  0
   -6.9421    0.1562   -0.2154 C   0  0  1  0  0  0  0  0  0  0  0  0
   -7.9661    0.6728    0.7843 C   0  0  0  0  0  0  0  0  0  0  0  0
   -7.4497    0.2053   -1.6498 C   0  0  0  0  0  0  0  0  0  0  0  0
   -4.4457    0.3310    0.0717 C   0  0  0  0  0  0  0  0  0  0  0  0
   -4.1325   -0.9555    0.1799 N   0  0  0  0  0  0  0  0  0  0  0  0
    0.9688   -4.1662    2.3739 H   0  0  0  0  0  0  0  0  0  0  0  0
    0.8217   -5.4661    1.1896 H   0  0  0  0  0  0  0  0  0  0  0  0
   -1.4158   -4.8654    0.6280 H   0  0  0  0  0  0  0  0  0  0  0  0
   -1.4128   -4.3753    2.3261 H   0  0  0  0  0  0  0  0  0  0  0  0
   -0.7587   -2.0925    1.7042 H   0  0  0  0  0  0  0  0  0  0  0  0
   -0.3653   -3.1048   -1.1390 H   0  0  0  0  0  0  0  0  0  0  0  0
    0.3763   -1.6832   -0.3894 H   0  0  0  0  0  0  0  0  0  0  0  0
    0.3037    0.0230    1.2166 H   0  0  0  0  0  0  0  0  0  0  0  0
    4.7202    3.7589    0.1831 H   0  0  0  0  0  0  0  0  0  0  0  0
    4.9560    3.1345   -1.4538 H   0  0  0  0  0  0  0  0  0  0  0  0
    7.0975    3.6025   -0.4312 H   0  0  0  0  0  0  0  0  0  0  0  0
    6.6992    2.6569    1.0081 H   0  0  0  0  0  0  0  0  0  0  0  0
    8.7727    1.2511    0.5144 H   0  0  0  0  0  0  0  0  0  0  0  0
    8.8759    0.5356   -1.1018 H   0  0  0  0  0  0  0  0  0  0  0  0
    9.0328    2.2814   -0.9019 H   0  0  0  0  0  0  0  0  0  0  0  0
    4.3455   -0.3628   -0.3120 H   0  0  0  0  0  0  0  0  0  0  0  0
    4.7295    0.5898   -1.7422 H   0  0  0  0  0  0  0  0  0  0  0  0
    3.1673   -5.2908    0.6205 H   0  0  0  0  0  0  0  0  0  0  0  0
    4.3582   -3.9894    0.5022 H   0  0  0  0  0  0  0  0  0  0  0  0
    3.2534   -4.0745    1.8816 H   0  0  0  0  0  0  0  0  0  0  0  0
   -3.1033   -3.1221    0.5067 H   0  0  0  0  0  0  0  0  0  0  0  0
   -1.6276    2.9862    0.1092 H   0  0  0  0  0  0  0  0  0  0  0  0
    2.7098   -0.0793    1.0573 H   0  0  0  0  0  0  0  0  0  0  0  0
    2.7502    3.7667   -0.8487 H   0  0  0  0  0  0  0  0  0  0  0  0
    0.3417    3.8531   -0.6978 H   0  0  0  0  0  0  0  0  0  0  0  0
    6.4762    0.1599    0.7278 H   0  0  0  0  0  0  0  0  0  0  0  0
    6.7307   -0.4994   -0.8925 H   0  0  0  0  0  0  0  0  0  0  0  0
   -6.3168    2.9177   -0.2887 H   0  0  0  0  0  0  0  0  0  0  0  0
   -6.7011   -0.8775    0.0365 H   0  0  0  0  0  0  0  0  0  0  0  0
   -8.2877    1.6892    0.5506 H   0  0  0  0  0  0  0  0  0  0  0  0
   -8.8506    0.0366    0.7626 H   0  0  0  0  0  0  0  0  0  0  0  0
   -7.5681    0.6610    1.7988 H   0  0  0  0  0  0  0  0  0  0  0  0
   -8.3367   -0.4196   -1.7523 H   0  0  0  0  0  0  0  0  0  0  0  0
   -7.7203    1.2215   -1.9412 H   0  0  0  0  0  0  0  0  0  0  0  0
   -6.6957   -0.1624   -2.3456 H   0  0  0  0  0  0  0  0  0  0  0  0
    2.3658   -3.3705    0.0403 C   0  0  0  0  0  0  0  0  0  0  0  0
 32 30  1  0
 31 30  1  0
 30 29  1  0
 29 28  1  0
 29 33  1  0
 34 33  2  0
 34  5  1  0
 28 27  2  0
 33 26  1  0
 15  5  1  0
 15  3  1  0
  5 16  2  0
 27 26  1  0
 13 70  2  0
 26 17  2  0
  4 14  1  0
  4  3  1  0
 70 14  1  0
 70 12  1  0
 14  1  1  0
  3  2  1  0
 16 17  1  0
 17 18  1  0
  1  2  1  0
 18 19  1  0
 19 22  1  0
 19  6  2  0
 22 21  2  0
  6 20  1  0
 21  7  1  0
 20  7  2  0
  7 23  1  0
 23  8  1  0
 23 11  1  0
  8  9  1  0
 11 25  1  0
  9 24  1  0
 25 24  1  0
 24 10  1  0
  1 35  1  0
  1 36  1  0
  2 37  1  0
  2 38  1  0
  3 39  1  1
  4 40  1  0
  4 41  1  0
  6 42  1  0
  8 43  1  0
  8 44  1  0
  9 45  1  0
  9 46  1  0
 10 47  1  0
 10 48  1  0
 10 49  1  0
 11 50  1  0
 11 51  1  0
 12 52  1  0
 12 53  1  0
 12 54  1  0
 15 55  1  0
 18 56  1  0
 20 57  1  0
 21 58  1  0
 22 59  1  0
 25 60  1  0
 25 61  1  0
 28 62  1  0
 30 63  1  1
 31 64  1  0
 31 65  1  0
 31 66  1  0
 32 67  1  0
 32 68  1  0
 32 69  1  0
M  END
