
     RDKit          3D

 40 42  0  0  0  0  0  0  0  0999 V2000
    1.3446    0.7792   -0.0478 C   0  0  0  0  0  0  0  0  0  0  0  0
    3.6956    1.0771    0.6071 N   0  0  0  0  0  0  0  0  0  0  0  0
    1.7079    0.1462   -1.0055 O   0  0  0  0  0  0  0  0  0  0  0  0
    2.3316    1.3376    0.9620 C   0  0  0  0  0  0  0  0  0  0  0  0
   -0.9296   -3.9833    0.2393 C   0  0  0  0  0  0  0  0  0  0  0  0
   -5.1093    1.7153    0.0803 C   0  0  0  0  0  0  0  0  0  0  0  0
   -0.5194   -3.0897    1.2177 C   0  0  0  0  0  0  0  0  0  0  0  0
   -1.3766   -3.4972   -0.9837 C   0  0  0  0  0  0  0  0  0  0  0  0
   -4.3805    1.2023    1.1472 C   0  0  0  0  0  0  0  0  0  0  0  0
   -4.5374    1.7507   -1.1830 C   0  0  0  0  0  0  0  0  0  0  0  0
    5.5970    0.0937    0.2293 C   0  0  0  0  0  0  0  0  0  0  0  0
   -0.5560   -1.7207    0.9780 C   0  0  0  0  0  0  0  0  0  0  0  0
   -1.4108   -2.1310   -1.2177 C   0  0  0  0  0  0  0  0  0  0  0  0
   -3.0920    0.7284    0.9496 C   0  0  0  0  0  0  0  0  0  0  0  0
   -3.2444    1.2784   -1.3757 C   0  0  0  0  0  0  0  0  0  0  0  0
    4.3858   -0.0810    0.8327 C   0  0  0  0  0  0  0  0  0  0  0  0
    4.4972    1.8784   -0.1284 C   0  0  0  0  0  0  0  0  0  0  0  0
   -0.0963    1.1085    0.2381 C   0  0  0  0  0  0  0  0  0  0  0  0
    5.6553    1.3220   -0.3677 N   0  0  0  0  0  0  0  0  0  0  0  0
   -1.0022   -1.2232   -0.2423 C   0  0  0  0  0  0  0  0  0  0  0  0
   -2.5067    0.7632   -0.3150 C   0  0  0  0  0  0  0  0  0  0  0  0
   -1.0956    0.2590   -0.5420 C   0  0  1  0  0  0  0  0  0  0  0  0
    2.1730    2.4141    1.0593 H   0  0  0  0  0  0  0  0  0  0  0  0
    2.1150    0.9121    1.9444 H   0  0  0  0  0  0  0  0  0  0  0  0
   -6.1152    2.0832    0.2359 H   0  0  0  0  0  0  0  0  0  0  0  0
   -0.1634   -3.4549    2.1724 H   0  0  0  0  0  0  0  0  0  0  0  0
   -1.6939   -4.1838   -1.7584 H   0  0  0  0  0  0  0  0  0  0  0  0
   -4.8181    1.1698    2.1369 H   0  0  0  0  0  0  0  0  0  0  0  0
   -5.0954    2.1459   -2.0224 H   0  0  0  0  0  0  0  0  0  0  0  0
    6.4261   -0.5964    0.2000 H   0  0  0  0  0  0  0  0  0  0  0  0
   -0.2285   -1.0482    1.7618 H   0  0  0  0  0  0  0  0  0  0  0  0
   -1.7589   -1.7607   -2.1754 H   0  0  0  0  0  0  0  0  0  0  0  0
   -2.5444    0.3231    1.7928 H   0  0  0  0  0  0  0  0  0  0  0  0
   -2.8045    1.3102   -2.3658 H   0  0  0  0  0  0  0  0  0  0  0  0
    3.9696   -0.8997    1.3960 H   0  0  0  0  0  0  0  0  0  0  0  0
    4.1839    2.8611   -0.4489 H   0  0  0  0  0  0  0  0  0  0  0  0
   -0.2730    1.0698    1.3168 H   0  0  0  0  0  0  0  0  0  0  0  0
   -0.2314    2.1634   -0.0280 H   0  0  0  0  0  0  0  0  0  0  0  0
   -0.8757    0.3858   -1.6054 H   0  0  0  0  0  0  0  0  0  0  0  0
   -0.8976   -5.0490    0.4254 H   0  0  0  0  0  0  0  0  0  0  0  0
  3  1  2  0
  1 18  1  0
  1  4  1  0
 16  2  1  0
  2  4  1  0
  2 17  1  0
  4 23  1  0
  4 24  1  0
  7  5  2  0
  5  8  1  0
  5 40  1  0
 10  6  2  0
  6  9  1  0
  6 25  1  0
  7 12  1  0
  7 26  1  0
  8 13  2  0
  8 27  1  0
 14  9  2  0
  9 28  1  0
 15 10  1  0
 10 29  1  0
 16 11  2  0
 11 19  1  0
 11 30  1  0
 12 20  2  0
 12 31  1  0
 20 13  1  0
 13 32  1  0
 21 14  1  0
 14 33  1  0
 15 21  2  0
 15 34  1  0
 16 35  1  0
 19 17  2  0
 17 36  1  0
 22 18  1  0
 18 37  1  0
 18 38  1  0
 20 22  1  0
 22 21  1  0
 22 39  1  6
M  END
