
     RDKit          3D

 35 35  0  0  0  0  0  0  0  0999 V2000
   -5.1521   -0.1999   -2.7518 O   0  0  0  0  0  0  0  0  0  0  0  0
   -3.7700    0.1229   -2.7248 C   0  0  0  0  0  0  0  0  0  0  0  0
   -3.2225   -0.0897   -1.3068 C   0  0  1  0  0  0  0  0  0  0  0  0
   -3.4443   -1.4055   -0.9164 O   0  0  0  0  0  0  0  0  0  0  0  0
   -1.7164    0.2004   -1.2902 C   0  0  0  0  0  0  0  0  0  0  0  0
   -1.2283    0.0613    0.0239 O   0  0  0  0  0  0  0  0  0  0  0  0
    0.0709    0.4294    0.1733 C   0  0  1  0  0  0  0  0  0  0  0  0
    0.2797    0.9259    1.5999 C   0  0  2  0  0  0  0  0  0  0  0  0
   -0.4729    2.1425    1.7827 O   0  0  0  0  0  0  0  0  0  0  0  0
    1.7042    1.1990    1.8902 C   0  0  1  0  0  0  0  0  0  0  0  0
    1.8427    1.5108    3.3073 O   0  0  0  0  0  0  0  0  0  0  0  0
    2.5788    0.0268    1.5663 C   0  0  1  0  0  0  0  0  0  0  0  0
    2.2829   -1.0388    2.4774 O   0  0  0  0  0  0  0  0  0  0  0  0
    2.3648   -0.4726    0.1334 C   0  0  2  0  0  0  0  0  0  0  0  0
    0.9507   -0.7450   -0.1514 O   0  0  0  0  0  0  0  0  0  0  0  0
    3.1543   -1.7362   -0.0640 C   0  0  0  0  0  0  0  0  0  0  0  0
    3.2737   -2.0086   -1.4480 O   0  0  0  0  0  0  0  0  0  0  0  0
   -5.5168    0.0440   -3.5905 H   0  0  0  0  0  0  0  0  0  0  0  0
   -3.6354    1.1608   -3.0130 H   0  0  0  0  0  0  0  0  0  0  0  0
   -3.2330   -0.5205   -3.4216 H   0  0  0  0  0  0  0  0  0  0  0  0
   -3.7263    0.5798   -0.6215 H   0  0  0  0  0  0  0  0  0  0  0  0
   -4.3112   -1.4873   -0.5727 H   0  0  0  0  0  0  0  0  0  0  0  0
   -1.2042   -0.5031   -1.9443 H   0  0  0  0  0  0  0  0  0  0  0  0
   -1.5381    1.2143   -1.6381 H   0  0  0  0  0  0  0  0  0  0  0  0
    0.2955    1.2385   -0.5166 H   0  0  0  0  0  0  0  0  0  0  0  0
   -0.0829    0.1715    2.2921 H   0  0  0  0  0  0  0  0  0  0  0  0
   -0.9718    2.0870    2.5794 H   0  0  0  0  0  0  0  0  0  0  0  0
    2.0256    2.0495    1.3040 H   0  0  0  0  0  0  0  0  0  0  0  0
    2.3068    2.3305    3.4065 H   0  0  0  0  0  0  0  0  0  0  0  0
    3.6158    0.3204    1.6844 H   0  0  0  0  0  0  0  0  0  0  0  0
    2.9710   -1.1130    3.1035 H   0  0  0  0  0  0  0  0  0  0  0  0
    2.7203    0.2797   -0.5544 H   0  0  0  0  0  0  0  0  0  0  0  0
    4.1435   -1.6152    0.3674 H   0  0  0  0  0  0  0  0  0  0  0  0
    2.6425   -2.5647    0.4264 H   0  0  0  0  0  0  0  0  0  0  0  0
    4.0025   -2.5948   -1.5920 H   0  0  0  0  0  0  0  0  0  0  0  0
  1  2  1  0
  2  3  1  0
  3  4  1  0
  3  5  1  0
  5  6  1  0
  6  7  1  0
  7  8  1  0
  7 15  1  0
  8  9  1  0
  8 10  1  0
 10 11  1  0
 10 12  1  0
 12 13  1  0
 12 14  1  0
 14 15  1  0
 14 16  1  0
 16 17  1  0
  1 18  1  0
  2 19  1  0
  2 20  1  0
  3 21  1  1
  4 22  1  0
  5 23  1  0
  5 24  1  0
  7 25  1  6
  8 26  1  1
  9 27  1  0
 10 28  1  6
 11 29  1  0
 12 30  1  6
 13 31  1  0
 14 32  1  6
 16 33  1  0
 16 34  1  0
 17 35  1  0
M  END
