
     RDKit          3D

 15 15  0  0  0  0  0  0  0  0999 V2000
   -0.8179    0.0013   -0.0309 C   0  0  0  0  0  0  0  0  0  0  0  0
   -0.1580   -1.2136    0.0039 C   0  0  0  0  0  0  0  0  0  0  0  0
    1.2288   -1.2153    0.0324 C   0  0  0  0  0  0  0  0  0  0  0  0
    1.9293   -0.0162    0.0247 C   0  0  0  0  0  0  0  0  0  0  0  0
    1.2455    1.1911   -0.0115 C   0  0  0  0  0  0  0  0  0  0  0  0
   -0.1420    1.2068   -0.0400 C   0  0  0  0  0  0  0  0  0  0  0  0
   -2.2765    0.0085   -0.0379 N   0  0  0  0  0  0  0  0  0  0  0  0
   -0.7112   -2.1441    0.0084 H   0  0  0  0  0  0  0  0  0  0  0  0
    1.7603   -2.1566    0.0596 H   0  0  0  0  0  0  0  0  0  0  0  0
    3.0106   -0.0233    0.0435 H   0  0  0  0  0  0  0  0  0  0  0  0
    1.7891    2.1257   -0.0201 H   0  0  0  0  0  0  0  0  0  0  0  0
   -0.6815    2.1451   -0.0698 H   0  0  0  0  0  0  0  0  0  0  0  0
   -2.6665   -0.0676    0.9042 H   0  0  0  0  0  0  0  0  0  0  0  0
   -2.6569    0.8649   -0.4432 H   0  0  0  0  0  0  0  0  0  0  0  0
   -2.6650   -0.7661   -0.5783 H   0  0  0  0  0  0  0  0  0  0  0  0
  7  1  1  0
  6  1  2  0
  6  5  1  0
  1  2  1  0
  5  4  2  0
  2  3  2  0
  4  3  1  0
  2  8  1  0
  3  9  1  0
  4 10  1  0
  5 11  1  0
  6 12  1  0
  7 13  1  0
  7 14  1  0
  7 15  1  0
M  CHG  1   7   1
M  END
