
     RDKit          3D

 51 52  0  0  0  0  0  0  0  0999 V2000
    5.2381   -3.6589    0.4433 C   0  0  0  0  0  0  0  0  0  0  0  0
    5.5477   -2.3441   -0.0827 N   0  0  0  0  0  0  0  0  0  0  0  0
    6.9059   -1.8535   -0.0033 C   0  0  0  0  0  0  0  0  0  0  0  0
    4.5181   -1.5540   -0.6790 C   0  0  0  0  0  0  0  0  0  0  0  0
    4.2612   -1.6150   -2.0411 C   0  0  0  0  0  0  0  0  0  0  0  0
    3.2449   -0.8313   -2.6169 C   0  0  0  0  0  0  0  0  0  0  0  0
    2.4842    0.0127   -1.8514 C   0  0  0  0  0  0  0  0  0  0  0  0
    2.6974    0.1246   -0.4445 C   0  0  0  0  0  0  0  0  0  0  0  0
    1.9115    1.0027    0.3772 C   0  0  0  0  0  0  0  0  0  0  0  0
    0.6581    1.9975   -0.2079 S   0  0  2  0  0  0  0  0  0  0  0  0
    1.1249    2.7858   -1.2799 O   0  0  0  0  0  0  0  0  0  0  0  0
    0.0927    2.7252    0.8673 O   0  0  0  0  0  0  0  0  0  0  0  0
   -0.4128    0.9276   -0.7736 N   0  0  0  0  0  0  0  0  0  0  0  0
   -1.4586    0.3213   -0.0010 C   0  0  0  0  0  0  0  0  0  0  0  0
   -2.8587    0.5107   -0.5881 C   0  0  0  0  0  0  0  0  0  0  0  0
   -3.8837   -0.1462    0.3116 C   0  0  0  0  0  0  0  0  0  0  0  0
   -5.2717   -0.0087   -0.2749 C   0  0  0  0  0  0  0  0  0  0  0  0
   -6.3500   -0.5025    0.7029 C   0  0  1  0  0  0  0  0  0  0  0  0
   -7.7095   -0.2915    0.0402 C   0  0  0  0  0  0  0  0  0  0  0  0
   -8.1651    0.9893    0.0799 O   0  0  0  0  0  0  0  0  0  0  0  0
   -8.4299   -1.1265   -0.5156 O   0  0  0  0  0  0  0  0  0  0  0  0
   -6.1396   -1.8550    1.1598 N   0  0  0  0  0  0  0  0  0  0  0  0
    2.1792    1.0558    1.7363 C   0  0  0  0  0  0  0  0  0  0  0  0
    3.1910    0.2780    2.3238 C   0  0  0  0  0  0  0  0  0  0  0  0
    3.9476   -0.5642    1.5484 C   0  0  0  0  0  0  0  0  0  0  0  0
    3.7256   -0.6670    0.1478 C   0  0  0  0  0  0  0  0  0  0  0  0
    4.1681   -3.6914    0.7759 H   0  0  0  0  0  0  0  0  0  0  0  0
    5.4040   -4.4782   -0.3096 H   0  0  0  0  0  0  0  0  0  0  0  0
    5.8993   -3.8493    1.3294 H   0  0  0  0  0  0  0  0  0  0  0  0
    7.4526   -1.8978   -0.9855 H   0  0  0  0  0  0  0  0  0  0  0  0
    6.8987   -0.7923    0.3578 H   0  0  0  0  0  0  0  0  0  0  0  0
    7.4632   -2.4854    0.7374 H   0  0  0  0  0  0  0  0  0  0  0  0
    4.8436   -2.2775   -2.7000 H   0  0  0  0  0  0  0  0  0  0  0  0
    3.0691   -0.9072   -3.7011 H   0  0  0  0  0  0  0  0  0  0  0  0
    1.7006    0.6061   -2.3471 H   0  0  0  0  0  0  0  0  0  0  0  0
   -0.4775    0.7284   -1.7432 H   0  0  0  0  0  0  0  0  0  0  0  0
   -1.2617   -0.7879    0.0873 H   0  0  0  0  0  0  0  0  0  0  0  0
   -1.4436    0.7563    1.0416 H   0  0  0  0  0  0  0  0  0  0  0  0
   -3.0883    1.6031   -0.6912 H   0  0  0  0  0  0  0  0  0  0  0  0
   -2.9101    0.0590   -1.6128 H   0  0  0  0  0  0  0  0  0  0  0  0
   -3.6291   -1.2306    0.4458 H   0  0  0  0  0  0  0  0  0  0  0  0
   -3.8551    0.3302    1.3269 H   0  0  0  0  0  0  0  0  0  0  0  0
   -5.4834    1.0708   -0.5000 H   0  0  0  0  0  0  0  0  0  0  0  0
   -5.3372   -0.5772   -1.2388 H   0  0  0  0  0  0  0  0  0  0  0  0
   -6.3363    0.1689    1.6167 H   0  0  0  0  0  0  0  0  0  0  0  0
   -9.0305    1.0433   -0.3592 H   0  0  0  0  0  0  0  0  0  0  0  0
   -6.9100   -2.1626    1.7217 H   0  0  0  0  0  0  0  0  0  0  0  0
   -6.0230   -2.4833    0.3894 H   0  0  0  0  0  0  0  0  0  0  0  0
    1.5921    1.7223    2.3974 H   0  0  0  0  0  0  0  0  0  0  0  0
    3.3671    0.3534    3.4069 H   0  0  0  0  0  0  0  0  0  0  0  0
    4.7371   -1.1668    2.0276 H   0  0  0  0  0  0  0  0  0  0  0  0
  1  2  1  0
  1 27  1  0
  1 28  1  0
  1 29  1  0
  2  3  1  0
  2  4  1  0
  3 30  1  0
  3 31  1  0
  3 32  1  0
  4  5  2  0
  4 26  1  0
  5  6  1  0
  5 33  1  0
  6  7  2  0
  6 34  1  0
  7  8  1  0
  7 35  1  0
  8  9  1  0
  8 26  2  0
  9 10  1  0
  9 23  2  0
 10 11  2  0
 10 12  2  0
 10 13  1  6
 13 14  1  0
 13 36  1  0
 14 15  1  0
 14 37  1  0
 14 38  1  0
 15 16  1  0
 15 39  1  0
 15 40  1  0
 16 17  1  0
 16 41  1  0
 16 42  1  0
 17 18  1  0
 17 43  1  0
 17 44  1  0
 18 19  1  0
 18 22  1  0
 18 45  1  1
 19 20  1  0
 19 21  2  0
 20 46  1  0
 22 47  1  0
 22 48  1  0
 23 24  1  0
 23 49  1  0
 24 25  2  0
 24 50  1  0
 25 26  1  0
 25 51  1  0
M  END
