
     RDKit          3D

 28 29  0  0  0  0  0  0  0  0999 V2000
   -1.3977   -1.1126    1.0167 C   0  0  0  0  0  0  0  0  0  0  0  0
   -2.5373   -1.8942    1.0543 C   0  0  0  0  0  0  0  0  0  0  0  0
   -3.5319   -1.7200    0.0925 C   0  0  0  0  0  0  0  0  0  0  0  0
   -4.6198   -2.5072    0.1681 O   0  0  0  0  0  0  0  0  0  0  0  0
   -3.3623   -0.7589   -0.9013 C   0  0  0  0  0  0  0  0  0  0  0  0
   -2.2215    0.0273   -0.9178 C   0  0  0  0  0  0  0  0  0  0  0  0
   -1.2258   -0.1279    0.0431 C   0  0  0  0  0  0  0  0  0  0  0  0
    0.0166    0.6747    0.0279 C   0  0  0  0  0  0  0  0  0  0  0  0
   -0.0049    2.0113    0.0168 C   0  0  0  0  0  0  0  0  0  0  0  0
   -1.4452    2.9458    0.1583 Cl  0  0  0  0  0  0  0  0  0  0  0  0
    1.4058    2.9878   -0.1393 Cl  0  0  0  0  0  0  0  0  0  0  0  0
    1.2848   -0.0867    0.0317 C   0  0  0  0  0  0  0  0  0  0  0  0
    1.4970   -1.0793   -0.9228 C   0  0  0  0  0  0  0  0  0  0  0  0
    2.6626   -1.8261   -0.9346 C   0  0  0  0  0  0  0  0  0  0  0  0
    3.6391   -1.6074    0.0351 C   0  0  0  0  0  0  0  0  0  0  0  0
    4.7866   -2.3077    0.0810 O   0  0  0  0  0  0  0  0  0  0  0  0
    3.4300   -0.6336    1.0102 C   0  0  0  0  0  0  0  0  0  0  0  0
    2.2669    0.1157    1.0008 C   0  0  0  0  0  0  0  0  0  0  0  0
   -0.6308   -1.2671    1.7655 H   0  0  0  0  0  0  0  0  0  0  0  0
   -2.6601   -2.6443    1.8252 H   0  0  0  0  0  0  0  0  0  0  0  0
   -5.2457   -2.2913   -0.5325 H   0  0  0  0  0  0  0  0  0  0  0  0
   -4.1168   -0.6232   -1.6678 H   0  0  0  0  0  0  0  0  0  0  0  0
   -2.1045    0.7613   -1.7043 H   0  0  0  0  0  0  0  0  0  0  0  0
    0.7433   -1.2703   -1.6764 H   0  0  0  0  0  0  0  0  0  0  0  0
    2.8083   -2.5835   -1.6960 H   0  0  0  0  0  0  0  0  0  0  0  0
    4.8225   -2.9449   -0.6414 H   0  0  0  0  0  0  0  0  0  0  0  0
    4.1775   -0.4697    1.7763 H   0  0  0  0  0  0  0  0  0  0  0  0
    2.1182    0.8592    1.7730 H   0  0  0  0  0  0  0  0  0  0  0  0
 11  9  1  0
 13 14  2  0
 13 12  1  0
 14 15  1  0
 10  9  1  0
  9  8  2  0
  8 12  1  0
  8  7  1  0
 16 15  1  0
 12 18  2  0
 15 17  2  0
  7  6  1  0
  7  1  2  0
  6  5  2  0
 17 18  1  0
  1  2  1  0
  5  3  1  0
  2  3  2  0
  3  4  1  0
  1 19  1  0
  2 20  1  0
  4 21  1  0
  5 22  1  0
  6 23  1  0
 13 24  1  0
 14 25  1  0
 16 26  1  0
 17 27  1  0
 18 28  1  0
M  END
