
     RDKit          3D

 32 33  0  0  0  0  0  0  0  0999 V2000
    4.0633   -1.0440    1.0664 N   0  0  0  0  0  0  0  0  0  0  0  0
    4.2889    0.9708   -0.1198 N   0  0  0  0  0  0  0  0  0  0  0  0
    2.2575    0.1124   -0.2143 C   0  0  0  0  0  0  0  0  0  0  0  0
    1.0889   -0.7714    0.0205 C   0  0  0  0  0  0  0  0  0  0  0  0
   -1.2397   -1.2338   -0.6299 C   0  0  0  0  0  0  0  0  0  0  0  0
   -4.9604   -0.2034   -0.4941 C   0  0  0  0  0  0  0  0  0  0  0  0
   -3.6204    1.4994    0.7818 C   0  0  0  0  0  0  0  0  0  0  0  0
    3.5827   -0.0353    0.3146 C   0  0  0  0  0  0  0  0  0  0  0  0
    3.4453    1.7107   -0.8896 O   0  0  0  0  0  0  0  0  0  0  0  0
    2.2338    1.1855   -0.9337 N   0  0  0  0  0  0  0  0  0  0  0  0
    1.1759   -1.6566    0.8622 O   0  0  0  0  0  0  0  0  0  0  0  0
    0.0137   -0.5145   -0.7242 N   0  0  0  0  0  0  0  0  0  0  0  0
   -2.4376   -0.2936   -0.5461 C   0  0  1  0  0  0  0  0  0  0  0  0
   -3.7328   -1.1044   -0.5785 C   0  0  0  0  0  0  0  0  0  0  0  0
   -4.9111    0.6876    0.7429 C   0  0  0  0  0  0  0  0  0  0  0  0
   -2.3935    0.5960    0.6956 C   0  0  0  0  0  0  0  0  0  0  0  0
    3.3860   -1.5900    1.5717 H   0  0  0  0  0  0  0  0  0  0  0  0
    4.9389   -0.8940    1.5399 H   0  0  0  0  0  0  0  0  0  0  0  0
   -1.3448   -1.8901   -1.4990 H   0  0  0  0  0  0  0  0  0  0  0  0
   -1.2046   -1.8727    0.2524 H   0  0  0  0  0  0  0  0  0  0  0  0
   -5.8703   -0.8083   -0.4921 H   0  0  0  0  0  0  0  0  0  0  0  0
   -3.6101    2.2038   -0.0568 H   0  0  0  0  0  0  0  0  0  0  0  0
   -3.5772    2.1014    1.6928 H   0  0  0  0  0  0  0  0  0  0  0  0
    0.0740    0.2168   -1.4173 H   0  0  0  0  0  0  0  0  0  0  0  0
   -2.4263    0.3544   -1.4344 H   0  0  0  0  0  0  0  0  0  0  0  0
   -3.7373   -1.8051    0.2649 H   0  0  0  0  0  0  0  0  0  0  0  0
   -3.7713   -1.7112   -1.4879 H   0  0  0  0  0  0  0  0  0  0  0  0
   -5.7792    1.3509    0.7668 H   0  0  0  0  0  0  0  0  0  0  0  0
   -4.9701    0.0630    1.6415 H   0  0  0  0  0  0  0  0  0  0  0  0
   -1.4832    1.2010    0.6982 H   0  0  0  0  0  0  0  0  0  0  0  0
   -2.3481   -0.0412    1.5878 H   0  0  0  0  0  0  0  0  0  0  0  0
   -5.0058    0.4244   -1.3911 H   0  0  0  0  0  0  0  0  0  0  0  0
 15  6  1  0
 15  7  1  0
  6 14  1  0
  7 16  1  0
 14 13  1  0
 16 13  1  0
 13  5  1  0
  5 12  1  0
 12  4  1  0
 10  3  2  0
 10  9  1  0
  4  3  1  0
  4 11  2  0
  3  8  1  0
  9  2  1  0
  8  2  2  0
  8  1  1  0
  1 17  1  0
  1 18  1  0
  5 19  1  0
  5 20  1  0
  6 32  1  0
  6 21  1  0
  7 22  1  0
  7 23  1  0
 12 24  1  0
 13 25  1  6
 14 26  1  0
 14 27  1  0
 15 28  1  0
 15 29  1  0
 16 30  1  0
 16 31  1  0
M  END
