
     RDKit          3D

 30 30  0  0  0  0  0  0  0  0999 V2000
    0.3568    1.3328   -0.2169 C   0  0  0  0  0  0  0  0  0  0  0  0
    0.8171   -0.9077    0.4631 C   0  0  0  0  0  0  0  0  0  0  0  0
   -0.8616    0.8471   -0.9929 C   0  0  0  0  0  0  0  0  0  0  0  0
   -0.4089   -1.3709   -0.3174 C   0  0  0  0  0  0  0  0  0  0  0  0
    3.7091   -0.1726    0.6127 C   0  0  0  0  0  0  0  0  0  0  0  0
   -3.5772    0.4809    0.4992 C   0  0  0  0  0  0  0  0  0  0  0  0
    1.3694    0.2942   -0.1348 N   0  0  0  0  0  0  0  0  0  0  0  0
   -1.4471   -0.3658   -0.4484 N   0  0  0  0  0  0  0  0  0  0  0  0
    4.0870   -0.5433   -0.6936 O   0  0  0  0  0  0  0  0  0  0  0  0
   -4.3492   -0.3381   -0.3487 O   0  0  0  0  0  0  0  0  0  0  0  0
    0.7783    2.2034   -0.7268 H   0  0  0  0  0  0  0  0  0  0  0  0
    0.0501    1.6774    0.7869 H   0  0  0  0  0  0  0  0  0  0  0  0
    0.5596   -0.7531    1.5268 H   0  0  0  0  0  0  0  0  0  0  0  0
    1.5568   -1.7099    0.4337 H   0  0  0  0  0  0  0  0  0  0  0  0
   -1.6090    1.6420   -1.0337 H   0  0  0  0  0  0  0  0  0  0  0  0
   -0.5625    0.6501   -2.0279 H   0  0  0  0  0  0  0  0  0  0  0  0
   -0.0840   -1.6592   -1.3231 H   0  0  0  0  0  0  0  0  0  0  0  0
   -0.8245   -2.2655    0.1517 H   0  0  0  0  0  0  0  0  0  0  0  0
    2.3139    1.0772    1.5994 H   0  0  0  0  0  0  0  0  0  0  0  0
    2.8646    1.7070    0.0516 H   0  0  0  0  0  0  0  0  0  0  0  0
   -1.7262    0.4354    1.5264 H   0  0  0  0  0  0  0  0  0  0  0  0
   -2.4037   -1.1482    1.2103 H   0  0  0  0  0  0  0  0  0  0  0  0
    4.5223    0.3387    1.1437 H   0  0  0  0  0  0  0  0  0  0  0  0
    3.4514   -1.0486    1.2212 H   0  0  0  0  0  0  0  0  0  0  0  0
   -4.0613    0.6281    1.4738 H   0  0  0  0  0  0  0  0  0  0  0  0
   -3.4406    1.4835    0.0728 H   0  0  0  0  0  0  0  0  0  0  0  0
    4.8579   -1.1136   -0.6273 H   0  0  0  0  0  0  0  0  0  0  0  0
   -5.2054    0.0826   -0.4647 H   0  0  0  0  0  0  0  0  0  0  0  0
    2.5421    0.7913    0.5570 C   0  0  0  0  0  0  0  0  0  0  0  0
   -2.2327   -0.1674    0.7577 C   0  0  0  0  0  0  0  0  0  0  0  0
  6 10  1  0
  6 30  1  0
 30  8  1  0
  3  8  1  0
  3  1  1  0
  8  4  1  0
  4  2  1  0
  1  7  1  0
  2  7  1  0
  7 29  1  0
 29  5  1  0
  9  5  1  0
  1 11  1  0
  1 12  1  0
  2 13  1  0
  2 14  1  0
  3 15  1  0
  3 16  1  0
  4 17  1  0
  4 18  1  0
 29 19  1  0
 29 20  1  0
 30 21  1  0
 30 22  1  0
  5 23  1  0
  5 24  1  0
  6 25  1  0
  6 26  1  0
  9 27  1  0
 10 28  1  0
M  END
