
     RDKit          3D

 44 45  0  0  0  0  0  0  0  0999 V2000
    4.7112   -0.5249    0.2415 C   0  0  0  0  0  0  0  0  0  0  0  0
    2.7433   -1.6670   -0.5677 C   0  0  0  0  0  0  0  0  0  0  0  0
    1.9124   -0.6917   -0.0044 C   0  0  0  0  0  0  0  0  0  0  0  0
    2.5024    0.3499    0.7158 C   0  0  0  0  0  0  0  0  0  0  0  0
   -0.4683    0.0731   -0.1133 C   0  0  0  0  0  0  0  0  0  0  0  0
   -2.6525    1.6933   -0.0639 C   0  0  0  0  0  0  0  0  0  0  0  0
   -2.7509    0.2726   -0.0034 C   0  0  0  0  0  0  0  0  0  0  0  0
   -3.8019    2.4996   -0.0024 C   0  0  0  0  0  0  0  0  0  0  0  0
   -4.7511    3.1610    0.0496 N   0  0  0  0  0  0  0  0  0  0  0  0
   -1.3748    2.2826   -0.1937 C   0  0  0  0  0  0  0  0  0  0  0  0
   -1.2309    3.6185   -0.2640 N   0  0  0  0  0  0  0  0  0  0  0  0
   -0.2584    1.4423   -0.2218 C   0  0  0  0  0  0  0  0  0  0  0  0
   -3.9607   -0.3053    0.0892 N   0  0  0  0  0  0  0  0  0  0  0  0
   -4.2775   -1.7387    0.1391 C   0  0  1  0  0  0  0  0  0  0  0  0
   -3.6483   -2.4011    1.3651 C   0  0  0  0  0  0  0  0  0  0  0  0
   -5.7995   -1.8167    0.2602 C   0  0  0  0  0  0  0  0  0  0  0  0
   -3.8410   -2.4440   -1.1460 C   0  0  0  0  0  0  0  0  0  0  0  0
   -1.6736   -0.4953   -0.0249 N   0  0  0  0  0  0  0  0  0  0  0  0
    0.5440   -0.8507   -0.1361 N   0  0  0  0  0  0  0  0  0  0  0  0
    4.1141   -1.5886   -0.4344 C   0  0  0  0  0  0  0  0  0  0  0  0
    3.8801    0.4307    0.8213 C   0  0  0  0  0  0  0  0  0  0  0  0
    6.1981   -0.4896    0.3409 C   0  0  0  0  0  0  0  0  0  0  0  0
    6.8687   -1.4962    0.1453 O   0  0  0  0  0  0  0  0  0  0  0  0
    6.7515    0.6926    0.6585 N   0  0  0  0  0  0  0  0  0  0  0  0
    2.3037   -2.4914   -1.1159 H   0  0  0  0  0  0  0  0  0  0  0  0
    1.8961    1.0847    1.2249 H   0  0  0  0  0  0  0  0  0  0  0  0
   -2.0179    4.2112   -0.4663 H   0  0  0  0  0  0  0  0  0  0  0  0
   -0.3319    4.0020   -0.5003 H   0  0  0  0  0  0  0  0  0  0  0  0
    0.7234    1.8651   -0.3729 H   0  0  0  0  0  0  0  0  0  0  0  0
   -4.7583    0.3090    0.0630 H   0  0  0  0  0  0  0  0  0  0  0  0
   -3.9790   -1.9087    2.2813 H   0  0  0  0  0  0  0  0  0  0  0  0
   -3.9529   -3.4475    1.4180 H   0  0  0  0  0  0  0  0  0  0  0  0
   -2.5624   -2.3665    1.3245 H   0  0  0  0  0  0  0  0  0  0  0  0
   -6.2915   -1.3511   -0.5968 H   0  0  0  0  0  0  0  0  0  0  0  0
   -6.1206   -2.8573    0.3011 H   0  0  0  0  0  0  0  0  0  0  0  0
   -6.1492   -1.3226    1.1688 H   0  0  0  0  0  0  0  0  0  0  0  0
   -2.7603   -2.4172   -1.2690 H   0  0  0  0  0  0  0  0  0  0  0  0
   -4.1527   -3.4894   -1.1213 H   0  0  0  0  0  0  0  0  0  0  0  0
   -4.3006   -1.9755   -2.0182 H   0  0  0  0  0  0  0  0  0  0  0  0
    0.2179   -1.7930   -0.2938 H   0  0  0  0  0  0  0  0  0  0  0  0
    4.7295   -2.3587   -0.8798 H   0  0  0  0  0  0  0  0  0  0  0  0
    4.2897    1.2470    1.4033 H   0  0  0  0  0  0  0  0  0  0  0  0
    6.2315    1.5526    0.6601 H   0  0  0  0  0  0  0  0  0  0  0  0
    7.7547    0.7718    0.6976 H   0  0  0  0  0  0  0  0  0  0  0  0
  9  8  3  0
  8  6  1  0
 16 14  1  0
 14 13  1  6
 13  7  1  0
  6  7  2  0
  6 10  1  0
 11 10  1  0
 17 14  1  0
 14 15  1  0
  7 18  1  0
 10 12  2  0
 18  5  2  0
 12  5  1  0
  5 19  1  0
 19  3  1  0
  4  3  2  0
  4 21  1  0
  3  2  1  0
 21  1  2  0
  2 20  2  0
  1 20  1  0
  1 22  1  0
 24 22  1  0
 22 23  2  0
  2 25  1  0
  4 26  1  0
 11 27  1  0
 11 28  1  0
 12 29  1  0
 13 30  1  0
 15 31  1  0
 15 32  1  0
 15 33  1  0
 16 34  1  0
 16 35  1  0
 16 36  1  0
 17 37  1  0
 17 38  1  0
 17 39  1  0
 19 40  1  0
 20 41  1  0
 21 42  1  0
 24 43  1  0
 24 44  1  0
M  END
