
     RDKit          3D

 56 59  0  0  0  0  0  0  0  0999 V2000
   -5.5062   -0.0654    0.2722 C   0  0  0  0  0  0  0  0  0  0  0  0
   -4.3900   -0.6681   -0.2711 C   0  0  0  0  0  0  0  0  0  0  0  0
   -3.3141   -0.5435    1.8809 C   0  0  0  0  0  0  0  0  0  0  0  0
   -0.1126   -2.6535   -0.5442 C   0  0  1  0  0  0  0  0  0  0  0  0
    1.1802   -4.6676   -0.7311 C   0  0  1  0  0  0  0  0  0  0  0  0
   -0.2081   -4.1687   -0.3418 C   0  0  0  0  0  0  0  0  0  0  0  0
   -5.7663    1.4351   -2.0985 F   0  0  0  0  0  0  0  0  0  0  0  0
   -6.7456    1.2561   -1.2092 C   0  0  1  0  0  0  0  0  0  0  0  0
   -6.7442    2.3275   -0.4147 F   0  0  0  0  0  0  0  0  0  0  0  0
   -7.8969    1.2204   -1.8608 F   0  0  0  0  0  0  0  0  0  0  0  0
   -6.6266    0.1072   -0.5332 O   0  0  0  0  0  0  0  0  0  0  0  0
   -3.2770   -0.9159    0.5360 C   0  0  0  0  0  0  0  0  0  0  0  0
   -4.4549    0.0579    2.3926 C   0  0  0  0  0  0  0  0  0  0  0  0
   -5.5662    0.3081    1.6032 C   0  0  0  0  0  0  0  0  0  0  0  0
   -2.1894   -1.5322   -0.0826 N   0  0  0  0  0  0  0  0  0  0  0  0
   -1.0012   -1.9133    0.4478 C   0  0  0  0  0  0  0  0  0  0  0  0
   -0.6751   -1.7564    1.6067 O   0  0  0  0  0  0  0  0  0  0  0  0
    1.2883   -2.3738   -0.3083 N   0  0  0  0  0  0  0  0  0  0  0  0
    2.0887   -3.5736   -0.1518 C   0  0  0  0  0  0  0  0  0  0  0  0
    1.4287   -6.0220   -0.3055 N   0  0  0  0  0  0  0  0  0  0  0  0
    1.7163   -1.0912   -0.3319 C   0  0  0  0  0  0  0  0  0  0  0  0
    0.9595   -0.1618   -0.5872 O   0  0  0  0  0  0  0  0  0  0  0  0
    3.0402   -0.9006   -0.0513 N   0  0  0  0  0  0  0  0  0  0  0  0
    3.6840    0.3259   -0.0634 C   0  0  0  0  0  0  0  0  0  0  0  0
    3.2090    1.5690   -0.3279 C   0  0  0  0  0  0  0  0  0  0  0  0
    4.2563    2.4903   -0.2387 N   0  0  0  0  0  0  0  0  0  0  0  0
    5.4202    1.8137    0.0846 C   0  0  0  0  0  0  0  0  0  0  0  0
    5.0912    0.4527    0.2103 C   0  0  0  0  0  0  0  0  0  0  0  0
    6.0702   -0.4823    0.5471 C   0  0  0  0  0  0  0  0  0  0  0  0
    7.3616   -0.0417    0.7599 C   0  0  0  0  0  0  0  0  0  0  0  0
    7.6764    1.3170    0.6427 C   0  0  0  0  0  0  0  0  0  0  0  0
    6.7217    2.2609    0.3070 C   0  0  0  0  0  0  0  0  0  0  0  0
    4.1515    3.8687   -0.4421 C   0  0  0  0  0  0  0  0  0  0  0  0
    5.1397    4.5495   -0.6419 O   0  0  0  0  0  0  0  0  0  0  0  0
    2.8959    4.3531   -0.4316 N   0  0  0  0  0  0  0  0  0  0  0  0
   -4.3858   -0.9668   -1.3125 H   0  0  0  0  0  0  0  0  0  0  0  0
   -2.4735   -0.7210    2.5299 H   0  0  0  0  0  0  0  0  0  0  0  0
   -0.3908   -2.3930   -1.5718 H   0  0  0  0  0  0  0  0  0  0  0  0
    1.2703   -4.6363   -1.8209 H   0  0  0  0  0  0  0  0  0  0  0  0
   -0.3932   -4.4047    0.7103 H   0  0  0  0  0  0  0  0  0  0  0  0
   -1.0051   -4.6134   -0.9350 H   0  0  0  0  0  0  0  0  0  0  0  0
   -4.4735    0.3374    3.4374 H   0  0  0  0  0  0  0  0  0  0  0  0
   -6.4554    0.7634    2.0168 H   0  0  0  0  0  0  0  0  0  0  0  0
   -2.3077   -1.7087   -1.0692 H   0  0  0  0  0  0  0  0  0  0  0  0
    2.3134   -3.7797    0.9015 H   0  0  0  0  0  0  0  0  0  0  0  0
    3.0302   -3.5108   -0.7021 H   0  0  0  0  0  0  0  0  0  0  0  0
    2.3278   -6.3371   -0.6464 H   0  0  0  0  0  0  0  0  0  0  0  0
    1.4718   -6.0700    0.7059 H   0  0  0  0  0  0  0  0  0  0  0  0
    3.6079   -1.6946    0.1949 H   0  0  0  0  0  0  0  0  0  0  0  0
    2.2225    1.8761   -0.6189 H   0  0  0  0  0  0  0  0  0  0  0  0
    5.8345   -1.5351    0.6449 H   0  0  0  0  0  0  0  0  0  0  0  0
    8.1365   -0.7504    1.0204 H   0  0  0  0  0  0  0  0  0  0  0  0
    8.6938    1.6419    0.8177 H   0  0  0  0  0  0  0  0  0  0  0  0
    6.9906    3.3011    0.2200 H   0  0  0  0  0  0  0  0  0  0  0  0
    2.1362    3.8729    0.0196 H   0  0  0  0  0  0  0  0  0  0  0  0
    2.7914    5.3510   -0.5143 H   0  0  0  0  0  0  0  0  0  0  0  0
  8 10  1  6
 35 33  1  0
  7  8  1  0
  8 11  1  0
  8  9  1  0
 34 33  2  0
 33 26  1  0
 11  1  1  0
 26 25  1  0
 26 27  1  0
 25 24  2  0
  2  1  2  0
  2 12  1  0
  1 14  1  0
 22 21  2  0
 27 32  2  0
 27 28  1  0
 24 23  1  0
 24 28  1  0
 15 12  1  0
 15 16  1  0
 21 23  1  0
 21 18  1  0
 32 31  1  0
 12  3  2  0
  4 18  1  0
  4  6  1  0
  4 16  1  0
 14 13  2  0
 28 29  2  0
 18 19  1  0
  6  5  1  0
 16 17  2  0
 31 30  2  0
 19  5  1  0
  3 13  1  0
 29 30  1  0
  5 20  1  0
  2 36  1  0
  3 37  1  0
  4 38  1  6
  5 39  1  6
  6 40  1  0
  6 41  1  0
 13 42  1  0
 14 43  1  0
 15 44  1  0
 19 45  1  0
 19 46  1  0
 20 47  1  0
 20 48  1  0
 23 49  1  0
 25 50  1  0
 29 51  1  0
 30 52  1  0
 31 53  1  0
 32 54  1  0
 35 55  1  0
 35 56  1  0
M  END
