
     RDKit          3D

 68 70  0  0  0  0  0  0  0  0999 V2000
   34.8825   65.9063    5.3245 O   0  0  0  0  0  0  0  0  0  0  0  0
   35.5823   65.2638    4.5864 C   0  0  0  0  0  0  0  0  0  0  0  0
   36.6366   65.8338    4.0176 O   0  0  0  0  0  0  0  0  0  0  0  0
   35.3661   63.8067    4.2482 C   0  0  0  0  0  0  0  0  0  0  0  0
   34.0279   63.2428    4.7205 C   0  0  1  0  0  0  0  0  0  0  0  0
   33.9437   61.8271    4.1753 C   0  0  0  0  0  0  0  0  0  0  0  0
   33.4627   61.5582    3.1062 O   0  0  0  0  0  0  0  0  0  0  0  0
   33.9491   63.2069    6.1604 N   0  0  0  0  0  0  0  0  0  0  0  0
   32.9528   62.5340    6.7683 C   0  0  0  0  0  0  0  0  0  0  0  0
   32.1945   61.8193    6.1223 O   0  0  0  0  0  0  0  0  0  0  0  0
   32.8340   62.7472    8.2623 C   0  0  2  0  0  0  0  0  0  0  0  0
   32.5512   61.4413    8.9979 C   0  0  0  0  0  0  0  0  0  0  0  0
   33.6905   60.4358    8.8997 C   0  0  0  0  0  0  0  0  0  0  0  0
   31.7908   63.8486    8.5474 C   0  0  0  0  0  0  0  0  0  0  0  0
   30.3333   63.4235    8.3902 C   0  0  0  0  0  0  0  0  0  0  0  0
   29.3116   64.5588    8.4146 C   0  0  0  0  0  0  0  0  0  0  0  0
   29.2919   65.4197    9.6743 C   0  0  0  0  0  0  0  0  0  0  0  0
   30.3749   66.3803    9.6747 N   0  0  0  0  0  0  0  0  0  0  0  0
   31.0484   66.7787   10.7657 C   0  0  0  0  0  0  0  0  0  0  0  0
   30.7343   66.4535   11.9052 O   0  0  0  0  0  0  0  0  0  0  0  0
   32.2357   67.6416   10.5047 C   0  0  0  0  0  0  0  0  0  0  0  0
   32.6736   68.5250   11.4914 C   0  0  0  0  0  0  0  0  0  0  0  0
   33.7819   69.3198   11.2877 C   0  0  0  0  0  0  0  0  0  0  0  0
   34.5145   69.2427   10.0941 C   0  0  0  0  0  0  0  0  0  0  0  0
   34.0958   68.3410    9.1113 C   0  0  0  0  0  0  0  0  0  0  0  0
   32.9709   67.5632    9.3271 C   0  0  0  0  0  0  0  0  0  0  0  0
   35.6151   70.0755    9.9794 N   0  0  0  0  0  0  0  0  0  0  0  0
   36.5335   70.1880    8.9781 C   0  0  0  0  0  0  0  0  0  0  0  0
   36.4753   69.4541    7.9049 N   0  0  0  0  0  0  0  0  0  0  0  0
   37.5815   71.1581    9.1590 C   0  0  0  0  0  0  0  0  0  0  0  0
   38.5046   71.3420    8.2767 N   0  0  0  0  0  0  0  0  0  0  0  0
   38.4663   70.5815    7.1459 C   0  0  0  0  0  0  0  0  0  0  0  0
   39.4521   70.7418    6.1561 C   0  0  0  0  0  0  0  0  0  0  0  0
   39.4120   69.9721    5.0203 C   0  0  0  0  0  0  0  0  0  0  0  0
   37.4377   69.6323    6.9680 C   0  0  0  0  0  0  0  0  0  0  0  0
   37.4154   68.8526    5.7964 C   0  0  0  0  0  0  0  0  0  0  0  0
   38.3879   69.0222    4.8436 C   0  0  0  0  0  0  0  0  0  0  0  0
   37.1165   65.2304    3.4346 H   0  0  0  0  0  0  0  0  0  0  0  0
   36.1966   63.2291    4.6699 H   0  0  0  0  0  0  0  0  0  0  0  0
   35.4334   63.6910    3.1632 H   0  0  0  0  0  0  0  0  0  0  0  0
   33.2125   63.8299    4.2849 H   0  0  0  0  0  0  0  0  0  0  0  0
   34.4602   61.0712    4.7937 H   0  0  0  0  0  0  0  0  0  0  0  0
   34.4977   63.8604    6.6955 H   0  0  0  0  0  0  0  0  0  0  0  0
   33.7946   63.1341    8.6205 H   0  0  0  0  0  0  0  0  0  0  0  0
   31.6298   60.9926    8.6219 H   0  0  0  0  0  0  0  0  0  0  0  0
   32.3680   61.6771   10.0496 H   0  0  0  0  0  0  0  0  0  0  0  0
   34.6194   60.8481    9.2974 H   0  0  0  0  0  0  0  0  0  0  0  0
   33.4605   59.5329    9.4659 H   0  0  0  0  0  0  0  0  0  0  0  0
   33.8778   60.1313    7.8685 H   0  0  0  0  0  0  0  0  0  0  0  0
   32.0023   64.7019    7.8949 H   0  0  0  0  0  0  0  0  0  0  0  0
   31.9709   64.1957    9.5666 H   0  0  0  0  0  0  0  0  0  0  0  0
   30.0804   62.7081    9.1776 H   0  0  0  0  0  0  0  0  0  0  0  0
   30.2090   62.8871    7.4472 H   0  0  0  0  0  0  0  0  0  0  0  0
   28.3176   64.1194    8.3039 H   0  0  0  0  0  0  0  0  0  0  0  0
   29.4463   65.2046    7.5399 H   0  0  0  0  0  0  0  0  0  0  0  0
   29.3779   64.7959   10.5646 H   0  0  0  0  0  0  0  0  0  0  0  0
   28.3319   65.9400    9.7435 H   0  0  0  0  0  0  0  0  0  0  0  0
   30.5935   66.8106    8.7905 H   0  0  0  0  0  0  0  0  0  0  0  0
   32.1368   68.5989   12.4279 H   0  0  0  0  0  0  0  0  0  0  0  0
   34.0926   70.0091   12.0643 H   0  0  0  0  0  0  0  0  0  0  0  0
   34.6445   68.2425    8.1900 H   0  0  0  0  0  0  0  0  0  0  0  0
   32.6943   66.8623    8.5495 H   0  0  0  0  0  0  0  0  0  0  0  0
   35.7698   70.6835   10.7694 H   0  0  0  0  0  0  0  0  0  0  0  0
   37.6081   71.7617   10.0621 H   0  0  0  0  0  0  0  0  0  0  0  0
   40.2322   71.4763    6.3113 H   0  0  0  0  0  0  0  0  0  0  0  0
   40.1680   70.0928    4.2561 H   0  0  0  0  0  0  0  0  0  0  0  0
   36.6240   68.1249    5.6721 H   0  0  0  0  0  0  0  0  0  0  0  0
   38.3697   68.4174    3.9463 H   0  0  0  0  0  0  0  0  0  0  0  0
  1  2  2  0
  2  3  1  0
  2  4  1  0
  3 38  1  0
  4  5  1  0
  4 39  1  0
  4 40  1  0
  5  6  1  0
  5  8  1  0
  5 41  1  6
  6  7  2  0
  6 42  1  0
  8  9  1  0
  8 43  1  0
  9 10  2  0
  9 11  1  0
 11 12  1  0
 11 14  1  0
 11 44  1  1
 12 13  1  0
 12 45  1  0
 12 46  1  0
 13 47  1  0
 13 48  1  0
 13 49  1  0
 14 15  1  0
 14 50  1  0
 14 51  1  0
 15 16  1  0
 15 52  1  0
 15 53  1  0
 16 17  1  0
 16 54  1  0
 16 55  1  0
 17 18  1  0
 17 56  1  0
 17 57  1  0
 18 19  1  0
 18 58  1  0
 19 20  2  0
 19 21  1  0
 21 22  2  0
 21 26  1  0
 22 23  1  0
 22 59  1  0
 23 24  2  0
 23 60  1  0
 24 25  1  0
 24 27  1  0
 25 26  2  0
 25 61  1  0
 26 62  1  0
 27 28  1  0
 27 63  1  0
 28 29  2  0
 28 30  1  0
 29 35  1  0
 30 31  2  0
 30 64  1  0
 31 32  1  0
 32 33  1  0
 32 35  2  0
 33 34  2  0
 33 65  1  0
 34 37  1  0
 34 66  1  0
 35 36  1  0
 36 37  2  0
 36 67  1  0
 37 68  1  0
M  END
