
     RDKit          3D

 52 55  0  0  0  0  0  0  0  0999 V2000
    5.9849   -1.9425    1.4554 N   0  0  0  0  0  0  0  0  0  0  0  0
    6.0927   -0.9983    0.6086 C   0  0  0  0  0  0  0  0  0  0  0  0
    7.3638   -0.2616    0.5394 C   0  0  0  0  0  0  0  0  0  0  0  0
    7.9003    0.5093   -0.9070 S   0  0  0  0  0  0  0  0  0  0  0  0
    9.3375    1.0475   -0.1551 C   0  0  0  0  0  0  0  0  0  0  0  0
    9.4074    0.6478    1.1465 C   0  0  0  0  0  0  0  0  0  0  0  0
    8.2767   -0.1079    1.5436 C   0  0  0  0  0  0  0  0  0  0  0  0
    5.1478   -0.5568   -0.2979 N   0  0  0  0  0  0  0  0  0  0  0  0
    3.8975   -1.1499   -0.5112 C   0  0  0  0  0  0  0  0  0  0  0  0
    2.7714   -0.3372   -0.6154 C   0  0  0  0  0  0  0  0  0  0  0  0
    3.7639   -2.5293   -0.6740 C   0  0  0  0  0  0  0  0  0  0  0  0
    2.5102   -3.0687   -0.9166 C   0  0  0  0  0  0  0  0  0  0  0  0
    1.3916   -2.2538   -1.0178 C   0  0  0  0  0  0  0  0  0  0  0  0
    1.5156   -0.8744   -0.8771 C   0  0  0  0  0  0  0  0  0  0  0  0
    0.3097    0.0199   -0.9403 C   0  0  0  0  0  0  0  0  0  0  0  0
   -0.2341    0.3343    0.4623 C   0  0  0  0  0  0  0  0  0  0  0  0
   -1.4682    1.1902    0.4071 C   0  0  0  0  0  0  0  0  0  0  0  0
   -1.3883    2.5785    0.4980 C   0  0  0  0  0  0  0  0  0  0  0  0
   -2.5431    3.3395    0.4116 C   0  0  0  0  0  0  0  0  0  0  0  0
   -3.7900    2.7540    0.2321 C   0  0  0  0  0  0  0  0  0  0  0  0
   -2.7114    0.6018    0.2300 C   0  0  0  0  0  0  0  0  0  0  0  0
   -3.8817    1.3636    0.1437 C   0  0  0  0  0  0  0  0  0  0  0  0
   -5.0703    0.6543   -0.0084 N   0  0  0  0  0  0  0  0  0  0  0  0
   -6.3580    1.1053   -0.1192 C   0  0  0  0  0  0  0  0  0  0  0  0
   -6.6527    2.3410   -0.2378 N   0  0  0  0  0  0  0  0  0  0  0  0
   -7.3658    0.0252   -0.0939 C   0  0  0  0  0  0  0  0  0  0  0  0
   -7.1797   -1.3912    0.8743 S   0  0  0  0  0  0  0  0  0  0  0  0
   -8.6878   -2.0106    0.3619 C   0  0  0  0  0  0  0  0  0  0  0  0
   -9.3108   -1.1681   -0.5087 C   0  0  0  0  0  0  0  0  0  0  0  0
   -8.5534    0.0014   -0.7690 C   0  0  0  0  0  0  0  0  0  0  0  0
    5.0479   -2.3334    1.4758 H   0  0  0  0  0  0  0  0  0  0  0  0
   10.0577    1.6263   -0.7126 H   0  0  0  0  0  0  0  0  0  0  0  0
   10.2338    0.8876    1.7996 H   0  0  0  0  0  0  0  0  0  0  0  0
    8.1322   -0.5141    2.5341 H   0  0  0  0  0  0  0  0  0  0  0  0
    5.1974    0.4231   -0.5360 H   0  0  0  0  0  0  0  0  0  0  0  0
    2.8790    0.7357   -0.4938 H   0  0  0  0  0  0  0  0  0  0  0  0
    4.6296   -3.1774   -0.6381 H   0  0  0  0  0  0  0  0  0  0  0  0
    2.4108   -4.1390   -1.0423 H   0  0  0  0  0  0  0  0  0  0  0  0
    0.4204   -2.6904   -1.2181 H   0  0  0  0  0  0  0  0  0  0  0  0
    0.5620    0.9550   -1.4464 H   0  0  0  0  0  0  0  0  0  0  0  0
   -0.4756   -0.4595   -1.5293 H   0  0  0  0  0  0  0  0  0  0  0  0
   -0.4563   -0.6050    0.9749 H   0  0  0  0  0  0  0  0  0  0  0  0
    0.5416    0.8376    1.0442 H   0  0  0  0  0  0  0  0  0  0  0  0
   -0.4283    3.0590    0.6440 H   0  0  0  0  0  0  0  0  0  0  0  0
   -2.4806    4.4181    0.4834 H   0  0  0  0  0  0  0  0  0  0  0  0
   -4.6744    3.3649    0.1591 H   0  0  0  0  0  0  0  0  0  0  0  0
   -2.7788   -0.4803    0.1693 H   0  0  0  0  0  0  0  0  0  0  0  0
   -4.9425   -0.3391   -0.1200 H   0  0  0  0  0  0  0  0  0  0  0  0
   -7.6587    2.4622   -0.2376 H   0  0  0  0  0  0  0  0  0  0  0  0
   -9.0385   -2.9598    0.7362 H   0  0  0  0  0  0  0  0  0  0  0  0
  -10.2741   -1.3745   -0.9515 H   0  0  0  0  0  0  0  0  0  0  0  0
   -8.8688    0.7846   -1.4442 H   0  0  0  0  0  0  0  0  0  0  0  0
  6  5  2  0
  6  7  1  0
  5  4  1  0
  7  3  2  0
  4  3  1  0
  3  2  1  0
  2  1  2  0
  2  8  1  0
 12 11  2  0
 12 13  1  0
 11  9  1  0
 13 14  2  0
  8  9  1  0
  9 10  2  0
 14 10  1  0
 14 15  1  0
 15 16  1  0
 16 17  1  0
 18 17  2  0
 18 19  1  0
 17 21  1  0
 19 20  2  0
 21 22  2  0
 20 22  1  0
 22 23  1  0
 27 28  1  0
 27 26  1  0
 23 24  1  0
 28 29  2  0
 24 26  1  0
 24 25  2  0
 26 30  2  0
 29 30  1  0
  1 31  1  0
  5 32  1  0
  6 33  1  0
  7 34  1  0
  8 35  1  0
 10 36  1  0
 11 37  1  0
 12 38  1  0
 13 39  1  0
 15 40  1  0
 15 41  1  0
 16 42  1  0
 16 43  1  0
 18 44  1  0
 19 45  1  0
 20 46  1  0
 21 47  1  0
 23 48  1  0
 25 49  1  0
 28 50  1  0
 29 51  1  0
 30 52  1  0
M  END
