
     RDKit          3D

 69 73  0  0  0  0  0  0  0  0999 V2000
    1.4638    3.1790   -0.3569 C   0  0  0  0  0  0  0  0  0  0  0  0
    1.9478    0.9262    0.3680 C   0  0  0  0  0  0  0  0  0  0  0  0
   -0.3351    1.8289    0.5161 C   0  0  0  0  0  0  0  0  0  0  0  0
    4.2146    0.1707    0.6727 C   0  0  0  0  0  0  0  0  0  0  0  0
   -1.0928    1.2696   -0.6847 C   0  0  0  0  0  0  0  0  0  0  0  0
    3.7696   -1.1326    0.8237 C   0  0  0  0  0  0  0  0  0  0  0  0
    3.9812    3.2547    1.4856 C   0  0  0  0  0  0  0  0  0  0  0  0
   -3.2283    0.3283   -1.4261 C   0  0  0  0  0  0  0  0  0  0  0  0
   -4.5237   -0.0984   -0.7958 C   0  0  0  0  0  0  0  0  0  0  0  0
   -6.9246   -0.8733    0.4540 C   0  0  0  0  0  0  0  0  0  0  0  0
   -5.6731    0.6731   -0.9248 C   0  0  0  0  0  0  0  0  0  0  0  0
   -4.5867   -1.2628   -0.0344 C   0  0  0  0  0  0  0  0  0  0  0  0
    3.4565    4.6091   -1.0255 C   0  0  0  0  0  0  0  0  0  0  0  0
   -6.8573    0.2879   -0.3111 C   0  0  0  0  0  0  0  0  0  0  0  0
   -5.7695   -1.6430    0.5814 C   0  0  0  0  0  0  0  0  0  0  0  0
    3.4576   -3.7242   -0.7846 C   0  0  0  0  0  0  0  0  0  0  0  0
    1.9650   -5.1728    0.4555 C   0  0  0  0  0  0  0  0  0  0  0  0
   -8.2189   -1.3074    1.0838 C   0  0  0  0  0  0  0  0  0  0  0  0
    4.5688    4.6254    1.2072 C   0  0  0  0  0  0  0  0  0  0  0  0
    3.2262   -5.0098   -1.5675 C   0  0  0  0  0  0  0  0  0  0  0  0
    2.8488   -6.0001   -0.4716 C   0  0  0  0  0  0  0  0  0  0  0  0
    3.6786    5.4074    0.2522 C   0  0  0  0  0  0  0  0  0  0  0  0
   -9.0613   -2.1596    0.1363 C   0  0  0  0  0  0  0  0  0  0  0  0
    3.3200    1.2002    0.4263 C   0  0  0  0  0  0  0  0  0  0  0  0
    2.9348    3.2064   -0.7478 C   0  0  1  0  0  0  0  0  0  0  0  0
    1.8613   -2.7915    0.9162 C   0  0  0  0  0  0  0  0  0  0  0  0
    1.5036   -0.3829    0.5093 C   0  0  0  0  0  0  0  0  0  0  0  0
    2.4120   -1.4154    0.7201 C   0  0  0  0  0  0  0  0  0  0  0  0
    1.0627    2.0055    0.2235 N   0  0  0  0  0  0  0  0  0  0  0  0
    2.4686   -3.8094    0.2904 N   0  0  0  0  0  0  0  0  0  0  0  0
   -2.3375    0.8651   -0.4103 N   0  0  0  0  0  0  0  0  0  0  0  0
    3.7605    2.5217    0.2354 N   0  0  0  0  0  0  0  0  0  0  0  0
    0.6923    4.0973   -0.5505 O   0  0  0  0  0  0  0  0  0  0  0  0
    0.8787   -2.9617    1.6325 O   0  0  0  0  0  0  0  0  0  0  0  0
   -0.5904    1.2113   -1.7946 O   0  0  0  0  0  0  0  0  0  0  0  0
   -0.7680    2.7916    0.7888 H   0  0  0  0  0  0  0  0  0  0  0  0
   -0.4498    1.1810    1.3863 H   0  0  0  0  0  0  0  0  0  0  0  0
    5.2710    0.3987    0.7394 H   0  0  0  0  0  0  0  0  0  0  0  0
    4.4861   -1.9188    1.0213 H   0  0  0  0  0  0  0  0  0  0  0  0
    4.6665    2.6661    2.0973 H   0  0  0  0  0  0  0  0  0  0  0  0
    3.0514    3.3605    2.0658 H   0  0  0  0  0  0  0  0  0  0  0  0
   -2.7471   -0.5226   -1.9145 H   0  0  0  0  0  0  0  0  0  0  0  0
   -3.4109    1.0786   -2.1984 H   0  0  0  0  0  0  0  0  0  0  0  0
   -5.6466    1.5853   -1.5093 H   0  0  0  0  0  0  0  0  0  0  0  0
   -3.7024   -1.8796    0.0783 H   0  0  0  0  0  0  0  0  0  0  0  0
    2.7728    5.1234   -1.7002 H   0  0  0  0  0  0  0  0  0  0  0  0
    4.4060    4.5080   -1.5572 H   0  0  0  0  0  0  0  0  0  0  0  0
   -7.7408    0.9053   -0.4242 H   0  0  0  0  0  0  0  0  0  0  0  0
   -5.7931   -2.5515    1.1723 H   0  0  0  0  0  0  0  0  0  0  0  0
    4.4734   -3.7056   -0.3815 H   0  0  0  0  0  0  0  0  0  0  0  0
    3.3186   -2.8265   -1.3854 H   0  0  0  0  0  0  0  0  0  0  0  0
    0.9152   -5.2274    0.1551 H   0  0  0  0  0  0  0  0  0  0  0  0
    2.0273   -5.4922    1.4965 H   0  0  0  0  0  0  0  0  0  0  0  0
   -8.0127   -1.8759    1.9933 H   0  0  0  0  0  0  0  0  0  0  0  0
   -8.7921   -0.4289    1.3892 H   0  0  0  0  0  0  0  0  0  0  0  0
    4.6900    5.1573    2.1528 H   0  0  0  0  0  0  0  0  0  0  0  0
    5.5660    4.5084    0.7730 H   0  0  0  0  0  0  0  0  0  0  0  0
    2.3994   -4.8808   -2.2695 H   0  0  0  0  0  0  0  0  0  0  0  0
    4.1073   -5.3071   -2.1347 H   0  0  0  0  0  0  0  0  0  0  0  0
    3.7452   -6.3341    0.0553 H   0  0  0  0  0  0  0  0  0  0  0  0
    2.3328   -6.8842   -0.8436 H   0  0  0  0  0  0  0  0  0  0  0  0
    4.1322    6.3703    0.0102 H   0  0  0  0  0  0  0  0  0  0  0  0
    2.7208    5.6266    0.7326 H   0  0  0  0  0  0  0  0  0  0  0  0
   -9.9998   -2.4523    0.6078 H   0  0  0  0  0  0  0  0  0  0  0  0
   -9.3016   -1.6145   -0.7774 H   0  0  0  0  0  0  0  0  0  0  0  0
   -8.5317   -3.0697   -0.1482 H   0  0  0  0  0  0  0  0  0  0  0  0
    3.0010    2.6284   -1.6793 H   0  0  0  0  0  0  0  0  0  0  0  0
    0.4499   -0.6231    0.4642 H   0  0  0  0  0  0  0  0  0  0  0  0
   -2.6895    0.9542    0.5304 H   0  0  0  0  0  0  0  0  0  0  0  0
 22 13  1  0
 22 19  1  0
 13 25  1  0
 19  7  1  0
 33  1  2  0
 25  1  1  0
 25 32  1  0
  7 32  1  0
 35  5  2  0
  1 29  1  0
 32 24  1  0
  5 31  1  0
  5  3  1  0
  8 31  1  0
  8  9  1  0
 29  3  1  0
 29  2  1  0
 24  2  2  0
 24  4  1  0
 12  9  2  0
 12 15  1  0
  2 27  1  0
  4  6  2  0
  9 11  1  0
 15 10  2  0
 27 28  2  0
  6 28  1  0
 28 26  1  0
 11 14  2  0
 10 14  1  0
 10 18  1  0
 34 26  2  0
 26 30  1  0
 23 18  1  0
 30 17  1  0
 30 16  1  0
 17 21  1  0
 16 20  1  0
 21 20  1  0
  3 36  1  0
  3 37  1  0
  4 38  1  0
  6 39  1  0
  7 40  1  0
  7 41  1  0
  8 42  1  0
  8 43  1  0
 11 44  1  0
 12 45  1  0
 13 46  1  0
 13 47  1  0
 14 48  1  0
 15 49  1  0
 16 50  1  0
 16 51  1  0
 17 52  1  0
 17 53  1  0
 18 54  1  0
 18 55  1  0
 19 56  1  0
 19 57  1  0
 20 58  1  0
 20 59  1  0
 21 60  1  0
 21 61  1  0
 22 62  1  0
 22 63  1  0
 23 64  1  0
 23 65  1  0
 23 66  1  0
 25 67  1  6
 27 68  1  0
 31 69  1  0
M  END
