
     RDKit          3D

 27 28  0  0  0  0  0  0  0  0999 V2000
   -1.9115    1.4068   -0.6772 N   0  0  0  0  0  0  0  0  0  0  0  0
   -2.3334   -0.8261   -0.2405 N   0  0  0  0  0  0  0  0  0  0  0  0
    0.6553    1.2507   -0.0182 C   0  0  0  0  0  0  0  0  0  0  0  0
   -0.0587    0.0494   -0.0735 C   0  0  0  0  0  0  0  0  0  0  0  0
   -1.4456    0.2136   -0.3264 C   0  0  0  0  0  0  0  0  0  0  0  0
   -1.0953    2.4542   -0.6476 C   0  0  0  0  0  0  0  0  0  0  0  0
   -2.4271   -1.5305    1.0299 C   0  0  0  0  0  0  0  0  0  0  0  0
    3.2716   -1.6356    0.4934 C   0  0  0  0  0  0  0  0  0  0  0  0
    0.4135   -2.5296   -0.1922 C   0  0  0  0  0  0  0  0  0  0  0  0
    0.7957   -1.1061    0.0731 C   0  0  0  0  0  0  0  0  0  0  0  0
    2.0844   -0.7444    0.3178 C   0  0  0  0  0  0  0  0  0  0  0  0
    2.3184    0.9781    0.3461 S   0  0  0  0  0  0  0  0  0  0  0  0
    0.1671    2.4614   -0.2747 N   0  0  0  0  0  0  0  0  0  0  0  0
   -3.6269   -0.6584   -0.8723 C   0  0  0  0  0  0  0  0  0  0  0  0
   -1.5250    3.4064   -0.9388 H   0  0  0  0  0  0  0  0  0  0  0  0
   -3.2076   -1.0841    1.6558 H   0  0  0  0  0  0  0  0  0  0  0  0
   -2.6791   -2.5787    0.8697 H   0  0  0  0  0  0  0  0  0  0  0  0
   -1.4958   -1.4788    1.5874 H   0  0  0  0  0  0  0  0  0  0  0  0
    4.1752   -1.0688    0.7115 H   0  0  0  0  0  0  0  0  0  0  0  0
    3.1196   -2.3387    1.3129 H   0  0  0  0  0  0  0  0  0  0  0  0
    3.4625   -2.2174   -0.4096 H   0  0  0  0  0  0  0  0  0  0  0  0
    0.2018   -2.6729   -1.2537 H   0  0  0  0  0  0  0  0  0  0  0  0
    1.2261   -3.2037    0.0718 H   0  0  0  0  0  0  0  0  0  0  0  0
   -0.4641   -2.8597    0.3548 H   0  0  0  0  0  0  0  0  0  0  0  0
   -4.2955    0.0024   -0.3110 H   0  0  0  0  0  0  0  0  0  0  0  0
   -3.5158   -0.2626   -1.8788 H   0  0  0  0  0  0  0  0  0  0  0  0
   -4.0985   -1.6385   -0.9413 H   0  0  0  0  0  0  0  0  0  0  0  0
  8 11  1  0
 11 12  1  0
 11 10  2  0
 12  3  1  0
 10  9  1  0
 10  4  1  0
  3  4  2  0
  3 13  1  0
  4  5  1  0
 13  6  2  0
  5  2  1  0
  5  1  2  0
  6  1  1  0
 14  2  1  0
  2  7  1  0
  6 15  1  0
  7 16  1  0
  7 17  1  0
  7 18  1  0
  8 19  1  0
  8 20  1  0
  8 21  1  0
  9 22  1  0
  9 23  1  0
  9 24  1  0
 14 25  1  0
 14 26  1  0
 14 27  1  0
M  END
