
     RDKit          3D

 59 63  0  0  0  0  0  0  0  0999 V2000
    2.6015   -2.5577   -0.1158 C   0  0  0  0  0  0  0  0  0  0  0  0
    5.2132    0.1990   -0.3089 C   0  0  0  0  0  0  0  0  0  0  0  0
    6.1326   -1.8527   -1.2070 C   0  0  0  0  0  0  0  0  0  0  0  0
   -8.3104   -0.2130   -0.4243 C   0  0  0  0  0  0  0  0  0  0  0  0
    6.2616   -0.5141   -0.9033 C   0  0  0  0  0  0  0  0  0  0  0  0
    5.3812    1.6246    0.0355 C   0  0  0  0  0  0  0  0  0  0  0  0
   -7.1016   -0.5974    0.1669 C   0  0  0  0  0  0  0  0  0  0  0  0
    4.8139    2.1543    1.1957 C   0  0  0  0  0  0  0  0  0  0  0  0
   -5.9613    0.1524   -0.0811 C   0  0  0  0  0  0  0  0  0  0  0  0
   -3.6664    0.7106    0.6325 C   0  0  0  0  0  0  0  0  0  0  0  0
   -0.6498   -1.5174    1.2143 C   0  0  0  0  0  0  0  0  0  0  0  0
    3.8656   -1.8167   -0.3560 C   0  0  0  0  0  0  0  0  0  0  0  0
    4.9335   -2.5261   -0.9152 C   0  0  0  0  0  0  0  0  0  0  0  0
    4.0256   -0.4623   -0.0465 C   0  0  0  0  0  0  0  0  0  0  0  0
  -10.4231    0.0520   -1.1588 N   0  0  0  0  0  0  0  0  0  0  0  0
   -9.6615    1.0222   -1.6580 N   0  0  0  0  0  0  0  0  0  0  0  0
    1.5069   -1.8565    0.1804 N   0  0  0  0  0  0  0  0  0  0  0  0
   -8.3694    0.9194   -1.2516 C   0  0  0  0  0  0  0  0  0  0  0  0
   -9.6461   -0.7011   -0.4175 C   0  0  0  0  0  0  0  0  0  0  0  0
    2.5761   -3.7955   -0.1931 O   0  0  0  0  0  0  0  0  0  0  0  0
   -4.7425   -0.2445    0.4527 N   0  0  0  0  0  0  0  0  0  0  0  0
   -7.2337    1.6912   -1.5030 C   0  0  0  0  0  0  0  0  0  0  0  0
    6.1142    2.4803   -0.7883 C   0  0  0  0  0  0  0  0  0  0  0  0
    4.8930   -3.8294   -1.2056 O   0  0  0  0  0  0  0  0  0  0  0  0
    0.2154   -2.4699    0.4357 C   0  0  0  0  0  0  0  0  0  0  0  0
    5.6995    4.3034    0.6845 C   0  0  0  0  0  0  0  0  0  0  0  0
   -1.7185   -0.8738    0.6075 C   0  0  0  0  0  0  0  0  0  0  0  0
   -6.0528    1.2996   -0.9149 C   0  0  0  0  0  0  0  0  0  0  0  0
   -2.5024    0.0412    1.3090 C   0  0  0  0  0  0  0  0  0  0  0  0
    4.9648    3.4921    1.5268 C   0  0  0  0  0  0  0  0  0  0  0  0
    6.2803    3.8196   -0.4714 C   0  0  0  0  0  0  0  0  0  0  0  0
    5.8556    5.5994    0.9990 F   0  0  0  0  0  0  0  0  0  0  0  0
   -1.1373   -0.3424    3.2603 C   0  0  0  0  0  0  0  0  0  0  0  0
   -2.2051    0.2983    2.6402 C   0  0  0  0  0  0  0  0  0  0  0  0
   -0.3625   -1.2445    2.5516 C   0  0  0  0  0  0  0  0  0  0  0  0
    7.2068   -0.0265   -1.1098 H   0  0  0  0  0  0  0  0  0  0  0  0
    4.2599    1.5133    1.8695 H   0  0  0  0  0  0  0  0  0  0  0  0
   -3.3433    1.0797   -0.3440 H   0  0  0  0  0  0  0  0  0  0  0  0
   -3.9789    1.5887    1.2130 H   0  0  0  0  0  0  0  0  0  0  0  0
    3.2162    0.0923    0.4106 H   0  0  0  0  0  0  0  0  0  0  0  0
    1.5197   -0.8549    0.0811 H   0  0  0  0  0  0  0  0  0  0  0  0
  -10.0450   -1.5619    0.0968 H   0  0  0  0  0  0  0  0  0  0  0  0
   -4.8450   -0.8654    1.2416 H   0  0  0  0  0  0  0  0  0  0  0  0
   -7.2683    2.5704   -2.1329 H   0  0  0  0  0  0  0  0  0  0  0  0
    6.5519    2.1073   -1.7055 H   0  0  0  0  0  0  0  0  0  0  0  0
    4.0221   -4.1632   -0.8679 H   0  0  0  0  0  0  0  0  0  0  0  0
    0.3717   -3.3896    0.9997 H   0  0  0  0  0  0  0  0  0  0  0  0
   -0.2709   -2.7449   -0.5039 H   0  0  0  0  0  0  0  0  0  0  0  0
   -1.9429   -1.0786   -0.4338 H   0  0  0  0  0  0  0  0  0  0  0  0
   -5.1706    1.8958   -1.1053 H   0  0  0  0  0  0  0  0  0  0  0  0
    4.5265    3.8911    2.4319 H   0  0  0  0  0  0  0  0  0  0  0  0
    6.8464    4.4754   -1.1196 H   0  0  0  0  0  0  0  0  0  0  0  0
   -0.9139   -0.1358    4.2987 H   0  0  0  0  0  0  0  0  0  0  0  0
   -2.8080    1.0032    3.1999 H   0  0  0  0  0  0  0  0  0  0  0  0
    0.4699   -1.7410    3.0360 H   0  0  0  0  0  0  0  0  0  0  0  0
  -10.0678    1.7166   -2.2626 H   0  0  0  0  0  0  0  0  0  0  0  0
    7.1704   -2.5051   -1.7638 O   0  0  0  0  0  0  0  0  0  0  0  0
   -7.0561   -1.4704    0.8080 H   0  0  0  0  0  0  0  0  0  0  0  0
    6.9445   -3.4311   -1.9147 H   0  0  0  0  0  0  0  0  0  0  0  0
 32 26  1  0
 30 26  1  0
 30  8  2  0
 26 31  2  0
  8  6  1  0
 33 34  2  0
 33 35  1  0
 34 29  1  0
 31 23  1  0
  6 23  2  0
  6  2  1  0
 35 11  2  0
 10 29  1  0
 10 21  1  0
 29 27  2  0
  2 14  2  0
  2  5  1  0
 14 12  1  0
  5  3  2  0
 21  9  1  0
 11 27  1  0
 11 25  1  0
 12  1  1  0
 12 13  2  0
  3 13  1  0
  3 57  1  0
 20  1  2  0
  1 17  1  0
 13 24  1  0
 17 25  1  0
  9 28  1  0
  9  7  2  0
 28 22  2  0
  7  4  1  0
 22 18  1  0
  4 18  2  0
  4 19  1  0
 18 16  1  0
 19 15  2  0
 16 15  1  0
  5 36  1  0
  7 58  1  0
  8 37  1  0
 10 38  1  0
 10 39  1  0
 14 40  1  0
 17 41  1  0
 19 42  1  0
 21 43  1  0
 22 44  1  0
 23 45  1  0
 24 46  1  0
 25 47  1  0
 25 48  1  0
 57 59  1  0
 27 49  1  0
 28 50  1  0
 30 51  1  0
 31 52  1  0
 33 53  1  0
 34 54  1  0
 35 55  1  0
 16 56  1  0
M  END
