
     RDKit          3D

 63 67  0  0  0  0  0  0  0  0999 V2000
   -5.5386    2.0882    0.1292 O   0  0  0  0  0  0  0  0  0  0  0  0
    5.2563    1.4012   -0.0074 O   0  0  0  0  0  0  0  0  0  0  0  0
   10.1179   -0.4464    0.9741 F   0  0  0  0  0  0  0  0  0  0  0  0
   10.1761    0.5256   -0.9407 F   0  0  0  0  0  0  0  0  0  0  0  0
   10.8655   -1.5032   -0.7445 F   0  0  0  0  0  0  0  0  0  0  0  0
    7.0101   -2.7681   -1.4737 C   0  0  0  0  0  0  0  0  0  0  0  0
    0.8208    5.7212    1.1435 C   0  0  0  0  0  0  0  0  0  0  0  0
    2.0957    5.2056    0.8561 C   0  0  0  0  0  0  0  0  0  0  0  0
    5.9427   -1.9632   -1.1124 C   0  0  0  0  0  0  0  0  0  0  0  0
    8.3125   -2.3599   -1.2265 C   0  0  0  0  0  0  0  0  0  0  0  0
   -7.8073    0.2597   -0.1387 C   0  0  0  0  0  0  0  0  0  0  0  0
   -9.0843   -0.2818   -0.1410 C   0  0  0  0  0  0  0  0  0  0  0  0
   -0.3169    4.9731    0.9143 C   0  0  0  0  0  0  0  0  0  0  0  0
    2.2593    3.9366    0.3358 C   0  0  0  0  0  0  0  0  0  0  0  0
   -6.9084   -1.9673   -0.2411 C   0  0  0  0  0  0  0  0  0  0  0  0
    7.4717   -0.3134   -0.2733 C   0  0  0  0  0  0  0  0  0  0  0  0
   -0.3674    1.6039   -0.4351 C   0  0  0  0  0  0  0  0  0  0  0  0
    2.7037    0.4153    0.4786 C   0  0  0  0  0  0  0  0  0  0  0  0
  -10.6691   -3.4779   -0.6192 C   0  0  0  0  0  0  0  0  0  0  0  0
   -9.6163   -4.3147    0.0664 C   0  0  0  0  0  0  0  0  0  0  0  0
    2.0512    1.0404   -0.7570 C   0  0  0  0  0  0  0  0  0  0  0  0
   -3.3631    1.1489   -0.1833 C   0  0  0  0  0  0  0  0  0  0  0  0
    3.8647   -0.3655    0.1272 N   0  0  0  0  0  0  0  0  0  0  0  0
   -5.3690   -0.1573   -0.2291 N   0  0  0  0  0  0  0  0  0  0  0  0
  -10.5663   -2.1251   -0.2025 O   0  0  0  0  0  0  0  0  0  0  0  0
   -8.3188   -3.8456   -0.2730 O   0  0  0  0  0  0  0  0  0  0  0  0
   -2.8417    2.8343    0.1922 S   0  0  0  0  0  0  0  0  0  0  0  0
   -4.8740    1.0894   -0.0728 C   0  0  0  0  0  0  0  0  0  0  0  0
    5.0596    0.1977   -0.1102 C   0  0  0  0  0  0  0  0  0  0  0  0
   -6.7031   -0.5897   -0.2003 C   0  0  0  0  0  0  0  0  0  0  0  0
    6.1668   -0.7308   -0.5018 C   0  0  0  0  0  0  0  0  0  0  0  0
    8.5392   -1.1293   -0.6248 C   0  0  0  0  0  0  0  0  0  0  0  0
   -9.2962   -1.6498   -0.1924 C   0  0  0  0  0  0  0  0  0  0  0  0
   -8.1872   -2.5003   -0.2365 C   0  0  0  0  0  0  0  0  0  0  0  0
   -1.1079    2.6522    0.0345 C   0  0  0  0  0  0  0  0  0  0  0  0
   -0.1803    3.6848    0.3883 C   0  0  0  0  0  0  0  0  0  0  0  0
    1.1073    3.1839    0.1027 C   0  0  0  0  0  0  0  0  0  0  0  0
    0.9678    1.9227   -0.4020 N   0  0  0  0  0  0  0  0  0  0  0  0
    9.9270   -0.6455   -0.3380 C   0  0  1  0  0  0  0  0  0  0  0  0
    6.8279   -3.7180   -1.9568 H   0  0  0  0  0  0  0  0  0  0  0  0
    0.7328    6.7188    1.5537 H   0  0  0  0  0  0  0  0  0  0  0  0
    2.9696    5.8143    1.0489 H   0  0  0  0  0  0  0  0  0  0  0  0
    4.9393   -2.3012   -1.3366 H   0  0  0  0  0  0  0  0  0  0  0  0
    9.1317   -3.0050   -1.5122 H   0  0  0  0  0  0  0  0  0  0  0  0
   -7.6935    1.3297   -0.1022 H   0  0  0  0  0  0  0  0  0  0  0  0
   -9.9409    0.3796   -0.1054 H   0  0  0  0  0  0  0  0  0  0  0  0
   -1.2950    5.3796    1.1415 H   0  0  0  0  0  0  0  0  0  0  0  0
    3.2472    3.5433    0.1280 H   0  0  0  0  0  0  0  0  0  0  0  0
   -6.0653   -2.6481   -0.2744 H   0  0  0  0  0  0  0  0  0  0  0  0
    7.6428    0.6516    0.1867 H   0  0  0  0  0  0  0  0  0  0  0  0
   -0.6813    0.6411   -0.8063 H   0  0  0  0  0  0  0  0  0  0  0  0
    2.9833    1.1920    1.1918 H   0  0  0  0  0  0  0  0  0  0  0  0
    1.9942   -0.2423    0.9788 H   0  0  0  0  0  0  0  0  0  0  0  0
  -10.5624   -3.5479   -1.7073 H   0  0  0  0  0  0  0  0  0  0  0  0
  -11.6652   -3.8242   -0.3484 H   0  0  0  0  0  0  0  0  0  0  0  0
   -9.7529   -4.2865    1.1526 H   0  0  0  0  0  0  0  0  0  0  0  0
   -9.6791   -5.3513   -0.2612 H   0  0  0  0  0  0  0  0  0  0  0  0
    2.7897    1.6008   -1.3321 H   0  0  0  0  0  0  0  0  0  0  0  0
    1.6605    0.2593   -1.4082 H   0  0  0  0  0  0  0  0  0  0  0  0
   -3.0582    0.8696   -1.1955 H   0  0  0  0  0  0  0  0  0  0  0  0
   -2.8996    0.4416    0.5092 H   0  0  0  0  0  0  0  0  0  0  0  0
    3.7654   -1.3665    0.1047 H   0  0  0  0  0  0  0  0  0  0  0  0
   -4.6897   -0.8910   -0.3683 H   0  0  0  0  0  0  0  0  0  0  0  0
  1 28  2  0
  2 29  2  0
 39  3  1  1
 39  4  1  0
  5 39  1  0
  6  9  2  0
  6 10  1  0
  6 40  1  0
 13  7  2  0
  7  8  1  0
  7 41  1  0
  8 14  2  0
  8 42  1  0
  9 31  1  0
  9 43  1  0
 10 32  2  0
 10 44  1  0
 12 11  2  0
 11 30  1  0
 11 45  1  0
 12 33  1  0
 12 46  1  0
 13 36  1  0
 13 47  1  0
 37 14  1  0
 14 48  1  0
 30 15  2  0
 34 15  1  0
 15 49  1  0
 31 16  2  0
 32 16  1  0
 16 50  1  0
 35 17  2  0
 17 38  1  0
 17 51  1  0
 23 18  1  0
 21 18  1  0
 18 52  1  0
 18 53  1  0
 25 19  1  0
 19 20  1  0
 19 54  1  0
 19 55  1  0
 20 26  1  0
 20 56  1  0
 20 57  1  0
 38 21  1  0
 21 58  1  0
 21 59  1  0
 28 22  1  0
 22 27  1  0
 22 60  1  0
 22 61  1  0
 29 23  1  0
 23 62  1  0
 28 24  1  0
 30 24  1  0
 24 63  1  0
 25 33  1  0
 34 26  1  0
 27 35  1  0
 31 29  1  0
 32 39  1  0
 33 34  2  0
 35 36  1  0
 36 37  2  0
 37 38  1  0
M  END
