
     RDKit          3D

 29 30  0  0  0  0  0  0  0  0999 V2000
    6.1865    1.4760    0.6299 O   0  0  0  0  0  0  0  0  0  0  0  0
    4.9783    1.4856    0.6248 C   0  0  0  0  0  0  0  0  0  0  0  0
    4.1375    0.3479    0.2175 C   0  0  0  0  0  0  0  0  0  0  0  0
    2.7562    0.4974    0.2581 C   0  0  0  0  0  0  0  0  0  0  0  0
    4.7013   -0.8587   -0.1955 C   0  0  0  0  0  0  0  0  0  0  0  0
    3.8726   -1.9031   -0.5631 C   0  0  0  0  0  0  0  0  0  0  0  0
    2.4922   -1.7502   -0.5192 C   0  0  0  0  0  0  0  0  0  0  0  0
    1.9131   -0.5495   -0.1081 C   0  0  0  0  0  0  0  0  0  0  0  0
    0.4467   -0.3928   -0.0646 C   0  0  0  0  0  0  0  0  0  0  0  0
   -0.3700   -1.4566    0.3167 C   0  0  0  0  0  0  0  0  0  0  0  0
   -1.7482   -1.3217    0.3474 C   0  0  0  0  0  0  0  0  0  0  0  0
   -2.3157   -0.1054    0.0003 C   0  0  0  0  0  0  0  0  0  0  0  0
   -4.0746    0.0814    0.0216 S   0  0  1  0  0  0  0  0  0  0  0  0
   -4.4784    1.0093   -1.0246 O   0  0  0  0  0  0  0  0  0  0  0  0
   -4.6591   -1.2528    0.0287 O   0  0  0  0  0  0  0  0  0  0  0  0
   -4.2953    0.8884    1.4459 N   0  0  0  0  0  0  0  0  0  0  0  0
   -1.5251    0.9716   -0.3786 C   0  0  0  0  0  0  0  0  0  0  0  0
   -0.1509    0.8218   -0.4099 C   0  0  0  0  0  0  0  0  0  0  0  0
    4.4152    2.3830    0.9361 H   0  0  0  0  0  0  0  0  0  0  0  0
    2.3384    1.4369    0.6024 H   0  0  0  0  0  0  0  0  0  0  0  0
    5.7767   -0.9750   -0.2284 H   0  0  0  0  0  0  0  0  0  0  0  0
    4.2950   -2.8424   -0.8928 H   0  0  0  0  0  0  0  0  0  0  0  0
    1.8622   -2.5743   -0.8298 H   0  0  0  0  0  0  0  0  0  0  0  0
    0.0681   -2.4015    0.6103 H   0  0  0  0  0  0  0  0  0  0  0  0
   -2.3615   -2.1610    0.6448 H   0  0  0  0  0  0  0  0  0  0  0  0
   -5.2001    1.3503    1.4725 H   0  0  0  0  0  0  0  0  0  0  0  0
   -4.1836    0.2898    2.2581 H   0  0  0  0  0  0  0  0  0  0  0  0
   -1.9672    1.9172   -0.6619 H   0  0  0  0  0  0  0  0  0  0  0  0
    0.4579    1.6567   -0.7317 H   0  0  0  0  0  0  0  0  0  0  0  0
  5  6  1  0
  5  3  2  0
  2  3  1  0
  2  1  2  0
  6  7  2  0
  3  4  1  0
  7  8  1  0
  4  8  2  0
  8  9  1  0
 18  9  1  0
 18 17  2  0
  9 10  2  0
 17 12  1  0
 10 11  1  0
 12 11  2  0
 12 13  1  0
 13 16  1  1
 13 14  2  0
 13 15  2  0
  2 19  1  0
  4 20  1  0
  5 21  1  0
  6 22  1  0
  7 23  1  0
 10 24  1  0
 11 25  1  0
 16 26  1  0
 16 27  1  0
 17 28  1  0
 18 29  1  0
M  END
