
     RDKit          3D

 65 69  0  0  0  0  0  0  0  0999 V2000
   -7.6771    1.3769    0.2782 C   0  0  0  0  0  0  0  0  0  0  0  0
   -6.6173    2.1693    0.7071 C   0  0  0  0  0  0  0  0  0  0  0  0
   -5.3199    1.8644    0.3120 C   0  0  0  0  0  0  0  0  0  0  0  0
   -5.0710    0.7635   -0.5078 C   0  0  0  0  0  0  0  0  0  0  0  0
   -6.1490    0.0040   -0.9480 C   0  0  0  0  0  0  0  0  0  0  0  0
   -7.4439    0.2851   -0.5572 C   0  0  0  0  0  0  0  0  0  0  0  0
   -8.9469    1.6307    0.6371 O   0  0  0  0  0  0  0  0  0  0  0  0
   -4.2633    2.6087    0.6843 O   0  0  0  0  0  0  0  0  0  0  0  0
   -3.6960    0.4759   -1.0105 C   0  0  0  0  0  0  0  0  0  0  0  0
   -3.4157    0.6310   -2.1850 O   0  0  0  0  0  0  0  0  0  0  0  0
   -2.7906    0.0136   -0.0964 N   0  0  0  0  0  0  0  0  0  0  0  0
   -3.2116   -0.4759    1.2085 C   0  0  0  0  0  0  0  0  0  0  0  0
   -4.0048   -1.7599    1.1899 C   0  0  0  0  0  0  0  0  0  0  0  0
   -4.0585   -2.6026    0.0858 C   0  0  0  0  0  0  0  0  0  0  0  0
   -4.7906   -3.7833    0.1328 C   0  0  0  0  0  0  0  0  0  0  0  0
   -5.4766   -4.1369    1.2848 C   0  0  0  0  0  0  0  0  0  0  0  0
   -5.4286   -3.2986    2.3925 C   0  0  0  0  0  0  0  0  0  0  0  0
   -4.7004   -2.1204    2.3418 C   0  0  0  0  0  0  0  0  0  0  0  0
   -1.4303   -0.1220   -0.4592 C   0  0  0  0  0  0  0  0  0  0  0  0
   -0.7538   -1.3136   -0.2201 C   0  0  0  0  0  0  0  0  0  0  0  0
    0.5953   -1.4253   -0.5170 C   0  0  0  0  0  0  0  0  0  0  0  0
    1.2861   -0.3582   -1.0794 C   0  0  0  0  0  0  0  0  0  0  0  0
    0.5989    0.8250   -1.3409 C   0  0  0  0  0  0  0  0  0  0  0  0
   -0.7385    0.9529   -1.0141 C   0  0  0  0  0  0  0  0  0  0  0  0
    2.7086   -0.4782   -1.5196 C   0  0  0  0  0  0  0  0  0  0  0  0
    3.5972   -1.0133   -0.6551 N   0  0  0  0  0  0  0  0  0  0  0  0
    3.0181   -0.1131   -2.6477 O   0  0  0  0  0  0  0  0  0  0  0  0
    3.3618   -1.2116    0.7626 C   0  0  0  0  0  0  0  0  0  0  0  0
    4.9300   -1.3688   -1.1135 C   0  0  0  0  0  0  0  0  0  0  0  0
    5.9810   -0.3891   -0.6603 C   0  0  0  0  0  0  0  0  0  0  0  0
    6.8799    1.8621   -0.7258 C   0  0  0  0  0  0  0  0  0  0  0  0
    5.9419    0.9515   -1.1213 C   0  0  0  0  0  0  0  0  0  0  0  0
    6.9751   -0.7776    0.1975 C   0  0  0  0  0  0  0  0  0  0  0  0
    7.9118    1.4767    0.1582 C   0  0  0  0  0  0  0  0  0  0  0  0
    7.9591    0.1416    0.6220 C   0  0  0  0  0  0  0  0  0  0  0  0
    8.9320   -0.2651    1.4698 N   0  0  0  0  0  0  0  0  0  0  0  0
    9.8118    0.6267    1.8293 C   0  0  0  0  0  0  0  0  0  0  0  0
    9.7649    1.9627    1.3637 C   0  0  0  0  0  0  0  0  0  0  0  0
    8.8386    2.3815    0.5485 N   0  0  0  0  0  0  0  0  0  0  0  0
   -6.8016    3.0300    1.3424 H   0  0  0  0  0  0  0  0  0  0  0  0
   -5.9701   -0.8421   -1.5990 H   0  0  0  0  0  0  0  0  0  0  0  0
   -8.2685   -0.3292   -0.8938 H   0  0  0  0  0  0  0  0  0  0  0  0
   -8.9917    2.4065    1.2077 H   0  0  0  0  0  0  0  0  0  0  0  0
   -4.5376    3.3336    1.2579 H   0  0  0  0  0  0  0  0  0  0  0  0
   -2.3097   -0.6135    1.8072 H   0  0  0  0  0  0  0  0  0  0  0  0
   -3.7809    0.2933    1.7294 H   0  0  0  0  0  0  0  0  0  0  0  0
   -3.5370   -2.3473   -0.8292 H   0  0  0  0  0  0  0  0  0  0  0  0
   -4.8231   -4.4262   -0.7374 H   0  0  0  0  0  0  0  0  0  0  0  0
   -6.0478   -5.0556    1.3197 H   0  0  0  0  0  0  0  0  0  0  0  0
   -5.9656   -3.5603    3.2954 H   0  0  0  0  0  0  0  0  0  0  0  0
   -4.6760   -1.4684    3.2078 H   0  0  0  0  0  0  0  0  0  0  0  0
   -1.2710   -2.1636    0.2061 H   0  0  0  0  0  0  0  0  0  0  0  0
    1.0954   -2.3654   -0.3221 H   0  0  0  0  0  0  0  0  0  0  0  0
    1.1179    1.6675   -1.7791 H   0  0  0  0  0  0  0  0  0  0  0  0
   -1.2381    1.8972   -1.1809 H   0  0  0  0  0  0  0  0  0  0  0  0
    3.1649   -2.2590    0.9975 H   0  0  0  0  0  0  0  0  0  0  0  0
    4.2476   -0.9018    1.3180 H   0  0  0  0  0  0  0  0  0  0  0  0
    2.5314   -0.6085    1.1156 H   0  0  0  0  0  0  0  0  0  0  0  0
    5.1661   -2.3637   -0.7293 H   0  0  0  0  0  0  0  0  0  0  0  0
    4.9246   -1.4366   -2.2000 H   0  0  0  0  0  0  0  0  0  0  0  0
    6.8537    2.8841   -1.0812 H   0  0  0  0  0  0  0  0  0  0  0  0
    5.1584    1.2520   -1.8051 H   0  0  0  0  0  0  0  0  0  0  0  0
    7.0264   -1.7948    0.5675 H   0  0  0  0  0  0  0  0  0  0  0  0
   10.6000    0.3198    2.5074 H   0  0  0  0  0  0  0  0  0  0  0  0
   10.5171    2.6729    1.6875 H   0  0  0  0  0  0  0  0  0  0  0  0
 15 16  1  0
 15 14  2  0
 16 17  2  0
  8  3  1  0
 14 13  1  0
 17 18  1  0
  3  2  1  0
  3  4  2  0
  2  1  2  0
 13 18  2  0
 13 12  1  0
 10  9  2  0
  9  4  1  0
  9 11  1  0
  4  5  1  0
 12 11  1  0
 11 19  1  0
 20 19  2  0
 20 21  1  0
  1  7  1  0
  1  6  1  0
 19 24  1  0
 21 22  2  0
  5  6  2  0
 24 23  2  0
 28 26  1  0
 22 23  1  0
 22 25  1  0
 26 25  1  0
 26 29  1  0
 25 27  2  0
 29 30  1  0
 30 33  2  0
 30 32  1  0
 33 35  1  0
 32 31  2  0
 35 36  1  0
 35 34  2  0
 36 37  2  0
 31 34  1  0
 34 39  1  0
 37 38  1  0
 39 38  2  0
  2 40  1  0
  5 41  1  0
  6 42  1  0
  7 43  1  0
  8 44  1  0
 12 45  1  0
 12 46  1  0
 14 47  1  0
 15 48  1  0
 16 49  1  0
 17 50  1  0
 18 51  1  0
 20 52  1  0
 21 53  1  0
 23 54  1  0
 24 55  1  0
 28 56  1  0
 28 57  1  0
 28 58  1  0
 29 59  1  0
 29 60  1  0
 31 61  1  0
 32 62  1  0
 33 63  1  0
 37 64  1  0
 38 65  1  0
M  END
