
     RDKit          3D

 66 69  0  0  0  0  0  0  0  0999 V2000
   -0.8165    2.1855    0.1697 N   0  0  0  0  0  0  0  0  0  0  0  0
   -0.0325    1.5331    1.1984 C   0  0  1  0  0  0  0  0  0  0  0  0
    1.4272    1.9859    1.1835 C   0  0  0  0  0  0  0  0  0  0  0  0
    1.7171    3.1529    0.9703 O   0  0  0  0  0  0  0  0  0  0  0  0
   -0.6761    1.8105    2.5641 C   0  0  0  0  0  0  0  0  0  0  0  0
   -2.0764    1.2685    2.6123 C   0  0  0  0  0  0  0  0  0  0  0  0
   -2.2959   -0.0993    2.7581 C   0  0  0  0  0  0  0  0  0  0  0  0
   -3.1749    2.1069    2.4559 C   0  0  0  0  0  0  0  0  0  0  0  0
   -3.5818   -0.6185    2.7433 C   0  0  0  0  0  0  0  0  0  0  0  0
   -4.4651    1.5926    2.4465 C   0  0  0  0  0  0  0  0  0  0  0  0
   -4.6722    0.2274    2.5880 C   0  0  0  0  0  0  0  0  0  0  0  0
   -0.6707    1.6348   -1.3808 S   0  0  1  0  0  0  0  0  0  0  0  0
   -1.5897    2.4373   -2.1742 O   0  0  0  0  0  0  0  0  0  0  0  0
    0.7178    1.5530   -1.8179 O   0  0  0  0  0  0  0  0  0  0  0  0
   -2.6027   -0.1958   -0.9002 C   0  0  0  0  0  0  0  0  0  0  0  0
   -1.2783   -0.0170   -1.1982 C   0  0  0  0  0  0  0  0  0  0  0  0
   -0.3885   -1.1008   -1.3419 C   0  0  0  0  0  0  0  0  0  0  0  0
   -0.8684   -2.3702   -1.1738 C   0  0  0  0  0  0  0  0  0  0  0  0
   -2.7380   -3.9118   -0.6794 C   0  0  0  0  0  0  0  0  0  0  0  0
   -4.0577   -4.1042   -0.3764 C   0  0  0  0  0  0  0  0  0  0  0  0
   -4.9335   -3.0037   -0.2497 C   0  0  0  0  0  0  0  0  0  0  0  0
   -4.4694   -1.7306   -0.4241 C   0  0  0  0  0  0  0  0  0  0  0  0
   -3.1083   -1.5002   -0.7319 C   0  0  0  0  0  0  0  0  0  0  0  0
   -2.2277   -2.6056   -0.8658 C   0  0  0  0  0  0  0  0  0  0  0  0
    2.3064    1.0160    1.4577 N   0  0  0  0  0  0  0  0  0  0  0  0
    3.7440    1.1740    1.4811 C   0  0  0  0  0  0  0  0  0  0  0  0
    4.4342    0.1564    0.5803 C   0  0  1  0  0  0  0  0  0  0  0  0
    4.0234    0.3290   -0.8830 C   0  0  0  0  0  0  0  0  0  0  0  0
    5.9532    0.2659    0.7201 C   0  0  0  0  0  0  0  0  0  0  0  0
    4.7206   -0.6209   -1.7270 N   0  0  0  0  0  0  0  0  0  0  0  0
    6.6809   -0.6636   -0.2482 C   0  0  0  0  0  0  0  0  0  0  0  0
    6.1606   -0.4549   -1.6663 C   0  0  0  0  0  0  0  0  0  0  0  0
    4.1132   -1.8200   -2.0120 C   0  0  0  0  0  0  0  0  0  0  0  0
    4.9417   -2.8073   -2.5111 N   0  0  0  0  0  0  0  0  0  0  0  0
    2.8375   -1.9390   -1.9004 N   0  0  0  0  0  0  0  0  0  0  0  0
   -0.7966    3.2016    0.2078 H   0  0  0  0  0  0  0  0  0  0  0  0
   -0.0904    0.4542    1.0255 H   0  0  0  0  0  0  0  0  0  0  0  0
   -0.0581    1.3484    3.3374 H   0  0  0  0  0  0  0  0  0  0  0  0
   -0.6707    2.8868    2.7526 H   0  0  0  0  0  0  0  0  0  0  0  0
   -1.4522   -0.7695    2.8812 H   0  0  0  0  0  0  0  0  0  0  0  0
   -3.0225    3.1735    2.3403 H   0  0  0  0  0  0  0  0  0  0  0  0
   -3.7330   -1.6850    2.8472 H   0  0  0  0  0  0  0  0  0  0  0  0
   -5.3085    2.2606    2.3257 H   0  0  0  0  0  0  0  0  0  0  0  0
   -5.6768   -0.1757    2.5764 H   0  0  0  0  0  0  0  0  0  0  0  0
    0.6623   -0.9497   -1.5650 H   0  0  0  0  0  0  0  0  0  0  0  0
   -0.1959   -3.2135   -1.2709 H   0  0  0  0  0  0  0  0  0  0  0  0
   -2.0683   -4.7571   -0.7790 H   0  0  0  0  0  0  0  0  0  0  0  0
   -4.4385   -5.1068   -0.2326 H   0  0  0  0  0  0  0  0  0  0  0  0
   -5.9752   -3.1750   -0.0128 H   0  0  0  0  0  0  0  0  0  0  0  0
   -5.1356   -0.8833   -0.3264 H   0  0  0  0  0  0  0  0  0  0  0  0
    1.9549    0.0860    1.6247 H   0  0  0  0  0  0  0  0  0  0  0  0
    3.9812    2.1877    1.1573 H   0  0  0  0  0  0  0  0  0  0  0  0
    4.1103    1.0674    2.5064 H   0  0  0  0  0  0  0  0  0  0  0  0
    4.1294   -0.8502    0.8982 H   0  0  0  0  0  0  0  0  0  0  0  0
    2.9529    0.2047   -1.0145 H   0  0  0  0  0  0  0  0  0  0  0  0
    4.2815    1.3412   -1.2179 H   0  0  0  0  0  0  0  0  0  0  0  0
    6.2572    1.2999    0.5160 H   0  0  0  0  0  0  0  0  0  0  0  0
    6.2528    0.0513    1.7490 H   0  0  0  0  0  0  0  0  0  0  0  0
    7.7565   -0.4762   -0.2166 H   0  0  0  0  0  0  0  0  0  0  0  0
    6.5316   -1.7071    0.0481 H   0  0  0  0  0  0  0  0  0  0  0  0
    6.6595   -1.1023   -2.3852 H   0  0  0  0  0  0  0  0  0  0  0  0
    6.3851    0.5686   -1.9839 H   0  0  0  0  0  0  0  0  0  0  0  0
    5.8549   -2.9081   -2.0971 H   0  0  0  0  0  0  0  0  0  0  0  0
    4.4911   -3.7033   -2.6071 H   0  0  0  0  0  0  0  0  0  0  0  0
    2.5440   -2.8735   -2.1569 H   0  0  0  0  0  0  0  0  0  0  0  0
   -3.2719    0.6469   -0.7766 H   0  0  0  0  0  0  0  0  0  0  0  0
 23 24  1  0
 23 15  2  0
 23 22  1  0
 24 18  2  0
 24 19  1  0
 15 16  1  0
 22 21  2  0
 18 17  1  0
 19 20  2  0
 16 17  2  0
 16 12  1  0
 21 20  1  0
 12  1  1  1
 12 14  2  0
 12 13  2  0
  1  2  1  0
  2  5  1  0
  2  3  1  0
  5  6  1  0
  3 25  1  0
  3  4  2  0
  6  7  2  0
  6  8  1  0
 25 26  1  0
  7  9  1  0
  8 10  2  0
 26 27  1  0
  9 11  2  0
 10 11  1  0
 27 28  1  0
 27 29  1  0
 28 30  1  0
 29 31  1  0
 30 32  1  0
 30 33  1  0
 31 32  1  0
 33 34  1  0
 33 35  2  0
 15 66  1  0
 22 50  1  0
 18 46  1  0
 19 47  1  0
 21 49  1  0
 17 45  1  0
 20 48  1  0
  1 36  1  0
  2 37  1  6
  5 38  1  0
  5 39  1  0
 25 51  1  0
  7 40  1  0
  8 41  1  0
 26 52  1  0
 26 53  1  0
  9 42  1  0
 10 43  1  0
 27 54  1  1
 11 44  1  0
 28 55  1  0
 28 56  1  0
 29 57  1  0
 29 58  1  0
 31 59  1  0
 31 60  1  0
 32 61  1  0
 32 62  1  0
 34 63  1  0
 34 64  1  0
 35 65  1  0
M  END
