
     RDKit          3D

 61 60  0  0  0  0  0  0  0  0999 V2000
    8.1003    3.7564   -0.5704 O   0  0  0  0  0  0  0  0  0  0  0  0
    7.8135    2.5699    0.4638 P   0  0  1  0  0  0  0  0  0  0  0  0
    7.3647    2.9599    1.8200 O   0  0  0  0  0  0  0  0  0  0  0  0
    6.7689    1.7636   -0.4398 O   0  0  0  0  0  0  0  0  0  0  0  0
    6.3357    0.4715    0.0017 C   0  0  0  0  0  0  0  0  0  0  0  0
    5.7309   -0.2794   -1.1842 C   0  0  1  0  0  0  0  0  0  0  0  0
    4.5148    0.4722   -1.7303 C   0  0  0  0  0  0  0  0  0  0  0  0
    6.7678   -0.4272   -2.3015 C   0  0  0  0  0  0  0  0  0  0  0  0
    5.3145   -1.7095   -0.7363 C   0  0  1  0  0  0  0  0  0  0  0  0
    6.4028   -2.4724   -0.2910 O   0  0  0  0  0  0  0  0  0  0  0  0
    4.2428   -1.7112    0.3549 C   0  0  0  0  0  0  0  0  0  0  0  0
    4.5705   -1.6854    1.5366 O   0  0  0  0  0  0  0  0  0  0  0  0
    2.9741   -1.7460   -0.0531 N   0  0  0  0  0  0  0  0  0  0  0  0
    1.8517   -1.7214    0.8650 C   0  0  0  0  0  0  0  0  0  0  0  0
    0.5656   -1.5342    0.0816 C   0  0  0  0  0  0  0  0  0  0  0  0
   -0.6561   -1.5009    0.9769 C   0  0  0  0  0  0  0  0  0  0  0  0
   -0.6119   -1.7582    2.1709 O   0  0  0  0  0  0  0  0  0  0  0  0
   -1.7974   -1.1705    0.3523 N   0  0  0  0  0  0  0  0  0  0  0  0
   -3.0683   -1.1174    1.0413 C   0  0  0  0  0  0  0  0  0  0  0  0
   -4.1462   -0.6694    0.0660 C   0  0  0  0  0  0  0  0  0  0  0  0
   -5.7223   -0.6031    0.9577 S   0  0  0  0  0  0  0  0  0  0  0  0
   -6.8236   -0.0607   -0.3266 C   0  0  0  0  0  0  0  0  0  0  0  0
   -6.4463    0.1581   -1.4473 O   0  0  0  0  0  0  0  0  0  0  0  0
   -8.2435    0.0849    0.1540 C   0  0  0  0  0  0  0  0  0  0  0  0
   -9.2105    0.5847   -0.9085 C   0  0  0  0  0  0  0  0  0  0  0  0
  -10.6248    0.7258   -0.3586 C   0  0  0  0  0  0  0  0  0  0  0  0
  -11.6172    1.2294   -1.3990 C   0  0  0  0  0  0  0  0  0  0  0  0
  -13.0287    1.3769   -0.8480 C   0  0  0  0  0  0  0  0  0  0  0  0
    8.5495    4.5144   -0.1737 H   0  0  0  0  0  0  0  0  0  0  0  0
    8.9626    1.7641    0.4717 H   0  0  0  0  0  0  0  0  0  0  0  0
    7.1873   -0.0896    0.4023 H   0  0  0  0  0  0  0  0  0  0  0  0
    5.6054    0.5999    0.8030 H   0  0  0  0  0  0  0  0  0  0  0  0
    4.8136    1.4280   -2.1594 H   0  0  0  0  0  0  0  0  0  0  0  0
    4.0335   -0.1002   -2.5267 H   0  0  0  0  0  0  0  0  0  0  0  0
    3.7659    0.6736   -0.9632 H   0  0  0  0  0  0  0  0  0  0  0  0
    7.6709   -0.9315   -1.9579 H   0  0  0  0  0  0  0  0  0  0  0  0
    6.3550   -1.0081   -3.1291 H   0  0  0  0  0  0  0  0  0  0  0  0
    7.0563    0.5447   -2.6997 H   0  0  0  0  0  0  0  0  0  0  0  0
    4.9162   -2.2044   -1.6301 H   0  0  0  0  0  0  0  0  0  0  0  0
    6.4708   -2.3597    0.6658 H   0  0  0  0  0  0  0  0  0  0  0  0
    2.7878   -1.8586   -1.0368 H   0  0  0  0  0  0  0  0  0  0  0  0
    1.8174   -2.6483    1.4412 H   0  0  0  0  0  0  0  0  0  0  0  0
    1.9858   -0.9036    1.5742 H   0  0  0  0  0  0  0  0  0  0  0  0
    0.6072   -0.6102   -0.5024 H   0  0  0  0  0  0  0  0  0  0  0  0
    0.4410   -2.3480   -0.6401 H   0  0  0  0  0  0  0  0  0  0  0  0
   -1.7762   -0.9887   -0.6387 H   0  0  0  0  0  0  0  0  0  0  0  0
   -3.3197   -2.0988    1.4522 H   0  0  0  0  0  0  0  0  0  0  0  0
   -3.0091   -0.4192    1.8795 H   0  0  0  0  0  0  0  0  0  0  0  0
   -3.9171    0.3195   -0.3317 H   0  0  0  0  0  0  0  0  0  0  0  0
   -4.2321   -1.3725   -0.7629 H   0  0  0  0  0  0  0  0  0  0  0  0
   -8.5650   -0.8871    0.5429 H   0  0  0  0  0  0  0  0  0  0  0  0
   -8.2370    0.7577    1.0179 H   0  0  0  0  0  0  0  0  0  0  0  0
   -8.8717    1.5507   -1.2921 H   0  0  0  0  0  0  0  0  0  0  0  0
   -9.2160   -0.1037   -1.7577 H   0  0  0  0  0  0  0  0  0  0  0  0
  -10.9643   -0.2407    0.0296 H   0  0  0  0  0  0  0  0  0  0  0  0
  -10.6165    1.4112    0.4959 H   0  0  0  0  0  0  0  0  0  0  0  0
  -11.2743    2.1930   -1.7883 H   0  0  0  0  0  0  0  0  0  0  0  0
  -11.6283    0.5437   -2.2518 H   0  0  0  0  0  0  0  0  0  0  0  0
  -13.7171    1.7442   -1.6102 H   0  0  0  0  0  0  0  0  0  0  0  0
  -13.4147    0.4215   -0.4879 H   0  0  0  0  0  0  0  0  0  0  0  0
  -13.0562    2.0783   -0.0121 H   0  0  0  0  0  0  0  0  0  0  0  0
  1  2  1  0
  1 29  1  0
  2  3  2  0
  2  4  1  0
  2 30  1  1
  4  5  1  0
  6  5  1  1
  5 31  1  0
  5 32  1  0
  6  7  1  0
  6  8  1  0
  6  9  1  0
  7 33  1  0
  7 34  1  0
  7 35  1  0
  8 36  1  0
  8 37  1  0
  8 38  1  0
  9 10  1  0
  9 11  1  0
  9 39  1  6
 10 40  1  0
 11 12  2  0
 11 13  1  0
 13 14  1  0
 13 41  1  0
 14 15  1  0
 14 42  1  0
 14 43  1  0
 15 16  1  0
 15 44  1  0
 15 45  1  0
 16 17  2  0
 16 18  1  0
 18 19  1  0
 18 46  1  0
 19 20  1  0
 19 47  1  0
 19 48  1  0
 20 21  1  0
 20 49  1  0
 20 50  1  0
 21 22  1  0
 22 23  2  0
 22 24  1  0
 24 25  1  0
 24 51  1  0
 24 52  1  0
 25 26  1  0
 25 53  1  0
 25 54  1  0
 26 27  1  0
 26 55  1  0
 26 56  1  0
 27 28  1  0
 27 57  1  0
 27 58  1  0
 28 59  1  0
 28 60  1  0
 28 61  1  0
M  END
