
     RDKit          3D

 43 45  0  0  0  0  0  0  0  0999 V2000
    3.6639    1.4040   -0.0026 C   0  0  0  0  0  0  0  0  0  0  0  0
    4.4931    0.2920   -0.0759 C   0  0  0  0  0  0  0  0  0  0  0  0
    3.9317   -0.9789   -0.0065 C   0  0  0  0  0  0  0  0  0  0  0  0
    2.5594   -1.1586    0.1390 C   0  0  0  0  0  0  0  0  0  0  0  0
    1.7154   -0.0404    0.2265 C   0  0  0  0  0  0  0  0  0  0  0  0
    2.2967    1.2214    0.1455 C   0  0  0  0  0  0  0  0  0  0  0  0
    0.2174   -0.1879    0.3481 C   0  0  2  0  0  0  0  0  0  0  0  0
   -0.4618    0.0164   -1.0122 C   0  0  0  0  0  0  0  0  0  0  0  0
   -1.9770   -0.1573   -0.9611 C   0  0  2  0  0  0  0  0  0  0  0  0
   -2.6618    0.6568    0.1557 C   0  0  2  0  0  0  0  0  0  0  0  0
   -1.9155    0.4697    1.4883 C   0  0  0  0  0  0  0  0  0  0  0  0
   -0.4177    0.7357    1.3880 C   0  0  0  0  0  0  0  0  0  0  0  0
   -2.4482   -1.6081   -0.7422 C   0  0  0  0  0  0  0  0  0  0  0  0
   -3.7163   -1.5225    0.1314 C   0  0  0  0  0  0  0  0  0  0  0  0
   -4.0329   -0.0275    0.2656 C   0  0  2  0  0  0  0  0  0  0  0  0
   -4.8514    0.4255   -0.7955 O   0  0  0  0  0  0  0  0  0  0  0  0
   -2.7613    2.1421   -0.1765 C   0  0  0  0  0  0  0  0  0  0  0  0
    5.8340    0.3842   -0.2156 O   0  0  0  0  0  0  0  0  0  0  0  0
    2.0171   -2.5602    0.1936 C   0  0  0  0  0  0  0  0  0  0  0  0
    4.0740    2.4059   -0.0623 H   0  0  0  0  0  0  0  0  0  0  0  0
    4.5824   -1.8438   -0.0697 H   0  0  0  0  0  0  0  0  0  0  0  0
    1.6691    2.1031    0.1956 H   0  0  0  0  0  0  0  0  0  0  0  0
    0.0046   -1.2078    0.6838 H   0  0  0  0  0  0  0  0  0  0  0  0
   -0.2207    1.0229   -1.3735 H   0  0  0  0  0  0  0  0  0  0  0  0
   -0.0372   -0.6758   -1.7469 H   0  0  0  0  0  0  0  0  0  0  0  0
   -2.3815    0.1897   -1.9175 H   0  0  0  0  0  0  0  0  0  0  0  0
   -2.3636    1.1216    2.2446 H   0  0  0  0  0  0  0  0  0  0  0  0
   -2.0506   -0.5513    1.8592 H   0  0  0  0  0  0  0  0  0  0  0  0
    0.0459    0.5683    2.3634 H   0  0  0  0  0  0  0  0  0  0  0  0
   -0.2346    1.7840    1.1361 H   0  0  0  0  0  0  0  0  0  0  0  0
   -2.6429   -2.0977   -1.6974 H   0  0  0  0  0  0  0  0  0  0  0  0
   -1.6787   -2.2044   -0.2471 H   0  0  0  0  0  0  0  0  0  0  0  0
   -4.5620   -2.0680   -0.2942 H   0  0  0  0  0  0  0  0  0  0  0  0
   -3.5408   -1.9596    1.1153 H   0  0  0  0  0  0  0  0  0  0  0  0
   -4.5068    0.1994    1.2322 H   0  0  0  0  0  0  0  0  0  0  0  0
   -5.6595   -0.0958   -0.7879 H   0  0  0  0  0  0  0  0  0  0  0  0
   -3.2218    2.3095   -1.1497 H   0  0  0  0  0  0  0  0  0  0  0  0
   -3.3519    2.6764    0.5715 H   0  0  0  0  0  0  0  0  0  0  0  0
   -1.7767    2.6111   -0.2047 H   0  0  0  0  0  0  0  0  0  0  0  0
    6.0988    1.3087   -0.2731 H   0  0  0  0  0  0  0  0  0  0  0  0
    1.5368   -2.7718    1.1508 H   0  0  0  0  0  0  0  0  0  0  0  0
    1.2709   -2.7376   -0.5831 H   0  0  0  0  0  0  0  0  0  0  0  0
    2.8116   -3.2924    0.0581 H   0  0  0  0  0  0  0  0  0  0  0  0
 14 15  1  0
 14 13  1  0
 16 15  1  0
 15 10  1  0
 13  9  1  0
 10  9  1  0
 10 11  1  0
 10 17  1  6
  9  8  1  0
 11 12  1  0
  8  7  1  0
 12  7  1  0
  7  5  1  0
 19  4  1  0
  5  4  2  0
  5  6  1  0
  4  3  1  0
  6  1  2  0
  3  2  2  0
  1  2  1  0
  2 18  1  0
  1 20  1  0
  3 21  1  0
  6 22  1  0
  7 23  1  1
  8 24  1  0
  8 25  1  0
  9 26  1  6
 11 27  1  0
 11 28  1  0
 12 29  1  0
 12 30  1  0
 13 31  1  0
 13 32  1  0
 14 33  1  0
 14 34  1  0
 15 35  1  1
 16 36  1  0
 17 37  1  0
 17 38  1  0
 17 39  1  0
 18 40  1  0
 19 41  1  0
 19 42  1  0
 19 43  1  0
M  END
