
     RDKit          3D

 35 38  0  0  0  0  0  0  0  0999 V2000
   -1.5144    1.7985    0.1528 S   0  0  0  0  0  0  0  0  0  0  0  0
   -3.0760    0.9755   -0.3180 C   0  0  0  0  0  0  0  0  0  0  0  0
   -2.7719   -0.5229   -0.3027 C   0  0  0  0  0  0  0  0  0  0  0  0
   -0.5054    0.2464   -0.0626 C   0  0  1  0  0  0  0  0  0  0  0  0
   -1.4033   -0.6556   -0.7376 N   0  0  0  0  0  0  0  0  0  0  0  0
   -1.0358   -0.9083   -2.0361 C   0  0  0  0  0  0  0  0  0  0  0  0
   -1.6977   -1.5097   -2.8550 O   0  0  0  0  0  0  0  0  0  0  0  0
    0.2930   -0.2919   -2.2100 C   0  0  0  0  0  0  0  0  0  0  0  0
    0.6041    0.4225   -1.0655 C   0  0  0  0  0  0  0  0  0  0  0  0
    1.1362   -0.3199   -3.3080 C   0  0  0  0  0  0  0  0  0  0  0  0
    2.3242    0.3925   -3.2259 C   0  0  0  0  0  0  0  0  0  0  0  0
    2.6442    1.1048   -2.0703 C   0  0  0  0  0  0  0  0  0  0  0  0
    1.7912    1.1240   -0.9718 C   0  0  0  0  0  0  0  0  0  0  0  0
    0.0051   -0.2866    1.2597 C   0  0  0  0  0  0  0  0  0  0  0  0
    0.5259    0.5804    2.2166 C   0  0  0  0  0  0  0  0  0  0  0  0
    1.0801    0.1082    3.4008 C   0  0  0  0  0  0  0  0  0  0  0  0
    1.6650    1.0536    4.4091 C   0  0  0  0  0  0  0  0  0  0  0  0
    1.0901   -1.2681    3.6265 C   0  0  0  0  0  0  0  0  0  0  0  0
    0.5691   -2.1389    2.6840 C   0  0  0  0  0  0  0  0  0  0  0  0
    0.0341   -1.6547    1.4966 C   0  0  0  0  0  0  0  0  0  0  0  0
   -3.8558    1.2387    0.3944 H   0  0  0  0  0  0  0  0  0  0  0  0
   -3.3761    1.3086   -1.3103 H   0  0  0  0  0  0  0  0  0  0  0  0
   -2.8783   -0.9250    0.7051 H   0  0  0  0  0  0  0  0  0  0  0  0
   -3.4325   -1.0797   -0.9641 H   0  0  0  0  0  0  0  0  0  0  0  0
    0.8781   -0.8804   -4.1974 H   0  0  0  0  0  0  0  0  0  0  0  0
    3.0110    0.3970   -4.0615 H   0  0  0  0  0  0  0  0  0  0  0  0
    3.5756    1.6541   -2.0279 H   0  0  0  0  0  0  0  0  0  0  0  0
    2.0593    1.6789   -0.0821 H   0  0  0  0  0  0  0  0  0  0  0  0
    0.4950    1.6515    2.0488 H   0  0  0  0  0  0  0  0  0  0  0  0
    2.7558    1.0137    4.3921 H   0  0  0  0  0  0  0  0  0  0  0  0
    1.3711    2.0836    4.2117 H   0  0  0  0  0  0  0  0  0  0  0  0
    1.3511    0.8004    5.4218 H   0  0  0  0  0  0  0  0  0  0  0  0
    1.5047   -1.6570    4.5490 H   0  0  0  0  0  0  0  0  0  0  0  0
    0.5769   -3.2049    2.8716 H   0  0  0  0  0  0  0  0  0  0  0  0
   -0.3659   -2.3452    0.7659 H   0  0  0  0  0  0  0  0  0  0  0  0
  1  2  1  0
  1  4  1  0
  2  3  1  0
  2 21  1  0
  2 22  1  0
  3  5  1  0
  3 23  1  0
  3 24  1  0
  4  5  1  0
  4  9  1  0
  4 14  1  1
  5  6  1  0
  6  7  2  0
  6  8  1  0
  8  9  2  0
  8 10  1  0
  9 13  1  0
 10 11  2  0
 10 25  1  0
 11 12  1  0
 11 26  1  0
 12 13  2  0
 12 27  1  0
 13 28  1  0
 14 15  2  0
 14 20  1  0
 15 16  1  0
 15 29  1  0
 16 17  1  0
 16 18  2  0
 17 30  1  0
 17 31  1  0
 17 32  1  0
 18 19  1  0
 18 33  1  0
 19 20  2  0
 19 34  1  0
 20 35  1  0
M  END
