
     RDKit          3D

 57 57  0  0  0  0  0  0  0  0999 V2000
    7.6514    0.7493    2.1961 C   0  0  0  0  0  0  0  0  0  0  0  0
    7.5667    1.7650    1.0514 C   0  0  1  0  0  0  0  0  0  0  0  0
    8.9331    2.3486    0.7242 C   0  0  0  0  0  0  0  0  0  0  0  0
    6.9420    1.1171   -0.1653 C   0  0  0  0  0  0  0  0  0  0  0  0
    7.5102    0.9167   -1.2114 O   0  0  0  0  0  0  0  0  0  0  0  0
    5.6819    0.7665    0.0556 O   0  0  0  0  0  0  0  0  0  0  0  0
    4.9835    0.0761   -0.9999 C   0  0  0  0  0  0  0  0  0  0  0  0
    3.6034   -0.2135   -0.5179 C   0  0  0  0  0  0  0  0  0  0  0  0
    3.1489   -1.3919   -0.0830 C   0  0  0  0  0  0  0  0  0  0  0  0
    3.9739   -2.6373    0.0422 C   0  0  0  0  0  0  0  0  0  0  0  0
    1.7095   -1.5329    0.3328 C   0  0  0  0  0  0  0  0  0  0  0  0
    0.8861   -2.3760   -0.6537 C   0  0  0  0  0  0  0  0  0  0  0  0
   -0.5333   -2.5454   -0.1924 C   0  0  0  0  0  0  0  0  0  0  0  0
   -0.7508   -3.4004    1.0305 C   0  0  0  0  0  0  0  0  0  0  0  0
   -1.5347   -1.9457   -0.8485 C   0  0  0  0  0  0  0  0  0  0  0  0
   -2.9940   -2.0201   -0.4932 C   0  0  0  0  0  0  0  0  0  0  0  0
   -3.6587   -0.6649   -0.4433 C   0  0  0  0  0  0  0  0  0  0  0  0
   -4.8454   -0.4058   -1.1313 C   0  0  0  0  0  0  0  0  0  0  0  0
   -5.3585   -1.3757   -1.8769 O   0  0  0  0  0  0  0  0  0  0  0  0
   -5.4909    0.8486   -1.0325 C   0  0  0  0  0  0  0  0  0  0  0  0
   -6.7091    1.0651   -1.7770 C   0  0  0  0  0  0  0  0  0  0  0  0
   -7.2407    0.2158   -2.4899 O   0  0  0  0  0  0  0  0  0  0  0  0
   -4.9502    1.8730   -0.2194 C   0  0  0  0  0  0  0  0  0  0  0  0
   -5.6460    3.1983   -0.1067 C   0  0  0  0  0  0  0  0  0  0  0  0
   -3.7729    1.6075    0.4450 C   0  0  0  0  0  0  0  0  0  0  0  0
   -3.0029    2.7881    1.4549 Cl  0  0  0  0  0  0  0  0  0  0  0  0
   -3.1270    0.3595    0.3348 C   0  0  0  0  0  0  0  0  0  0  0  0
   -1.9969    0.2097    1.0236 O   0  0  0  0  0  0  0  0  0  0  0  0
    6.6702    0.3884    2.4995 H   0  0  0  0  0  0  0  0  0  0  0  0
    8.2592   -0.1111    1.9108 H   0  0  0  0  0  0  0  0  0  0  0  0
    8.1196    1.2110    3.0650 H   0  0  0  0  0  0  0  0  0  0  0  0
    6.9000    2.5747    1.3669 H   0  0  0  0  0  0  0  0  0  0  0  0
    9.6397    1.5702    0.4341 H   0  0  0  0  0  0  0  0  0  0  0  0
    8.8822    3.0784   -0.0830 H   0  0  0  0  0  0  0  0  0  0  0  0
    9.3379    2.8533    1.6014 H   0  0  0  0  0  0  0  0  0  0  0  0
    4.9480    0.7149   -1.8852 H   0  0  0  0  0  0  0  0  0  0  0  0
    5.5283   -0.8285   -1.2702 H   0  0  0  0  0  0  0  0  0  0  0  0
    2.9140    0.6255   -0.5354 H   0  0  0  0  0  0  0  0  0  0  0  0
    3.9291   -3.0057    1.0697 H   0  0  0  0  0  0  0  0  0  0  0  0
    3.5829   -3.4387   -0.5884 H   0  0  0  0  0  0  0  0  0  0  0  0
    5.0219   -2.4984   -0.2133 H   0  0  0  0  0  0  0  0  0  0  0  0
    1.6697   -1.9904    1.3266 H   0  0  0  0  0  0  0  0  0  0  0  0
    1.2467   -0.5463    0.4204 H   0  0  0  0  0  0  0  0  0  0  0  0
    0.9077   -1.8975   -1.6349 H   0  0  0  0  0  0  0  0  0  0  0  0
    1.3419   -3.3640   -0.7690 H   0  0  0  0  0  0  0  0  0  0  0  0
    0.1900   -3.7934    1.4132 H   0  0  0  0  0  0  0  0  0  0  0  0
   -1.2223   -2.8477    1.8454 H   0  0  0  0  0  0  0  0  0  0  0  0
   -1.3934   -4.2533    0.8089 H   0  0  0  0  0  0  0  0  0  0  0  0
   -1.2956   -1.3615   -1.7337 H   0  0  0  0  0  0  0  0  0  0  0  0
   -3.5019   -2.6405   -1.2326 H   0  0  0  0  0  0  0  0  0  0  0  0
   -3.1362   -2.5270    0.4657 H   0  0  0  0  0  0  0  0  0  0  0  0
   -6.1880   -1.0335   -2.2930 H   0  0  0  0  0  0  0  0  0  0  0  0
   -7.1765    2.0539   -1.6994 H   0  0  0  0  0  0  0  0  0  0  0  0
   -6.6823    3.0773    0.2070 H   0  0  0  0  0  0  0  0  0  0  0  0
   -5.1628    3.8492    0.6144 H   0  0  0  0  0  0  0  0  0  0  0  0
   -5.6513    3.7207   -1.0641 H   0  0  0  0  0  0  0  0  0  0  0  0
   -1.4995   -0.5588    0.6919 H   0  0  0  0  0  0  0  0  0  0  0  0
 14 13  1  0
 28 27  1  0
 11 12  1  0
 11  9  1  0
 13 12  1  0
 13 15  2  0
 26 25  1  0
 27 25  1  0
 27 17  2  0
  9  8  2  0
  9 10  1  0
  8  7  1  0
 15 16  1  0
 16 17  1  0
 25 23  2  0
 17 18  1  0
  7  6  1  0
 23 24  1  0
 23 20  1  0
  6  4  1  0
 18 20  2  0
 18 19  1  0
 20 21  1  0
  4  5  2  0
  4  2  1  0
  3  2  1  0
  2  1  1  0
 21 22  2  0
  1 29  1  0
  1 30  1  0
  1 31  1  0
  2 32  1  1
  3 33  1  0
  3 34  1  0
  3 35  1  0
  7 36  1  0
  7 37  1  0
  8 38  1  0
 10 39  1  0
 10 40  1  0
 10 41  1  0
 11 42  1  0
 11 43  1  0
 12 44  1  0
 12 45  1  0
 14 46  1  0
 14 47  1  0
 14 48  1  0
 15 49  1  0
 16 50  1  0
 16 51  1  0
 19 52  1  0
 21 53  1  0
 24 54  1  0
 24 55  1  0
 24 56  1  0
 28 57  1  0
M  END
