
     RDKit          3D

 27 29  0  0  0  0  0  0  0  0999 V2000
    0.9042    1.6031   -0.2146 C   0  0  0  0  0  0  0  0  0  0  0  0
   -0.5169    1.8562   -0.2248 C   0  0  0  0  0  0  0  0  0  0  0  0
   -1.0070    2.9681   -0.3654 O   0  0  0  0  0  0  0  0  0  0  0  0
   -1.3406    0.6481   -0.0641 C   0  0  0  0  0  0  0  0  0  0  0  0
   -2.7360    0.7115   -0.0806 C   0  0  0  0  0  0  0  0  0  0  0  0
   -3.4682   -0.4431    0.0673 C   0  0  0  0  0  0  0  0  0  0  0  0
   -5.1966   -0.3736    0.0482 Cl  0  0  0  0  0  0  0  0  0  0  0  0
   -2.8410   -1.6796    0.2347 C   0  0  0  0  0  0  0  0  0  0  0  0
   -1.4658   -1.7539    0.2520 C   0  0  0  0  0  0  0  0  0  0  0  0
   -0.7232   -0.5864    0.1006 C   0  0  0  0  0  0  0  0  0  0  0  0
    0.6207   -0.7089    0.1276 O   0  0  0  0  0  0  0  0  0  0  0  0
    1.4084    0.3615   -0.0350 C   0  0  0  0  0  0  0  0  0  0  0  0
    2.8355    0.0212   -0.0118 C   0  0  0  0  0  0  0  0  0  0  0  0
    3.2652   -1.2727   -0.3158 C   0  0  0  0  0  0  0  0  0  0  0  0
    4.6178   -1.5758   -0.3137 C   0  0  0  0  0  0  0  0  0  0  0  0
    5.5547   -0.6002   -0.0015 C   0  0  0  0  0  0  0  0  0  0  0  0
    5.1328    0.6857    0.3120 C   0  0  0  0  0  0  0  0  0  0  0  0
    3.7832    0.9953    0.3083 C   0  0  0  0  0  0  0  0  0  0  0  0
    1.5768    2.4345   -0.3699 H   0  0  0  0  0  0  0  0  0  0  0  0
   -3.2224    1.6686   -0.2122 H   0  0  0  0  0  0  0  0  0  0  0  0
   -3.4296   -2.5789    0.3520 H   0  0  0  0  0  0  0  0  0  0  0  0
   -0.9681   -2.7056    0.3823 H   0  0  0  0  0  0  0  0  0  0  0  0
    2.5535   -2.0463   -0.5697 H   0  0  0  0  0  0  0  0  0  0  0  0
    4.9392   -2.5788   -0.5606 H   0  0  0  0  0  0  0  0  0  0  0  0
    6.6095   -0.8411    0.0010 H   0  0  0  0  0  0  0  0  0  0  0  0
    5.8559    1.4487    0.5679 H   0  0  0  0  0  0  0  0  0  0  0  0
    3.4701    1.9950    0.5786 H   0  0  0  0  0  0  0  0  0  0  0  0
 16 17  2  0
 16 15  1  0
 17 18  1  0
 15 14  2  0
 18 13  2  0
 14 13  1  0
 13 12  1  0
 12 11  1  0
 12  1  2  0
 11 10  1  0
  1  2  1  0
 10  9  1  0
 10  4  2  0
  9  8  2  0
  2  4  1  0
  2  3  2  0
  4  5  1  0
  8  6  1  0
  5  6  2  0
  6  7  1  0
  1 19  1  0
  5 20  1  0
  8 21  1  0
  9 22  1  0
 14 23  1  0
 15 24  1  0
 16 25  1  0
 17 26  1  0
 18 27  1  0
M  END
