
     RDKit          3D

 13 12  0  0  0  0  0  0  0  0999 V2000
    0.1091    0.0115    1.6636 C   0  0  0  0  0  0  0  0  0  0  0  0
    1.2948   -0.1485    1.6672 O   0  0  0  0  0  0  0  0  0  0  0  0
   -0.7794    0.1567    2.8527 C   0  0  0  0  0  0  0  0  0  0  0  0
   -0.6013    0.0868    0.5067 O   0  0  0  0  0  0  0  0  0  0  0  0
    0.1144   -0.0732   -0.9572 P   0  0  1  0  0  0  0  0  0  0  0  0
    0.8210   -1.3380   -1.1979 O   0  0  0  0  0  0  0  0  0  0  0  0
   -1.2134    0.2169   -1.7815 O   0  0  0  0  0  0  0  0  0  0  0  0
    1.0800    1.1766   -1.1207 O   0  0  0  0  0  0  0  0  0  0  0  0
   -0.1989    0.0960    3.7681 H   0  0  0  0  0  0  0  0  0  0  0  0
   -1.2997    1.1145    2.8186 H   0  0  0  0  0  0  0  0  0  0  0  0
   -1.5392   -0.6252    2.8536 H   0  0  0  0  0  0  0  0  0  0  0  0
   -1.1471    0.0077   -2.7237 H   0  0  0  0  0  0  0  0  0  0  0  0
    0.6640    2.0496   -1.1074 H   0  0  0  0  0  0  0  0  0  0  0  0
  1  2  2  0
  1  3  1  0
  1  4  1  0
  3  9  1  0
  3 10  1  0
  3 11  1  0
  5  4  1  1
  5  6  2  0
  5  7  1  0
  5  8  1  0
  7 12  1  0
  8 13  1  0
M  END
