
     RDKit          3D

 41 43  0  0  0  0  0  0  0  0999 V2000
   -4.6150   -0.6199    1.0729 C   0  0  0  0  0  0  0  0  0  0  0  0
   -5.5780   -1.7722    0.8603 C   0  0  0  0  0  0  0  0  0  0  0  0
   -6.6472   -0.6125   -0.8438 C   0  0  0  0  0  0  0  0  0  0  0  0
    4.1951    0.9950    0.1724 C   0  0  0  0  0  0  0  0  0  0  0  0
    2.7816    0.8931    0.1054 C   0  0  0  0  0  0  0  0  0  0  0  0
    2.1189   -0.2853   -0.0994 C   0  0  0  0  0  0  0  0  0  0  0  0
    0.6230    1.1868    0.0786 C   0  0  0  0  0  0  0  0  0  0  0  0
   -2.0407    0.6207   -0.0612 C   0  0  0  0  0  0  0  0  0  0  0  0
   -5.7095    0.5667   -0.6673 C   0  0  0  0  0  0  0  0  0  0  0  0
    4.1602   -1.4646   -0.2187 C   0  0  0  0  0  0  0  0  0  0  0  0
    0.7846   -0.1113   -0.1172 N   0  0  0  0  0  0  0  0  0  0  0  0
   -4.4244    0.1031   -0.1730 N   0  0  0  0  0  0  0  0  0  0  0  0
    1.7873    1.8387    0.2182 N   0  0  0  0  0  0  0  0  0  0  0  0
    2.7886   -1.4608   -0.2633 N   0  0  0  0  0  0  0  0  0  0  0  0
    4.8065   -0.2549    0.0099 N   0  0  0  0  0  0  0  0  0  0  0  0
    4.8317    2.0198    0.3498 O   0  0  0  0  0  0  0  0  0  0  0  0
   -6.8191   -1.3260    0.3609 O   0  0  0  0  0  0  0  0  0  0  0  0
    4.7906   -2.4934   -0.3715 O   0  0  0  0  0  0  0  0  0  0  0  0
   -0.8975    2.0179    0.1555 S   0  0  0  0  0  0  0  0  0  0  0  0
   -5.0007    0.0409    1.8685 H   0  0  0  0  0  0  0  0  0  0  0  0
   -3.6649   -1.0267    1.4242 H   0  0  0  0  0  0  0  0  0  0  0  0
   -5.1251   -2.4996    0.1719 H   0  0  0  0  0  0  0  0  0  0  0  0
   -5.7690   -2.2783    1.8078 H   0  0  0  0  0  0  0  0  0  0  0  0
   -7.6309   -0.2651   -1.1626 H   0  0  0  0  0  0  0  0  0  0  0  0
   -6.2494   -1.2730   -1.6273 H   0  0  0  0  0  0  0  0  0  0  0  0
   -1.8744   -0.0851    0.7511 H   0  0  0  0  0  0  0  0  0  0  0  0
   -1.8276    0.1266   -1.0072 H   0  0  0  0  0  0  0  0  0  0  0  0
   -3.6295    1.7931    0.8389 H   0  0  0  0  0  0  0  0  0  0  0  0
   -3.5777    1.8382   -0.9202 H   0  0  0  0  0  0  0  0  0  0  0  0
   -5.5742    1.0543   -1.6357 H   0  0  0  0  0  0  0  0  0  0  0  0
   -6.1682    1.3061    0.0108 H   0  0  0  0  0  0  0  0  0  0  0  0
    2.3786   -3.1391   -1.4596 H   0  0  0  0  0  0  0  0  0  0  0  0
    2.3074   -3.4308    0.2885 H   0  0  0  0  0  0  0  0  0  0  0  0
    1.0249   -2.5148   -0.5097 H   0  0  0  0  0  0  0  0  0  0  0  0
    6.6514    0.6507    0.3134 H   0  0  0  0  0  0  0  0  0  0  0  0
    6.5831   -1.0399    0.8144 H   0  0  0  0  0  0  0  0  0  0  0  0
    6.6679   -0.6265   -0.9060 H   0  0  0  0  0  0  0  0  0  0  0  0
    1.9173    2.8266    0.3771 H   0  0  0  0  0  0  0  0  0  0  0  0
   -3.4604    1.1764   -0.0592 C   0  0  0  0  0  0  0  0  0  0  0  0
    2.0913   -2.7136   -0.5004 C   0  0  0  0  0  0  0  0  0  0  0  0
    6.2618   -0.3274    0.0585 C   0  0  0  0  0  0  0  0  0  0  0  0
  3  9  1  0
  3 17  1  0
  9 12  1  0
 17  2  1  0
  8 39  1  0
  8 19  1  0
 12 39  1  0
 12  1  1  0
 16  4  2  0
  2  1  1  0
  4  5  1  0
  4 15  1  0
 13  5  1  0
 13  7  1  0
 41 15  1  0
  5  6  2  0
 15 10  1  0
 19  7  1  0
  7 11  2  0
  6 11  1  0
  6 14  1  0
 10 14  1  0
 10 18  2  0
 14 40  1  0
  1 20  1  0
  1 21  1  0
  2 22  1  0
  2 23  1  0
  3 24  1  0
  3 25  1  0
  8 26  1  0
  8 27  1  0
 39 28  1  0
 39 29  1  0
  9 30  1  0
  9 31  1  0
 40 32  1  0
 40 33  1  0
 40 34  1  0
 41 35  1  0
 41 36  1  0
 41 37  1  0
 13 38  1  0
M  END
