
     RDKit          3D

 26 27  0  0  0  0  0  0  0  0999 V2000
   -0.5066    1.6040    0.0127 C   0  0  0  0  0  0  0  0  0  0  0  0
   -2.2042   -0.0916   -0.0122 C   0  0  0  0  0  0  0  0  0  0  0  0
   -4.6026   -0.3494   -0.0262 C   0  0  0  0  0  0  0  0  0  0  0  0
   -5.6877   -1.4070   -0.0385 C   0  0  0  0  0  0  0  0  0  0  0  0
   -7.0053   -0.8027   -0.0435 C   0  0  0  0  0  0  0  0  0  0  0  0
    4.0242   -0.9347    0.0005 C   0  0  0  0  0  0  0  0  0  0  0  0
    3.0020   -1.8706    0.0094 C   0  0  0  0  0  0  0  0  0  0  0  0
    1.6805   -1.4608    0.0091 C   0  0  0  0  0  0  0  0  0  0  0  0
    1.3533   -0.1053    0.0001 C   0  0  0  0  0  0  0  0  0  0  0  0
    2.3869    0.8292   -0.0095 C   0  0  0  0  0  0  0  0  0  0  0  0
    3.7083    0.4205   -0.0090 C   0  0  0  0  0  0  0  0  0  0  0  0
   -0.0500    0.3221    0.0003 C   0  0  0  0  0  0  0  0  0  0  0  0
   -3.3465   -0.8568   -0.0250 N   0  0  0  0  0  0  0  0  0  0  0  0
   -8.0578   -0.3421   -0.0467 N   0  0  0  0  0  0  0  0  0  0  0  0
   -1.0332   -0.6320   -0.0132 N   0  0  0  0  0  0  0  0  0  0  0  0
   -4.8286    0.8404   -0.0178 O   0  0  0  0  0  0  0  0  0  0  0  0
   -2.2235    1.6371    0.0058 S   0  0  0  0  0  0  0  0  0  0  0  0
    4.9553    1.6091   -0.0212 Cl  0  0  0  0  0  0  0  0  0  0  0  0
    0.0563    2.5242    0.0257 H   0  0  0  0  0  0  0  0  0  0  0  0
   -5.5835   -2.0473   -0.9187 H   0  0  0  0  0  0  0  0  0  0  0  0
   -5.5946   -2.0559    0.8365 H   0  0  0  0  0  0  0  0  0  0  0  0
    3.2412   -2.9252    0.0163 H   0  0  0  0  0  0  0  0  0  0  0  0
    0.8984   -2.2063    0.0160 H   0  0  0  0  0  0  0  0  0  0  0  0
    2.1753    1.8899   -0.0189 H   0  0  0  0  0  0  0  0  0  0  0  0
   -3.2027   -1.8580   -0.0346 H   0  0  0  0  0  0  0  0  0  0  0  0
    5.6634   -1.4577    0.0006 Cl  0  0  0  0  0  0  0  0  0  0  0  0
 14  5  3  0
  5  4  1  0
 16  3  2  0
  4  3  1  0
  3 13  1  0
 17  2  1  0
 17  1  1  0
 13  2  1  0
  2 15  2  0
  1 12  2  0
 15 12  1  0
 12  9  1  0
  9  8  2  0
  9 10  1  0
  8  7  1  0
 10 11  2  0
  7  6  2  0
 11  6  1  0
 11 18  1  0
  6 26  1  0
  1 19  1  0
  4 20  1  0
  4 21  1  0
  7 22  1  0
  8 23  1  0
 10 24  1  0
 13 25  1  0
M  END
