
     RDKit          3D

 47 49  0  0  0  0  0  0  0  0999 V2000
    2.4715    1.7395   -0.8244 C   0  0  0  0  0  0  0  0  0  0  0  0
    3.8331    1.6870   -0.1548 C   0  0  0  0  0  0  0  0  0  0  0  0
    4.3110    0.2762    0.0465 C   0  0  0  0  0  0  0  0  0  0  0  0
    5.6503    0.0227    0.4016 C   0  0  0  0  0  0  0  0  0  0  0  0
    6.5245    1.0692    0.6321 N   0  0  0  0  0  0  0  0  0  0  0  0
    6.0735   -1.2968    0.5758 C   0  0  0  0  0  0  0  0  0  0  0  0
    5.1818   -2.3463    0.4174 C   0  0  0  0  0  0  0  0  0  0  0  0
    3.8600   -2.0994    0.0879 C   0  0  0  0  0  0  0  0  0  0  0  0
    3.4257   -0.7872   -0.0951 C   0  0  0  0  0  0  0  0  0  0  0  0
    1.9826   -0.5450   -0.4564 C   0  0  0  0  0  0  0  0  0  0  0  0
    1.5563    0.8123   -0.1873 N   0  0  0  0  0  0  0  0  0  0  0  0
    0.1892    1.0468   -0.6158 C   0  0  0  0  0  0  0  0  0  0  0  0
   -0.8458    0.2625    0.1804 C   0  0  0  0  0  0  0  0  0  0  0  0
   -2.2496    0.6636   -0.2313 C   0  0  0  0  0  0  0  0  0  0  0  0
   -3.1794   -0.0985    0.5031 O   0  0  0  0  0  0  0  0  0  0  0  0
   -4.5282    0.2428    0.2726 C   0  0  2  0  0  0  0  0  0  0  0  0
   -5.3734   -0.3967    1.3630 C   0  0  0  0  0  0  0  0  0  0  0  0
   -6.8489   -0.1200    1.1102 C   0  0  0  0  0  0  0  0  0  0  0  0
   -7.2606   -0.5666   -0.1624 O   0  0  0  0  0  0  0  0  0  0  0  0
   -6.5355    0.0560   -1.1992 C   0  0  0  0  0  0  0  0  0  0  0  0
   -5.0401   -0.2113   -1.0924 C   0  0  0  0  0  0  0  0  0  0  0  0
    2.0703    2.7510   -0.7424 H   0  0  0  0  0  0  0  0  0  0  0  0
    2.5774    1.5251   -1.9022 H   0  0  0  0  0  0  0  0  0  0  0  0
    4.5368    2.2530   -0.7744 H   0  0  0  0  0  0  0  0  0  0  0  0
    3.7906    2.2082    0.8077 H   0  0  0  0  0  0  0  0  0  0  0  0
    6.3480    1.9164    0.1160 H   0  0  0  0  0  0  0  0  0  0  0  0
    7.5006    0.8214    0.5898 H   0  0  0  0  0  0  0  0  0  0  0  0
    7.1061   -1.4961    0.8389 H   0  0  0  0  0  0  0  0  0  0  0  0
    5.5252   -3.3632    0.5599 H   0  0  0  0  0  0  0  0  0  0  0  0
    3.1608   -2.9198   -0.0231 H   0  0  0  0  0  0  0  0  0  0  0  0
    1.8328   -0.8045   -1.5216 H   0  0  0  0  0  0  0  0  0  0  0  0
    1.3674   -1.2436    0.1134 H   0  0  0  0  0  0  0  0  0  0  0  0
   -0.0128    2.1146   -0.4900 H   0  0  0  0  0  0  0  0  0  0  0  0
    0.0633    0.8304   -1.6917 H   0  0  0  0  0  0  0  0  0  0  0  0
   -0.7296   -0.8122    0.0201 H   0  0  0  0  0  0  0  0  0  0  0  0
   -0.7010    0.4516    1.2475 H   0  0  0  0  0  0  0  0  0  0  0  0
   -2.4048    1.7368   -0.0481 H   0  0  0  0  0  0  0  0  0  0  0  0
   -2.3701    0.5081   -1.3116 H   0  0  0  0  0  0  0  0  0  0  0  0
   -4.6465    1.3375    0.3387 H   0  0  0  0  0  0  0  0  0  0  0  0
   -5.1974   -1.4769    1.3817 H   0  0  0  0  0  0  0  0  0  0  0  0
   -5.0977   -0.0011    2.3436 H   0  0  0  0  0  0  0  0  0  0  0  0
   -7.4666   -0.6358    1.8469 H   0  0  0  0  0  0  0  0  0  0  0  0
   -7.0429    0.9577    1.2177 H   0  0  0  0  0  0  0  0  0  0  0  0
   -6.9269   -0.3309   -2.1412 H   0  0  0  0  0  0  0  0  0  0  0  0
   -6.7142    1.1417   -1.1920 H   0  0  0  0  0  0  0  0  0  0  0  0
   -4.5353    0.3127   -1.9077 H   0  0  0  0  0  0  0  0  0  0  0  0
   -4.8414   -1.2803   -1.2189 H   0  0  0  0  0  0  0  0  0  0  0  0
  6  7  2  0
  6  4  1  0
  5  4  1  0
  7  8  1  0
  4  3  2  0
  8  9  2  0
  3  9  1  0
  3  2  1  0
  9 10  1  0
  2  1  1  0
 10 11  1  0
  1 11  1  0
 11 12  1  0
 12 13  1  0
 13 14  1  0
 15 14  1  0
 15 16  1  0
 21 16  1  0
 21 20  1  0
 16 17  1  0
 20 19  1  0
 17 18  1  0
 19 18  1  0
  1 22  1  0
  1 23  1  0
  2 24  1  0
  2 25  1  0
  5 26  1  0
  5 27  1  0
  6 28  1  0
  7 29  1  0
  8 30  1  0
 10 31  1  0
 10 32  1  0
 12 33  1  0
 12 34  1  0
 13 35  1  0
 13 36  1  0
 14 37  1  0
 14 38  1  0
 16 39  1  6
 17 40  1  0
 17 41  1  0
 18 42  1  0
 18 43  1  0
 20 44  1  0
 20 45  1  0
 21 46  1  0
 21 47  1  0
M  END
