
     RDKit          3D

 58 62  0  0  0  0  0  0  0  0999 V2000
    4.8980   -0.5298    0.5004 C   0  0  0  0  0  0  0  0  0  0  0  0
    5.4555   -0.7174    1.7713 C   0  0  0  0  0  0  0  0  0  0  0  0
    5.4050    0.4723   -0.3044 C   0  0  0  0  0  0  0  0  0  0  0  0
    6.4502    1.2678    0.1701 C   0  0  0  0  0  0  0  0  0  0  0  0
    6.4865    0.0404    2.2823 C   0  0  0  0  0  0  0  0  0  0  0  0
    3.8561   -1.5226    0.3816 C   0  0  0  0  0  0  0  0  0  0  0  0
    6.9910    1.0502    1.4683 C   0  0  0  0  0  0  0  0  0  0  0  0
    3.8846   -2.2059    1.5414 C   0  0  0  0  0  0  0  0  0  0  0  0
    7.9878    1.7883    1.9557 O   0  0  0  0  0  0  0  0  0  0  0  0
    4.8400   -1.7305    2.3991 O   0  0  0  0  0  0  0  0  0  0  0  0
    7.0125    2.3424   -0.6554 C   0  0  0  0  0  0  0  0  0  0  0  0
    7.9212    3.0699   -0.2834 O   0  0  0  0  0  0  0  0  0  0  0  0
    6.4565    2.4660   -1.8434 O   0  0  0  0  0  0  0  0  0  0  0  0
    2.9710   -1.7561   -0.7912 C   0  0  1  0  0  0  0  0  0  0  0  0
    1.8623   -2.6583   -0.4937 N   0  0  0  0  0  0  0  0  0  0  0  0
    0.8737   -2.3345   -1.4408 N   0  0  0  0  0  0  0  0  0  0  0  0
    0.9123   -0.9301   -1.6651 N   0  0  0  0  0  0  0  0  0  0  0  0
    2.2787   -0.4889   -1.3533 C   0  0  0  0  0  0  0  0  0  0  0  0
   -1.5050   -0.6071   -1.2946 C   0  0  0  0  0  0  0  0  0  0  0  0
   -2.5382    0.1341   -0.4563 C   0  0  0  0  0  0  0  0  0  0  0  0
   -0.0942   -0.2654   -0.8477 C   0  0  0  0  0  0  0  0  0  0  0  0
   -3.9569   -0.1239   -0.9113 C   0  0  0  0  0  0  0  0  0  0  0  0
   -4.2594   -0.2418   -2.0845 O   0  0  0  0  0  0  0  0  0  0  0  0
   -4.8656   -0.1788    0.0974 N   0  0  0  0  0  0  0  0  0  0  0  0
   -9.3896    1.3576    1.1005 C   0  0  0  0  0  0  0  0  0  0  0  0
   -6.2563   -0.3128   -0.0690 C   0  0  0  0  0  0  0  0  0  0  0  0
   -8.1737   -1.4749   -0.9629 C   0  0  0  0  0  0  0  0  0  0  0  0
   -6.7806   -1.3331   -0.8204 C   0  0  0  0  0  0  0  0  0  0  0  0
   -7.1180    0.6215    0.5738 C   0  0  0  0  0  0  0  0  0  0  0  0
   -8.5227    0.4498    0.4476 C   0  0  0  0  0  0  0  0  0  0  0  0
   -9.0286   -0.6117   -0.3372 C   0  0  0  0  0  0  0  0  0  0  0  0
   -6.6337    1.7177    1.3273 C   0  0  0  0  0  0  0  0  0  0  0  0
   -7.4991    2.5817    1.9425 C   0  0  0  0  0  0  0  0  0  0  0  0
   -8.8924    2.3977    1.8359 C   0  0  0  0  0  0  0  0  0  0  0  0
    5.0028    0.6407   -1.2939 H   0  0  0  0  0  0  0  0  0  0  0  0
    6.8946   -0.1295    3.2699 H   0  0  0  0  0  0  0  0  0  0  0  0
    3.3068   -3.0405    1.9061 H   0  0  0  0  0  0  0  0  0  0  0  0
    8.2353    2.4538    1.2784 H   0  0  0  0  0  0  0  0  0  0  0  0
    6.8742    3.1892   -2.3357 H   0  0  0  0  0  0  0  0  0  0  0  0
    3.5654   -2.2125   -1.5905 H   0  0  0  0  0  0  0  0  0  0  0  0
    1.4781   -2.4397    0.4206 H   0  0  0  0  0  0  0  0  0  0  0  0
    1.1480   -2.7812   -2.3086 H   0  0  0  0  0  0  0  0  0  0  0  0
    2.2698    0.3201   -0.6187 H   0  0  0  0  0  0  0  0  0  0  0  0
    2.7911   -0.1257   -2.2460 H   0  0  0  0  0  0  0  0  0  0  0  0
   -1.6641   -1.6838   -1.2109 H   0  0  0  0  0  0  0  0  0  0  0  0
   -1.6204   -0.3451   -2.3477 H   0  0  0  0  0  0  0  0  0  0  0  0
   -2.4219   -0.1174    0.6012 H   0  0  0  0  0  0  0  0  0  0  0  0
   -2.3729    1.2151   -0.5305 H   0  0  0  0  0  0  0  0  0  0  0  0
    0.0262   -0.4888    0.2249 H   0  0  0  0  0  0  0  0  0  0  0  0
    0.0609    0.8109   -0.9557 H   0  0  0  0  0  0  0  0  0  0  0  0
   -4.5227   -0.0433    1.0359 H   0  0  0  0  0  0  0  0  0  0  0  0
   -8.5615   -2.2895   -1.5603 H   0  0  0  0  0  0  0  0  0  0  0  0
   -6.1250   -2.0508   -1.2932 H   0  0  0  0  0  0  0  0  0  0  0  0
  -10.1007   -0.7312   -0.4339 H   0  0  0  0  0  0  0  0  0  0  0  0
   -5.5691    1.8909    1.4118 H   0  0  0  0  0  0  0  0  0  0  0  0
   -7.1110    3.4177    2.5094 H   0  0  0  0  0  0  0  0  0  0  0  0
   -9.5643    3.0862    2.3312 H   0  0  0  0  0  0  0  0  0  0  0  0
  -10.4594    1.2153    1.0047 H   0  0  0  0  0  0  0  0  0  0  0  0
  1  6  1  0
  1  3  2  0
  1  2  1  0
  2 10  1  0
  2  5  2  0
  3  4  1  0
  3 35  1  0
  4 11  1  0
  4  7  2  0
  5  7  1  0
  5 36  1  0
  6 14  1  0
  6  8  2  0
  7  9  1  0
  8 10  1  0
  8 37  1  0
  9 38  1  0
 11 12  2  0
 11 13  1  0
 13 39  1  0
 14 15  1  0
 14 18  1  0
 14 40  1  6
 15 16  1  0
 15 41  1  0
 16 17  1  0
 16 42  1  0
 17 21  1  0
 17 18  1  0
 18 43  1  0
 18 44  1  0
 19 20  1  0
 19 21  1  0
 19 45  1  0
 19 46  1  0
 20 22  1  0
 20 47  1  0
 20 48  1  0
 21 49  1  0
 21 50  1  0
 22 24  1  0
 22 23  2  0
 24 26  1  0
 24 51  1  0
 25 34  2  0
 25 30  1  0
 25 58  1  0
 26 29  1  0
 26 28  2  0
 27 31  2  0
 27 28  1  0
 27 52  1  0
 28 53  1  0
 29 30  2  0
 29 32  1  0
 30 31  1  0
 31 54  1  0
 32 33  2  0
 32 55  1  0
 33 34  1  0
 33 56  1  0
 34 57  1  0
M  END
