
     RDKit          3D

 22 22  0  0  0  0  0  0  0  0999 V2000
    0.9043   -2.0244    3.4733 O   0  0  0  0  0  0  0  0  0  0  0  0
    0.3343   -1.6223    2.2509 C   0  0  1  0  0  0  0  0  0  0  0  0
    1.3680   -1.0002    1.3206 C   0  0  2  0  0  0  0  0  0  0  0  0
    1.8361    0.1824    1.9323 O   0  0  0  0  0  0  0  0  0  0  0  0
    0.7362   -0.7351   -0.0400 C   0  0  0  0  0  0  0  0  0  0  0  0
    0.2265   -1.9909   -0.5597 N   0  0  0  0  0  0  0  0  0  0  0  0
   -0.2917   -2.8410    1.5771 C   0  0  1  0  0  0  0  0  0  0  0  0
   -1.4079   -3.4389    2.4250 C   0  0  0  0  0  0  0  0  0  0  0  0
   -2.0075   -4.5610    1.8120 O   0  0  0  0  0  0  0  0  0  0  0  0
   -0.8497   -2.4126    0.3036 N   0  0  0  0  0  0  0  0  0  0  0  0
    1.3473   -1.2609    3.8577 H   0  0  0  0  0  0  0  0  0  0  0  0
   -0.4654   -0.8795    2.4106 H   0  0  0  0  0  0  0  0  0  0  0  0
    2.1835   -1.7260    1.1887 H   0  0  0  0  0  0  0  0  0  0  0  0
    0.5008   -3.5971    1.4378 H   0  0  0  0  0  0  0  0  0  0  0  0
    2.6448    0.4564    1.4893 H   0  0  0  0  0  0  0  0  0  0  0  0
   -0.0474    0.0289    0.0707 H   0  0  0  0  0  0  0  0  0  0  0  0
    1.4875   -0.3525   -0.7348 H   0  0  0  0  0  0  0  0  0  0  0  0
   -0.2098   -1.8003   -1.4541 H   0  0  0  0  0  0  0  0  0  0  0  0
   -1.2439   -3.2341   -0.1401 H   0  0  0  0  0  0  0  0  0  0  0  0
   -2.1963   -2.6925    2.5502 H   0  0  0  0  0  0  0  0  0  0  0  0
   -1.0234   -3.6823    3.4196 H   0  0  0  0  0  0  0  0  0  0  0  0
   -1.3828   -5.2918    1.8501 H   0  0  0  0  0  0  0  0  0  0  0  0
  1  2  1  0
  1 11  1  0
  2  3  1  0
  2  7  1  0
  2 12  1  1
  3  4  1  0
  3  5  1  0
  3 13  1  6
  4 15  1  0
  5  6  1  0
  5 16  1  0
  5 17  1  0
  6 10  1  0
  6 18  1  0
  7  8  1  0
  7 10  1  0
  7 14  1  6
  8  9  1  0
  8 20  1  0
  8 21  1  0
  9 22  1  0
 10 19  1  0
M  END
