
     RDKit          3D

 54 56  0  0  0  0  0  0  0  0999 V2000
   -3.1786    3.6706   -1.6849 N   0  0  0  0  0  0  0  0  0  0  0  0
   -4.2559    3.3777   -0.7706 C   0  0  1  0  0  0  0  0  0  0  0  0
   -3.7180    2.7915    0.5439 C   0  0  0  0  0  0  0  0  0  0  0  0
   -2.8228    3.7540    1.3053 C   0  0  0  0  0  0  0  0  0  0  0  0
   -2.3305    2.9478    2.8669 S   0  0  2  0  0  0  0  0  0  0  0  0
   -1.4442    4.1026    3.9331 C   0  0  0  0  0  0  0  0  0  0  0  0
   -0.4931    2.4100    1.9475 C   0  0  0  0  0  0  0  0  0  0  0  0
    0.2092    1.3788    2.7932 C   0  0  1  0  0  0  0  0  0  0  0  0
   -0.6841    0.3083    3.1771 O   0  0  0  0  0  0  0  0  0  0  0  0
   -0.5000   -0.7930    2.3592 C   0  0  1  0  0  0  0  0  0  0  0  0
   -1.7563   -1.1076    1.6795 N   0  0  0  0  0  0  0  0  0  0  0  0
   -1.8980   -2.0202    0.6813 C   0  0  0  0  0  0  0  0  0  0  0  0
   -0.9482   -2.7515    0.0908 N   0  0  0  0  0  0  0  0  0  0  0  0
   -1.4444   -3.5385   -0.8502 C   0  0  0  0  0  0  0  0  0  0  0  0
   -2.7095   -3.6573   -1.2354 N   0  0  0  0  0  0  0  0  0  0  0  0
   -3.6515   -2.9139   -0.6404 C   0  0  0  0  0  0  0  0  0  0  0  0
   -4.9202   -3.0377   -1.0280 N   0  0  0  0  0  0  0  0  0  0  0  0
   -3.2511   -2.0359    0.3843 C   0  0  0  0  0  0  0  0  0  0  0  0
   -3.9300   -1.1555    1.1836 N   0  0  0  0  0  0  0  0  0  0  0  0
   -3.0091   -0.6299    1.9419 C   0  0  0  0  0  0  0  0  0  0  0  0
    0.6130   -0.4397    1.3501 C   0  0  2  0  0  0  0  0  0  0  0  0
    1.4421   -1.5061    1.0088 O   0  0  0  0  0  0  0  0  0  0  0  0
    1.3632    0.6490    2.1103 C   0  0  2  0  0  0  0  0  0  0  0  0
    2.2026    0.0979    3.0957 O   0  0  0  0  0  0  0  0  0  0  0  0
   -5.1597    4.5733   -0.4841 C   0  0  0  0  0  0  0  0  0  0  0  0
   -4.9164    5.7079   -0.8102 O   0  0  0  0  0  0  0  0  0  0  0  0
   -6.2457    4.2179    0.1854 O   0  0  0  0  0  0  0  0  0  0  0  0
   -7.1625    5.2467    0.5623 C   0  0  0  0  0  0  0  0  0  0  0  0
   -2.6864    4.5096   -1.4049 H   0  0  0  0  0  0  0  0  0  0  0  0
   -3.5488    3.8636   -2.6064 H   0  0  0  0  0  0  0  0  0  0  0  0
   -4.8812    2.6034   -1.2252 H   0  0  0  0  0  0  0  0  0  0  0  0
   -3.1597    1.8883    0.2911 H   0  0  0  0  0  0  0  0  0  0  0  0
   -4.5544    2.4841    1.1752 H   0  0  0  0  0  0  0  0  0  0  0  0
   -3.3382    4.6741    1.5803 H   0  0  0  0  0  0  0  0  0  0  0  0
   -1.9187    4.0089    0.7567 H   0  0  0  0  0  0  0  0  0  0  0  0
   -3.5970    3.5316    3.4261 H   0  0  0  0  0  0  0  0  0  0  0  0
   -0.4725    3.6901    4.1869 H   0  0  0  0  0  0  0  0  0  0  0  0
   -1.3070    5.0448    3.4072 H   0  0  0  0  0  0  0  0  0  0  0  0
   -2.0447    4.2677    4.8250 H   0  0  0  0  0  0  0  0  0  0  0  0
   -0.7559    2.0101    0.9623 H   0  0  0  0  0  0  0  0  0  0  0  0
    0.1603    3.2735    1.7933 H   0  0  0  0  0  0  0  0  0  0  0  0
    0.5620    1.8336    3.7248 H   0  0  0  0  0  0  0  0  0  0  0  0
   -0.2189   -1.6720    2.9508 H   0  0  0  0  0  0  0  0  0  0  0  0
   -0.7314   -4.1646   -1.3746 H   0  0  0  0  0  0  0  0  0  0  0  0
   -5.1585   -3.6355   -1.8008 H   0  0  0  0  0  0  0  0  0  0  0  0
   -5.6358   -2.4404   -0.6522 H   0  0  0  0  0  0  0  0  0  0  0  0
   -3.1804    0.1170    2.7012 H   0  0  0  0  0  0  0  0  0  0  0  0
    0.1540    0.0147    0.4616 H   0  0  0  0  0  0  0  0  0  0  0  0
    0.8743   -2.1637    0.5652 H   0  0  0  0  0  0  0  0  0  0  0  0
    1.9117    1.3151    1.4334 H   0  0  0  0  0  0  0  0  0  0  0  0
    2.7450   -0.5845    2.6852 H   0  0  0  0  0  0  0  0  0  0  0  0
   -7.5921    5.7351   -0.3119 H   0  0  0  0  0  0  0  0  0  0  0  0
   -6.6837    5.9949    1.1935 H   0  0  0  0  0  0  0  0  0  0  0  0
   -7.9501    4.7538    1.1240 H   0  0  0  0  0  0  0  0  0  0  0  0
  1  2  1  0
  1 29  1  0
  1 30  1  0
  2  3  1  0
  2 25  1  0
  2 31  1  6
  3  4  1  0
  3 32  1  0
  3 33  1  0
  4  5  1  0
  4 34  1  0
  4 35  1  0
  5  6  1  0
  5  7  1  0
  5 36  1  1
  6 37  1  0
  6 38  1  0
  6 39  1  0
  7  8  1  0
  7 40  1  0
  7 41  1  0
  8  9  1  0
  8 23  1  0
  8 42  1  1
  9 10  1  0
 10 11  1  0
 10 21  1  0
 10 43  1  1
 11 12  1  0
 11 20  1  0
 12 13  2  0
 12 18  1  0
 13 14  1  0
 14 15  2  0
 14 44  1  0
 15 16  1  0
 16 17  1  0
 16 18  2  0
 17 45  1  0
 17 46  1  0
 18 19  1  0
 19 20  2  0
 20 47  1  0
 21 22  1  0
 21 23  1  0
 21 48  1  6
 22 49  1  0
 23 24  1  0
 23 50  1  6
 24 51  1  0
 25 26  2  0
 25 27  1  0
 27 28  1  0
 28 52  1  0
 28 53  1  0
 28 54  1  0
M  END
