
     RDKit          3D

 48 50  0  0  0  0  0  0  0  0999 V2000
   -4.8042    1.9471   -0.7912 C   0  0  0  0  0  0  0  0  0  0  0  0
   -4.1900    0.5655   -0.7341 C   0  0  1  0  0  0  0  0  0  0  0  0
   -3.8001    2.9248   -0.6056 O   0  0  0  0  0  0  0  0  0  0  0  0
   -2.8611    2.6354    0.3145 C   0  0  0  0  0  0  0  0  0  0  0  0
   -2.6711    1.5221    0.8965 N   0  0  0  0  0  0  0  0  0  0  0  0
   -3.4485    0.3414    0.5906 C   0  0  2  0  0  0  0  0  0  0  0  0
   -2.4892   -0.8471    0.4482 C   0  0  0  0  0  0  0  0  0  0  0  0
   -1.1237   -0.6135    0.3564 C   0  0  0  0  0  0  0  0  0  0  0  0
   -0.1860   -1.6362    0.2143 C   0  0  0  0  0  0  0  0  0  0  0  0
   -0.6269   -2.9564    0.1615 C   0  0  0  0  0  0  0  0  0  0  0  0
   -1.9855   -3.2117    0.2476 C   0  0  0  0  0  0  0  0  0  0  0  0
   -2.8892   -2.1777    0.3815 C   0  0  0  0  0  0  0  0  0  0  0  0
   -4.1900   -2.5153    0.4462 F   0  0  0  0  0  0  0  0  0  0  0  0
   -2.0515    3.7034    0.5236 N   0  0  0  0  0  0  0  0  0  0  0  0
   -4.4302    0.1381    1.7544 C   0  0  0  0  0  0  0  0  0  0  0  0
    1.1521   -1.2458    0.1333 N   0  0  0  0  0  0  0  0  0  0  0  0
    2.2567   -2.0077   -0.0076 C   0  0  0  0  0  0  0  0  0  0  0  0
    3.5247   -1.2162   -0.0643 C   0  0  0  0  0  0  0  0  0  0  0  0
    2.2683   -3.2258   -0.0870 O   0  0  0  0  0  0  0  0  0  0  0  0
    3.4390    0.1008    0.0519 N   0  0  0  0  0  0  0  0  0  0  0  0
    4.5339    0.8402    0.0075 C   0  0  0  0  0  0  0  0  0  0  0  0
    5.8047    0.2796   -0.1635 C   0  0  0  0  0  0  0  0  0  0  0  0
    5.8946   -1.1070   -0.2871 C   0  0  0  0  0  0  0  0  0  0  0  0
    4.7437   -1.8641   -0.2355 C   0  0  0  0  0  0  0  0  0  0  0  0
    6.9413    0.9752   -0.2193 O   0  0  0  0  0  0  0  0  0  0  0  0
   -5.1688   -0.3494   -0.9503 F   0  0  0  0  0  0  0  0  0  0  0  0
   -3.3108    0.4388   -1.7697 F   0  0  0  0  0  0  0  0  0  0  0  0
    6.8980    2.3955   -0.0830 C   0  0  0  0  0  0  0  0  0  0  0  0
    8.3116    2.9139   -0.1816 C   0  0  0  0  0  0  0  0  0  0  0  0
   -5.2545    2.1276   -1.7675 H   0  0  0  0  0  0  0  0  0  0  0  0
   -5.5818    2.0464   -0.0297 H   0  0  0  0  0  0  0  0  0  0  0  0
   -2.4454    4.6222    0.3993 H   0  0  0  0  0  0  0  0  0  0  0  0
   -1.4233    3.6224    1.3058 H   0  0  0  0  0  0  0  0  0  0  0  0
   -5.0681   -0.7329    1.6484 H   0  0  0  0  0  0  0  0  0  0  0  0
   -3.8571    0.0335    2.6746 H   0  0  0  0  0  0  0  0  0  0  0  0
   -5.0705    1.0132    1.8704 H   0  0  0  0  0  0  0  0  0  0  0  0
   -0.7817    0.4119    0.4091 H   0  0  0  0  0  0  0  0  0  0  0  0
    0.0599   -3.7792    0.0565 H   0  0  0  0  0  0  0  0  0  0  0  0
    1.3321   -0.2504    0.1812 H   0  0  0  0  0  0  0  0  0  0  0  0
   -2.3473   -4.2310    0.2068 H   0  0  0  0  0  0  0  0  0  0  0  0
    4.7918   -2.9397   -0.3270 H   0  0  0  0  0  0  0  0  0  0  0  0
    4.3931    1.9090    0.1095 H   0  0  0  0  0  0  0  0  0  0  0  0
    6.8612   -1.5754   -0.4224 H   0  0  0  0  0  0  0  0  0  0  0  0
    6.2741    2.8276   -0.8716 H   0  0  0  0  0  0  0  0  0  0  0  0
    6.4542    2.6632    0.8809 H   0  0  0  0  0  0  0  0  0  0  0  0
    8.3047    3.9980   -0.0746 H   0  0  0  0  0  0  0  0  0  0  0  0
    8.9426    2.5036    0.6066 H   0  0  0  0  0  0  0  0  0  0  0  0
    8.7566    2.6749   -1.1474 H   0  0  0  0  0  0  0  0  0  0  0  0
  1  2  1  0
  1  3  1  0
  2  6  1  0
  2 26  1  6
  2 27  1  0
  3  4  1  0
  4  5  2  0
  4 14  1  0
  5  6  1  0
  6  7  1  0
  6 15  1  1
  7  8  2  0
  7 12  1  0
  8  9  1  0
  9 10  2  0
  9 16  1  0
 10 11  1  0
 11 12  2  0
 12 13  1  0
 16 17  1  0
 17 18  1  0
 17 19  2  0
 18 20  2  0
 18 24  1  0
 20 21  1  0
 21 22  2  0
 22 23  1  0
 22 25  1  0
 23 24  2  0
 25 28  1  0
 28 29  1  0
  1 30  1  0
  1 31  1  0
 14 32  1  0
 14 33  1  0
 15 34  1  0
 15 35  1  0
 15 36  1  0
  8 37  1  0
 10 38  1  0
 16 39  1  0
 11 40  1  0
 24 41  1  0
 21 42  1  0
 23 43  1  0
 28 44  1  0
 28 45  1  0
 29 46  1  0
 29 47  1  0
 29 48  1  0
M  END
