
     RDKit          3D

 54 56  0  0  0  0  0  0  0  0999 V2000
    6.0170   -0.4271    0.1392 C   0  0  0  0  0  0  0  0  0  0  0  0
    4.6328   -0.5556    0.0199 C   0  0  0  0  0  0  0  0  0  0  0  0
    3.8489    0.4721   -0.4956 C   0  0  0  0  0  0  0  0  0  0  0  0
    4.4765    1.6518   -0.8800 C   0  0  0  0  0  0  0  0  0  0  0  0
    5.8625    1.8022   -0.7742 C   0  0  0  0  0  0  0  0  0  0  0  0
    6.6243    0.7583   -0.2628 C   0  0  0  0  0  0  0  0  0  0  0  0
    6.6786   -1.4707    0.6429 O   0  0  0  0  0  0  0  0  0  0  0  0
    6.3721    2.9678   -1.1778 O   0  0  0  0  0  0  0  0  0  0  0  0
    8.0832   -1.3733    0.8133 C   0  0  0  0  0  0  0  0  0  0  0  0
    7.7713    3.1748   -1.0763 C   0  0  0  0  0  0  0  0  0  0  0  0
    3.9083   -2.0394    0.5298 Cl  0  0  0  0  0  0  0  0  0  0  0  0
    3.5762    2.9912   -1.5036 Cl  0  0  0  0  0  0  0  0  0  0  0  0
    2.3635    0.2925   -0.5909 C   0  0  0  0  0  0  0  0  0  0  0  0
    1.8519    0.3851    0.7292 O   0  0  0  0  0  0  0  0  0  0  0  0
    0.5510    0.0889    0.9118 C   0  0  0  0  0  0  0  0  0  0  0  0
    0.0857   -0.0190    2.2217 C   0  0  0  0  0  0  0  0  0  0  0  0
   -1.1717   -0.2914    2.5059 N   0  0  0  0  0  0  0  0  0  0  0  0
   -1.9962   -0.4649    1.4744 C   0  0  0  0  0  0  0  0  0  0  0  0
   -1.6615   -0.3907    0.1993 N   0  0  0  0  0  0  0  0  0  0  0  0
   -0.3927   -0.1152   -0.0833 C   0  0  0  0  0  0  0  0  0  0  0  0
   -3.3153   -0.7057    1.7826 N   0  0  0  0  0  0  0  0  0  0  0  0
   -4.2127   -1.1817    0.8092 C   0  0  0  0  0  0  0  0  0  0  0  0
   -5.1044   -0.2803    0.2017 C   0  0  0  0  0  0  0  0  0  0  0  0
   -6.0027   -0.7405   -0.7612 C   0  0  0  0  0  0  0  0  0  0  0  0
   -5.9898   -2.0820   -1.1010 C   0  0  0  0  0  0  0  0  0  0  0  0
   -5.1234   -2.9944   -0.5263 C   0  0  0  0  0  0  0  0  0  0  0  0
   -4.2391   -2.5157    0.4259 C   0  0  0  0  0  0  0  0  0  0  0  0
   -5.0260    1.0361    0.6233 N   0  0  0  0  0  0  0  0  0  0  0  0
   -5.6912    2.1380    0.1672 C   0  0  0  0  0  0  0  0  0  0  0  0
   -5.2856    3.4102    0.8786 C   0  0  0  0  0  0  0  0  0  0  0  0
   -6.0122    4.6433    0.3748 C   0  0  0  0  0  0  0  0  0  0  0  0
   -6.5193    2.1059   -0.7210 O   0  0  0  0  0  0  0  0  0  0  0  0
   -3.1298   -3.6117    1.1603 Cl  0  0  0  0  0  0  0  0  0  0  0  0
   -7.1099   -2.6406   -2.2948 Cl  0  0  0  0  0  0  0  0  0  0  0  0
    7.6957    0.8683   -0.1767 H   0  0  0  0  0  0  0  0  0  0  0  0
    8.5973   -1.2284   -0.1392 H   0  0  0  0  0  0  0  0  0  0  0  0
    8.3498   -0.5618    1.4936 H   0  0  0  0  0  0  0  0  0  0  0  0
    8.4021   -2.3173    1.2458 H   0  0  0  0  0  0  0  0  0  0  0  0
    7.9579    4.1745   -1.4582 H   0  0  0  0  0  0  0  0  0  0  0  0
    8.1120    3.1213   -0.0402 H   0  0  0  0  0  0  0  0  0  0  0  0
    8.3314    2.4551   -1.6772 H   0  0  0  0  0  0  0  0  0  0  0  0
    1.9165    1.0523   -1.2341 H   0  0  0  0  0  0  0  0  0  0  0  0
    2.1312   -0.6846   -1.0261 H   0  0  0  0  0  0  0  0  0  0  0  0
    0.7666    0.1230    3.0548 H   0  0  0  0  0  0  0  0  0  0  0  0
   -0.1437   -0.0579   -1.1369 H   0  0  0  0  0  0  0  0  0  0  0  0
   -3.4965   -0.9541    2.7447 H   0  0  0  0  0  0  0  0  0  0  0  0
   -6.6977   -0.0705   -1.2379 H   0  0  0  0  0  0  0  0  0  0  0  0
   -5.1290   -4.0368   -0.8099 H   0  0  0  0  0  0  0  0  0  0  0  0
   -4.3674    1.1812    1.3771 H   0  0  0  0  0  0  0  0  0  0  0  0
   -5.4569    3.2756    1.9508 H   0  0  0  0  0  0  0  0  0  0  0  0
   -4.2041    3.5338    0.7680 H   0  0  0  0  0  0  0  0  0  0  0  0
   -7.0884    4.5662    0.5235 H   0  0  0  0  0  0  0  0  0  0  0  0
   -5.6645    5.5220    0.9164 H   0  0  0  0  0  0  0  0  0  0  0  0
   -5.8298    4.8124   -0.6857 H   0  0  0  0  0  0  0  0  0  0  0  0
 31 30  1  0
 30 29  1  0
 32 29  2  0
 29 28  1  0
 12  4  1  0
 28 23  1  0
  8 10  1  0
  8  5  1  0
 20 19  2  0
 20 15  1  0
 14 15  1  0
 14 13  1  0
  5  4  2  0
  5  6  1  0
  4  3  1  0
 19 18  1  0
 15 16  2  0
 23 24  2  0
 23 22  1  0
 18 21  1  0
 18 17  2  0
 13  3  1  0
 16 17  1  0
 24 25  1  0
  6  1  2  0
  3  2  2  0
 21 22  1  0
 22 27  2  0
  1  2  1  0
  1  7  1  0
  2 11  1  0
  9  7  1  0
 25 34  1  0
 25 26  2  0
 27 26  1  0
 27 33  1  0
  6 35  1  0
  9 36  1  0
  9 37  1  0
  9 38  1  0
 10 39  1  0
 10 40  1  0
 10 41  1  0
 13 42  1  0
 13 43  1  0
 16 44  1  0
 20 45  1  0
 21 46  1  0
 24 47  1  0
 26 48  1  0
 28 49  1  0
 30 50  1  0
 30 51  1  0
 31 52  1  0
 31 53  1  0
 31 54  1  0
M  END
