
     RDKit          3D

 40 44  0  0  0  0  0  0  0  0999 V2000
   -5.5713   -1.4001    1.8171 F   0  0  0  0  0  0  0  0  0  0  0  0
   -5.1716   -0.6629    0.7767 C   0  0  0  0  0  0  0  0  0  0  0  0
   -3.9954    0.0589    0.8836 C   0  0  0  0  0  0  0  0  0  0  0  0
   -3.2942   -0.0083    2.0171 F   0  0  0  0  0  0  0  0  0  0  0  0
   -5.9194   -0.6240   -0.3810 C   0  0  0  0  0  0  0  0  0  0  0  0
   -5.4744    0.1536   -1.4421 C   0  0  0  0  0  0  0  0  0  0  0  0
   -4.2957    0.8755   -1.3377 C   0  0  0  0  0  0  0  0  0  0  0  0
   -3.5378    0.8366   -0.1683 C   0  0  0  0  0  0  0  0  0  0  0  0
   -2.2819    1.5828   -0.0331 C   0  0  0  0  0  0  0  0  0  0  0  0
   -1.0013    1.1295   -0.1740 C   0  0  0  0  0  0  0  0  0  0  0  0
   -0.1584    2.1425    0.0405 O   0  0  0  0  0  0  0  0  0  0  0  0
   -0.8526    3.2831    0.3277 N   0  0  0  0  0  0  0  0  0  0  0  0
   -2.1065    2.9499    0.2817 C   0  0  0  0  0  0  0  0  0  0  0  0
   -0.4343   -0.1528   -0.4859 C   0  0  0  0  0  0  0  0  0  0  0  0
   -1.1397   -1.2727   -0.8635 C   0  0  0  0  0  0  0  0  0  0  0  0
   -0.2901   -2.3045   -1.0754 N   0  0  0  0  0  0  0  0  0  0  0  0
    0.9890   -1.8972   -0.8438 C   0  0  0  0  0  0  0  0  0  0  0  0
    0.9492   -0.5370   -0.4698 C   0  0  0  0  0  0  0  0  0  0  0  0
    2.0681   -2.6504   -0.9527 N   0  0  0  0  0  0  0  0  0  0  0  0
    3.2083   -2.0489   -0.6675 C   0  0  0  0  0  0  0  0  0  0  0  0
    3.3188   -0.7021   -0.2757 C   0  0  0  0  0  0  0  0  0  0  0  0
    2.1667    0.0698   -0.1826 C   0  0  0  0  0  0  0  0  0  0  0  0
    4.6426   -0.1288    0.0218 C   0  0  0  0  0  0  0  0  0  0  0  0
    4.9544    1.1899   -0.3062 C   0  0  0  0  0  0  0  0  0  0  0  0
    6.2109    1.6844    0.0019 C   0  0  0  0  0  0  0  0  0  0  0  0
    7.1580    0.9697    0.5990 N   0  0  0  0  0  0  0  0  0  0  0  0
    6.8626   -0.2866    0.9120 C   0  0  0  0  0  0  0  0  0  0  0  0
    5.6363   -0.8766    0.6518 C   0  0  0  0  0  0  0  0  0  0  0  0
   -6.8348   -1.1971   -0.4485 H   0  0  0  0  0  0  0  0  0  0  0  0
   -6.0525    0.1887   -2.3548 H   0  0  0  0  0  0  0  0  0  0  0  0
   -3.9486    1.4761   -2.1678 H   0  0  0  0  0  0  0  0  0  0  0  0
   -2.8710    3.6874    0.4780 H   0  0  0  0  0  0  0  0  0  0  0  0
   -2.1999   -1.4023   -1.0067 H   0  0  0  0  0  0  0  0  0  0  0  0
   -0.5658   -3.2346   -1.3497 H   0  0  0  0  0  0  0  0  0  0  0  0
    4.1046   -2.6504   -0.7696 H   0  0  0  0  0  0  0  0  0  0  0  0
    2.2298    1.1052    0.1237 H   0  0  0  0  0  0  0  0  0  0  0  0
    4.2377    1.8216   -0.8142 H   0  0  0  0  0  0  0  0  0  0  0  0
    6.4631    2.7075   -0.2538 H   0  0  0  0  0  0  0  0  0  0  0  0
    7.6410   -0.8594    1.4037 H   0  0  0  0  0  0  0  0  0  0  0  0
    5.4574   -1.8981    0.9600 H   0  0  0  0  0  0  0  0  0  0  0  0
  5  6  1  0
  5  2  2  0
  1  2  1  0
  6  7  2  0
  2  3  1  0
  7  8  1  0
  3  8  2  0
  3  4  1  0
  8  9  1  0
 16 15  1  0
 16 17  1  0
 15 14  2  0
  9 10  2  0
  9 13  1  0
 17 19  2  0
 17 18  1  0
 14 10  1  0
 14 18  1  0
 19 20  1  0
 10 11  1  0
 18 22  2  0
 13 12  2  0
 20 21  2  0
 22 21  1  0
 11 12  1  0
 21 23  1  0
 24 23  2  0
 24 25  1  0
 23 28  1  0
 25 26  2  0
 28 27  2  0
 26 27  1  0
  5 29  1  0
  6 30  1  0
  7 31  1  0
 13 32  1  0
 15 33  1  0
 16 34  1  0
 20 35  1  0
 22 36  1  0
 24 37  1  0
 25 38  1  0
 27 39  1  0
 28 40  1  0
M  END
