
     RDKit          3D

 87 90  0  0  0  0  0  0  0  0999 V2000
   -4.9895    2.5349    2.6985 C   0  0  0  0  0  0  0  0  0  0  0  0
   -6.1181    3.2514    1.9816 C   0  0  0  0  0  0  0  0  0  0  0  0
   -5.5984    4.1103    0.9364 N   0  0  0  0  0  0  0  0  0  0  0  0
   -6.6504    4.8440    0.2726 C   0  0  0  0  0  0  0  0  0  0  0  0
   -4.8143    3.3342   -0.0029 C   0  0  0  0  0  0  0  0  0  0  0  0
   -3.6921    2.6052    0.7083 C   0  0  0  0  0  0  0  0  0  0  0  0
   -4.2193    1.7513    1.7534 N   0  0  0  0  0  0  0  0  0  0  0  0
   -3.1857    0.9642    2.3842 C   0  0  0  0  0  0  0  0  0  0  0  0
   -2.6567   -0.1069    1.4658 C   0  0  0  0  0  0  0  0  0  0  0  0
   -1.2928   -0.3359    1.3390 C   0  0  0  0  0  0  0  0  0  0  0  0
   -0.8163   -1.3497    0.5201 C   0  0  0  0  0  0  0  0  0  0  0  0
   -3.5392   -0.9176    0.7526 C   0  0  0  0  0  0  0  0  0  0  0  0
   -3.0695   -1.9445   -0.0466 C   0  0  0  0  0  0  0  0  0  0  0  0
   -1.6995   -2.1616   -0.1828 C   0  0  0  0  0  0  0  0  0  0  0  0
   -1.2174   -3.3066   -1.0114 C   0  0  0  0  0  0  0  0  0  0  0  0
   -1.8136   -4.3751   -1.0247 O   0  0  0  0  0  0  0  0  0  0  0  0
   -0.0901   -3.0748   -1.7062 N   0  0  0  0  0  0  0  0  0  0  0  0
    0.6142   -4.0892   -2.4531 C   0  0  0  0  0  0  0  0  0  0  0  0
    2.1104   -3.9267   -2.3397 C   0  0  0  0  0  0  0  0  0  0  0  0
    2.6904   -3.4181   -1.1820 C   0  0  0  0  0  0  0  0  0  0  0  0
    2.9314   -4.3026   -3.3969 C   0  0  0  0  0  0  0  0  0  0  0  0
    4.3094   -4.1727   -3.2910 C   0  0  0  0  0  0  0  0  0  0  0  0
    4.8756   -3.6417   -2.1414 C   0  0  0  0  0  0  0  0  0  0  0  0
    4.0667   -3.2536   -1.0775 C   0  0  0  0  0  0  0  0  0  0  0  0
    4.6920   -2.6656    0.1594 C   0  0  0  0  0  0  0  0  0  0  0  0
    3.7494   -1.8632    0.8220 O   0  0  0  0  0  0  0  0  0  0  0  0
    4.2690   -0.9187    1.7337 C   0  0  2  0  0  0  0  0  0  0  0  0
    4.5860   -1.5134    3.1019 C   0  0  0  0  0  0  0  0  0  0  0  0
    3.2451   -1.5528    3.8694 C   0  0  0  0  0  0  0  0  0  0  0  0
    2.2460   -0.7449    3.0227 C   0  0  0  0  0  0  0  0  0  0  0  0
    3.1226    0.0442    2.0443 C   0  0  2  0  0  0  0  0  0  0  0  0
    2.4531    0.4795    0.8420 N   0  0  0  0  0  0  0  0  0  0  0  0
    1.8492    1.6667    0.7113 C   0  0  0  0  0  0  0  0  0  0  0  0
    1.8088    2.5078    1.5941 O   0  0  0  0  0  0  0  0  0  0  0  0
    1.2121    1.9274   -0.6331 C   0  0  0  0  0  0  0  0  0  0  0  0
    1.1227    0.8192   -1.5228 C   0  0  0  0  0  0  0  0  0  0  0  0
    1.0800   -0.1495   -2.1475 N   0  0  0  0  0  0  0  0  0  0  0  0
    0.7554    3.1586   -0.9063 C   0  0  0  0  0  0  0  0  0  0  0  0
    0.1176    3.7537   -2.1215 C   0  0  1  0  0  0  0  0  0  0  0  0
    0.0143    2.8385   -3.3360 C   0  0  0  0  0  0  0  0  0  0  0  0
   -1.2902    4.2027   -1.6987 C   0  0  0  0  0  0  0  0  0  0  0  0
    0.9560    4.9903   -2.4840 C   0  0  0  0  0  0  0  0  0  0  0  0
   -4.3644    3.2760    3.2250 H   0  0  0  0  0  0  0  0  0  0  0  0
   -5.4126    1.8704    3.4554 H   0  0  0  0  0  0  0  0  0  0  0  0
   -6.8195    2.4998    1.5785 H   0  0  0  0  0  0  0  0  0  0  0  0
   -6.6748    3.8581    2.7000 H   0  0  0  0  0  0  0  0  0  0  0  0
   -7.2121    5.4331    0.9991 H   0  0  0  0  0  0  0  0  0  0  0  0
   -6.2230    5.5322   -0.4587 H   0  0  0  0  0  0  0  0  0  0  0  0
   -7.3658    4.1942   -0.2556 H   0  0  0  0  0  0  0  0  0  0  0  0
   -5.4361    2.5976   -0.5412 H   0  0  0  0  0  0  0  0  0  0  0  0
   -4.3875    4.0045   -0.7536 H   0  0  0  0  0  0  0  0  0  0  0  0
   -3.1474    1.9948   -0.0155 H   0  0  0  0  0  0  0  0  0  0  0  0
   -2.9759    3.3403    1.1159 H   0  0  0  0  0  0  0  0  0  0  0  0
   -2.3477    1.5801    2.7515 H   0  0  0  0  0  0  0  0  0  0  0  0
   -3.6160    0.4800    3.2669 H   0  0  0  0  0  0  0  0  0  0  0  0
   -0.5938    0.2762    1.8974 H   0  0  0  0  0  0  0  0  0  0  0  0
    0.2505   -1.5224    0.4578 H   0  0  0  0  0  0  0  0  0  0  0  0
   -4.6037   -0.7369    0.8302 H   0  0  0  0  0  0  0  0  0  0  0  0
   -3.7704   -2.5751   -0.5785 H   0  0  0  0  0  0  0  0  0  0  0  0
    0.2338   -2.1218   -1.8104 H   0  0  0  0  0  0  0  0  0  0  0  0
    0.3153   -5.0644   -2.0654 H   0  0  0  0  0  0  0  0  0  0  0  0
    0.3228   -4.0726   -3.5077 H   0  0  0  0  0  0  0  0  0  0  0  0
    2.0559   -3.1381   -0.3520 H   0  0  0  0  0  0  0  0  0  0  0  0
    2.4946   -4.6900   -4.3096 H   0  0  0  0  0  0  0  0  0  0  0  0
    4.9428   -4.4641   -4.1189 H   0  0  0  0  0  0  0  0  0  0  0  0
    5.9499   -3.5129   -2.0791 H   0  0  0  0  0  0  0  0  0  0  0  0
    5.0533   -3.4720    0.8118 H   0  0  0  0  0  0  0  0  0  0  0  0
    5.5745   -2.0788   -0.1273 H   0  0  0  0  0  0  0  0  0  0  0  0
    5.1312   -0.4049    1.2893 H   0  0  0  0  0  0  0  0  0  0  0  0
    5.0628   -2.4917    3.0253 H   0  0  0  0  0  0  0  0  0  0  0  0
    5.2981   -0.8586    3.6072 H   0  0  0  0  0  0  0  0  0  0  0  0
    2.8937   -2.5742    4.0117 H   0  0  0  0  0  0  0  0  0  0  0  0
    3.3622   -1.1210    4.8632 H   0  0  0  0  0  0  0  0  0  0  0  0
    1.5885   -1.4144    2.4646 H   0  0  0  0  0  0  0  0  0  0  0  0
    1.6102   -0.0896    3.6176 H   0  0  0  0  0  0  0  0  0  0  0  0
    3.5419    0.9168    2.5492 H   0  0  0  0  0  0  0  0  0  0  0  0
    2.4755   -0.1707    0.0705 H   0  0  0  0  0  0  0  0  0  0  0  0
    0.8720    3.8671   -0.0905 H   0  0  0  0  0  0  0  0  0  0  0  0
   -0.6354    1.9822   -3.1563 H   0  0  0  0  0  0  0  0  0  0  0  0
   -0.4189    3.3996   -4.1650 H   0  0  0  0  0  0  0  0  0  0  0  0
    0.9889    2.4754   -3.6634 H   0  0  0  0  0  0  0  0  0  0  0  0
   -1.2652    4.8680   -0.8345 H   0  0  0  0  0  0  0  0  0  0  0  0
   -1.7707    4.7350   -2.5209 H   0  0  0  0  0  0  0  0  0  0  0  0
   -1.9131    3.3440   -1.4467 H   0  0  0  0  0  0  0  0  0  0  0  0
    1.9741    4.7128   -2.7601 H   0  0  0  0  0  0  0  0  0  0  0  0
    0.5048    5.5043   -3.3344 H   0  0  0  0  0  0  0  0  0  0  0  0
    1.0097    5.6983   -1.6553 H   0  0  0  0  0  0  0  0  0  0  0  0
 29 28  1  0
 29 30  1  0
 28 27  1  0
 30 31  1  0
 27 31  1  0
 27 26  1  0
 31 32  1  0
 26 25  1  0
 25 24  1  0
 23 24  1  0
 23 22  2  0
 32 33  1  0
 24 20  2  0
 22 21  1  0
 33 34  2  0
 33 35  1  0
 20 19  1  0
 21 19  2  0
 37 36  3  0
 36 35  1  0
 35 38  2  0
 19 18  1  0
 39 38  1  1
 18 17  1  0
 17 15  1  0
 39 41  1  0
 39 42  1  0
 39 40  1  0
 16 15  2  0
 15 14  1  0
 14 13  2  0
 14 11  1  0
 13 12  1  0
 11 10  2  0
 12  9  2  0
 10  9  1  0
  9  8  1  0
  8  7  1  0
  7  1  1  0
  7  6  1  0
  1  2  1  0
  6  5  1  0
  2  3  1  0
  5  3  1  0
  3  4  1  0
  1 43  1  0
  1 44  1  0
  2 45  1  0
  2 46  1  0
  4 47  1  0
  4 48  1  0
  4 49  1  0
  5 50  1  0
  5 51  1  0
  6 52  1  0
  6 53  1  0
  8 54  1  0
  8 55  1  0
 10 56  1  0
 11 57  1  0
 12 58  1  0
 13 59  1  0
 17 60  1  0
 18 61  1  0
 18 62  1  0
 20 63  1  0
 21 64  1  0
 22 65  1  0
 23 66  1  0
 25 67  1  0
 25 68  1  0
 27 69  1  6
 28 70  1  0
 28 71  1  0
 29 72  1  0
 29 73  1  0
 30 74  1  0
 30 75  1  0
 31 76  1  1
 32 77  1  0
 38 78  1  0
 40 79  1  0
 40 80  1  0
 40 81  1  0
 41 82  1  0
 41 83  1  0
 41 84  1  0
 42 85  1  0
 42 86  1  0
 42 87  1  0
M  END
