
     RDKit          3D

 52 53  0  0  0  0  0  0  0  0999 V2000
   -5.4184   -1.3938   -3.0041 C   0  0  0  0  0  0  0  0  0  0  0  0
   -1.5768   -2.8517   -1.4042 C   0  0  0  0  0  0  0  0  0  0  0  0
   -3.1335   -1.5801   -0.1813 C   0  0  0  0  0  0  0  0  0  0  0  0
   -4.1195   -1.0737   -1.0470 C   0  0  0  0  0  0  0  0  0  0  0  0
   -4.7091    0.1588   -0.7861 C   0  0  0  0  0  0  0  0  0  0  0  0
   -3.3564    0.3736    1.2086 C   0  0  0  0  0  0  0  0  0  0  0  0
    8.1518    0.1984   -1.3420 C   0  0  0  0  0  0  0  0  0  0  0  0
    6.9851    0.5597   -0.4351 C   0  0  0  0  0  0  0  0  0  0  0  0
    5.9649   -0.5675   -0.3906 C   0  0  0  0  0  0  0  0  0  0  0  0
    4.7831   -0.2690    0.5130 C   0  0  0  0  0  0  0  0  0  0  0  0
    0.5478   -2.2173    2.0285 C   0  0  0  0  0  0  0  0  0  0  0  0
    1.8764   -2.3398    1.2993 C   0  0  0  0  0  0  0  0  0  0  0  0
    2.4747   -0.9608    1.0527 C   0  0  2  0  0  0  0  0  0  0  0  0
    0.1372   -0.0505    1.0914 C   0  0  0  0  0  0  0  0  0  0  0  0
    1.4565   -0.0788    0.3364 C   0  0  0  0  0  0  0  0  0  0  0  0
   -4.3139    0.8627    0.3432 C   0  0  0  0  0  0  0  0  0  0  0  0
   -4.4397   -1.8521   -2.0914 O   0  0  0  0  0  0  0  0  0  0  0  0
   -2.7521   -0.8548    0.9407 C   0  0  0  0  0  0  0  0  0  0  0  0
   -1.7025   -1.3923    1.8778 C   0  0  0  0  0  0  0  0  0  0  0  0
   -0.3810   -1.3911    1.2826 N   0  0  0  0  0  0  0  0  0  0  0  0
    4.8157    0.6053    1.3683 O   0  0  0  0  0  0  0  0  0  0  0  0
    9.3494    1.5746   -1.3405 S   0  0  0  0  0  0  0  0  0  0  0  0
   -5.1203   -0.4592   -3.4856 H   0  0  0  0  0  0  0  0  0  0  0  0
   -5.5148   -2.1647   -3.7640 H   0  0  0  0  0  0  0  0  0  0  0  0
   -6.3888   -1.2507   -2.5222 H   0  0  0  0  0  0  0  0  0  0  0  0
   -1.8964   -2.4228   -2.3556 H   0  0  0  0  0  0  0  0  0  0  0  0
   -0.6876   -2.3319   -1.0449 H   0  0  0  0  0  0  0  0  0  0  0  0
   -1.3366   -3.9019   -1.5617 H   0  0  0  0  0  0  0  0  0  0  0  0
   -5.4662    0.5637   -1.4434 H   0  0  0  0  0  0  0  0  0  0  0  0
   -3.0534    0.9299    2.0860 H   0  0  0  0  0  0  0  0  0  0  0  0
    8.6445   -0.7080   -0.9890 H   0  0  0  0  0  0  0  0  0  0  0  0
    7.8057    0.0228   -2.3608 H   0  0  0  0  0  0  0  0  0  0  0  0
    7.3539    0.7680    0.5709 H   0  0  0  0  0  0  0  0  0  0  0  0
    6.5128    1.4757   -0.7976 H   0  0  0  0  0  0  0  0  0  0  0  0
    5.6062   -0.7944   -1.3984 H   0  0  0  0  0  0  0  0  0  0  0  0
    6.4375   -1.4862   -0.0274 H   0  0  0  0  0  0  0  0  0  0  0  0
    0.1089   -3.2092    2.1573 H   0  0  0  0  0  0  0  0  0  0  0  0
    0.7280   -1.8174    3.0427 H   0  0  0  0  0  0  0  0  0  0  0  0
    2.5623   -2.9511    1.8899 H   0  0  0  0  0  0  0  0  0  0  0  0
    1.7155   -2.8517    0.3449 H   0  0  0  0  0  0  0  0  0  0  0  0
    2.7049   -0.5084    2.0207 H   0  0  0  0  0  0  0  0  0  0  0  0
    0.2753    0.4682    2.0579 H   0  0  0  0  0  0  0  0  0  0  0  0
   -0.5882    0.5352    0.5236 H   0  0  0  0  0  0  0  0  0  0  0  0
    1.8445    0.9373    0.2356 H   0  0  0  0  0  0  0  0  0  0  0  0
    1.2865   -0.4649   -0.6736 H   0  0  0  0  0  0  0  0  0  0  0  0
   -1.7334   -0.8096    2.8135 H   0  0  0  0  0  0  0  0  0  0  0  0
   -1.9521   -2.4211    2.1463 H   0  0  0  0  0  0  0  0  0  0  0  0
    3.7461   -1.7167   -0.4518 H   0  0  0  0  0  0  0  0  0  0  0  0
   10.2533    1.0333   -2.1642 H   0  0  0  0  0  0  0  0  0  0  0  0
   -2.6103   -2.8072   -0.4237 O   0  0  0  0  0  0  0  0  0  0  0  0
   -5.1176    2.5373    0.6985 Br  0  0  0  0  0  0  0  0  0  0  0  0
    3.7174   -1.0651    0.3172 N   0  0  0  0  0  0  0  0  0  0  0  0
  1 17  1  0
  2 50  1  0
  3  4  2  0
  3 50  1  0
  3 18  1  0
  4  5  1  0
  4 17  1  0
  5 16  2  0
  6 16  1  0
  6 18  2  0
  7  8  1  0
  7 22  1  0
  8  9  1  0
  9 10  1  0
 10 52  1  0
 10 21  2  0
 11 12  1  0
 11 20  1  0
 12 13  1  0
 13 15  1  0
 13 52  1  0
 14 15  1  0
 14 20  1  0
 51 16  1  0
 18 19  1  0
 19 20  1  0
  1 23  1  0
  1 24  1  0
  1 25  1  0
  2 26  1  0
  2 27  1  0
  2 28  1  0
  5 29  1  0
  6 30  1  0
  7 31  1  0
  7 32  1  0
  8 33  1  0
  8 34  1  0
  9 35  1  0
  9 36  1  0
 11 37  1  0
 11 38  1  0
 12 39  1  0
 12 40  1  0
 13 41  1  1
 14 42  1  0
 14 43  1  0
 15 44  1  0
 15 45  1  0
 19 46  1  0
 19 47  1  0
 52 48  1  0
 22 49  1  0
M  END
