
     RDKit          3D

 24 25  0  0  0  0  0  0  0  0999 V2000
    6.2292   -1.0560   -1.7481 O   0  0  0  0  0  0  0  0  0  0  0  0
   -0.6673    2.7584   -0.1535 Br  0  0  0  0  0  0  0  0  0  0  0  0
   -2.7615   -2.5388   -0.0315 Br  0  0  0  0  0  0  0  0  0  0  0  0
    2.3386    1.5889    0.4003 Br  0  0  0  0  0  0  0  0  0  0  0  0
    5.6478   -1.1471   -0.4680 C   0  0  0  0  0  0  0  0  0  0  0  0
    4.1670   -1.4330   -0.6371 C   0  0  0  0  0  0  0  0  0  0  0  0
    3.4966   -1.5952    0.7182 C   0  0  0  0  0  0  0  0  0  0  0  0
    0.3506   -3.0802    0.4476 N   0  0  0  0  0  0  0  0  0  0  0  0
    1.6111   -3.0535    0.6249 N   0  0  0  0  0  0  0  0  0  0  0  0
   -1.5250    0.0464   -0.0653 C   0  0  0  0  0  0  0  0  0  0  0  0
   -0.4030    0.9169    0.0301 C   0  0  0  0  0  0  0  0  0  0  0  0
   -1.3632   -1.3157    0.0675 C   0  0  0  0  0  0  0  0  0  0  0  0
    0.8765    0.4367    0.2573 C   0  0  0  0  0  0  0  0  0  0  0  0
   -0.0740   -1.8018    0.2889 C   0  0  0  0  0  0  0  0  0  0  0  0
    1.0279   -0.9507    0.3815 C   0  0  0  0  0  0  0  0  0  0  0  0
    2.0614   -1.8057    0.6009 N   0  0  0  0  0  0  0  0  0  0  0  0
    7.1670   -0.8748   -1.6391 H   0  0  0  0  0  0  0  0  0  0  0  0
    6.1084   -1.9460    0.1280 H   0  0  0  0  0  0  0  0  0  0  0  0
    5.7739   -0.2154    0.0998 H   0  0  0  0  0  0  0  0  0  0  0  0
    3.7020   -0.6203   -1.2005 H   0  0  0  0  0  0  0  0  0  0  0  0
    4.0308   -2.3496   -1.2166 H   0  0  0  0  0  0  0  0  0  0  0  0
    3.8807   -2.4743    1.2334 H   0  0  0  0  0  0  0  0  0  0  0  0
    3.6730   -0.7433    1.3708 H   0  0  0  0  0  0  0  0  0  0  0  0
   -3.2325    0.7442   -0.3678 Br  0  0  0  0  0  0  0  0  0  0  0  0
  1  5  1  0
 24 10  1  0
  2 11  1  0
  3 12  1  0
  4 13  1  0
  5  6  1  0
  6  7  1  0
  7 16  1  0
  8  9  2  0
  8 14  1  0
  9 16  1  0
 10 11  2  0
 10 12  1  0
 11 13  1  0
 12 14  2  0
 13 15  2  0
 14 15  1  0
 15 16  1  0
  1 17  1  0
  5 18  1  0
  5 19  1  0
  6 20  1  0
  6 21  1  0
  7 22  1  0
  7 23  1  0
M  END
