
     RDKit          3D

 55 57  0  0  0  0  0  0  0  0999 V2000
    1.2072    3.2918    0.4008 C   0  0  0  0  0  0  0  0  0  0  0  0
    0.6232    4.4463   -0.1060 C   0  0  0  0  0  0  0  0  0  0  0  0
   -0.5831    4.3719   -0.8165 C   0  0  0  0  0  0  0  0  0  0  0  0
   -1.2180    3.1560   -1.0330 C   0  0  0  0  0  0  0  0  0  0  0  0
    0.7321    6.8087   -0.3510 C   0  0  0  0  0  0  0  0  0  0  0  0
    0.9039    0.7388    0.5993 C   0  0  0  0  0  0  0  0  0  0  0  0
   -0.0707   -0.0916    0.1486 C   0  0  0  0  0  0  0  0  0  0  0  0
    3.5685    0.7227   -0.5571 O   0  0  0  0  0  0  0  0  0  0  0  0
    3.2605   -0.0220    0.3612 C   0  0  0  0  0  0  0  0  0  0  0  0
    3.8549   -1.1997    0.6091 N   0  0  0  0  0  0  0  0  0  0  0  0
    4.9330   -1.7737   -0.1719 C   0  0  1  0  0  0  0  0  0  0  0  0
    6.1771   -1.9889    0.6913 C   0  0  0  0  0  0  0  0  0  0  0  0
    6.7586   -0.6899    1.2290 C   0  0  0  0  0  0  0  0  0  0  0  0
    4.4597   -3.0454   -0.8579 C   0  0  0  0  0  0  0  0  0  0  0  0
    4.0797   -3.9831    0.1238 O   0  0  0  0  0  0  0  0  0  0  0  0
    2.1437    0.3404    1.3283 C   0  0  0  0  0  0  0  0  0  0  0  0
    0.5713    2.0749    0.1930 C   0  0  0  0  0  0  0  0  0  0  0  0
   -0.0657   -1.5799    0.2165 C   0  0  0  0  0  0  0  0  0  0  0  0
   -1.0420    0.6700   -0.5253 N   0  0  0  0  0  0  0  0  0  0  0  0
   -0.6295    2.0083   -0.5263 C   0  0  0  0  0  0  0  0  0  0  0  0
    1.2851    5.6007    0.1273 O   0  0  0  0  0  0  0  0  0  0  0  0
   -2.6295    0.7994   -2.1343 O   0  0  0  0  0  0  0  0  0  0  0  0
   -2.8812   -0.9570   -0.5961 C   0  0  0  0  0  0  0  0  0  0  0  0
   -3.1018   -1.0587    0.7740 C   0  0  0  0  0  0  0  0  0  0  0  0
   -3.8523   -2.1039    1.2870 C   0  0  0  0  0  0  0  0  0  0  0  0
   -4.3625   -3.0561    0.4176 C   0  0  0  0  0  0  0  0  0  0  0  0
   -5.2787   -4.3767    1.0529 Cl  0  0  0  0  0  0  0  0  0  0  0  0
   -4.1558   -2.9694   -0.9521 C   0  0  0  0  0  0  0  0  0  0  0  0
   -3.4295   -1.9045   -1.4557 C   0  0  0  0  0  0  0  0  0  0  0  0
    2.1372    3.3486    0.9538 H   0  0  0  0  0  0  0  0  0  0  0  0
   -1.0458    5.2623   -1.2186 H   0  0  0  0  0  0  0  0  0  0  0  0
   -2.1404    3.1388   -1.5925 H   0  0  0  0  0  0  0  0  0  0  0  0
    1.4078    7.6021   -0.0402 H   0  0  0  0  0  0  0  0  0  0  0  0
    0.6545    6.8227   -1.4416 H   0  0  0  0  0  0  0  0  0  0  0  0
   -0.2563    7.0047    0.0732 H   0  0  0  0  0  0  0  0  0  0  0  0
    3.5096   -1.7540    1.3766 H   0  0  0  0  0  0  0  0  0  0  0  0
    5.1761   -1.0590   -0.9604 H   0  0  0  0  0  0  0  0  0  0  0  0
    6.9262   -2.5015    0.0817 H   0  0  0  0  0  0  0  0  0  0  0  0
    5.9438   -2.6649    1.5181 H   0  0  0  0  0  0  0  0  0  0  0  0
    7.6494   -0.8800    1.8279 H   0  0  0  0  0  0  0  0  0  0  0  0
    7.0441   -0.0198    0.4160 H   0  0  0  0  0  0  0  0  0  0  0  0
    6.0444   -0.1603    1.8608 H   0  0  0  0  0  0  0  0  0  0  0  0
    3.6229   -2.7974   -1.5219 H   0  0  0  0  0  0  0  0  0  0  0  0
    5.2738   -3.4244   -1.4897 H   0  0  0  0  0  0  0  0  0  0  0  0
    3.6036   -4.6976   -0.3075 H   0  0  0  0  0  0  0  0  0  0  0  0
    1.9462   -0.4677    2.0343 H   0  0  0  0  0  0  0  0  0  0  0  0
    2.4989    1.1822    1.9289 H   0  0  0  0  0  0  0  0  0  0  0  0
   -0.7046   -1.9772    1.0046 H   0  0  0  0  0  0  0  0  0  0  0  0
   -0.3750   -2.0393   -0.7217 H   0  0  0  0  0  0  0  0  0  0  0  0
    0.9477   -1.9209    0.4203 H   0  0  0  0  0  0  0  0  0  0  0  0
   -2.7010   -0.3173    1.4538 H   0  0  0  0  0  0  0  0  0  0  0  0
   -4.0335   -2.1743    2.3505 H   0  0  0  0  0  0  0  0  0  0  0  0
   -4.5609   -3.7182   -1.6185 H   0  0  0  0  0  0  0  0  0  0  0  0
   -3.2737   -1.8270   -2.5237 H   0  0  0  0  0  0  0  0  0  0  0  0
   -2.1823    0.2179   -1.1708 C   0  0  0  0  0  0  0  0  0  0  0  0
  1  2  2  0
  1 17  1  0
  1 30  1  0
  2  3  1  0
  2 21  1  0
  3  4  2  0
  3 31  1  0
  4 20  1  0
  4 32  1  0
  5 21  1  0
  5 33  1  0
  5 34  1  0
  5 35  1  0
  6  7  2  0
  6 16  1  0
  6 17  1  0
  7 18  1  0
  7 19  1  0
 55 19  1  0
 55 22  2  0
 55 23  1  0
  8  9  2  0
  9 10  1  0
  9 16  1  0
 10 11  1  0
 10 36  1  0
 11 12  1  0
 11 14  1  0
 11 37  1  6
 12 13  1  0
 12 38  1  0
 12 39  1  0
 13 40  1  0
 13 41  1  0
 13 42  1  0
 14 15  1  0
 14 43  1  0
 14 44  1  0
 15 45  1  0
 16 46  1  0
 16 47  1  0
 17 20  2  0
 18 48  1  0
 18 49  1  0
 18 50  1  0
 19 20  1  0
 23 24  2  0
 23 29  1  0
 24 25  1  0
 24 51  1  0
 25 26  2  0
 25 52  1  0
 26 27  1  0
 26 28  1  0
 28 29  2  0
 28 53  1  0
 29 54  1  0
M  END
