
     RDKit          3D

 43 44  0  0  0  0  0  0  0  0999 V2000
    2.5998    0.0400   -0.6745 S   0  0  1  0  0  0  0  0  0  0  0  0
    3.2067    1.1518   -1.3930 O   0  0  0  0  0  0  0  0  0  0  0  0
    3.4386   -1.1113   -0.3669 O   0  0  0  0  0  0  0  0  0  0  0  0
    1.9039    0.6771    0.6724 N   0  0  0  0  0  0  0  0  0  0  0  0
   -0.9180   -1.6624   -3.0141 C   0  0  0  0  0  0  0  0  0  0  0  0
    0.0824   -2.4633   -2.5475 C   0  0  0  0  0  0  0  0  0  0  0  0
    1.1463   -1.9106   -1.8157 C   0  0  0  0  0  0  0  0  0  0  0  0
    1.1854   -0.5651   -1.5695 C   0  0  0  0  0  0  0  0  0  0  0  0
    0.1637    0.3144   -2.0370 C   0  0  0  0  0  0  0  0  0  0  0  0
   -0.9087   -0.2684   -2.7745 C   0  0  0  0  0  0  0  0  0  0  0  0
   -1.9391    0.5867   -3.2450 C   0  0  0  0  0  0  0  0  0  0  0  0
   -1.9263    1.9309   -3.0092 C   0  0  0  0  0  0  0  0  0  0  0  0
   -0.8638    2.4881   -2.2797 C   0  0  0  0  0  0  0  0  0  0  0  0
    0.1549    1.7103   -1.8060 C   0  0  0  0  0  0  0  0  0  0  0  0
    1.4392   -0.2347    1.7155 C   0  0  0  0  0  0  0  0  0  0  0  0
    0.5806    0.5261    2.7129 C   0  0  0  0  0  0  0  0  0  0  0  0
   -0.7065    0.3910    4.8940 C   0  0  0  0  0  0  0  0  0  0  0  0
    0.1702   -0.3476    3.8902 C   0  0  0  0  0  0  0  0  0  0  0  0
   -1.0570   -0.4541    6.1111 C   0  0  0  0  0  0  0  0  0  0  0  0
   -1.9305    0.2863    7.1119 C   0  0  0  0  0  0  0  0  0  0  0  0
   -2.2073   -0.5416    8.2772 N   0  0  0  0  0  0  0  0  0  0  0  0
    2.4510    1.4596    1.0203 H   0  0  0  0  0  0  0  0  0  0  0  0
   -1.7297   -2.1035   -3.5746 H   0  0  0  0  0  0  0  0  0  0  0  0
    0.0635   -3.5273   -2.7368 H   0  0  0  0  0  0  0  0  0  0  0  0
    1.9285   -2.5612   -1.4518 H   0  0  0  0  0  0  0  0  0  0  0  0
   -2.7229    2.5627   -3.3769 H   0  0  0  0  0  0  0  0  0  0  0  0
   -0.8575    3.5533   -2.0927 H   0  0  0  0  0  0  0  0  0  0  0  0
    0.9490    2.1844   -1.2540 H   0  0  0  0  0  0  0  0  0  0  0  0
    2.2774   -0.7168    2.2270 H   0  0  0  0  0  0  0  0  0  0  0  0
    0.8423   -1.0217    1.2496 H   0  0  0  0  0  0  0  0  0  0  0  0
   -0.3047    0.9164    2.2038 H   0  0  0  0  0  0  0  0  0  0  0  0
    1.1381    1.3930    3.0829 H   0  0  0  0  0  0  0  0  0  0  0  0
   -1.6252    0.7233    4.3986 H   0  0  0  0  0  0  0  0  0  0  0  0
   -0.1919    1.3018    5.2193 H   0  0  0  0  0  0  0  0  0  0  0  0
    1.0680   -0.7171    4.3964 H   0  0  0  0  0  0  0  0  0  0  0  0
   -0.3618   -1.2339    3.5283 H   0  0  0  0  0  0  0  0  0  0  0  0
   -0.1392   -0.7804    6.6106 H   0  0  0  0  0  0  0  0  0  0  0  0
   -1.5725   -1.3657    5.7875 H   0  0  0  0  0  0  0  0  0  0  0  0
   -2.8372    0.6394    6.5986 H   0  0  0  0  0  0  0  0  0  0  0  0
   -1.4024    1.1837    7.4467 H   0  0  0  0  0  0  0  0  0  0  0  0
   -2.7783   -0.0238    8.9330 H   0  0  0  0  0  0  0  0  0  0  0  0
   -2.7721   -1.3341    7.9952 H   0  0  0  0  0  0  0  0  0  0  0  0
   -3.2616   -0.0796   -4.1440 Cl  0  0  0  0  0  0  0  0  0  0  0  0
  1  2  2  0
  1  3  2  0
  1  4  1  1
  1  8  1  0
  4 15  1  0
  4 22  1  0
  5  6  2  0
  5 10  1  0
  5 23  1  0
  6  7  1  0
  6 24  1  0
  7  8  2  0
  7 25  1  0
  8  9  1  0
  9 10  2  0
  9 14  1  0
 10 11  1  0
 43 11  1  0
 11 12  2  0
 12 13  1  0
 12 26  1  0
 13 14  2  0
 13 27  1  0
 14 28  1  0
 15 16  1  0
 15 29  1  0
 15 30  1  0
 16 18  1  0
 16 31  1  0
 16 32  1  0
 17 18  1  0
 17 19  1  0
 17 33  1  0
 17 34  1  0
 18 35  1  0
 18 36  1  0
 19 20  1  0
 19 37  1  0
 19 38  1  0
 20 21  1  0
 20 39  1  0
 20 40  1  0
 21 41  1  0
 21 42  1  0
M  END
