
     RDKit          3D

 26 26  0  0  0  0  0  0  0  0999 V2000
   -0.8646   -0.2266    0.0177 C   0  0  0  0  0  0  0  0  0  0  0  0
    2.7054   -0.7914    0.1950 C   0  0  0  0  0  0  0  0  0  0  0  0
    5.0545   -0.5312    0.3545 C   0  0  0  0  0  0  0  0  0  0  0  0
    6.1008    0.3982   -0.2070 C   0  0  0  0  0  0  0  0  0  0  0  0
   -0.5644    1.5144   -0.0188 S   0  0  0  0  0  0  0  0  0  0  0  0
   -1.9889   -0.8553    0.0912 N   0  0  0  0  0  0  0  0  0  0  0  0
    0.2842   -0.9057   -0.0541 N   0  0  0  0  0  0  0  0  0  0  0  0
    1.4662   -0.1669   -0.4154 C   0  0  1  0  0  0  0  0  0  0  0  0
    1.2303    1.2467    0.1122 C   0  0  0  0  0  0  0  0  0  0  0  0
   -3.4230   -0.0942    0.2324 S   0  0  1  0  0  0  0  0  0  0  0  0
   -4.3309   -0.6310   -1.0252 N   0  0  0  0  0  0  0  0  0  0  0  0
   -4.0626   -0.5902    1.4358 O   0  0  0  0  0  0  0  0  0  0  0  0
   -3.2807    1.3461    0.0536 O   0  0  0  0  0  0  0  0  0  0  0  0
    2.7015   -1.7779    0.8815 O   0  0  0  0  0  0  0  0  0  0  0  0
    3.7717   -0.0955   -0.1383 O   0  0  0  0  0  0  0  0  0  0  0  0
    5.2323   -1.5604    0.0386 H   0  0  0  0  0  0  0  0  0  0  0  0
    5.0484   -0.5055    1.4456 H   0  0  0  0  0  0  0  0  0  0  0  0
    7.0795    0.0918    0.1601 H   0  0  0  0  0  0  0  0  0  0  0  0
    6.1257    0.3627   -1.2959 H   0  0  0  0  0  0  0  0  0  0  0  0
    5.9342    1.4285    0.1066 H   0  0  0  0  0  0  0  0  0  0  0  0
    0.2416   -1.9067   -0.1815 H   0  0  0  0  0  0  0  0  0  0  0  0
    1.5898   -0.1409   -1.5048 H   0  0  0  0  0  0  0  0  0  0  0  0
    1.7499    1.9945   -0.4798 H   0  0  0  0  0  0  0  0  0  0  0  0
    1.5223    1.3491    1.1573 H   0  0  0  0  0  0  0  0  0  0  0  0
   -4.5016   -1.6301   -0.9944 H   0  0  0  0  0  0  0  0  0  0  0  0
   -3.9583   -0.3595   -1.9285 H   0  0  0  0  0  0  0  0  0  0  0  0
  3 15  1  0
  3  4  1  0
 15  2  1  0
  2  8  1  0
  2 14  2  0
  8  9  1  0
  8  7  1  0
  9  5  1  0
  7  1  1  0
  5  1  1  0
  1  6  2  0
 10  6  1  6
 11 10  1  0
 12 10  2  0
 10 13  2  0
  3 16  1  0
  3 17  1  0
  4 18  1  0
  4 19  1  0
  4 20  1  0
  7 21  1  0
  8 22  1  6
  9 23  1  0
  9 24  1  0
 11 25  1  0
 11 26  1  0
M  END
