
     RDKit          3D

 37 36  0  0  0  0  0  0  0  0999 V2000
   -5.9028   -0.1022    0.0727 C   0  0  0  0  0  0  0  0  0  0  0  0
   -4.4052   -2.0017   -0.4826 N   0  0  0  0  0  0  0  0  0  0  0  0
    1.5005    0.7453   -0.1092 C   0  0  0  0  0  0  0  0  0  0  0  0
    2.7245   -0.0283    0.3098 C   0  0  0  0  0  0  0  0  0  0  0  0
    4.2251    0.7280   -0.3532 S   0  0  0  0  0  0  0  0  0  0  0  0
    5.4225   -0.4997    0.2472 C   0  0  0  0  0  0  0  0  0  0  0  0
    6.8288   -0.1108   -0.1858 C   0  0  0  0  0  0  0  0  0  0  0  0
    7.8629   -1.1185    0.2984 C   0  0  0  0  0  0  0  0  0  0  0  0
   -4.5522   -0.7788    0.2685 C   0  0  1  0  0  0  0  0  0  0  0  0
   -3.4369    0.2125   -0.0921 C   0  0  0  0  0  0  0  0  0  0  0  0
   -0.9616    0.6655   -0.1233 C   0  0  0  0  0  0  0  0  0  0  0  0
    0.3383    0.1252    0.1989 N   0  0  0  0  0  0  0  0  0  0  0  0
   -2.0556   -0.3162    0.2639 C   0  0  0  0  0  0  0  0  0  0  0  0
    1.6398    1.8771   -0.6868 N   0  0  0  0  0  0  0  0  0  0  0  0
   -6.6549   -0.3281   -0.8422 O   0  0  0  0  0  0  0  0  0  0  0  0
   -6.1609    0.7864    1.0259 O   0  0  0  0  0  0  0  0  0  0  0  0
   -5.0977   -2.6809   -0.1945 H   0  0  0  0  0  0  0  0  0  0  0  0
   -4.5677   -1.8290   -1.4673 H   0  0  0  0  0  0  0  0  0  0  0  0
    2.7751   -0.0634    1.4015 H   0  0  0  0  0  0  0  0  0  0  0  0
    2.6470   -1.0613   -0.0381 H   0  0  0  0  0  0  0  0  0  0  0  0
    5.3655   -0.5588    1.3369 H   0  0  0  0  0  0  0  0  0  0  0  0
    5.1624   -1.4831   -0.1523 H   0  0  0  0  0  0  0  0  0  0  0  0
    6.8684   -0.0356   -1.2756 H   0  0  0  0  0  0  0  0  0  0  0  0
    7.0702    0.8810    0.2047 H   0  0  0  0  0  0  0  0  0  0  0  0
    7.8744   -1.1795    1.3878 H   0  0  0  0  0  0  0  0  0  0  0  0
    7.6533   -2.1173   -0.0881 H   0  0  0  0  0  0  0  0  0  0  0  0
    8.8648   -0.8407   -0.0288 H   0  0  0  0  0  0  0  0  0  0  0  0
   -4.4611   -1.0170    1.3333 H   0  0  0  0  0  0  0  0  0  0  0  0
   -3.4900    0.4278   -1.1647 H   0  0  0  0  0  0  0  0  0  0  0  0
   -3.6083    1.1599    0.4240 H   0  0  0  0  0  0  0  0  0  0  0  0
   -1.1177    1.6198    0.3935 H   0  0  0  0  0  0  0  0  0  0  0  0
   -2.0058   -0.5080    1.3403 H   0  0  0  0  0  0  0  0  0  0  0  0
   -1.8826   -1.2702   -0.2385 H   0  0  0  0  0  0  0  0  0  0  0  0
    0.7469    2.3098   -0.9050 H   0  0  0  0  0  0  0  0  0  0  0  0
   -7.0143    1.2144    0.8601 H   0  0  0  0  0  0  0  0  0  0  0  0
   -1.0242    0.8759   -1.1976 H   0  0  0  0  0  0  0  0  0  0  0  0
    0.3769   -0.7759    0.6463 H   0  0  0  0  0  0  0  0  0  0  0  0
  1 16  1  0
  2  9  1  0
  2 17  1  0
  2 18  1  0
  3  4  1  0
  4 19  1  0
  4 20  1  0
  5  4  1  0
  5  6  1  0
  6  7  1  0
  6 21  1  0
  6 22  1  0
  7  8  1  0
  7 23  1  0
  7 24  1  0
  8 25  1  0
  8 26  1  0
  8 27  1  0
  9  1  1  0
  9 10  1  0
  9 28  1  1
 10 29  1  0
 10 30  1  0
 11 31  1  0
 12  3  1  0
 12 11  1  0
 13 10  1  0
 13 11  1  0
 13 32  1  0
 13 33  1  0
 14  3  2  0
 14 34  1  0
 15  1  2  0
 16 35  1  0
 11 36  1  0
 12 37  1  0
M  END
