
     RDKit          3D

 25 24  0  0  0  0  0  0  0  0999 V2000
    6.5735   -2.7617    2.7408 O   0  0  0  0  0  0  0  0  0  0  0  0
    6.5333   -2.2532    3.8644 C   0  0  0  0  0  0  0  0  0  0  0  0
    6.6846   -0.7832    4.2490 C   0  0  1  0  0  0  0  0  0  0  0  0
    7.4921   -0.0169    3.3324 N   0  0  0  0  0  0  0  0  0  0  0  0
    5.3005   -0.1775    4.4904 C   0  0  0  0  0  0  0  0  0  0  0  0
    4.3772    0.1528    3.0164 S   0  0  0  0  0  0  0  0  0  0  0  0
    3.1408   -1.0544    2.9491 C   0  0  0  0  0  0  0  0  0  0  0  0
    2.2799   -0.8086    1.7468 C   0  0  0  0  0  0  0  0  0  0  0  0
    3.0696   -2.0672    3.6487 O   0  0  0  0  0  0  0  0  0  0  0  0
    0.8116   -0.7583    2.1208 C   0  0  0  0  0  0  0  0  0  0  0  0
   -0.0551   -0.6284    0.8949 C   0  0  0  0  0  0  0  0  0  0  0  0
    6.3288   -3.0844    4.9199 O   0  0  0  0  0  0  0  0  0  0  0  0
    7.2267   -0.7879    5.2473 H   0  0  0  0  0  0  0  0  0  0  0  0
    6.9827    0.1999    2.4948 H   0  0  0  0  0  0  0  0  0  0  0  0
    8.3264   -0.5179    3.0937 H   0  0  0  0  0  0  0  0  0  0  0  0
    5.4282    0.8120    4.9993 H   0  0  0  0  0  0  0  0  0  0  0  0
    4.7207   -0.8572    5.1674 H   0  0  0  0  0  0  0  0  0  0  0  0
    2.5807    0.1495    1.2420 H   0  0  0  0  0  0  0  0  0  0  0  0
    2.4576   -1.6477    1.0188 H   0  0  0  0  0  0  0  0  0  0  0  0
    0.5435   -1.6917    2.6848 H   0  0  0  0  0  0  0  0  0  0  0  0
    0.6295    0.1103    2.8074 H   0  0  0  0  0  0  0  0  0  0  0  0
   -1.1316   -0.5824    1.1896 H   0  0  0  0  0  0  0  0  0  0  0  0
    0.1960    0.3011    0.3287 H   0  0  0  0  0  0  0  0  0  0  0  0
    0.0872   -1.5030    0.2148 H   0  0  0  0  0  0  0  0  0  0  0  0
    6.2415   -4.0001    4.6060 H   0  0  0  0  0  0  0  0  0  0  0  0
  1  2  2  0
  2  3  1  0
  2 12  1  0
  3  4  1  0
  3  5  1  0
  3 13  1  1
  4 14  1  0
  4 15  1  0
  5  6  1  0
  5 16  1  0
  5 17  1  0
  6  7  1  0
  7  8  1  0
  7  9  2  0
  8 10  1  0
  8 18  1  0
  8 19  1  0
 10 11  1  0
 10 20  1  0
 10 21  1  0
 11 22  1  0
 11 23  1  0
 11 24  1  0
 12 25  1  0
M  END
