
     RDKit          3D

 47 49  0  0  0  0  0  0  0  0999 V2000
   -7.8492    0.4967   -0.7275 N   0  0  0  0  0  0  0  0  0  0  0  0
   -6.7251    0.2572   -0.7835 C   0  0  0  0  0  0  0  0  0  0  0  0
   -5.3069   -0.0606   -0.8409 C   0  0  0  0  0  0  0  0  0  0  0  0
   -4.9382   -1.2153    0.1037 C   0  0  0  0  0  0  0  0  0  0  0  0
   -3.4680   -1.5114    0.0079 C   0  0  0  0  0  0  0  0  0  0  0  0
   -2.5512   -0.7482    0.7231 C   0  0  0  0  0  0  0  0  0  0  0  0
   -2.9988   -2.5163   -0.8291 C   0  0  0  0  0  0  0  0  0  0  0  0
   -1.6371   -2.7788   -0.9705 C   0  0  0  0  0  0  0  0  0  0  0  0
   -1.1542   -3.8498   -1.9042 C   0  0  0  0  0  0  0  0  0  0  0  0
   -0.7378   -2.0051   -0.2467 C   0  0  0  0  0  0  0  0  0  0  0  0
   -1.1903   -0.9932    0.5975 C   0  0  0  0  0  0  0  0  0  0  0  0
   -0.0527    0.0534    1.5146 P   0  0  2  0  0  0  0  0  0  0  0  0
    0.9609   -1.0553    2.1080 O   0  0  0  0  0  0  0  0  0  0  0  0
    1.9791   -0.6458    3.0249 C   0  0  0  0  0  0  0  0  0  0  0  0
   -0.6986    0.9195    2.5391 O   0  0  0  0  0  0  0  0  0  0  0  0
    0.9385    0.9573    0.3355 C   0  0  0  0  0  0  0  0  0  0  0  0
    2.1660    0.5783   -0.3056 C   0  0  0  0  0  0  0  0  0  0  0  0
    2.9580   -0.5775   -0.3022 C   0  0  0  0  0  0  0  0  0  0  0  0
    4.0935   -0.5825   -1.0799 C   0  0  0  0  0  0  0  0  0  0  0  0
    5.0915   -2.0040   -1.1025 Cl  0  0  0  0  0  0  0  0  0  0  0  0
    4.4837    0.5140   -1.8631 C   0  0  0  0  0  0  0  0  0  0  0  0
    3.7168    1.6582   -1.8789 C   0  0  0  0  0  0  0  0  0  0  0  0
    2.5651    1.6751   -1.0968 C   0  0  0  0  0  0  0  0  0  0  0  0
    1.6341    2.6601   -0.9377 N   0  0  0  0  0  0  0  0  0  0  0  0
    0.6568    2.2320   -0.1015 C   0  0  0  0  0  0  0  0  0  0  0  0
   -0.5615    3.0490    0.1611 C   0  0  0  0  0  0  0  0  0  0  0  0
   -1.6613    2.5258    0.1462 O   0  0  0  0  0  0  0  0  0  0  0  0
   -0.3381    4.3548    0.3541 N   0  0  0  0  0  0  0  0  0  0  0  0
   -5.0555   -0.3126   -1.8727 H   0  0  0  0  0  0  0  0  0  0  0  0
   -4.7469    0.8410   -0.5842 H   0  0  0  0  0  0  0  0  0  0  0  0
   -5.2049   -0.9420    1.1255 H   0  0  0  0  0  0  0  0  0  0  0  0
   -5.5206   -2.0986   -0.1610 H   0  0  0  0  0  0  0  0  0  0  0  0
   -2.9022    0.0400    1.3773 H   0  0  0  0  0  0  0  0  0  0  0  0
   -3.7128   -3.1122   -1.3880 H   0  0  0  0  0  0  0  0  0  0  0  0
   -1.0105   -3.4490   -2.9095 H   0  0  0  0  0  0  0  0  0  0  0  0
   -0.1998   -4.2642   -1.5811 H   0  0  0  0  0  0  0  0  0  0  0  0
   -1.8698   -4.6676   -1.9808 H   0  0  0  0  0  0  0  0  0  0  0  0
    0.3228   -2.2040   -0.3507 H   0  0  0  0  0  0  0  0  0  0  0  0
    2.4978   -1.5453    3.3464 H   0  0  0  0  0  0  0  0  0  0  0  0
    2.6993    0.0258    2.5539 H   0  0  0  0  0  0  0  0  0  0  0  0
    2.6903   -1.4471    0.2812 H   0  0  0  0  0  0  0  0  0  0  0  0
    5.3853    0.4592   -2.4571 H   0  0  0  0  0  0  0  0  0  0  0  0
    4.0039    2.5092   -2.4823 H   0  0  0  0  0  0  0  0  0  0  0  0
    1.6256    3.5336   -1.4424 H   0  0  0  0  0  0  0  0  0  0  0  0
    0.5852    4.7231    0.5112 H   0  0  0  0  0  0  0  0  0  0  0  0
   -1.1130    4.9716    0.5412 H   0  0  0  0  0  0  0  0  0  0  0  0
    1.5506   -0.1516    3.8968 H   0  0  0  0  0  0  0  0  0  0  0  0
  1  2  3  0
  2  3  1  0
  3  4  1  0
  4  5  1  0
  5  6  2  0
  5  7  1  0
  6 11  1  0
  7  8  2  0
  8  9  1  0
  8 10  1  0
 10 11  2  0
 11 12  1  0
 12 13  1  1
 12 15  2  0
 12 16  1  0
 13 14  1  0
 16 17  1  0
 16 25  2  0
 17 18  2  0
 17 23  1  0
 18 19  1  0
 19 20  1  0
 19 21  2  0
 21 22  1  0
 22 23  2  0
 23 24  1  0
 24 25  1  0
 25 26  1  0
 26 27  2  0
 26 28  1  0
  3 29  1  0
  3 30  1  0
  4 31  1  0
  4 32  1  0
  6 33  1  0
  7 34  1  0
  9 35  1  0
  9 36  1  0
  9 37  1  0
 10 38  1  0
 14 39  1  0
 14 40  1  0
 18 41  1  0
 21 42  1  0
 22 43  1  0
 24 44  1  0
 28 45  1  0
 28 46  1  0
 14 47  1  0
M  END
