
     RDKit          3D

 18 18  0  0  0  0  0  0  0  0999 V2000
    2.9886    0.0255    0.0338 N   0  0  0  0  0  0  0  0  0  0  0  0
    1.2564   -1.1630    0.0226 C   0  0  0  0  0  0  0  0  0  0  0  0
    1.9975    0.9150    0.0244 C   0  0  0  0  0  0  0  0  0  0  0  0
    2.5686   -1.2403    0.0323 N   0  0  0  0  0  0  0  0  0  0  0  0
   -3.6759   -1.0499    0.0129 C   0  0  0  0  0  0  0  0  0  0  0  0
   -1.4473   -0.2120    0.0036 O   0  0  0  0  0  0  0  0  0  0  0  0
   -2.8238    0.1951   -0.0071 C   0  0  0  0  0  0  0  0  0  0  0  0
    0.8263    0.1809    0.0168 C   0  0  0  0  0  0  0  0  0  0  0  0
   -0.7651    1.9213   -0.0041 O   0  0  0  0  0  0  0  0  0  0  0  0
    3.9769    0.2240    0.0393 H   0  0  0  0  0  0  0  0  0  0  0  0
    0.6551   -2.0591    0.0193 H   0  0  0  0  0  0  0  0  0  0  0  0
    2.1760    1.9775    0.0240 H   0  0  0  0  0  0  0  0  0  0  0  0
   -3.4958   -1.6768   -0.8604 H   0  0  0  0  0  0  0  0  0  0  0  0
   -3.5019   -1.6439    0.9101 H   0  0  0  0  0  0  0  0  0  0  0  0
   -4.7265   -0.7606    0.0040 H   0  0  0  0  0  0  0  0  0  0  0  0
   -3.0238    0.7892   -0.9011 H   0  0  0  0  0  0  0  0  0  0  0  0
   -3.0289    0.8219    0.8629 H   0  0  0  0  0  0  0  0  0  0  0  0
   -0.5210    0.7368    0.0045 C   0  0  0  0  0  0  0  0  0  0  0  0
  4  1  1  0
  4  2  2  0
  1  3  1  0
  2  8  1  0
  3  8  2  0
  8 18  1  0
  6 18  1  0
  6  7  1  0
 18  9  2  0
  7  5  1  0
  1 10  1  0
  2 11  1  0
  3 12  1  0
  5 13  1  0
  5 14  1  0
  5 15  1  0
  7 16  1  0
  7 17  1  0
M  END
