
     RDKit          3D

 27 29  0  0  0  0  0  0  0  0999 V2000
   20.7158    0.3734   27.7406 C   0  0  0  0  0  0  0  0  0  0  0  0
   21.2161    0.1169   26.4700 C   0  0  0  0  0  0  0  0  0  0  0  0
   21.5318    0.0716   28.8154 C   0  0  0  0  0  0  0  0  0  0  0  0
   22.8169   -0.4719   28.6388 C   0  0  0  0  0  0  0  0  0  0  0  0
   23.3241   -0.7312   27.3672 C   0  0  0  0  0  0  0  0  0  0  0  0
   22.4895   -0.4217   26.3193 C   0  0  0  0  0  0  0  0  0  0  0  0
   21.4982    1.0245   22.1939 C   0  0  0  0  0  0  0  0  0  0  0  0
   21.5194   -0.1492   22.9453 C   0  0  0  0  0  0  0  0  0  0  0  0
   21.5783   -0.1140   24.4100 C   0  0  0  0  0  0  0  0  0  0  0  0
   21.4360    0.9928   20.8109 C   0  0  0  0  0  0  0  0  0  0  0  0
   21.4137   -1.4178   20.8821 C   0  0  0  0  0  0  0  0  0  0  0  0
   21.3948   -0.2321   20.1646 C   0  0  0  0  0  0  0  0  0  0  0  0
   21.4769   -1.3642   22.2632 C   0  0  0  0  0  0  0  0  0  0  0  0
   23.6934   -0.7928   29.7937 C   0  0  0  0  0  0  0  0  0  0  0  0
   23.1335   -0.5207   30.9625 O   0  0  0  0  0  0  0  0  0  0  0  0
   24.8036   -1.2546   29.6814 O   0  0  0  0  0  0  0  0  0  0  0  0
   22.7110   -0.5611   24.9900 O   0  0  0  0  0  0  0  0  0  0  0  0
   20.6680    0.2966   25.2160 N   0  0  0  0  0  0  0  0  0  0  0  0
   21.4697   -2.8352   23.1652 Cl  0  0  0  0  0  0  0  0  0  0  0  0
   19.7301    0.7928   27.8866 H   0  0  0  0  0  0  0  0  0  0  0  0
   21.1613    0.2636   29.8119 H   0  0  0  0  0  0  0  0  0  0  0  0
   24.3099   -1.1490   27.2177 H   0  0  0  0  0  0  0  0  0  0  0  0
   21.4234    1.9132   20.2446 H   0  0  0  0  0  0  0  0  0  0  0  0
   21.3744   -2.3706   20.3735 H   0  0  0  0  0  0  0  0  0  0  0  0
   21.3467   -0.2636   19.0850 H   0  0  0  0  0  0  0  0  0  0  0  0
   23.7451   -0.7390   31.6815 H   0  0  0  0  0  0  0  0  0  0  0  0
   21.5783    2.5513   22.9912 Cl  0  0  0  0  0  0  0  0  0  0  0  0
  1  2  2  0
  1  3  1  0
  1 20  1  0
  2  6  1  0
  2 18  1  0
  3  4  2  0
  3 21  1  0
  4  5  1  0
  4 14  1  0
  5  6  2  0
  5 22  1  0
  6 17  1  0
  7  8  2  0
  7 10  1  0
  7 27  1  0
  8  9  1  0
  8 13  1  0
  9 17  1  0
  9 18  2  0
 10 12  2  0
 10 23  1  0
 11 12  1  0
 11 13  2  0
 11 24  1  0
 12 25  1  0
 13 19  1  0
 14 15  1  0
 14 16  2  0
 15 26  1  0
M  END
