
     RDKit          3D

  4  3  0  0  0  0  0  0  0  0999 V2000
    0.0099    0.0298   -0.5600 C   0  0  0  0  0  0  0  0  0  0  0  0
    0.0022    0.0225    0.6402 C   0  0  0  0  0  0  0  0  0  0  0  0
    0.0160    0.0368   -1.6261 H   0  0  0  0  0  0  0  0  0  0  0  0
   -0.0028    0.0150    1.7063 H   0  0  0  0  0  0  0  0  0  0  0  0
  1  2  3  0
  1  3  1  0
  2  4  1  0
M  END
