
     RDKit          3D

 42 44  0  0  0  0  0  0  0  0999 V2000
    7.7799    0.0045   -0.5451 C   0  0  0  0  0  0  0  0  0  0  0  0
    6.7562    1.4754    0.9281 C   0  0  0  0  0  0  0  0  0  0  0  0
    5.5365    0.5779    1.0170 C   0  0  0  0  0  0  0  0  0  0  0  0
    6.5849   -0.9277   -0.4814 C   0  0  0  0  0  0  0  0  0  0  0  0
    1.7033   -1.1959   -0.3127 C   0  0  0  0  0  0  0  0  0  0  0  0
   -5.5651    0.1300    0.2267 C   0  0  0  0  0  0  0  0  0  0  0  0
   -1.8669    0.0228   -0.2415 C   0  0  0  0  0  0  0  0  0  0  0  0
   -3.1520   -0.3889    0.0718 C   0  0  0  0  0  0  0  0  0  0  0  0
   -2.5776    2.1008   -0.8429 C   0  0  0  0  0  0  0  0  0  0  0  0
   -4.1949    0.5166   -0.0892 C   0  0  0  0  0  0  0  0  0  0  0  0
   -3.8981    1.7911   -0.5574 C   0  0  0  0  0  0  0  0  0  0  0  0
   -0.7225   -0.9407   -0.0730 C   0  0  0  0  0  0  0  0  0  0  0  0
    2.8961   -0.2537   -0.2718 C   0  0  0  0  0  0  0  0  0  0  0  0
    5.3736   -0.1711   -0.2171 N   0  0  0  0  0  0  0  0  0  0  0  0
   -7.5791    0.1468    0.4896 N   0  0  0  0  0  0  0  0  0  0  0  0
   -7.2048   -1.0448    0.8458 N   0  0  0  0  0  0  0  0  0  0  0  0
   -6.6115    0.9232    0.0965 N   0  0  0  0  0  0  0  0  0  0  0  0
   -5.9250   -1.0809    0.6872 N   0  0  0  0  0  0  0  0  0  0  0  0
   -1.5834    1.2403   -0.6899 N   0  0  0  0  0  0  0  0  0  0  0  0
    0.4713   -0.4430   -0.3946 N   0  0  0  0  0  0  0  0  0  0  0  0
    7.9276    0.7415    0.6486 O   0  0  0  0  0  0  0  0  0  0  0  0
   -0.9131   -2.0794    0.3336 O   0  0  0  0  0  0  0  0  0  0  0  0
    8.6963   -0.5693   -0.6907 H   0  0  0  0  0  0  0  0  0  0  0  0
    7.6644    0.6828   -1.4026 H   0  0  0  0  0  0  0  0  0  0  0  0
    6.5864    2.2371    0.1538 H   0  0  0  0  0  0  0  0  0  0  0  0
    6.9107    1.9895    1.8781 H   0  0  0  0  0  0  0  0  0  0  0  0
    5.6322   -0.0957    1.8872 H   0  0  0  0  0  0  0  0  0  0  0  0
    4.6645    1.2100    1.1940 H   0  0  0  0  0  0  0  0  0  0  0  0
    6.4909   -1.4438   -1.4403 H   0  0  0  0  0  0  0  0  0  0  0  0
    6.7608   -1.6996    0.2880 H   0  0  0  0  0  0  0  0  0  0  0  0
    1.7906   -1.8769   -1.1658 H   0  0  0  0  0  0  0  0  0  0  0  0
    1.6840   -1.8147    0.5865 H   0  0  0  0  0  0  0  0  0  0  0  0
   -3.3325   -1.3920    0.4311 H   0  0  0  0  0  0  0  0  0  0  0  0
   -2.3174    3.0864   -1.2088 H   0  0  0  0  0  0  0  0  0  0  0  0
   -4.6694    2.5346   -0.7010 H   0  0  0  0  0  0  0  0  0  0  0  0
    2.9046    0.3769   -1.1658 H   0  0  0  0  0  0  0  0  0  0  0  0
    2.7865    0.4112    0.5885 H   0  0  0  0  0  0  0  0  0  0  0  0
    4.1984   -1.6861    0.6868 H   0  0  0  0  0  0  0  0  0  0  0  0
    4.2643   -1.6893   -1.0710 H   0  0  0  0  0  0  0  0  0  0  0  0
   -8.5475    0.4413    0.5184 H   0  0  0  0  0  0  0  0  0  0  0  0
    0.4958    0.4991   -0.7575 H   0  0  0  0  0  0  0  0  0  0  0  0
    4.2041   -1.0291   -0.2006 C   0  0  0  0  0  0  0  0  0  0  0  0
  9 11  2  0
  9 19  1  0
 11 10  1  0
 19  7  2  0
 10  6  1  0
 10  8  2  0
 17  6  2  0
 17 15  1  0
  6 18  1  0
 15 16  1  0
 18 16  2  0
  7  8  1  0
  7 12  1  0
 12 22  2  0
 12 20  1  0
 20  5  1  0
  5 13  1  0
 13 42  1  0
 42 14  1  0
 14  4  1  0
 14  3  1  0
  4  1  1  0
  3  2  1  0
  1 21  1  0
  2 21  1  0
  1 23  1  0
  1 24  1  0
  2 25  1  0
  2 26  1  0
  3 27  1  0
  3 28  1  0
  4 29  1  0
  4 30  1  0
  5 31  1  0
  5 32  1  0
  8 33  1  0
  9 34  1  0
 11 35  1  0
 13 36  1  0
 13 37  1  0
 42 38  1  0
 42 39  1  0
 15 40  1  0
 20 41  1  0
M  END
