
     RDKit          3D

 32 34  0  0  0  0  0  0  0  0999 V2000
   -1.2214   -0.1598    2.9850 N   0  0  0  0  0  0  0  0  0  0  0  0
   -0.1979   -0.0403    3.8223 C   0  0  0  0  0  0  0  0  0  0  0  0
   -0.4808   -0.1111    5.1573 N   0  0  0  0  0  0  0  0  0  0  0  0
    1.0785    0.1137    3.4876 N   0  0  0  0  0  0  0  0  0  0  0  0
    1.3625    0.1094    2.1822 C   0  0  0  0  0  0  0  0  0  0  0  0
    2.6750    0.2451    1.8256 N   0  0  0  0  0  0  0  0  0  0  0  0
    0.3833   -0.0709    1.2083 C   0  0  0  0  0  0  0  0  0  0  0  0
   -0.9244   -0.1733    1.6834 C   0  0  0  0  0  0  0  0  0  0  0  0
    0.6862   -0.0886   -0.1726 N   0  0  0  0  0  0  0  0  0  0  0  0
   -0.3705   -0.6137   -1.0219 C   0  0  1  0  0  0  0  0  0  0  0  0
   -1.6996    0.0079   -0.5923 C   0  0  0  0  0  0  0  0  0  0  0  0
   -1.9416   -0.2971    0.7956 N   0  0  0  0  0  0  0  0  0  0  0  0
   -0.0991   -0.3102   -2.4738 C   0  0  0  0  0  0  0  0  0  0  0  0
   -0.4863   -1.2212   -3.4524 C   0  0  0  0  0  0  0  0  0  0  0  0
    0.4876    0.8902   -2.8652 C   0  0  0  0  0  0  0  0  0  0  0  0
   -0.2961   -0.9406   -4.7987 C   0  0  0  0  0  0  0  0  0  0  0  0
    0.6805    1.1726   -4.2110 C   0  0  0  0  0  0  0  0  0  0  0  0
    0.2884    0.2595   -5.1816 C   0  0  0  0  0  0  0  0  0  0  0  0
    0.2114    0.2744    5.7779 H   0  0  0  0  0  0  0  0  0  0  0  0
   -1.4308    0.0910    5.4203 H   0  0  0  0  0  0  0  0  0  0  0  0
    3.2816    0.5734    2.5601 H   0  0  0  0  0  0  0  0  0  0  0  0
    2.8615    0.6859    0.9384 H   0  0  0  0  0  0  0  0  0  0  0  0
    1.5445   -0.5959   -0.3518 H   0  0  0  0  0  0  0  0  0  0  0  0
   -0.4755   -1.7026   -0.9096 H   0  0  0  0  0  0  0  0  0  0  0  0
   -1.6724    1.0885   -0.7803 H   0  0  0  0  0  0  0  0  0  0  0  0
   -2.5060   -0.4118   -1.1927 H   0  0  0  0  0  0  0  0  0  0  0  0
   -2.8776   -0.1994    1.1550 H   0  0  0  0  0  0  0  0  0  0  0  0
   -0.9390   -2.1610   -3.1570 H   0  0  0  0  0  0  0  0  0  0  0  0
    0.8015    1.6003   -2.1107 H   0  0  0  0  0  0  0  0  0  0  0  0
   -0.5995   -1.6611   -5.5475 H   0  0  0  0  0  0  0  0  0  0  0  0
    1.1397    2.1084   -4.5030 H   0  0  0  0  0  0  0  0  0  0  0  0
    0.4394    0.4818   -6.2301 H   0  0  0  0  0  0  0  0  0  0  0  0
  1  2  2  0
  1  8  1  0
  2  3  1  0
  2  4  1  0
  3 19  1  0
  3 20  1  0
  4  5  2  0
  5  6  1  0
  5  7  1  0
  6 21  1  0
  6 22  1  0
  7  8  2  0
  7  9  1  0
  8 12  1  0
  9 10  1  0
  9 23  1  0
 10 11  1  0
 10 13  1  0
 10 24  1  6
 11 12  1  0
 11 25  1  0
 11 26  1  0
 12 27  1  0
 13 14  2  0
 13 15  1  0
 14 16  1  0
 14 28  1  0
 15 17  2  0
 15 29  1  0
 16 18  2  0
 16 30  1  0
 17 18  1  0
 17 31  1  0
 18 32  1  0
M  END
