
     RDKit          3D

 56 57  0  0  0  0  0  0  0  0999 V2000
    7.0562    2.0534    0.8753 C   0  0  0  0  0  0  0  0  0  0  0  0
    6.1365    1.1708    0.0403 C   0  0  2  0  0  0  0  0  0  0  0  0
    6.3542    1.2285   -1.4006 N   0  0  0  0  0  0  0  0  0  0  0  0
    4.3721    1.5752    0.3104 P   0  0  1  0  0  0  0  0  0  0  0  0
    3.9794    1.8552    1.7233 O   0  0  0  0  0  0  0  0  0  0  0  0
    4.1206    2.9007   -0.5950 O   0  0  0  0  0  0  0  0  0  0  0  0
    3.4387    0.2161   -0.4576 C   0  0  0  0  0  0  0  0  0  0  0  0
    1.9480    0.2242   -0.1220 C   0  0  2  0  0  0  0  0  0  0  0  0
    1.2912   -1.0442   -0.6432 C   0  0  0  0  0  0  0  0  0  0  0  0
    1.4908   -1.4570   -1.7761 O   0  0  0  0  0  0  0  0  0  0  0  0
    0.4333   -1.6249    0.2109 N   0  0  0  0  0  0  0  0  0  0  0  0
   -0.5287   -2.6183   -0.2025 C   0  0  1  0  0  0  0  0  0  0  0  0
   -0.0529   -4.0480    0.0638 C   0  0  0  0  0  0  0  0  0  0  0  0
   -1.8202   -2.3670    0.5528 C   0  0  0  0  0  0  0  0  0  0  0  0
   -2.8807   -2.7595   -0.1316 O   0  0  0  0  0  0  0  0  0  0  0  0
   -1.8655   -1.9068    1.6655 O   0  0  0  0  0  0  0  0  0  0  0  0
    1.1969    1.4285   -0.7385 C   0  0  0  0  0  0  0  0  0  0  0  0
   -0.2914    1.2900   -0.5870 C   0  0  0  0  0  0  0  0  0  0  0  0
   -0.9178    1.5857    0.6209 C   0  0  0  0  0  0  0  0  0  0  0  0
   -2.2653    1.3235    0.8086 C   0  0  0  0  0  0  0  0  0  0  0  0
   -3.0349    0.7603   -0.2096 C   0  0  0  0  0  0  0  0  0  0  0  0
   -2.4150    0.4999   -1.4312 C   0  0  0  0  0  0  0  0  0  0  0  0
   -1.0669    0.7633   -1.6157 C   0  0  0  0  0  0  0  0  0  0  0  0
   -4.4543    0.4189    0.0056 C   0  0  0  0  0  0  0  0  0  0  0  0
   -5.4051    0.6281   -0.9950 C   0  0  0  0  0  0  0  0  0  0  0  0
   -6.7353    0.2903   -0.7923 C   0  0  0  0  0  0  0  0  0  0  0  0
   -7.1403   -0.2657    0.4143 C   0  0  0  0  0  0  0  0  0  0  0  0
   -6.2041   -0.4789    1.4176 C   0  0  0  0  0  0  0  0  0  0  0  0
   -4.8738   -0.1393    1.2155 C   0  0  0  0  0  0  0  0  0  0  0  0
    6.9297    3.1082    0.6247 H   0  0  0  0  0  0  0  0  0  0  0  0
    6.8687    1.9359    1.9420 H   0  0  0  0  0  0  0  0  0  0  0  0
    8.0961    1.7860    0.6844 H   0  0  0  0  0  0  0  0  0  0  0  0
    6.2552    0.1319    0.3608 H   0  0  0  0  0  0  0  0  0  0  0  0
    6.7047    2.1412   -1.6637 H   0  0  0  0  0  0  0  0  0  0  0  0
    7.0650    0.5640   -1.6749 H   0  0  0  0  0  0  0  0  0  0  0  0
    4.3140    2.7693   -1.5327 H   0  0  0  0  0  0  0  0  0  0  0  0
    3.6037    0.2168   -1.5363 H   0  0  0  0  0  0  0  0  0  0  0  0
    3.8913   -0.7040   -0.0753 H   0  0  0  0  0  0  0  0  0  0  0  0
    1.8323    0.2722    0.9649 H   0  0  0  0  0  0  0  0  0  0  0  0
    0.3058   -1.2157    1.1240 H   0  0  0  0  0  0  0  0  0  0  0  0
   -0.7131   -2.4977   -1.2711 H   0  0  0  0  0  0  0  0  0  0  0  0
    0.8609   -4.2383   -0.4966 H   0  0  0  0  0  0  0  0  0  0  0  0
    0.1532   -4.1991    1.1233 H   0  0  0  0  0  0  0  0  0  0  0  0
   -0.7997   -4.7756   -0.2526 H   0  0  0  0  0  0  0  0  0  0  0  0
   -3.6868   -2.6176    0.3893 H   0  0  0  0  0  0  0  0  0  0  0  0
    1.5394    2.3415   -0.2497 H   0  0  0  0  0  0  0  0  0  0  0  0
    1.4605    1.5125   -1.7953 H   0  0  0  0  0  0  0  0  0  0  0  0
   -0.3440    2.0152    1.4345 H   0  0  0  0  0  0  0  0  0  0  0  0
   -2.7236    1.5649    1.7599 H   0  0  0  0  0  0  0  0  0  0  0  0
   -2.9798    0.0547   -2.2411 H   0  0  0  0  0  0  0  0  0  0  0  0
   -0.6058    0.5276   -2.5672 H   0  0  0  0  0  0  0  0  0  0  0  0
   -5.1072    1.0780   -1.9341 H   0  0  0  0  0  0  0  0  0  0  0  0
   -7.4591    0.4687   -1.5771 H   0  0  0  0  0  0  0  0  0  0  0  0
   -8.1780   -0.5291    0.5724 H   0  0  0  0  0  0  0  0  0  0  0  0
   -6.5084   -0.9171    2.3593 H   0  0  0  0  0  0  0  0  0  0  0  0
   -4.1499   -0.3261    1.9986 H   0  0  0  0  0  0  0  0  0  0  0  0
  1  2  1  0
  1 30  1  0
  1 31  1  0
  1 32  1  0
  2  3  1  0
  2  4  1  0
  2 33  1  1
  3 34  1  0
  3 35  1  0
  4  5  2  0
  4  6  1  6
  4  7  1  0
  6 36  1  0
  7  8  1  0
  7 37  1  0
  7 38  1  0
  8  9  1  0
  8 17  1  0
  8 39  1  1
  9 10  2  0
  9 11  1  0
 11 12  1  0
 11 40  1  0
 12 13  1  0
 12 14  1  0
 12 41  1  6
 13 42  1  0
 13 43  1  0
 13 44  1  0
 14 15  1  0
 14 16  2  0
 15 45  1  0
 17 18  1  0
 17 46  1  0
 17 47  1  0
 18 19  2  0
 18 23  1  0
 19 20  1  0
 19 48  1  0
 20 21  2  0
 20 49  1  0
 21 22  1  0
 21 24  1  0
 22 23  2  0
 22 50  1  0
 23 51  1  0
 24 25  2  0
 24 29  1  0
 25 26  1  0
 25 52  1  0
 26 27  2  0
 26 53  1  0
 27 28  1  0
 27 54  1  0
 28 29  2  0
 28 55  1  0
 29 56  1  0
M  END
