
     RDKit          3D

 49 52  0  0  0  0  0  0  0  0999 V2000
   -3.4100    1.1074    0.0855 C   0  0  0  0  0  0  0  0  0  0  0  0
    3.3046   -1.2724    0.7400 C   0  0  0  0  0  0  0  0  0  0  0  0
    5.5863   -0.7581    1.2200 C   0  0  0  0  0  0  0  0  0  0  0  0
    1.3843    0.8987   -1.8419 C   0  0  0  0  0  0  0  0  0  0  0  0
    1.5411    3.6621    1.3748 C   0  0  0  0  0  0  0  0  0  0  0  0
    2.7055    2.9895    1.0341 C   0  0  0  0  0  0  0  0  0  0  0  0
    2.6744    2.0914   -0.0192 C   0  0  0  0  0  0  0  0  0  0  0  0
   -4.4891   -1.0185    0.2563 C   0  0  0  0  0  0  0  0  0  0  0  0
   -5.7048   -0.3958    0.4678 C   0  0  0  0  0  0  0  0  0  0  0  0
   -5.7791    0.9963    0.4918 C   0  0  0  0  0  0  0  0  0  0  0  0
   -6.9813    1.5603    0.7008 O   0  0  0  0  0  0  0  0  0  0  0  0
   -4.6188    1.7449    0.3045 C   0  0  0  0  0  0  0  0  0  0  0  0
   -3.3188   -0.2844    0.0510 C   0  0  0  0  0  0  0  0  0  0  0  0
   -2.0353   -0.9758   -0.1835 C   0  0  0  0  0  0  0  0  0  0  0  0
   -0.9654   -0.3198   -0.7641 C   0  0  0  0  0  0  0  0  0  0  0  0
   -1.9703   -2.2559    0.1910 N   0  0  0  0  0  0  0  0  0  0  0  0
   -0.8062   -2.8684   -0.0136 C   0  0  0  0  0  0  0  0  0  0  0  0
   -0.7402   -4.1832    0.3102 N   0  0  0  0  0  0  0  0  0  0  0  0
    0.2955   -2.3232   -0.5231 N   0  0  0  0  0  0  0  0  0  0  0  0
    0.2285   -1.0492   -0.9063 C   0  0  0  0  0  0  0  0  0  0  0  0
    1.3502   -0.4980   -1.4383 N   0  0  0  0  0  0  0  0  0  0  0  0
    1.4756    1.8848   -0.6969 C   0  0  0  0  0  0  0  0  0  0  0  0
    0.3672    2.5488   -0.3822 N   0  0  0  0  0  0  0  0  0  0  0  0
    0.4019    3.4113    0.6274 C   0  0  0  0  0  0  0  0  0  0  0  0
    2.5371   -1.2979   -1.6700 C   0  0  0  0  0  0  0  0  0  0  0  0
    3.6019   -1.1285   -0.6137 C   0  0  0  0  0  0  0  0  0  0  0  0
    4.8226   -0.8283   -1.0438 N   0  0  0  0  0  0  0  0  0  0  0  0
    5.7880   -0.6523   -0.1455 C   0  0  0  0  0  0  0  0  0  0  0  0
    4.3120   -1.0804    1.6681 C   0  0  0  0  0  0  0  0  0  0  0  0
   -2.5258    1.7200   -0.0407 H   0  0  0  0  0  0  0  0  0  0  0  0
    2.3033   -1.5314    1.0559 H   0  0  0  0  0  0  0  0  0  0  0  0
    6.4029   -0.5944    1.9093 H   0  0  0  0  0  0  0  0  0  0  0  0
    2.2498    1.0226   -2.4931 H   0  0  0  0  0  0  0  0  0  0  0  0
    0.5090    1.1389   -2.4495 H   0  0  0  0  0  0  0  0  0  0  0  0
    3.6256    3.1669    1.5751 H   0  0  0  0  0  0  0  0  0  0  0  0
    3.5739    1.5727   -0.3216 H   0  0  0  0  0  0  0  0  0  0  0  0
   -4.4454   -2.0991    0.2428 H   0  0  0  0  0  0  0  0  0  0  0  0
   -6.6011   -0.9853    0.6149 H   0  0  0  0  0  0  0  0  0  0  0  0
   -6.9107    2.5216    0.6867 H   0  0  0  0  0  0  0  0  0  0  0  0
   -4.6562    2.8279    0.3337 H   0  0  0  0  0  0  0  0  0  0  0  0
   -1.0421    0.7100   -1.0675 H   0  0  0  0  0  0  0  0  0  0  0  0
   -1.4551   -4.5435    0.9188 H   0  0  0  0  0  0  0  0  0  0  0  0
    0.1730   -4.5901    0.4203 H   0  0  0  0  0  0  0  0  0  0  0  0
   -0.5238    3.9306    0.8487 H   0  0  0  0  0  0  0  0  0  0  0  0
    2.2432   -2.3451   -1.7280 H   0  0  0  0  0  0  0  0  0  0  0  0
    2.9637   -1.0240   -2.6362 H   0  0  0  0  0  0  0  0  0  0  0  0
    6.7693   -0.4068   -0.5360 H   0  0  0  0  0  0  0  0  0  0  0  0
    4.1083   -1.1795    2.7263 H   0  0  0  0  0  0  0  0  0  0  0  0
    1.5161    4.3717    2.1900 H   0  0  0  0  0  0  0  0  0  0  0  0
 25 26  1  0
 25 21  1  0
  2 26  2  0
  2 29  1  0
 26 27  1  0
 29  3  2  0
  4 21  1  0
  4 22  1  0
 27 28  2  0
 21 20  1  0
  3 28  1  0
 22  7  2  0
 22 23  1  0
  7  6  1  0
 23 24  2  0
 20 15  2  0
 20 19  1  0
  6  5  2  0
 15 14  1  0
 24  5  1  0
 19 17  2  0
  8  9  2  0
  8 13  1  0
 14 13  1  0
 14 16  2  0
  9 10  1  0
 13  1  2  0
 17 16  1  0
 17 18  1  0
 10 11  1  0
 10 12  2  0
  1 12  1  0
  1 30  1  0
  2 31  1  0
  3 32  1  0
  4 33  1  0
  4 34  1  0
  5 49  1  0
  6 35  1  0
  7 36  1  0
  8 37  1  0
  9 38  1  0
 11 39  1  0
 12 40  1  0
 15 41  1  0
 18 42  1  0
 18 43  1  0
 24 44  1  0
 25 45  1  0
 25 46  1  0
 28 47  1  0
 29 48  1  0
M  END
