
     RDKit          3D

 65 68  0  0  0  0  0  0  0  0999 V2000
   -1.3932   -1.9885   -0.6154 N   0  0  0  0  0  0  0  0  0  0  0  0
    6.2586   -1.6999   -0.6859 N   0  0  0  0  0  0  0  0  0  0  0  0
   -4.9811   -2.3456   -1.4283 C   0  0  0  0  0  0  0  0  0  0  0  0
   -3.8603   -1.9733   -0.6981 C   0  0  0  0  0  0  0  0  0  0  0  0
   -3.9343   -0.9271    0.2094 C   0  0  0  0  0  0  0  0  0  0  0  0
   -6.3049    1.4999    1.4981 C   0  0  0  0  0  0  0  0  0  0  0  0
   -8.4731   -1.4507   -1.8498 C   0  0  0  0  0  0  0  0  0  0  0  0
   -0.5814   -2.2018    0.4364 C   0  0  0  0  0  0  0  0  0  0  0  0
    2.7317   -0.7195    1.4387 C   0  0  0  0  0  0  0  0  0  0  0  0
    1.3846    1.0513    0.4759 C   0  0  0  0  0  0  0  0  0  0  0  0
    4.0365   -1.1664    2.0469 C   0  0  0  0  0  0  0  0  0  0  0  0
    1.8511    4.4784   -1.0477 C   0  0  0  0  0  0  0  0  0  0  0  0
    0.7770    5.1369   -0.4835 C   0  0  0  0  0  0  0  0  0  0  0  0
   -0.1070    4.5067    0.3668 C   0  0  0  0  0  0  0  0  0  0  0  0
    6.6928   -0.4519   -0.2626 C   0  0  0  0  0  0  0  0  0  0  0  0
    6.7396   -2.4361   -1.8240 C   0  0  0  0  0  0  0  0  0  0  0  0
   -5.1398   -0.2510    0.3875 C   0  0  0  0  0  0  0  0  0  0  0  0
    0.5154   -1.2020    0.6193 C   0  0  0  0  0  0  0  0  0  0  0  0
    1.7023   -1.6204    1.2145 C   0  0  0  0  0  0  0  0  0  0  0  0
    2.5609    0.6106    1.0714 C   0  0  0  0  0  0  0  0  0  0  0  0
    0.3614    0.1318    0.2566 C   0  0  0  0  0  0  0  0  0  0  0  0
    1.2004    2.4758    0.1167 C   0  0  0  0  0  0  0  0  0  0  0  0
    2.0797    3.1359   -0.7560 C   0  0  0  0  0  0  0  0  0  0  0  0
   -6.2750   -0.6172   -0.3336 C   0  0  0  0  0  0  0  0  0  0  0  0
    0.1188    3.1700    0.6552 C   0  0  0  0  0  0  0  0  0  0  0  0
    5.2524   -2.1488    0.1331 C   0  0  0  0  0  0  0  0  0  0  0  0
    5.9753   -0.1191    0.8202 C   0  0  0  0  0  0  0  0  0  0  0  0
   -6.1852   -1.6713   -1.2430 C   0  0  0  0  0  0  0  0  0  0  0  0
   -2.5809   -2.7567   -0.8852 C   0  0  0  0  0  0  0  0  0  0  0  0
    5.1055   -1.1676    1.0814 N   0  0  0  0  0  0  0  0  0  0  0  0
   -5.1239    0.7533    1.2835 O   0  0  0  0  0  0  0  0  0  0  0  0
   -7.2217   -2.0933   -1.9908 O   0  0  0  0  0  0  0  0  0  0  0  0
   -0.7119   -3.1409    1.2087 O   0  0  0  0  0  0  0  0  0  0  0  0
   -1.1648   -1.2581   -1.2706 H   0  0  0  0  0  0  0  0  0  0  0  0
   -4.9267   -3.1556   -2.1460 H   0  0  0  0  0  0  0  0  0  0  0  0
   -3.0689   -0.6192    0.7826 H   0  0  0  0  0  0  0  0  0  0  0  0
   -6.0594    2.2593    2.2365 H   0  0  0  0  0  0  0  0  0  0  0  0
   -6.6466    1.9955    0.5856 H   0  0  0  0  0  0  0  0  0  0  0  0
   -7.1165    0.8802    1.8883 H   0  0  0  0  0  0  0  0  0  0  0  0
   -8.8701   -1.5488   -0.8361 H   0  0  0  0  0  0  0  0  0  0  0  0
   -8.4198   -0.3897   -2.1071 H   0  0  0  0  0  0  0  0  0  0  0  0
   -9.1527   -1.9432   -2.5408 H   0  0  0  0  0  0  0  0  0  0  0  0
    4.3257   -0.5024    2.8628 H   0  0  0  0  0  0  0  0  0  0  0  0
    3.9383   -2.1690    2.4638 H   0  0  0  0  0  0  0  0  0  0  0  0
    2.5084    5.0088   -1.7258 H   0  0  0  0  0  0  0  0  0  0  0  0
   -0.9446    5.0392    0.7967 H   0  0  0  0  0  0  0  0  0  0  0  0
    4.0909    2.3436   -0.7277 H   0  0  0  0  0  0  0  0  0  0  0  0
    2.9806    1.4308   -1.7285 H   0  0  0  0  0  0  0  0  0  0  0  0
    3.5834    2.9935   -2.2780 H   0  0  0  0  0  0  0  0  0  0  0  0
    7.4847    0.0771   -0.7638 H   0  0  0  0  0  0  0  0  0  0  0  0
    7.5332   -1.8697   -2.3033 H   0  0  0  0  0  0  0  0  0  0  0  0
    7.1430   -3.4055   -1.5274 H   0  0  0  0  0  0  0  0  0  0  0  0
    5.9462   -2.6000   -2.5554 H   0  0  0  0  0  0  0  0  0  0  0  0
    1.8322   -2.6579    1.4927 H   0  0  0  0  0  0  0  0  0  0  0  0
    3.3535    1.3247    1.2643 H   0  0  0  0  0  0  0  0  0  0  0  0
   -0.5639    0.4811   -0.1871 H   0  0  0  0  0  0  0  0  0  0  0  0
   -7.2087   -0.0915   -0.1949 H   0  0  0  0  0  0  0  0  0  0  0  0
   -0.5570    2.6587    1.3296 H   0  0  0  0  0  0  0  0  0  0  0  0
    6.0213    0.7549    1.4469 H   0  0  0  0  0  0  0  0  0  0  0  0
   -2.5372   -3.1469   -1.9037 H   0  0  0  0  0  0  0  0  0  0  0  0
   -2.5825   -3.6204   -0.2199 H   0  0  0  0  0  0  0  0  0  0  0  0
    4.8466   -3.8251   -0.6689 H   0  0  0  0  0  0  0  0  0  0  0  0
    0.5858    6.4329   -0.7802 F   0  0  0  0  0  0  0  0  0  0  0  0
    3.2414    2.4383   -1.4058 C   0  0  0  0  0  0  0  0  0  0  0  0
    4.5545   -3.2296    0.0960 N   0  0  0  0  0  0  0  0  0  0  0  0
 63 13  1  0
 12 13  2  0
 12 23  1  0
 64 23  1  0
 13 14  1  0
 23 22  2  0
 22 25  1  0
 22 10  1  0
 14 25  2  0
 10 20  2  0
 10 21  1  0
 20  9  1  0
 21 18  2  0
  9 11  1  0
  9 19  2  0
 11 30  1  0
 18 19  1  0
 18  8  1  0
 27 30  1  0
 27 15  2  0
 30 26  1  0
  8 33  2  0
  8  1  1  0
 15  2  1  0
  1 29  1  0
 26 65  2  0
 26  2  1  0
  2 16  1  0
 29  4  1  0
  4  3  2  0
  4  5  1  0
  3 28  1  0
  5 17  2  0
 28 32  1  0
 28 24  2  0
 17 24  1  0
 17 31  1  0
  6 31  1  0
 32  7  1  0
  1 34  1  0
  3 35  1  0
  5 36  1  0
  6 37  1  0
  6 38  1  0
  6 39  1  0
  7 40  1  0
  7 41  1  0
  7 42  1  0
 11 43  1  0
 11 44  1  0
 12 45  1  0
 14 46  1  0
 64 47  1  0
 64 48  1  0
 64 49  1  0
 15 50  1  0
 16 51  1  0
 16 52  1  0
 16 53  1  0
 19 54  1  0
 20 55  1  0
 21 56  1  0
 24 57  1  0
 25 58  1  0
 27 59  1  0
 29 60  1  0
 29 61  1  0
 65 62  1  0
M  END
