
     RDKit          3D

 24 25  0  0  0  0  0  0  0  0999 V2000
    0.5460    0.0983    0.0544 N   0  0  0  0  0  0  0  0  0  0  0  0
   -1.4416    1.3428   -0.2801 N   0  0  0  0  0  0  0  0  0  0  0  0
    1.3255    1.3280    0.1262 C   0  0  0  0  0  0  0  0  0  0  0  0
    2.7240    1.0234    0.6407 C   0  0  0  0  0  0  0  0  0  0  0  0
   -0.8116    0.2379   -0.0356 C   0  0  0  0  0  0  0  0  0  0  0  0
   -1.8020   -0.7841    0.2085 C   0  0  0  0  0  0  0  0  0  0  0  0
    3.4128   -0.0384   -0.2079 C   0  0  0  0  0  0  0  0  0  0  0  0
    2.5355   -1.2797   -0.3160 C   0  0  0  0  0  0  0  0  0  0  0  0
    1.1497   -0.9142   -0.8169 C   0  0  0  0  0  0  0  0  0  0  0  0
   -2.9717   -0.2438    0.0949 N   0  0  0  0  0  0  0  0  0  0  0  0
   -1.5670   -2.0983    0.4804 N   0  0  0  0  0  0  0  0  0  0  0  0
   -2.7587    1.0644   -0.2005 O   0  0  0  0  0  0  0  0  0  0  0  0
    1.3827    1.8121   -0.8594 H   0  0  0  0  0  0  0  0  0  0  0  0
    0.8213    2.0234    0.7978 H   0  0  0  0  0  0  0  0  0  0  0  0
    3.3054    1.9474    0.6516 H   0  0  0  0  0  0  0  0  0  0  0  0
    2.6520    0.6780    1.6759 H   0  0  0  0  0  0  0  0  0  0  0  0
    3.6042    0.3600   -1.2098 H   0  0  0  0  0  0  0  0  0  0  0  0
    4.3853   -0.2929    0.2180 H   0  0  0  0  0  0  0  0  0  0  0  0
    2.9773   -2.0099   -0.9967 H   0  0  0  0  0  0  0  0  0  0  0  0
    2.4493   -1.7613    0.6627 H   0  0  0  0  0  0  0  0  0  0  0  0
    0.5106   -1.7960   -0.8531 H   0  0  0  0  0  0  0  0  0  0  0  0
    1.2168   -0.5267   -1.8434 H   0  0  0  0  0  0  0  0  0  0  0  0
   -0.7539   -2.2669    1.0538 H   0  0  0  0  0  0  0  0  0  0  0  0
   -2.3691   -2.6131    0.8120 H   0  0  0  0  0  0  0  0  0  0  0  0
  8  7  1  0
  8  9  1  0
  7  4  1  0
  9  1  1  0
  4  3  1  0
  3  1  1  0
  1  5  1  0
 11  6  1  0
  5  6  1  0
  5  2  2  0
  6 10  2  0
  2 12  1  0
 10 12  1  0
  3 13  1  0
  3 14  1  0
  4 15  1  0
  4 16  1  0
  7 17  1  0
  7 18  1  0
  8 19  1  0
  8 20  1  0
  9 21  1  0
  9 22  1  0
 11 23  1  0
 11 24  1  0
M  END
