
     RDKit          3D

 39 39  0  0  0  0  0  0  0  0999 V2000
   20.5207  -33.4348    7.3852 O   0  0  0  0  0  0  0  0  0  0  0  0
   20.3530  -34.6270    7.2636 C   0  0  0  0  0  0  0  0  0  0  0  0
   19.5106  -35.3870    7.9604 N   0  0  0  0  0  0  0  0  0  0  0  0
   18.6631  -34.7987    8.8401 O   0  0  0  0  0  0  0  0  0  0  0  0
   21.1727  -35.3949    6.2032 C   0  0  2  0  0  0  0  0  0  0  0  0
   21.1486  -36.7268    6.4202 F   0  0  0  0  0  0  0  0  0  0  0  0
   22.4445  -34.9798    6.2798 F   0  0  0  0  0  0  0  0  0  0  0  0
   20.6231  -35.1108    4.7816 C   0  0  1  0  0  0  0  0  0  0  0  0
   19.2873  -35.2593    4.8355 F   0  0  0  0  0  0  0  0  0  0  0  0
   20.8987  -33.8336    4.4781 F   0  0  0  0  0  0  0  0  0  0  0  0
   21.1725  -36.0362    3.6545 C   0  0  2  0  0  0  0  0  0  0  0  0
   20.5783  -37.2334    3.7716 F   0  0  0  0  0  0  0  0  0  0  0  0
   22.4939  -36.1928    3.8250 F   0  0  0  0  0  0  0  0  0  0  0  0
   20.9325  -35.4874    2.2129 C   0  0  2  0  0  0  0  0  0  0  0  0
   21.8129  -34.4996    1.9929 F   0  0  0  0  0  0  0  0  0  0  0  0
   19.6905  -34.9846    2.1406 F   0  0  0  0  0  0  0  0  0  0  0  0
   21.0869  -36.5567    1.0908 C   0  0  2  0  0  0  0  0  0  0  0  0
   19.9929  -37.3392    1.0996 F   0  0  0  0  0  0  0  0  0  0  0  0
   22.1594  -37.3196    1.3514 F   0  0  0  0  0  0  0  0  0  0  0  0
   21.2389  -35.9946   -0.3471 C   0  0  2  0  0  0  0  0  0  0  0  0
   22.4570  -35.4555   -0.4870 F   0  0  0  0  0  0  0  0  0  0  0  0
   20.3219  -35.0210   -0.5318 F   0  0  0  0  0  0  0  0  0  0  0  0
   21.0900  -37.1272   -1.3931 C   0  0  0  0  0  0  0  0  0  0  0  0
   22.0326  -37.8682   -1.5597 O   0  0  0  0  0  0  0  0  0  0  0  0
   19.8972  -37.1674   -1.9992 N   0  0  0  0  0  0  0  0  0  0  0  0
   19.4447  -38.0677   -2.9789 C   0  0  0  0  0  0  0  0  0  0  0  0
   18.1486  -37.8594   -3.4523 C   0  0  0  0  0  0  0  0  0  0  0  0
   17.6125  -38.6945   -4.4164 C   0  0  0  0  0  0  0  0  0  0  0  0
   18.3601  -39.7498   -4.9232 C   0  0  0  0  0  0  0  0  0  0  0  0
   19.6473  -39.9542   -4.4501 C   0  0  0  0  0  0  0  0  0  0  0  0
   20.2001  -39.1252   -3.4822 C   0  0  0  0  0  0  0  0  0  0  0  0
   19.3658  -36.3757    7.8100 H   0  0  0  0  0  0  0  0  0  0  0  0
   19.0949  -34.8387    9.7053 H   0  0  0  0  0  0  0  0  0  0  0  0
   19.2261  -36.4537   -1.7541 H   0  0  0  0  0  0  0  0  0  0  0  0
   17.5563  -37.0407   -3.0602 H   0  0  0  0  0  0  0  0  0  0  0  0
   16.6057  -38.5173   -4.7706 H   0  0  0  0  0  0  0  0  0  0  0  0
   17.9425  -40.4035   -5.6773 H   0  0  0  0  0  0  0  0  0  0  0  0
   20.2422  -40.7711   -4.8371 H   0  0  0  0  0  0  0  0  0  0  0  0
   21.2032  -39.3127   -3.1375 H   0  0  0  0  0  0  0  0  0  0  0  0
 29 28  2  0
 29 30  1  0
 28 27  1  0
 30 31  2  0
 27 26  2  0
 31 26  1  0
 26 25  1  0
 25 23  1  0
 23 24  2  0
 23 20  1  0
 20 21  1  1
 20 22  1  0
 20 17  1  0
 17 19  1  1
 17 18  1  0
 17 14  1  0
 14 15  1  6
 14 16  1  0
 14 11  1  0
 11 13  1  1
 11 12  1  0
 11  8  1  0
  8 10  1  6
  8  9  1  0
  8  5  1  0
  5  7  1  6
  5  6  1  0
  5  2  1  0
  2  1  2  0
  2  3  1  0
  3  4  1  0
  3 32  1  0
  4 33  1  0
 25 34  1  0
 27 35  1  0
 28 36  1  0
 29 37  1  0
 30 38  1  0
 31 39  1  0
M  END
