
     RDKit          3D

 25 26  0  0  0  0  0  0  0  0999 V2000
   -3.3502   -1.8933    0.9249 N   0  0  0  0  0  0  0  0  0  0  0  0
   -2.1110   -0.0141    0.2930 N   0  0  0  0  0  0  0  0  0  0  0  0
   -3.2181   -0.8263    0.2341 C   0  0  0  0  0  0  0  0  0  0  0  0
   -4.0936   -0.2531   -0.6610 N   0  0  0  0  0  0  0  0  0  0  0  0
   -3.4251    0.7954   -1.4105 C   0  0  0  0  0  0  0  0  0  0  0  0
   -2.3502    1.2225   -0.4192 C   0  0  0  0  0  0  0  0  0  0  0  0
    2.8344    0.2875    0.2044 C   0  0  0  0  0  0  0  0  0  0  0  0
    4.5076    0.4571   -0.2333 Cl  0  0  0  0  0  0  0  0  0  0  0  0
    2.4220    0.9918    1.2265 N   0  0  0  0  0  0  0  0  0  0  0  0
    1.1429    0.8781    1.5774 C   0  0  0  0  0  0  0  0  0  0  0  0
    0.2364    0.0559    0.9271 C   0  0  0  0  0  0  0  0  0  0  0  0
    0.7074   -0.6745   -0.1610 C   0  0  0  0  0  0  0  0  0  0  0  0
    2.0318   -0.5659   -0.5400 C   0  0  0  0  0  0  0  0  0  0  0  0
   -4.2286   -2.3489    0.7090 H   0  0  0  0  0  0  0  0  0  0  0  0
   -2.9779    0.4188   -2.3360 H   0  0  0  0  0  0  0  0  0  0  0  0
   -2.7157    2.0079    0.2546 H   0  0  0  0  0  0  0  0  0  0  0  0
    0.8260    1.4787    2.4235 H   0  0  0  0  0  0  0  0  0  0  0  0
    0.0395   -1.3232   -0.7136 H   0  0  0  0  0  0  0  0  0  0  0  0
    2.4276   -1.1195   -1.3792 H   0  0  0  0  0  0  0  0  0  0  0  0
   -1.4007    0.7423    2.1173 H   0  0  0  0  0  0  0  0  0  0  0  0
   -1.3354   -1.0022    1.9121 H   0  0  0  0  0  0  0  0  0  0  0  0
   -4.7157   -0.8711   -1.1583 H   0  0  0  0  0  0  0  0  0  0  0  0
   -4.1040    1.6086   -1.6627 H   0  0  0  0  0  0  0  0  0  0  0  0
   -1.4492    1.5899   -0.9104 H   0  0  0  0  0  0  0  0  0  0  0  0
   -1.1906   -0.0538    1.3917 C   0  0  0  0  0  0  0  0  0  0  0  0
 13 12  1  0
 13  7  2  0
  6  5  1  0
  6  2  1  0
 12 11  2  0
  8  7  1  0
  7  9  1  0
  5  4  1  0
 11 25  1  0
 11 10  1  0
 25  2  1  0
  2  3  1  0
  9 10  2  0
  4  3  1  0
  3  1  2  0
  1 14  1  0
  5 15  1  0
  6 16  1  0
 10 17  1  0
 12 18  1  0
 13 19  1  0
 25 20  1  0
 25 21  1  0
  4 22  1  0
  5 23  1  0
  6 24  1  0
M  END
