
     RDKit          3D

101100  0  0  0  0  0  0  0  0999 V2000
   17.8333    1.0802    1.6438 O   0  0  0  0  0  0  0  0  0  0  0  0
   17.0730    2.0085    0.9050 C   0  0  0  0  0  0  0  0  0  0  0  0
   16.4485    1.3201   -0.2813 C   0  0  0  0  0  0  0  0  0  0  0  0
   15.5219    0.3568    0.1538 O   0  0  0  0  0  0  0  0  0  0  0  0
   14.8820   -0.2940   -0.9132 C   0  0  0  0  0  0  0  0  0  0  0  0
   13.9365   -1.3408   -0.3834 C   0  0  0  0  0  0  0  0  0  0  0  0
   12.9031   -0.7270    0.3434 O   0  0  0  0  0  0  0  0  0  0  0  0
   11.9748   -1.6504    0.8524 C   0  0  0  0  0  0  0  0  0  0  0  0
   10.9388   -0.9302    1.6756 C   0  0  0  0  0  0  0  0  0  0  0  0
   10.1632   -0.0983    0.8506 O   0  0  0  0  0  0  0  0  0  0  0  0
    9.1920    0.6179    1.5695 C   0  0  0  0  0  0  0  0  0  0  0  0
    8.3908    1.4832    0.6317 C   0  0  0  0  0  0  0  0  0  0  0  0
    7.6465    0.6768   -0.2457 O   0  0  0  0  0  0  0  0  0  0  0  0
    6.8135    1.4274   -1.0915 C   0  0  0  0  0  0  0  0  0  0  0  0
    6.0535    0.5079   -2.0124 C   0  0  0  0  0  0  0  0  0  0  0  0
    5.1996   -0.3185   -1.2637 O   0  0  0  0  0  0  0  0  0  0  0  0
    4.4087   -1.1519   -2.0721 C   0  0  0  0  0  0  0  0  0  0  0  0
    3.5700   -2.0585   -1.2086 C   0  0  0  0  0  0  0  0  0  0  0  0
    2.6678   -1.2952   -0.4498 O   0  0  0  0  0  0  0  0  0  0  0  0
    1.8166   -2.0881    0.3376 C   0  0  0  0  0  0  0  0  0  0  0  0
    0.9333   -1.2065    1.1822 C   0  0  0  0  0  0  0  0  0  0  0  0
    0.0865   -0.4490    0.3560 O   0  0  0  0  0  0  0  0  0  0  0  0
   -0.7770    0.3853    1.0844 C   0  0  0  0  0  0  0  0  0  0  0  0
   -1.6111    1.2080    0.1366 C   0  0  0  0  0  0  0  0  0  0  0  0
   -2.4676    0.3695   -0.5962 O   0  0  0  0  0  0  0  0  0  0  0  0
   -3.2706    1.0758   -1.5067 C   0  0  0  0  0  0  0  0  0  0  0  0
   -4.2146    0.1258   -2.1982 C   0  0  0  0  0  0  0  0  0  0  0  0
   -5.1247   -0.3935   -1.2627 O   0  0  0  0  0  0  0  0  0  0  0  0
   -6.0751   -1.2528   -1.8380 C   0  0  0  0  0  0  0  0  0  0  0  0
   -6.9888   -1.7849   -0.7640 C   0  0  0  0  0  0  0  0  0  0  0  0
   -7.7221   -0.7266   -0.2033 O   0  0  0  0  0  0  0  0  0  0  0  0
   -8.5258   -1.1275    0.8765 C   0  0  0  0  0  0  0  0  0  0  0  0
   -9.2390    0.0705    1.4483 C   0  0  0  0  0  0  0  0  0  0  0  0
  -10.1817    0.5476    0.5219 O   0  0  0  0  0  0  0  0  0  0  0  0
  -10.8602    1.6906    0.9765 C   0  0  0  0  0  0  0  0  0  0  0  0
  -11.9109    2.0936   -0.0255 C   0  0  0  0  0  0  0  0  0  0  0  0
  -12.9117    1.1097   -0.0856 O   0  0  0  0  0  0  0  0  0  0  0  0
  -13.9403    1.4357   -0.9853 C   0  0  0  0  0  0  0  0  0  0  0  0
  -14.9653    0.3315   -1.0067 C   0  0  0  0  0  0  0  0  0  0  0  0
  -15.5936    0.2415    0.2459 O   0  0  0  0  0  0  0  0  0  0  0  0
  -16.5685   -0.7696    0.2924 C   0  0  0  0  0  0  0  0  0  0  0  0
  -17.1993   -0.8146    1.6606 C   0  0  0  0  0  0  0  0  0  0  0  0
  -17.9204    0.3750    1.8869 O   0  0  0  0  0  0  0  0  0  0  0  0
   18.2323    1.5441    2.3848 H   0  0  0  0  0  0  0  0  0  0  0  0
   16.2833    2.4669    1.5147 H   0  0  0  0  0  0  0  0  0  0  0  0
   17.6904    2.8291    0.5180 H   0  0  0  0  0  0  0  0  0  0  0  0
   15.9600    2.0843   -0.9022 H   0  0  0  0  0  0  0  0  0  0  0  0
   17.2295    0.8588   -0.9037 H   0  0  0  0  0  0  0  0  0  0  0  0
   14.3361    0.4245   -1.5421 H   0  0  0  0  0  0  0  0  0  0  0  0
   15.6104   -0.7953   -1.5661 H   0  0  0  0  0  0  0  0  0  0  0  0
   13.5398   -1.9046   -1.2394 H   0  0  0  0  0  0  0  0  0  0  0  0
   14.4863   -2.0584    0.2427 H   0  0  0  0  0  0  0  0  0  0  0  0
   11.4890   -2.2118    0.0409 H   0  0  0  0  0  0  0  0  0  0  0  0
   12.4665   -2.3900    1.4999 H   0  0  0  0  0  0  0  0  0  0  0  0
   10.3141   -1.6833    2.1758 H   0  0  0  0  0  0  0  0  0  0  0  0
   11.4318   -0.3495    2.4688 H   0  0  0  0  0  0  0  0  0  0  0  0
    8.5209   -0.0623    2.1139 H   0  0  0  0  0  0  0  0  0  0  0  0
    9.6589    1.2707    2.3205 H   0  0  0  0  0  0  0  0  0  0  0  0
    7.7313    2.1182    1.2395 H   0  0  0  0  0  0  0  0  0  0  0  0
    9.0592    2.1580    0.0775 H   0  0  0  0  0  0  0  0  0  0  0  0
    6.1100    2.0386   -0.5078 H   0  0  0  0  0  0  0  0  0  0  0  0
    7.3977    2.1212   -1.7122 H   0  0  0  0  0  0  0  0  0  0  0  0
    5.4860    1.1313   -2.7176 H   0  0  0  0  0  0  0  0  0  0  0  0
    6.7548   -0.0909   -2.6112 H   0  0  0  0  0  0  0  0  0  0  0  0
    3.7614   -0.5586   -2.7340 H   0  0  0  0  0  0  0  0  0  0  0  0
    5.0320   -1.7840   -2.7198 H   0  0  0  0  0  0  0  0  0  0  0  0
    3.0404   -2.7594   -1.8691 H   0  0  0  0  0  0  0  0  0  0  0  0
    4.2184   -2.6633   -0.5582 H   0  0  0  0  0  0  0  0  0  0  0  0
    1.1999   -2.7473   -0.2904 H   0  0  0  0  0  0  0  0  0  0  0  0
    2.3909   -2.7380    1.0124 H   0  0  0  0  0  0  0  0  0  0  0  0
    0.3554   -1.8520    1.8582 H   0  0  0  0  0  0  0  0  0  0  0  0
    1.5510   -0.5540    1.8161 H   0  0  0  0  0  0  0  0  0  0  0  0
   -1.4299   -0.2022    1.7462 H   0  0  0  0  0  0  0  0  0  0  0  0
   -0.2123    1.0756    1.7264 H   0  0  0  0  0  0  0  0  0  0  0  0
   -2.1829    1.9360    0.7290 H   0  0  0  0  0  0  0  0  0  0  0  0
   -0.9559    1.7861   -0.5310 H   0  0  0  0  0  0  0  0  0  0  0  0
   -3.8461    1.8633   -0.9985 H   0  0  0  0  0  0  0  0  0  0  0  0
   -2.6588    1.5740   -2.2716 H   0  0  0  0  0  0  0  0  0  0  0  0
   -4.7339    0.6807   -2.9923 H   0  0  0  0  0  0  0  0  0  0  0  0
   -3.6497   -0.6796   -2.6900 H   0  0  0  0  0  0  0  0  0  0  0  0
   -6.6634   -0.7325   -2.6079 H   0  0  0  0  0  0  0  0  0  0  0  0
   -5.5925   -2.1078   -2.3315 H   0  0  0  0  0  0  0  0  0  0  0  0
   -7.6523   -2.5345   -1.2174 H   0  0  0  0  0  0  0  0  0  0  0  0
   -6.3989   -2.3060    0.0040 H   0  0  0  0  0  0  0  0  0  0  0  0
   -9.2591   -1.8873    0.5689 H   0  0  0  0  0  0  0  0  0  0  0  0
   -7.9180   -1.5790    1.6731 H   0  0  0  0  0  0  0  0  0  0  0  0
   -9.7268   -0.2318    2.3854 H   0  0  0  0  0  0  0  0  0  0  0  0
   -8.5069    0.8495    1.7065 H   0  0  0  0  0  0  0  0  0  0  0  0
  -11.3283    1.5097    1.9550 H   0  0  0  0  0  0  0  0  0  0  0  0
  -10.1690    2.5351    1.1069 H   0  0  0  0  0  0  0  0  0  0  0  0
  -12.3251    3.0619    0.2881 H   0  0  0  0  0  0  0  0  0  0  0  0
  -11.4507    2.2502   -1.0119 H   0  0  0  0  0  0  0  0  0  0  0  0
  -14.4174    2.3876   -0.7103 H   0  0  0  0  0  0  0  0  0  0  0  0
  -13.5496    1.5599   -2.0051 H   0  0  0  0  0  0  0  0  0  0  0  0
  -15.6932    0.5535   -1.8000 H   0  0  0  0  0  0  0  0  0  0  0  0
  -14.4843   -0.6203   -1.2763 H   0  0  0  0  0  0  0  0  0  0  0  0
  -17.3424   -0.6051   -0.4720 H   0  0  0  0  0  0  0  0  0  0  0  0
  -16.1260   -1.7547    0.0882 H   0  0  0  0  0  0  0  0  0  0  0  0
  -17.8479   -1.6992    1.6916 H   0  0  0  0  0  0  0  0  0  0  0  0
  -16.4171   -0.9677    2.4157 H   0  0  0  0  0  0  0  0  0  0  0  0
  -18.3121    0.3244    2.7630 H   0  0  0  0  0  0  0  0  0  0  0  0
  1  2  1  0
  1 44  1  0
  2  3  1  0
  2 45  1  0
  2 46  1  0
  3  4  1  0
  3 47  1  0
  3 48  1  0
  4  5  1  0
  5  6  1  0
  5 49  1  0
  5 50  1  0
  6  7  1  0
  6 51  1  0
  6 52  1  0
  7  8  1  0
  8  9  1  0
  8 53  1  0
  8 54  1  0
  9 10  1  0
  9 55  1  0
  9 56  1  0
 10 11  1  0
 11 12  1  0
 11 57  1  0
 11 58  1  0
 12 13  1  0
 12 59  1  0
 12 60  1  0
 13 14  1  0
 14 15  1  0
 14 61  1  0
 14 62  1  0
 15 16  1  0
 15 63  1  0
 15 64  1  0
 16 17  1  0
 17 18  1  0
 17 65  1  0
 17 66  1  0
 18 19  1  0
 18 67  1  0
 18 68  1  0
 19 20  1  0
 20 21  1  0
 20 69  1  0
 20 70  1  0
 21 22  1  0
 21 71  1  0
 21 72  1  0
 22 23  1  0
 23 24  1  0
 23 73  1  0
 23 74  1  0
 24 25  1  0
 24 75  1  0
 24 76  1  0
 25 26  1  0
 26 27  1  0
 26 77  1  0
 26 78  1  0
 27 28  1  0
 27 79  1  0
 27 80  1  0
 28 29  1  0
 29 30  1  0
 29 81  1  0
 29 82  1  0
 30 31  1  0
 30 83  1  0
 30 84  1  0
 31 32  1  0
 32 33  1  0
 32 85  1  0
 32 86  1  0
 33 34  1  0
 33 87  1  0
 33 88  1  0
 34 35  1  0
 35 36  1  0
 35 89  1  0
 35 90  1  0
 36 37  1  0
 36 91  1  0
 36 92  1  0
 37 38  1  0
 38 39  1  0
 38 93  1  0
 38 94  1  0
 39 40  1  0
 39 95  1  0
 39 96  1  0
 40 41  1  0
 41 42  1  0
 41 97  1  0
 41 98  1  0
 42 43  1  0
 42 99  1  0
 42100  1  0
 43101  1  0
M  END
