
     RDKit          3D

 29 30  0  0  0  0  0  0  0  0999 V2000
   -1.0178   -0.4387    0.6300 N   0  0  0  0  0  0  0  0  0  0  0  0
   -2.1052    0.1732    1.1846 C   0  0  0  0  0  0  0  0  0  0  0  0
   -1.9083    0.5788    2.4056 N   0  0  0  0  0  0  0  0  0  0  0  0
   -0.6132    0.2191    2.6736 C   0  0  0  0  0  0  0  0  0  0  0  0
    0.2084    0.3644    3.8067 C   0  0  0  0  0  0  0  0  0  0  0  0
   -0.2121    0.9441    4.9326 N   0  0  0  0  0  0  0  0  0  0  0  0
    1.4565   -0.1130    3.7421 N   0  0  0  0  0  0  0  0  0  0  0  0
    1.8701   -0.6996    2.6213 C   0  0  0  0  0  0  0  0  0  0  0  0
    1.1995   -0.8897    1.4990 N   0  0  0  0  0  0  0  0  0  0  0  0
   -0.0410   -0.4096    1.5792 C   0  0  0  0  0  0  0  0  0  0  0  0
   -0.8902   -0.9630   -0.7089 C   0  0  0  0  0  0  0  0  0  0  0  0
   -0.2882    0.0652   -1.6656 C   0  0  1  0  0  0  0  0  0  0  0  0
    0.9096    0.6114   -1.1877 O   0  0  0  0  0  0  0  0  0  0  0  0
   -0.1073   -0.5633   -3.0612 C   0  0  1  0  0  0  0  0  0  0  0  0
   -1.3289   -0.9494   -3.6208 O   0  0  0  0  0  0  0  0  0  0  0  0
    0.6023    0.4438   -3.9546 C   0  0  0  0  0  0  0  0  0  0  0  0
    0.0119    1.3232   -4.5302 O   0  0  0  0  0  0  0  0  0  0  0  0
    1.9064    0.2530   -4.0191 O   0  0  0  0  0  0  0  0  0  0  0  0
   -3.0271    0.2808    0.6317 H   0  0  0  0  0  0  0  0  0  0  0  0
    0.4274    1.0916    5.6943 H   0  0  0  0  0  0  0  0  0  0  0  0
   -1.1159    1.3805    4.9823 H   0  0  0  0  0  0  0  0  0  0  0  0
    2.8917   -1.0642    2.6361 H   0  0  0  0  0  0  0  0  0  0  0  0
   -0.2635   -1.8565   -0.6637 H   0  0  0  0  0  0  0  0  0  0  0  0
   -1.8739   -1.2737   -1.0561 H   0  0  0  0  0  0  0  0  0  0  0  0
   -0.9847    0.9063   -1.7576 H   0  0  0  0  0  0  0  0  0  0  0  0
    1.4991   -0.0941   -0.8936 H   0  0  0  0  0  0  0  0  0  0  0  0
    0.5030   -1.4674   -2.9747 H   0  0  0  0  0  0  0  0  0  0  0  0
   -1.8617   -0.1620   -3.7851 H   0  0  0  0  0  0  0  0  0  0  0  0
    2.3218    0.9392   -4.5644 H   0  0  0  0  0  0  0  0  0  0  0  0
  1  2  1  0
  1 10  1  0
  1 11  1  0
  2  3  2  0
  2 19  1  0
  3  4  1  0
  4  5  1  0
  4 10  2  0
  5  6  1  0
  5  7  2  0
  6 20  1  0
  6 21  1  0
  7  8  1  0
  8  9  2  0
  8 22  1  0
  9 10  1  0
 11 12  1  0
 11 23  1  0
 11 24  1  0
 12 13  1  0
 12 14  1  0
 12 25  1  6
 13 26  1  0
 14 15  1  0
 14 16  1  0
 14 27  1  1
 15 28  1  0
 16 17  2  0
 16 18  1  0
 18 29  1  0
M  END
