
     RDKit          3D

 27 27  0  0  0  0  0  0  0  0999 V2000
   -3.2523    0.1493    0.1031 S   0  0  1  0  0  0  0  0  0  0  0  0
   -4.3487   -0.1921    0.9915 O   0  0  0  0  0  0  0  0  0  0  0  0
   -2.9411    1.5451   -0.1336 O   0  0  0  0  0  0  0  0  0  0  0  0
   -1.9314   -0.5861    0.7340 N   0  0  0  0  0  0  0  0  0  0  0  0
   -0.6740   -0.5596    0.0058 C   0  0  0  0  0  0  0  0  0  0  0  0
    0.4645   -0.5336    1.0190 C   0  0  0  0  0  0  0  0  0  0  0  0
    3.5915   -1.5357   -0.4663 N   0  0  0  0  0  0  0  0  0  0  0  0
    2.5377    0.3925   -0.1836 C   0  0  0  0  0  0  0  0  0  0  0  0
    3.6627   -0.2122   -0.6830 C   0  0  0  0  0  0  0  0  0  0  0  0
    2.4473   -1.7502    0.1602 C   0  0  0  0  0  0  0  0  0  0  0  0
    1.9672   -3.0831    0.5985 C   0  0  0  0  0  0  0  0  0  0  0  0
    1.7617   -0.6064    0.3641 N   0  0  0  0  0  0  0  0  0  0  0  0
    1.1369    2.1328    0.1774 O   0  0  0  0  0  0  0  0  0  0  0  0
    3.0627    2.5043   -0.6843 O   0  0  0  0  0  0  0  0  0  0  0  0
   -3.4062   -0.5253   -1.3982 N   0  0  0  0  0  0  0  0  0  0  0  0
   -2.1539   -1.4739    1.1701 H   0  0  0  0  0  0  0  0  0  0  0  0
   -0.5785   -1.4210   -0.6602 H   0  0  0  0  0  0  0  0  0  0  0  0
   -0.6347    0.3353   -0.6124 H   0  0  0  0  0  0  0  0  0  0  0  0
    0.4120    0.3567    1.6373 H   0  0  0  0  0  0  0  0  0  0  0  0
    0.3951   -1.3909    1.6868 H   0  0  0  0  0  0  0  0  0  0  0  0
    4.4970    0.2517   -1.1849 H   0  0  0  0  0  0  0  0  0  0  0  0
    1.8725   -3.1410    1.6841 H   0  0  0  0  0  0  0  0  0  0  0  0
    0.9961   -3.3278    0.1671 H   0  0  0  0  0  0  0  0  0  0  0  0
    2.6811   -3.8375    0.2788 H   0  0  0  0  0  0  0  0  0  0  0  0
   -4.0022    0.0288   -2.0048 H   0  0  0  0  0  0  0  0  0  0  0  0
   -3.7342   -1.4849   -1.3657 H   0  0  0  0  0  0  0  0  0  0  0  0
    2.2199    1.7608   -0.2275 N   0  0  0  0  0  0  0  0  0  0  0  0
 14 27  2  0
 13 27  1  0
 27  8  1  0
  8 12  1  0
  8  9  2  0
  6 12  1  0
  6  5  1  0
 12 10  1  0
  9  7  1  0
  5  4  1  0
 10  7  2  0
 10 11  1  0
  1  4  1  1
  3  1  2  0
 15  1  1  0
  1  2  2  0
  4 16  1  0
  5 17  1  0
  5 18  1  0
  6 19  1  0
  6 20  1  0
  9 21  1  0
 11 22  1  0
 11 23  1  0
 11 24  1  0
 15 25  1  0
 15 26  1  0
M  CHG  2  13  -1  27   1
M  END
