
     RDKit          3D

 31 32  0  0  0  0  0  0  0  0999 V2000
    2.0744    0.2703   -1.3250 N   0  0  0  0  0  0  0  0  0  0  0  0
    3.3094    0.8353   -1.2905 C   0  0  0  0  0  0  0  0  0  0  0  0
    1.8337   -0.3787   -0.2316 C   0  0  0  0  0  0  0  0  0  0  0  0
    0.5918   -1.1226    0.0894 C   0  0  0  0  0  0  0  0  0  0  0  0
   -1.6367   -1.7244   -0.7437 C   0  0  0  0  0  0  0  0  0  0  0  0
   -2.6863   -0.7886   -0.1978 C   0  0  0  0  0  0  0  0  0  0  0  0
   -4.5472    0.7168   -0.5655 C   0  0  0  0  0  0  0  0  0  0  0  0
   -2.7575   -0.5163    1.1670 C   0  0  0  0  0  0  0  0  0  0  0  0
    5.3764    2.1783    1.2956 C   0  0  0  0  0  0  0  0  0  0  0  0
   -4.5833    0.9644    0.7920 C   0  0  0  0  0  0  0  0  0  0  0  0
   -3.7045    0.3617    1.6725 C   0  0  0  0  0  0  0  0  0  0  0  0
    4.0348    0.6181   -0.1532 C   0  0  0  0  0  0  0  0  0  0  0  0
   -3.5900   -0.1646   -1.0512 C   0  0  0  0  0  0  0  0  0  0  0  0
   -5.5036    1.8160    1.2740 F   0  0  0  0  0  0  0  0  0  0  0  0
   -0.3373   -1.0970   -0.8699 N   0  0  0  0  0  0  0  0  0  0  0  0
    0.4923   -1.7014    1.1627 O   0  0  0  0  0  0  0  0  0  0  0  0
    3.1044   -0.3452    0.9243 S   0  0  0  0  0  0  0  0  0  0  0  0
    3.6615    1.4146   -2.1330 H   0  0  0  0  0  0  0  0  0  0  0  0
   -1.5396   -2.6031   -0.1071 H   0  0  0  0  0  0  0  0  0  0  0  0
   -1.9290   -2.0774   -1.7324 H   0  0  0  0  0  0  0  0  0  0  0  0
   -5.2507    1.1986   -1.2318 H   0  0  0  0  0  0  0  0  0  0  0  0
   -2.0663   -0.9953    1.8482 H   0  0  0  0  0  0  0  0  0  0  0  0
    4.7687    3.0364    1.0088 H   0  0  0  0  0  0  0  0  0  0  0  0
    4.9721    1.7752    2.2245 H   0  0  0  0  0  0  0  0  0  0  0  0
    6.3865    2.5324    1.4991 H   0  0  0  0  0  0  0  0  0  0  0  0
   -3.7602    0.5699    2.7329 H   0  0  0  0  0  0  0  0  0  0  0  0
    5.8301    1.5493   -0.7180 H   0  0  0  0  0  0  0  0  0  0  0  0
    6.0384    0.2932    0.4811 H   0  0  0  0  0  0  0  0  0  0  0  0
   -3.5555   -0.3685   -2.1146 H   0  0  0  0  0  0  0  0  0  0  0  0
   -0.1500   -0.5452   -1.6935 H   0  0  0  0  0  0  0  0  0  0  0  0
    5.3948    1.1260    0.1888 C   0  0  0  0  0  0  0  0  0  0  0  0
 31  9  1  0
 31 12  1  0
 12  2  2  0
 12 17  1  0
  2  1  1  0
  1  3  2  0
 17  3  1  0
  3  4  1  0
  4 15  1  0
  4 16  2  0
 15  5  1  0
  5  6  1  0
  6 13  1  0
  6  8  2  0
 13  7  2  0
  8 11  1  0
  7 10  1  0
 11 10  2  0
 10 14  1  0
  2 18  1  0
  5 19  1  0
  5 20  1  0
  7 21  1  0
  8 22  1  0
  9 23  1  0
  9 24  1  0
  9 25  1  0
 11 26  1  0
 31 27  1  0
 31 28  1  0
 13 29  1  0
 15 30  1  0
M  END
