
     RDKit          3D

 56 61  0  0  0  0  0  0  0  0999 V2000
    2.7635    1.1539   -1.0801 C   0  0  0  0  0  0  0  0  0  0  0  0
    3.8512    0.5163   -0.4386 C   0  0  0  0  0  0  0  0  0  0  0  0
    3.6295   -0.7293    0.2013 C   0  0  0  0  0  0  0  0  0  0  0  0
    4.7154   -1.3615    0.8532 C   0  0  0  0  0  0  0  0  0  0  0  0
    5.9553   -0.7898    0.8696 C   0  0  0  0  0  0  0  0  0  0  0  0
    6.1781    0.4529    0.2265 C   0  0  0  0  0  0  0  0  0  0  0  0
    5.1395    1.0840   -0.4146 C   0  0  0  0  0  0  0  0  0  0  0  0
    7.5063    1.1116    0.2213 C   0  0  0  0  0  0  0  0  0  0  0  0
   -5.3359    2.3895   -0.9216 C   0  0  0  0  0  0  0  0  0  0  0  0
    1.5226    0.5860   -1.0762 C   0  0  0  0  0  0  0  0  0  0  0  0
    1.2841   -0.6580   -0.4339 C   0  0  0  0  0  0  0  0  0  0  0  0
    2.3362   -1.2922    0.1864 C   0  0  0  0  0  0  0  0  0  0  0  0
    7.7369    2.1613   -0.3314 O   0  0  0  0  0  0  0  0  0  0  0  0
    8.4244    0.4287    0.8911 O   0  0  0  0  0  0  0  0  0  0  0  0
   -5.8400    0.9522   -1.0331 C   0  0  1  0  0  0  0  0  0  0  0  0
   -4.6563    0.0070   -1.2559 C   0  0  0  0  0  0  0  0  0  0  0  0
   -3.1995    1.5297    0.0528 C   0  0  0  0  0  0  0  0  0  0  0  0
   -4.3737    2.4871    0.2610 C   0  0  2  0  0  0  0  0  0  0  0  0
   -6.5719    0.5699    0.2561 C   0  0  0  0  0  0  0  0  0  0  0  0
   -5.6131    0.6845    1.4435 C   0  0  1  0  0  0  0  0  0  0  0  0
   -4.4308   -0.2668    1.2393 C   0  0  0  0  0  0  0  0  0  0  0  0
   -5.1062    2.1218    1.5518 C   0  0  0  0  0  0  0  0  0  0  0  0
   -2.5019   -0.8908   -0.2619 C   0  0  0  0  0  0  0  0  0  0  0  0
   -2.6653   -2.2850   -0.3808 C   0  0  0  0  0  0  0  0  0  0  0  0
   -1.5586   -3.1218   -0.5104 C   0  0  0  0  0  0  0  0  0  0  0  0
   -0.2738   -2.6125   -0.5298 C   0  0  0  0  0  0  0  0  0  0  0  0
   -0.0693   -1.2414   -0.4292 C   0  0  0  0  0  0  0  0  0  0  0  0
   -1.1923   -0.4218   -0.3022 C   0  0  0  0  0  0  0  0  0  0  0  0
    2.9286    2.0987   -1.5833 H   0  0  0  0  0  0  0  0  0  0  0  0
    4.5504   -2.3111    1.3470 H   0  0  0  0  0  0  0  0  0  0  0  0
    6.7635   -1.2950    1.3792 H   0  0  0  0  0  0  0  0  0  0  0  0
    5.3014    2.0346   -0.9076 H   0  0  0  0  0  0  0  0  0  0  0  0
   -6.1754    3.0788   -0.7850 H   0  0  0  0  0  0  0  0  0  0  0  0
    0.7102    1.0821   -1.5917 H   0  0  0  0  0  0  0  0  0  0  0  0
    2.1769   -2.2317    0.7027 H   0  0  0  0  0  0  0  0  0  0  0  0
    9.2723    0.8964    0.8606 H   0  0  0  0  0  0  0  0  0  0  0  0
   -6.5246    0.8649   -1.8826 H   0  0  0  0  0  0  0  0  0  0  0  0
   -5.0282   -1.0074   -1.4011 H   0  0  0  0  0  0  0  0  0  0  0  0
   -4.1288    0.2859   -2.1742 H   0  0  0  0  0  0  0  0  0  0  0  0
   -2.5074    1.6349    0.8946 H   0  0  0  0  0  0  0  0  0  0  0  0
   -2.6513    1.8247   -0.8483 H   0  0  0  0  0  0  0  0  0  0  0  0
   -3.9814    3.5061    0.3338 H   0  0  0  0  0  0  0  0  0  0  0  0
   -7.4344    1.2281    0.4051 H   0  0  0  0  0  0  0  0  0  0  0  0
   -6.9620   -0.4505    0.1819 H   0  0  0  0  0  0  0  0  0  0  0  0
   -6.1322    0.4053    2.3653 H   0  0  0  0  0  0  0  0  0  0  0  0
   -4.7961   -1.2938    1.2220 H   0  0  0  0  0  0  0  0  0  0  0  0
   -3.7388   -0.1905    2.0847 H   0  0  0  0  0  0  0  0  0  0  0  0
   -4.4319    2.2207    2.4093 H   0  0  0  0  0  0  0  0  0  0  0  0
   -5.9391    2.8118    1.7238 H   0  0  0  0  0  0  0  0  0  0  0  0
   -1.7081   -4.1922   -0.6039 H   0  0  0  0  0  0  0  0  0  0  0  0
    0.5619   -3.2910   -0.6455 H   0  0  0  0  0  0  0  0  0  0  0  0
   -1.0229    0.6399   -0.2009 H   0  0  0  0  0  0  0  0  0  0  0  0
   -3.9063   -2.8119   -0.3657 O   0  0  0  0  0  0  0  0  0  0  0  0
   -3.6747    0.0685   -0.0653 C   0  0  1  0  0  0  0  0  0  0  0  0
   -4.8302    2.6860   -1.8461 H   0  0  0  0  0  0  0  0  0  0  0  0
   -3.8599   -3.7726   -0.4297 H   0  0  0  0  0  0  0  0  0  0  0  0
 13  8  2  0
  5  4  2  0
  5  6  1  0
  8  6  1  0
  8 14  1  0
  4  3  1  0
  6  7  2  0
  7  2  1  0
  3  2  1  0
  3 12  2  0
  2  1  2  0
 12 11  1  0
  1 10  1  0
 11 10  2  0
 11 27  1  0
 26 27  2  0
 26 25  1  0
 27 28  1  0
 25 24  2  0
 28 23  2  0
 24 23  1  0
 24 53  1  0
 54 23  1  6
 16 54  1  0
 16 15  1  0
 17 54  1  0
 17 18  1  0
 54 21  1  0
  9 15  1  0
  9 18  1  0
 15 19  1  0
 18 22  1  0
 21 20  1  0
 19 20  1  0
 22 20  1  0
  1 29  1  0
  4 30  1  0
  5 31  1  0
  7 32  1  0
  9 55  1  0
  9 33  1  0
 10 34  1  0
 12 35  1  0
 14 36  1  0
 53 56  1  0
 15 37  1  6
 16 38  1  0
 16 39  1  0
 17 40  1  0
 17 41  1  0
 18 42  1  1
 19 43  1  0
 19 44  1  0
 20 45  1  1
 21 46  1  0
 21 47  1  0
 22 48  1  0
 22 49  1  0
 25 50  1  0
 26 51  1  0
 28 52  1  0
M  END
