
     RDKit          3D

 57 60  0  0  0  0  0  0  0  0999 V2000
   -0.3274   -3.9748   -0.3392 C   0  0  0  0  0  0  0  0  0  0  0  0
   -3.0909   -3.3254   -0.4829 C   0  0  0  0  0  0  0  0  0  0  0  0
    1.8181    0.1401   -0.1417 C   0  0  0  0  0  0  0  0  0  0  0  0
    4.0111   -0.4824    0.6505 C   0  0  0  0  0  0  0  0  0  0  0  0
    3.4913   -1.7036    1.0694 C   0  0  0  0  0  0  0  0  0  0  0  0
    3.1554    0.4395    0.0497 C   0  0  0  0  0  0  0  0  0  0  0  0
    2.1561   -2.0090    0.8698 C   0  0  0  0  0  0  0  0  0  0  0  0
   -4.4181   -0.4079   -0.9492 C   0  0  0  0  0  0  0  0  0  0  0  0
   -5.6341    1.4335    0.0323 C   0  0  0  0  0  0  0  0  0  0  0  0
   -4.5564    1.6664    0.8852 C   0  0  0  0  0  0  0  0  0  0  0  0
   -5.5523    0.3816   -0.8754 C   0  0  0  0  0  0  0  0  0  0  0  0
   -3.4282    0.8669    0.8399 C   0  0  0  0  0  0  0  0  0  0  0  0
    5.4569   -0.2010    0.9081 C   0  0  0  0  0  0  0  0  0  0  0  0
   -6.8936    2.2384    0.0695 C   0  0  0  0  0  0  0  0  0  0  0  0
    7.4305    1.0863    0.2341 C   0  0  0  0  0  0  0  0  0  0  0  0
    7.7164    2.3132   -0.6157 C   0  0  0  0  0  0  0  0  0  0  0  0
    9.4082    3.9278   -1.3327 N   0  0  0  0  0  0  0  0  0  0  0  0
   -1.0103   -0.4347    0.0993 N   0  0  0  0  0  0  0  0  0  0  0  0
   -2.2114   -0.9834   -0.1205 N   0  0  0  0  0  0  0  0  0  0  0  0
   -0.1191   -1.3931    0.0687 C   0  0  0  0  0  0  0  0  0  0  0  0
    1.2999   -1.0918    0.2597 C   0  0  0  0  0  0  0  0  0  0  0  0
   -3.3584   -0.1755   -0.0785 C   0  0  0  0  0  0  0  0  0  0  0  0
   -2.1195   -2.3394   -0.2853 C   0  0  0  0  0  0  0  0  0  0  0  0
   -0.7546   -2.6505   -0.1805 C   0  0  0  0  0  0  0  0  0  0  0  0
   -1.2775   -4.9469   -0.5560 C   0  0  0  0  0  0  0  0  0  0  0  0
   -2.6455   -4.6223   -0.6121 C   0  0  0  0  0  0  0  0  0  0  0  0
    6.0407    0.6979    0.1038 N   0  0  0  0  0  0  0  0  0  0  0  0
    6.0585   -0.7698    1.8112 O   0  0  0  0  0  0  0  0  0  0  0  0
   -7.9531    1.7684   -0.3281 O   0  0  0  0  0  0  0  0  0  0  0  0
   -6.7973    3.4820    0.5565 N   0  0  0  0  0  0  0  0  0  0  0  0
    9.1645    2.7618   -0.4966 C   0  0  0  0  0  0  0  0  0  0  0  0
   -7.9420    4.3565    0.6596 C   0  0  0  0  0  0  0  0  0  0  0  0
    0.7217   -4.2343   -0.2979 H   0  0  0  0  0  0  0  0  0  0  0  0
   -4.1462   -3.0980   -0.5297 H   0  0  0  0  0  0  0  0  0  0  0  0
    1.1716    0.8694   -0.6115 H   0  0  0  0  0  0  0  0  0  0  0  0
    4.1324   -2.4243    1.5589 H   0  0  0  0  0  0  0  0  0  0  0  0
    3.5135    1.4126   -0.2616 H   0  0  0  0  0  0  0  0  0  0  0  0
    1.7797   -2.9590    1.2250 H   0  0  0  0  0  0  0  0  0  0  0  0
   -4.3581   -1.1839   -1.6996 H   0  0  0  0  0  0  0  0  0  0  0  0
   -4.5925    2.4547    1.6258 H   0  0  0  0  0  0  0  0  0  0  0  0
   -6.3724    0.1870   -1.5535 H   0  0  0  0  0  0  0  0  0  0  0  0
   -2.6116    1.0458    1.5258 H   0  0  0  0  0  0  0  0  0  0  0  0
    8.0866    0.2618   -0.0645 H   0  0  0  0  0  0  0  0  0  0  0  0
    7.6463    1.2991    1.2832 H   0  0  0  0  0  0  0  0  0  0  0  0
    7.4916    2.1019   -1.6656 H   0  0  0  0  0  0  0  0  0  0  0  0
    7.0549    3.1290   -0.3057 H   0  0  0  0  0  0  0  0  0  0  0  0
    8.8937    4.7172   -0.9609 H   0  0  0  0  0  0  0  0  0  0  0  0
   10.3845    4.1866   -1.2713 H   0  0  0  0  0  0  0  0  0  0  0  0
   -0.9743   -5.9778   -0.6807 H   0  0  0  0  0  0  0  0  0  0  0  0
   -3.3688   -5.4121   -0.7656 H   0  0  0  0  0  0  0  0  0  0  0  0
    5.5466    1.0245   -0.7109 H   0  0  0  0  0  0  0  0  0  0  0  0
   -5.8931    3.8748    0.7541 H   0  0  0  0  0  0  0  0  0  0  0  0
    9.4007    2.9255    0.5649 H   0  0  0  0  0  0  0  0  0  0  0  0
    9.8194    1.9545   -0.8353 H   0  0  0  0  0  0  0  0  0  0  0  0
   -8.7473    3.8866    1.2224 H   0  0  0  0  0  0  0  0  0  0  0  0
   -7.6370    5.2561    1.1860 H   0  0  0  0  0  0  0  0  0  0  0  0
   -8.3286    4.6434   -0.3198 H   0  0  0  0  0  0  0  0  0  0  0  0
 32 30  1  0
 30 14  1  0
 10 12  2  0
 10  9  1  0
 14  9  1  0
 14 29  2  0
 12 22  1  0
 28 13  2  0
  9 11  2  0
  6  3  2  0
  6  4  1  0
  3 21  1  0
 13  4  1  0
 13 27  1  0
  4  5  2  0
 15 27  1  0
 15 16  1  0
 22 19  1  0
 22  8  2  0
 18 19  1  0
 18 20  2  0
 11  8  1  0
 19 23  1  0
 21 20  1  0
 21  7  2  0
 31 16  1  0
 31 17  1  0
 20 24  1  0
  5  7  1  0
 23 24  1  0
 23  2  2  0
 24  1  2  0
  2 26  1  0
  1 25  1  0
 26 25  2  0
  1 33  1  0
  2 34  1  0
  3 35  1  0
  5 36  1  0
  6 37  1  0
  7 38  1  0
  8 39  1  0
 10 40  1  0
 11 41  1  0
 12 42  1  0
 15 43  1  0
 15 44  1  0
 16 45  1  0
 16 46  1  0
 17 47  1  0
 17 48  1  0
 25 49  1  0
 26 50  1  0
 27 51  1  0
 30 52  1  0
 31 53  1  0
 31 54  1  0
 32 55  1  0
 32 56  1  0
 32 57  1  0
M  END
