
     RDKit          3D

 49 51  0  0  0  0  0  0  0  0999 V2000
    5.0208    2.8470   -0.6246 O   0  0  0  0  0  0  0  0  0  0  0  0
    6.4361    2.8860   -0.6807 C   0  0  0  0  0  0  0  0  0  0  0  0
    4.4024    1.6882   -0.3739 C   0  0  0  0  0  0  0  0  0  0  0  0
    5.0889    0.4882   -0.1543 C   0  0  0  0  0  0  0  0  0  0  0  0
    4.3840   -0.6788    0.1045 C   0  0  0  0  0  0  0  0  0  0  0  0
    0.8108   -1.5961    0.4308 N   0  0  0  0  0  0  0  0  0  0  0  0
    6.4052   -1.9080    0.3084 C   0  0  0  0  0  0  0  0  0  0  0  0
    4.9900   -1.8462    0.3191 O   0  0  0  0  0  0  0  0  0  0  0  0
    2.9703   -0.6644    0.1477 C   0  0  0  0  0  0  0  0  0  0  0  0
   -5.3522   -0.0101    0.2952 O   0  0  0  0  0  0  0  0  0  0  0  0
    0.9322    0.6645   -0.0714 N   0  0  0  0  0  0  0  0  0  0  0  0
    2.1747   -1.8437    0.4372 C   0  0  0  0  0  0  0  0  0  0  0  0
    0.2387   -0.3907    0.1760 C   0  0  0  0  0  0  0  0  0  0  0  0
   -7.8370    1.3447    0.2229 O   0  0  0  0  0  0  0  0  0  0  0  0
    2.5693   -2.9690    0.6845 O   0  0  0  0  0  0  0  0  0  0  0  0
   -1.2324   -0.3125    0.1943 C   0  0  0  0  0  0  0  0  0  0  0  0
   -1.8405    0.9025    0.4987 C   0  0  0  0  0  0  0  0  0  0  0  0
   -3.2217    1.0274    0.5329 C   0  0  0  0  0  0  0  0  0  0  0  0
   -3.8652    2.3313    0.9025 C   0  0  0  0  0  0  0  0  0  0  0  0
   -3.9962   -0.0991    0.2402 C   0  0  0  0  0  0  0  0  0  0  0  0
   -5.9827    0.3876   -0.9200 C   0  0  0  0  0  0  0  0  0  0  0  0
   -7.4746    0.3700   -0.7256 C   0  0  0  0  0  0  0  0  0  0  0  0
   -3.4150   -1.3309   -0.0671 C   0  0  0  0  0  0  0  0  0  0  0  0
   -4.2667   -2.5307   -0.3595 C   0  0  0  0  0  0  0  0  0  0  0  0
   -2.0293   -1.4207   -0.0806 C   0  0  0  0  0  0  0  0  0  0  0  0
    2.3019    0.5610   -0.0818 C   0  0  0  0  0  0  0  0  0  0  0  0
    3.0172    1.7252   -0.3407 C   0  0  0  0  0  0  0  0  0  0  0  0
    6.8897    2.5973    0.2700 H   0  0  0  0  0  0  0  0  0  0  0  0
    6.8300    2.2470   -1.4742 H   0  0  0  0  0  0  0  0  0  0  0  0
    6.7034    3.9168   -0.8973 H   0  0  0  0  0  0  0  0  0  0  0  0
    6.1674    0.4694   -0.1874 H   0  0  0  0  0  0  0  0  0  0  0  0
    0.2256   -2.3824    0.6798 H   0  0  0  0  0  0  0  0  0  0  0  0
    6.6631   -2.9411    0.5251 H   0  0  0  0  0  0  0  0  0  0  0  0
    6.8183   -1.6384   -0.6663 H   0  0  0  0  0  0  0  0  0  0  0  0
    6.8460   -1.2661    1.0744 H   0  0  0  0  0  0  0  0  0  0  0  0
   -8.7801    1.2622    0.3889 H   0  0  0  0  0  0  0  0  0  0  0  0
   -1.2237    1.7625    0.7265 H   0  0  0  0  0  0  0  0  0  0  0  0
   -4.3114    2.8221    0.0359 H   0  0  0  0  0  0  0  0  0  0  0  0
   -4.6596    2.1932    1.6351 H   0  0  0  0  0  0  0  0  0  0  0  0
   -3.1304    3.0164    1.3219 H   0  0  0  0  0  0  0  0  0  0  0  0
   -5.6492    1.3873   -1.2194 H   0  0  0  0  0  0  0  0  0  0  0  0
   -5.7297   -0.3033   -1.7316 H   0  0  0  0  0  0  0  0  0  0  0  0
   -7.7873   -0.6365   -0.4208 H   0  0  0  0  0  0  0  0  0  0  0  0
   -7.9291    0.5609   -1.7065 H   0  0  0  0  0  0  0  0  0  0  0  0
   -4.8026   -2.4275   -1.3046 H   0  0  0  0  0  0  0  0  0  0  0  0
   -3.6561   -3.4296   -0.4291 H   0  0  0  0  0  0  0  0  0  0  0  0
   -5.0145   -2.6908    0.4170 H   0  0  0  0  0  0  0  0  0  0  0  0
   -1.5853   -2.3742   -0.3427 H   0  0  0  0  0  0  0  0  0  0  0  0
    2.4831    2.6493   -0.5171 H   0  0  0  0  0  0  0  0  0  0  0  0
  7  8  1  0
  8  5  1  0
  4  5  1  0
  4  3  2  0
  1  3  1  0
  1  2  1  0
  5  9  2  0
  3 27  1  0
  9 26  1  0
  9 12  1  0
 27 26  2  0
 15 12  2  0
 26 11  1  0
 12  6  1  0
 11 13  2  0
  6 13  1  0
 13 16  1  0
 16 17  2  0
 16 25  1  0
 17 18  1  0
 25 23  2  0
 18 19  1  0
 18 20  2  0
 23 20  1  0
 23 24  1  0
 20 10  1  0
 10 21  1  0
 21 22  1  0
 14 22  1  0
  2 28  1  0
  2 29  1  0
  2 30  1  0
  4 31  1  0
  6 32  1  0
  7 33  1  0
  7 34  1  0
  7 35  1  0
 14 36  1  0
 17 37  1  0
 19 38  1  0
 19 39  1  0
 19 40  1  0
 21 41  1  0
 21 42  1  0
 22 43  1  0
 22 44  1  0
 24 45  1  0
 24 46  1  0
 24 47  1  0
 25 48  1  0
 27 49  1  0
M  END
