
     RDKit          3D

 61 65  0  0  0  0  0  0  0  0999 V2000
   -0.1138    0.8602   -0.1323 N   0  0  0  0  0  0  0  0  0  0  0  0
    0.3109   -0.3962   -0.1435 C   0  0  0  0  0  0  0  0  0  0  0  0
    1.5932   -0.7789   -0.1332 N   0  0  0  0  0  0  0  0  0  0  0  0
    0.8210    1.8059   -0.1463 C   0  0  0  0  0  0  0  0  0  0  0  0
    2.1748    1.5440   -0.1625 C   0  0  0  0  0  0  0  0  0  0  0  0
    2.5009    0.1786   -0.1388 C   0  0  0  0  0  0  0  0  0  0  0  0
    4.5145    2.2343    0.5064 C   0  0  0  0  0  0  0  0  0  0  0  0
    3.2420    2.5966   -0.2639 C   0  0  0  0  0  0  0  0  0  0  0  0
    4.8751    0.8114    0.2359 C   0  0  0  0  0  0  0  0  0  0  0  0
    3.9145   -0.1318   -0.0710 C   0  0  0  0  0  0  0  0  0  0  0  0
    4.5442   -1.3218   -0.2131 N   0  0  0  0  0  0  0  0  0  0  0  0
    5.8379   -1.2042   -0.0226 N   0  0  0  0  0  0  0  0  0  0  0  0
    6.0673    0.0754    0.2612 C   0  0  0  0  0  0  0  0  0  0  0  0
    7.4329    0.5667    0.5452 C   0  0  0  0  0  0  0  0  0  0  0  0
    8.4031   -0.3541    0.4754 N   0  0  0  0  0  0  0  0  0  0  0  0
    7.6300    1.7433    0.8222 O   0  0  0  0  0  0  0  0  0  0  0  0
    3.9755   -2.6108   -0.5490 C   0  0  0  0  0  0  0  0  0  0  0  0
   -0.5730   -1.4306   -0.1587 N   0  0  0  0  0  0  0  0  0  0  0  0
   -1.9631   -1.4534   -0.1571 C   0  0  0  0  0  0  0  0  0  0  0  0
   -2.7794   -0.3376   -0.0628 C   0  0  0  0  0  0  0  0  0  0  0  0
   -4.1780   -0.4477   -0.0534 C   0  0  0  0  0  0  0  0  0  0  0  0
   -4.7460   -1.7118   -0.1230 C   0  0  0  0  0  0  0  0  0  0  0  0
   -3.9350   -2.8448   -0.1986 C   0  0  0  0  0  0  0  0  0  0  0  0
   -2.5605   -2.7342   -0.2275 C   0  0  0  0  0  0  0  0  0  0  0  0
   -1.6994   -3.7756   -0.3123 O   0  0  0  0  0  0  0  0  0  0  0  0
   -2.2293   -5.0826   -0.3769 C   0  0  0  0  0  0  0  0  0  0  0  0
   -4.9353    0.7287    0.0671 N   0  0  0  0  0  0  0  0  0  0  0  0
   -6.3401    0.5844    0.3858 C   0  0  0  0  0  0  0  0  0  0  0  0
   -6.9145    1.9241    0.8093 C   0  0  0  0  0  0  0  0  0  0  0  0
   -6.7367    2.9142   -0.2320 N   0  0  0  0  0  0  0  0  0  0  0  0
   -5.3303    3.0582   -0.5462 C   0  0  0  0  0  0  0  0  0  0  0  0
   -4.7370    1.7295   -0.9722 C   0  0  0  0  0  0  0  0  0  0  0  0
   -7.3367    4.1795    0.1217 C   0  0  0  0  0  0  0  0  0  0  0  0
    0.4616    2.8305   -0.1448 H   0  0  0  0  0  0  0  0  0  0  0  0
    5.3225    2.9060    0.2239 H   0  0  0  0  0  0  0  0  0  0  0  0
    4.3577    2.3694    1.5814 H   0  0  0  0  0  0  0  0  0  0  0  0
    3.5001    2.7295   -1.3200 H   0  0  0  0  0  0  0  0  0  0  0  0
    2.8551    3.5563    0.0817 H   0  0  0  0  0  0  0  0  0  0  0  0
    8.2037   -1.3138    0.2498 H   0  0  0  0  0  0  0  0  0  0  0  0
    9.3605   -0.0956    0.6470 H   0  0  0  0  0  0  0  0  0  0  0  0
    3.4098   -2.5461   -1.4749 H   0  0  0  0  0  0  0  0  0  0  0  0
    4.7970   -3.3083   -0.6752 H   0  0  0  0  0  0  0  0  0  0  0  0
    3.3168   -2.9584    0.2423 H   0  0  0  0  0  0  0  0  0  0  0  0
   -0.1250   -2.3343   -0.1705 H   0  0  0  0  0  0  0  0  0  0  0  0
   -2.3214    0.6340    0.0277 H   0  0  0  0  0  0  0  0  0  0  0  0
   -5.8184   -1.8474   -0.1278 H   0  0  0  0  0  0  0  0  0  0  0  0
   -4.4098   -3.8156   -0.2492 H   0  0  0  0  0  0  0  0  0  0  0  0
   -1.3812   -5.7582   -0.4526 H   0  0  0  0  0  0  0  0  0  0  0  0
   -2.8029   -5.3331    0.5196 H   0  0  0  0  0  0  0  0  0  0  0  0
   -2.8688   -5.2185   -1.2530 H   0  0  0  0  0  0  0  0  0  0  0  0
   -6.9218    0.1949   -0.4645 H   0  0  0  0  0  0  0  0  0  0  0  0
   -6.4545   -0.1210    1.2104 H   0  0  0  0  0  0  0  0  0  0  0  0
   -7.9816    1.8020    1.0100 H   0  0  0  0  0  0  0  0  0  0  0  0
   -6.4390    2.2355    1.7559 H   0  0  0  0  0  0  0  0  0  0  0  0
   -5.2168    3.7742   -1.3639 H   0  0  0  0  0  0  0  0  0  0  0  0
   -4.7571    3.4504    0.3125 H   0  0  0  0  0  0  0  0  0  0  0  0
   -3.6737    1.8657   -1.1639 H   0  0  0  0  0  0  0  0  0  0  0  0
   -5.2012    1.4092   -1.9179 H   0  0  0  0  0  0  0  0  0  0  0  0
   -6.8913    4.6355    1.0201 H   0  0  0  0  0  0  0  0  0  0  0  0
   -7.2258    4.8877   -0.7006 H   0  0  0  0  0  0  0  0  0  0  0  0
   -8.4035    4.0491    0.3095 H   0  0  0  0  0  0  0  0  0  0  0  0
  1  2  2  0
  1  4  1  0
  2  3  1  0
  2 18  1  0
  3  6  2  0
  4  5  2  0
  5  6  1  0
  5  8  1  0
  6 10  1  0
  7  8  1  0
  7  9  1  0
  9 10  2  0
  9 13  1  0
 10 11  1  0
 11 12  1  0
 11 17  1  0
 12 13  2  0
 13 14  1  0
 14 15  1  0
 14 16  2  0
 18 19  1  0
 19 20  2  0
 19 24  1  0
 20 21  1  0
 21 22  2  0
 21 27  1  0
 22 23  1  0
 23 24  2  0
 24 25  1  0
 25 26  1  0
 27 28  1  0
 27 32  1  0
 28 29  1  0
 29 30  1  0
 30 31  1  0
 30 33  1  0
 31 32  1  0
  4 34  1  0
  7 35  1  0
  7 36  1  0
  8 37  1  0
  8 38  1  0
 15 39  1  0
 15 40  1  0
 17 41  1  0
 17 42  1  0
 17 43  1  0
 18 44  1  0
 20 45  1  0
 22 46  1  0
 23 47  1  0
 26 48  1  0
 26 49  1  0
 26 50  1  0
 28 51  1  0
 28 52  1  0
 29 53  1  0
 29 54  1  0
 31 55  1  0
 31 56  1  0
 32 57  1  0
 32 58  1  0
 33 59  1  0
 33 60  1  0
 33 61  1  0
M  END
