
     RDKit          3D

 27 27  0  0  0  0  0  0  0  0999 V2000
    0.5129    1.4892    1.0215 N   0  0  0  0  0  0  0  0  0  0  0  0
    0.9366    0.1656    0.5043 C   0  0  2  0  0  0  0  0  0  0  0  0
    2.4270    0.2317    0.2220 C   0  0  0  0  0  0  0  0  0  0  0  0
    0.1118   -0.2103   -0.7308 C   0  0  0  0  0  0  0  0  0  0  0  0
   -1.3647   -0.2109   -0.4373 C   0  0  0  0  0  0  0  0  0  0  0  0
   -2.1857    0.8057   -0.9160 C   0  0  0  0  0  0  0  0  0  0  0  0
   -1.9260   -1.2187    0.3461 C   0  0  0  0  0  0  0  0  0  0  0  0
   -3.5442    0.8153   -0.6230 C   0  0  0  0  0  0  0  0  0  0  0  0
   -3.2808   -1.2105    0.6401 C   0  0  0  0  0  0  0  0  0  0  0  0
   -4.0937   -0.1921    0.1561 C   0  0  0  0  0  0  0  0  0  0  0  0
    3.0791    1.2351    0.3405 O   0  0  0  0  0  0  0  0  0  0  0  0
    4.2740   -1.0478   -0.4635 C   0  0  0  0  0  0  0  0  0  0  0  0
    2.8773   -0.9386   -0.1584 O   0  0  0  0  0  0  0  0  0  0  0  0
    0.6726    2.2438    0.3516 H   0  0  0  0  0  0  0  0  0  0  0  0
   -0.4836    1.4892    1.2483 H   0  0  0  0  0  0  0  0  0  0  0  0
    1.0034    1.7469    1.8789 H   0  0  0  0  0  0  0  0  0  0  0  0
    0.7589   -0.5501    1.3096 H   0  0  0  0  0  0  0  0  0  0  0  0
    0.3394    0.4802   -1.5463 H   0  0  0  0  0  0  0  0  0  0  0  0
    0.4320   -1.2017   -1.0510 H   0  0  0  0  0  0  0  0  0  0  0  0
   -1.7648    1.5933   -1.5305 H   0  0  0  0  0  0  0  0  0  0  0  0
   -1.3014   -2.0197    0.7253 H   0  0  0  0  0  0  0  0  0  0  0  0
   -4.1702    1.6100   -1.0071 H   0  0  0  0  0  0  0  0  0  0  0  0
   -3.7048   -2.0019    1.2441 H   0  0  0  0  0  0  0  0  0  0  0  0
   -5.1512   -0.1868    0.3852 H   0  0  0  0  0  0  0  0  0  0  0  0
    4.5443   -0.3971   -1.2935 H   0  0  0  0  0  0  0  0  0  0  0  0
    4.8823   -0.8035    0.4057 H   0  0  0  0  0  0  0  0  0  0  0  0
    4.4337   -2.0838   -0.7431 H   0  0  0  0  0  0  0  0  0  0  0  0
  1  2  1  0
 11  3  2  0
  2  3  1  0
  2  4  1  0
  3 13  1  0
  7  9  1  0
  7  5  2  0
  9 10  2  0
  4  5  1  0
  5  6  1  0
 13 12  1  0
 10  8  1  0
  6  8  2  0
  1 14  1  0
  1 15  1  0
  1 16  1  0
  2 17  1  1
  4 18  1  0
  4 19  1  0
  6 20  1  0
  7 21  1  0
  8 22  1  0
  9 23  1  0
 10 24  1  0
 12 25  1  0
 12 26  1  0
 12 27  1  0
M  CHG  1   1   1
M  END
