
     RDKit          3D

 42 44  0  0  0  0  0  0  0  0999 V2000
    0.9816   -0.4885    0.2077 C   0  0  0  0  0  0  0  0  0  0  0  0
   -0.8843    0.4922    1.1031 C   0  0  0  0  0  0  0  0  0  0  0  0
   -5.0936    1.2900    0.6847 C   0  0  0  0  0  0  0  0  0  0  0  0
   -5.9891    0.2331    0.0404 C   0  0  2  0  0  0  0  0  0  0  0  0
   -5.1814   -0.3809   -1.1110 C   0  0  0  0  0  0  0  0  0  0  0  0
   -3.8435   -0.9375   -0.6605 C   0  0  0  0  0  0  0  0  0  0  0  0
    3.3679    0.3002    0.1618 C   0  0  0  0  0  0  0  0  0  0  0  0
    4.7304    0.0391    0.2792 C   0  0  0  0  0  0  0  0  0  0  0  0
    5.1824   -1.2494    0.5172 C   0  0  0  0  0  0  0  0  0  0  0  0
    4.2666   -2.2815    0.6363 C   0  0  0  0  0  0  0  0  0  0  0  0
    2.9106   -2.0226    0.5255 C   0  0  0  0  0  0  0  0  0  0  0  0
   -7.2511    0.8858   -0.5087 C   0  0  0  0  0  0  0  0  0  0  0  0
    0.4176    0.2920    1.1123 N   0  0  0  0  0  0  0  0  0  0  0  0
   -1.6982   -0.1196    0.1229 C   0  0  0  0  0  0  0  0  0  0  0  0
   -1.1333   -0.8997   -0.7951 N   0  0  0  0  0  0  0  0  0  0  0  0
    0.1776   -1.0914   -0.7821 C   0  0  0  0  0  0  0  0  0  0  0  0
    0.6917   -1.9150   -1.7324 N   0  0  0  0  0  0  0  0  0  0  0  0
    2.4373   -0.7325    0.2931 C   0  0  0  0  0  0  0  0  0  0  0  0
   -3.0501    0.0558    0.0555 N   0  0  0  0  0  0  0  0  0  0  0  0
   -3.7376    0.7572    1.1279 C   0  0  0  0  0  0  0  0  0  0  0  0
    5.8816    1.3124    0.1196 Cl  0  0  0  0  0  0  0  0  0  0  0  0
   -6.3958   -0.7384    1.0545 N   0  0  0  0  0  0  0  0  0  0  0  0
   -1.2817    1.1211    1.8869 H   0  0  0  0  0  0  0  0  0  0  0  0
   -4.9345    2.0960   -0.0368 H   0  0  0  0  0  0  0  0  0  0  0  0
   -5.5911    1.7289    1.5529 H   0  0  0  0  0  0  0  0  0  0  0  0
   -5.7504   -1.1874   -1.5823 H   0  0  0  0  0  0  0  0  0  0  0  0
   -5.0125    0.3790   -1.8804 H   0  0  0  0  0  0  0  0  0  0  0  0
   -3.9899   -1.8238   -0.0274 H   0  0  0  0  0  0  0  0  0  0  0  0
   -3.2823   -1.2724   -1.5275 H   0  0  0  0  0  0  0  0  0  0  0  0
    6.2432   -1.4389    0.6065 H   0  0  0  0  0  0  0  0  0  0  0  0
    4.6148   -3.2877    0.8247 H   0  0  0  0  0  0  0  0  0  0  0  0
    2.1982   -2.8302    0.6322 H   0  0  0  0  0  0  0  0  0  0  0  0
   -7.0072    1.6392   -1.2591 H   0  0  0  0  0  0  0  0  0  0  0  0
   -7.8988    0.1443   -0.9832 H   0  0  0  0  0  0  0  0  0  0  0  0
   -7.8192    1.3688    0.2878 H   0  0  0  0  0  0  0  0  0  0  0  0
    1.6697   -1.8429   -1.9567 H   0  0  0  0  0  0  0  0  0  0  0  0
    0.0946   -2.1153   -2.5181 H   0  0  0  0  0  0  0  0  0  0  0  0
   -3.1446    1.6144    1.4413 H   0  0  0  0  0  0  0  0  0  0  0  0
   -3.8375    0.1115    2.0114 H   0  0  0  0  0  0  0  0  0  0  0  0
   -6.9499   -1.4676    0.6187 H   0  0  0  0  0  0  0  0  0  0  0  0
   -5.5933   -1.2115    1.4514 H   0  0  0  0  0  0  0  0  0  0  0  0
    2.8356    1.9009   -0.1819 Cl  0  0  0  0  0  0  0  0  0  0  0  0
 12  4  1  0
  6  5  1  0
  6 19  1  0
  5  4  1  0
 19 20  1  0
 19 14  1  0
  4  3  1  0
  4 22  1  1
 20  3  1  0
  2 14  2  0
  2 13  1  0
 14 15  1  0
 13  1  2  0
 15 16  2  0
 11 10  2  0
 11 18  1  0
  1 16  1  0
  1 18  1  0
 10  9  1  0
 16 17  1  0
 18  7  2  0
  9  8  2  0
  7  8  1  0
  7 42  1  0
  8 21  1  0
  2 23  1  0
  3 24  1  0
  3 25  1  0
  5 26  1  0
  5 27  1  0
  6 28  1  0
  6 29  1  0
  9 30  1  0
 10 31  1  0
 11 32  1  0
 12 33  1  0
 12 34  1  0
 12 35  1  0
 17 36  1  0
 17 37  1  0
 20 38  1  0
 20 39  1  0
 22 40  1  0
 22 41  1  0
M  END
