
     RDKit          3D

 43 45  0  0  0  0  0  0  0  0999 V2000
    1.4545   -0.2812    0.1323 C   0  0  0  0  0  0  0  0  0  0  0  0
    0.5358   -1.2194   -0.3128 C   0  0  0  0  0  0  0  0  0  0  0  0
   -0.8424   -1.2363    0.2339 C   0  0  0  0  0  0  0  0  0  0  0  0
   -1.6999   -0.1905   -0.0888 C   0  0  0  0  0  0  0  0  0  0  0  0
   -3.0025   -0.1253    0.4045 C   0  0  0  0  0  0  0  0  0  0  0  0
   -3.8988    0.9910    0.0423 C   0  0  0  0  0  0  0  0  0  0  0  0
   -5.2664    0.7760   -0.1421 C   0  0  0  0  0  0  0  0  0  0  0  0
   -6.1122    1.8223   -0.4798 C   0  0  0  0  0  0  0  0  0  0  0  0
   -5.6066    3.1055   -0.6428 C   0  0  0  0  0  0  0  0  0  0  0  0
   -4.2481    3.3326   -0.4633 C   0  0  0  0  0  0  0  0  0  0  0  0
   -3.4033    2.2861   -0.1230 C   0  0  0  0  0  0  0  0  0  0  0  0
   -3.4278   -1.1493    1.2481 C   0  0  0  0  0  0  0  0  0  0  0  0
   -2.5746   -2.1888    1.5821 C   0  0  0  0  0  0  0  0  0  0  0  0
    0.9374   -2.1262   -1.2995 C   0  0  0  0  0  0  0  0  0  0  0  0
    2.2439   -2.0905   -1.7917 C   0  0  0  0  0  0  0  0  0  0  0  0
    3.1418   -1.1547   -1.3235 C   0  0  0  0  0  0  0  0  0  0  0  0
    2.7644   -0.2238   -0.3507 C   0  0  0  0  0  0  0  0  0  0  0  0
    3.6588    0.7889    0.1827 C   0  0  0  0  0  0  0  0  0  0  0  0
    4.9383    0.9970   -0.1567 C   0  0  0  0  0  0  0  0  0  0  0  0
    5.7136    2.0697    0.4764 C   0  0  0  0  0  0  0  0  0  0  0  0
    6.9629    2.1050    0.0168 O   0  0  0  0  0  0  0  0  0  0  0  0
    5.3011    2.8406    1.3146 O   0  0  0  0  0  0  0  0  0  0  0  0
   -1.2749   -2.2588    1.0883 C   0  0  0  0  0  0  0  0  0  0  0  0
   -0.3724   -3.3866    1.4924 C   0  0  0  0  0  0  0  0  0  0  0  0
    1.1433    0.4262    0.8930 H   0  0  0  0  0  0  0  0  0  0  0  0
   -1.3442    0.5785   -0.7646 H   0  0  0  0  0  0  0  0  0  0  0  0
   -5.6726   -0.2227   -0.0395 H   0  0  0  0  0  0  0  0  0  0  0  0
   -7.1680    1.6321   -0.6231 H   0  0  0  0  0  0  0  0  0  0  0  0
   -6.2658    3.9224   -0.9063 H   0  0  0  0  0  0  0  0  0  0  0  0
   -3.8449    4.3304   -0.5800 H   0  0  0  0  0  0  0  0  0  0  0  0
   -2.3505    2.4842    0.0363 H   0  0  0  0  0  0  0  0  0  0  0  0
   -4.4235   -1.1266    1.6733 H   0  0  0  0  0  0  0  0  0  0  0  0
   -2.9251   -2.9614    2.2563 H   0  0  0  0  0  0  0  0  0  0  0  0
    0.4231   -3.5940   -2.4010 H   0  0  0  0  0  0  0  0  0  0  0  0
    2.5516   -2.7958   -2.5554 H   0  0  0  0  0  0  0  0  0  0  0  0
    4.1464   -1.1554   -1.7267 H   0  0  0  0  0  0  0  0  0  0  0  0
    3.2228    1.4332    0.9405 H   0  0  0  0  0  0  0  0  0  0  0  0
    5.4433    0.3898   -0.8977 H   0  0  0  0  0  0  0  0  0  0  0  0
    7.4507    2.8223    0.4471 H   0  0  0  0  0  0  0  0  0  0  0  0
    0.6254   -3.0315    1.7514 H   0  0  0  0  0  0  0  0  0  0  0  0
   -0.7746   -3.9171    2.3546 H   0  0  0  0  0  0  0  0  0  0  0  0
   -0.2557   -4.1129    0.6865 H   0  0  0  0  0  0  0  0  0  0  0  0
    0.0279   -2.9995   -1.7526 O   0  0  0  0  0  0  0  0  0  0  0  0
  9 10  2  0
  9  8  1  0
 10 11  1  0
  8  7  2  0
 11  6  2  0
  7  6  1  0
  6  5  1  0
  5 12  1  0
  5  4  2  0
 12 13  2  0
 22 20  2  0
  4  3  1  0
 20 21  1  0
 20 19  1  0
 13 23  1  0
  3 23  2  0
  3  2  1  0
 18 19  2  0
 18 17  1  0
  1  2  2  0
  1 17  1  0
 23 24  1  0
  2 14  1  0
 17 16  2  0
 14 43  1  0
 14 15  2  0
 16 15  1  0
  1 25  1  0
  4 26  1  0
  7 27  1  0
  8 28  1  0
  9 29  1  0
 10 30  1  0
 11 31  1  0
 12 32  1  0
 13 33  1  0
 43 34  1  0
 15 35  1  0
 16 36  1  0
 18 37  1  0
 19 38  1  0
 21 39  1  0
 24 40  1  0
 24 41  1  0
 24 42  1  0
M  END
