
     RDKit          3D

 24 25  0  0  0  0  0  0  0  0999 V2000
   -1.4997    2.1600    0.4348 N   0  0  0  0  0  0  0  0  0  0  0  0
   -1.2874    0.9103   -0.2903 C   0  0  2  0  0  0  0  0  0  0  0  0
   -2.3002   -0.1200    0.1912 C   0  0  0  0  0  0  0  0  0  0  0  0
   -1.9832   -1.4983   -0.3628 C   0  0  0  0  0  0  0  0  0  0  0  0
   -0.6481   -1.9765    0.1839 C   0  0  0  0  0  0  0  0  0  0  0  0
    0.4355   -0.9342    0.0704 C   0  0  0  0  0  0  0  0  0  0  0  0
    1.7680   -1.3342    0.1822 C   0  0  0  0  0  0  0  0  0  0  0  0
    2.8074   -0.4233    0.1043 C   0  0  0  0  0  0  0  0  0  0  0  0
    2.5184    0.9209   -0.0933 C   0  0  0  0  0  0  0  0  0  0  0  0
    1.1991    1.3283   -0.2046 C   0  0  0  0  0  0  0  0  0  0  0  0
    0.1411    0.4202   -0.1219 C   0  0  0  0  0  0  0  0  0  0  0  0
   -0.9933    2.9144   -0.0108 H   0  0  0  0  0  0  0  0  0  0  0  0
   -1.4491    1.0360   -1.3736 H   0  0  0  0  0  0  0  0  0  0  0  0
   -2.2894   -0.1472    1.2861 H   0  0  0  0  0  0  0  0  0  0  0  0
   -3.3022    0.1986   -0.1080 H   0  0  0  0  0  0  0  0  0  0  0  0
   -2.7689   -2.2091   -0.1009 H   0  0  0  0  0  0  0  0  0  0  0  0
   -1.9492   -1.4582   -1.4561 H   0  0  0  0  0  0  0  0  0  0  0  0
   -0.7693   -2.2433    1.2395 H   0  0  0  0  0  0  0  0  0  0  0  0
   -0.3280   -2.8917   -0.3198 H   0  0  0  0  0  0  0  0  0  0  0  0
    1.9867   -2.3856    0.3327 H   0  0  0  0  0  0  0  0  0  0  0  0
    3.8332   -0.7576    0.1923 H   0  0  0  0  0  0  0  0  0  0  0  0
    3.3162    1.6490   -0.1628 H   0  0  0  0  0  0  0  0  0  0  0  0
    1.0025    2.3807   -0.3694 H   0  0  0  0  0  0  0  0  0  0  0  0
   -2.4757    2.4177    0.3417 H   0  0  0  0  0  0  0  0  0  0  0  0
  4  3  1  0
  4  5  1  0
  3  2  1  0
  5  6  1  0
  1  2  1  0
  2 11  1  0
  6 11  2  0
  6  7  1  0
 11 10  1  0
  7  8  2  0
 10  9  2  0
  8  9  1  0
  1 12  1  0
  2 13  1  6
  3 14  1  0
  3 15  1  0
  4 16  1  0
  4 17  1  0
  5 18  1  0
  5 19  1  0
  7 20  1  0
  8 21  1  0
  9 22  1  0
 10 23  1  0
  1 24  1  0
M  END
