
     RDKit          3D

 96 95  0  0  0  0  0  0  0  0999 V2000
  -16.7757    5.2775   -0.1250 C   0  0  0  0  0  0  0  0  0  0  0  0
  -15.8231    4.4744    0.7503 C   0  0  0  0  0  0  0  0  0  0  0  0
  -14.8282    3.6485   -0.0565 C   0  0  0  0  0  0  0  0  0  0  0  0
  -13.8717    2.8410    0.8126 C   0  0  0  0  0  0  0  0  0  0  0  0
  -12.8672    2.0242    0.0089 C   0  0  0  0  0  0  0  0  0  0  0  0
  -11.9125    1.2205    0.8835 C   0  0  0  0  0  0  0  0  0  0  0  0
  -10.9032    0.4042    0.0860 C   0  0  0  0  0  0  0  0  0  0  0  0
   -9.9536   -0.3944    0.9706 C   0  0  0  0  0  0  0  0  0  0  0  0
   -8.9462   -1.2190    0.1782 C   0  0  0  0  0  0  0  0  0  0  0  0
   -8.0165   -1.9923    1.0918 C   0  0  0  0  0  0  0  0  0  0  0  0
   -7.1205   -2.7590    0.3232 O   0  0  0  0  0  0  0  0  0  0  0  0
   -6.2131   -3.4839    1.1125 C   0  0  0  0  0  0  0  0  0  0  0  0
   -5.3117   -4.3123    0.2339 C   0  0  0  0  0  0  0  0  0  0  0  0
   -4.5182   -3.4712   -0.5645 O   0  0  0  0  0  0  0  0  0  0  0  0
   -3.5993   -4.1821   -1.3533 C   0  0  0  0  0  0  0  0  0  0  0  0
   -2.8305   -3.2260   -2.2283 C   0  0  0  0  0  0  0  0  0  0  0  0
   -2.0655   -2.3579   -1.4319 O   0  0  0  0  0  0  0  0  0  0  0  0
   -1.3239   -1.4396   -2.1939 C   0  0  0  0  0  0  0  0  0  0  0  0
   -0.6023   -0.4810   -1.2828 C   0  0  0  0  0  0  0  0  0  0  0  0
    0.3682   -1.1664   -0.5338 O   0  0  0  0  0  0  0  0  0  0  0  0
    1.0368   -0.3292    0.3754 C   0  0  0  0  0  0  0  0  0  0  0  0
    2.1010   -1.1067    1.1053 C   0  0  0  0  0  0  0  0  0  0  0  0
    3.1161   -1.4796    0.2087 O   0  0  0  0  0  0  0  0  0  0  0  0
    4.1794   -2.1472    0.8387 C   0  0  0  0  0  0  0  0  0  0  0  0
    5.2619   -2.4446   -0.1664 C   0  0  0  0  0  0  0  0  0  0  0  0
    5.8023   -1.2412   -0.6485 O   0  0  0  0  0  0  0  0  0  0  0  0
    6.8689   -1.4411   -1.5403 C   0  0  0  0  0  0  0  0  0  0  0  0
    7.3440   -0.1123   -2.0683 C   0  0  0  0  0  0  0  0  0  0  0  0
    7.8710    0.6585   -1.0186 O   0  0  0  0  0  0  0  0  0  0  0  0
    8.3384    1.9110   -1.4503 C   0  0  0  0  0  0  0  0  0  0  0  0
    8.8330    2.7083   -0.2716 C   0  0  0  0  0  0  0  0  0  0  0  0
    9.9557    2.0821    0.2943 O   0  0  0  0  0  0  0  0  0  0  0  0
   10.4771    2.7943    1.3873 C   0  0  0  0  0  0  0  0  0  0  0  0
   11.6498    2.0515    1.9731 C   0  0  0  0  0  0  0  0  0  0  0  0
   12.7027    2.0065    1.0450 O   0  0  0  0  0  0  0  0  0  0  0  0
   13.8489    1.3782    1.5624 C   0  0  0  0  0  0  0  0  0  0  0  0
   14.9345    1.3425    0.5178 C   0  0  0  0  0  0  0  0  0  0  0  0
   15.3430    2.6564    0.2134 O   0  0  0  0  0  0  0  0  0  0  0  0
  -16.2308    5.9623   -0.7779 H   0  0  0  0  0  0  0  0  0  0  0  0
  -17.3721    4.6219   -0.7621 H   0  0  0  0  0  0  0  0  0  0  0  0
  -17.4666    5.8720    0.4738 H   0  0  0  0  0  0  0  0  0  0  0  0
  -15.2758    5.1514    1.4139 H   0  0  0  0  0  0  0  0  0  0  0  0
  -16.3985    3.8104    1.4029 H   0  0  0  0  0  0  0  0  0  0  0  0
  -15.3749    2.9704   -0.7216 H   0  0  0  0  0  0  0  0  0  0  0  0
  -14.2521    4.3141   -0.7093 H   0  0  0  0  0  0  0  0  0  0  0  0
  -13.3322    3.5196    1.4830 H   0  0  0  0  0  0  0  0  0  0  0  0
  -14.4483    2.1706    1.4597 H   0  0  0  0  0  0  0  0  0  0  0  0
  -13.4050    1.3439   -0.6610 H   0  0  0  0  0  0  0  0  0  0  0  0
  -12.2901    2.6944   -0.6380 H   0  0  0  0  0  0  0  0  0  0  0  0
  -11.3776    1.9014    1.5551 H   0  0  0  0  0  0  0  0  0  0  0  0
  -12.4905    0.5498    1.5291 H   0  0  0  0  0  0  0  0  0  0  0  0
  -11.4363   -0.2795   -0.5839 H   0  0  0  0  0  0  0  0  0  0  0  0
  -10.3232    1.0727   -0.5596 H   0  0  0  0  0  0  0  0  0  0  0  0
   -9.4202    0.2919    1.6374 H   0  0  0  0  0  0  0  0  0  0  0  0
  -10.5368   -1.0572    1.6191 H   0  0  0  0  0  0  0  0  0  0  0  0
   -9.4776   -1.9166   -0.4770 H   0  0  0  0  0  0  0  0  0  0  0  0
   -8.3583   -0.5598   -0.4680 H   0  0  0  0  0  0  0  0  0  0  0  0
   -7.4669   -1.2939    1.7402 H   0  0  0  0  0  0  0  0  0  0  0  0
   -8.6038   -2.6421    1.7582 H   0  0  0  0  0  0  0  0  0  0  0  0
   -5.6094   -2.8106    1.7383 H   0  0  0  0  0  0  0  0  0  0  0  0
   -6.7388   -4.1651    1.7965 H   0  0  0  0  0  0  0  0  0  0  0  0
   -4.6898   -4.9416    0.8855 H   0  0  0  0  0  0  0  0  0  0  0  0
   -5.9117   -4.9928   -0.3875 H   0  0  0  0  0  0  0  0  0  0  0  0
   -2.9059   -4.7603   -0.7255 H   0  0  0  0  0  0  0  0  0  0  0  0
   -4.1101   -4.9024   -2.0078 H   0  0  0  0  0  0  0  0  0  0  0  0
   -2.1914   -3.8178   -2.8985 H   0  0  0  0  0  0  0  0  0  0  0  0
   -3.5253   -2.6621   -2.8673 H   0  0  0  0  0  0  0  0  0  0  0  0
   -0.6049   -1.9574   -2.8452 H   0  0  0  0  0  0  0  0  0  0  0  0
   -1.9796   -0.8509   -2.8505 H   0  0  0  0  0  0  0  0  0  0  0  0
   -0.1419    0.3000   -1.9043 H   0  0  0  0  0  0  0  0  0  0  0  0
   -1.3257    0.0233   -0.6257 H   0  0  0  0  0  0  0  0  0  0  0  0
    1.4920    0.5295   -0.1392 H   0  0  0  0  0  0  0  0  0  0  0  0
    0.3403    0.0810    1.1201 H   0  0  0  0  0  0  0  0  0  0  0  0
    2.4987   -0.4687    1.9069 H   0  0  0  0  0  0  0  0  0  0  0  0
    1.6581   -1.9878    1.5920 H   0  0  0  0  0  0  0  0  0  0  0  0
    4.5899   -1.5434    1.6611 H   0  0  0  0  0  0  0  0  0  0  0  0
    3.8474   -3.0982    1.2784 H   0  0  0  0  0  0  0  0  0  0  0  0
    6.0288   -3.0541    0.3313 H   0  0  0  0  0  0  0  0  0  0  0  0
    4.8577   -3.0525   -0.9889 H   0  0  0  0  0  0  0  0  0  0  0  0
    7.6972   -1.9738   -1.0510 H   0  0  0  0  0  0  0  0  0  0  0  0
    6.5598   -2.0553   -2.3979 H   0  0  0  0  0  0  0  0  0  0  0  0
    8.1021   -0.3006   -2.8414 H   0  0  0  0  0  0  0  0  0  0  0  0
    6.5123    0.4121   -2.5609 H   0  0  0  0  0  0  0  0  0  0  0  0
    9.1411    1.7967   -2.1931 H   0  0  0  0  0  0  0  0  0  0  0  0
    7.5376    2.4868   -1.9352 H   0  0  0  0  0  0  0  0  0  0  0  0
    9.0788    3.7195   -0.6251 H   0  0  0  0  0  0  0  0  0  0  0  0
    8.0282    2.8174    0.4700 H   0  0  0  0  0  0  0  0  0  0  0  0
   10.7851    3.8067    1.0880 H   0  0  0  0  0  0  0  0  0  0  0  0
    9.7228    2.9126    2.1780 H   0  0  0  0  0  0  0  0  0  0  0  0
   11.9539    2.5716    2.8924 H   0  0  0  0  0  0  0  0  0  0  0  0
   11.3409    1.0387    2.2697 H   0  0  0  0  0  0  0  0  0  0  0  0
   14.2080    1.9003    2.4615 H   0  0  0  0  0  0  0  0  0  0  0  0
   13.6310    0.3435    1.8622 H   0  0  0  0  0  0  0  0  0  0  0  0
   15.7575    0.7414    0.9242 H   0  0  0  0  0  0  0  0  0  0  0  0
   14.5658    0.8135   -0.3711 H   0  0  0  0  0  0  0  0  0  0  0  0
   16.0606    2.6049   -0.4239 H   0  0  0  0  0  0  0  0  0  0  0  0
  1  2  1  0
  2  3  1  0
  3  4  1  0
  4  5  1  0
  5  6  1  0
  6  7  1  0
  7  8  1  0
  8  9  1  0
  9 10  1  0
 10 11  1  0
 11 12  1  0
 12 13  1  0
 13 14  1  0
 14 15  1  0
 15 16  1  0
 16 17  1  0
 17 18  1  0
 18 19  1  0
 19 20  1  0
 20 21  1  0
 21 22  1  0
 22 23  1  0
 23 24  1  0
 24 25  1  0
 25 26  1  0
 26 27  1  0
 27 28  1  0
 28 29  1  0
 29 30  1  0
 30 31  1  0
 31 32  1  0
 32 33  1  0
 33 34  1  0
 34 35  1  0
 35 36  1  0
 36 37  1  0
 37 38  1  0
  1 39  1  0
  1 40  1  0
  1 41  1  0
  2 42  1  0
  2 43  1  0
  3 44  1  0
  3 45  1  0
  4 46  1  0
  4 47  1  0
  5 48  1  0
  5 49  1  0
  6 50  1  0
  6 51  1  0
  7 52  1  0
  7 53  1  0
  8 54  1  0
  8 55  1  0
  9 56  1  0
  9 57  1  0
 10 58  1  0
 10 59  1  0
 12 60  1  0
 12 61  1  0
 13 62  1  0
 13 63  1  0
 15 64  1  0
 15 65  1  0
 16 66  1  0
 16 67  1  0
 18 68  1  0
 18 69  1  0
 19 70  1  0
 19 71  1  0
 21 72  1  0
 21 73  1  0
 22 74  1  0
 22 75  1  0
 24 76  1  0
 24 77  1  0
 25 78  1  0
 25 79  1  0
 27 80  1  0
 27 81  1  0
 28 82  1  0
 28 83  1  0
 30 84  1  0
 30 85  1  0
 31 86  1  0
 31 87  1  0
 33 88  1  0
 33 89  1  0
 34 90  1  0
 34 91  1  0
 36 92  1  0
 36 93  1  0
 37 94  1  0
 37 95  1  0
 38 96  1  0
M  END
