
     RDKit          3D

 36 36  0  0  0  0  0  0  0  0999 V2000
   35.1065   55.3694   19.4393 Be  0  0  2  0  0  0  0  0  0  0  0  0
   35.7027   54.2187   18.6951 F   0  0  0  0  0  0  0  0  0  0  0  0
   33.8361   55.1245   20.1911 F   0  0  0  0  0  0  0  0  0  0  0  0
   35.0497   56.6984   18.5976 F   0  0  0  0  0  0  0  0  0  0  0  0
   37.3844   56.8545   20.4482 P   0  0  1  0  0  0  0  0  0  0  0  0
   38.7534   56.2580   19.8818 O   0  0  0  0  0  0  0  0  0  0  0  0
   36.9750   57.9736   19.4339 O   0  0  0  0  0  0  0  0  0  0  0  0
   36.3460   55.8375   20.7464 O   0  0  0  0  0  0  0  0  0  0  0  0
   37.9092   57.6163   21.7459 O   0  0  0  0  0  0  0  0  0  0  0  0
   37.8302   59.0741   22.4897 P   0  0  1  0  0  0  0  0  0  0  0  0
   38.1792   60.1252   21.3676 O   0  0  0  0  0  0  0  0  0  0  0  0
   36.6218   59.2253   23.3043 O   0  0  0  0  0  0  0  0  0  0  0  0
   39.2444   59.0595   23.2329 O   0  0  0  0  0  0  0  0  0  0  0  0
   40.0816   56.2366   22.9275 N   0  0  0  0  0  0  0  0  0  0  0  0
   40.5349   57.1377   23.9645 C   0  0  0  0  0  0  0  0  0  0  0  0
   39.4566   58.1398   24.3292 C   0  0  0  0  0  0  0  0  0  0  0  0
   40.3980   56.3875   21.6954 C   0  0  0  0  0  0  0  0  0  0  0  0
   41.3355   57.3686   21.2307 C   0  0  0  0  0  0  0  0  0  0  0  0
   41.9992   57.1127   20.0940 C   0  0  0  0  0  0  0  0  0  0  0  0
   41.7721   55.8922   19.3457 C   0  0  0  0  0  0  0  0  0  0  0  0
   40.7553   55.0788   19.6021 C   0  0  0  0  0  0  0  0  0  0  0  0
   39.7995   55.4631   20.6691 C   0  0  0  0  0  0  0  0  0  0  0  0
   42.6756   55.5824   18.2439 N   0  0  0  0  0  0  0  0  0  0  0  0
   42.9007   54.4261   18.0060 O   0  0  0  0  0  0  0  0  0  0  0  0
   43.1232   56.5360   17.6538 O   0  0  0  0  0  0  0  0  0  0  0  0
   36.1707   57.6280   18.9016 H   0  0  0  0  0  0  0  0  0  0  0  0
   37.5310   60.2317   20.6535 H   0  0  0  0  0  0  0  0  0  0  0  0
   39.4481   55.4897   23.2001 H   0  0  0  0  0  0  0  0  0  0  0  0
   40.7566   56.5336   24.8430 H   0  0  0  0  0  0  0  0  0  0  0  0
   41.4669   57.6128   23.6852 H   0  0  0  0  0  0  0  0  0  0  0  0
   39.8098   58.7317   25.1725 H   0  0  0  0  0  0  0  0  0  0  0  0
   38.5484   57.6375   24.6677 H   0  0  0  0  0  0  0  0  0  0  0  0
   41.5839   58.2551   21.7955 H   0  0  0  0  0  0  0  0  0  0  0  0
   42.7503   57.8197   19.7670 H   0  0  0  0  0  0  0  0  0  0  0  0
   40.5389   54.1876   19.0279 H   0  0  0  0  0  0  0  0  0  0  0  0
   39.3576   54.5819   21.1350 H   0  0  0  0  0  0  0  0  0  0  0  0
  1  2  1  6
  1  3  1  0
  1  4  1  0
  1  8  1  0
  5  6  2  0
  5  7  1  6
  5  8  1  0
  5  9  1  0
  7 26  1  0
 10  9  1  6
 10 11  1  0
 10 12  2  0
 10 13  1  0
 11 27  1  0
 13 16  1  0
 14 15  1  0
 14 17  1  0
 14 28  1  0
 15 16  1  0
 15 29  1  0
 15 30  1  0
 16 31  1  0
 16 32  1  0
 17 18  2  0
 17 22  1  0
 18 19  1  0
 18 33  1  0
 19 20  2  0
 19 34  1  0
 20 21  1  0
 20 23  1  0
 21 22  2  0
 21 35  1  0
 22 36  1  0
 23 24  2  0
 23 25  1  0
M  CHG  3   1  -2  23   1  25  -1
M  END
