
     RDKit          3D

 30 31  0  0  0  0  0  0  0  0999 V2000
    4.6510    0.3810   -0.4317 C   0  0  0  0  0  0  0  0  0  0  0  0
    4.3636    1.7331   -0.5487 C   0  0  0  0  0  0  0  0  0  0  0  0
    3.0873    2.2096   -0.3072 C   0  0  0  0  0  0  0  0  0  0  0  0
    2.0643    1.3380    0.0781 C   0  0  0  0  0  0  0  0  0  0  0  0
    2.3589   -0.0154    0.2261 C   0  0  0  0  0  0  0  0  0  0  0  0
    3.6389   -0.4919   -0.0405 C   0  0  0  0  0  0  0  0  0  0  0  0
    0.8118    1.8670    0.3562 N   0  0  0  0  0  0  0  0  0  0  0  0
   -0.4223    1.2741    0.2245 C   0  0  0  0  0  0  0  0  0  0  0  0
   -1.5141    1.8665    0.8745 C   0  0  0  0  0  0  0  0  0  0  0  0
   -2.7823    1.3372    0.7577 C   0  0  0  0  0  0  0  0  0  0  0  0
   -3.0026    0.1913   -0.0022 C   0  0  0  0  0  0  0  0  0  0  0  0
   -1.9278   -0.3932   -0.6618 C   0  0  0  0  0  0  0  0  0  0  0  0
   -0.6547    0.1372   -0.5580 C   0  0  0  0  0  0  0  0  0  0  0  0
    3.8761   -1.9492    0.1312 C   0  0  0  0  0  0  0  0  0  0  0  0
    5.1252   -2.3048   -0.1303 O   0  0  0  0  0  0  0  0  0  0  0  0
    3.0236   -2.7334    0.4735 O   0  0  0  0  0  0  0  0  0  0  0  0
   -4.3791   -0.3548   -0.1608 C   0  0  1  0  0  0  0  0  0  0  0  0
   -4.3820   -1.6743   -0.3920 F   0  0  0  0  0  0  0  0  0  0  0  0
   -5.1379   -0.1455    0.9240 F   0  0  0  0  0  0  0  0  0  0  0  0
   -5.0336    0.2103   -1.1921 F   0  0  0  0  0  0  0  0  0  0  0  0
    5.6495    0.0262   -0.6421 H   0  0  0  0  0  0  0  0  0  0  0  0
    5.1414    2.4244   -0.8443 H   0  0  0  0  0  0  0  0  0  0  0  0
    2.8758    3.2664   -0.4176 H   0  0  0  0  0  0  0  0  0  0  0  0
    1.6009   -0.7048    0.5714 H   0  0  0  0  0  0  0  0  0  0  0  0
    0.8024    2.8280    0.6596 H   0  0  0  0  0  0  0  0  0  0  0  0
   -1.3597    2.7511    1.4801 H   0  0  0  0  0  0  0  0  0  0  0  0
   -3.5949    1.8240    1.2809 H   0  0  0  0  0  0  0  0  0  0  0  0
   -2.0659   -1.2705   -1.2801 H   0  0  0  0  0  0  0  0  0  0  0  0
    0.1464   -0.3291   -1.1134 H   0  0  0  0  0  0  0  0  0  0  0  0
    5.2303   -3.2600   -0.0061 H   0  0  0  0  0  0  0  0  0  0  0  0
  1  2  2  0
  1  6  1  0
 16 14  2  0
  2  3  1  0
 14 15  1  0
 14  6  1  0
  6  5  2  0
  3  4  2  0
  5  4  1  0
  4  7  1  0
  7  8  1  0
  8  9  2  0
  8 13  1  0
  9 10  1  0
 13 12  2  0
 10 11  2  0
 12 11  1  0
 11 17  1  0
 17 18  1  6
 17 20  1  0
 17 19  1  0
  1 21  1  0
  2 22  1  0
  3 23  1  0
  5 24  1  0
  7 25  1  0
  9 26  1  0
 10 27  1  0
 12 28  1  0
 13 29  1  0
 15 30  1  0
M  END
