
     RDKit          3D

 40 42  0  0  0  0  0  0  0  0999 V2000
   -4.2529    0.9185    0.0942 C   0  0  0  0  0  0  0  0  0  0  0  0
   -6.3841    2.0153    0.5711 N   0  0  0  0  0  0  0  0  0  0  0  0
   -4.8365   -0.0145   -0.4343 O   0  0  0  0  0  0  0  0  0  0  0  0
    4.6567    1.2287   -0.6029 N   0  0  0  0  0  0  0  0  0  0  0  0
    3.5274    1.9265   -0.6060 C   0  0  0  0  0  0  0  0  0  0  0  0
    2.3164    1.5195   -0.2599 N   0  0  0  0  0  0  0  0  0  0  0  0
    2.3180    0.2413    0.1269 C   0  0  0  0  0  0  0  0  0  0  0  0
    3.4059   -0.6141    0.1618 C   0  0  0  0  0  0  0  0  0  0  0  0
    4.6400   -0.0564   -0.2234 C   0  0  0  0  0  0  0  0  0  0  0  0
    5.7756   -0.7522   -0.2391 N   0  0  0  0  0  0  0  0  0  0  0  0
    3.0225   -1.8615    0.5793 N   0  0  0  0  0  0  0  0  0  0  0  0
    1.7407   -1.7559    0.7911 C   0  0  0  0  0  0  0  0  0  0  0  0
   -2.9121    1.0442    0.0654 N   0  0  0  0  0  0  0  0  0  0  0  0
    1.2575   -0.5034    0.5351 N   0  0  0  0  0  0  0  0  0  0  0  0
   -4.9728    1.9951    0.8846 C   0  0  0  0  0  0  0  0  0  0  0  0
   -0.0917    0.0274    0.6925 C   0  0  1  0  0  0  0  0  0  0  0  0
   -0.6224    0.5979   -0.6443 C   0  0  2  0  0  0  0  0  0  0  0  0
   -0.5140    1.9825   -0.7442 O   0  0  0  0  0  0  0  0  0  0  0  0
   -2.0734    0.1130   -0.6486 C   0  0  1  0  0  0  0  0  0  0  0  0
   -1.9345   -1.2247    0.0840 C   0  0  2  0  0  0  0  0  0  0  0  0
   -0.9543   -0.9782    1.0951 O   0  0  0  0  0  0  0  0  0  0  0  0
   -1.5224   -2.3558   -0.8401 C   0  0  0  0  0  0  0  0  0  0  0  0
   -1.2935   -3.5016   -0.0596 O   0  0  0  0  0  0  0  0  0  0  0  0
   -6.8130    1.1475    0.8648 H   0  0  0  0  0  0  0  0  0  0  0  0
   -6.8273    2.7437    1.1149 H   0  0  0  0  0  0  0  0  0  0  0  0
    6.6433   -0.2965   -0.4640 H   0  0  0  0  0  0  0  0  0  0  0  0
    5.8104   -1.6949    0.1071 H   0  0  0  0  0  0  0  0  0  0  0  0
    1.0961   -2.5530    1.1265 H   0  0  0  0  0  0  0  0  0  0  0  0
   -2.4953    1.8963    0.4074 H   0  0  0  0  0  0  0  0  0  0  0  0
   -4.7379    1.8199    1.9454 H   0  0  0  0  0  0  0  0  0  0  0  0
   -4.5391    2.9677    0.6395 H   0  0  0  0  0  0  0  0  0  0  0  0
   -0.0460    0.8125    1.4559 H   0  0  0  0  0  0  0  0  0  0  0  0
   -0.1016    0.1001   -1.4726 H   0  0  0  0  0  0  0  0  0  0  0  0
    0.4357    2.1900   -0.6761 H   0  0  0  0  0  0  0  0  0  0  0  0
   -2.4390   -0.0262   -1.6696 H   0  0  0  0  0  0  0  0  0  0  0  0
   -2.8546   -1.5070    0.5978 H   0  0  0  0  0  0  0  0  0  0  0  0
   -2.3372   -2.5041   -1.5615 H   0  0  0  0  0  0  0  0  0  0  0  0
   -0.6338   -2.0794   -1.4219 H   0  0  0  0  0  0  0  0  0  0  0  0
   -0.8921   -4.1718   -0.6196 H   0  0  0  0  0  0  0  0  0  0  0  0
    3.6102    2.9560   -0.9357 H   0  0  0  0  0  0  0  0  0  0  0  0
  1  3  2  0
  1 13  1  0
  1 15  1  0
  2 15  1  0
  4  5  2  0
  4  9  1  0
  5  6  1  0
  6  7  2  0
  7  8  1  0
  7 14  1  0
  8  9  2  0
  8 11  1  0
  9 10  1  0
 11 12  2  0
 12 14  1  0
 13 19  1  0
 14 16  1  0
 16 17  1  0
 16 21  1  0
 17 18  1  0
 17 19  1  0
 19 20  1  0
 20 21  1  0
 20 22  1  0
 22 23  1  0
  2 24  1  0
  2 25  1  0
  5 40  1  0
 10 26  1  0
 10 27  1  0
 12 28  1  0
 13 29  1  0
 15 30  1  0
 15 31  1  0
 16 32  1  1
 17 33  1  6
 18 34  1  0
 19 35  1  6
 20 36  1  1
 22 37  1  0
 22 38  1  0
 23 39  1  0
M  END
