
     RDKit          3D

 31 32  0  0  0  0  0  0  0  0999 V2000
    2.4610   -2.7440   -0.0671 O   0  0  0  0  0  0  0  0  0  0  0  0
    2.3145   -1.5408    0.0857 C   0  0  0  0  0  0  0  0  0  0  0  0
    3.3081   -0.6546   -0.0348 N   0  0  0  0  0  0  0  0  0  0  0  0
    3.1780    0.7876   -0.0382 C   0  0  1  0  0  0  0  0  0  0  0  0
    3.1405    1.3576   -1.4564 C   0  0  0  0  0  0  0  0  0  0  0  0
    0.9479   -0.9799    0.4204 C   0  0  1  0  0  0  0  0  0  0  0  0
    1.0126    0.3549    0.9690 N   0  0  0  0  0  0  0  0  0  0  0  0
    1.9736    1.2602    0.7492 C   0  0  0  0  0  0  0  0  0  0  0  0
    1.9088    2.4157    1.1385 O   0  0  0  0  0  0  0  0  0  0  0  0
    0.0308   -1.0634   -0.8161 C   0  0  0  0  0  0  0  0  0  0  0  0
   -1.3578   -0.5817   -0.5104 C   0  0  0  0  0  0  0  0  0  0  0  0
   -1.7617    0.7109   -0.8260 C   0  0  0  0  0  0  0  0  0  0  0  0
   -3.0323    1.1711   -0.5088 C   0  0  0  0  0  0  0  0  0  0  0  0
   -3.9310    0.3338    0.1447 C   0  0  0  0  0  0  0  0  0  0  0  0
   -5.1794    0.7200    0.4779 O   0  0  0  0  0  0  0  0  0  0  0  0
   -3.5423   -0.9648    0.4704 C   0  0  0  0  0  0  0  0  0  0  0  0
   -2.2718   -1.4068    0.1436 C   0  0  0  0  0  0  0  0  0  0  0  0
    4.2127   -1.0228   -0.2955 H   0  0  0  0  0  0  0  0  0  0  0  0
    4.0531    1.1918    0.4738 H   0  0  0  0  0  0  0  0  0  0  0  0
    2.2683    1.0011   -2.0050 H   0  0  0  0  0  0  0  0  0  0  0  0
    3.1163    2.4461   -1.4339 H   0  0  0  0  0  0  0  0  0  0  0  0
    4.0323    1.0512   -2.0021 H   0  0  0  0  0  0  0  0  0  0  0  0
    0.5338   -1.6289    1.1957 H   0  0  0  0  0  0  0  0  0  0  0  0
    0.1951    0.6770    1.4689 H   0  0  0  0  0  0  0  0  0  0  0  0
    0.4627   -0.4743   -1.6294 H   0  0  0  0  0  0  0  0  0  0  0  0
    0.0091   -2.1023   -1.1501 H   0  0  0  0  0  0  0  0  0  0  0  0
   -1.0787    1.3764   -1.3409 H   0  0  0  0  0  0  0  0  0  0  0  0
   -3.3191    2.1818   -0.7760 H   0  0  0  0  0  0  0  0  0  0  0  0
   -5.3308    1.6334    0.2108 H   0  0  0  0  0  0  0  0  0  0  0  0
   -4.2383   -1.6237    0.9749 H   0  0  0  0  0  0  0  0  0  0  0  0
   -1.9896   -2.4211    0.4022 H   0  0  0  0  0  0  0  0  0  0  0  0
 15 14  1  0
 14 16  2  0
 14 13  1  0
 16 17  1  0
 13 12  2  0
 17 11  2  0
 12 11  1  0
 11 10  1  0
 10  6  1  0
  5  4  1  0
  6  7  1  0
  6  2  1  0
  7  8  1  0
  2  1  2  0
  2  3  1  0
  8  4  1  0
  8  9  2  0
  4  3  1  0
  3 18  1  0
  4 19  1  1
  5 20  1  0
  5 21  1  0
  5 22  1  0
  6 23  1  1
  7 24  1  0
 10 25  1  0
 10 26  1  0
 12 27  1  0
 13 28  1  0
 15 29  1  0
 16 30  1  0
 17 31  1  0
M  END
