
     RDKit          3D

 19 19  0  0  0  0  0  0  0  0999 V2000
   -3.3420    0.5010   -0.1549 Cl  0  0  0  0  0  0  0  0  0  0  0  0
    2.8059    1.2972    0.1561 Cl  0  0  0  0  0  0  0  0  0  0  0  0
    0.5786   -0.1943   -0.0848 C   0  0  0  0  0  0  0  0  0  0  0  0
    1.8754   -1.8869    0.8579 O   0  0  0  0  0  0  0  0  0  0  0  0
    1.0933    1.0813    0.0911 C   0  0  0  0  0  0  0  0  0  0  0  0
    1.7773   -1.7889   -1.3765 O   0  0  0  0  0  0  0  0  0  0  0  0
    0.2568    2.1778    0.2121 C   0  0  0  0  0  0  0  0  0  0  0  0
   -1.2823   -1.6259   -0.3395 O   0  0  0  0  0  0  0  0  0  0  0  0
   -1.1141    1.9936    0.1430 C   0  0  0  0  0  0  0  0  0  0  0  0
   -1.6380    0.7234   -0.0320 C   0  0  0  0  0  0  0  0  0  0  0  0
   -0.7986   -0.3819   -0.1458 C   0  0  0  0  0  0  0  0  0  0  0  0
   -1.6827   -2.3152    0.8487 C   0  0  0  0  0  0  0  0  0  0  0  0
    2.4599   -2.6477    0.7084 H   0  0  0  0  0  0  0  0  0  0  0  0
    0.6646    3.1697    0.3469 H   0  0  0  0  0  0  0  0  0  0  0  0
   -1.7756    2.8447    0.2263 H   0  0  0  0  0  0  0  0  0  0  0  0
   -1.9902   -3.3111    0.5412 H   0  0  0  0  0  0  0  0  0  0  0  0
   -0.8547   -2.3988    1.5547 H   0  0  0  0  0  0  0  0  0  0  0  0
   -2.5220   -1.8196    1.3386 H   0  0  0  0  0  0  0  0  0  0  0  0
    1.4744   -1.3767   -0.2903 C   0  0  0  0  0  0  0  0  0  0  0  0
 10  1  1  0
  2  5  1  0
 19  3  1  0
  5  3  2  0
  3 11  1  0
 19  4  1  0
  4 13  1  0
  5  7  1  0
  6 19  2  0
  7  9  2  0
  7 14  1  0
 11  8  1  0
  8 12  1  0
  9 10  1  0
  9 15  1  0
 11 10  2  0
 12 16  1  0
 12 17  1  0
 12 18  1  0
M  END
