
     RDKit          3D

 23 24  0  0  0  0  0  0  0  0999 V2000
   -0.8734    2.3331   -0.0049 C   0  0  0  0  0  0  0  0  0  0  0  0
   -0.4264    0.9121    0.0122 C   0  0  0  0  0  0  0  0  0  0  0  0
    0.9808    0.5202    0.0258 C   0  0  0  0  0  0  0  0  0  0  0  0
    2.1316    1.3007    0.0304 C   0  0  0  0  0  0  0  0  0  0  0  0
    3.3645    0.6631    0.0420 C   0  0  0  0  0  0  0  0  0  0  0  0
    3.4450   -0.7281    0.0497 C   0  0  0  0  0  0  0  0  0  0  0  0
    2.2932   -1.5090    0.0455 C   0  0  0  0  0  0  0  0  0  0  0  0
    1.0635   -0.8763    0.0333 C   0  0  0  0  0  0  0  0  0  0  0  0
   -0.3167   -1.4484    0.0259 C   0  0  0  0  0  0  0  0  0  0  0  0
   -1.1777   -0.2171    0.0089 C   0  0  0  0  0  0  0  0  0  0  0  0
   -2.6363   -0.2498   -0.0163 C   0  0  0  0  0  0  0  0  0  0  0  0
   -3.3604    0.7209   -0.0678 O   0  0  0  0  0  0  0  0  0  0  0  0
   -1.3260    2.5869   -0.9642 H   0  0  0  0  0  0  0  0  0  0  0  0
   -1.6212    2.5300    0.7607 H   0  0  0  0  0  0  0  0  0  0  0  0
   -0.0371    3.0112    0.1540 H   0  0  0  0  0  0  0  0  0  0  0  0
    2.0780    2.3822    0.0252 H   0  0  0  0  0  0  0  0  0  0  0  0
    4.2724    1.2521    0.0457 H   0  0  0  0  0  0  0  0  0  0  0  0
    4.4161   -1.2062    0.0587 H   0  0  0  0  0  0  0  0  0  0  0  0
    2.3649   -2.5896    0.0512 H   0  0  0  0  0  0  0  0  0  0  0  0
   -0.4849   -2.0885   -0.8460 H   0  0  0  0  0  0  0  0  0  0  0  0
   -0.4995   -2.0752    0.9043 H   0  0  0  0  0  0  0  0  0  0  0  0
   -3.1091   -1.4957    0.0198 O   0  0  0  0  0  0  0  0  0  0  0  0
   -4.0771   -1.4777   -0.0039 H   0  0  0  0  0  0  0  0  0  0  0  0
 12 11  2  0
 11 10  1  0
 10  9  1  0
 10  2  2  0
  9  8  1  0
  1  2  1  0
  2  3  1  0
  8  3  2  0
  8  7  1  0
  3  4  1  0
  7  6  2  0
  4  5  2  0
  6  5  1  0
  1 13  1  0
  1 14  1  0
  1 15  1  0
  4 16  1  0
  5 17  1  0
  6 18  1  0
  7 19  1  0
  9 20  1  0
  9 21  1  0
 11 22  1  0
 22 23  1  0
M  END
