
     RDKit          3D

 35 37  0  0  0  0  0  0  0  0999 V2000
   -3.2492   -2.6143    0.6236 O   0  0  0  0  0  0  0  0  0  0  0  0
   -3.2154   -1.4227    0.8283 C   0  0  0  0  0  0  0  0  0  0  0  0
   -4.2015   -0.4747    0.2623 C   0  0  0  0  0  0  0  0  0  0  0  0
   -3.9192    0.8902    0.0713 C   0  0  0  0  0  0  0  0  0  0  0  0
   -4.9537    1.7470   -0.3069 C   0  0  0  0  0  0  0  0  0  0  0  0
   -6.2307    1.2632   -0.5364 C   0  0  0  0  0  0  0  0  0  0  0  0
   -6.4964   -0.0933   -0.3953 C   0  0  0  0  0  0  0  0  0  0  0  0
   -5.4849   -0.9518    0.0022 C   0  0  0  0  0  0  0  0  0  0  0  0
   -2.5807    1.4577    0.1752 C   0  0  0  0  0  0  0  0  0  0  0  0
   -1.5499    0.7175    0.0563 N   0  0  0  0  0  0  0  0  0  0  0  0
   -0.3396    1.2570    0.1503 N   0  0  0  0  0  0  0  0  0  0  0  0
    0.7412    0.4516   -0.0071 C   0  0  0  0  0  0  0  0  0  0  0  0
    1.9633    0.8613    0.0569 N   0  0  0  0  0  0  0  0  0  0  0  0
    2.8369   -0.1810   -0.1415 C   0  0  0  0  0  0  0  0  0  0  0  0
    2.2482   -1.3886   -0.3541 C   0  0  0  0  0  0  0  0  0  0  0  0
    0.5292   -1.2417   -0.3133 S   0  0  0  0  0  0  0  0  0  0  0  0
    4.2816    0.0799   -0.1016 C   0  0  0  0  0  0  0  0  0  0  0  0
    5.2058   -0.9033   -0.4640 C   0  0  0  0  0  0  0  0  0  0  0  0
    6.5666   -0.6501   -0.4123 C   0  0  0  0  0  0  0  0  0  0  0  0
    7.0337    0.5930   -0.0011 C   0  0  0  0  0  0  0  0  0  0  0  0
    6.1240    1.5786    0.3556 C   0  0  0  0  0  0  0  0  0  0  0  0
    4.7604    1.3263    0.3053 C   0  0  0  0  0  0  0  0  0  0  0  0
   -2.4759   -0.9919    1.5172 H   0  0  0  0  0  0  0  0  0  0  0  0
   -4.7472    2.8012   -0.4448 H   0  0  0  0  0  0  0  0  0  0  0  0
   -7.0180    1.9437   -0.8327 H   0  0  0  0  0  0  0  0  0  0  0  0
   -7.4907   -0.4765   -0.5816 H   0  0  0  0  0  0  0  0  0  0  0  0
   -5.6993   -2.0025    0.1489 H   0  0  0  0  0  0  0  0  0  0  0  0
   -2.5039    2.5372    0.3115 H   0  0  0  0  0  0  0  0  0  0  0  0
   -0.1994    2.2477    0.3191 H   0  0  0  0  0  0  0  0  0  0  0  0
    2.7086   -2.3487   -0.5221 H   0  0  0  0  0  0  0  0  0  0  0  0
    4.8660   -1.8745   -0.8009 H   0  0  0  0  0  0  0  0  0  0  0  0
    7.2655   -1.4254   -0.6985 H   0  0  0  0  0  0  0  0  0  0  0  0
    8.0969    0.7908    0.0377 H   0  0  0  0  0  0  0  0  0  0  0  0
    6.4751    2.5504    0.6777 H   0  0  0  0  0  0  0  0  0  0  0  0
    4.0606    2.1017    0.5863 H   0  0  0  0  0  0  0  0  0  0  0  0
 15 16  1  0
 15 14  2  0
 18 19  2  0
 18 17  1  0
 19 20  1  0
 16 12  1  0
  6  5  2  0
  6  7  1  0
 14 17  1  0
 14 13  1  0
 17 22  2  0
 20 21  2  0
  5  4  1  0
  7  8  2  0
 12 13  2  0
 12 11  1  0
 22 21  1  0
 10 11  1  0
 10  9  2  0
  4  9  1  0
  4  3  2  0
  8  3  1  0
  3  2  1  0
  2  1  2  0
  2 23  1  0
  5 24  1  0
  6 25  1  0
  7 26  1  0
  8 27  1  0
  9 28  1  0
 11 29  1  0
 15 30  1  0
 18 31  1  0
 19 32  1  0
 20 33  1  0
 21 34  1  0
 22 35  1  0
M  END
