
     RDKit          3D

 52 53  0  0  0  0  0  0  0  0999 V2000
    4.7487   -1.4183   -2.2170 N   0  0  0  0  0  0  0  0  0  0  0  0
    5.1119   -0.7658   -0.9878 C   0  0  2  0  0  0  0  0  0  0  0  0
    6.5770   -0.9492   -0.5937 C   0  0  0  0  0  0  0  0  0  0  0  0
    7.3554   -1.6483   -1.1881 O   0  0  0  0  0  0  0  0  0  0  0  0
    4.2183   -1.2401    0.1529 C   0  0  0  0  0  0  0  0  0  0  0  0
    2.8851   -0.8410   -0.1754 O   0  0  0  0  0  0  0  0  0  0  0  0
    6.8965   -0.2324    0.4755 O   0  0  0  0  0  0  0  0  0  0  0  0
    1.9055    1.9822    0.4997 S   0  0  0  0  0  0  0  0  0  0  0  0
    1.1909    3.4973    1.2032 C   0  0  0  0  0  0  0  0  0  0  0  0
   -0.1216    3.7702    0.5419 C   0  0  0  0  0  0  0  0  0  0  0  0
   -0.3857    4.9302   -0.0593 C   0  0  0  0  0  0  0  0  0  0  0  0
   -1.0700    2.6409    0.5540 C   0  0  0  0  0  0  0  0  0  0  0  0
   -2.5503    2.9106    0.3968 C   0  0  0  0  0  0  0  0  0  0  0  0
   -3.0894    3.8977    0.8283 O   0  0  0  0  0  0  0  0  0  0  0  0
   -3.1610    1.9213   -0.2172 O   0  0  0  0  0  0  0  0  0  0  0  0
   -0.7913    1.4272    0.7778 N   0  0  0  0  0  0  0  0  0  0  0  0
    0.5143    0.9163    1.0150 C   0  0  1  0  0  0  0  0  0  0  0  0
    0.6184   -0.4553    0.2990 C   0  0  1  0  0  0  0  0  0  0  0  0
    1.9295   -1.1145    0.6900 C   0  0  0  0  0  0  0  0  0  0  0  0
    2.0710   -1.7650    1.6926 O   0  0  0  0  0  0  0  0  0  0  0  0
   -0.4831   -1.2947    0.6623 N   0  0  0  0  0  0  0  0  0  0  0  0
   -1.5851   -1.4112   -0.1195 C   0  0  0  0  0  0  0  0  0  0  0  0
   -1.6127   -1.0683   -1.2869 O   0  0  0  0  0  0  0  0  0  0  0  0
   -2.7763   -2.0252    0.5759 C   0  0  0  0  0  0  0  0  0  0  0  0
   -3.8419   -2.5196   -0.3821 C   0  0  1  0  0  0  0  0  0  0  0  0
   -4.9898   -3.2264    0.3318 C   0  0  0  0  0  0  0  0  0  0  0  0
   -6.1836   -3.2067   -0.6095 C   0  0  0  0  0  0  0  0  0  0  0  0
   -6.3300   -1.7638   -1.0737 C   0  0  0  0  0  0  0  0  0  0  0  0
   -4.6260   -1.1414   -1.3132 S   0  0  0  0  0  0  0  0  0  0  0  0
    5.2435   -1.0028   -2.9949 H   0  0  0  0  0  0  0  0  0  0  0  0
    5.0181   -2.3942   -2.1933 H   0  0  0  0  0  0  0  0  0  0  0  0
    4.9587    0.3127   -1.1080 H   0  0  0  0  0  0  0  0  0  0  0  0
    7.8289   -0.3654    0.7047 H   0  0  0  0  0  0  0  0  0  0  0  0
    4.2724   -2.3274    0.2528 H   0  0  0  0  0  0  0  0  0  0  0  0
    4.5089   -0.7906    1.1028 H   0  0  0  0  0  0  0  0  0  0  0  0
    1.0783    3.3709    2.2822 H   0  0  0  0  0  0  0  0  0  0  0  0
    1.9018    4.3036    1.0316 H   0  0  0  0  0  0  0  0  0  0  0  0
    0.3520    5.7219   -0.0748 H   0  0  0  0  0  0  0  0  0  0  0  0
   -1.3203    5.1372   -0.5597 H   0  0  0  0  0  0  0  0  0  0  0  0
   -4.1179    2.0710   -0.2443 H   0  0  0  0  0  0  0  0  0  0  0  0
    0.5951    0.7431    2.0951 H   0  0  0  0  0  0  0  0  0  0  0  0
    0.5859   -0.2888   -0.7775 H   0  0  0  0  0  0  0  0  0  0  0  0
   -0.5676   -1.5496    1.6351 H   0  0  0  0  0  0  0  0  0  0  0  0
   -2.4437   -2.8544    1.2083 H   0  0  0  0  0  0  0  0  0  0  0  0
   -3.2008   -1.2725    1.2482 H   0  0  0  0  0  0  0  0  0  0  0  0
   -3.3889   -3.2013   -1.1056 H   0  0  0  0  0  0  0  0  0  0  0  0
   -4.6955   -4.2400    0.6112 H   0  0  0  0  0  0  0  0  0  0  0  0
   -5.2383   -2.6903    1.2529 H   0  0  0  0  0  0  0  0  0  0  0  0
   -5.9960   -3.8589   -1.4656 H   0  0  0  0  0  0  0  0  0  0  0  0
   -7.0957   -3.5567   -0.1234 H   0  0  0  0  0  0  0  0  0  0  0  0
   -6.8842   -1.6776   -2.0078 H   0  0  0  0  0  0  0  0  0  0  0  0
   -6.8410   -1.1623   -0.3209 H   0  0  0  0  0  0  0  0  0  0  0  0
  1  2  1  0
  1 30  1  0
  1 31  1  0
  3  2  1  0
  2  5  1  0
  2 32  1  6
  4  3  2  0
  3  7  1  0
  7 33  1  0
  5  6  1  0
  5 34  1  0
  5 35  1  0
 19  6  1  0
 17  8  1  0
  8  9  1  0
 10  9  1  0
  9 36  1  0
  9 37  1  0
 12 10  1  0
 10 11  2  0
 11 38  1  0
 11 39  1  0
 16 12  2  0
 13 12  1  0
 14 13  2  0
 13 15  1  0
 15 40  1  0
 16 17  1  0
 18 17  1  0
 17 41  1  1
 19 18  1  0
 21 18  1  0
 18 42  1  6
 20 19  2  0
 22 21  1  0
 21 43  1  0
 24 22  1  0
 22 23  2  0
 24 25  1  0
 24 44  1  0
 24 45  1  0
 25 29  1  0
 25 26  1  0
 25 46  1  6
 26 27  1  0
 26 47  1  0
 26 48  1  0
 27 28  1  0
 27 49  1  0
 27 50  1  0
 29 28  1  0
 28 51  1  0
 28 52  1  0
M  END
