
     RDKit          3D

 39 40  0  0  0  0  0  0  0  0999 V2000
   -0.5700   -0.3629   -3.9099 C   0  0  0  0  0  0  0  0  0  0  0  0
   -0.0874    0.7858   -4.3506 N   0  0  0  0  0  0  0  0  0  0  0  0
    0.2593    0.8855   -5.6234 C   0  0  0  0  0  0  0  0  0  0  0  0
    0.1040   -0.1590   -6.5214 C   0  0  0  0  0  0  0  0  0  0  0  0
   -0.4277   -1.3584   -6.0749 C   0  0  0  0  0  0  0  0  0  0  0  0
   -0.7621   -1.4671   -4.7392 C   0  0  0  0  0  0  0  0  0  0  0  0
    0.5590    0.0468   -8.1732 Cl  0  0  0  0  0  0  0  0  0  0  0  0
   -0.9677   -0.4492   -2.5768 N   0  0  0  0  0  0  0  0  0  0  0  0
   -0.3034    0.0271   -1.4841 C   0  0  0  0  0  0  0  0  0  0  0  0
    1.2800    0.5603   -1.5097 S   0  0  0  0  0  0  0  0  0  0  0  0
   -1.0221   -0.0159   -0.3609 N   0  0  0  0  0  0  0  0  0  0  0  0
   -0.5166    0.3670    0.9388 C   0  0  0  0  0  0  0  0  0  0  0  0
   -1.5949    0.1435    1.9962 C   0  0  0  0  0  0  0  0  0  0  0  0
   -1.1195    0.6004    3.3442 C   0  0  0  0  0  0  0  0  0  0  0  0
   -1.4454    1.8342    3.7346 N   0  0  0  0  0  0  0  0  0  0  0  0
   -1.0126    2.2556    4.9114 C   0  0  0  0  0  0  0  0  0  0  0  0
   -0.2368    1.4993    5.7777 C   0  0  0  0  0  0  0  0  0  0  0  0
    0.1186    0.2117    5.3905 C   0  0  0  0  0  0  0  0  0  0  0  0
   -0.3461   -0.2137    4.1447 C   0  0  0  0  0  0  0  0  0  0  0  0
    0.8532   -0.6471    6.0885 O   0  0  0  0  0  0  0  0  0  0  0  0
    1.3268   -0.2513    7.3774 C   0  0  0  0  0  0  0  0  0  0  0  0
    2.0995   -1.4056    7.9650 C   0  0  0  0  0  0  0  0  0  0  0  0
   -0.0194   -1.4469    3.7316 F   0  0  0  0  0  0  0  0  0  0  0  0
    0.6607    1.8375   -5.9518 H   0  0  0  0  0  0  0  0  0  0  0  0
   -0.5656   -2.1943   -6.7468 H   0  0  0  0  0  0  0  0  0  0  0  0
   -1.1585   -2.3936   -4.3464 H   0  0  0  0  0  0  0  0  0  0  0  0
   -1.7596   -1.0518   -2.4026 H   0  0  0  0  0  0  0  0  0  0  0  0
   -1.9986   -0.2680   -0.4210 H   0  0  0  0  0  0  0  0  0  0  0  0
   -0.2152    1.4172    0.9271 H   0  0  0  0  0  0  0  0  0  0  0  0
    0.3758   -0.2171    1.1721 H   0  0  0  0  0  0  0  0  0  0  0  0
   -1.8808   -0.9101    2.0173 H   0  0  0  0  0  0  0  0  0  0  0  0
   -2.4855    0.7203    1.7394 H   0  0  0  0  0  0  0  0  0  0  0  0
   -1.2961    3.2613    5.1993 H   0  0  0  0  0  0  0  0  0  0  0  0
    0.0723    1.9221    6.7230 H   0  0  0  0  0  0  0  0  0  0  0  0
    0.4793    0.0118    8.0169 H   0  0  0  0  0  0  0  0  0  0  0  0
    1.9645    0.6324    7.2815 H   0  0  0  0  0  0  0  0  0  0  0  0
    2.4606   -1.1255    8.9538 H   0  0  0  0  0  0  0  0  0  0  0  0
    1.4737   -2.2910    8.0744 H   0  0  0  0  0  0  0  0  0  0  0  0
    2.9648   -1.6617    7.3538 H   0  0  0  0  0  0  0  0  0  0  0  0
  1  2  2  0
  1  6  1  0
  1  8  1  0
  2  3  1  0
  3  4  2  0
  3 24  1  0
  4  5  1  0
  4  7  1  0
  5  6  2  0
  5 25  1  0
  6 26  1  0
  8  9  1  0
  8 27  1  0
  9 10  2  0
  9 11  1  0
 11 12  1  0
 11 28  1  0
 12 13  1  0
 12 29  1  0
 12 30  1  0
 13 14  1  0
 13 31  1  0
 13 32  1  0
 14 15  2  0
 14 19  1  0
 15 16  1  0
 16 17  2  0
 16 33  1  0
 17 18  1  0
 17 34  1  0
 18 19  2  0
 18 20  1  0
 19 23  1  0
 20 21  1  0
 21 22  1  0
 21 35  1  0
 21 36  1  0
 22 37  1  0
 22 38  1  0
 22 39  1  0
M  END
