
     RDKit          3D

 54 57  0  0  0  0  0  0  0  0999 V2000
    1.9165    0.8804    1.4956 C   0  0  0  0  0  0  0  0  0  0  0  0
    2.0605   -0.0222    0.4067 C   0  0  0  0  0  0  0  0  0  0  0  0
    1.5319    0.3582   -0.8431 C   0  0  0  0  0  0  0  0  0  0  0  0
    0.8887    1.5481   -1.0142 C   0  0  0  0  0  0  0  0  0  0  0  0
    2.6953   -1.2860    0.6569 C   0  0  0  0  0  0  0  0  0  0  0  0
    2.7333   -2.2871   -0.4401 N   0  0  1  0  0  0  0  0  0  0  0  0
    4.0472   -3.0244   -0.6140 C   0  0  0  0  0  0  0  0  0  0  0  0
    2.1580   -4.4517   -1.1781 C   0  0  0  0  0  0  0  0  0  0  0  0
    0.2927   -2.7810   -0.4536 C   0  0  0  0  0  0  0  0  0  0  0  0
   -2.1546   -1.4545   -0.7712 C   0  0  0  0  0  0  0  0  0  0  0  0
   -3.4602   -0.7264   -0.9478 C   0  0  0  0  0  0  0  0  0  0  0  0
   -3.2360    2.4862    0.8462 C   0  0  0  0  0  0  0  0  0  0  0  0
   -4.9154    0.9771   -0.0294 C   0  0  0  0  0  0  0  0  0  0  0  0
    0.7404    2.4365    0.0720 C   0  0  0  0  0  0  0  0  0  0  0  0
    1.2582    2.0906    1.3072 C   0  0  0  0  0  0  0  0  0  0  0  0
    2.3713    0.6350    2.7116 O   0  0  0  0  0  0  0  0  0  0  0  0
    0.2395    1.9874   -2.5464 Cl  0  0  0  0  0  0  0  0  0  0  0  0
    3.1616   -1.6459    1.7128 O   0  0  0  0  0  0  0  0  0  0  0  0
    3.6578   -4.4769   -0.9030 C   0  0  0  0  0  0  0  0  0  0  0  0
    1.6520   -3.3698   -0.2461 C   0  0  2  0  0  0  0  0  0  0  0  0
   -0.4844   -2.4524    0.6538 C   0  0  0  0  0  0  0  0  0  0  0  0
   -1.6971   -1.8030    0.4967 C   0  0  0  0  0  0  0  0  0  0  0  0
   -3.6302    0.3167    0.0339 N   0  0  0  0  0  0  0  0  0  0  0  0
   -2.6503    1.3899   -0.0475 C   0  0  0  0  0  0  0  0  0  0  0  0
   -4.7178    2.1327    0.9326 C   0  0  2  0  0  0  0  0  0  0  0  0
   -5.5373    3.1831    0.6436 F   0  0  0  0  0  0  0  0  0  0  0  0
   -5.0554    1.7580    2.2046 F   0  0  0  0  0  0  0  0  0  0  0  0
   -1.3825   -1.7954   -1.8761 C   0  0  0  0  0  0  0  0  0  0  0  0
   -0.1753   -2.4597   -1.7235 C   0  0  0  0  0  0  0  0  0  0  0  0
    1.6168   -0.2734   -1.7157 H   0  0  0  0  0  0  0  0  0  0  0  0
    4.5669   -2.5400   -1.4353 H   0  0  0  0  0  0  0  0  0  0  0  0
    4.6360   -2.9193    0.2910 H   0  0  0  0  0  0  0  0  0  0  0  0
    1.9506   -4.2047   -2.2210 H   0  0  0  0  0  0  0  0  0  0  0  0
    1.6717   -5.3989   -0.9530 H   0  0  0  0  0  0  0  0  0  0  0  0
   -3.5208   -0.3342   -1.9766 H   0  0  0  0  0  0  0  0  0  0  0  0
   -4.2859   -1.4363   -0.8385 H   0  0  0  0  0  0  0  0  0  0  0  0
   -3.0914    3.4783    0.4216 H   0  0  0  0  0  0  0  0  0  0  0  0
   -5.1364    1.3811   -1.0316 H   0  0  0  0  0  0  0  0  0  0  0  0
   -5.7343    0.3147    0.2575 H   0  0  0  0  0  0  0  0  0  0  0  0
    0.0579    4.1162    0.6412 H   0  0  0  0  0  0  0  0  0  0  0  0
    1.1553    2.7649    2.1488 H   0  0  0  0  0  0  0  0  0  0  0  0
    2.8166   -0.2324    2.7401 H   0  0  0  0  0  0  0  0  0  0  0  0
    4.2244   -4.8717   -1.7432 H   0  0  0  0  0  0  0  0  0  0  0  0
    3.8712   -5.0963   -0.0329 H   0  0  0  0  0  0  0  0  0  0  0  0
    1.7676   -3.7019    0.7875 H   0  0  0  0  0  0  0  0  0  0  0  0
   -0.1338   -2.6994    1.6490 H   0  0  0  0  0  0  0  0  0  0  0  0
   -2.2846   -1.5431    1.3680 H   0  0  0  0  0  0  0  0  0  0  0  0
   -2.5337    1.7536   -1.0800 H   0  0  0  0  0  0  0  0  0  0  0  0
   -1.6744    1.0478    0.2944 H   0  0  0  0  0  0  0  0  0  0  0  0
   -1.7196   -1.5304   -2.8705 H   0  0  0  0  0  0  0  0  0  0  0  0
    0.4037   -2.6989   -2.6077 H   0  0  0  0  0  0  0  0  0  0  0  0
    2.5361   -1.8363   -1.3327 H   0  0  0  0  0  0  0  0  0  0  0  0
    0.0910    3.5659   -0.1523 O   0  0  0  0  0  0  0  0  0  0  0  0
   -2.7904    2.4823    1.8406 H   0  0  0  0  0  0  0  0  0  0  0  0
  1  2  2  0
  1 15  1  0
  1 16  1  0
  2  3  1  0
  2  5  1  0
  3  4  2  0
  3 30  1  0
  4 14  1  0
  4 17  1  0
  5  6  1  0
  5 18  2  0
  6  7  1  0
  6 20  1  0
  7 19  1  0
  7 31  1  0
  7 32  1  0
  8 19  1  0
  8 20  1  0
  8 33  1  0
  8 34  1  0
  9 20  1  0
  9 21  2  0
  9 29  1  0
 10 11  1  0
 10 22  2  0
 10 28  1  0
 11 23  1  0
 11 35  1  0
 11 36  1  0
 12 24  1  0
 12 25  1  0
 12 54  1  0
 12 37  1  0
 13 23  1  0
 13 25  1  0
 13 38  1  0
 13 39  1  0
 53 14  1  0
 53 40  1  0
 14 15  2  0
 15 41  1  0
 16 42  1  0
 19 43  1  0
 19 44  1  0
 20 45  1  1
 21 22  1  0
 21 46  1  0
 22 47  1  0
 23 24  1  0
 24 48  1  0
 24 49  1  0
 25 26  1  6
 25 27  1  0
 28 29  2  0
 28 50  1  0
 29 51  1  0
  6 52  1  6
M  CHG  1   6   1
M  END
