
     RDKit          3D

 36 38  0  0  0  0  0  0  0  0999 V2000
    6.8199    1.2241   -0.2876 Cl  0  0  0  0  0  0  0  0  0  0  0  0
    5.3265    0.3469   -0.2998 C   0  0  0  0  0  0  0  0  0  0  0  0
    5.2622   -0.8806   -0.9622 C   0  0  0  0  0  0  0  0  0  0  0  0
    4.0830   -1.5920   -0.9773 C   0  0  0  0  0  0  0  0  0  0  0  0
    2.9510   -1.0789   -0.3394 C   0  0  0  0  0  0  0  0  0  0  0  0
    1.7638   -1.7613   -0.3440 N   0  0  0  0  0  0  0  0  0  0  0  0
    0.6048   -1.3547    0.2608 C   0  0  0  0  0  0  0  0  0  0  0  0
   -0.3984   -2.0536    0.2442 O   0  0  0  0  0  0  0  0  0  0  0  0
    4.2236    0.8658    0.3371 C   0  0  0  0  0  0  0  0  0  0  0  0
    3.0179    0.1558    0.3203 C   0  0  0  0  0  0  0  0  0  0  0  0
    1.8249    0.6484    0.9404 C   0  0  0  0  0  0  0  0  0  0  0  0
    0.6705   -0.0474    0.9123 C   0  0  0  0  0  0  0  0  0  0  0  0
   -0.5959    0.4654    1.5252 C   0  0  0  0  0  0  0  0  0  0  0  0
   -1.5387    0.8263    0.4925 N   0  0  0  0  0  0  0  0  0  0  0  0
   -2.8106    0.4157    0.3690 C   0  0  0  0  0  0  0  0  0  0  0  0
   -3.4232    0.8101   -0.7589 N   0  0  0  0  0  0  0  0  0  0  0  0
   -4.6749    0.4708   -0.9943 C   0  0  0  0  0  0  0  0  0  0  0  0
   -5.2893    0.9452   -2.2737 C   0  0  0  0  0  0  0  0  0  0  0  0
   -3.4816   -0.3550    1.3435 C   0  0  0  0  0  0  0  0  0  0  0  0
   -4.7824   -0.7055    1.1027 C   0  0  0  0  0  0  0  0  0  0  0  0
   -5.4117   -0.2988   -0.0807 C   0  0  0  0  0  0  0  0  0  0  0  0
   -6.7623   -0.6357   -0.3410 C   0  0  0  0  0  0  0  0  0  0  0  0
   -7.8589   -0.9194   -0.5665 N   0  0  0  0  0  0  0  0  0  0  0  0
    6.1375   -1.2789   -1.4565 H   0  0  0  0  0  0  0  0  0  0  0  0
    4.0310   -2.5429   -1.4926 H   0  0  0  0  0  0  0  0  0  0  0  0
    1.7370   -2.6619   -0.8048 H   0  0  0  0  0  0  0  0  0  0  0  0
    4.2744    1.8138    0.8569 H   0  0  0  0  0  0  0  0  0  0  0  0
    1.8648    1.6057    1.4481 H   0  0  0  0  0  0  0  0  0  0  0  0
   -1.0324   -0.3046    2.1592 H   0  0  0  0  0  0  0  0  0  0  0  0
   -0.3822    1.3235    2.1672 H   0  0  0  0  0  0  0  0  0  0  0  0
   -1.1930    1.3922   -0.2679 H   0  0  0  0  0  0  0  0  0  0  0  0
   -5.7222    0.1193   -2.8393 H   0  0  0  0  0  0  0  0  0  0  0  0
   -6.0923    1.6573   -2.0778 H   0  0  0  0  0  0  0  0  0  0  0  0
   -4.5426    1.4361   -2.8925 H   0  0  0  0  0  0  0  0  0  0  0  0
   -3.0026   -0.6646    2.2597 H   0  0  0  0  0  0  0  0  0  0  0  0
   -5.3238   -1.2987    1.8278 H   0  0  0  0  0  0  0  0  0  0  0  0
 14 13  1  0
 14 15  1  0
 13 12  1  0
 15 16  2  0
 15 19  1  0
 16 17  1  0
  8  7  2  0
 19 20  2  0
 17 18  1  0
 17 21  2  0
 12  7  1  0
 12 11  2  0
 20 21  1  0
 21 22  1  0
  7  6  1  0
 22 23  3  0
 11 10  1  0
  6  5  1  0
 10  5  2  0
 10  9  1  0
  5  4  1  0
  9  2  2  0
  4  3  2  0
  2  3  1  0
  2  1  1  0
  3 24  1  0
  4 25  1  0
  6 26  1  0
  9 27  1  0
 11 28  1  0
 13 29  1  0
 13 30  1  0
 14 31  1  0
 18 32  1  0
 18 33  1  0
 18 34  1  0
 19 35  1  0
 20 36  1  0
M  END
