
     RDKit          3D

 21 22  0  0  0  0  0  0  0  0999 V2000
   -3.2747    1.8016    0.0960 Cl  0  0  0  0  0  0  0  0  0  0  0  0
   -2.1700    0.4644    0.0703 C   0  0  0  0  0  0  0  0  0  0  0  0
   -0.8474    0.6902   -0.2400 C   0  0  0  0  0  0  0  0  0  0  0  0
    0.0290   -0.3996   -0.2595 C   0  0  0  0  0  0  0  0  0  0  0  0
   -0.4620   -1.6809    0.0387 C   0  0  0  0  0  0  0  0  0  0  0  0
    0.7934   -2.8701   -0.0525 S   0  0  0  0  0  0  0  0  0  0  0  0
    1.9496   -1.6609   -0.4845 C   0  0  0  0  0  0  0  0  0  0  0  0
    1.4363   -0.4121   -0.5580 C   0  0  0  0  0  0  0  0  0  0  0  0
    2.2234    0.8027   -0.9167 C   0  0  0  0  0  0  0  0  0  0  0  0
    2.4639    1.7108    0.2655 C   0  0  0  0  0  0  0  0  0  0  0  0
    2.1221    1.4772    1.3956 O   0  0  0  0  0  0  0  0  0  0  0  0
    3.1142    2.8099   -0.0953 O   0  0  0  0  0  0  0  0  0  0  0  0
   -1.8006   -1.8936    0.3547 C   0  0  0  0  0  0  0  0  0  0  0  0
   -2.6574   -0.8120    0.3700 C   0  0  0  0  0  0  0  0  0  0  0  0
   -0.5010    1.6885   -0.4734 H   0  0  0  0  0  0  0  0  0  0  0  0
    2.9745   -1.9495   -0.6670 H   0  0  0  0  0  0  0  0  0  0  0  0
    3.1941    0.5187   -1.3315 H   0  0  0  0  0  0  0  0  0  0  0  0
    1.7240    1.3775   -1.7033 H   0  0  0  0  0  0  0  0  0  0  0  0
    3.2705    3.3732    0.6777 H   0  0  0  0  0  0  0  0  0  0  0  0
   -2.1715   -2.8835    0.5844 H   0  0  0  0  0  0  0  0  0  0  0  0
   -3.7022   -0.9527    0.6101 H   0  0  0  0  0  0  0  0  0  0  0  0
  2  1  1  0
 14  2  2  0
  2  3  1  0
  4  3  2  0
  3 15  1  0
  5  4  1  0
  4  8  1  0
 13  5  2  0
  6  5  1  0
  6  7  1  0
  7  8  2  0
  7 16  1  0
  8  9  1  0
 10  9  1  0
  9 17  1  0
  9 18  1  0
 11 10  2  0
 12 10  1  0
 12 19  1  0
 13 14  1  0
 13 20  1  0
 14 21  1  0
M  END
