
     RDKit          3D

 54 57  0  0  0  0  0  0  0  0999 V2000
   -4.2639    0.5370   -0.2471 C   0  0  2  0  0  0  0  0  0  0  0  0
   -3.7146    0.5554    1.1820 C   0  0  0  0  0  0  0  0  0  0  0  0
   -2.1904    0.5655    1.2191 C   0  0  0  0  0  0  0  0  0  0  0  0
    0.6833   -1.5730    0.3153 C   0  0  0  0  0  0  0  0  0  0  0  0
    0.9825   -3.8371    0.0841 C   0  0  0  0  0  0  0  0  0  0  0  0
    2.8105   -2.6002    0.0976 C   0  0  0  0  0  0  0  0  0  0  0  0
    2.0846   -1.4096    0.2283 C   0  0  0  0  0  0  0  0  0  0  0  0
    3.0286   -0.3272    0.2434 C   0  0  0  0  0  0  0  0  0  0  0  0
    4.2572   -0.9147    0.1326 C   0  0  0  0  0  0  0  0  0  0  0  0
    2.7367    1.1405    0.2880 C   0  0  1  0  0  0  0  0  0  0  0  0
    3.9512    1.9938    0.6509 C   0  0  0  0  0  0  0  0  0  0  0  0
    3.5764    3.4674    0.6365 C   0  0  0  0  0  0  0  0  0  0  0  0
    1.9101    3.1461   -0.9762 C   0  0  0  0  0  0  0  0  0  0  0  0
   -6.3622    1.4505    0.5900 C   0  0  0  0  0  0  0  0  0  0  0  0
   -5.7257    0.4746   -0.2743 N   0  0  0  0  0  0  0  0  0  0  0  0
   -6.2480    0.6264   -1.6194 C   0  0  0  0  0  0  0  0  0  0  0  0
   -3.6520   -0.6541   -0.9906 C   0  0  0  0  0  0  0  0  0  0  0  0
   -2.1287   -0.6308   -0.9644 C   0  0  0  0  0  0  0  0  0  0  0  0
   -1.5971   -0.6148    0.4652 C   0  0  1  0  0  0  0  0  0  0  0  0
   -0.1504   -0.5374    0.5084 N   0  0  0  0  0  0  0  0  0  0  0  0
    4.1214   -2.2790    0.0478 N   0  0  0  0  0  0  0  0  0  0  0  0
    2.2971   -3.8335    0.0253 N   0  0  0  0  0  0  0  0  0  0  0  0
    0.1606   -2.7981    0.2194 N   0  0  0  0  0  0  0  0  0  0  0  0
    2.1786    1.6511   -1.0484 C   0  0  0  0  0  0  0  0  0  0  0  0
    3.0638    3.8725   -0.6148 O   0  0  0  0  0  0  0  0  0  0  0  0
   -3.9176    1.4657   -0.7441 H   0  0  0  0  0  0  0  0  0  0  0  0
   -4.0656    1.4350    1.7223 H   0  0  0  0  0  0  0  0  0  0  0  0
   -4.0953   -0.3198    1.7209 H   0  0  0  0  0  0  0  0  0  0  0  0
   -1.8262    1.4986    0.7716 H   0  0  0  0  0  0  0  0  0  0  0  0
   -1.8507    0.5586    2.2574 H   0  0  0  0  0  0  0  0  0  0  0  0
    0.5003   -4.8075    0.0170 H   0  0  0  0  0  0  0  0  0  0  0  0
    5.2365   -0.4654    0.1014 H   0  0  0  0  0  0  0  0  0  0  0  0
    1.9829    1.3265    1.0667 H   0  0  0  0  0  0  0  0  0  0  0  0
    4.3308    1.7265    1.6399 H   0  0  0  0  0  0  0  0  0  0  0  0
    4.7588    1.8197   -0.0670 H   0  0  0  0  0  0  0  0  0  0  0  0
    2.8404    3.6632    1.4311 H   0  0  0  0  0  0  0  0  0  0  0  0
    4.4500    4.0893    0.8390 H   0  0  0  0  0  0  0  0  0  0  0  0
    1.5835    3.5259   -1.9456 H   0  0  0  0  0  0  0  0  0  0  0  0
    1.0982    3.3374   -0.2574 H   0  0  0  0  0  0  0  0  0  0  0  0
   -6.0674    2.4889    0.3699 H   0  0  0  0  0  0  0  0  0  0  0  0
   -7.4440    1.3848    0.4679 H   0  0  0  0  0  0  0  0  0  0  0  0
   -6.1521    1.2568    1.6403 H   0  0  0  0  0  0  0  0  0  0  0  0
   -5.9780    1.5914   -2.0784 H   0  0  0  0  0  0  0  0  0  0  0  0
   -5.8968   -0.1639   -2.2797 H   0  0  0  0  0  0  0  0  0  0  0  0
   -7.3365    0.5650   -1.5998 H   0  0  0  0  0  0  0  0  0  0  0  0
   -4.0183   -1.5761   -0.5262 H   0  0  0  0  0  0  0  0  0  0  0  0
   -3.9730   -0.6796   -2.0323 H   0  0  0  0  0  0  0  0  0  0  0  0
   -1.7346   -1.4988   -1.4975 H   0  0  0  0  0  0  0  0  0  0  0  0
   -1.7599    0.2588   -1.4876 H   0  0  0  0  0  0  0  0  0  0  0  0
   -1.9019   -1.5404    0.9610 H   0  0  0  0  0  0  0  0  0  0  0  0
    0.2549    0.3781    0.6016 H   0  0  0  0  0  0  0  0  0  0  0  0
    4.8787   -2.9360   -0.0451 H   0  0  0  0  0  0  0  0  0  0  0  0
    2.9044    1.4397   -1.8394 H   0  0  0  0  0  0  0  0  0  0  0  0
    1.2551    1.1332   -1.3237 H   0  0  0  0  0  0  0  0  0  0  0  0
 14 15  1  0
 16 15  1  0
 15  1  1  0
  2  1  1  0
  2  3  1  0
  1 17  1  0
  3 19  1  0
 17 18  1  0
 18 19  1  0
 19 20  1  0
 23  5  2  0
 23  4  1  0
 20  4  1  0
  5 22  1  0
  4  7  2  0
 22  6  2  0
  7  6  1  0
  7  8  1  0
 24 13  1  0
 24 10  1  0
 13 25  1  0
  6 21  1  0
  8 10  1  0
  8  9  2  0
 10 11  1  0
 21  9  1  0
 25 12  1  0
 11 12  1  0
  1 26  1  6
  2 27  1  0
  2 28  1  0
  3 29  1  0
  3 30  1  0
  5 31  1  0
  9 32  1  0
 10 33  1  1
 11 34  1  0
 11 35  1  0
 12 36  1  0
 12 37  1  0
 13 38  1  0
 13 39  1  0
 14 40  1  0
 14 41  1  0
 14 42  1  0
 16 43  1  0
 16 44  1  0
 16 45  1  0
 17 46  1  0
 17 47  1  0
 18 48  1  0
 18 49  1  0
 19 50  1  1
 20 51  1  0
 21 52  1  0
 24 53  1  0
 24 54  1  0
M  END
