
     RDKit          3D

 45 48  0  0  0  0  0  0  0  0999 V2000
    0.4479   -1.3739    2.6435 O   0  0  0  0  0  0  0  0  0  0  0  0
    0.1761   -0.3568    2.0261 C   0  0  0  0  0  0  0  0  0  0  0  0
   -1.2379   -0.1084    1.5409 C   0  0  2  0  0  0  0  0  0  0  0  0
   -1.5120   -0.9861    0.3014 C   0  0  0  0  0  0  0  0  0  0  0  0
   -2.9033   -0.7971   -0.2278 C   0  0  0  0  0  0  0  0  0  0  0  0
   -3.1756    0.1357   -1.2258 C   0  0  0  0  0  0  0  0  0  0  0  0
   -4.4635    0.3446   -1.6924 C   0  0  0  0  0  0  0  0  0  0  0  0
   -5.5216   -0.3871   -1.1591 C   0  0  0  0  0  0  0  0  0  0  0  0
   -6.7582   -0.1548   -1.6436 O   0  0  0  0  0  0  0  0  0  0  0  0
   -5.2675   -1.3251   -0.1613 C   0  0  0  0  0  0  0  0  0  0  0  0
   -3.9723   -1.5190    0.2941 C   0  0  0  0  0  0  0  0  0  0  0  0
   -1.4953    1.2933    1.3050 N   0  0  0  0  0  0  0  0  0  0  0  0
   -0.5928    2.2027    0.9156 C   0  0  0  0  0  0  0  0  0  0  0  0
   -0.8826    3.3444    0.5955 O   0  0  0  0  0  0  0  0  0  0  0  0
    1.0776    0.5802    1.7077 N   0  0  0  0  0  0  0  0  0  0  0  0
    0.8485    1.7367    0.8710 C   0  0  1  0  0  0  0  0  0  0  0  0
    1.2845    1.5122   -0.5927 C   0  0  0  0  0  0  0  0  0  0  0  0
    2.7118    1.0925   -0.7032 C   0  0  0  0  0  0  0  0  0  0  0  0
    3.2314   -0.2432   -0.6721 C   0  0  0  0  0  0  0  0  0  0  0  0
    2.6481   -1.5129   -0.5817 C   0  0  0  0  0  0  0  0  0  0  0  0
    3.4623   -2.6278   -0.5932 C   0  0  0  0  0  0  0  0  0  0  0  0
    4.8587   -2.5038   -0.6915 C   0  0  0  0  0  0  0  0  0  0  0  0
    5.4640   -1.2657   -0.7834 C   0  0  0  0  0  0  0  0  0  0  0  0
    4.6371   -0.1431   -0.7735 C   0  0  0  0  0  0  0  0  0  0  0  0
    4.9449    1.1831   -0.8556 N   0  0  0  0  0  0  0  0  0  0  0  0
    3.7964    1.9182   -0.8163 C   0  0  0  0  0  0  0  0  0  0  0  0
   -1.9061   -0.4327    2.3410 H   0  0  0  0  0  0  0  0  0  0  0  0
   -0.7806   -0.7548   -0.4780 H   0  0  0  0  0  0  0  0  0  0  0  0
   -1.3505   -2.0277    0.5858 H   0  0  0  0  0  0  0  0  0  0  0  0
   -2.3653    0.7094   -1.6602 H   0  0  0  0  0  0  0  0  0  0  0  0
   -4.6482    1.0717   -2.4733 H   0  0  0  0  0  0  0  0  0  0  0  0
   -7.4002   -0.7294   -1.2120 H   0  0  0  0  0  0  0  0  0  0  0  0
   -6.0782   -1.9101    0.2581 H   0  0  0  0  0  0  0  0  0  0  0  0
   -3.7976   -2.2568    1.0688 H   0  0  0  0  0  0  0  0  0  0  0  0
   -2.4622    1.5874    1.3115 H   0  0  0  0  0  0  0  0  0  0  0  0
    2.0342    0.4014    1.9806 H   0  0  0  0  0  0  0  0  0  0  0  0
    1.4508    2.5532    1.2743 H   0  0  0  0  0  0  0  0  0  0  0  0
    0.6360    0.7638   -1.0590 H   0  0  0  0  0  0  0  0  0  0  0  0
    1.1218    2.4445   -1.1363 H   0  0  0  0  0  0  0  0  0  0  0  0
    1.5732   -1.6262   -0.5117 H   0  0  0  0  0  0  0  0  0  0  0  0
    3.0224   -3.6145   -0.5249 H   0  0  0  0  0  0  0  0  0  0  0  0
    5.4725   -3.3953   -0.6977 H   0  0  0  0  0  0  0  0  0  0  0  0
    6.5398   -1.1711   -0.8603 H   0  0  0  0  0  0  0  0  0  0  0  0
    5.8700    1.5653   -0.9592 H   0  0  0  0  0  0  0  0  0  0  0  0
    3.8314    2.9949   -0.8777 H   0  0  0  0  0  0  0  0  0  0  0  0
 22 23  2  0
 22 21  1  0
 23 24  1  0
 21 20  2  0
 24 25  1  0
 24 19  2  0
 25 26  1  0
  9  8  1  0
 20 19  1  0
  7  8  1  0
  7  6  2  0
  8 10  2  0
 19 18  1  0
 10 11  1  0
  6  5  1  0
 11  5  2  0
  5  4  1  0
  4  3  1  0
 26 18  2  0
 18 17  1  0
  3 12  1  0
  3  2  1  0
 17 16  1  0
  1  2  2  0
 12 13  1  0
  2 15  1  0
 13 16  1  0
 13 14  2  0
 15 16  1  0
  3 27  1  1
  4 28  1  0
  4 29  1  0
  6 30  1  0
  7 31  1  0
  9 32  1  0
 10 33  1  0
 11 34  1  0
 12 35  1  0
 15 36  1  0
 16 37  1  1
 17 38  1  0
 17 39  1  0
 20 40  1  0
 21 41  1  0
 22 42  1  0
 23 43  1  0
 25 44  1  0
 26 45  1  0
M  END
