
     RDKit          3D

 41 43  0  0  0  0  0  0  0  0999 V2000
    4.8297    0.2399   -0.7513 C   0  0  0  0  0  0  0  0  0  0  0  0
    3.9696    0.1216    0.5121 C   0  0  1  0  0  0  0  0  0  0  0  0
    5.2603   -2.0337   -0.8285 C   0  0  0  0  0  0  0  0  0  0  0  0
    4.0611   -2.1862    0.0777 C   0  0  0  0  0  0  0  0  0  0  0  0
    4.7858    0.4750    1.7623 C   0  0  0  0  0  0  0  0  0  0  0  0
    3.0291    2.4616    0.2862 C   0  0  0  0  0  0  0  0  0  0  0  0
    0.4217    1.5018    0.1062 C   0  0  0  0  0  0  0  0  0  0  0  0
   -2.0501    1.4851   -0.1362 C   0  0  0  0  0  0  0  0  0  0  0  0
   -3.1764    0.4910   -0.1806 C   0  0  0  0  0  0  0  0  0  0  0  0
   -3.8283   -1.6980   -0.0836 C   0  0  0  0  0  0  0  0  0  0  0  0
   -5.1614   -1.3395   -0.2534 C   0  0  0  0  0  0  0  0  0  0  0  0
   -6.3721   -2.5612   -0.2891 Cl  0  0  0  0  0  0  0  0  0  0  0  0
   -2.8681   -0.7944   -0.0501 N   0  0  0  0  0  0  0  0  0  0  0  0
   -5.4979   -0.0046   -0.3916 C   0  0  0  0  0  0  0  0  0  0  0  0
   -4.4794    0.9335   -0.3539 C   0  0  0  0  0  0  0  0  0  0  0  0
   -2.2668    2.6800   -0.2434 O   0  0  0  0  0  0  0  0  0  0  0  0
   -0.8423    0.9124    0.0279 N   0  0  0  0  0  0  0  0  0  0  0  0
    1.4981    0.6255    0.2720 C   0  0  0  0  0  0  0  0  0  0  0  0
    0.6575    2.8729    0.0296 C   0  0  0  0  0  0  0  0  0  0  0  0
    1.9653    3.3318    0.1207 C   0  0  0  0  0  0  0  0  0  0  0  0
    2.8011    1.0860    0.3644 C   0  0  0  0  0  0  0  0  0  0  0  0
    3.4690   -1.2294    0.6737 N   0  0  0  0  0  0  0  0  0  0  0  0
    3.6508   -3.4722    0.2481 N   0  0  0  0  0  0  0  0  0  0  0  0
    5.8250   -0.7567   -0.7523 O   0  0  0  0  0  0  0  0  0  0  0  0
    4.1920    0.1569   -1.6440 H   0  0  0  0  0  0  0  0  0  0  0  0
    5.3394    1.2035   -0.7972 H   0  0  0  0  0  0  0  0  0  0  0  0
    6.0284   -2.7578   -0.5474 H   0  0  0  0  0  0  0  0  0  0  0  0
    4.9466   -2.2745   -1.8561 H   0  0  0  0  0  0  0  0  0  0  0  0
    5.1771    1.4918    1.7230 H   0  0  0  0  0  0  0  0  0  0  0  0
    4.1659    0.3877    2.6551 H   0  0  0  0  0  0  0  0  0  0  0  0
    5.6297   -0.2065    1.8681 H   0  0  0  0  0  0  0  0  0  0  0  0
    4.0328    2.8614    0.3577 H   0  0  0  0  0  0  0  0  0  0  0  0
   -3.5431   -2.7375    0.0263 H   0  0  0  0  0  0  0  0  0  0  0  0
   -6.5264    0.2999   -0.5262 H   0  0  0  0  0  0  0  0  0  0  0  0
   -4.6998    1.9858   -0.4592 H   0  0  0  0  0  0  0  0  0  0  0  0
   -0.8657   -0.0979    0.0967 H   0  0  0  0  0  0  0  0  0  0  0  0
    1.3176   -0.4406    0.3359 H   0  0  0  0  0  0  0  0  0  0  0  0
   -0.1481    3.5770   -0.0955 H   0  0  0  0  0  0  0  0  0  0  0  0
    2.1498    4.3969    0.0615 H   0  0  0  0  0  0  0  0  0  0  0  0
    2.7241   -3.6069    0.6196 H   0  0  0  0  0  0  0  0  0  0  0  0
    3.9299   -4.1593   -0.4326 H   0  0  0  0  0  0  0  0  0  0  0  0
 12 11  1  0
 11 10  2  0
 11 14  1  0
 10 13  1  0
 14 15  2  0
 13  9  2  0
 15  9  1  0
  9  8  1  0
  8 17  1  0
  8 16  2  0
 17  7  1  0
 23  4  1  0
  7 18  2  0
  7 19  1  0
 18 21  1  0
  4 22  2  0
  4  3  1  0
 22  2  1  0
 19 20  2  0
  3 24  1  0
 21  2  1  0
 21  6  2  0
  2  5  1  1
  2  1  1  0
 20  6  1  0
 24  1  1  0
  1 25  1  0
  1 26  1  0
  3 27  1  0
  3 28  1  0
  5 29  1  0
  5 30  1  0
  5 31  1  0
  6 32  1  0
 10 33  1  0
 14 34  1  0
 15 35  1  0
 17 36  1  0
 18 37  1  0
 19 38  1  0
 20 39  1  0
 23 40  1  0
 23 41  1  0
M  END
