
     RDKit          3D

 17 16  0  0  0  0  0  0  0  0999 V2000
    3.2234   -0.3570   -0.2191 B   0  0  0  0  0  0  0  0  0  0  0  0
    3.6822    0.8325    0.2464 O   0  0  0  0  0  0  0  0  0  0  0  0
    4.0822   -1.3340   -0.6021 O   0  0  0  0  0  0  0  0  0  0  0  0
    1.6677   -0.6450   -0.3781 C   0  0  0  0  0  0  0  0  0  0  0  0
    0.8839    0.3010    0.4200 N   0  0  0  0  0  0  0  0  0  0  0  0
   -0.6167    0.7531   -0.0478 S   0  0  1  0  0  0  0  0  0  0  0  0
   -1.1009    1.7213    0.9183 O   0  0  0  0  0  0  0  0  0  0  0  0
   -0.5700    1.0966   -1.4571 O   0  0  0  0  0  0  0  0  0  0  0  0
   -1.6287   -0.7320    0.1090 C   0  0  0  0  0  0  0  0  0  0  0  0
   -3.2665   -0.3802   -0.4584 Cl  0  0  0  0  0  0  0  0  0  0  0  0
    2.9654    1.4428    0.4551 H   0  0  0  0  0  0  0  0  0  0  0  0
    5.0117   -1.0908   -0.5345 H   0  0  0  0  0  0  0  0  0  0  0  0
    1.4233   -0.4954   -1.4332 H   0  0  0  0  0  0  0  0  0  0  0  0
    1.4123   -1.6822   -0.1444 H   0  0  0  0  0  0  0  0  0  0  0  0
    0.9533    0.1804    1.4251 H   0  0  0  0  0  0  0  0  0  0  0  0
   -1.1960   -1.5268   -0.4960 H   0  0  0  0  0  0  0  0  0  0  0  0
   -1.6556   -1.0257    1.1564 H   0  0  0  0  0  0  0  0  0  0  0  0
 10  9  1  0
  8  6  2  0
  9  6  1  0
  6  7  2  0
  6  5  1  1
  5  4  1  0
  4  1  1  0
  1  2  1  0
  1  3  1  0
  2 11  1  0
  3 12  1  0
  4 13  1  0
  4 14  1  0
  5 15  1  0
  9 16  1  0
  9 17  1  0
M  END
