
     RDKit          3D

 53 55  0  0  0  0  0  0  0  0999 V2000
   -1.5142   -0.1730   -0.1390 C   0  0  0  0  0  0  0  0  0  0  0  0
   -2.5272    0.7686   -0.1834 C   0  0  0  0  0  0  0  0  0  0  0  0
   -2.2291    2.1244   -0.3720 C   0  0  0  0  0  0  0  0  0  0  0  0
    1.4941    2.0407   -0.5906 C   0  0  0  0  0  0  0  0  0  0  0  0
    0.9128   -0.7187   -0.2305 C   0  0  0  0  0  0  0  0  0  0  0  0
    0.1076   -4.3285   -1.0039 C   0  0  0  0  0  0  0  0  0  0  0  0
    0.1439   -4.0502    1.3803 C   0  0  0  0  0  0  0  0  0  0  0  0
    4.6514    1.6742    0.6255 C   0  0  1  0  0  0  0  0  0  0  0  0
    6.0158    2.2734    0.3006 C   0  0  0  0  0  0  0  0  0  0  0  0
    3.9172    2.5097    1.6680 C   0  0  0  0  0  0  0  0  0  0  0  0
   -6.1317    0.4228    0.1945 C   0  0  0  0  0  0  0  0  0  0  0  0
   -6.1426   -0.7477    0.5141 O   0  0  0  0  0  0  0  0  0  0  0  0
   -7.2317    1.1692    0.0547 N   0  0  0  0  0  0  0  0  0  0  0  0
   -4.8483    1.1907   -0.0787 C   0  0  0  0  0  0  0  0  0  0  0  0
   -3.7799    0.2913   -0.0320 O   0  0  0  0  0  0  0  0  0  0  0  0
   -0.9138    2.5098   -0.5001 C   0  0  0  0  0  0  0  0  0  0  0  0
   -0.1783    0.2182   -0.2733 C   0  0  0  0  0  0  0  0  0  0  0  0
    2.1925   -0.2776   -0.3516 C   0  0  0  0  0  0  0  0  0  0  0  0
    3.7562   -1.4363    1.1186 N   0  0  0  0  0  0  0  0  0  0  0  0
    2.4830    1.0663   -0.5244 N   0  0  0  0  0  0  0  0  0  0  0  0
    3.8582    1.5476   -0.6770 C   0  0  0  0  0  0  0  0  0  0  0  0
    1.7698    3.2153   -0.7673 O   0  0  0  0  0  0  0  0  0  0  0  0
    0.1198    1.5759   -0.4519 C   0  0  0  0  0  0  0  0  0  0  0  0
    0.6019   -2.1609   -0.0570 C   0  0  0  0  0  0  0  0  0  0  0  0
    0.4508   -2.7063    1.2161 C   0  0  0  0  0  0  0  0  0  0  0  0
   -0.0230   -4.8647    0.2700 C   0  0  0  0  0  0  0  0  0  0  0  0
    0.4129   -2.9851   -1.1648 C   0  0  0  0  0  0  0  0  0  0  0  0
   -1.7679   -1.2152    0.0053 H   0  0  0  0  0  0  0  0  0  0  0  0
   -2.9991    2.8801   -0.4206 H   0  0  0  0  0  0  0  0  0  0  0  0
   -0.0276   -4.9575   -1.8736 H   0  0  0  0  0  0  0  0  0  0  0  0
    0.0297   -4.4583    2.3755 H   0  0  0  0  0  0  0  0  0  0  0  0
    2.9778   -2.2084   -0.7257 H   0  0  0  0  0  0  0  0  0  0  0  0
    4.1810   -0.9577   -0.8468 H   0  0  0  0  0  0  0  0  0  0  0  0
    4.7974    0.6753    1.0448 H   0  0  0  0  0  0  0  0  0  0  0  0
    6.6402    2.3225    1.1925 H   0  0  0  0  0  0  0  0  0  0  0  0
    6.5532    1.6774   -0.4397 H   0  0  0  0  0  0  0  0  0  0  0  0
    5.9227    3.2876   -0.0949 H   0  0  0  0  0  0  0  0  0  0  0  0
    2.9750    2.0447    1.9599 H   0  0  0  0  0  0  0  0  0  0  0  0
    4.5229    2.6080    2.5705 H   0  0  0  0  0  0  0  0  0  0  0  0
    3.6968    3.5114    1.2966 H   0  0  0  0  0  0  0  0  0  0  0  0
   -8.1382    0.7857    0.2568 H   0  0  0  0  0  0  0  0  0  0  0  0
   -7.2055    2.1397   -0.2003 H   0  0  0  0  0  0  0  0  0  0  0  0
   -4.9185    1.6885   -1.0537 H   0  0  0  0  0  0  0  0  0  0  0  0
   -4.7533    1.9806    0.6777 H   0  0  0  0  0  0  0  0  0  0  0  0
   -0.6759    3.5549   -0.6411 H   0  0  0  0  0  0  0  0  0  0  0  0
    3.0300   -1.8907    1.6565 H   0  0  0  0  0  0  0  0  0  0  0  0
    4.5628   -2.0458    1.1524 H   0  0  0  0  0  0  0  0  0  0  0  0
    3.7928    2.5245   -1.1523 H   0  0  0  0  0  0  0  0  0  0  0  0
    4.3853    0.9028   -1.3798 H   0  0  0  0  0  0  0  0  0  0  0  0
    0.5473   -2.0653    2.0849 H   0  0  0  0  0  0  0  0  0  0  0  0
   -0.2606   -5.9123    0.3965 H   0  0  0  0  0  0  0  0  0  0  0  0
    0.5131   -2.5678   -2.1592 H   0  0  0  0  0  0  0  0  0  0  0  0
    3.3221   -1.2783   -0.2609 C   0  0  0  0  0  0  0  0  0  0  0  0
  1  2  2  0
  1 17  1  0
  2  3  1  0
  2 15  1  0
  3 16  2  0
  4 20  1  0
  4 22  2  0
  4 23  1  0
  5 17  1  0
  5 18  2  0
  5 24  1  0
  6 26  2  0
  6 27  1  0
  7 25  2  0
  7 26  1  0
 53 18  1  0
 53 19  1  0
  8  9  1  0
  8 10  1  0
  8 21  1  0
 11 12  2  0
 11 13  1  0
 11 14  1  0
 14 15  1  0
 16 23  1  0
 17 23  2  0
 18 20  1  0
 20 21  1  0
 24 25  1  0
 24 27  2  0
  1 28  1  0
  3 29  1  0
  6 30  1  0
  7 31  1  0
 53 32  1  0
 53 33  1  0
  8 34  1  1
  9 35  1  0
  9 36  1  0
  9 37  1  0
 10 38  1  0
 10 39  1  0
 10 40  1  0
 13 41  1  0
 13 42  1  0
 14 43  1  0
 14 44  1  0
 16 45  1  0
 19 46  1  0
 19 47  1  0
 21 48  1  0
 21 49  1  0
 25 50  1  0
 26 51  1  0
 27 52  1  0
M  END
