
     RDKit          3D

 29 29  0  0  0  0  0  0  0  0999 V2000
   -1.3373   -0.5348    1.3250 O   0  0  0  0  0  0  0  0  0  0  0  0
   -1.4342    0.5528    0.3491 S   0  0  1  0  0  0  0  0  0  0  0  0
   -1.0245    1.8931    0.7779 O   0  0  0  0  0  0  0  0  0  0  0  0
   -0.4706    0.0874   -1.1064 C   0  0  0  0  0  0  0  0  0  0  0  0
    0.9645   -0.0352   -0.7116 C   0  0  0  0  0  0  0  0  0  0  0  0
    1.4767   -1.2527   -0.2722 C   0  0  0  0  0  0  0  0  0  0  0  0
    2.8031   -1.3608    0.1143 C   0  0  0  0  0  0  0  0  0  0  0  0
    3.6539   -0.2569    0.0829 C   0  0  0  0  0  0  0  0  0  0  0  0
    5.0971   -0.3868    0.4726 C   0  0  0  0  0  0  0  0  0  0  0  0
    3.1315    0.9604   -0.3476 C   0  0  0  0  0  0  0  0  0  0  0  0
    1.8047    1.0732   -0.7357 C   0  0  0  0  0  0  0  0  0  0  0  0
   -3.1355    0.6486   -0.2788 C   0  0  0  0  0  0  0  0  0  0  0  0
   -3.5410   -0.6143   -0.7910 N   0  0  0  0  0  0  0  0  0  0  0  0
   -4.3434   -1.4300    0.0978 C   0  0  0  0  0  0  0  0  0  0  0  0
   -0.8910   -0.8498   -1.4709 H   0  0  0  0  0  0  0  0  0  0  0  0
   -0.6338    0.8650   -1.8539 H   0  0  0  0  0  0  0  0  0  0  0  0
    0.8368   -2.1259   -0.2430 H   0  0  0  0  0  0  0  0  0  0  0  0
    3.1829   -2.3194    0.4473 H   0  0  0  0  0  0  0  0  0  0  0  0
    5.6906   -0.7769   -0.3571 H   0  0  0  0  0  0  0  0  0  0  0  0
    5.5244    0.5751    0.7534 H   0  0  0  0  0  0  0  0  0  0  0  0
    5.2256   -1.0729    1.3097 H   0  0  0  0  0  0  0  0  0  0  0  0
    3.7705    1.8350   -0.3772 H   0  0  0  0  0  0  0  0  0  0  0  0
    1.4254    2.0307   -1.0704 H   0  0  0  0  0  0  0  0  0  0  0  0
   -3.7248    1.0262    0.5669 H   0  0  0  0  0  0  0  0  0  0  0  0
   -3.1201    1.4159   -1.0533 H   0  0  0  0  0  0  0  0  0  0  0  0
   -3.9761   -0.5093   -1.6941 H   0  0  0  0  0  0  0  0  0  0  0  0
   -3.7780   -1.6810    0.9934 H   0  0  0  0  0  0  0  0  0  0  0  0
   -5.2768   -0.9480    0.4119 H   0  0  0  0  0  0  0  0  0  0  0  0
   -4.5956   -2.3631   -0.4031 H   0  0  0  0  0  0  0  0  0  0  0  0
  9  8  1  0
 10  8  2  0
 10 11  1  0
  8  7  1  0
  1  2  2  0
 11  5  2  0
  7  6  2  0
  5  6  1  0
  5  4  1  0
  2 12  1  6
 12 13  1  0
  2  4  1  0
  2  3  2  0
 14 13  1  0
  4 15  1  0
  4 16  1  0
  6 17  1  0
  7 18  1  0
  9 19  1  0
  9 20  1  0
  9 21  1  0
 10 22  1  0
 11 23  1  0
 12 24  1  0
 12 25  1  0
 13 26  1  0
 14 27  1  0
 14 28  1  0
 14 29  1  0
M  END
