
     RDKit          3D

 32 34  0  0  0  0  0  0  0  0999 V2000
   -2.5262    1.7539   -0.1574 C   0  0  0  0  0  0  0  0  0  0  0  0
    2.2855    0.0065    0.0970 C   0  0  0  0  0  0  0  0  0  0  0  0
    0.0325   -3.7990   -0.1201 O   0  0  0  0  0  0  0  0  0  0  0  0
   -0.1478   -2.5018   -0.0621 C   0  0  0  0  0  0  0  0  0  0  0  0
   -1.3379   -1.8241   -0.0675 C   0  0  0  0  0  0  0  0  0  0  0  0
   -1.3222   -0.4132   -0.0038 C   0  0  0  0  0  0  0  0  0  0  0  0
   -2.5791    0.3657   -0.0072 C   0  0  0  0  0  0  0  0  0  0  0  0
   -3.8262   -0.2429    0.1406 C   0  0  0  0  0  0  0  0  0  0  0  0
   -4.9886    0.5135    0.1350 C   0  0  0  0  0  0  0  0  0  0  0  0
   -4.9246    1.8909   -0.0227 C   0  0  0  0  0  0  0  0  0  0  0  0
   -3.6879    2.5076   -0.1680 C   0  0  0  0  0  0  0  0  0  0  0  0
   -0.2026    0.2775    0.0523 N   0  0  0  0  0  0  0  0  0  0  0  0
    0.9459   -0.3897    0.0561 C   0  0  0  0  0  0  0  0  0  0  0  0
    4.1014    1.5510   -0.0189 N   0  0  0  0  0  0  0  0  0  0  0  0
    4.7233    2.8525    0.0213 C   0  0  0  0  0  0  0  0  0  0  0  0
    2.0279    2.3389    0.3530 O   0  0  0  0  0  0  0  0  0  0  0  0
    3.0012   -1.2023    0.0691 C   0  0  0  0  0  0  0  0  0  0  0  0
    0.9876   -1.7701    0.0043 N   0  0  0  0  0  0  0  0  0  0  0  0
    2.2315   -2.2691    0.0161 N   0  0  0  0  0  0  0  0  0  0  0  0
   -1.5667    2.2397   -0.2696 H   0  0  0  0  0  0  0  0  0  0  0  0
   -0.8148   -4.2623   -0.1678 H   0  0  0  0  0  0  0  0  0  0  0  0
   -2.2544   -2.3906   -0.1364 H   0  0  0  0  0  0  0  0  0  0  0  0
   -3.9128   -1.3131    0.2719 H   0  0  0  0  0  0  0  0  0  0  0  0
   -5.9452    0.0225    0.2552 H   0  0  0  0  0  0  0  0  0  0  0  0
   -5.8313    2.4816   -0.0316 H   0  0  0  0  0  0  0  0  0  0  0  0
   -3.6281    3.5811   -0.2896 H   0  0  0  0  0  0  0  0  0  0  0  0
    4.6823    0.7621   -0.2432 H   0  0  0  0  0  0  0  0  0  0  0  0
    4.3311    3.5153   -0.7513 H   0  0  0  0  0  0  0  0  0  0  0  0
    4.5833    3.3366    0.9880 H   0  0  0  0  0  0  0  0  0  0  0  0
    5.7893    2.7268   -0.1449 H   0  0  0  0  0  0  0  0  0  0  0  0
    4.0722   -1.3414    0.1009 H   0  0  0  0  0  0  0  0  0  0  0  0
    2.7763    1.3891    0.1541 C   0  0  0  0  0  0  0  0  0  0  0  0
 15 14  1  0
 16 32  2  0
 14 32  1  0
 32  2  1  0
  2 17  1  0
  2 13  2  0
 17 19  2  0
 11  1  2  0
 11 10  1  0
  1  7  1  0
 13 12  1  0
 13 18  1  0
 12  6  2  0
 19 18  1  0
 10  9  2  0
  7  6  1  0
  7  8  2  0
 18  4  1  0
  6  5  1  0
  9  8  1  0
  4  5  2  0
  4  3  1  0
  1 20  1  0
  3 21  1  0
  5 22  1  0
  8 23  1  0
  9 24  1  0
 10 25  1  0
 11 26  1  0
 14 27  1  0
 15 28  1  0
 15 29  1  0
 15 30  1  0
 17 31  1  0
M  END
