
     RDKit          3D

 32 32  0  0  0  0  0  0  0  0999 V2000
    4.7218    0.9093    2.8162 P   0  0  1  0  0  0  0  0  0  0  0  0
    3.2583    0.4961    1.8724 C   0  0  0  0  0  0  0  0  0  0  0  0
    4.5952    2.0757    3.7157 O   0  0  0  0  0  0  0  0  0  0  0  0
    5.2681   -0.4413    3.4781 O   0  0  0  0  0  0  0  0  0  0  0  0
    4.6615   -0.9678    4.6799 C   0  0  1  0  0  0  0  0  0  0  0  0
    4.5904   -2.4757    4.5350 C   0  0  0  0  0  0  0  0  0  0  0  0
    3.6753   -2.9311    3.4078 C   0  0  0  0  0  0  0  0  0  0  0  0
    5.5259   -0.5022    5.8439 C   0  0  0  0  0  0  0  0  0  0  0  0
    4.9009   -0.9502    7.0263 O   0  0  0  0  0  0  0  0  0  0  0  0
    7.1796    0.2614    9.6337 C   0  0  0  0  0  0  0  0  0  0  0  0
    6.5040   -0.1739   10.7621 C   0  0  0  0  0  0  0  0  0  0  0  0
    5.3036   -0.8611   10.6085 C   0  0  0  0  0  0  0  0  0  0  0  0
    4.7898   -1.1092    9.3480 C   0  0  0  0  0  0  0  0  0  0  0  0
    5.4751   -0.6676    8.2148 C   0  0  0  0  0  0  0  0  0  0  0  0
    6.6762    0.0216    8.3589 C   0  0  0  0  0  0  0  0  0  0  0  0
    6.1696    1.1515    1.4052 Cl  0  0  0  0  0  0  0  0  0  0  0  0
    2.6542   -2.5766    3.5599 H   0  0  0  0  0  0  0  0  0  0  0  0
    4.0138   -2.5739    2.4352 H   0  0  0  0  0  0  0  0  0  0  0  0
    3.6409   -4.0191    3.3617 H   0  0  0  0  0  0  0  0  0  0  0  0
    4.2335   -2.8869    5.4809 H   0  0  0  0  0  0  0  0  0  0  0  0
    5.6017   -2.8657    4.3868 H   0  0  0  0  0  0  0  0  0  0  0  0
    3.6478   -0.5652    4.8048 H   0  0  0  0  0  0  0  0  0  0  0  0
    6.5358   -0.9180    5.7428 H   0  0  0  0  0  0  0  0  0  0  0  0
    5.6048    0.5905    5.8365 H   0  0  0  0  0  0  0  0  0  0  0  0
    7.2302    0.3770    7.5003 H   0  0  0  0  0  0  0  0  0  0  0  0
    6.9036    0.0175   11.7488 H   0  0  0  0  0  0  0  0  0  0  0  0
    4.7603   -1.2057   11.4790 H   0  0  0  0  0  0  0  0  0  0  0  0
    3.8564   -1.6458    9.2297 H   0  0  0  0  0  0  0  0  0  0  0  0
    3.4300   -0.3570    1.2200 H   0  0  0  0  0  0  0  0  0  0  0  0
    2.4437    0.2665    2.5603 H   0  0  0  0  0  0  0  0  0  0  0  0
    2.9643    1.3557    1.2722 H   0  0  0  0  0  0  0  0  0  0  0  0
    8.1137    0.7991    9.7347 H   0  0  0  0  0  0  0  0  0  0  0  0
  1  4  1  0
  1  2  1  0
  1  3  2  0
  1 16  1  6
  2 29  1  0
  2 30  1  0
  2 31  1  0
  4  5  1  0
  5  6  1  0
  5  8  1  0
  5 22  1  1
  6  7  1  0
  6 20  1  0
  6 21  1  0
  7 17  1  0
  7 18  1  0
  7 19  1  0
  8  9  1  0
  8 23  1  0
  8 24  1  0
  9 14  1  0
 10 15  2  0
 10 11  1  0
 10 32  1  0
 11 12  2  0
 11 26  1  0
 12 13  1  0
 12 27  1  0
 13 14  2  0
 13 28  1  0
 14 15  1  0
 15 25  1  0
M  END
