
     RDKit          3D

 19 19  0  0  0  0  0  0  0  0999 V2000
    0.9359   -0.3323    0.6445 C   0  0  0  0  0  0  0  0  0  0  0  0
    0.9240   -0.4217    2.0283 C   0  0  0  0  0  0  0  0  0  0  0  0
    1.8798   -1.1820    2.7013 C   0  0  0  0  0  0  0  0  0  0  0  0
    2.8548   -1.8388    1.9581 C   0  0  0  0  0  0  0  0  0  0  0  0
    2.8725   -1.7507    0.5704 C   0  0  0  0  0  0  0  0  0  0  0  0
    1.9126   -0.9973   -0.0894 C   0  0  0  0  0  0  0  0  0  0  0  0
    2.2137    0.0388    4.7635 N   0  0  0  0  0  0  0  0  0  0  0  0
    2.2281   -0.0237    6.1738 N   0  0  0  0  0  0  0  0  0  0  0  0
    1.8683   -1.2555    4.2039 C   0  0  0  0  0  0  0  0  0  0  0  0
    0.1818    0.2540    0.1351 H   0  0  0  0  0  0  0  0  0  0  0  0
    0.1598    0.0968    2.5949 H   0  0  0  0  0  0  0  0  0  0  0  0
    3.6106   -2.4247    2.4686 H   0  0  0  0  0  0  0  0  0  0  0  0
    3.6380   -2.2689    0.0072 H   0  0  0  0  0  0  0  0  0  0  0  0
    1.9226   -0.9276   -1.1696 H   0  0  0  0  0  0  0  0  0  0  0  0
    3.1234    0.3126    4.4043 H   0  0  0  0  0  0  0  0  0  0  0  0
    3.1061   -0.4080    6.5118 H   0  0  0  0  0  0  0  0  0  0  0  0
    2.1713    0.9229    6.5244 H   0  0  0  0  0  0  0  0  0  0  0  0
    0.8691   -1.5191    4.5600 H   0  0  0  0  0  0  0  0  0  0  0  0
    2.5437   -2.0589    4.5341 H   0  0  0  0  0  0  0  0  0  0  0  0
  1  2  2  0
  1  6  1  0
  1 10  1  0
  2  3  1  0
  2 11  1  0
  3  4  2  0
  3  9  1  0
  4  5  1  0
  4 12  1  0
  5  6  2  0
  5 13  1  0
  6 14  1  0
  7  8  1  0
  7  9  1  0
  7 15  1  0
  8 16  1  0
  8 17  1  0
  9 18  1  0
  9 19  1  0
M  END
