
     RDKit          3D

 27 28  0  0  0  0  0  0  0  0999 V2000
    1.8536    0.6744   -2.3819 O   0  0  0  0  0  0  0  0  0  0  0  0
    1.0498   -0.0954    3.3369 O   0  0  0  0  0  0  0  0  0  0  0  0
    0.3712   -1.1224   -0.8189 N   0  0  0  0  0  0  0  0  0  0  0  0
    0.7338    0.3957   -2.7266 C   0  0  0  0  0  0  0  0  0  0  0  0
   -0.1798   -0.5858   -2.0448 C   0  0  2  0  0  0  0  0  0  0  0  0
   -1.5288    0.0655   -1.6478 C   0  0  0  0  0  0  0  0  0  0  0  0
   -1.4707    0.1113   -0.1209 C   0  0  2  0  0  0  0  0  0  0  0  0
   -0.7841    1.3769    0.3925 C   0  0  0  0  0  0  0  0  0  0  0  0
   -0.3441    1.2461    1.8449 C   0  0  0  0  0  0  0  0  0  0  0  0
    0.5980    0.0601    2.0042 C   0  0  2  0  0  0  0  0  0  0  0  0
   -0.1127   -1.2219    1.6062 C   0  0  0  0  0  0  0  0  0  0  0  0
   -0.6769   -1.1578    0.1937 C   0  0  2  0  0  0  0  0  0  0  0  0
    0.8071   -2.0235   -0.9534 H   0  0  0  0  0  0  0  0  0  0  0  0
    0.2875    0.8522   -3.6315 H   0  0  0  0  0  0  0  0  0  0  0  0
   -0.3752   -1.3538   -2.8090 H   0  0  0  0  0  0  0  0  0  0  0  0
   -2.3534   -0.5645   -1.9818 H   0  0  0  0  0  0  0  0  0  0  0  0
   -1.6806    1.0507   -2.0949 H   0  0  0  0  0  0  0  0  0  0  0  0
   -2.4720    0.0446    0.3125 H   0  0  0  0  0  0  0  0  0  0  0  0
   -1.4642    2.2244    0.2769 H   0  0  0  0  0  0  0  0  0  0  0  0
    0.0947    1.6073   -0.2182 H   0  0  0  0  0  0  0  0  0  0  0  0
   -1.2143    1.1089    2.4975 H   0  0  0  0  0  0  0  0  0  0  0  0
    0.1501    2.1687    2.1653 H   0  0  0  0  0  0  0  0  0  0  0  0
    1.4477    0.2059    1.3223 H   0  0  0  0  0  0  0  0  0  0  0  0
    0.5659   -2.0769    1.6913 H   0  0  0  0  0  0  0  0  0  0  0  0
   -0.9376   -1.4050    2.3039 H   0  0  0  0  0  0  0  0  0  0  0  0
   -1.3488   -2.0201    0.0575 H   0  0  0  0  0  0  0  0  0  0  0  0
    1.5486    0.6920    3.5751 H   0  0  0  0  0  0  0  0  0  0  0  0
  1  4  2  0
  2 10  1  0
  2 27  1  0
  3  5  1  0
  3 12  1  0
  3 13  1  0
  4  5  1  0
  4 14  1  0
  5  6  1  0
  5 15  1  6
  6  7  1  0
  6 16  1  0
  6 17  1  0
  7  8  1  0
  7 12  1  0
  7 18  1  1
  8  9  1  0
  8 19  1  0
  8 20  1  0
  9 10  1  0
  9 21  1  0
  9 22  1  0
 10 11  1  0
 10 23  1  6
 11 12  1  0
 11 24  1  0
 11 25  1  0
 12 26  1  6
M  END
