
     RDKit          3D

 50 53  0  0  0  0  0  0  0  0999 V2000
   -5.9804   -2.4438   -1.0316 F   0  0  0  0  0  0  0  0  0  0  0  0
   -5.1919   -1.7846   -0.1468 C   0  0  2  0  0  0  0  0  0  0  0  0
   -4.2729   -2.6986    0.2879 F   0  0  0  0  0  0  0  0  0  0  0  0
   -5.9352   -1.1957    1.0262 C   0  0  0  0  0  0  0  0  0  0  0  0
   -4.9540   -0.1529    1.5511 C   0  0  0  0  0  0  0  0  0  0  0  0
   -4.4730   -0.6064   -0.7817 C   0  0  0  0  0  0  0  0  0  0  0  0
   -4.1814    0.2231    0.3682 N   0  0  0  0  0  0  0  0  0  0  0  0
   -3.3043    1.2539    0.4184 C   0  0  0  0  0  0  0  0  0  0  0  0
   -3.1299    1.8909    1.4352 O   0  0  0  0  0  0  0  0  0  0  0  0
   -2.5088    1.5183   -0.8569 C   0  0  1  0  0  0  0  0  0  0  0  0
   -1.9636    2.8640   -0.8437 N   0  0  0  0  0  0  0  0  0  0  0  0
   -0.6037    2.7464   -0.3565 C   0  0  0  0  0  0  0  0  0  0  0  0
   -1.3034    0.5320   -0.9218 C   0  0  0  0  0  0  0  0  0  0  0  0
   -0.0629    1.4374   -0.9520 C   0  0  2  0  0  0  0  0  0  0  0  0
    1.0609    0.8787   -0.2296 N   0  0  0  0  0  0  0  0  0  0  0  0
    2.1728    1.8042   -0.1320 C   0  0  0  0  0  0  0  0  0  0  0  0
    3.2873    1.2334    0.7256 C   0  0  0  0  0  0  0  0  0  0  0  0
    3.7042   -0.0582    0.2266 N   0  0  0  0  0  0  0  0  0  0  0  0
    2.6169   -0.9936    0.0464 C   0  0  0  0  0  0  0  0  0  0  0  0
    1.5193   -0.3727   -0.7986 C   0  0  0  0  0  0  0  0  0  0  0  0
    4.9987   -0.4576    0.2646 C   0  0  0  0  0  0  0  0  0  0  0  0
    5.2639   -1.7344   -0.0382 N   0  0  0  0  0  0  0  0  0  0  0  0
    6.5301   -2.1002   -0.0182 C   0  0  0  0  0  0  0  0  0  0  0  0
    7.5648   -1.2347    0.2991 C   0  0  0  0  0  0  0  0  0  0  0  0
    7.1763    0.0608    0.6015 C   0  0  0  0  0  0  0  0  0  0  0  0
    5.9197    0.4575    0.5909 N   0  0  0  0  0  0  0  0  0  0  0  0
   -6.8475   -0.7195    0.6650 H   0  0  0  0  0  0  0  0  0  0  0  0
   -6.2058   -1.9404    1.7727 H   0  0  0  0  0  0  0  0  0  0  0  0
   -5.4636    0.7084    1.9784 H   0  0  0  0  0  0  0  0  0  0  0  0
   -4.3024   -0.5714    2.3206 H   0  0  0  0  0  0  0  0  0  0  0  0
   -3.5793   -0.9345   -1.3152 H   0  0  0  0  0  0  0  0  0  0  0  0
   -5.1432   -0.1138   -1.4941 H   0  0  0  0  0  0  0  0  0  0  0  0
   -3.1613    1.4061   -1.7265 H   0  0  0  0  0  0  0  0  0  0  0  0
   -1.9518    3.2228   -1.7884 H   0  0  0  0  0  0  0  0  0  0  0  0
   -0.0277    3.6280   -0.6403 H   0  0  0  0  0  0  0  0  0  0  0  0
   -0.6057    2.6800    0.7341 H   0  0  0  0  0  0  0  0  0  0  0  0
   -1.2634   -0.1072   -0.0362 H   0  0  0  0  0  0  0  0  0  0  0  0
   -1.3619   -0.1222   -1.7923 H   0  0  0  0  0  0  0  0  0  0  0  0
    0.2083    1.6312   -2.0081 H   0  0  0  0  0  0  0  0  0  0  0  0
    2.5763    2.0677   -1.1261 H   0  0  0  0  0  0  0  0  0  0  0  0
    1.8411    2.7313    0.3374 H   0  0  0  0  0  0  0  0  0  0  0  0
    4.1358    1.9111    0.7289 H   0  0  0  0  0  0  0  0  0  0  0  0
    2.9306    1.1375    1.7590 H   0  0  0  0  0  0  0  0  0  0  0  0
    2.9875   -1.8947   -0.4337 H   0  0  0  0  0  0  0  0  0  0  0  0
    2.2029   -1.2799    1.0216 H   0  0  0  0  0  0  0  0  0  0  0  0
    0.6918   -1.0825   -0.8397 H   0  0  0  0  0  0  0  0  0  0  0  0
    1.8875   -0.2433   -1.8323 H   0  0  0  0  0  0  0  0  0  0  0  0
    6.7302   -3.1381   -0.2646 H   0  0  0  0  0  0  0  0  0  0  0  0
    8.5976   -1.5473    0.3159 H   0  0  0  0  0  0  0  0  0  0  0  0
    7.9117    0.8137    0.8668 H   0  0  0  0  0  0  0  0  0  0  0  0
  2  1  1  6
  4  2  1  0
  6  2  1  0
  2  3  1  0
  5  4  1  0
  4 27  1  0
  4 28  1  0
  5  7  1  0
  5 29  1  0
  5 30  1  0
  7  6  1  0
  6 31  1  0
  6 32  1  0
  8  7  1  0
 10  8  1  0
  9  8  2  0
 13 10  1  0
 11 10  1  0
 10 33  1  6
 12 11  1  0
 11 34  1  0
 14 12  1  0
 12 35  1  0
 12 36  1  0
 14 13  1  0
 13 37  1  0
 13 38  1  0
 15 14  1  0
 14 39  1  6
 16 15  1  0
 20 15  1  0
 17 16  1  0
 16 40  1  0
 16 41  1  0
 18 17  1  0
 17 42  1  0
 17 43  1  0
 21 18  1  0
 18 19  1  0
 19 20  1  0
 19 44  1  0
 19 45  1  0
 20 46  1  0
 20 47  1  0
 22 21  2  0
 26 21  1  0
 23 22  1  0
 24 23  2  0
 23 48  1  0
 24 25  1  0
 24 49  1  0
 25 26  2  0
 25 50  1  0
M  END
