
     RDKit          3D

 16 16  0  0  0  0  0  0  0  0999 V2000
    1.5591   -0.9457    0.0313 C   0  0  0  0  0  0  0  0  0  0  0  0
   -0.4561   -2.1115   -0.0617 O   0  0  0  0  0  0  0  0  0  0  0  0
   -2.2510    0.3086   -0.3894 S   0  0  0  0  0  0  0  0  0  0  0  0
    0.1727   -0.9338   -0.0868 C   0  0  0  0  0  0  0  0  0  0  0  0
   -0.5093    0.2868   -0.2314 C   0  0  0  0  0  0  0  0  0  0  0  0
    3.6030    0.2843    0.1192 O   0  0  0  0  0  0  0  0  0  0  0  0
    0.2325    1.4715   -0.2627 C   0  0  0  0  0  0  0  0  0  0  0  0
   -2.7902    0.5968    1.1647 O   0  0  0  0  0  0  0  0  0  0  0  0
    1.6037    1.4712   -0.1416 C   0  0  0  0  0  0  0  0  0  0  0  0
    2.2691    0.2481    0.0082 C   0  0  0  0  0  0  0  0  0  0  0  0
    2.0751   -1.8933    0.1405 H   0  0  0  0  0  0  0  0  0  0  0  0
    3.9623   -0.6038    0.2296 H   0  0  0  0  0  0  0  0  0  0  0  0
   -0.2908    2.4110   -0.3872 H   0  0  0  0  0  0  0  0  0  0  0  0
    2.1651    2.3957   -0.1652 H   0  0  0  0  0  0  0  0  0  0  0  0
   -1.4064   -1.9761   -0.2050 H   0  0  0  0  0  0  0  0  0  0  0  0
   -2.9021   -0.2486    1.6183 H   0  0  0  0  0  0  0  0  0  0  0  0
  1  4  2  0
  1 10  1  0
  1 11  1  0
  2  4  1  0
  3  5  1  0
  3  8  1  0
  4  5  1  0
  5  7  2  0
  6 10  1  0
  6 12  1  0
  7  9  1  0
  7 13  1  0
  9 10  2  0
  9 14  1  0
  2 15  1  0
  8 16  1  0
M  END
