
     RDKit          3D

 48 50  0  0  0  0  0  0  0  0999 V2000
    3.9344    3.2306   -1.2083 C   0  0  0  0  0  0  0  0  0  0  0  0
    1.4435   -0.7105    0.0490 N   0  0  0  0  0  0  0  0  0  0  0  0
    3.1532    1.4407    0.2329 O   0  0  0  0  0  0  0  0  0  0  0  0
   -3.4599    0.8462   -0.5881 S   0  0  0  0  0  0  0  0  0  0  0  0
    4.1038    2.5025    0.1148 C   0  0  1  0  0  0  0  0  0  0  0  0
    3.4897   -3.4415    1.4867 N   0  0  0  0  0  0  0  0  0  0  0  0
   -2.8502   -2.8140    0.4086 O   0  0  0  0  0  0  0  0  0  0  0  0
    5.4685    1.8554    0.2413 C   0  0  0  0  0  0  0  0  0  0  0  0
   -4.4688   -1.5285   -0.5645 N   0  0  0  0  0  0  0  0  0  0  0  0
   -5.8214    0.0805   -1.4832 O   0  0  0  0  0  0  0  0  0  0  0  0
    1.8625    1.6844    0.4997 C   0  0  0  0  0  0  0  0  0  0  0  0
    1.3492    2.9320    0.8474 C   0  0  0  0  0  0  0  0  0  0  0  0
   -0.0116    3.0880    1.0787 C   0  0  0  0  0  0  0  0  0  0  0  0
   -0.8771    2.0195    0.9571 C   0  0  0  0  0  0  0  0  0  0  0  0
   -0.3731    0.7582    0.6233 C   0  0  0  0  0  0  0  0  0  0  0  0
    1.0006    0.5755    0.4070 C   0  0  0  0  0  0  0  0  0  0  0  0
    1.4795   -1.0042   -1.3749 C   0  0  0  0  0  0  0  0  0  0  0  0
    1.3977   -2.5061   -1.5956 C   0  0  0  0  0  0  0  0  0  0  0  0
    2.4813   -3.2275   -0.8025 C   0  0  0  0  0  0  0  0  0  0  0  0
    2.4368   -2.8455    0.6769 C   0  0  2  0  0  0  0  0  0  0  0  0
    2.5126   -1.3266    0.8121 C   0  0  0  0  0  0  0  0  0  0  0  0
   -1.2321   -0.4120    0.5172 C   0  0  0  0  0  0  0  0  0  0  0  0
   -2.4952   -0.4633    0.0782 C   0  0  0  0  0  0  0  0  0  0  0  0
   -3.2418   -1.7400    0.0194 C   0  0  0  0  0  0  0  0  0  0  0  0
   -4.7954   -0.2615   -0.9638 C   0  0  0  0  0  0  0  0  0  0  0  0
    4.6781    4.0232   -1.2928 H   0  0  0  0  0  0  0  0  0  0  0  0
    4.0725    2.5442   -2.0452 H   0  0  0  0  0  0  0  0  0  0  0  0
    2.9518    3.6931   -1.3066 H   0  0  0  0  0  0  0  0  0  0  0  0
    3.9763    3.2056    0.9452 H   0  0  0  0  0  0  0  0  0  0  0  0
    3.4367   -4.4504    1.4107 H   0  0  0  0  0  0  0  0  0  0  0  0
    4.3917   -3.1912    1.0959 H   0  0  0  0  0  0  0  0  0  0  0  0
    6.2462    2.6146    0.1650 H   0  0  0  0  0  0  0  0  0  0  0  0
    5.5795    1.3553    1.2034 H   0  0  0  0  0  0  0  0  0  0  0  0
    5.6316    1.1219   -0.5501 H   0  0  0  0  0  0  0  0  0  0  0  0
   -5.1231   -2.2892   -0.7042 H   0  0  0  0  0  0  0  0  0  0  0  0
    1.9926    3.7968    0.9303 H   0  0  0  0  0  0  0  0  0  0  0  0
   -0.3912    4.0620    1.3568 H   0  0  0  0  0  0  0  0  0  0  0  0
   -1.9273    2.1587    1.1768 H   0  0  0  0  0  0  0  0  0  0  0  0
    0.6352   -0.5088   -1.8579 H   0  0  0  0  0  0  0  0  0  0  0  0
    2.3969   -0.6102   -1.8413 H   0  0  0  0  0  0  0  0  0  0  0  0
    0.4109   -2.8597   -1.2802 H   0  0  0  0  0  0  0  0  0  0  0  0
    1.4912   -2.7248   -2.6617 H   0  0  0  0  0  0  0  0  0  0  0  0
    2.3822   -4.3110   -0.9134 H   0  0  0  0  0  0  0  0  0  0  0  0
    3.4671   -2.9570   -1.2017 H   0  0  0  0  0  0  0  0  0  0  0  0
    1.4761   -3.1716    1.0919 H   0  0  0  0  0  0  0  0  0  0  0  0
    3.5109   -1.0005    0.4841 H   0  0  0  0  0  0  0  0  0  0  0  0
    2.4059   -1.0467    1.8618 H   0  0  0  0  0  0  0  0  0  0  0  0
   -0.7837   -1.3584    0.7982 H   0  0  0  0  0  0  0  0  0  0  0  0
  1  5  1  0
  2 16  1  0
  2 17  1  0
  2 21  1  0
  3  5  1  0
  3 11  1  0
  4 23  1  0
  4 25  1  0
  5  8  1  0
  6 20  1  0
  7 24  2  0
  9 24  1  0
  9 25  1  0
 10 25  2  0
 11 12  2  0
 11 16  1  0
 12 13  1  0
 13 14  2  0
 14 15  1  0
 15 16  2  0
 15 22  1  0
 17 18  1  0
 18 19  1  0
 19 20  1  0
 20 21  1  0
 22 23  2  0
 23 24  1  0
  1 26  1  0
  1 27  1  0
  1 28  1  0
  5 29  1  1
  6 30  1  0
  6 31  1  0
  8 32  1  0
  8 33  1  0
  8 34  1  0
  9 35  1  0
 12 36  1  0
 13 37  1  0
 14 38  1  0
 17 39  1  0
 17 40  1  0
 18 41  1  0
 18 42  1  0
 19 43  1  0
 19 44  1  0
 20 45  1  1
 21 46  1  0
 21 47  1  0
 22 48  1  0
M  END
