
     RDKit          3D

 35 39  0  0  0  0  0  0  0  0999 V2000
   -4.0636    1.8353    1.1496 C   0  0  0  0  0  0  0  0  0  0  0  0
   -1.5360    0.3147   -0.3826 C   0  0  0  0  0  0  0  0  0  0  0  0
   -4.7310    0.8875    0.4217 O   0  0  0  0  0  0  0  0  0  0  0  0
   -3.8783    0.4456   -0.5952 C   0  0  2  0  0  0  0  0  0  0  0  0
   -3.4542   -0.8912   -0.3074 O   0  0  0  0  0  0  0  0  0  0  0  0
   -2.1199   -0.9272   -0.2133 C   0  0  0  0  0  0  0  0  0  0  0  0
   -1.4036   -2.0921    0.0156 C   0  0  0  0  0  0  0  0  0  0  0  0
   -0.0203   -1.9868    0.0813 C   0  0  0  0  0  0  0  0  0  0  0  0
    0.7748   -3.0282    0.2950 O   0  0  0  0  0  0  0  0  0  0  0  0
    0.2072   -4.3185    0.4618 C   0  0  0  0  0  0  0  0  0  0  0  0
    0.6307   -0.7320   -0.0830 C   0  0  0  0  0  0  0  0  0  0  0  0
   -0.1697    0.4084   -0.3129 C   0  0  0  0  0  0  0  0  0  0  0  0
    0.3621    1.6356   -0.4703 O   0  0  0  0  0  0  0  0  0  0  0  0
    1.7038    1.8991   -0.4387 C   0  0  0  0  0  0  0  0  0  0  0  0
    2.0406    3.0416   -0.5960 O   0  0  0  0  0  0  0  0  0  0  0  0
    2.5373    0.7511   -0.2152 C   0  0  0  0  0  0  0  0  0  0  0  0
    2.0336   -0.5094   -0.0382 C   0  0  0  0  0  0  0  0  0  0  0  0
    3.1384   -1.4984    0.1864 C   0  0  0  0  0  0  0  0  0  0  0  0
    4.4239   -0.6739    0.1191 C   0  0  0  0  0  0  0  0  0  0  0  0
   -2.6112    1.3396   -0.5605 C   0  0  1  0  0  0  0  0  0  0  0  0
    3.9953    0.7554   -0.1422 C   0  0  0  0  0  0  0  0  0  0  0  0
   -2.8774    2.1687    0.6668 C   0  0  0  0  0  0  0  0  0  0  0  0
    4.7344    1.7074   -0.2653 O   0  0  0  0  0  0  0  0  0  0  0  0
   -4.5915    2.2044    2.0169 H   0  0  0  0  0  0  0  0  0  0  0  0
   -2.2011    2.8961    1.0852 H   0  0  0  0  0  0  0  0  0  0  0  0
   -2.4899    1.9383   -1.4655 H   0  0  0  0  0  0  0  0  0  0  0  0
   -4.4277    0.4211   -1.5352 H   0  0  0  0  0  0  0  0  0  0  0  0
   -1.9186   -3.0342    0.1360 H   0  0  0  0  0  0  0  0  0  0  0  0
   -0.3462   -4.6300   -0.4262 H   0  0  0  0  0  0  0  0  0  0  0  0
    1.0414   -4.9959    0.6182 H   0  0  0  0  0  0  0  0  0  0  0  0
   -0.4520   -4.3558    1.3310 H   0  0  0  0  0  0  0  0  0  0  0  0
    3.0143   -1.9935    1.1499 H   0  0  0  0  0  0  0  0  0  0  0  0
    3.1067   -2.2822   -0.5706 H   0  0  0  0  0  0  0  0  0  0  0  0
    4.9949   -0.7169    1.0483 H   0  0  0  0  0  0  0  0  0  0  0  0
    5.0914   -1.0081   -0.6769 H   0  0  0  0  0  0  0  0  0  0  0  0
  1  3  1  0
  1 22  2  0
  2  6  2  0
  2 12  1  0
  2 20  1  0
  3  4  1  0
  4  5  1  0
  4 20  1  0
  5  6  1  0
  6  7  1  0
  7  8  2  0
  8  9  1  0
  8 11  1  0
  9 10  1  0
 11 12  2  0
 11 17  1  0
 12 13  1  0
 13 14  1  0
 14 15  2  0
 14 16  1  0
 16 17  2  0
 16 21  1  0
 17 18  1  0
 18 19  1  0
 19 21  1  0
 21 23  2  0
 20 22  1  0
  1 24  1  0
 22 25  1  0
 20 26  1  6
  4 27  1  6
  7 28  1  0
 10 29  1  0
 10 30  1  0
 10 31  1  0
 18 32  1  0
 18 33  1  0
 19 34  1  0
 19 35  1  0
M  END
