
     RDKit          3D

 34 35  0  0  0  0  0  0  0  0999 V2000
    1.8498   -1.2876   -0.4948 O   0  0  0  0  0  0  0  0  0  0  0  0
    1.9205   -0.1721   -0.0029 C   0  0  0  0  0  0  0  0  0  0  0  0
    3.0675    0.5033    0.2105 N   0  0  0  0  0  0  0  0  0  0  0  0
    4.4125    0.0627   -0.1765 C   0  0  1  0  0  0  0  0  0  0  0  0
    4.5107   -0.1347   -1.6898 C   0  0  0  0  0  0  0  0  0  0  0  0
    5.3541    1.1919    0.2410 C   0  0  0  0  0  0  0  0  0  0  0  0
    4.8054   -1.2195    0.5590 C   0  0  0  0  0  0  0  0  0  0  0  0
    0.7965    0.5330    0.4010 N   0  0  0  0  0  0  0  0  0  0  0  0
   -0.5168    0.0971    0.2857 C   0  0  0  0  0  0  0  0  0  0  0  0
   -0.8738   -1.2664    0.4748 C   0  0  0  0  0  0  0  0  0  0  0  0
   -2.1787   -1.6593    0.3987 C   0  0  0  0  0  0  0  0  0  0  0  0
   -3.2043   -0.7235    0.1469 C   0  0  0  0  0  0  0  0  0  0  0  0
   -2.8545    0.6384   -0.0168 C   0  0  0  0  0  0  0  0  0  0  0  0
   -1.5047    1.0268    0.0503 C   0  0  0  0  0  0  0  0  0  0  0  0
   -4.4905   -1.1284    0.0753 N   0  0  0  0  0  0  0  0  0  0  0  0
   -5.3872   -0.2093   -0.1548 C   0  0  0  0  0  0  0  0  0  0  0  0
   -5.0396    1.1517   -0.3217 C   0  0  0  0  0  0  0  0  0  0  0  0
   -3.8072    1.5716   -0.2541 N   0  0  0  0  0  0  0  0  0  0  0  0
    3.0103    1.3955    0.6754 H   0  0  0  0  0  0  0  0  0  0  0  0
    0.9039    1.5282    0.5307 H   0  0  0  0  0  0  0  0  0  0  0  0
    4.2288    0.7776   -2.2181 H   0  0  0  0  0  0  0  0  0  0  0  0
    5.5378   -0.3789   -1.9648 H   0  0  0  0  0  0  0  0  0  0  0  0
    3.8724   -0.9453   -2.0362 H   0  0  0  0  0  0  0  0  0  0  0  0
    5.3201    1.3590    1.3195 H   0  0  0  0  0  0  0  0  0  0  0  0
    6.3807    0.9434   -0.0265 H   0  0  0  0  0  0  0  0  0  0  0  0
    5.0957    2.1276   -0.2593 H   0  0  0  0  0  0  0  0  0  0  0  0
    4.1747   -2.0581    0.2699 H   0  0  0  0  0  0  0  0  0  0  0  0
    5.8389   -1.4808    0.3251 H   0  0  0  0  0  0  0  0  0  0  0  0
    4.7280   -1.0868    1.6393 H   0  0  0  0  0  0  0  0  0  0  0  0
   -0.1137   -1.9988    0.6946 H   0  0  0  0  0  0  0  0  0  0  0  0
   -1.2619    2.0729   -0.0950 H   0  0  0  0  0  0  0  0  0  0  0  0
   -2.4467   -2.6974    0.5473 H   0  0  0  0  0  0  0  0  0  0  0  0
   -6.4257   -0.5135   -0.2168 H   0  0  0  0  0  0  0  0  0  0  0  0
   -5.8148    1.8850   -0.5135 H   0  0  0  0  0  0  0  0  0  0  0  0
  1  2  2  0
  2  3  1  0
  2  8  1  0
  4  3  1  6
  4  5  1  0
  4  6  1  0
  4  7  1  0
  8  9  1  0
  9 10  2  0
  9 14  1  0
 10 11  1  0
 11 12  2  0
 12 13  1  0
 12 15  1  0
 13 14  2  0
 13 18  1  0
 15 16  2  0
 16 17  1  0
 17 18  2  0
  3 19  1  0
  8 20  1  0
  5 21  1  0
  5 22  1  0
  5 23  1  0
  6 24  1  0
  6 25  1  0
  6 26  1  0
  7 27  1  0
  7 28  1  0
  7 29  1  0
 10 30  1  0
 14 31  1  0
 11 32  1  0
 16 33  1  0
 17 34  1  0
M  END
