
     RDKit          3D

 40 41  0  0  0  0  0  0  0  0999 V2000
    1.1274    0.5896   -0.0502 N   0  0  0  0  0  0  0  0  0  0  0  0
   -0.0598    1.0917    0.6182 C   0  0  0  0  0  0  0  0  0  0  0  0
   -1.3384    0.4011    0.1638 C   0  0  0  0  0  0  0  0  0  0  0  0
   -2.5649    0.9653    0.8829 C   0  0  0  0  0  0  0  0  0  0  0  0
   -3.8452    0.3676    0.3713 C   0  0  0  0  0  0  0  0  0  0  0  0
   -4.5716    0.9967   -0.6373 C   0  0  0  0  0  0  0  0  0  0  0  0
   -6.1885   -0.7865   -0.6453 C   0  0  0  0  0  0  0  0  0  0  0  0
    1.5442   -0.7029    0.4596 C   0  0  0  0  0  0  0  0  0  0  0  0
    3.8176   -0.2874   -0.3225 N   0  0  0  0  0  0  0  0  0  0  0  0
    6.1308    0.4347    0.0121 C   0  0  0  0  0  0  0  0  0  0  0  0
    5.3455   -1.7814    0.3973 O   0  0  0  0  0  0  0  0  0  0  0  0
    5.0682   -0.6403    0.0458 C   0  0  0  0  0  0  0  0  0  0  0  0
   -5.4727   -1.4248    0.3600 C   0  0  0  0  0  0  0  0  0  0  0  0
   -4.3122   -0.8508    0.8618 C   0  0  0  0  0  0  0  0  0  0  0  0
    2.7274   -1.2443   -0.3242 C   0  0  0  0  0  0  0  0  0  0  0  0
    3.4163    1.0270   -0.7825 C   0  0  0  0  0  0  0  0  0  0  0  0
    2.2281    1.5304    0.0194 C   0  0  0  0  0  0  0  0  0  0  0  0
   -5.7337    0.4279   -1.1425 C   0  0  0  0  0  0  0  0  0  0  0  0
    0.0336    1.0202    1.7158 H   0  0  0  0  0  0  0  0  0  0  0  0
   -0.1492    2.1574    0.3903 H   0  0  0  0  0  0  0  0  0  0  0  0
   -1.4491    0.5350   -0.9157 H   0  0  0  0  0  0  0  0  0  0  0  0
   -1.2859   -0.6767    0.3421 H   0  0  0  0  0  0  0  0  0  0  0  0
   -2.4699    0.7815    1.9566 H   0  0  0  0  0  0  0  0  0  0  0  0
   -2.5901    2.0510    0.7531 H   0  0  0  0  0  0  0  0  0  0  0  0
   -4.2268    1.9466   -1.0300 H   0  0  0  0  0  0  0  0  0  0  0  0
   -7.0950   -1.2309   -1.0357 H   0  0  0  0  0  0  0  0  0  0  0  0
    1.8136   -0.6478    1.5287 H   0  0  0  0  0  0  0  0  0  0  0  0
    0.7239   -1.4173    0.3729 H   0  0  0  0  0  0  0  0  0  0  0  0
    5.8975    1.2570    0.6896 H   0  0  0  0  0  0  0  0  0  0  0  0
    7.0798    0.0015    0.3170 H   0  0  0  0  0  0  0  0  0  0  0  0
    6.2527    0.8570   -0.9860 H   0  0  0  0  0  0  0  0  0  0  0  0
   -5.8194   -2.3708    0.7562 H   0  0  0  0  0  0  0  0  0  0  0  0
   -3.7605   -1.3551    1.6473 H   0  0  0  0  0  0  0  0  0  0  0  0
    3.0620   -2.1813    0.1119 H   0  0  0  0  0  0  0  0  0  0  0  0
    2.4223   -1.4439   -1.3570 H   0  0  0  0  0  0  0  0  0  0  0  0
    4.2333    1.7371   -0.6963 H   0  0  0  0  0  0  0  0  0  0  0  0
    3.1406    0.9711   -1.8410 H   0  0  0  0  0  0  0  0  0  0  0  0
    1.9098    2.4872   -0.4001 H   0  0  0  0  0  0  0  0  0  0  0  0
    2.5496    1.7200    1.0582 H   0  0  0  0  0  0  0  0  0  0  0  0
   -6.2863    0.9362   -1.9224 H   0  0  0  0  0  0  0  0  0  0  0  0
 18  7  1  0
 18  6  2  0
  7 13  2  0
  6  5  1  0
 13 14  1  0
  5 14  2  0
  5  4  1  0
  4  3  1  0
  3  2  1  0
  1  2  1  0
  1 17  1  0
  1  8  1  0
 17 16  1  0
  8 15  1  0
 16  9  1  0
 15  9  1  0
  9 12  1  0
 12 11  2  0
 12 10  1  0
  2 19  1  0
  2 20  1  0
  3 21  1  0
  3 22  1  0
  4 23  1  0
  4 24  1  0
  6 25  1  0
  7 26  1  0
  8 27  1  0
  8 28  1  0
 10 29  1  0
 10 30  1  0
 10 31  1  0
 13 32  1  0
 14 33  1  0
 15 34  1  0
 15 35  1  0
 16 36  1  0
 16 37  1  0
 17 38  1  0
 17 39  1  0
 18 40  1  0
M  END
