
     RDKit          3D

 37 37  0  0  0  0  0  0  0  0999 V2000
    4.2997    1.4110    0.2240 C   0  0  0  0  0  0  0  0  0  0  0  0
    3.4117    0.2209    0.5478 C   0  0  0  0  0  0  0  0  0  0  0  0
    3.7100   -0.6399    1.3421 O   0  0  0  0  0  0  0  0  0  0  0  0
    2.2403    0.2642   -0.1395 N   0  0  0  0  0  0  0  0  0  0  0  0
    1.1500   -0.5987    0.0214 C   0  0  0  0  0  0  0  0  0  0  0  0
   -0.1223   -0.0632   -0.1588 C   0  0  0  0  0  0  0  0  0  0  0  0
    1.2818   -1.9488    0.3285 C   0  0  0  0  0  0  0  0  0  0  0  0
    0.1519   -2.7398    0.4593 C   0  0  0  0  0  0  0  0  0  0  0  0
   -1.1121   -2.2048    0.2829 C   0  0  0  0  0  0  0  0  0  0  0  0
   -2.4856   -3.2309    0.4730 Cl  0  0  0  0  0  0  0  0  0  0  0  0
   -1.2479   -0.8566   -0.0334 C   0  0  0  0  0  0  0  0  0  0  0  0
   -2.8737   -0.1314   -0.2128 S   0  0  1  0  0  0  0  0  0  0  0  0
   -3.5083   -0.8095   -1.3304 O   0  0  0  0  0  0  0  0  0  0  0  0
   -3.4925   -0.1705    1.1016 O   0  0  0  0  0  0  0  0  0  0  0  0
   -2.6161    1.4234   -0.6077 N   0  0  0  0  0  0  0  0  0  0  0  0
   -2.3742    1.7751   -2.0023 C   0  0  0  0  0  0  0  0  0  0  0  0
   -2.8151    2.4957    0.3653 C   0  0  0  0  0  0  0  0  0  0  0  0
   -1.6085    2.7765    1.2329 C   0  0  0  0  0  0  0  0  0  0  0  0
   -0.5299    3.1718    0.4232 O   0  0  0  0  0  0  0  0  0  0  0  0
    0.6493    3.3868    1.1589 C   0  0  0  0  0  0  0  0  0  0  0  0
    4.3931    1.5429   -0.8536 H   0  0  0  0  0  0  0  0  0  0  0  0
    3.8616    2.3201    0.6380 H   0  0  0  0  0  0  0  0  0  0  0  0
    2.0905    1.0471   -0.7595 H   0  0  0  0  0  0  0  0  0  0  0  0
   -0.2291    0.9926   -0.3746 H   0  0  0  0  0  0  0  0  0  0  0  0
    2.2513   -2.4034    0.4565 H   0  0  0  0  0  0  0  0  0  0  0  0
    0.2631   -3.7889    0.6964 H   0  0  0  0  0  0  0  0  0  0  0  0
   -3.2937    2.0847   -2.5009 H   0  0  0  0  0  0  0  0  0  0  0  0
   -1.6575    2.5918   -2.0395 H   0  0  0  0  0  0  0  0  0  0  0  0
   -1.9463    0.9401   -2.5519 H   0  0  0  0  0  0  0  0  0  0  0  0
   -3.0805    3.3849   -0.2080 H   0  0  0  0  0  0  0  0  0  0  0  0
   -3.6676    2.2828    1.0085 H   0  0  0  0  0  0  0  0  0  0  0  0
   -1.8729    3.5656    1.9505 H   0  0  0  0  0  0  0  0  0  0  0  0
   -1.3515    1.8860    1.8246 H   0  0  0  0  0  0  0  0  0  0  0  0
    0.5164    4.1551    1.9285 H   0  0  0  0  0  0  0  0  0  0  0  0
    0.9952    2.4714    1.6559 H   0  0  0  0  0  0  0  0  0  0  0  0
    1.4199    3.7252    0.4669 H   0  0  0  0  0  0  0  0  0  0  0  0
    5.9174    1.2131    0.9120 Cl  0  0  0  0  0  0  0  0  0  0  0  0
  1  2  1  0
 20 19  1  0
  3  2  2  0
  2  4  1  0
  4  5  1  0
 19 18  1  0
 18 17  1  0
  5  7  2  0
  5  6  1  0
  7  8  1  0
  6 11  2  0
  8  9  2  0
 17 15  1  0
 11  9  1  0
 11 12  1  0
  9 10  1  0
 16 15  1  0
 12 15  1  6
 14 12  2  0
 12 13  2  0
  1 21  1  0
  1 22  1  0
  4 23  1  0
  6 24  1  0
  7 25  1  0
  8 26  1  0
 16 27  1  0
 16 28  1  0
 16 29  1  0
 17 30  1  0
 17 31  1  0
 18 32  1  0
 18 33  1  0
 20 34  1  0
 20 35  1  0
 20 36  1  0
  1 37  1  0
M  END
