
     RDKit          3D

 29 30  0  0  0  0  0  0  0  0999 V2000
    1.1855   -0.7077   -0.0160 N   0  0  0  0  0  0  0  0  0  0  0  0
    0.2255    0.8443    1.3539 O   0  0  0  0  0  0  0  0  0  0  0  0
   -3.1747    1.5512   -1.4790 F   0  0  0  0  0  0  0  0  0  0  0  0
   -2.2817   -0.1618   -0.1361 C   0  0  0  0  0  0  0  0  0  0  0  0
   -1.0422    1.5069   -1.2452 F   0  0  0  0  0  0  0  0  0  0  0  0
   -1.1639   -0.8189    0.3866 C   0  0  0  0  0  0  0  0  0  0  0  0
   -2.2989    2.1403    0.3877 F   0  0  0  0  0  0  0  0  0  0  0  0
   -1.2792   -2.1439    0.7890 C   0  0  0  0  0  0  0  0  0  0  0  0
   -2.4932   -2.8096    0.6960 C   0  0  0  0  0  0  0  0  0  0  0  0
   -3.6002   -2.1528    0.1868 C   0  0  0  0  0  0  0  0  0  0  0  0
   -3.4917   -0.8355   -0.2361 C   0  0  0  0  0  0  0  0  0  0  0  0
    0.1462   -0.1227    0.6218 C   0  0  0  0  0  0  0  0  0  0  0  0
    2.5413   -0.3536    0.0026 C   0  0  0  0  0  0  0  0  0  0  0  0
    3.1110    0.5175    0.9314 C   0  0  0  0  0  0  0  0  0  0  0  0
    4.4723    0.7873    0.8694 C   0  0  0  0  0  0  0  0  0  0  0  0
    5.2788    0.2063   -0.0976 C   0  0  0  0  0  0  0  0  0  0  0  0
    4.7087   -0.6648   -1.0172 C   0  0  0  0  0  0  0  0  0  0  0  0
    3.3534   -0.9417   -0.9697 C   0  0  0  0  0  0  0  0  0  0  0  0
    0.9512   -1.4555   -0.6526 H   0  0  0  0  0  0  0  0  0  0  0  0
   -0.4182   -2.6575    1.1974 H   0  0  0  0  0  0  0  0  0  0  0  0
   -2.5701   -3.8377    1.0230 H   0  0  0  0  0  0  0  0  0  0  0  0
   -4.5510   -2.6621    0.1087 H   0  0  0  0  0  0  0  0  0  0  0  0
   -4.3629   -0.3460   -0.6483 H   0  0  0  0  0  0  0  0  0  0  0  0
    2.5157    0.9805    1.7007 H   0  0  0  0  0  0  0  0  0  0  0  0
    4.9033    1.4630    1.5970 H   0  0  0  0  0  0  0  0  0  0  0  0
    6.3371    0.4271   -0.1344 H   0  0  0  0  0  0  0  0  0  0  0  0
    5.3189   -1.1322   -1.7788 H   0  0  0  0  0  0  0  0  0  0  0  0
    2.9169   -1.6196   -1.6940 H   0  0  0  0  0  0  0  0  0  0  0  0
   -2.1972    1.2593   -0.6138 C   0  0  1  0  0  0  0  0  0  0  0  0
  1 12  1  0
  1 13  1  0
  2 12  2  0
 29  3  1  6
 29  4  1  0
 29  5  1  0
 29  7  1  0
  4  6  2  0
  4 11  1  0
  6  8  1  0
  6 12  1  0
  8  9  2  0
  9 10  1  0
 10 11  2  0
 13 14  2  0
 13 18  1  0
 14 15  1  0
 15 16  2  0
 16 17  1  0
 17 18  2  0
  1 19  1  0
  8 20  1  0
  9 21  1  0
 10 22  1  0
 11 23  1  0
 14 24  1  0
 15 25  1  0
 16 26  1  0
 17 27  1  0
 18 28  1  0
M  END
