
     RDKit          3D

 48 50  0  0  0  0  0  0  0  0999 V2000
   -6.2418   -0.9251   -1.0361 C   0  0  0  0  0  0  0  0  0  0  0  0
   -6.9907   -2.2197   -0.7635 C   0  0  0  0  0  0  0  0  0  0  0  0
   -6.9846   -2.5580    0.6068 O   0  0  0  0  0  0  0  0  0  0  0  0
   -5.6776   -2.7240    1.1089 C   0  0  0  0  0  0  0  0  0  0  0  0
   -4.8380   -1.4659    0.9560 C   0  0  0  0  0  0  0  0  0  0  0  0
   -4.8127   -1.0305   -0.5169 C   0  0  2  0  0  0  0  0  0  0  0  0
   -4.0484    0.2691   -0.6450 C   0  0  0  0  0  0  0  0  0  0  0  0
   -4.5810    1.3690   -0.6575 O   0  0  0  0  0  0  0  0  0  0  0  0
   -2.7100    0.1360   -0.6912 N   0  0  0  0  0  0  0  0  0  0  0  0
   -1.8388    1.2803   -0.6752 C   0  0  1  0  0  0  0  0  0  0  0  0
   -2.1899    2.1874    0.5145 C   0  0  0  0  0  0  0  0  0  0  0  0
   -2.4248    1.7515    1.6207 O   0  0  0  0  0  0  0  0  0  0  0  0
   -2.0866    3.4928    0.2088 N   0  0  0  0  0  0  0  0  0  0  0  0
   -2.4498    4.4241    1.1350 O   0  0  0  0  0  0  0  0  0  0  0  0
   -0.3989    0.8542   -0.5257 C   0  0  0  0  0  0  0  0  0  0  0  0
    0.5740    1.3733   -1.3709 C   0  0  0  0  0  0  0  0  0  0  0  0
    1.9048    1.0157   -1.2227 C   0  0  0  0  0  0  0  0  0  0  0  0
   -0.0135   -0.0341    0.4754 C   0  0  0  0  0  0  0  0  0  0  0  0
    1.3148   -0.3965    0.6192 C   0  0  0  0  0  0  0  0  0  0  0  0
    2.2956    0.1243   -0.2252 C   0  0  0  0  0  0  0  0  0  0  0  0
    3.7107   -0.2599   -0.0638 C   0  0  0  0  0  0  0  0  0  0  0  0
    4.0496   -1.5631    0.2993 C   0  0  0  0  0  0  0  0  0  0  0  0
    5.3755   -1.9063    0.4519 C   0  0  0  0  0  0  0  0  0  0  0  0
    5.7142   -3.1506    0.7910 F   0  0  0  0  0  0  0  0  0  0  0  0
    6.3854   -0.9833    0.2503 C   0  0  0  0  0  0  0  0  0  0  0  0
    7.6622   -1.3282    0.4012 F   0  0  0  0  0  0  0  0  0  0  0  0
    6.0398    0.3062   -0.1110 C   0  0  0  0  0  0  0  0  0  0  0  0
    7.0160    1.1962   -0.2926 F   0  0  0  0  0  0  0  0  0  0  0  0
    4.7221    0.6777   -0.2689 C   0  0  0  0  0  0  0  0  0  0  0  0
   -6.2537   -0.7250   -2.1100 H   0  0  0  0  0  0  0  0  0  0  0  0
   -6.7550   -0.0943   -0.5464 H   0  0  0  0  0  0  0  0  0  0  0  0
   -8.0359   -2.1245   -1.0618 H   0  0  0  0  0  0  0  0  0  0  0  0
   -6.5525   -3.0338   -1.3606 H   0  0  0  0  0  0  0  0  0  0  0  0
   -5.7714   -2.9942    2.1619 H   0  0  0  0  0  0  0  0  0  0  0  0
   -5.1744   -3.5585    0.5980 H   0  0  0  0  0  0  0  0  0  0  0  0
   -5.2524   -0.6616    1.5709 H   0  0  0  0  0  0  0  0  0  0  0  0
   -3.8282   -1.6666    1.3216 H   0  0  0  0  0  0  0  0  0  0  0  0
   -4.2842   -1.8044   -1.0874 H   0  0  0  0  0  0  0  0  0  0  0  0
   -2.3012   -0.7838   -0.7356 H   0  0  0  0  0  0  0  0  0  0  0  0
   -1.9369    1.8456   -1.6090 H   0  0  0  0  0  0  0  0  0  0  0  0
   -2.1387    3.8163   -0.7469 H   0  0  0  0  0  0  0  0  0  0  0  0
   -1.6258    4.7709    1.5003 H   0  0  0  0  0  0  0  0  0  0  0  0
    0.2931    2.0540   -2.1653 H   0  0  0  0  0  0  0  0  0  0  0  0
    2.6374    1.4194   -1.9102 H   0  0  0  0  0  0  0  0  0  0  0  0
   -0.7461   -0.4416    1.1602 H   0  0  0  0  0  0  0  0  0  0  0  0
    1.5898   -1.0739    1.4179 H   0  0  0  0  0  0  0  0  0  0  0  0
    3.2909   -2.3212    0.4428 H   0  0  0  0  0  0  0  0  0  0  0  0
    4.4930    1.7031   -0.5275 H   0  0  0  0  0  0  0  0  0  0  0  0
 26 25  1  0
 24 23  1  0
 25 23  1  0
 25 27  2  0
 28 27  1  0
 23 22  2  0
 27 29  1  0
 22 21  1  0
 29 21  2  0
 21 20  1  0
 20 17  1  0
 20 19  2  0
 17 16  2  0
 19 18  1  0
 16 15  1  0
 18 15  2  0
 15 10  1  0
 10  9  1  0
 10 11  1  0
  8  7  2  0
  9  7  1  0
  7  6  1  0
 11 12  2  0
 11 13  1  0
  6  1  1  0
  6  5  1  0
  1  2  1  0
 13 14  1  0
  5  4  1  0
  2  3  1  0
  4  3  1  0
  1 30  1  0
  1 31  1  0
  2 32  1  0
  2 33  1  0
  4 34  1  0
  4 35  1  0
  5 36  1  0
  5 37  1  0
  6 38  1  6
  9 39  1  0
 10 40  1  6
 13 41  1  0
 14 42  1  0
 16 43  1  0
 17 44  1  0
 18 45  1  0
 19 46  1  0
 22 47  1  0
 29 48  1  0
M  END
