
     RDKit          3D

 31 31  0  0  0  0  0  0  0  0999 V2000
    3.9766   -0.9445   -0.9597 C   0  0  0  0  0  0  0  0  0  0  0  0
    3.7490   -0.0656    0.2651 C   0  0  1  0  0  0  0  0  0  0  0  0
    4.8399    0.9946    0.3845 C   0  0  0  0  0  0  0  0  0  0  0  0
    0.1177    0.0164    0.1068 C   0  0  0  0  0  0  0  0  0  0  0  0
   -0.3339    1.2950    0.0514 C   0  0  0  0  0  0  0  0  0  0  0  0
   -1.7321    1.5627   -0.0496 C   0  0  0  0  0  0  0  0  0  0  0  0
   -2.2114    2.6852   -0.1079 O   0  0  0  0  0  0  0  0  0  0  0  0
   -2.1094   -0.8612    0.0052 C   0  0  0  0  0  0  0  0  0  0  0  0
    2.4044    0.6355    0.2209 C   0  0  0  0  0  0  0  0  0  0  0  0
    1.3734   -0.3566    0.2035 O   0  0  0  0  0  0  0  0  0  0  0  0
   -2.5578    0.4345   -0.0731 N   0  0  0  0  0  0  0  0  0  0  0  0
   -2.8831   -1.7980    0.0130 O   0  0  0  0  0  0  0  0  0  0  0  0
   -0.7410   -1.0482    0.0679 N   0  0  0  0  0  0  0  0  0  0  0  0
    3.9540   -0.3494   -1.8760 H   0  0  0  0  0  0  0  0  0  0  0  0
    4.9535   -1.4269   -0.9065 H   0  0  0  0  0  0  0  0  0  0  0  0
    3.2286   -1.7319   -1.0522 H   0  0  0  0  0  0  0  0  0  0  0  0
    3.7770   -0.6913    1.1634 H   0  0  0  0  0  0  0  0  0  0  0  0
    4.8401    1.6555   -0.4847 H   0  0  0  0  0  0  0  0  0  0  0  0
    4.7116    1.6110    1.2756 H   0  0  0  0  0  0  0  0  0  0  0  0
    5.8228    0.5271    0.4429 H   0  0  0  0  0  0  0  0  0  0  0  0
    0.3374    2.1378    0.0835 H   0  0  0  0  0  0  0  0  0  0  0  0
   -4.2184    1.6552   -0.3065 H   0  0  0  0  0  0  0  0  0  0  0  0
   -4.3993    0.0437   -1.0066 H   0  0  0  0  0  0  0  0  0  0  0  0
   -4.4901    0.2635    0.7483 H   0  0  0  0  0  0  0  0  0  0  0  0
    0.2153   -2.6225    1.0979 H   0  0  0  0  0  0  0  0  0  0  0  0
   -1.0277   -3.1025   -0.0593 H   0  0  0  0  0  0  0  0  0  0  0  0
    0.5406   -2.5556   -0.6459 H   0  0  0  0  0  0  0  0  0  0  0  0
    2.2724    1.2788    1.0964 H   0  0  0  0  0  0  0  0  0  0  0  0
    2.3281    1.2582   -0.6770 H   0  0  0  0  0  0  0  0  0  0  0  0
   -4.0021    0.6039   -0.1634 C   0  0  0  0  0  0  0  0  0  0  0  0
   -0.2154   -2.4102    0.1213 C   0  0  0  0  0  0  0  0  0  0  0  0
  3  2  1  0
  2  1  1  0
  2  9  1  0
 10  9  1  0
 10  4  1  0
  5  4  2  0
  5  6  1  0
  4 13  1  0
  7  6  2  0
  6 11  1  0
 13 31  1  0
 13  8  1  0
 11  8  1  0
 11 30  1  0
  8 12  2  0
  1 14  1  0
  1 15  1  0
  1 16  1  0
  2 17  1  1
  3 18  1  0
  3 19  1  0
  3 20  1  0
  5 21  1  0
 30 22  1  0
 30 23  1  0
 30 24  1  0
 31 25  1  0
 31 26  1  0
 31 27  1  0
  9 28  1  0
  9 29  1  0
M  END
