
     RDKit          3D

 62 64  0  0  0  0  0  0  0  0999 V2000
    2.1500    1.4490   -0.5946 C   0  0  1  0  0  0  0  0  0  0  0  0
    1.3413   -0.3068    0.6056 C   0  0  0  0  0  0  0  0  0  0  0  0
   -0.8070   -0.7409   -0.5059 C   0  0  1  0  0  0  0  0  0  0  0  0
   -0.7411   -2.2751   -0.5301 C   0  0  0  0  0  0  0  0  0  0  0  0
    0.2604   -2.8493   -1.5330 C   0  0  1  0  0  0  0  0  0  0  0  0
    0.2280   -4.3729   -1.4639 C   0  0  0  0  0  0  0  0  0  0  0  0
   -0.0097   -2.3717   -2.9555 C   0  0  0  0  0  0  0  0  0  0  0  0
   -1.7255   -0.2183    0.6064 C   0  0  0  0  0  0  0  0  0  0  0  0
   -3.9913   -0.3191    1.5129 C   0  0  1  0  0  0  0  0  0  0  0  0
   -5.3935   -0.2227    0.9102 C   0  0  0  0  0  0  0  0  0  0  0  0
   -5.4847    0.8612   -0.1522 C   0  0  2  0  0  0  0  0  0  0  0  0
   -5.1588    2.2758    0.3240 C   0  0  0  0  0  0  0  0  0  0  0  0
   -6.0167    3.1709   -0.5729 C   0  0  0  0  0  0  0  0  0  0  0  0
   -6.8874    0.9949   -0.7260 C   0  0  0  0  0  0  0  0  0  0  0  0
   -3.9778   -1.3210    2.6451 C   0  0  0  0  0  0  0  0  0  0  0  0
    0.7054    1.1936   -1.0186 C   0  0  0  0  0  0  0  0  0  0  0  0
    0.4797   -0.1038   -0.4202 N   0  0  0  0  0  0  0  0  0  0  0  0
   -3.0052   -0.6211    0.5148 N   0  0  0  0  0  0  0  0  0  0  0  0
   -7.1266    2.3027   -0.9053 N   0  0  0  0  0  0  0  0  0  0  0  0
    2.3003    0.6348    0.5744 O   0  0  0  0  0  0  0  0  0  0  0  0
   -7.6481    0.0764   -0.9856 O   0  0  0  0  0  0  0  0  0  0  0  0
   -1.3209    0.5335    1.4754 O   0  0  0  0  0  0  0  0  0  0  0  0
    1.3378   -1.1828    1.4347 O   0  0  0  0  0  0  0  0  0  0  0  0
    2.3177    2.4854   -0.3014 H   0  0  0  0  0  0  0  0  0  0  0  0
   -1.2386   -0.4132   -1.4565 H   0  0  0  0  0  0  0  0  0  0  0  0
   -0.5213   -2.6566    0.4674 H   0  0  0  0  0  0  0  0  0  0  0  0
   -1.7354   -2.6506   -0.7917 H   0  0  0  0  0  0  0  0  0  0  0  0
    1.2654   -2.5240   -1.2465 H   0  0  0  0  0  0  0  0  0  0  0  0
   -0.7528   -4.7595   -1.7521 H   0  0  0  0  0  0  0  0  0  0  0  0
    0.9672   -4.8104   -2.1367 H   0  0  0  0  0  0  0  0  0  0  0  0
    0.4427   -4.7324   -0.4559 H   0  0  0  0  0  0  0  0  0  0  0  0
    0.1123   -1.2927   -3.0638 H   0  0  0  0  0  0  0  0  0  0  0  0
    0.6786   -2.8429   -3.6591 H   0  0  0  0  0  0  0  0  0  0  0  0
   -1.0260   -2.6256   -3.2676 H   0  0  0  0  0  0  0  0  0  0  0  0
   -3.7483    0.6468    1.9705 H   0  0  0  0  0  0  0  0  0  0  0  0
   -5.6833   -1.1877    0.4856 H   0  0  0  0  0  0  0  0  0  0  0  0
   -6.1005   -0.0069    1.7163 H   0  0  0  0  0  0  0  0  0  0  0  0
   -4.8329    0.5977   -0.9946 H   0  0  0  0  0  0  0  0  0  0  0  0
   -5.4649    2.3966    1.3665 H   0  0  0  0  0  0  0  0  0  0  0  0
   -4.1005    2.5221    0.2550 H   0  0  0  0  0  0  0  0  0  0  0  0
   -6.3606    4.0691   -0.0615 H   0  0  0  0  0  0  0  0  0  0  0  0
   -5.4758    3.4820   -1.4710 H   0  0  0  0  0  0  0  0  0  0  0  0
   -4.7445   -1.1332    3.4175 H   0  0  0  0  0  0  0  0  0  0  0  0
    0.0197    1.9484   -0.6231 H   0  0  0  0  0  0  0  0  0  0  0  0
    0.5937    1.1599   -2.1029 H   0  0  0  0  0  0  0  0  0  0  0  0
   -3.2529   -1.2987   -0.1902 H   0  0  0  0  0  0  0  0  0  0  0  0
   -7.9540    2.6357   -1.3756 H   0  0  0  0  0  0  0  0  0  0  0  0
    3.1577    1.0321   -1.6596 C   0  0  0  0  0  0  0  0  0  0  0  0
    5.2595    2.3238   -1.1752 C   0  0  0  0  0  0  0  0  0  0  0  0
    6.5542    2.4054   -0.6850 C   0  0  0  0  0  0  0  0  0  0  0  0
    7.1906    1.2796   -0.1809 C   0  0  0  0  0  0  0  0  0  0  0  0
    6.5032    0.0766   -0.1798 C   0  0  0  0  0  0  0  0  0  0  0  0
    5.2078   -0.0193   -0.6630 C   0  0  0  0  0  0  0  0  0  0  0  0
    4.5741    1.1116   -1.1682 C   0  0  0  0  0  0  0  0  0  0  0  0
    2.9274    0.0208   -2.0078 H   0  0  0  0  0  0  0  0  0  0  0  0
    3.0203    1.6994   -2.5137 H   0  0  0  0  0  0  0  0  0  0  0  0
    4.7781    3.2102   -1.5702 H   0  0  0  0  0  0  0  0  0  0  0  0
    7.0785    3.3518   -0.6944 H   0  0  0  0  0  0  0  0  0  0  0  0
    8.2008    1.3403    0.2001 H   0  0  0  0  0  0  0  0  0  0  0  0
    4.6939   -0.9721   -0.6563 H   0  0  0  0  0  0  0  0  0  0  0  0
   -3.2083   -2.2402    2.7300 O   0  0  0  0  0  0  0  0  0  0  0  0
    7.2786   -1.3442    0.4457 Cl  0  0  0  0  0  0  0  0  0  0  0  0
 21 14  2  0
 19 14  1  0
 19 13  1  0
 14 11  1  0
 13 12  1  0
 11 10  1  0
 11 12  1  0
 10  9  1  0
 15  9  1  0
 15 61  2  0
  9 18  1  0
 18  8  1  0
 23  2  2  0
  8 22  2  0
  8  3  1  0
  2 20  1  0
  2 17  1  0
 20  1  1  0
  3 17  1  0
  3  4  1  0
 17 16  1  0
  1 16  1  0
  4  5  1  0
  6  5  1  0
  5  7  1  0
  1 24  1  1
  3 25  1  6
  4 26  1  0
  4 27  1  0
  5 28  1  1
  6 29  1  0
  6 30  1  0
  6 31  1  0
  7 32  1  0
  7 33  1  0
  7 34  1  0
  9 35  1  1
 10 36  1  0
 10 37  1  0
 11 38  1  6
 12 39  1  0
 12 40  1  0
 13 41  1  0
 13 42  1  0
 15 43  1  0
 16 44  1  0
 16 45  1  0
 18 46  1  0
 19 47  1  0
  1 48  1  0
 49 50  2  0
 50 51  1  0
 51 52  2  0
 52 53  1  0
 53 54  2  0
 54 49  1  0
 54 48  1  0
 52 62  1  0
 48 55  1  0
 48 56  1  0
 49 57  1  0
 50 58  1  0
 51 59  1  0
 53 60  1  0
M  END
