
     RDKit          3D

 42 44  0  0  0  0  0  0  0  0999 V2000
   -7.0736    1.2526   -0.0395 C   0  0  1  0  0  0  0  0  0  0  0  0
   -7.8358    2.0359    0.7404 F   0  0  0  0  0  0  0  0  0  0  0  0
   -1.5194   -1.6174    0.2885 N   0  0  0  0  0  0  0  0  0  0  0  0
   -2.9974   -1.6092   -1.4130 O   0  0  0  0  0  0  0  0  0  0  0  0
    6.7499   -0.4355    0.4248 S   0  0  0  0  0  0  0  0  0  0  0  0
   -5.7680    0.9044    0.6186 C   0  0  0  0  0  0  0  0  0  0  0  0
   -7.8103    0.1665   -0.3263 F   0  0  0  0  0  0  0  0  0  0  0  0
    3.5282    1.5748   -0.7486 N   0  0  0  0  0  0  0  0  0  0  0  0
    2.2937    1.0391   -0.5191 O   0  0  0  0  0  0  0  0  0  0  0  0
   -4.8809    0.0046   -0.2351 C   0  0  0  0  0  0  0  0  0  0  0  0
   -6.9063    1.9133   -1.1972 F   0  0  0  0  0  0  0  0  0  0  0  0
    3.7082   -0.3812    0.3174 N   0  0  0  0  0  0  0  0  0  0  0  0
   -3.5830   -0.3028    0.4973 C   0  0  0  0  0  0  0  0  0  0  0  0
    6.4375    1.8144   -0.7481 N   0  0  0  0  0  0  0  0  0  0  0  0
   -2.6762   -1.2258   -0.2966 C   0  0  0  0  0  0  0  0  0  0  0  0
   -0.5501   -2.4042   -0.4523 C   0  0  0  0  0  0  0  0  0  0  0  0
    0.6621   -1.5595   -0.8190 C   0  0  0  0  0  0  0  0  0  0  0  0
    1.2749   -0.9422    0.4479 C   0  0  2  0  0  0  0  0  0  0  0  0
    0.2134   -0.1655    1.2362 C   0  0  0  0  0  0  0  0  0  0  0  0
   -0.9814   -1.0694    1.5196 C   0  0  0  0  0  0  0  0  0  0  0  0
    2.4608   -0.1172    0.1120 C   0  0  0  0  0  0  0  0  0  0  0  0
    4.3332    0.6945   -0.2359 C   0  0  0  0  0  0  0  0  0  0  0  0
    5.7784    0.8163   -0.2481 C   0  0  0  0  0  0  0  0  0  0  0  0
    7.7762    1.6187   -0.6143 C   0  0  0  0  0  0  0  0  0  0  0  0
    8.1388    0.4569   -0.0027 C   0  0  0  0  0  0  0  0  0  0  0  0
   -5.2519    1.8390    0.8519 H   0  0  0  0  0  0  0  0  0  0  0  0
   -5.9933    0.4216    1.5728 H   0  0  0  0  0  0  0  0  0  0  0  0
   -5.4011   -0.9257   -0.4662 H   0  0  0  0  0  0  0  0  0  0  0  0
   -4.6572    0.4913   -1.1852 H   0  0  0  0  0  0  0  0  0  0  0  0
   -3.0535    0.6300    0.7165 H   0  0  0  0  0  0  0  0  0  0  0  0
   -3.8032   -0.7537    1.4696 H   0  0  0  0  0  0  0  0  0  0  0  0
   -0.2393   -3.2505    0.1682 H   0  0  0  0  0  0  0  0  0  0  0  0
   -1.0142   -2.8104   -1.3457 H   0  0  0  0  0  0  0  0  0  0  0  0
    1.3990   -2.1832   -1.3285 H   0  0  0  0  0  0  0  0  0  0  0  0
    0.3613   -0.7744   -1.5172 H   0  0  0  0  0  0  0  0  0  0  0  0
    1.6489   -1.7567    1.0752 H   0  0  0  0  0  0  0  0  0  0  0  0
    0.6276    0.1902    2.1810 H   0  0  0  0  0  0  0  0  0  0  0  0
   -0.1201    0.7100    0.6730 H   0  0  0  0  0  0  0  0  0  0  0  0
   -1.7406   -0.5233    2.0709 H   0  0  0  0  0  0  0  0  0  0  0  0
   -0.6695   -1.9000    2.1605 H   0  0  0  0  0  0  0  0  0  0  0  0
    8.4684    2.3622   -0.9809 H   0  0  0  0  0  0  0  0  0  0  0  0
    9.1318    0.0959    0.2102 H   0  0  0  0  0  0  0  0  0  0  0  0
  1  2  1  1
 11  1  1  0
  1  7  1  0
  1  6  1  0
 15  3  1  0
 20  3  1  0
  3 16  1  0
  4 15  2  0
 25  5  1  0
 23  5  1  0
 10  6  1  0
  6 26  1  0
  6 27  1  0
 22  8  2  0
  9  8  1  0
 21  9  1  0
 10 13  1  0
 10 28  1  0
 10 29  1  0
 12 21  2  0
 12 22  1  0
 15 13  1  0
 13 30  1  0
 13 31  1  0
 24 14  1  0
 14 23  2  0
 16 17  1  0
 16 32  1  0
 16 33  1  0
 18 17  1  0
 17 34  1  0
 17 35  1  0
 19 18  1  0
 18 21  1  0
 18 36  1  1
 20 19  1  0
 19 37  1  0
 19 38  1  0
 20 39  1  0
 20 40  1  0
 23 22  1  0
 24 25  2  0
 24 41  1  0
 25 42  1  0
M  END
