
     RDKit          3D

 57 60  0  0  0  0  0  0  0  0999 V2000
    4.4377    3.3956    0.8831 C   0  0  0  0  0  0  0  0  0  0  0  0
    4.1744    2.5878   -0.3868 C   0  0  0  0  0  0  0  0  0  0  0  0
    4.0819    1.1206   -0.1220 C   0  0  0  0  0  0  0  0  0  0  0  0
    2.9707    0.3562    0.1379 C   0  0  0  0  0  0  0  0  0  0  0  0
    1.5628    0.7977    0.2049 C   0  0  0  0  0  0  0  0  0  0  0  0
   -0.7785    0.1173   -0.0748 C   0  0  0  0  0  0  0  0  0  0  0  0
   -1.5642   -1.1715    0.1521 C   0  0  0  0  0  0  0  0  0  0  0  0
   -3.0445   -0.9166    0.1092 C   0  0  0  0  0  0  0  0  0  0  0  0
   -3.7900   -0.7541    1.2754 C   0  0  0  0  0  0  0  0  0  0  0  0
   -5.1441   -0.4732    1.2363 C   0  0  0  0  0  0  0  0  0  0  0  0
   -5.8261   -0.3489    0.0171 C   0  0  0  0  0  0  0  0  0  0  0  0
   -7.7844    0.3372   -1.2601 C   0  0  0  0  0  0  0  0  0  0  0  0
   -9.1231    1.0300   -1.0476 C   0  0  0  0  0  0  0  0  0  0  0  0
  -10.0696    0.1729   -0.2205 C   0  0  0  0  0  0  0  0  0  0  0  0
   -9.3948   -0.2326    1.0825 C   0  0  0  0  0  0  0  0  0  0  0  0
   -8.0563   -0.8980    0.8087 C   0  0  0  0  0  0  0  0  0  0  0  0
   -5.0781   -0.5176   -1.1535 C   0  0  0  0  0  0  0  0  0  0  0  0
   -3.7172   -0.7881   -1.0994 C   0  0  0  0  0  0  0  0  0  0  0  0
    4.6877   -1.0654    0.2005 C   0  0  0  0  0  0  0  0  0  0  0  0
    5.5238   -2.1744    0.3270 C   0  0  0  0  0  0  0  0  0  0  0  0
    6.8763   -1.9815    0.1461 C   0  0  0  0  0  0  0  0  0  0  0  0
    7.3786   -0.7043   -0.1544 C   0  0  0  0  0  0  0  0  0  0  0  0
    6.5669    0.3995   -0.2753 C   0  0  0  0  0  0  0  0  0  0  0  0
    5.1909    0.2201   -0.0873 C   0  0  0  0  0  0  0  0  0  0  0  0
    0.6450   -0.1454   -0.0819 N   0  0  0  0  0  0  0  0  0  0  0  0
   -7.1883   -0.0389    0.0089 N   0  0  0  0  0  0  0  0  0  0  0  0
    3.3383   -0.9595    0.3128 N   0  0  0  0  0  0  0  0  0  0  0  0
    1.2730    1.9458    0.5139 O   0  0  0  0  0  0  0  0  0  0  0  0
    9.0952   -0.5272   -0.3755 Cl  0  0  0  0  0  0  0  0  0  0  0  0
    4.5302    4.4579    0.6537 H   0  0  0  0  0  0  0  0  0  0  0  0
    3.6196    3.2717    1.5915 H   0  0  0  0  0  0  0  0  0  0  0  0
    5.3601    3.0795    1.3721 H   0  0  0  0  0  0  0  0  0  0  0  0
    3.2599    2.9460   -0.8589 H   0  0  0  0  0  0  0  0  0  0  0  0
    4.9801    2.7664   -1.1038 H   0  0  0  0  0  0  0  0  0  0  0  0
   -1.0903    0.5788   -1.0177 H   0  0  0  0  0  0  0  0  0  0  0  0
   -0.9977    0.8304    0.7195 H   0  0  0  0  0  0  0  0  0  0  0  0
   -1.2898   -1.9043   -0.6129 H   0  0  0  0  0  0  0  0  0  0  0  0
   -1.2817   -1.5982    1.1172 H   0  0  0  0  0  0  0  0  0  0  0  0
   -3.3004   -0.8403    2.2390 H   0  0  0  0  0  0  0  0  0  0  0  0
   -5.6748   -0.3271    2.1688 H   0  0  0  0  0  0  0  0  0  0  0  0
   -7.1100    1.0215   -1.7774 H   0  0  0  0  0  0  0  0  0  0  0  0
   -8.9521    1.9847   -0.5413 H   0  0  0  0  0  0  0  0  0  0  0  0
   -9.5579    1.2611   -2.0224 H   0  0  0  0  0  0  0  0  0  0  0  0
  -11.0009    0.7081   -0.0242 H   0  0  0  0  0  0  0  0  0  0  0  0
  -10.3369   -0.7276   -0.7843 H   0  0  0  0  0  0  0  0  0  0  0  0
   -9.2395    0.6473    1.7138 H   0  0  0  0  0  0  0  0  0  0  0  0
  -10.0241   -0.9241    1.6471 H   0  0  0  0  0  0  0  0  0  0  0  0
   -7.5677   -1.1378    1.7511 H   0  0  0  0  0  0  0  0  0  0  0  0
   -8.2273   -1.8551    0.2897 H   0  0  0  0  0  0  0  0  0  0  0  0
   -5.5484   -0.4536   -2.1251 H   0  0  0  0  0  0  0  0  0  0  0  0
   -3.1750   -0.9176   -2.0299 H   0  0  0  0  0  0  0  0  0  0  0  0
    5.1334   -3.1570    0.5565 H   0  0  0  0  0  0  0  0  0  0  0  0
    7.5559   -2.8179    0.2341 H   0  0  0  0  0  0  0  0  0  0  0  0
    6.9786    1.3738   -0.5057 H   0  0  0  0  0  0  0  0  0  0  0  0
    0.9450   -0.9864   -0.5507 H   0  0  0  0  0  0  0  0  0  0  0  0
    2.7325   -1.6961    0.6369 H   0  0  0  0  0  0  0  0  0  0  0  0
   -7.9233   -0.5343   -1.9209 H   0  0  0  0  0  0  0  0  0  0  0  0
 29 22  1  0
 22 23  1  0
 22 21  2  0
 23 24  2  0
  1  2  1  0
 21 20  1  0
  2  3  1  0
 24  3  1  0
 24 19  1  0
  3  4  2  0
 20 19  2  0
 19 27  1  0
  4 27  1  0
  4  5  1  0
  5 25  1  0
  5 28  2  0
 25  6  1  0
  7  6  1  0
  7  8  1  0
  8 18  1  0
  8  9  2  0
 18 17  2  0
  9 10  1  0
 17 11  1  0
 10 11  2  0
 11 26  1  0
 26 12  1  0
 26 16  1  0
 12 13  1  0
 13 14  1  0
 16 15  1  0
 14 15  1  0
  1 30  1  0
  1 31  1  0
  1 32  1  0
  2 33  1  0
  2 34  1  0
  6 35  1  0
  6 36  1  0
  7 37  1  0
  7 38  1  0
  9 39  1  0
 10 40  1  0
 12 57  1  0
 12 41  1  0
 13 42  1  0
 13 43  1  0
 14 44  1  0
 14 45  1  0
 15 46  1  0
 15 47  1  0
 16 48  1  0
 16 49  1  0
 17 50  1  0
 18 51  1  0
 20 52  1  0
 21 53  1  0
 23 54  1  0
 25 55  1  0
 27 56  1  0
M  END
