
     RDKit          3D

 85 88  0  0  0  0  0  0  0  0999 V2000
   -6.9123    2.3991    0.6955 C   0  0  1  0  0  0  0  0  0  0  0  0
   -6.8807    2.4273   -0.8330 C   0  0  0  0  0  0  0  0  0  0  0  0
   -7.9354    3.3743   -1.3867 C   0  0  0  0  0  0  0  0  0  0  0  0
   -9.3375    3.0497    0.5355 C   0  0  0  0  0  0  0  0  0  0  0  0
   -8.3369    2.0881    1.1584 C   0  0  0  0  0  0  0  0  0  0  0  0
   -5.9381    1.3836    1.2793 C   0  0  0  0  0  0  0  0  0  0  0  0
   -4.4765    1.7640    1.1286 C   0  0  0  0  0  0  0  0  0  0  0  0
   -3.8710   -0.5321    1.8665 C   0  0  0  0  0  0  0  0  0  0  0  0
   -3.6639   -1.5213    0.7201 C   0  0  0  0  0  0  0  0  0  0  0  0
   -2.3252   -1.2253    0.1447 C   0  0  0  0  0  0  0  0  0  0  0  0
   -1.6061   -0.0714    0.3536 C   0  0  0  0  0  0  0  0  0  0  0  0
   -2.1444    1.0583    1.1784 C   0  0  0  0  0  0  0  0  0  0  0  0
   -0.3827   -0.2928   -0.3184 C   0  0  0  0  0  0  0  0  0  0  0  0
   -1.8666   -3.3712   -1.0673 C   0  0  0  0  0  0  0  0  0  0  0  0
    0.8062    0.5545   -0.4287 C   0  0  0  0  0  0  0  0  0  0  0  0
    2.0318   -0.0070   -0.7967 C   0  0  0  0  0  0  0  0  0  0  0  0
    3.1882    0.7443   -0.9305 C   0  0  0  0  0  0  0  0  0  0  0  0
    3.1199    2.1262   -0.6929 C   0  0  0  0  0  0  0  0  0  0  0  0
    1.9094    2.6958   -0.3241 C   0  0  0  0  0  0  0  0  0  0  0  0
    0.7676    1.9227   -0.1875 C   0  0  0  0  0  0  0  0  0  0  0  0
    4.3170    3.0127   -0.8662 C   0  0  1  0  0  0  0  0  0  0  0  0
    4.4552   -0.0013   -1.2822 C   0  0  0  0  0  0  0  0  0  0  0  0
    6.5802   -0.2371   -0.0596 C   0  0  0  0  0  0  0  0  0  0  0  0
    7.1418   -0.5276    1.2740 C   0  0  0  0  0  0  0  0  0  0  0  0
    8.4365   -0.7255    1.5614 C   0  0  0  0  0  0  0  0  0  0  0  0
    9.5663   -0.7014    0.5750 C   0  0  0  0  0  0  0  0  0  0  0  0
    8.8502   -0.9876    2.9763 C   0  0  0  0  0  0  0  0  0  0  0  0
   -1.1814   -4.4315   -0.2160 C   0  0  0  0  0  0  0  0  0  0  0  0
   -1.5777   -5.8260   -0.6810 C   0  0  0  0  0  0  0  0  0  0  0  0
   -1.1493   -6.9855    1.3895 C   0  0  0  0  0  0  0  0  0  0  0  0
   -1.0593   -8.1543   -0.6822 C   0  0  0  0  0  0  0  0  0  0  0  0
    4.0469    4.2923   -0.5882 F   0  0  0  0  0  0  0  0  0  0  0  0
    5.3401    2.6609   -0.0769 F   0  0  0  0  0  0  0  0  0  0  0  0
    4.7782    2.9896   -2.1277 F   0  0  0  0  0  0  0  0  0  0  0  0
   -3.5550    0.8194    1.4422 N   0  0  0  0  0  0  0  0  0  0  0  0
   -0.3887   -1.4857   -0.9007 N   0  0  0  0  0  0  0  0  0  0  0  0
   -1.5636   -2.0283   -0.6222 N   0  0  0  0  0  0  0  0  0  0  0  0
   -9.2530    2.9885   -0.9128 N   0  0  0  0  0  0  0  0  0  0  0  0
    5.2298   -0.2874   -0.0980 N   0  0  0  0  0  0  0  0  0  0  0  0
   -0.8398   -6.8857   -0.0211 N   0  0  0  0  0  0  0  0  0  0  0  0
   -4.1450    2.8851    0.7672 O   0  0  0  0  0  0  0  0  0  0  0  0
    7.2499    0.0329   -1.0510 O   0  0  0  0  0  0  0  0  0  0  0  0
   -6.6485    3.3961    1.0656 H   0  0  0  0  0  0  0  0  0  0  0  0
   -5.8967    2.7283   -1.1956 H   0  0  0  0  0  0  0  0  0  0  0  0
   -7.0718    1.4176   -1.2146 H   0  0  0  0  0  0  0  0  0  0  0  0
   -7.6708    4.4060   -1.0992 H   0  0  0  0  0  0  0  0  0  0  0  0
   -7.9286    3.3406   -2.4784 H   0  0  0  0  0  0  0  0  0  0  0  0
  -10.3517    2.7853    0.8420 H   0  0  0  0  0  0  0  0  0  0  0  0
   -9.1410    4.0631    0.9257 H   0  0  0  0  0  0  0  0  0  0  0  0
   -8.5993    1.0628    0.8752 H   0  0  0  0  0  0  0  0  0  0  0  0
   -8.4042    2.1468    2.2482 H   0  0  0  0  0  0  0  0  0  0  0  0
   -6.1414    1.2537    2.3488 H   0  0  0  0  0  0  0  0  0  0  0  0
   -6.1301    0.4060    0.8250 H   0  0  0  0  0  0  0  0  0  0  0  0
   -4.8826   -0.5923    2.2552 H   0  0  0  0  0  0  0  0  0  0  0  0
   -3.2066   -0.7929    2.6944 H   0  0  0  0  0  0  0  0  0  0  0  0
   -3.7249   -2.5425    1.1023 H   0  0  0  0  0  0  0  0  0  0  0  0
   -4.4524   -1.4087   -0.0299 H   0  0  0  0  0  0  0  0  0  0  0  0
   -1.5958    1.1490    2.1230 H   0  0  0  0  0  0  0  0  0  0  0  0
   -2.0577    2.0144    0.6688 H   0  0  0  0  0  0  0  0  0  0  0  0
   -1.5639   -3.4556   -2.1116 H   0  0  0  0  0  0  0  0  0  0  0  0
   -2.9498   -3.4937   -1.0389 H   0  0  0  0  0  0  0  0  0  0  0  0
    2.0870   -1.0726   -0.9807 H   0  0  0  0  0  0  0  0  0  0  0  0
    1.8285    3.7583   -0.1449 H   0  0  0  0  0  0  0  0  0  0  0  0
   -0.1540    2.4153    0.0855 H   0  0  0  0  0  0  0  0  0  0  0  0
    4.1742   -0.9279   -1.7911 H   0  0  0  0  0  0  0  0  0  0  0  0
    5.0835    0.5479   -1.9794 H   0  0  0  0  0  0  0  0  0  0  0  0
    6.4283   -0.5830    2.0897 H   0  0  0  0  0  0  0  0  0  0  0  0
    9.8987    0.3253    0.4061 H   0  0  0  0  0  0  0  0  0  0  0  0
   10.4211   -1.2532    0.9661 H   0  0  0  0  0  0  0  0  0  0  0  0
    9.2958   -1.1148   -0.3918 H   0  0  0  0  0  0  0  0  0  0  0  0
    9.2985   -1.9804    3.0614 H   0  0  0  0  0  0  0  0  0  0  0  0
    9.6205   -0.2764    3.2841 H   0  0  0  0  0  0  0  0  0  0  0  0
    8.0201   -0.9225    3.6774 H   0  0  0  0  0  0  0  0  0  0  0  0
   -0.0974   -4.3167   -0.2891 H   0  0  0  0  0  0  0  0  0  0  0  0
   -1.4556   -4.2753    0.8303 H   0  0  0  0  0  0  0  0  0  0  0  0
   -2.6691   -5.9528   -0.5614 H   0  0  0  0  0  0  0  0  0  0  0  0
   -1.3781   -5.9025   -1.7541 H   0  0  0  0  0  0  0  0  0  0  0  0
   -2.2137   -7.1932    1.5836 H   0  0  0  0  0  0  0  0  0  0  0  0
   -0.5673   -7.7924    1.8368 H   0  0  0  0  0  0  0  0  0  0  0  0
   -0.8875   -6.0674    1.9151 H   0  0  0  0  0  0  0  0  0  0  0  0
   -0.7612   -8.0901   -1.7297 H   0  0  0  0  0  0  0  0  0  0  0  0
   -0.4553   -8.9303   -0.2098 H   0  0  0  0  0  0  0  0  0  0  0  0
   -2.1092   -8.4872   -0.6522 H   0  0  0  0  0  0  0  0  0  0  0  0
   -9.9486    3.6033   -1.3148 H   0  0  0  0  0  0  0  0  0  0  0  0
    4.7289   -0.5783    0.7263 H   0  0  0  0  0  0  0  0  0  0  0  0
 21 34  1  6
 33 21  1  0
 32 21  1  0
 21 18  1  0
 18 19  2  0
 18 17  1  0
 19 20  1  0
 22 17  1  0
 22 39  1  0
 17 16  2  0
 39 23  1  0
 20 15  2  0
 16 15  1  0
 23 42  2  0
 23 24  1  0
 15 13  1  0
 24 25  2  0
 27 25  1  0
 25 26  1  0
 13 36  2  0
 13 11  1  0
 36 37  1  0
 41  7  2  0
 12 11  1  0
 12 35  1  0
 11 10  2  0
  7 35  1  0
  7  6  1  0
 37 10  1  0
 37 14  1  0
 35  8  1  0
 10  9  1  0
 14 28  1  0
  2  3  1  0
  2  1  1  0
  6  1  1  0
 30 40  1  0
 29 28  1  0
 29 40  1  0
  3 38  1  0
  1  5  1  0
  8  9  1  0
 40 31  1  0
 38  4  1  0
  5  4  1  0
  1 43  1  1
  2 44  1  0
  2 45  1  0
  3 46  1  0
  3 47  1  0
  4 48  1  0
  4 49  1  0
  5 50  1  0
  5 51  1  0
  6 52  1  0
  6 53  1  0
  8 54  1  0
  8 55  1  0
  9 56  1  0
  9 57  1  0
 12 58  1  0
 12 59  1  0
 14 60  1  0
 14 61  1  0
 16 62  1  0
 19 63  1  0
 20 64  1  0
 22 65  1  0
 22 66  1  0
 24 67  1  0
 26 68  1  0
 26 69  1  0
 26 70  1  0
 27 71  1  0
 27 72  1  0
 27 73  1  0
 28 74  1  0
 28 75  1  0
 29 76  1  0
 29 77  1  0
 30 78  1  0
 30 79  1  0
 30 80  1  0
 31 81  1  0
 31 82  1  0
 31 83  1  0
 38 84  1  0
 39 85  1  0
M  END
