
     RDKit          3D

 41 43  0  0  0  0  0  0  0  0999 V2000
    1.4793   -1.1472    0.1214 C   0  0  0  0  0  0  0  0  0  0  0  0
    2.4520   -0.1154    0.1490 C   0  0  0  0  0  0  0  0  0  0  0  0
    2.0138    1.2283    0.1599 C   0  0  0  0  0  0  0  0  0  0  0  0
    0.6612    1.5017    0.1106 C   0  0  0  0  0  0  0  0  0  0  0  0
   -0.3134    0.5000    0.0707 C   0  0  0  0  0  0  0  0  0  0  0  0
    0.1401   -0.8245    0.0775 C   0  0  0  0  0  0  0  0  0  0  0  0
    3.0115    2.3524    0.2302 C   0  0  0  0  0  0  0  0  0  0  0  0
    4.3563    1.9166   -0.3237 C   0  0  0  0  0  0  0  0  0  0  0  0
    4.7805    0.6190    0.3354 C   0  0  0  0  0  0  0  0  0  0  0  0
    3.7858   -0.4164    0.1445 N   0  0  0  0  0  0  0  0  0  0  0  0
    1.9035   -2.5915    0.1515 C   0  0  0  0  0  0  0  0  0  0  0  0
    3.3192   -2.7596   -0.3700 C   0  0  0  0  0  0  0  0  0  0  0  0
    4.2362   -1.7794    0.3335 C   0  0  0  0  0  0  0  0  0  0  0  0
   -1.7098    0.8729    0.0170 C   0  0  0  0  0  0  0  0  0  0  0  0
   -2.7722    0.0404   -0.0042 C   0  0  0  0  0  0  0  0  0  0  0  0
   -4.1522    0.4656   -0.0661 C   0  0  0  0  0  0  0  0  0  0  0  0
   -5.1143   -0.4969   -0.0730 C   0  0  0  0  0  0  0  0  0  0  0  0
   -6.5392   -0.2699   -0.1331 C   0  0  0  0  0  0  0  0  0  0  0  0
   -4.4412    1.9363   -0.1184 C   0  0  0  0  0  0  0  0  0  0  0  0
    0.3461    2.5407    0.1061 H   0  0  0  0  0  0  0  0  0  0  0  0
   -0.5741   -1.6402    0.0483 H   0  0  0  0  0  0  0  0  0  0  0  0
    2.6329    3.2210   -0.3123 H   0  0  0  0  0  0  0  0  0  0  0  0
    3.1350    2.6724    1.2702 H   0  0  0  0  0  0  0  0  0  0  0  0
    4.2911    1.7720   -1.4049 H   0  0  0  0  0  0  0  0  0  0  0  0
    5.1157    2.6785   -0.1444 H   0  0  0  0  0  0  0  0  0  0  0  0
    5.7177    0.2663   -0.0989 H   0  0  0  0  0  0  0  0  0  0  0  0
    4.9706    0.7877    1.4041 H   0  0  0  0  0  0  0  0  0  0  0  0
    1.8537   -2.9642    1.1797 H   0  0  0  0  0  0  0  0  0  0  0  0
    1.2023   -3.1958   -0.4269 H   0  0  0  0  0  0  0  0  0  0  0  0
    3.6745   -3.7762   -0.1972 H   0  0  0  0  0  0  0  0  0  0  0  0
    3.3544   -2.5825   -1.4480 H   0  0  0  0  0  0  0  0  0  0  0  0
    5.2481   -1.8564   -0.0681 H   0  0  0  0  0  0  0  0  0  0  0  0
    4.3018   -2.0273    1.4019 H   0  0  0  0  0  0  0  0  0  0  0  0
   -1.8868    1.9439   -0.0088 H   0  0  0  0  0  0  0  0  0  0  0  0
   -2.6145   -1.0329    0.0264 H   0  0  0  0  0  0  0  0  0  0  0  0
   -4.8056   -1.5370   -0.0299 H   0  0  0  0  0  0  0  0  0  0  0  0
   -6.8764    0.7778   -0.1818 H   0  0  0  0  0  0  0  0  0  0  0  0
   -3.9395    2.3923   -0.9729 H   0  0  0  0  0  0  0  0  0  0  0  0
   -5.4988    2.1665   -0.1981 H   0  0  0  0  0  0  0  0  0  0  0  0
   -4.0605    2.4314    0.7763 H   0  0  0  0  0  0  0  0  0  0  0  0
   -7.3658   -1.1672   -0.1329 O   0  0  0  0  0  0  0  0  0  0  0  0
  8  9  1  0
  8  7  1  0
  9 10  1  0
 13 10  1  0
 13 12  1  0
  7  3  1  0
 10  2  1  0
 12 11  1  0
  2  3  1  0
  2  1  2  0
  3  4  2  0
 11  1  1  0
  1  6  1  0
  4  5  1  0
  6  5  2  0
  5 14  1  0
 15 14  2  0
 15 16  1  0
 17 16  2  0
 17 18  1  0
 16 19  1  0
  4 20  1  0
  6 21  1  0
  7 22  1  0
  7 23  1  0
  8 24  1  0
  8 25  1  0
  9 26  1  0
  9 27  1  0
 11 28  1  0
 11 29  1  0
 12 30  1  0
 12 31  1  0
 13 32  1  0
 13 33  1  0
 14 34  1  0
 15 35  1  0
 17 36  1  0
 18 37  1  0
 19 38  1  0
 19 39  1  0
 19 40  1  0
 18 41  2  0
M  END
