
     RDKit          3D

 24 24  0  0  0  0  0  0  0  0999 V2000
    0.7033   -1.0800   -0.1482 C   0  0  1  0  0  0  0  0  0  0  0  0
   -0.7837   -1.0398    0.1633 C   0  0  1  0  0  0  0  0  0  0  0  0
   -1.4031    0.2351   -0.4086 C   0  0  2  0  0  0  0  0  0  0  0  0
   -0.7341    1.4915    0.1416 C   0  0  2  0  0  0  0  0  0  0  0  0
    0.7705    1.4582   -0.1391 C   0  0  1  0  0  0  0  0  0  0  0  0
    1.3933    0.1684    0.3958 C   0  0  2  0  0  0  0  0  0  0  0  0
    1.2446   -2.2452    0.4278 O   0  0  0  0  0  0  0  0  0  0  0  0
   -1.3821   -2.1808   -0.4037 O   0  0  0  0  0  0  0  0  0  0  0  0
   -2.7813    0.1953   -0.1120 O   0  0  0  0  0  0  0  0  0  0  0  0
   -0.9781    1.5515    1.5268 O   0  0  0  0  0  0  0  0  0  0  0  0
    2.7550    0.0790    0.0168 O   0  0  0  0  0  0  0  0  0  0  0  0
    0.9569    1.5852   -1.5300 O   0  0  0  0  0  0  0  0  0  0  0  0
    0.8237   -1.1011   -1.2429 H   0  0  0  0  0  0  0  0  0  0  0  0
   -0.9120   -1.0405    1.2573 H   0  0  0  0  0  0  0  0  0  0  0  0
    1.2941    0.1664    1.4882 H   0  0  0  0  0  0  0  0  0  0  0  0
    2.1969   -2.2239    0.2844 H   0  0  0  0  0  0  0  0  0  0  0  0
   -1.2447    0.2259   -1.4943 H   0  0  0  0  0  0  0  0  0  0  0  0
   -2.3355   -2.0819   -0.3049 H   0  0  0  0  0  0  0  0  0  0  0  0
   -1.1616    2.3660   -0.3714 H   0  0  0  0  0  0  0  0  0  0  0  0
   -3.2538    0.7226   -0.7624 H   0  0  0  0  0  0  0  0  0  0  0  0
    1.2373    2.3071    0.3879 H   0  0  0  0  0  0  0  0  0  0  0  0
   -0.6508    2.3941    1.8572 H   0  0  0  0  0  0  0  0  0  0  0  0
    1.8838    1.3954   -1.7155 H   0  0  0  0  0  0  0  0  0  0  0  0
    3.2814    0.6140    0.6191 H   0  0  0  0  0  0  0  0  0  0  0  0
  1  2  1  0
  1  6  1  0
  1  7  1  0
  2  3  1  0
  2  8  1  0
  3  4  1  0
  3  9  1  0
  4  5  1  0
  4 10  1  0
  5  6  1  0
  5 12  1  0
  6 11  1  0
  1 13  1  6
  2 14  1  1
  6 15  1  1
  7 16  1  0
  3 17  1  6
  8 18  1  0
  4 19  1  6
  9 20  1  0
  5 21  1  1
 10 22  1  0
 12 23  1  0
 11 24  1  0
M  END
