
     RDKit          3D

 47 50  0  0  0  0  0  0  0  0999 V2000
   -0.7614   -2.9164   -1.3422 C   0  0  0  0  0  0  0  0  0  0  0  0
   -1.5385   -1.7760   -1.5052 C   0  0  0  0  0  0  0  0  0  0  0  0
   -2.0713   -1.1068   -0.4078 C   0  0  0  0  0  0  0  0  0  0  0  0
   -1.8081   -1.6110    0.8654 C   0  0  0  0  0  0  0  0  0  0  0  0
   -1.0269   -2.7450    1.0352 C   0  0  0  0  0  0  0  0  0  0  0  0
   -0.5001   -3.4039   -0.0692 C   0  0  0  0  0  0  0  0  0  0  0  0
   -2.9003    0.1374   -0.5957 C   0  0  2  0  0  0  0  0  0  0  0  0
   -2.2534    1.3528    0.0673 C   0  0  2  0  0  0  0  0  0  0  0  0
   -5.1228    1.2607   -0.2401 C   0  0  0  0  0  0  0  0  0  0  0  0
   -4.3342   -0.0292   -0.0805 C   0  0  0  0  0  0  0  0  0  0  0  0
   -4.4374    2.3370    0.4514 N   0  0  0  0  0  0  0  0  0  0  0  0
   -3.1297    2.5890   -0.1188 C   0  0  0  0  0  0  0  0  0  0  0  0
   -0.9780    1.5210   -0.5057 O   0  0  0  0  0  0  0  0  0  0  0  0
   -0.0610    2.2825    0.2325 C   0  0  0  0  0  0  0  0  0  0  0  0
    1.2974    1.6314    0.2370 C   0  0  0  0  0  0  0  0  0  0  0  0
    2.4244    2.4272    0.5556 C   0  0  0  0  0  0  0  0  0  0  0  0
    3.6784    1.8877    0.6067 C   0  0  0  0  0  0  0  0  0  0  0  0
    1.4730    0.2987   -0.0262 C   0  0  0  0  0  0  0  0  0  0  0  0
    2.7601   -0.2888    0.0160 C   0  0  0  0  0  0  0  0  0  0  0  0
    3.8846    0.5141    0.3360 C   0  0  0  0  0  0  0  0  0  0  0  0
    5.1681   -0.0790    0.3698 C   0  0  0  0  0  0  0  0  0  0  0  0
    5.3282   -1.4114    0.0997 C   0  0  0  0  0  0  0  0  0  0  0  0
    4.2096   -2.2124   -0.2142 C   0  0  0  0  0  0  0  0  0  0  0  0
    2.9564   -1.6636   -0.2549 C   0  0  0  0  0  0  0  0  0  0  0  0
   -0.3553   -3.4195   -2.2107 H   0  0  0  0  0  0  0  0  0  0  0  0
   -1.7305   -1.3982   -2.5028 H   0  0  0  0  0  0  0  0  0  0  0  0
   -2.2114   -1.1121    1.7394 H   0  0  0  0  0  0  0  0  0  0  0  0
   -0.8288   -3.1160    2.0328 H   0  0  0  0  0  0  0  0  0  0  0  0
    0.1103   -4.2881    0.0628 H   0  0  0  0  0  0  0  0  0  0  0  0
   -2.9568    0.3480   -1.6713 H   0  0  0  0  0  0  0  0  0  0  0  0
   -2.1608    1.1627    1.1477 H   0  0  0  0  0  0  0  0  0  0  0  0
   -5.2567    1.4678   -1.3150 H   0  0  0  0  0  0  0  0  0  0  0  0
   -6.1201    1.1416    0.1875 H   0  0  0  0  0  0  0  0  0  0  0  0
   -4.8251   -0.8375   -0.6264 H   0  0  0  0  0  0  0  0  0  0  0  0
   -4.3211   -0.3179    0.9746 H   0  0  0  0  0  0  0  0  0  0  0  0
   -4.9929    3.1810    0.4181 H   0  0  0  0  0  0  0  0  0  0  0  0
   -2.6809    3.4456    0.3914 H   0  0  0  0  0  0  0  0  0  0  0  0
   -3.1652    2.8341   -1.1940 H   0  0  0  0  0  0  0  0  0  0  0  0
    0.0252    3.2967   -0.1780 H   0  0  0  0  0  0  0  0  0  0  0  0
   -0.3931    2.4034    1.2732 H   0  0  0  0  0  0  0  0  0  0  0  0
    2.2869    3.4838    0.7551 H   0  0  0  0  0  0  0  0  0  0  0  0
    4.5311    2.5117    0.8467 H   0  0  0  0  0  0  0  0  0  0  0  0
    0.6248   -0.3307   -0.2672 H   0  0  0  0  0  0  0  0  0  0  0  0
    6.0262    0.5367    0.6124 H   0  0  0  0  0  0  0  0  0  0  0  0
    6.3146   -1.8560    0.1267 H   0  0  0  0  0  0  0  0  0  0  0  0
    4.3483   -3.2657   -0.4212 H   0  0  0  0  0  0  0  0  0  0  0  0
    2.0935   -2.2759   -0.4899 H   0  0  0  0  0  0  0  0  0  0  0  0
  9 11  1  0
  9 10  1  0
 12 11  1  0
 12  8  1  0
 23 24  2  0
 23 22  1  0
 24 19  1  0
 22 21  2  0
 19 18  2  0
 19 20  1  0
 10  7  1  0
 13  8  1  0
 13 14  1  0
  7  8  1  0
  7  3  1  0
 21 20  1  0
 18 15  1  0
 20 17  2  0
  4  3  2  0
  4  5  1  0
 15 14  1  0
 15 16  2  0
 17 16  1  0
  3  2  1  0
  5  6  2  0
  2  1  2  0
  6  1  1  0
  1 25  1  0
  2 26  1  0
  4 27  1  0
  5 28  1  0
  6 29  1  0
  7 30  1  6
  8 31  1  1
  9 32  1  0
  9 33  1  0
 10 34  1  0
 10 35  1  0
 11 36  1  0
 12 37  1  0
 12 38  1  0
 14 39  1  0
 14 40  1  0
 16 41  1  0
 17 42  1  0
 18 43  1  0
 21 44  1  0
 22 45  1  0
 23 46  1  0
 24 47  1  0
M  END
