
     RDKit          3D

 48 51  0  0  0  0  0  0  0  0999 V2000
    1.1963    0.1266    0.1658 C   0  0  1  0  0  0  0  0  0  0  0  0
    1.0119    1.0035   -1.0729 C   0  0  2  0  0  0  0  0  0  0  0  0
    2.0545    2.1351    1.3027 C   0  0  0  0  0  0  0  0  0  0  0  0
    1.9790    2.1518   -1.1422 C   0  0  0  0  0  0  0  0  0  0  0  0
   -2.4118    0.2170   -0.1366 C   0  0  0  0  0  0  0  0  0  0  0  0
   -4.1461   -1.0212    0.6557 C   0  0  0  0  0  0  0  0  0  0  0  0
    2.4050   -0.7721    0.1055 C   0  0  0  0  0  0  0  0  0  0  0  0
   -3.1649    1.2018   -0.6160 N   0  0  0  0  0  0  0  0  0  0  0  0
   -5.0116   -0.0250    0.1648 C   0  0  0  0  0  0  0  0  0  0  0  0
   -0.4537    1.4493   -0.9770 C   0  0  0  0  0  0  0  0  0  0  0  0
    3.4806   -0.7730    0.9490 C   0  0  0  0  0  0  0  0  0  0  0  0
    4.1111   -2.4348   -0.5207 C   0  0  0  0  0  0  0  0  0  0  0  0
    4.4615   -1.7241    0.5949 C   0  0  0  0  0  0  0  0  0  0  0  0
    2.4882    2.5998    0.0507 N   0  0  0  0  0  0  0  0  0  0  0  0
    1.2547    1.0274    1.2816 N   0  0  0  0  0  0  0  0  0  0  0  0
   -2.8367   -0.8838    0.4866 N   0  0  0  0  0  0  0  0  0  0  0  0
   -1.0740    0.3343   -0.2957 N   0  0  0  0  0  0  0  0  0  0  0  0
   -0.1323   -0.6339    0.2108 C   0  0  0  0  0  0  0  0  0  0  0  0
    2.5794   -1.9437   -1.1383 S   0  0  0  0  0  0  0  0  0  0  0  0
   -4.4908    1.0712   -0.4645 C   0  0  0  0  0  0  0  0  0  0  0  0
   -4.6059   -2.1065    1.2900 N   0  0  0  0  0  0  0  0  0  0  0  0
    5.4589   -4.2944   -1.6580 N   0  0  0  0  0  0  0  0  0  0  0  0
    2.3399    2.6713    2.4192 N   0  0  0  0  0  0  0  0  0  0  0  0
    4.8537   -3.4570   -1.1453 C   0  0  0  0  0  0  0  0  0  0  0  0
    2.2823    2.6520   -2.2046 O   0  0  0  0  0  0  0  0  0  0  0  0
   -6.3456   -0.1798    0.3258 F   0  0  0  0  0  0  0  0  0  0  0  0
    3.4575    3.6858    0.0430 C   0  0  0  0  0  0  0  0  0  0  0  0
   -5.3647    2.1495   -1.0221 C   0  0  0  0  0  0  0  0  0  0  0  0
   -3.7383   -3.1387    1.8010 C   0  0  0  0  0  0  0  0  0  0  0  0
    1.1456    0.4113   -1.9801 H   0  0  0  0  0  0  0  0  0  0  0  0
   -0.5656    2.3803   -0.4132 H   0  0  0  0  0  0  0  0  0  0  0  0
   -0.8770    1.6132   -1.9680 H   0  0  0  0  0  0  0  0  0  0  0  0
    3.5770   -0.1140    1.7991 H   0  0  0  0  0  0  0  0  0  0  0  0
    5.3851   -1.8789    1.1327 H   0  0  0  0  0  0  0  0  0  0  0  0
   -0.0895   -1.5295   -0.4192 H   0  0  0  0  0  0  0  0  0  0  0  0
   -0.3775   -0.9634    1.2217 H   0  0  0  0  0  0  0  0  0  0  0  0
   -5.5983   -2.2226    1.3952 H   0  0  0  0  0  0  0  0  0  0  0  0
    2.8591    3.5338    2.3352 H   0  0  0  0  0  0  0  0  0  0  0  0
    4.2829    3.4482    0.7108 H   0  0  0  0  0  0  0  0  0  0  0  0
    3.8537    3.8057   -0.9580 H   0  0  0  0  0  0  0  0  0  0  0  0
    3.0037    4.6273    0.3527 H   0  0  0  0  0  0  0  0  0  0  0  0
   -5.7572    1.8559   -1.9976 H   0  0  0  0  0  0  0  0  0  0  0  0
   -6.2178    2.3659   -0.3810 H   0  0  0  0  0  0  0  0  0  0  0  0
   -4.7887    3.0624   -1.1561 H   0  0  0  0  0  0  0  0  0  0  0  0
   -4.3519   -3.8705    2.3185 H   0  0  0  0  0  0  0  0  0  0  0  0
   -3.1919   -3.6466    1.0048 H   0  0  0  0  0  0  0  0  0  0  0  0
   -3.0096   -2.7372    2.5055 H   0  0  0  0  0  0  0  0  0  0  0  0
    1.0519    0.6553    2.1975 H   0  0  0  0  0  0  0  0  0  0  0  0
 13 11  1  0
 13 12  2  0
 11  7  2  0
 22 24  3  0
 24 12  1  0
 12 19  1  0
 28 20  1  0
  7 19  1  0
  1  7  1  6
  8 20  2  0
  8  5  1  0
 20  9  1  0
 18  1  1  0
 18 17  1  0
  1  2  1  0
  1 15  1  0
  9 26  1  0
  9  6  2  0
  5 17  1  0
  5 16  2  0
 17 10  1  0
  2 10  1  0
  2  4  1  0
  6 16  1  0
  6 21  1  0
 15  3  1  0
  4 25  2  0
  4 14  1  0
 21 29  1  0
  3 14  1  0
  3 23  2  0
 14 27  1  0
  2 30  1  6
 10 31  1  0
 10 32  1  0
 11 33  1  0
 13 34  1  0
 18 35  1  0
 18 36  1  0
 21 37  1  0
 23 38  1  0
 27 39  1  0
 27 40  1  0
 27 41  1  0
 28 42  1  0
 28 43  1  0
 28 44  1  0
 29 45  1  0
 29 46  1  0
 29 47  1  0
 15 48  1  0
M  END
