
     RDKit          3D

 40 42  0  0  0  0  0  0  0  0999 V2000
    2.9636    0.9992   -2.3271 C   0  0  0  0  0  0  0  0  0  0  0  0
    2.6124   -0.7828   -0.7299 C   0  0  0  0  0  0  0  0  0  0  0  0
   -1.7631    0.2530    0.9181 C   0  0  0  0  0  0  0  0  0  0  0  0
   -1.5397    0.6073    2.2687 C   0  0  0  0  0  0  0  0  0  0  0  0
   -2.4306   -1.5021    3.0216 C   0  0  0  0  0  0  0  0  0  0  0  0
   -2.3392   -1.0188    0.6546 C   0  0  0  0  0  0  0  0  0  0  0  0
   -3.4034   -3.1069   -2.1495 C   0  0  0  0  0  0  0  0  0  0  0  0
   -2.5837   -1.4231   -0.6969 C   0  0  0  0  0  0  0  0  0  0  0  0
   -2.2607   -0.5906   -1.7414 C   0  0  0  0  0  0  0  0  0  0  0  0
   -1.6840    0.6572   -1.4814 C   0  0  0  0  0  0  0  0  0  0  0  0
   -1.4402    1.0812   -0.2011 C   0  0  0  0  0  0  0  0  0  0  0  0
    1.6840    1.4340   -0.3379 C   0  0  0  0  0  0  0  0  0  0  0  0
    2.2459    1.8753   -1.5278 C   0  0  0  0  0  0  0  0  0  0  0  0
    3.1433   -0.3145   -1.9340 C   0  0  0  0  0  0  0  0  0  0  0  0
    2.8321   -2.1812   -0.2784 C   0  0  0  0  0  0  0  0  0  0  0  0
    1.8794    0.1102    0.0440 C   0  0  0  0  0  0  0  0  0  0  0  0
   -1.8629   -0.2473    3.2886 C   0  0  0  0  0  0  0  0  0  0  0  0
   -2.6658   -1.8773    1.7270 C   0  0  0  0  0  0  0  0  0  0  0  0
    1.3274   -0.2767    1.1899 F   0  0  0  0  0  0  0  0  0  0  0  0
    0.9224    2.3096    0.4659 N   0  0  0  0  0  0  0  0  0  0  0  0
    3.2929   -2.9496   -1.2555 O   0  0  0  0  0  0  0  0  0  0  0  0
    2.6280   -2.5826    0.8391 O   0  0  0  0  0  0  0  0  0  0  0  0
   -0.6418    2.6460   -0.0248 S   0  0  1  0  0  0  0  0  0  0  0  0
    3.3965    1.3476   -3.2539 H   0  0  0  0  0  0  0  0  0  0  0  0
   -1.1281    1.5695    2.5300 H   0  0  0  0  0  0  0  0  0  0  0  0
   -2.6836   -2.1677    3.8358 H   0  0  0  0  0  0  0  0  0  0  0  0
   -2.4908   -3.1975   -2.7420 H   0  0  0  0  0  0  0  0  0  0  0  0
   -3.8457   -4.0911   -2.0258 H   0  0  0  0  0  0  0  0  0  0  0  0
   -4.1100   -2.4599   -2.6731 H   0  0  0  0  0  0  0  0  0  0  0  0
   -2.4338   -0.8708   -2.7700 H   0  0  0  0  0  0  0  0  0  0  0  0
   -1.4343    1.2838   -2.3255 H   0  0  0  0  0  0  0  0  0  0  0  0
    2.1234    2.9090   -1.8189 H   0  0  0  0  0  0  0  0  0  0  0  0
    3.7189   -0.9787   -2.5623 H   0  0  0  0  0  0  0  0  0  0  0  0
   -1.6807    0.0550    4.3112 H   0  0  0  0  0  0  0  0  0  0  0  0
   -3.1065   -2.8428    1.5237 H   0  0  0  0  0  0  0  0  0  0  0  0
    0.9978    2.1694    1.4681 H   0  0  0  0  0  0  0  0  0  0  0  0
    3.4521   -3.8451   -0.9211 H   0  0  0  0  0  0  0  0  0  0  0  0
   -3.1289   -2.6276   -0.8426 O   0  0  0  0  0  0  0  0  0  0  0  0
   -0.5419    3.2441   -1.3431 O   0  0  0  0  0  0  0  0  0  0  0  0
   -1.2273    3.4174    1.0580 O   0  0  0  0  0  0  0  0  0  0  0  0
  5 17  1  0
  5 18  2  0
 17  4  2  0
 18  6  1  0
  4  3  1  0
  6  3  2  0
  6  8  1  0
  3 11  1  0
 39 23  2  0
 38  8  1  0
 38  7  1  0
  8  9  2  0
 11 23  1  0
 11 10  2  0
 23 40  2  0
 23 20  1  1
  9 10  1  0
 13  1  2  0
 13 12  1  0
 20 12  1  0
  1 14  1  0
 12 16  2  0
 14  2  2  0
 16  2  1  0
 16 19  1  0
  2 15  1  0
 15 22  2  0
 15 21  1  0
  1 24  1  0
  4 25  1  0
  5 26  1  0
  7 27  1  0
  7 28  1  0
  7 29  1  0
  9 30  1  0
 10 31  1  0
 13 32  1  0
 14 33  1  0
 17 34  1  0
 18 35  1  0
 20 36  1  0
 21 37  1  0
M  END
