
     RDKit          3D

 33 35  0  0  0  0  0  0  0  0999 V2000
   -1.9836    0.9385   -4.1854 O   0  0  0  0  0  0  0  0  0  0  0  0
   -1.3752   -0.1736   -3.5787 C   0  0  0  0  0  0  0  0  0  0  0  0
   -0.0405    0.2400   -3.0110 C   0  0  1  0  0  0  0  0  0  0  0  0
   -0.2088    1.1963   -1.9637 O   0  0  0  0  0  0  0  0  0  0  0  0
    0.7202   -0.9170   -2.3688 C   0  0  1  0  0  0  0  0  0  0  0  0
    1.4575   -1.6084   -3.3367 O   0  0  0  0  0  0  0  0  0  0  0  0
    1.5821   -0.1868   -1.3344 C   0  0  1  0  0  0  0  0  0  0  0  0
    2.6786    0.4363   -1.9447 O   0  0  0  0  0  0  0  0  0  0  0  0
    0.6215    0.9106   -0.8787 C   0  0  2  0  0  0  0  0  0  0  0  0
   -0.1915    0.4788    0.2505 N   0  0  0  0  0  0  0  0  0  0  0  0
   -1.4959    0.0811    0.2680 C   0  0  0  0  0  0  0  0  0  0  0  0
   -1.9220   -0.2431    1.4546 N   0  0  0  0  0  0  0  0  0  0  0  0
   -0.8420   -0.0479    2.2777 C   0  0  0  0  0  0  0  0  0  0  0  0
   -0.6959   -0.2302    3.6622 C   0  0  0  0  0  0  0  0  0  0  0  0
   -1.7198   -0.6372    4.4430 N   0  0  0  0  0  0  0  0  0  0  0  0
    0.5802    0.0839    4.1550 C   0  0  0  0  0  0  0  0  0  0  0  0
    1.5845    0.5351    3.3034 C   0  0  0  0  0  0  0  0  0  0  0  0
    1.4648    0.7088    1.9894 N   0  0  0  0  0  0  0  0  0  0  0  0
    0.2533    0.4076    1.5452 C   0  0  0  0  0  0  0  0  0  0  0  0
   -2.8274    0.6573   -4.5504 H   0  0  0  0  0  0  0  0  0  0  0  0
   -1.1884   -0.9830   -4.2965 H   0  0  0  0  0  0  0  0  0  0  0  0
   -1.9963   -0.5982   -2.7780 H   0  0  0  0  0  0  0  0  0  0  0  0
    0.5694    0.6829   -3.8084 H   0  0  0  0  0  0  0  0  0  0  0  0
    0.0187   -1.5836   -1.8482 H   0  0  0  0  0  0  0  0  0  0  0  0
    1.6968   -2.4729   -2.9872 H   0  0  0  0  0  0  0  0  0  0  0  0
    1.8892   -0.8343   -0.5046 H   0  0  0  0  0  0  0  0  0  0  0  0
    3.0179   -0.1599   -2.6240 H   0  0  0  0  0  0  0  0  0  0  0  0
    1.1621    1.8065   -0.5610 H   0  0  0  0  0  0  0  0  0  0  0  0
   -2.1017    0.0597   -0.6240 H   0  0  0  0  0  0  0  0  0  0  0  0
   -1.5187   -0.9709    5.3703 H   0  0  0  0  0  0  0  0  0  0  0  0
   -2.5207   -1.0563    4.0020 H   0  0  0  0  0  0  0  0  0  0  0  0
    0.7942   -0.0228    5.2107 H   0  0  0  0  0  0  0  0  0  0  0  0
    2.5554    0.7662    3.7274 H   0  0  0  0  0  0  0  0  0  0  0  0
  1  2  1  0
  1 20  1  0
  2  3  1  0
  2 21  1  0
  2 22  1  0
  3  4  1  0
  3  5  1  0
  3 23  1  6
  4  9  1  0
  5  6  1  0
  5  7  1  0
  5 24  1  1
  6 25  1  0
  7  8  1  0
  7  9  1  0
  7 26  1  1
  8 27  1  0
  9 10  1  0
  9 28  1  1
 10 11  1  0
 10 19  1  0
 11 12  2  0
 11 29  1  0
 12 13  1  0
 13 14  1  0
 13 19  2  0
 14 15  1  0
 14 16  2  0
 15 30  1  0
 15 31  1  0
 16 17  1  0
 16 32  1  0
 17 18  2  0
 17 33  1  0
 18 19  1  0
M  END
