
     RDKit          3D

 22 22  0  0  0  0  0  0  0  0999 V2000
    1.3373    0.0462    4.3176 C   0  0  0  0  0  0  0  0  0  0  0  0
    0.0590   -0.1008    3.5307 C   0  0  0  0  0  0  0  0  0  0  0  0
    0.4026   -0.0771    2.1324 O   0  0  0  0  0  0  0  0  0  0  0  0
   -0.5662   -0.0991    1.2452 C   0  0  0  0  0  0  0  0  0  0  0  0
   -1.7520   -0.1355    1.5481 O   0  0  0  0  0  0  0  0  0  0  0  0
   -0.1130   -0.0756   -0.1362 C   0  0  0  0  0  0  0  0  0  0  0  0
    1.2246   -0.0505   -0.5249 C   0  0  0  0  0  0  0  0  0  0  0  0
    1.6209   -0.0317   -1.7762 N   0  0  0  0  0  0  0  0  0  0  0  0
    0.6430   -0.0369   -2.7042 C   0  0  0  0  0  0  0  0  0  0  0  0
    1.0263   -0.0187   -3.9783 N   0  0  0  0  0  0  0  0  0  0  0  0
   -0.6707   -0.0594   -2.4576 N   0  0  0  0  0  0  0  0  0  0  0  0
   -1.0469   -0.0795   -1.2004 C   0  0  0  0  0  0  0  0  0  0  0  0
   -2.3446   -0.1026   -0.9879 O   0  0  0  0  0  0  0  0  0  0  0  0
    1.1006    0.0284    5.3811 H   0  0  0  0  0  0  0  0  0  0  0  0
    2.0314   -0.7694    4.1162 H   0  0  0  0  0  0  0  0  0  0  0  0
    1.8346    0.9915    4.1018 H   0  0  0  0  0  0  0  0  0  0  0  0
   -0.4383   -1.0440    3.7641 H   0  0  0  0  0  0  0  0  0  0  0  0
   -0.6332    0.7130    3.7518 H   0  0  0  0  0  0  0  0  0  0  0  0
    2.0080   -0.0472    0.2246 H   0  0  0  0  0  0  0  0  0  0  0  0
    2.0030    0.0004   -4.2141 H   0  0  0  0  0  0  0  0  0  0  0  0
    0.3481   -0.0194   -4.7198 H   0  0  0  0  0  0  0  0  0  0  0  0
   -2.4935   -0.1206   -0.0140 H   0  0  0  0  0  0  0  0  0  0  0  0
  1  2  1  0
  1 14  1  0
  1 15  1  0
  1 16  1  0
  2  3  1  0
  2 17  1  0
  2 18  1  0
  3  4  1  0
  4  5  2  0
  4  6  1  0
  6  7  2  0
  6 12  1  0
  7  8  1  0
  7 19  1  0
  8  9  2  0
  9 10  1  0
  9 11  1  0
 10 20  1  0
 10 21  1  0
 11 12  2  0
 12 13  1  0
 13 22  1  0
M  END
