
     RDKit          3D

 35 35  0  0  0  0  0  0  0  0999 V2000
   -2.7523    0.1214   -0.0230 C   0  0  0  0  0  0  0  0  0  0  0  0
   -4.8571   -0.1217    1.2796 C   0  0  0  0  0  0  0  0  0  0  0  0
   -4.5052    1.9529   -0.0430 C   0  0  0  0  0  0  0  0  0  0  0  0
   -4.2404    0.4481   -0.0054 C   0  0  1  0  0  0  0  0  0  0  0  0
   -0.0103   -0.5679   -0.0375 C   0  0  0  0  0  0  0  0  0  0  0  0
   -0.9981   -1.5558   -0.0230 C   0  0  0  0  0  0  0  0  0  0  0  0
   -0.4144    0.7632   -0.0465 C   0  0  0  0  0  0  0  0  0  0  0  0
    3.8829   -0.4361   -0.0043 C   0  0  0  0  0  0  0  0  0  0  0  0
    4.9258    0.6459    0.0353 C   0  0  0  0  0  0  0  0  0  0  0  0
   -1.7615    1.0996   -0.0405 C   0  0  0  0  0  0  0  0  0  0  0  0
   -2.3355   -1.2149   -0.0152 C   0  0  0  0  0  0  0  0  0  0  0  0
    2.4700    0.1137   -0.0215 C   0  0  0  0  0  0  0  0  0  0  0  0
    4.7040    1.8311    0.0264 O   0  0  0  0  0  0  0  0  0  0  0  0
    1.7299   -2.1455   -0.0511 O   0  0  0  0  0  0  0  0  0  0  0  0
    1.4210   -0.9715   -0.0392 C   0  0  0  0  0  0  0  0  0  0  0  0
    6.1531    0.1380    0.0810 O   0  0  0  0  0  0  0  0  0  0  0  0
   -4.9115   -0.1932   -1.2271 C   0  0  0  0  0  0  0  0  0  0  0  0
   -5.9262    0.0964    1.3159 H   0  0  0  0  0  0  0  0  0  0  0  0
   -4.7425   -1.2042    1.3444 H   0  0  0  0  0  0  0  0  0  0  0  0
   -4.3944    0.3181    2.1647 H   0  0  0  0  0  0  0  0  0  0  0  0
   -4.0810    2.4661    0.8221 H   0  0  0  0  0  0  0  0  0  0  0  0
   -4.1047    2.4178   -0.9460 H   0  0  0  0  0  0  0  0  0  0  0  0
   -5.5809    2.1343   -0.0330 H   0  0  0  0  0  0  0  0  0  0  0  0
   -0.7172   -2.6007   -0.0164 H   0  0  0  0  0  0  0  0  0  0  0  0
    0.3126    1.5640   -0.0590 H   0  0  0  0  0  0  0  0  0  0  0  0
    4.0716   -1.0587   -0.8828 H   0  0  0  0  0  0  0  0  0  0  0  0
    4.0373   -1.0912    0.8566 H   0  0  0  0  0  0  0  0  0  0  0  0
   -2.0231    2.1486   -0.0487 H   0  0  0  0  0  0  0  0  0  0  0  0
   -3.0671   -2.0125   -0.0018 H   0  0  0  0  0  0  0  0  0  0  0  0
    2.2960    0.7545    0.8476 H   0  0  0  0  0  0  0  0  0  0  0  0
    2.3185    0.7609   -0.8902 H   0  0  0  0  0  0  0  0  0  0  0  0
    6.8068    0.8527    0.1001 H   0  0  0  0  0  0  0  0  0  0  0  0
   -5.9817    0.0225   -1.2261 H   0  0  0  0  0  0  0  0  0  0  0  0
   -4.4911    0.1962   -2.1558 H   0  0  0  0  0  0  0  0  0  0  0  0
   -4.7985   -1.2776   -1.2368 H   0  0  0  0  0  0  0  0  0  0  0  0
  4  3  1  6
  2  4  1  0
  4  1  1  0
  4 17  1  0
  1 11  2  0
  1 10  1  0
 11  6  1  0
 10  7  2  0
  6  5  2  0
  7  5  1  0
  5 15  1  0
 13  9  2  0
 15 14  2  0
 15 12  1  0
 12  8  1  0
  9 16  1  0
  9  8  1  0
  2 18  1  0
  2 19  1  0
  2 20  1  0
  3 21  1  0
  3 22  1  0
  3 23  1  0
  6 24  1  0
  7 25  1  0
  8 26  1  0
  8 27  1  0
 10 28  1  0
 11 29  1  0
 12 30  1  0
 12 31  1  0
 16 32  1  0
 17 33  1  0
 17 34  1  0
 17 35  1  0
M  END
