
     RDKit          3D

 28 27  0  0  0  0  0  0  0  0999 V2000
   -2.1686    1.6393    0.6841 O   0  0  0  0  0  0  0  0  0  0  0  0
   -3.0713    0.4216    0.1475 P   0  0  1  0  0  0  0  0  0  0  0  0
   -3.7274   -0.2488    1.2911 O   0  0  0  0  0  0  0  0  0  0  0  0
   -4.0533    1.0156   -0.9750 O   0  0  0  0  0  0  0  0  0  0  0  0
   -1.9716   -0.5789   -0.8831 C   0  0  0  0  0  0  0  0  0  0  0  0
   -0.7458   -0.9941   -0.0929 C   0  0  0  0  0  0  0  0  0  0  0  0
   -0.8498   -1.6240    0.9491 O   0  0  0  0  0  0  0  0  0  0  0  0
    0.4209   -0.6027   -0.6165 N   0  0  0  0  0  0  0  0  0  0  0  0
    1.7130   -0.9184   -0.0422 C   0  0  0  0  0  0  0  0  0  0  0  0
    2.7319    0.1580   -0.3818 C   0  0  0  0  0  0  0  0  0  0  0  0
    4.1221   -0.1877    0.1346 C   0  0  0  0  0  0  0  0  0  0  0  0
    5.1415    0.8965   -0.1794 C   0  0  0  0  0  0  0  0  0  0  0  0
    6.4594    0.5340    0.3222 N   0  0  0  0  0  0  0  0  0  0  0  0
   -1.7488    2.1816    0.0036 H   0  0  0  0  0  0  0  0  0  0  0  0
   -4.8456    1.4408   -0.6177 H   0  0  0  0  0  0  0  0  0  0  0  0
   -2.5156   -1.4770   -1.1850 H   0  0  0  0  0  0  0  0  0  0  0  0
   -1.7224   -0.0273   -1.7916 H   0  0  0  0  0  0  0  0  0  0  0  0
    0.4168   -0.1443   -1.5137 H   0  0  0  0  0  0  0  0  0  0  0  0
    1.6014   -1.0016    1.0386 H   0  0  0  0  0  0  0  0  0  0  0  0
    2.0607   -1.8912   -0.4053 H   0  0  0  0  0  0  0  0  0  0  0  0
    2.7722    0.2938   -1.4678 H   0  0  0  0  0  0  0  0  0  0  0  0
    2.4025    1.1114    0.0415 H   0  0  0  0  0  0  0  0  0  0  0  0
    4.0916   -0.3477    1.2165 H   0  0  0  0  0  0  0  0  0  0  0  0
    4.4507   -1.1331   -0.3110 H   0  0  0  0  0  0  0  0  0  0  0  0
    5.1237    1.0973   -1.2607 H   0  0  0  0  0  0  0  0  0  0  0  0
    4.8329    1.8259    0.3071 H   0  0  0  0  0  0  0  0  0  0  0  0
    6.8057   -0.2603   -0.2024 H   0  0  0  0  0  0  0  0  0  0  0  0
    7.1096    1.2855    0.1309 H   0  0  0  0  0  0  0  0  0  0  0  0
  2  1  1  1
  2  3  2  0
  2  4  1  0
  2  5  1  0
  5  6  1  0
  6  7  2  0
  6  8  1  0
  8  9  1  0
  9 10  1  0
 10 11  1  0
 11 12  1  0
 12 13  1  0
  1 14  1  0
  4 15  1  0
  5 16  1  0
  5 17  1  0
  8 18  1  0
  9 19  1  0
  9 20  1  0
 10 21  1  0
 10 22  1  0
 11 23  1  0
 11 24  1  0
 12 25  1  0
 12 26  1  0
 13 27  1  0
 13 28  1  0
M  END
