
     RDKit          3D

 56 60  0  0  0  0  0  0  0  0999 V2000
   -5.5972    0.3560   -1.1970 C   0  0  0  0  0  0  0  0  0  0  0  0
   -6.9008   -0.4344   -1.2080 C   0  0  0  0  0  0  0  0  0  0  0  0
   -7.6591   -0.3515    0.0250 N   0  0  0  0  0  0  0  0  0  0  0  0
   -6.8126   -0.7005    1.1502 C   0  0  0  0  0  0  0  0  0  0  0  0
   -5.5161    0.0944    1.2093 C   0  0  0  0  0  0  0  0  0  0  0  0
   -4.7846   -0.0078   -0.0500 N   0  0  0  0  0  0  0  0  0  0  0  0
   -3.4508    0.3805   -0.0497 C   0  0  0  0  0  0  0  0  0  0  0  0
   -2.5847   -0.0387    0.9744 C   0  0  0  0  0  0  0  0  0  0  0  0
   -1.2511    0.3158    0.9777 C   0  0  0  0  0  0  0  0  0  0  0  0
   -2.8972    1.1679   -1.0695 C   0  0  0  0  0  0  0  0  0  0  0  0
   -1.5552    1.5127   -1.0606 C   0  0  0  0  0  0  0  0  0  0  0  0
   -0.7075    1.1059   -0.0354 C   0  0  0  0  0  0  0  0  0  0  0  0
    0.7152    1.4564   -0.0239 C   0  0  0  0  0  0  0  0  0  0  0  0
    1.1533    2.7610   -0.0299 N   0  0  0  0  0  0  0  0  0  0  0  0
    0.3561    3.9525    0.1628 C   0  0  0  0  0  0  0  0  0  0  0  0
    2.5141    2.7618    0.0082 C   0  0  0  0  0  0  0  0  0  0  0  0
    3.2637    3.8490    0.0327 N   0  0  0  0  0  0  0  0  0  0  0  0
    4.5699    3.6358    0.0407 C   0  0  0  0  0  0  0  0  0  0  0  0
    5.1554    2.3687    0.0108 C   0  0  0  0  0  0  0  0  0  0  0  0
    4.3413    1.2507   -0.0114 C   0  0  0  0  0  0  0  0  0  0  0  0
    5.0574   -0.3159   -0.0935 Cl  0  0  0  0  0  0  0  0  0  0  0  0
    2.9594    1.4165    0.0152 C   0  0  0  0  0  0  0  0  0  0  0  0
    1.7898    0.5960    0.0020 C   0  0  0  0  0  0  0  0  0  0  0  0
    1.6890   -0.8702    0.0025 C   0  0  0  0  0  0  0  0  0  0  0  0
    0.9944   -1.5354   -1.0059 C   0  0  0  0  0  0  0  0  0  0  0  0
    0.8629   -2.9160   -0.9846 C   0  0  0  0  0  0  0  0  0  0  0  0
    2.2449   -1.6273    1.0334 C   0  0  0  0  0  0  0  0  0  0  0  0
    2.1141   -3.0062    1.0498 C   0  0  0  0  0  0  0  0  0  0  0  0
    1.4165   -3.6706    0.0441 C   0  0  0  0  0  0  0  0  0  0  0  0
    1.3113   -5.1676    0.0484 C   0  0  0  0  0  0  0  0  0  0  0  0
    2.4687   -5.6961   -0.5703 O   0  0  0  0  0  0  0  0  0  0  0  0
   -5.0539    0.1267   -2.1151 H   0  0  0  0  0  0  0  0  0  0  0  0
   -5.8172    1.4354   -1.2090 H   0  0  0  0  0  0  0  0  0  0  0  0
   -7.5168   -0.0853   -2.0386 H   0  0  0  0  0  0  0  0  0  0  0  0
   -6.6717   -1.4877   -1.3977 H   0  0  0  0  0  0  0  0  0  0  0  0
   -8.0046    0.5947    0.1446 H   0  0  0  0  0  0  0  0  0  0  0  0
   -7.3639   -0.5528    2.0805 H   0  0  0  0  0  0  0  0  0  0  0  0
   -6.5742   -1.7668    1.0827 H   0  0  0  0  0  0  0  0  0  0  0  0
   -5.7438    1.1482    1.4322 H   0  0  0  0  0  0  0  0  0  0  0  0
   -4.9126   -0.2847    2.0315 H   0  0  0  0  0  0  0  0  0  0  0  0
   -2.9483   -0.6673    1.7758 H   0  0  0  0  0  0  0  0  0  0  0  0
   -0.6187   -0.0344    1.7838 H   0  0  0  0  0  0  0  0  0  0  0  0
   -3.5068    1.5334   -1.8833 H   0  0  0  0  0  0  0  0  0  0  0  0
   -1.1692    2.1076   -1.8800 H   0  0  0  0  0  0  0  0  0  0  0  0
    0.2793    4.2034    1.2210 H   0  0  0  0  0  0  0  0  0  0  0  0
    0.8179    4.7835   -0.3627 H   0  0  0  0  0  0  0  0  0  0  0  0
   -0.6433    3.8063   -0.2331 H   0  0  0  0  0  0  0  0  0  0  0  0
    5.2073    4.5117    0.0631 H   0  0  0  0  0  0  0  0  0  0  0  0
    6.2318    2.2736   -0.0008 H   0  0  0  0  0  0  0  0  0  0  0  0
    0.5536   -0.9681   -1.8160 H   0  0  0  0  0  0  0  0  0  0  0  0
    0.3205   -3.4113   -1.7818 H   0  0  0  0  0  0  0  0  0  0  0  0
    2.7696   -1.1297    1.8391 H   0  0  0  0  0  0  0  0  0  0  0  0
    2.5482   -3.5712    1.8664 H   0  0  0  0  0  0  0  0  0  0  0  0
    1.2148   -5.5228    1.0815 H   0  0  0  0  0  0  0  0  0  0  0  0
    0.4004   -5.4724   -0.4808 H   0  0  0  0  0  0  0  0  0  0  0  0
    2.4117   -6.6558   -0.5276 H   0  0  0  0  0  0  0  0  0  0  0  0
 18 19  2  0
 18 17  1  0
 19 20  1  0
 17 16  2  0
 20 21  1  0
 20 22  2  0
 16 22  1  0
 16 14  1  0
 22 23  1  0
 15 14  1  0
 14 13  1  0
 23 13  2  0
 23 24  1  0
 13 12  1  0
 25 24  2  0
 25 26  1  0
 24 27  1  0
 12 11  2  0
 12  9  1  0
 26 29  2  0
 27 28  2  0
 11 10  1  0
  9  8  2  0
 29 28  1  0
 29 30  1  0
 10  7  2  0
 30 31  1  0
  8  7  1  0
  7  6  1  0
  6  1  1  0
  6  5  1  0
  1  2  1  0
  5  4  1  0
  2  3  1  0
  3  4  1  0
  1 32  1  0
  1 33  1  0
  2 34  1  0
  2 35  1  0
  3 36  1  0
  4 37  1  0
  4 38  1  0
  5 39  1  0
  5 40  1  0
  8 41  1  0
  9 42  1  0
 10 43  1  0
 11 44  1  0
 15 45  1  0
 15 46  1  0
 15 47  1  0
 18 48  1  0
 19 49  1  0
 25 50  1  0
 26 51  1  0
 27 52  1  0
 28 53  1  0
 30 54  1  0
 30 55  1  0
 31 56  1  0
M  END
