
     RDKit          3D

 87 90  0  0  0  0  0  0  0  0999 V2000
    5.9992   -0.1123    0.8462 C   0  0  0  0  0  0  0  0  0  0  0  0
    6.1295    0.4245    2.2660 C   0  0  0  0  0  0  0  0  0  0  0  0
    6.7381    1.7411    2.3401 N   0  0  0  0  0  0  0  0  0  0  0  0
    8.1742    1.7359    2.1488 C   0  0  0  0  0  0  0  0  0  0  0  0
    6.0383    2.6509    1.4508 C   0  0  0  0  0  0  0  0  0  0  0  0
    5.9077    2.1336    0.0230 C   0  0  0  0  0  0  0  0  0  0  0  0
    5.2631    0.8318    0.0230 N   0  0  0  0  0  0  0  0  0  0  0  0
    5.0343    0.3326   -1.3097 C   0  0  0  0  0  0  0  0  0  0  0  0
    3.9696   -0.7325   -1.3874 C   0  0  0  0  0  0  0  0  0  0  0  0
    3.0092   -0.8853   -0.3938 C   0  0  0  0  0  0  0  0  0  0  0  0
    1.9728   -1.7938   -0.5434 C   0  0  0  0  0  0  0  0  0  0  0  0
    3.8931   -1.5477   -2.5148 C   0  0  0  0  0  0  0  0  0  0  0  0
    2.8650   -2.4626   -2.6647 C   0  0  0  0  0  0  0  0  0  0  0  0
    1.8760   -2.5768   -1.6903 C   0  0  0  0  0  0  0  0  0  0  0  0
    0.7583   -3.5403   -1.9154 C   0  0  0  0  0  0  0  0  0  0  0  0
    0.9213   -4.5658   -2.5661 O   0  0  0  0  0  0  0  0  0  0  0  0
   -0.4214   -3.1925   -1.3726 N   0  0  0  0  0  0  0  0  0  0  0  0
   -1.6239   -3.9793   -1.5611 C   0  0  0  0  0  0  0  0  0  0  0  0
   -2.5935   -3.7273   -0.4389 C   0  0  0  0  0  0  0  0  0  0  0  0
   -3.6446   -2.8334   -0.5998 C   0  0  0  0  0  0  0  0  0  0  0  0
   -2.4360   -4.3682    0.7874 C   0  0  0  0  0  0  0  0  0  0  0  0
   -3.3255   -4.1279    1.8234 C   0  0  0  0  0  0  0  0  0  0  0  0
   -4.3756   -3.2355    1.6468 C   0  0  0  0  0  0  0  0  0  0  0  0
   -4.5429   -2.5801    0.4327 C   0  0  0  0  0  0  0  0  0  0  0  0
   -5.6276   -1.5592    0.2531 C   0  0  0  0  0  0  0  0  0  0  0  0
   -5.1047   -0.3117    0.6598 O   0  0  0  0  0  0  0  0  0  0  0  0
   -5.8224    0.8199    0.2159 C   0  0  1  0  0  0  0  0  0  0  0  0
   -7.0673    1.0941    1.0463 C   0  0  0  0  0  0  0  0  0  0  0  0
   -6.5263    1.6347    2.3774 C   0  0  0  0  0  0  0  0  0  0  0  0
   -5.1648    2.2805    2.0419 C   0  0  0  0  0  0  0  0  0  0  0  0
   -4.9462    2.0312    0.5354 C   0  0  1  0  0  0  0  0  0  0  0  0
   -3.5758    1.7935    0.1512 N   0  0  0  0  0  0  0  0  0  0  0  0
   -2.6862    2.7712   -0.0446 C   0  0  0  0  0  0  0  0  0  0  0  0
   -2.9567    3.9601    0.0206 O   0  0  0  0  0  0  0  0  0  0  0  0
   -1.2843    2.3179   -0.3623 C   0  0  0  0  0  0  0  0  0  0  0  0
   -1.0651    0.9199   -0.5221 C   0  0  0  0  0  0  0  0  0  0  0  0
   -0.9591   -0.2228   -0.6281 N   0  0  0  0  0  0  0  0  0  0  0  0
   -0.2974    3.2230   -0.4449 C   0  0  0  0  0  0  0  0  0  0  0  0
    1.1741    3.0166   -0.6902 C   0  0  1  0  0  0  0  0  0  0  0  0
    1.8105    4.3851   -0.9511 C   0  0  0  0  0  0  0  0  0  0  0  0
    1.7814    2.4184    0.5895 C   0  0  0  0  0  0  0  0  0  0  0  0
    1.4460    2.1113   -1.8969 C   0  0  0  0  0  0  0  0  0  0  0  0
    6.9938   -0.3254    0.4176 H   0  0  0  0  0  0  0  0  0  0  0  0
    5.4637   -1.0640    0.8752 H   0  0  0  0  0  0  0  0  0  0  0  0
    5.1266    0.4858    2.7021 H   0  0  0  0  0  0  0  0  0  0  0  0
    6.7059   -0.2754    2.8747 H   0  0  0  0  0  0  0  0  0  0  0  0
    8.5200    1.4268    1.1531 H   0  0  0  0  0  0  0  0  0  0  0  0
    8.5670    2.7380    2.3308 H   0  0  0  0  0  0  0  0  0  0  0  0
    8.6354    1.0664    2.8767 H   0  0  0  0  0  0  0  0  0  0  0  0
    5.0318    2.8169    1.8506 H   0  0  0  0  0  0  0  0  0  0  0  0
    6.5466    3.6179    1.4474 H   0  0  0  0  0  0  0  0  0  0  0  0
    5.2966    2.8332   -0.5543 H   0  0  0  0  0  0  0  0  0  0  0  0
    6.8959    2.1006   -0.4672 H   0  0  0  0  0  0  0  0  0  0  0  0
    4.7037    1.1711   -1.9326 H   0  0  0  0  0  0  0  0  0  0  0  0
    5.9589   -0.0396   -1.7834 H   0  0  0  0  0  0  0  0  0  0  0  0
    3.0661   -0.2793    0.5004 H   0  0  0  0  0  0  0  0  0  0  0  0
    1.2455   -1.8925    0.2523 H   0  0  0  0  0  0  0  0  0  0  0  0
    4.6430   -1.4577   -3.2921 H   0  0  0  0  0  0  0  0  0  0  0  0
    2.8232   -3.0801   -3.5526 H   0  0  0  0  0  0  0  0  0  0  0  0
   -0.5478   -2.2439   -1.0397 H   0  0  0  0  0  0  0  0  0  0  0  0
   -2.0925   -3.7430   -2.5215 H   0  0  0  0  0  0  0  0  0  0  0  0
   -1.3496   -5.0335   -1.5925 H   0  0  0  0  0  0  0  0  0  0  0  0
   -3.7723   -2.3300   -1.5525 H   0  0  0  0  0  0  0  0  0  0  0  0
   -1.6204   -5.0681    0.9274 H   0  0  0  0  0  0  0  0  0  0  0  0
   -3.2045   -4.6394    2.7696 H   0  0  0  0  0  0  0  0  0  0  0  0
   -5.0712   -3.0525    2.4573 H   0  0  0  0  0  0  0  0  0  0  0  0
   -5.9400   -1.5182   -0.7978 H   0  0  0  0  0  0  0  0  0  0  0  0
   -6.5106   -1.8295    0.8445 H   0  0  0  0  0  0  0  0  0  0  0  0
   -6.0365    0.7351   -0.8578 H   0  0  0  0  0  0  0  0  0  0  0  0
   -7.6621    1.8532    0.5321 H   0  0  0  0  0  0  0  0  0  0  0  0
   -7.7070    0.2176    1.1601 H   0  0  0  0  0  0  0  0  0  0  0  0
   -7.2177    2.3422    2.8340 H   0  0  0  0  0  0  0  0  0  0  0  0
   -6.3933    0.8213    3.0909 H   0  0  0  0  0  0  0  0  0  0  0  0
   -5.1438    3.3472    2.2625 H   0  0  0  0  0  0  0  0  0  0  0  0
   -4.3589    1.8207    2.6157 H   0  0  0  0  0  0  0  0  0  0  0  0
   -5.3267    2.8791   -0.0377 H   0  0  0  0  0  0  0  0  0  0  0  0
   -3.2812    0.8276    0.1775 H   0  0  0  0  0  0  0  0  0  0  0  0
   -0.6118    4.2473   -0.2678 H   0  0  0  0  0  0  0  0  0  0  0  0
    1.6661    5.0590   -0.1050 H   0  0  0  0  0  0  0  0  0  0  0  0
    2.8842    4.2768   -1.1121 H   0  0  0  0  0  0  0  0  0  0  0  0
    1.3883    4.8590   -1.8393 H   0  0  0  0  0  0  0  0  0  0  0  0
    1.3411    1.4513    0.8339 H   0  0  0  0  0  0  0  0  0  0  0  0
    2.8555    2.2676    0.4622 H   0  0  0  0  0  0  0  0  0  0  0  0
    1.6337    3.0836    1.4419 H   0  0  0  0  0  0  0  0  0  0  0  0
    0.9255    2.4716   -2.7853 H   0  0  0  0  0  0  0  0  0  0  0  0
    2.5149    2.1180   -2.1164 H   0  0  0  0  0  0  0  0  0  0  0  0
    1.1687    1.0728   -1.7284 H   0  0  0  0  0  0  0  0  0  0  0  0
 29 28  1  0
 29 30  1  0
 28 27  1  0
 30 31  1  0
 31 27  1  0
 31 32  1  0
 27 26  1  0
 32 33  1  0
 26 25  1  0
 25 24  1  0
 33 34  2  0
 33 35  1  0
 37 36  3  0
 36 35  1  0
 23 24  1  0
 23 22  2  0
 24 20  2  0
 35 38  2  0
 22 21  1  0
 20 19  1  0
 39 38  1  1
 41 39  1  0
 21 19  2  0
 19 18  1  0
 39 42  1  0
 39 40  1  0
 18 17  1  0
 17 15  1  0
 15 16  2  0
 15 14  1  0
 13 14  2  0
 13 12  1  0
 14 11  1  0
 12  9  2  0
 11 10  2  0
  9 10  1  0
  9  8  1  0
  8  7  1  0
  7  6  1  0
  7  1  1  0
  6  5  1  0
  1  2  1  0
  5  3  1  0
  2  3  1  0
  3  4  1  0
  1 43  1  0
  1 44  1  0
  2 45  1  0
  2 46  1  0
  4 47  1  0
  4 48  1  0
  4 49  1  0
  5 50  1  0
  5 51  1  0
  6 52  1  0
  6 53  1  0
  8 54  1  0
  8 55  1  0
 10 56  1  0
 11 57  1  0
 12 58  1  0
 13 59  1  0
 17 60  1  0
 18 61  1  0
 18 62  1  0
 20 63  1  0
 21 64  1  0
 22 65  1  0
 23 66  1  0
 25 67  1  0
 25 68  1  0
 27 69  1  6
 28 70  1  0
 28 71  1  0
 29 72  1  0
 29 73  1  0
 30 74  1  0
 30 75  1  0
 31 76  1  6
 32 77  1  0
 38 78  1  0
 40 79  1  0
 40 80  1  0
 40 81  1  0
 41 82  1  0
 41 83  1  0
 41 84  1  0
 42 85  1  0
 42 86  1  0
 42 87  1  0
M  END
