
     RDKit          3D

 60 64  0  0  0  0  0  0  0  0999 V2000
   -1.5100    0.1953    1.0178 C   0  0  0  0  0  0  0  0  0  0  0  0
   -0.9591   -0.9873    0.5564 C   0  0  0  0  0  0  0  0  0  0  0  0
    0.9731   -2.3592    0.4613 C   0  0  1  0  0  0  0  0  0  0  0  0
    2.0709   -2.7869    1.4166 C   0  0  0  0  0  0  0  0  0  0  0  0
    2.9055   -1.5865    1.8405 C   0  0  0  0  0  0  0  0  0  0  0  0
    3.2225   -0.7113    0.6615 C   0  0  0  0  0  0  0  0  0  0  0  0
    4.2207    0.2489    0.7192 C   0  0  0  0  0  0  0  0  0  0  0  0
    4.5226    1.0651   -0.3670 C   0  0  0  0  0  0  0  0  0  0  0  0
    5.5979    2.0676   -0.2203 C   0  0  0  0  0  0  0  0  0  0  0  0
    3.8029    0.9041   -1.5532 C   0  0  0  0  0  0  0  0  0  0  0  0
    2.8038   -0.0439   -1.6332 C   0  0  0  0  0  0  0  0  0  0  0  0
    2.5104   -0.8465   -0.5322 C   0  0  0  0  0  0  0  0  0  0  0  0
    0.0981   -3.4992   -0.0260 C   0  0  0  0  0  0  0  0  0  0  0  0
   -0.9835   -2.9861   -0.9669 C   0  0  0  0  0  0  0  0  0  0  0  0
   -1.5994   -1.7240   -0.4340 C   0  0  0  0  0  0  0  0  0  0  0  0
   -2.8089   -1.2370   -0.9063 C   0  0  0  0  0  0  0  0  0  0  0  0
   -3.3997   -0.0594   -0.4491 C   0  0  0  0  0  0  0  0  0  0  0  0
   -4.7301    0.3763   -1.0539 C   0  0  1  0  0  0  0  0  0  0  0  0
   -5.7271   -0.7869   -1.1031 C   0  0  0  0  0  0  0  0  0  0  0  0
   -5.3594    1.4889   -0.2095 C   0  0  0  0  0  0  0  0  0  0  0  0
   -4.3546    2.5529    0.1816 C   0  0  0  0  0  0  0  0  0  0  0  0
   -3.2461    2.0022    1.0840 C   0  0  1  0  0  0  0  0  0  0  0  0
   -2.1382    3.0598    1.1530 C   0  0  0  0  0  0  0  0  0  0  0  0
   -3.7846    1.7622    2.5012 C   0  0  0  0  0  0  0  0  0  0  0  0
   -2.7177    0.6863    0.5242 C   0  0  0  0  0  0  0  0  0  0  0  0
    0.2120   -1.3862    1.1313 O   0  0  0  0  0  0  0  0  0  0  0  0
    5.8045    2.7752   -1.3243 O   0  0  0  0  0  0  0  0  0  0  0  0
    6.2320    2.2377    0.7958 O   0  0  0  0  0  0  0  0  0  0  0  0
    1.5305   -1.7597   -0.6973 O   0  0  0  0  0  0  0  0  0  0  0  0
   -0.9676    0.7441    1.7788 H   0  0  0  0  0  0  0  0  0  0  0  0
    1.6316   -3.2828    2.2830 H   0  0  0  0  0  0  0  0  0  0  0  0
    2.6946   -3.5246    0.9062 H   0  0  0  0  0  0  0  0  0  0  0  0
    2.3767   -1.0025    2.5975 H   0  0  0  0  0  0  0  0  0  0  0  0
    3.8306   -1.9267    2.3086 H   0  0  0  0  0  0  0  0  0  0  0  0
    4.7805    0.3553    1.6407 H   0  0  0  0  0  0  0  0  0  0  0  0
    4.0109    1.5172   -2.4190 H   0  0  0  0  0  0  0  0  0  0  0  0
    2.2401   -0.1701   -2.5487 H   0  0  0  0  0  0  0  0  0  0  0  0
    0.7167   -4.2534   -0.5142 H   0  0  0  0  0  0  0  0  0  0  0  0
   -0.3506   -3.9718    0.8509 H   0  0  0  0  0  0  0  0  0  0  0  0
   -0.5634   -2.8007   -1.9589 H   0  0  0  0  0  0  0  0  0  0  0  0
   -1.7499   -3.7518   -1.0992 H   0  0  0  0  0  0  0  0  0  0  0  0
   -3.3103   -1.8211   -1.6708 H   0  0  0  0  0  0  0  0  0  0  0  0
   -5.4271    1.1912   -2.9465 H   0  0  0  0  0  0  0  0  0  0  0  0
   -3.8016    1.7237   -2.5111 H   0  0  0  0  0  0  0  0  0  0  0  0
   -4.0597    0.0901   -3.1090 H   0  0  0  0  0  0  0  0  0  0  0  0
   -5.4082   -1.5900   -1.7682 H   0  0  0  0  0  0  0  0  0  0  0  0
   -5.8856   -1.2137   -0.1112 H   0  0  0  0  0  0  0  0  0  0  0  0
   -6.6922   -0.4297   -1.4697 H   0  0  0  0  0  0  0  0  0  0  0  0
   -6.1909    1.9287   -0.7678 H   0  0  0  0  0  0  0  0  0  0  0  0
   -5.8003    1.0505    0.6922 H   0  0  0  0  0  0  0  0  0  0  0  0
   -3.9034    2.9855   -0.7179 H   0  0  0  0  0  0  0  0  0  0  0  0
   -4.8531    3.3792    0.6968 H   0  0  0  0  0  0  0  0  0  0  0  0
   -2.5663    4.0238    1.4362 H   0  0  0  0  0  0  0  0  0  0  0  0
   -1.3717    2.8223    1.8913 H   0  0  0  0  0  0  0  0  0  0  0  0
   -1.6493    3.1836    0.1852 H   0  0  0  0  0  0  0  0  0  0  0  0
   -4.6083    1.0476    2.5127 H   0  0  0  0  0  0  0  0  0  0  0  0
   -3.0032    1.3720    3.1557 H   0  0  0  0  0  0  0  0  0  0  0  0
   -4.1462    2.6965    2.9368 H   0  0  0  0  0  0  0  0  0  0  0  0
    6.5135    3.4181   -1.1759 H   0  0  0  0  0  0  0  0  0  0  0  0
   -4.4879    0.8766   -2.4851 C   0  0  0  0  0  0  0  0  0  0  0  0
 21 20  1  0
 21 22  1  0
 22 23  1  1
 20 18  1  0
 24 22  1  0
 22 25  1  0
 18 60  1  6
 18 19  1  0
 18 17  1  0
 25 17  1  0
 25  1  2  0
 17 16  2  0
  1  2  1  0
 16 15  1  0
  2 15  2  0
  2 26  1  0
 28  9  2  0
 15 14  1  0
  9 27  1  0
  9  8  1  0
  3 26  1  1
 10  8  2  0
 10 11  1  0
  8  7  1  0
 11 12  2  0
  7  6  2  0
 12  6  1  0
 12 29  1  0
  6  5  1  0
 29  3  1  0
 14 13  1  0
  3 13  1  0
  3  4  1  0
  5  4  1  0
  1 30  1  0
  4 31  1  0
  4 32  1  0
  5 33  1  0
  5 34  1  0
  7 35  1  0
 10 36  1  0
 11 37  1  0
 13 38  1  0
 13 39  1  0
 14 40  1  0
 14 41  1  0
 16 42  1  0
 60 43  1  0
 60 44  1  0
 60 45  1  0
 19 46  1  0
 19 47  1  0
 19 48  1  0
 20 49  1  0
 20 50  1  0
 21 51  1  0
 21 52  1  0
 23 53  1  0
 23 54  1  0
 23 55  1  0
 24 56  1  0
 24 57  1  0
 24 58  1  0
 27 59  1  0
M  END
