
     RDKit          3D

 32 32  0  0  0  0  0  0  0  0999 V2000
    2.6100   -0.7377    0.1554 C   0  0  1  0  0  0  0  0  0  0  0  0
    1.3498   -1.4207   -0.3502 C   0  0  0  0  0  0  0  0  0  0  0  0
    0.0815   -0.7388    0.1884 C   0  0  2  0  0  0  0  0  0  0  0  0
   -1.1328   -1.4604   -0.3411 C   0  0  0  0  0  0  0  0  0  0  0  0
   -1.7779   -1.1122   -1.2996 O   0  0  0  0  0  0  0  0  0  0  0  0
   -1.3871   -2.5609    0.3512 O   0  0  0  0  0  0  0  0  0  0  0  0
   -2.4707   -3.3828   -0.0832 C   0  0  0  0  0  0  0  0  0  0  0  0
    0.0723    0.7322   -0.2127 C   0  0  1  0  0  0  0  0  0  0  0  0
   -1.1625    1.4280    0.3059 C   0  0  0  0  0  0  0  0  0  0  0  0
   -1.9048    0.9811    1.1458 O   0  0  0  0  0  0  0  0  0  0  0  0
   -1.3290    2.6131   -0.2609 O   0  0  0  0  0  0  0  0  0  0  0  0
   -2.4426    3.4015    0.1606 C   0  0  0  0  0  0  0  0  0  0  0  0
    1.3333    1.4299    0.3217 C   0  0  0  0  0  0  0  0  0  0  0  0
    2.6007    0.7599   -0.1841 C   0  0  2  0  0  0  0  0  0  0  0  0
    2.6692    0.9593   -1.5791 O   0  0  0  0  0  0  0  0  0  0  0  0
    2.6820   -0.9373    1.5500 O   0  0  0  0  0  0  0  0  0  0  0  0
    3.4759   -1.1998   -0.3432 H   0  0  0  0  0  0  0  0  0  0  0  0
    1.3507   -1.3881   -1.4419 H   0  0  0  0  0  0  0  0  0  0  0  0
    1.3696   -2.4743   -0.0647 H   0  0  0  0  0  0  0  0  0  0  0  0
    3.4613    1.2331    0.3131 H   0  0  0  0  0  0  0  0  0  0  0  0
    3.4834   -0.5191    1.8812 H   0  0  0  0  0  0  0  0  0  0  0  0
    0.0802   -0.8220    1.2785 H   0  0  0  0  0  0  0  0  0  0  0  0
    0.0681    0.8153   -1.3035 H   0  0  0  0  0  0  0  0  0  0  0  0
   -3.4153   -2.8400   -0.0642 H   0  0  0  0  0  0  0  0  0  0  0  0
   -2.2989   -3.7702   -1.0872 H   0  0  0  0  0  0  0  0  0  0  0  0
   -2.5177   -4.2103    0.6183 H   0  0  0  0  0  0  0  0  0  0  0  0
    1.3424    2.4823    0.0333 H   0  0  0  0  0  0  0  0  0  0  0  0
    1.3363    1.4006    1.4137 H   0  0  0  0  0  0  0  0  0  0  0  0
   -2.3929    4.3201   -0.4166 H   0  0  0  0  0  0  0  0  0  0  0  0
   -3.3864    2.8967   -0.0444 H   0  0  0  0  0  0  0  0  0  0  0  0
   -2.3840    3.6386    1.2225 H   0  0  0  0  0  0  0  0  0  0  0  0
    3.4797    0.5574   -1.9085 H   0  0  0  0  0  0  0  0  0  0  0  0
  1  2  1  0
  1 14  1  0
  1 16  1  0
  2  3  1  0
  3  4  1  0
  3  8  1  0
  4  5  2  0
  4  6  1  0
  6  7  1  0
  8  9  1  0
  8 13  1  0
  9 10  2  0
  9 11  1  0
 11 12  1  0
 13 14  1  0
 14 15  1  0
  1 17  1  6
  2 18  1  0
  2 19  1  0
 14 20  1  1
 16 21  1  0
  3 22  1  1
  8 23  1  6
  7 24  1  0
  7 25  1  0
  7 26  1  0
 13 27  1  0
 13 28  1  0
 12 29  1  0
 12 30  1  0
 12 31  1  0
 15 32  1  0
M  END
