
     RDKit          3D

 77 80  0  0  0  0  0  0  0  0999 V2000
   -1.9911   -4.1381    0.5197 C   0  0  0  0  0  0  0  0  0  0  0  0
   -3.2573   -3.3400    0.8050 C   0  0  1  0  0  0  0  0  0  0  0  0
   -4.2663   -3.4411   -0.3321 C   0  0  0  0  0  0  0  0  0  0  0  0
   -3.8876   -3.8324    2.1021 C   0  0  0  0  0  0  0  0  0  0  0  0
   -2.4125   -1.1240    0.1984 C   0  0  0  0  0  0  0  0  0  0  0  0
   -2.0900    1.2984   -0.1477 C   0  0  1  0  0  0  0  0  0  0  0  0
   -0.6004    1.3108   -0.4718 C   0  0  0  0  0  0  0  0  0  0  0  0
    2.0524    1.0672    0.3316 C   0  0  0  0  0  0  0  0  0  0  0  0
    2.7529   -0.2953    0.2266 C   0  0  2  0  0  0  0  0  0  0  0  0
    2.2790   -2.5661   -0.5726 C   0  0  0  0  0  0  0  0  0  0  0  0
    1.3423   -3.4618   -1.1082 C   0  0  0  0  0  0  0  0  0  0  0  0
    1.6333   -4.8076   -1.2276 C   0  0  0  0  0  0  0  0  0  0  0  0
    2.8697   -5.3060   -0.8270 C   0  0  0  0  0  0  0  0  0  0  0  0
    3.8001   -4.4265   -0.2962 C   0  0  0  0  0  0  0  0  0  0  0  0
    3.5161   -3.0721   -0.1614 C   0  0  0  0  0  0  0  0  0  0  0  0
    4.0630   -0.0287   -0.5266 C   0  0  0  0  0  0  0  0  0  0  0  0
    6.4088    0.6531   -0.2063 C   0  0  0  0  0  0  0  0  0  0  0  0
    6.6192    2.1405   -0.1032 C   0  0  0  0  0  0  0  0  0  0  0  0
    7.6341    2.6653    0.6868 C   0  0  0  0  0  0  0  0  0  0  0  0
    7.0921    4.8112    0.1676 C   0  0  0  0  0  0  0  0  0  0  0  0
    6.0457    4.3998   -0.6475 C   0  0  0  0  0  0  0  0  0  0  0  0
    5.8080    3.0433   -0.7840 C   0  0  0  0  0  0  0  0  0  0  0  0
   -2.8989    1.4804   -1.4458 C   0  0  0  0  0  0  0  0  0  0  0  0
   -4.3688    1.3661   -1.2406 C   0  0  0  0  0  0  0  0  0  0  0  0
   -5.1614    0.3105   -1.5921 C   0  0  0  0  0  0  0  0  0  0  0  0
   -6.5337    1.7626   -0.6088 C   0  0  0  0  0  0  0  0  0  0  0  0
   -5.2321    2.3134   -0.6002 C   0  0  0  0  0  0  0  0  0  0  0  0
   -5.0329    3.5763   -0.0300 C   0  0  0  0  0  0  0  0  0  0  0  0
   -6.1150    4.2497    0.5024 C   0  0  0  0  0  0  0  0  0  0  0  0
   -7.4017    3.6854    0.4786 C   0  0  0  0  0  0  0  0  0  0  0  0
   -7.6291    2.4395   -0.0744 C   0  0  0  0  0  0  0  0  0  0  0  0
   -2.4950    0.1498    0.6332 N   0  0  0  0  0  0  0  0  0  0  0  0
    1.9392   -1.2276   -0.4937 N   0  0  0  0  0  0  0  0  0  0  0  0
    5.1071    0.2440    0.2718 N   0  0  0  0  0  0  0  0  0  0  0  0
    7.8742    3.9649    0.8239 N   0  0  0  0  0  0  0  0  0  0  0  0
   -6.4547    0.5436   -1.2150 N   0  0  0  0  0  0  0  0  0  0  0  0
   -2.9692   -1.9459    1.0896 O   0  0  0  0  0  0  0  0  0  0  0  0
   -1.8809   -1.4620   -0.8415 O   0  0  0  0  0  0  0  0  0  0  0  0
    4.1108   -0.0157   -1.7445 O   0  0  0  0  0  0  0  0  0  0  0  0
    0.3755    0.9707    1.0262 S   0  0  0  0  0  0  0  0  0  0  0  0
   -1.2340   -3.9627    1.2857 H   0  0  0  0  0  0  0  0  0  0  0  0
   -2.2326   -5.2019    0.5354 H   0  0  0  0  0  0  0  0  0  0  0  0
   -1.5602   -3.9066   -0.4494 H   0  0  0  0  0  0  0  0  0  0  0  0
   -4.5310   -4.4863   -0.4943 H   0  0  0  0  0  0  0  0  0  0  0  0
   -5.1828   -2.9032   -0.0834 H   0  0  0  0  0  0  0  0  0  0  0  0
   -3.8756   -3.0499   -1.2699 H   0  0  0  0  0  0  0  0  0  0  0  0
   -3.1835   -3.7711    2.9335 H   0  0  0  0  0  0  0  0  0  0  0  0
   -4.7770   -3.2547    2.3585 H   0  0  0  0  0  0  0  0  0  0  0  0
   -4.1871   -4.8748    1.9954 H   0  0  0  0  0  0  0  0  0  0  0  0
   -2.2905    2.1537    0.5011 H   0  0  0  0  0  0  0  0  0  0  0  0
   -0.3639    0.5787   -1.2428 H   0  0  0  0  0  0  0  0  0  0  0  0
   -0.3348    2.2985   -0.8507 H   0  0  0  0  0  0  0  0  0  0  0  0
    2.6475    1.7258    0.9635 H   0  0  0  0  0  0  0  0  0  0  0  0
    1.9821    1.5310   -0.6537 H   0  0  0  0  0  0  0  0  0  0  0  0
    2.9794   -0.6476    1.2449 H   0  0  0  0  0  0  0  0  0  0  0  0
    0.3769   -3.0865   -1.4267 H   0  0  0  0  0  0  0  0  0  0  0  0
    0.8855   -5.4742   -1.6389 H   0  0  0  0  0  0  0  0  0  0  0  0
    3.0981   -6.3589   -0.9244 H   0  0  0  0  0  0  0  0  0  0  0  0
    4.7653   -4.7912    0.0319 H   0  0  0  0  0  0  0  0  0  0  0  0
    4.2695   -2.4317    0.2787 H   0  0  0  0  0  0  0  0  0  0  0  0
    6.5145    0.3256   -1.2402 H   0  0  0  0  0  0  0  0  0  0  0  0
    7.1711    0.1297    0.3716 H   0  0  0  0  0  0  0  0  0  0  0  0
    8.2860    1.9948    1.2390 H   0  0  0  0  0  0  0  0  0  0  0  0
    7.3041    5.8672    0.2930 H   0  0  0  0  0  0  0  0  0  0  0  0
    5.4364    5.1289   -1.1637 H   0  0  0  0  0  0  0  0  0  0  0  0
    5.0044    2.6915   -1.4194 H   0  0  0  0  0  0  0  0  0  0  0  0
   -2.6442    2.4629   -1.8537 H   0  0  0  0  0  0  0  0  0  0  0  0
   -2.5724    0.7464   -2.1840 H   0  0  0  0  0  0  0  0  0  0  0  0
   -4.8926   -0.6047   -2.0969 H   0  0  0  0  0  0  0  0  0  0  0  0
   -4.0455    4.0223   -0.0055 H   0  0  0  0  0  0  0  0  0  0  0  0
   -5.9730    5.2267    0.9463 H   0  0  0  0  0  0  0  0  0  0  0  0
   -8.2315    4.2376    0.9009 H   0  0  0  0  0  0  0  0  0  0  0  0
   -8.6222    2.0085   -0.0944 H   0  0  0  0  0  0  0  0  0  0  0  0
   -3.0672    0.3284    1.4416 H   0  0  0  0  0  0  0  0  0  0  0  0
    0.9484   -1.0800   -0.3526 H   0  0  0  0  0  0  0  0  0  0  0  0
    4.9722    0.2195    1.2706 H   0  0  0  0  0  0  0  0  0  0  0  0
   -7.2273   -0.0773   -1.3866 H   0  0  0  0  0  0  0  0  0  0  0  0
  3  2  1  0
 36 25  1  0
 36 26  1  0
  1  2  1  0
 20 21  2  0
 20 35  1  0
 25 24  2  0
 21 22  1  0
  2 37  1  1
  2  4  1  0
 26 31  2  0
 26 27  1  0
 38  5  2  0
 31 30  1  0
 37  5  1  0
 35 19  2  0
 24 27  1  0
 24 23  1  0
  5 32  1  0
 22 18  2  0
 27 28  2  0
 30 29  2  0
 23  6  1  0
 19 18  1  0
 32  6  1  0
 18 17  1  0
 28 29  1  0
  6  7  1  0
 17 34  1  0
  7 40  1  0
 34 16  1  0
 15 14  2  0
 15 10  1  0
 39 16  2  0
 33 10  1  0
 33  9  1  0
 16  9  1  0
 14 13  1  0
 10 11  2  0
  8  9  1  0
  8 40  1  0
 13 12  2  0
 11 12  1  0
  1 41  1  0
  1 42  1  0
  1 43  1  0
  3 44  1  0
  3 45  1  0
  3 46  1  0
  4 47  1  0
  4 48  1  0
  4 49  1  0
  6 50  1  1
  7 51  1  0
  7 52  1  0
  8 53  1  0
  8 54  1  0
  9 55  1  1
 11 56  1  0
 12 57  1  0
 13 58  1  0
 14 59  1  0
 15 60  1  0
 17 61  1  0
 17 62  1  0
 19 63  1  0
 20 64  1  0
 21 65  1  0
 22 66  1  0
 23 67  1  0
 23 68  1  0
 25 69  1  0
 28 70  1  0
 29 71  1  0
 30 72  1  0
 31 73  1  0
 32 74  1  0
 33 75  1  0
 34 76  1  0
 36 77  1  0
M  END
