
     RDKit          3D

 18 19  0  0  0  0  0  0  0  0999 V2000
    1.6941    0.9660    0.0066 N   0  0  0  0  0  0  0  0  0  0  0  0
   -0.7390    1.5754   -0.0704 C   0  0  0  0  0  0  0  0  0  0  0  0
   -2.0255    1.0445   -0.1008 C   0  0  0  0  0  0  0  0  0  0  0  0
   -2.2368   -0.3321   -0.0875 C   0  0  0  0  0  0  0  0  0  0  0  0
   -1.1466   -1.2070   -0.0472 C   0  0  0  0  0  0  0  0  0  0  0  0
    0.1250   -0.6776   -0.0184 C   0  0  0  0  0  0  0  0  0  0  0  0
    1.4661   -1.3410    0.0189 C   0  0  0  0  0  0  0  0  0  0  0  0
    2.4395   -0.1721    0.0395 C   0  0  0  0  0  0  0  0  0  0  0  0
    0.3270    0.6997   -0.0268 C   0  0  0  0  0  0  0  0  0  0  0  0
   -3.4728   -0.8796   -0.1104 O   0  0  0  0  0  0  0  0  0  0  0  0
    3.6524   -0.2257    0.0775 O   0  0  0  0  0  0  0  0  0  0  0  0
    2.0990    1.8889    0.0221 H   0  0  0  0  0  0  0  0  0  0  0  0
   -0.5916    2.6472   -0.0823 H   0  0  0  0  0  0  0  0  0  0  0  0
   -2.8724    1.7199   -0.1378 H   0  0  0  0  0  0  0  0  0  0  0  0
   -1.3071   -2.2785   -0.0446 H   0  0  0  0  0  0  0  0  0  0  0  0
    1.6158   -1.9671    0.9014 H   0  0  0  0  0  0  0  0  0  0  0  0
    1.6563   -1.9724   -0.8525 H   0  0  0  0  0  0  0  0  0  0  0  0
   -4.1389   -0.1840   -0.1419 H   0  0  0  0  0  0  0  0  0  0  0  0
  3  2  1  0
  3  4  2  0
 10  4  1  0
  2  9  2  0
  4  5  1  0
  9  1  1  0
  9  6  1  0
  5  6  2  0
  1  8  1  0
  6  7  1  0
  8  7  1  0
  8 11  2  0
  1 12  1  0
  2 13  1  0
  3 14  1  0
  5 15  1  0
  7 16  1  0
  7 17  1  0
 10 18  1  0
M  END
