
     RDKit          3D

 34 35  0  0  0  0  0  0  0  0999 V2000
   -4.7252    0.3277   -0.0009 C   0  0  0  0  0  0  0  0  0  0  0  0
   -3.7839    1.3621   -0.0101 C   0  0  0  0  0  0  0  0  0  0  0  0
   -2.4296    1.1011   -0.0171 C   0  0  0  0  0  0  0  0  0  0  0  0
   -1.9231   -0.2057   -0.0149 C   0  0  0  0  0  0  0  0  0  0  0  0
   -2.8750   -1.2331   -0.0065 C   0  0  0  0  0  0  0  0  0  0  0  0
   -4.2367   -0.9758    0.0004 C   0  0  0  0  0  0  0  0  0  0  0  0
   -0.4906   -0.4883   -0.0218 C   0  0  0  0  0  0  0  0  0  0  0  0
    0.4818    0.4349   -0.0129 C   0  0  0  0  0  0  0  0  0  0  0  0
    1.9149    0.1550   -0.0171 C   0  0  0  0  0  0  0  0  0  0  0  0
    2.8652    1.1846   -0.0114 C   0  0  0  0  0  0  0  0  0  0  0  0
    4.2275    0.9321   -0.0115 C   0  0  0  0  0  0  0  0  0  0  0  0
    4.7158   -0.3718   -0.0179 C   0  0  0  0  0  0  0  0  0  0  0  0
    3.7786   -1.4091   -0.0256 C   0  0  0  0  0  0  0  0  0  0  0  0
    2.4230   -1.1510   -0.0251 C   0  0  0  0  0  0  0  0  0  0  0  0
    7.0928    0.4227    0.0033 O   0  0  0  0  0  0  0  0  0  0  0  0
   -7.2263   -0.3295    0.0188 O   0  0  0  0  0  0  0  0  0  0  0  0
   -6.6463    1.9390   -0.0022 O   0  0  0  0  0  0  0  0  0  0  0  0
   -2.3844   -2.9000   -0.0035 Cl  0  0  0  0  0  0  0  0  0  0  0  0
    2.3693    2.8513   -0.0034 Cl  0  0  0  0  0  0  0  0  0  0  0  0
    6.2622   -0.6529   -0.0138 B   0  0  0  0  0  0  0  0  0  0  0  0
   -6.2682    0.6357    0.0061 B   0  0  0  0  0  0  0  0  0  0  0  0
   -4.1109    2.3936   -0.0120 H   0  0  0  0  0  0  0  0  0  0  0  0
   -1.7442    1.9380   -0.0252 H   0  0  0  0  0  0  0  0  0  0  0  0
   -4.9083   -1.8258    0.0072 H   0  0  0  0  0  0  0  0  0  0  0  0
   -0.2215   -1.5359   -0.0335 H   0  0  0  0  0  0  0  0  0  0  0  0
    0.2118    1.4824    0.0006 H   0  0  0  0  0  0  0  0  0  0  0  0
    4.9110    1.7711   -0.0060 H   0  0  0  0  0  0  0  0  0  0  0  0
    4.1084   -2.4399   -0.0318 H   0  0  0  0  0  0  0  0  0  0  0  0
    1.7387   -1.9890   -0.0299 H   0  0  0  0  0  0  0  0  0  0  0  0
    8.0355    0.2305    0.0042 H   0  0  0  0  0  0  0  0  0  0  0  0
   -6.9034   -1.2338    0.0247 H   0  0  0  0  0  0  0  0  0  0  0  0
   -7.6003    2.0703    0.0010 H   0  0  0  0  0  0  0  0  0  0  0  0
    6.6620   -1.9518   -0.0247 O   0  0  0  0  0  0  0  0  0  0  0  0
    7.6129   -2.1000   -0.0180 H   0  0  0  0  0  0  0  0  0  0  0  0
 16 21  1  0
 17 21  1  0
 21  1  1  0
  1  6  2  0
  1  2  1  0
  6  5  1  0
  2  3  2  0
  5 18  1  0
  5  4  2  0
  3  4  1  0
  4  7  1  0
  7  8  2  0
  8  9  1  0
  9 14  1  0
  9 10  2  0
 14 13  2  0
 19 10  1  0
 10 11  1  0
 13 12  1  0
 11 12  2  0
 12 20  1  0
 20 15  1  0
  2 22  1  0
  3 23  1  0
  6 24  1  0
  7 25  1  0
  8 26  1  0
 11 27  1  0
 13 28  1  0
 14 29  1  0
 15 30  1  0
 16 31  1  0
 17 32  1  0
 20 33  1  0
 33 34  1  0
M  END
