
     RDKit          3D

 52 54  0  0  0  0  0  0  0  0999 V2000
   -2.5121   -0.0501   -0.7964 C   0  0  1  0  0  0  0  0  0  0  0  0
   -5.6326    0.1674    1.2861 C   0  0  0  0  0  0  0  0  0  0  0  0
    0.3734   -2.6270   -0.3615 C   0  0  0  0  0  0  0  0  0  0  0  0
    2.9964   -3.7864    1.1221 C   0  0  0  0  0  0  0  0  0  0  0  0
   -4.6141   -0.4730    0.4201 C   0  0  0  0  0  0  0  0  0  0  0  0
   -6.7404   -0.4711    1.6577 C   0  0  0  0  0  0  0  0  0  0  0  0
   -7.8086    0.1085    2.5153 C   0  0  0  0  0  0  0  0  0  0  0  0
   -1.6232   -0.0523   -3.1395 C   0  0  0  0  0  0  0  0  0  0  0  0
   -2.8241    0.2650   -2.2571 C   0  0  0  0  0  0  0  0  0  0  0  0
    1.1433    0.5611   -0.7322 C   0  0  0  0  0  0  0  0  0  0  0  0
   -0.1427    0.3165   -1.2537 N   0  0  0  0  0  0  0  0  0  0  0  0
    1.7528    1.8078   -0.7367 C   0  0  0  0  0  0  0  0  0  0  0  0
    3.0145    2.0582   -0.2177 C   0  0  0  0  0  0  0  0  0  0  0  0
    3.7500    1.0398    0.3763 C   0  0  0  0  0  0  0  0  0  0  0  0
    3.1621   -0.2308    0.3907 C   0  0  0  0  0  0  0  0  0  0  0  0
    1.8745   -0.4826   -0.1462 C   0  0  0  0  0  0  0  0  0  0  0  0
    5.1010    1.2406    0.9648 C   0  0  0  0  0  0  0  0  0  0  0  0
    5.8030    0.2786    1.2652 O   0  0  0  0  0  0  0  0  0  0  0  0
    5.5118    2.5037    1.1465 N   0  0  0  0  0  0  0  0  0  0  0  0
    1.0894    2.8548   -1.2694 F   0  0  0  0  0  0  0  0  0  0  0  0
    3.6247   -1.4098    0.8800 N   0  0  0  0  0  0  0  0  0  0  0  0
    2.6984   -2.3994    0.6787 C   0  0  0  0  0  0  0  0  0  0  0  0
    1.5979   -1.8775    0.0473 C   0  0  0  0  0  0  0  0  0  0  0  0
   -0.3893    0.6821   -2.6399 C   0  0  0  0  0  0  0  0  0  0  0  0
   -1.2297    0.6504   -0.3535 C   0  0  0  0  0  0  0  0  0  0  0  0
   -3.5887    0.3350    0.0885 N   0  0  0  0  0  0  0  0  0  0  0  0
   -4.6929   -1.6375    0.0441 O   0  0  0  0  0  0  0  0  0  0  0  0
   -2.3606   -1.1265   -0.6918 H   0  0  0  0  0  0  0  0  0  0  0  0
   -5.4558    1.1880    1.6116 H   0  0  0  0  0  0  0  0  0  0  0  0
    0.1907   -2.5536   -1.4335 H   0  0  0  0  0  0  0  0  0  0  0  0
    0.4616   -3.6852   -0.1163 H   0  0  0  0  0  0  0  0  0  0  0  0
   -0.5224   -2.2541    0.1370 H   0  0  0  0  0  0  0  0  0  0  0  0
    3.2631   -3.8142    2.1800 H   0  0  0  0  0  0  0  0  0  0  0  0
    2.1403   -4.4405    0.9796 H   0  0  0  0  0  0  0  0  0  0  0  0
    3.8346   -4.2085    0.5642 H   0  0  0  0  0  0  0  0  0  0  0  0
   -6.8943   -1.4898    1.3148 H   0  0  0  0  0  0  0  0  0  0  0  0
   -8.7591    0.1322    1.9777 H   0  0  0  0  0  0  0  0  0  0  0  0
   -7.9714   -0.5120    3.3987 H   0  0  0  0  0  0  0  0  0  0  0  0
   -7.5731    1.1203    2.8422 H   0  0  0  0  0  0  0  0  0  0  0  0
   -1.4310   -1.1289   -3.1351 H   0  0  0  0  0  0  0  0  0  0  0  0
   -1.8255    0.2363   -4.1729 H   0  0  0  0  0  0  0  0  0  0  0  0
   -3.7027   -0.2992   -2.5772 H   0  0  0  0  0  0  0  0  0  0  0  0
   -3.0755    1.3278   -2.3468 H   0  0  0  0  0  0  0  0  0  0  0  0
    3.3959    3.0681   -0.2976 H   0  0  0  0  0  0  0  0  0  0  0  0
    4.9125    3.3006    1.0278 H   0  0  0  0  0  0  0  0  0  0  0  0
    6.4076    2.6724    1.5741 H   0  0  0  0  0  0  0  0  0  0  0  0
    4.5333   -1.5280    1.2965 H   0  0  0  0  0  0  0  0  0  0  0  0
    0.4837    0.4033   -3.2324 H   0  0  0  0  0  0  0  0  0  0  0  0
   -0.5454    1.7619   -2.7735 H   0  0  0  0  0  0  0  0  0  0  0  0
   -1.4065    1.7387   -0.3068 H   0  0  0  0  0  0  0  0  0  0  0  0
   -0.9696    0.3226    0.6549 H   0  0  0  0  0  0  0  0  0  0  0  0
   -3.6330    1.3021    0.3711 H   0  0  0  0  0  0  0  0  0  0  0  0
 20 12  1  0
 24  8  1  0
 24 11  1  0
  9  8  1  0
  9  1  1  0
 12 13  2  0
 12 10  1  0
 13 14  1  0
 25 11  1  0
 25  1  1  0
 11 10  1  0
 19 17  1  0
 26  1  1  0
 26  5  1  0
 10 16  2  0
 14 17  1  0
 14 15  2  0
  2  5  1  0
  2  6  2  0
  5 27  2  0
 17 18  2  0
  7  6  1  0
 16 15  1  0
 16 23  1  0
 15 21  1  0
 23  3  1  0
 23 22  2  0
 21 22  1  0
 22  4  1  0
  1 28  1  6
  2 29  1  0
  3 30  1  0
  3 31  1  0
  3 32  1  0
  4 33  1  0
  4 34  1  0
  4 35  1  0
  6 36  1  0
  7 37  1  0
  7 38  1  0
  7 39  1  0
  8 40  1  0
  8 41  1  0
  9 42  1  0
  9 43  1  0
 13 44  1  0
 19 45  1  0
 19 46  1  0
 21 47  1  0
 24 48  1  0
 24 49  1  0
 25 50  1  0
 25 51  1  0
 26 52  1  0
M  END
