
     RDKit          3D

 47 50  0  0  0  0  0  0  0  0999 V2000
    4.3316    1.1206   -0.3613 C   0  0  0  0  0  0  0  0  0  0  0  0
    5.7141    1.1189   -0.2991 C   0  0  0  0  0  0  0  0  0  0  0  0
    6.3870    0.0303    0.2431 C   0  0  0  0  0  0  0  0  0  0  0  0
    5.6780   -1.0629    0.7265 C   0  0  0  0  0  0  0  0  0  0  0  0
    4.2953   -1.0739    0.6713 C   0  0  0  0  0  0  0  0  0  0  0  0
    3.6179    0.0209    0.1253 C   0  0  0  0  0  0  0  0  0  0  0  0
    2.2026    0.0166    0.0659 C   0  0  0  0  0  0  0  0  0  0  0  0
    0.9948    0.0185    0.0135 C   0  0  0  0  0  0  0  0  0  0  0  0
   -0.7258    0.0126   -0.0472 P   0  0  1  0  0  0  0  0  0  0  0  0
   -1.2452    0.1170   -1.7567 C   0  0  0  0  0  0  0  0  0  0  0  0
   -2.3758    0.8574   -2.0914 C   0  0  0  0  0  0  0  0  0  0  0  0
   -2.8045    0.8808   -3.4102 C   0  0  0  0  0  0  0  0  0  0  0  0
   -2.1082    0.1732   -4.3804 C   0  0  0  0  0  0  0  0  0  0  0  0
   -0.9792   -0.5630   -4.0409 C   0  0  0  0  0  0  0  0  0  0  0  0
   -0.5422   -0.5957   -2.7273 C   0  0  0  0  0  0  0  0  0  0  0  0
   -1.3116   -1.5119    0.6867 C   0  0  0  0  0  0  0  0  0  0  0  0
   -0.8499   -1.8687    1.9543 C   0  0  0  0  0  0  0  0  0  0  0  0
   -1.3140   -3.0325    2.5416 C   0  0  0  0  0  0  0  0  0  0  0  0
   -2.2329   -3.8324    1.8703 C   0  0  0  0  0  0  0  0  0  0  0  0
   -2.6903   -3.4723    0.6111 C   0  0  0  0  0  0  0  0  0  0  0  0
   -2.2307   -2.3084    0.0111 C   0  0  0  0  0  0  0  0  0  0  0  0
   -1.3440    1.4155    0.8767 C   0  0  0  0  0  0  0  0  0  0  0  0
   -2.4921    1.2829    1.6536 C   0  0  0  0  0  0  0  0  0  0  0  0
   -2.9872    2.3908    2.3256 C   0  0  0  0  0  0  0  0  0  0  0  0
   -2.3400    3.6140    2.2208 C   0  0  0  0  0  0  0  0  0  0  0  0
   -1.1959    3.7415    1.4411 C   0  0  0  0  0  0  0  0  0  0  0  0
   -0.6931    2.6435    0.7642 C   0  0  0  0  0  0  0  0  0  0  0  0
    3.8032    1.9643   -0.7838 H   0  0  0  0  0  0  0  0  0  0  0  0
    6.2672    1.9684   -0.6754 H   0  0  0  0  0  0  0  0  0  0  0  0
    7.4679    0.0342    0.2885 H   0  0  0  0  0  0  0  0  0  0  0  0
    6.2034   -1.9088    1.1482 H   0  0  0  0  0  0  0  0  0  0  0  0
    3.7384   -1.9215    1.0472 H   0  0  0  0  0  0  0  0  0  0  0  0
   -2.9198    1.4181   -1.3419 H   0  0  0  0  0  0  0  0  0  0  0  0
   -3.6811    1.4546   -3.6774 H   0  0  0  0  0  0  0  0  0  0  0  0
   -2.4445    0.1975   -5.4083 H   0  0  0  0  0  0  0  0  0  0  0  0
   -0.4376   -1.1113   -4.7992 H   0  0  0  0  0  0  0  0  0  0  0  0
    0.3403   -1.1668   -2.4669 H   0  0  0  0  0  0  0  0  0  0  0  0
   -0.1356   -1.2477    2.4809 H   0  0  0  0  0  0  0  0  0  0  0  0
   -0.9578   -3.3158    3.5224 H   0  0  0  0  0  0  0  0  0  0  0  0
   -2.5926   -4.7418    2.3331 H   0  0  0  0  0  0  0  0  0  0  0  0
   -3.4032   -4.0963    0.0902 H   0  0  0  0  0  0  0  0  0  0  0  0
   -2.5887   -2.0366   -0.9729 H   0  0  0  0  0  0  0  0  0  0  0  0
   -2.9978    0.3299    1.7435 H   0  0  0  0  0  0  0  0  0  0  0  0
   -3.8761    2.2946    2.9337 H   0  0  0  0  0  0  0  0  0  0  0  0
   -2.7261    4.4735    2.7523 H   0  0  0  0  0  0  0  0  0  0  0  0
   -0.6941    4.6960    1.3615 H   0  0  0  0  0  0  0  0  0  0  0  0
    0.1991    2.7458    0.1592 H   0  0  0  0  0  0  0  0  0  0  0  0
 13 14  2  0
 13 12  1  0
 14 15  1  0
 12 11  2  0
 15 10  2  0
 11 10  1  0
 10  9  1  0
 17 18  2  0
 17 16  1  0
 23 24  2  0
 23 22  1  0
 18 19  1  0
 24 25  1  0
  9 16  1  0
  9 22  1  0
  9  8  1  6
 16 21  2  0
 19 20  2  0
 22 27  2  0
 21 20  1  0
  8  7  3  0
 25 26  2  0
  7  6  1  0
 27 26  1  0
  1  6  2  0
  1  2  1  0
  6  5  1  0
  2  3  2  0
  5  4  2  0
  3  4  1  0
  1 28  1  0
  2 29  1  0
  3 30  1  0
  4 31  1  0
  5 32  1  0
 11 33  1  0
 12 34  1  0
 13 35  1  0
 14 36  1  0
 15 37  1  0
 17 38  1  0
 18 39  1  0
 19 40  1  0
 20 41  1  0
 21 42  1  0
 23 43  1  0
 24 44  1  0
 25 45  1  0
 26 46  1  0
 27 47  1  0
M  CHG  1   9   1
M  END
