
     RDKit          3D

 33 33  0  0  0  0  0  0  0  0999 V2000
   -4.3744    0.5311   -0.3189 C   0  0  0  0  0  0  0  0  0  0  0  0
   -5.6592    0.0867    0.2030 N   0  0  0  0  0  0  0  0  0  0  0  0
   -3.2396   -0.3201    0.2287 C   0  0  0  0  0  0  0  0  0  0  0  0
   -0.8173   -0.7058    0.2394 N   0  0  0  0  0  0  0  0  0  0  0  0
   -1.8792    0.1432   -0.2682 C   0  0  0  0  0  0  0  0  0  0  0  0
    4.7457    0.4785   -0.2458 N   0  0  0  0  0  0  0  0  0  0  0  0
    0.5202   -0.3468   -0.2075 C   0  0  2  0  0  0  0  0  0  0  0  0
    1.4997   -1.4545    0.1710 C   0  0  0  0  0  0  0  0  0  0  0  0
    2.9201   -1.1429   -0.2868 C   0  0  0  0  0  0  0  0  0  0  0  0
    3.4104    0.1912    0.2618 C   0  0  2  0  0  0  0  0  0  0  0  0
    2.4471    1.2994   -0.1451 C   0  0  0  0  0  0  0  0  0  0  0  0
    1.0246    1.0016    0.3164 C   0  0  0  0  0  0  0  0  0  0  0  0
   -4.3229    0.5284   -1.4177 H   0  0  0  0  0  0  0  0  0  0  0  0
   -4.2236    1.5697   -0.0114 H   0  0  0  0  0  0  0  0  0  0  0  0
   -6.3913    0.6881   -0.1526 H   0  0  0  0  0  0  0  0  0  0  0  0
   -5.8658   -0.8346   -0.1635 H   0  0  0  0  0  0  0  0  0  0  0  0
   -3.2655   -0.2831    1.3228 H   0  0  0  0  0  0  0  0  0  0  0  0
   -3.3889   -1.3668   -0.0555 H   0  0  0  0  0  0  0  0  0  0  0  0
   -0.8380   -0.6917    1.2541 H   0  0  0  0  0  0  0  0  0  0  0  0
   -1.8538    0.0936   -1.3621 H   0  0  0  0  0  0  0  0  0  0  0  0
   -1.7536    1.2060   -0.0108 H   0  0  0  0  0  0  0  0  0  0  0  0
    5.3851   -0.2430    0.0663 H   0  0  0  0  0  0  0  0  0  0  0  0
    0.4831   -0.2921   -1.3038 H   0  0  0  0  0  0  0  0  0  0  0  0
    1.4851   -1.5864    1.2599 H   0  0  0  0  0  0  0  0  0  0  0  0
    1.1615   -2.3995   -0.2605 H   0  0  0  0  0  0  0  0  0  0  0  0
    3.5966   -1.9461    0.0215 H   0  0  0  0  0  0  0  0  0  0  0  0
    2.9575   -1.1045   -1.3815 H   0  0  0  0  0  0  0  0  0  0  0  0
    3.3892    0.1237    1.3630 H   0  0  0  0  0  0  0  0  0  0  0  0
    2.7812    2.2564    0.2672 H   0  0  0  0  0  0  0  0  0  0  0  0
    2.4719    1.4039   -1.2358 H   0  0  0  0  0  0  0  0  0  0  0  0
    0.3592    1.8085   -0.0004 H   0  0  0  0  0  0  0  0  0  0  0  0
    0.9909    0.9824    1.4131 H   0  0  0  0  0  0  0  0  0  0  0  0
    5.0850    1.3368    0.1723 H   0  0  0  0  0  0  0  0  0  0  0  0
  1  2  1  0
  1  3  1  0
  3  5  1  0
  4  5  1  0
  4  7  1  0
  6 10  1  0
  7  8  1  0
  7 12  1  0
  8  9  1  0
  9 10  1  0
 10 11  1  0
 11 12  1  0
  1 13  1  0
  1 14  1  0
  2 15  1  0
  2 16  1  0
  3 17  1  0
  3 18  1  0
  4 19  1  0
  5 20  1  0
  5 21  1  0
  6 33  1  0
  6 22  1  0
  7 23  1  6
  8 24  1  0
  8 25  1  0
  9 26  1  0
  9 27  1  0
 10 28  1  1
 11 29  1  0
 11 30  1  0
 12 31  1  0
 12 32  1  0
M  END
