
     RDKit          3D

 28 30  0  0  0  0  0  0  0  0999 V2000
    2.7009   -0.0246   -0.1100 N   0  0  0  0  0  0  0  0  0  0  0  0
    1.2452   -0.0084   -0.0272 C   0  0  1  0  0  0  0  0  0  0  0  0
    0.6931   -1.2714   -0.6946 C   0  0  0  0  0  0  0  0  0  0  0  0
   -0.8376   -1.2620   -0.6769 C   0  0  1  0  0  0  0  0  0  0  0  0
    0.7224    0.0451    1.4178 C   0  0  0  0  0  0  0  0  0  0  0  0
   -0.8080    0.0580    1.4444 C   0  0  2  0  0  0  0  0  0  0  0  0
   -1.3319   -1.2118    0.7706 C   0  0  0  0  0  0  0  0  0  0  0  0
   -1.3108    1.2882    0.6866 C   0  0  0  0  0  0  0  0  0  0  0  0
    0.7154    1.2156   -0.7801 C   0  0  0  0  0  0  0  0  0  0  0  0
   -0.8152    1.2350   -0.7606 C   0  0  1  0  0  0  0  0  0  0  0  0
   -1.3473   -0.0327   -1.4321 C   0  0  0  0  0  0  0  0  0  0  0  0
    3.0700    0.7978    0.3562 H   0  0  0  0  0  0  0  0  0  0  0  0
    3.0549   -0.8136    0.4215 H   0  0  0  0  0  0  0  0  0  0  0  0
    1.0608   -1.3339   -1.7243 H   0  0  0  0  0  0  0  0  0  0  0  0
    1.0685   -2.1572   -0.1684 H   0  0  0  0  0  0  0  0  0  0  0  0
   -1.2097   -2.1706   -1.1600 H   0  0  0  0  0  0  0  0  0  0  0  0
    1.1035   -0.8202    1.9735 H   0  0  0  0  0  0  0  0  0  0  0  0
    1.1167    0.9402    1.9138 H   0  0  0  0  0  0  0  0  0  0  0  0
   -1.1551    0.0960    2.4815 H   0  0  0  0  0  0  0  0  0  0  0  0
   -2.4263   -1.2336    0.7993 H   0  0  0  0  0  0  0  0  0  0  0  0
   -0.9846   -2.0961    1.3157 H   0  0  0  0  0  0  0  0  0  0  0  0
   -2.4048    1.3287    0.7108 H   0  0  0  0  0  0  0  0  0  0  0  0
   -0.9524    2.2018    1.1734 H   0  0  0  0  0  0  0  0  0  0  0  0
    1.1093    2.1291   -0.3189 H   0  0  0  0  0  0  0  0  0  0  0  0
    1.0812    1.1966   -1.8121 H   0  0  0  0  0  0  0  0  0  0  0  0
   -1.1727    2.1161   -1.3020 H   0  0  0  0  0  0  0  0  0  0  0  0
   -1.0252   -0.0715   -2.4775 H   0  0  0  0  0  0  0  0  0  0  0  0
   -2.4421   -0.0233   -1.4391 H   0  0  0  0  0  0  0  0  0  0  0  0
  2  1  1  1
  2  3  1  0
  2  5  1  0
  2  9  1  0
  3  4  1  0
  4  7  1  0
  4 11  1  0
  5  6  1  0
  6  7  1  0
  6  8  1  0
  8 10  1  0
  9 10  1  0
 10 11  1  0
  1 12  1  0
  1 13  1  0
  3 14  1  0
  3 15  1  0
  4 16  1  6
  5 17  1  0
  5 18  1  0
  6 19  1  1
  7 20  1  0
  7 21  1  0
  8 22  1  0
  8 23  1  0
  9 24  1  0
  9 25  1  0
 10 26  1  6
 11 27  1  0
 11 28  1  0
M  END
