
     RDKit          3D

 56 59  0  0  0  0  0  0  0  0999 V2000
    3.8077   -2.4515    2.8544 C   0  0  0  0  0  0  0  0  0  0  0  0
   -1.5803   -2.8790   -4.8977 C   0  0  0  0  0  0  0  0  0  0  0  0
    4.4782   -2.1677    4.0431 C   0  0  0  0  0  0  0  0  0  0  0  0
    2.4274   -2.6127    2.8972 C   0  0  0  0  0  0  0  0  0  0  0  0
    1.7274   -2.4830    4.0863 C   0  0  0  0  0  0  0  0  0  0  0  0
    2.4276   -2.1827    5.2374 C   0  0  0  0  0  0  0  0  0  0  0  0
    1.9142   -2.6050   -1.4489 C   0  0  1  0  0  0  0  0  0  0  0  0
    0.7032   -0.7605   -0.2366 C   0  0  0  0  0  0  0  0  0  0  0  0
    2.2673   -1.6099   -2.5617 C   0  0  1  0  0  0  0  0  0  0  0  0
    1.1647   -1.6585   -3.6252 C   0  0  0  0  0  0  0  0  0  0  0  0
   -0.1629   -1.2537   -2.9804 C   0  0  1  0  0  0  0  0  0  0  0  0
   -0.5184   -2.2247   -1.8515 C   0  0  0  0  0  0  0  0  0  0  0  0
    5.9127   -3.6489    0.1845 C   0  0  0  0  0  0  0  0  0  0  0  0
    4.6214   -3.7588    0.9897 C   0  0  1  0  0  0  0  0  0  0  0  0
    4.6721   -4.9575    1.9244 C   0  0  0  0  0  0  0  0  0  0  0  0
    4.5279   -2.5150    1.7093 O   0  0  0  0  0  0  0  0  0  0  0  0
    3.4553   -3.8792   -0.0096 C   0  0  0  0  0  0  0  0  0  0  0  0
    3.0595   -4.9751   -0.3750 O   0  0  0  0  0  0  0  0  0  0  0  0
    2.9814   -2.7138   -0.4770 N   0  0  0  0  0  0  0  0  0  0  0  0
    0.5906   -2.1787   -0.7969 C   0  0  1  0  0  0  0  0  0  0  0  0
    1.0444    0.2105   -1.3684 C   0  0  1  0  0  0  0  0  0  0  0  0
    2.3750   -0.1882   -2.0073 C   0  0  0  0  0  0  0  0  0  0  0  0
   -0.0619    0.1738   -2.4256 C   0  0  0  0  0  0  0  0  0  0  0  0
   -1.4862   -1.2312   -4.2253 S   0  0  1  0  0  0  0  0  0  0  0  0
   -1.0882   -0.3249   -5.3068 O   0  0  0  0  0  0  0  0  0  0  0  0
   -2.7536   -0.9550   -3.5416 O   0  0  0  0  0  0  0  0  0  0  0  0
    3.7983   -2.0193    5.2416 C   0  0  0  0  0  0  0  0  0  0  0  0
    6.1932   -1.9971    4.0172 Cl  0  0  0  0  0  0  0  0  0  0  0  0
    1.7613   -2.0435    6.3915 F   0  0  0  0  0  0  0  0  0  0  0  0
   -0.6540   -3.1364   -5.4042 H   0  0  0  0  0  0  0  0  0  0  0  0
   -1.7962   -3.5957   -4.1094 H   0  0  0  0  0  0  0  0  0  0  0  0
   -2.3993   -2.8670   -5.6157 H   0  0  0  0  0  0  0  0  0  0  0  0
    1.8802   -2.8397    1.9925 H   0  0  0  0  0  0  0  0  0  0  0  0
    0.6533   -2.6071    4.1090 H   0  0  0  0  0  0  0  0  0  0  0  0
    1.7913   -3.5969   -1.8894 H   0  0  0  0  0  0  0  0  0  0  0  0
    1.4616   -0.7077    0.5514 H   0  0  0  0  0  0  0  0  0  0  0  0
   -0.2414   -0.4751    0.2345 H   0  0  0  0  0  0  0  0  0  0  0  0
    3.2121   -1.9099   -3.0217 H   0  0  0  0  0  0  0  0  0  0  0  0
    1.4162   -0.9840   -4.4466 H   0  0  0  0  0  0  0  0  0  0  0  0
    1.1050   -2.6701   -4.0365 H   0  0  0  0  0  0  0  0  0  0  0  0
   -0.6220   -3.2455   -2.2306 H   0  0  0  0  0  0  0  0  0  0  0  0
   -1.4716   -1.9470   -1.3978 H   0  0  0  0  0  0  0  0  0  0  0  0
    6.0221   -4.5100   -0.4738 H   0  0  0  0  0  0  0  0  0  0  0  0
    6.7715   -3.6200    0.8555 H   0  0  0  0  0  0  0  0  0  0  0  0
    5.9233   -2.7491   -0.4314 H   0  0  0  0  0  0  0  0  0  0  0  0
    3.7413   -5.1137    2.4690 H   0  0  0  0  0  0  0  0  0  0  0  0
    5.4789   -4.8260    2.6463 H   0  0  0  0  0  0  0  0  0  0  0  0
    4.8782   -5.8626    1.3574 H   0  0  0  0  0  0  0  0  0  0  0  0
    3.3720   -1.8645   -0.0996 H   0  0  0  0  0  0  0  0  0  0  0  0
    0.3383   -2.8854   -0.0005 H   0  0  0  0  0  0  0  0  0  0  0  0
    1.1123    1.2272   -0.9740 H   0  0  0  0  0  0  0  0  0  0  0  0
    2.6310    0.5008   -2.8173 H   0  0  0  0  0  0  0  0  0  0  0  0
    3.1873   -0.1036   -1.2778 H   0  0  0  0  0  0  0  0  0  0  0  0
   -1.0128    0.4751   -1.9799 H   0  0  0  0  0  0  0  0  0  0  0  0
    0.1650    0.8800   -3.2280 H   0  0  0  0  0  0  0  0  0  0  0  0
    4.3266   -1.7890    6.1570 H   0  0  0  0  0  0  0  0  0  0  0  0
  1 16  1  0
  1  3  2  0
  1  4  1  0
 24  2  1  6
  2 30  1  0
  2 31  1  0
  2 32  1  0
  3 28  1  0
  3 27  1  0
  4  5  2  0
  4 33  1  0
  5  6  1  0
  5 34  1  0
  6 27  2  0
  6 29  1  0
  7  9  1  0
  7 19  1  0
  7 20  1  0
  7 35  1  6
  8 21  1  0
  8 20  1  0
  8 36  1  0
  8 37  1  0
  9 22  1  0
  9 10  1  0
  9 38  1  6
 11 10  1  6
 10 39  1  0
 10 40  1  0
 11 23  1  0
 11 24  1  0
 11 12  1  0
 12 20  1  0
 12 41  1  0
 12 42  1  0
 13 14  1  0
 13 43  1  0
 13 44  1  0
 13 45  1  0
 14 16  1  1
 14 17  1  0
 14 15  1  0
 15 46  1  0
 15 47  1  0
 15 48  1  0
 17 19  1  0
 17 18  2  0
 19 49  1  0
 20 50  1  1
 21 22  1  0
 21 23  1  0
 21 51  1  1
 22 52  1  0
 22 53  1  0
 23 54  1  0
 23 55  1  0
 24 26  2  0
 24 25  2  0
 27 56  1  0
M  END
