
     RDKit          3D

 42 43  0  0  0  0  0  0  0  0999 V2000
   -2.4629   -3.2154   -0.5690 O   0  0  0  0  0  0  0  0  0  0  0  0
   -1.9284   -2.1294   -0.0290 C   0  0  0  0  0  0  0  0  0  0  0  0
   -1.3127   -2.1353    1.0078 O   0  0  0  0  0  0  0  0  0  0  0  0
   -2.1616   -0.9055   -0.8709 C   0  0  0  0  0  0  0  0  0  0  0  0
   -1.8672    0.3995   -0.1349 C   0  0  1  0  0  0  0  0  0  0  0  0
   -2.8663    0.7078    0.9901 C   0  0  0  0  0  0  0  0  0  0  0  0
   -4.2861    0.7331    0.4957 C   0  0  0  0  0  0  0  0  0  0  0  0
   -4.7453    1.7905   -0.2885 C   0  0  0  0  0  0  0  0  0  0  0  0
   -6.0471    1.8079   -0.7678 C   0  0  0  0  0  0  0  0  0  0  0  0
   -6.9151    0.7644   -0.4684 C   0  0  0  0  0  0  0  0  0  0  0  0
   -6.4708   -0.2919    0.3143 C   0  0  0  0  0  0  0  0  0  0  0  0
   -5.1652   -0.3056    0.7901 C   0  0  0  0  0  0  0  0  0  0  0  0
   -0.4385    0.4842    0.3751 C   0  0  0  0  0  0  0  0  0  0  0  0
   -0.1317    0.9088    1.4574 O   0  0  0  0  0  0  0  0  0  0  0  0
    0.7737   -0.0046   -0.8295 S   0  0  0  0  0  0  0  0  0  0  0  0
    2.2797    0.3205    0.1127 C   0  0  0  0  0  0  0  0  0  0  0  0
    3.4738   -0.0483   -0.7343 C   0  0  0  0  0  0  0  0  0  0  0  0
    3.3254   -0.4923   -1.8513 O   0  0  0  0  0  0  0  0  0  0  0  0
    4.8220    0.1480   -0.1452 C   0  0  0  0  0  0  0  0  0  0  0  0
    4.9991    0.6846    1.1305 C   0  0  0  0  0  0  0  0  0  0  0  0
    6.2743    0.8562    1.6469 C   0  0  0  0  0  0  0  0  0  0  0  0
    7.3823    0.4903    0.8950 C   0  0  0  0  0  0  0  0  0  0  0  0
    7.2148   -0.0462   -0.3767 C   0  0  0  0  0  0  0  0  0  0  0  0
    5.9427   -0.2162   -0.8949 C   0  0  0  0  0  0  0  0  0  0  0  0
   -2.2750   -3.9886   -0.0155 H   0  0  0  0  0  0  0  0  0  0  0  0
   -1.5498   -0.9982   -1.7738 H   0  0  0  0  0  0  0  0  0  0  0  0
   -3.1903   -0.8969   -1.2369 H   0  0  0  0  0  0  0  0  0  0  0  0
   -1.9468    1.1960   -0.8859 H   0  0  0  0  0  0  0  0  0  0  0  0
   -2.7677   -0.0254    1.7921 H   0  0  0  0  0  0  0  0  0  0  0  0
   -2.6144    1.6785    1.4201 H   0  0  0  0  0  0  0  0  0  0  0  0
   -4.0774    2.6119   -0.5235 H   0  0  0  0  0  0  0  0  0  0  0  0
   -6.3868    2.6395   -1.3721 H   0  0  0  0  0  0  0  0  0  0  0  0
   -7.9312    0.7770   -0.8410 H   0  0  0  0  0  0  0  0  0  0  0  0
   -7.1408   -1.1065    0.5579 H   0  0  0  0  0  0  0  0  0  0  0  0
   -4.8285   -1.1332    1.4046 H   0  0  0  0  0  0  0  0  0  0  0  0
    2.3278    1.3732    0.3974 H   0  0  0  0  0  0  0  0  0  0  0  0
    2.2812   -0.2682    1.0325 H   0  0  0  0  0  0  0  0  0  0  0  0
    4.1494    0.9756    1.7345 H   0  0  0  0  0  0  0  0  0  0  0  0
    6.4025    1.2758    2.6356 H   0  0  0  0  0  0  0  0  0  0  0  0
    8.3772    0.6234    1.2991 H   0  0  0  0  0  0  0  0  0  0  0  0
    8.0786   -0.3302   -0.9629 H   0  0  0  0  0  0  0  0  0  0  0  0
    5.8175   -0.6339   -1.8850 H   0  0  0  0  0  0  0  0  0  0  0  0
  3  2  2  0
  2  1  1  0
  2  4  1  0
  4  5  1  0
  5  6  1  0
  5 13  1  0
  6  7  1  0
 13 14  2  0
 13 15  1  0
  8  7  2  0
  8  9  1  0
  7 12  1  0
 15 16  1  0
 16 17  1  0
  9 10  2  0
 12 11  2  0
 17 18  2  0
 17 19  1  0
 10 11  1  0
 19 24  1  0
 19 20  2  0
 24 23  2  0
 20 21  1  0
 23 22  1  0
 21 22  2  0
  1 25  1  0
  4 26  1  0
  4 27  1  0
  5 28  1  6
  6 29  1  0
  6 30  1  0
  8 31  1  0
  9 32  1  0
 10 33  1  0
 11 34  1  0
 12 35  1  0
 16 36  1  0
 16 37  1  0
 20 38  1  0
 21 39  1  0
 22 40  1  0
 23 41  1  0
 24 42  1  0
M  END
