
     RDKit          3D

 64 67  0  0  0  0  0  0  0  0999 V2000
    4.7244   -1.4792   -1.1008 F   0  0  0  0  0  0  0  0  0  0  0  0
    4.9850   -0.6419   -0.0882 C   0  0  0  0  0  0  0  0  0  0  0  0
    5.7410   -1.1129    0.9842 C   0  0  0  0  0  0  0  0  0  0  0  0
    6.1666   -2.3873    0.9102 O   0  0  0  0  0  0  0  0  0  0  0  0
    6.8854   -2.9056    2.0122 C   0  0  0  0  0  0  0  0  0  0  0  0
    5.9832   -0.2268    2.0243 C   0  0  0  0  0  0  0  0  0  0  0  0
    5.4869    1.0727    1.9923 C   0  0  0  0  0  0  0  0  0  0  0  0
    4.7314    1.5109    0.9176 C   0  0  0  0  0  0  0  0  0  0  0  0
    4.2200    2.7528    0.8127 O   0  0  0  0  0  0  0  0  0  0  0  0
    4.4727    0.6347   -0.1401 C   0  0  0  0  0  0  0  0  0  0  0  0
    3.7011    1.0951   -1.3424 C   0  0  0  0  0  0  0  0  0  0  0  0
    4.2816    1.3085   -2.3848 O   0  0  0  0  0  0  0  0  0  0  0  0
    2.2438    1.2639   -1.1974 C   0  0  0  0  0  0  0  0  0  0  0  0
    1.5077    1.8505   -2.2281 C   0  0  0  0  0  0  0  0  0  0  0  0
    0.1408    2.0054   -2.1085 C   0  0  0  0  0  0  0  0  0  0  0  0
    1.5699    0.8256   -0.0560 C   0  0  0  0  0  0  0  0  0  0  0  0
    0.2012    0.9694    0.0543 C   0  0  0  0  0  0  0  0  0  0  0  0
   -0.5406    1.5771   -0.9636 C   0  0  0  0  0  0  0  0  0  0  0  0
   -1.9906    1.7585   -0.8916 C   0  0  0  0  0  0  0  0  0  0  0  0
   -2.7528    1.5624    0.1854 C   0  0  0  0  0  0  0  0  0  0  0  0
   -4.2407    1.7186    0.2088 C   0  0  2  0  0  0  0  0  0  0  0  0
   -4.6104    2.7298    1.3075 C   0  0  0  0  0  0  0  0  0  0  0  0
   -6.0570    3.2089    1.3379 C   0  0  0  0  0  0  0  0  0  0  0  0
   -7.1095    2.1095    1.2969 C   0  0  0  0  0  0  0  0  0  0  0  0
   -7.0936    1.4338    0.0089 N   0  0  0  0  0  0  0  0  0  0  0  0
   -6.3283    0.2118   -0.0659 C   0  0  0  0  0  0  0  0  0  0  0  0
   -4.9043    0.3420    0.4857 C   0  0  1  0  0  0  0  0  0  0  0  0
   -4.1226   -0.7538   -0.0533 N   0  0  0  0  0  0  0  0  0  0  0  0
   -3.3206   -1.5455    0.6748 C   0  0  0  0  0  0  0  0  0  0  0  0
   -3.2910   -1.5655    1.8960 O   0  0  0  0  0  0  0  0  0  0  0  0
   -2.4232   -2.4476   -0.1175 C   0  0  0  0  0  0  0  0  0  0  0  0
   -2.1414   -3.7208    0.3620 C   0  0  0  0  0  0  0  0  0  0  0  0
   -1.2775   -4.5263   -0.3620 C   0  0  0  0  0  0  0  0  0  0  0  0
   -0.6781   -4.1376   -1.4826 N   0  0  0  0  0  0  0  0  0  0  0  0
   -0.9327   -2.9131   -1.9237 C   0  0  0  0  0  0  0  0  0  0  0  0
   -1.7974   -2.0342   -1.2868 C   0  0  0  0  0  0  0  0  0  0  0  0
    7.8179   -2.3624    2.1863 H   0  0  0  0  0  0  0  0  0  0  0  0
    6.2907   -2.8880    2.9295 H   0  0  0  0  0  0  0  0  0  0  0  0
    7.1232   -3.9374    1.7669 H   0  0  0  0  0  0  0  0  0  0  0  0
    6.5638   -0.5320    2.8840 H   0  0  0  0  0  0  0  0  0  0  0  0
    5.6999    1.7402    2.8186 H   0  0  0  0  0  0  0  0  0  0  0  0
    4.4654    3.2853    1.5776 H   0  0  0  0  0  0  0  0  0  0  0  0
    2.0077    2.1952   -3.1234 H   0  0  0  0  0  0  0  0  0  0  0  0
   -0.4147    2.4684   -2.9149 H   0  0  0  0  0  0  0  0  0  0  0  0
    2.1104    0.3462    0.7497 H   0  0  0  0  0  0  0  0  0  0  0  0
   -0.2921    0.5896    0.9389 H   0  0  0  0  0  0  0  0  0  0  0  0
   -2.4669    2.0814   -1.8135 H   0  0  0  0  0  0  0  0  0  0  0  0
   -2.2962    1.2690    1.1289 H   0  0  0  0  0  0  0  0  0  0  0  0
   -4.5714    2.0902   -0.7673 H   0  0  0  0  0  0  0  0  0  0  0  0
   -4.3533    2.2844    2.2751 H   0  0  0  0  0  0  0  0  0  0  0  0
   -3.9654    3.6062    1.2030 H   0  0  0  0  0  0  0  0  0  0  0  0
   -6.1946    3.8131    2.2393 H   0  0  0  0  0  0  0  0  0  0  0  0
   -6.2375    3.8723    0.4878 H   0  0  0  0  0  0  0  0  0  0  0  0
   -6.9810    1.4175    2.1424 H   0  0  0  0  0  0  0  0  0  0  0  0
   -8.0917    2.5665    1.4290 H   0  0  0  0  0  0  0  0  0  0  0  0
   -8.0357    1.2426   -0.2991 H   0  0  0  0  0  0  0  0  0  0  0  0
   -6.7979   -0.6337    0.4593 H   0  0  0  0  0  0  0  0  0  0  0  0
   -6.2683   -0.0731   -1.1212 H   0  0  0  0  0  0  0  0  0  0  0  0
   -4.9233    0.1970    1.5672 H   0  0  0  0  0  0  0  0  0  0  0  0
   -4.0847   -0.8332   -1.0585 H   0  0  0  0  0  0  0  0  0  0  0  0
   -2.5907   -4.0874    1.2746 H   0  0  0  0  0  0  0  0  0  0  0  0
   -1.0571   -5.5299   -0.0171 H   0  0  0  0  0  0  0  0  0  0  0  0
   -0.4242   -2.6064   -2.8306 H   0  0  0  0  0  0  0  0  0  0  0  0
   -1.9412   -1.0417   -1.6943 H   0  0  0  0  0  0  0  0  0  0  0  0
  1  2  1  0
  2  3  2  0
  2 10  1  0
  3  4  1  0
  3  6  1  0
  4  5  1  0
  5 37  1  0
  5 38  1  0
  5 39  1  0
  6  7  2  0
  6 40  1  0
  7  8  1  0
  7 41  1  0
  8  9  1  0
  8 10  2  0
  9 42  1  0
 10 11  1  0
 11 12  2  0
 11 13  1  0
 13 14  2  0
 13 16  1  0
 14 15  1  0
 14 43  1  0
 15 18  2  0
 15 44  1  0
 16 17  2  0
 16 45  1  0
 17 18  1  0
 17 46  1  0
 18 19  1  0
 19 20  2  0
 19 47  1  0
 20 21  1  0
 20 48  1  0
 21 22  1  0
 21 27  1  0
 21 49  1  6
 22 23  1  0
 22 50  1  0
 22 51  1  0
 23 24  1  0
 23 52  1  0
 23 53  1  0
 24 25  1  0
 24 54  1  0
 24 55  1  0
 25 26  1  0
 25 56  1  0
 26 27  1  0
 26 57  1  0
 26 58  1  0
 27 28  1  0
 27 59  1  1
 28 29  1  0
 28 60  1  0
 29 30  2  0
 29 31  1  0
 31 32  2  0
 31 36  1  0
 32 33  1  0
 32 61  1  0
 33 34  2  0
 33 62  1  0
 34 35  1  0
 35 36  2  0
 35 63  1  0
 36 64  1  0
M  END
