
     RDKit          3D

 67 72  0  0  0  0  0  0  0  0999 V2000
   -6.2787    3.5231   -1.1780 Cl  0  0  0  0  0  0  0  0  0  0  0  0
   -4.8400    2.8726   -0.5399 C   0  0  0  0  0  0  0  0  0  0  0  0
   -3.9167    3.5166    0.2237 C   0  0  0  0  0  0  0  0  0  0  0  0
   -2.8439    2.6642    0.5765 C   0  0  0  0  0  0  0  0  0  0  0  0
   -4.4294    1.2329   -0.8436 S   0  0  0  0  0  0  0  0  0  0  0  0
   -2.9778    1.3981    0.0754 C   0  0  0  0  0  0  0  0  0  0  0  0
   -2.0838    0.2805    0.2292 C   0  0  0  0  0  0  0  0  0  0  0  0
   -2.1170   -1.0093   -0.1930 C   0  0  0  0  0  0  0  0  0  0  0  0
   -0.9615    0.4870    0.9246 O   0  0  0  0  0  0  0  0  0  0  0  0
   -0.2292   -0.6635    0.9713 N   0  0  0  0  0  0  0  0  0  0  0  0
   -0.9089   -1.5517    0.3041 C   0  0  0  0  0  0  0  0  0  0  0  0
   -0.3867   -2.9363    0.0863 C   0  0  2  0  0  0  0  0  0  0  0  0
    0.5840   -3.3084    1.1076 N   0  0  0  0  0  0  0  0  0  0  0  0
    1.4017   -4.3708    0.5355 C   0  0  1  0  0  0  0  0  0  0  0  0
    0.5879   -5.6658    0.7028 C   0  0  0  0  0  0  0  0  0  0  0  0
   -0.2883   -5.3919    1.9404 C   0  0  0  0  0  0  0  0  0  0  0  0
   -0.0240   -3.9071    2.2892 C   0  0  0  0  0  0  0  0  0  0  0  0
    1.6289   -3.9041   -0.8897 C   0  0  1  0  0  0  0  0  0  0  0  0
    0.3681   -3.1215   -1.2658 C   0  0  2  0  0  0  0  0  0  0  0  0
    0.8830   -1.8222   -1.8329 C   0  0  0  0  0  0  0  0  0  0  0  0
    0.2501   -0.9711   -2.4049 O   0  0  0  0  0  0  0  0  0  0  0  0
    2.7341   -2.8732   -0.9677 C   0  0  0  0  0  0  0  0  0  0  0  0
    3.8720   -2.9938   -0.5877 O   0  0  0  0  0  0  0  0  0  0  0  0
    2.2319   -1.7391   -1.5651 N   0  0  0  0  0  0  0  0  0  0  0  0
    2.9971   -0.5303   -1.7782 C   0  0  0  0  0  0  0  0  0  0  0  0
    2.8790    0.3886   -0.5652 C   0  0  0  0  0  0  0  0  0  0  0  0
    3.5494    1.7181   -0.8463 C   0  0  0  0  0  0  0  0  0  0  0  0
    3.3637    2.7257    0.2489 N   0  0  2  0  0  0  0  0  0  0  0  0
    3.9076    2.2344    1.5635 C   0  0  0  0  0  0  0  0  0  0  0  0
    5.3169    1.6853    1.5472 C   0  0  0  0  0  0  0  0  0  0  0  0
    6.2393    2.6590    1.1378 O   0  0  0  0  0  0  0  0  0  0  0  0
    1.8810    3.0505    0.4204 C   0  0  0  0  0  0  0  0  0  0  0  0
    1.7957    4.5608    0.4572 C   0  0  0  0  0  0  0  0  0  0  0  0
    2.8639    4.9586   -0.5478 C   0  0  0  0  0  0  0  0  0  0  0  0
    4.0111    4.0455   -0.1684 C   0  0  0  0  0  0  0  0  0  0  0  0
   -3.9974    4.5510    0.5218 H   0  0  0  0  0  0  0  0  0  0  0  0
   -2.0091    2.9847    1.1828 H   0  0  0  0  0  0  0  0  0  0  0  0
   -2.8740   -1.5107   -0.7729 H   0  0  0  0  0  0  0  0  0  0  0  0
   -1.2543   -3.6113    0.0626 H   0  0  0  0  0  0  0  0  0  0  0  0
    2.3412   -4.4501    1.0888 H   0  0  0  0  0  0  0  0  0  0  0  0
    0.6815   -3.8307    3.1193 H   0  0  0  0  0  0  0  0  0  0  0  0
   -0.9238   -3.3657    2.5826 H   0  0  0  0  0  0  0  0  0  0  0  0
    1.8559   -4.7209   -1.5781 H   0  0  0  0  0  0  0  0  0  0  0  0
   -0.2698   -3.6170   -1.9955 H   0  0  0  0  0  0  0  0  0  0  0  0
   -0.0306   -5.8526   -0.1785 H   0  0  0  0  0  0  0  0  0  0  0  0
    1.2371   -6.5324    0.8236 H   0  0  0  0  0  0  0  0  0  0  0  0
   -1.3416   -5.5642    1.7190 H   0  0  0  0  0  0  0  0  0  0  0  0
   -0.0306   -6.0393    2.7782 H   0  0  0  0  0  0  0  0  0  0  0  0
    4.0340   -0.8033   -1.9685 H   0  0  0  0  0  0  0  0  0  0  0  0
    2.6165   -0.0428   -2.6750 H   0  0  0  0  0  0  0  0  0  0  0  0
    1.8220    0.5275   -0.3338 H   0  0  0  0  0  0  0  0  0  0  0  0
    3.3283   -0.1096    0.2954 H   0  0  0  0  0  0  0  0  0  0  0  0
    4.6196    1.5977   -1.0075 H   0  0  0  0  0  0  0  0  0  0  0  0
    3.1393    2.1735   -1.7493 H   0  0  0  0  0  0  0  0  0  0  0  0
    3.8100    3.0623    2.2658 H   0  0  0  0  0  0  0  0  0  0  0  0
    3.2550    1.4346    1.9111 H   0  0  0  0  0  0  0  0  0  0  0  0
    1.3595    2.6693   -0.4558 H   0  0  0  0  0  0  0  0  0  0  0  0
    1.4989    2.5480    1.3051 H   0  0  0  0  0  0  0  0  0  0  0  0
    4.5388    4.4428    0.6936 H   0  0  0  0  0  0  0  0  0  0  0  0
    4.7304    3.8563   -0.9598 H   0  0  0  0  0  0  0  0  0  0  0  0
    5.4980    1.3465    2.5747 H   0  0  0  0  0  0  0  0  0  0  0  0
    5.3639    0.7887    0.9189 H   0  0  0  0  0  0  0  0  0  0  0  0
    7.1101    2.2521    1.0981 H   0  0  0  0  0  0  0  0  0  0  0  0
    0.7959    4.8985    0.1901 H   0  0  0  0  0  0  0  0  0  0  0  0
    2.0303    4.9478    1.4510 H   0  0  0  0  0  0  0  0  0  0  0  0
    2.5255    4.7766   -1.5698 H   0  0  0  0  0  0  0  0  0  0  0  0
    3.1647    6.0022   -0.4731 H   0  0  0  0  0  0  0  0  0  0  0  0
 12 19  1  0
 12 13  1  0
 12 11  1  0
  5  6  1  0
  5  2  1  0
  1  2  1  0
 19 18  1  0
 19 20  1  0
 13 14  1  0
 13 17  1  0
 11 10  2  0
 11  8  1  0
 18 14  1  0
 18 22  1  0
 20 24  1  0
 20 21  2  0
 14 15  1  0
 17 16  1  0
 10  9  1  0
  9  7  1  0
 22 24  1  0
 22 23  2  0
 24 25  1  0
 15 16  1  0
  8  7  2  0
  7  6  1  0
 25 26  1  0
  6  4  2  0
 26 27  1  0
  4  3  1  0
 28 27  1  6
  3  2  2  0
 28 35  1  0
 28 32  1  0
 28 29  1  0
 35 34  1  0
 32 33  1  0
 34 33  1  0
 29 30  1  0
 30 31  1  0
  3 36  1  0
  4 37  1  0
  8 38  1  0
 12 39  1  6
 14 40  1  1
 17 41  1  0
 17 42  1  0
 18 43  1  6
 19 44  1  6
 15 45  1  0
 15 46  1  0
 16 47  1  0
 16 48  1  0
 25 49  1  0
 25 50  1  0
 26 51  1  0
 26 52  1  0
 27 53  1  0
 27 54  1  0
 29 55  1  0
 29 56  1  0
 32 57  1  0
 32 58  1  0
 35 59  1  0
 35 60  1  0
 30 61  1  0
 30 62  1  0
 31 63  1  0
 33 64  1  0
 33 65  1  0
 34 66  1  0
 34 67  1  0
M  CHG  1  28   1
M  END
