
     RDKit          3D

 22 22  0  0  0  0  0  0  0  0999 V2000
   -1.6170    1.5103    0.0537 C   0  0  0  0  0  0  0  0  0  0  0  0
   -0.6129    0.5386    0.0585 C   0  0  0  0  0  0  0  0  0  0  0  0
    2.0111   -0.3713   -0.0770 C   0  0  0  0  0  0  0  0  0  0  0  0
    5.6797   -0.8444   -0.1150 N   0  0  0  0  0  0  0  0  0  0  0  0
    3.4761    0.0319   -0.0683 C   0  0  0  0  0  0  0  0  0  0  0  0
   -4.9663   -0.6472   -0.1103 Cl  0  0  0  0  0  0  0  0  0  0  0  0
   -3.2951   -0.1924   -0.0438 C   0  0  0  0  0  0  0  0  0  0  0  0
   -2.3166   -1.1700   -0.0420 C   0  0  0  0  0  0  0  0  0  0  0  0
   -2.9517    1.1513    0.0054 C   0  0  0  0  0  0  0  0  0  0  0  0
   -0.9780   -0.8041    0.0116 C   0  0  0  0  0  0  0  0  0  0  0  0
    1.0416    1.1345    0.1381 S   0  0  0  0  0  0  0  0  0  0  0  0
    3.8201    1.1991   -0.0410 O   0  0  0  0  0  0  0  0  0  0  0  0
    4.3082   -1.0198   -0.0949 N   0  0  0  0  0  0  0  0  0  0  0  0
   -1.3599    2.5622    0.0843 H   0  0  0  0  0  0  0  0  0  0  0  0
    1.7631   -0.8539   -1.0255 H   0  0  0  0  0  0  0  0  0  0  0  0
    1.8144   -1.0871    0.7236 H   0  0  0  0  0  0  0  0  0  0  0  0
    6.0853   -1.3272    0.6761 H   0  0  0  0  0  0  0  0  0  0  0  0
    6.0554   -1.2622   -0.9564 H   0  0  0  0  0  0  0  0  0  0  0  0
   -2.5825   -2.2179   -0.0796 H   0  0  0  0  0  0  0  0  0  0  0  0
   -3.7160    1.9162    0.0010 H   0  0  0  0  0  0  0  0  0  0  0  0
   -0.2371   -1.5897    0.0183 H   0  0  0  0  0  0  0  0  0  0  0  0
    3.9263   -1.9555   -0.1207 H   0  0  0  0  0  0  0  0  0  0  0  0
 10  8  2  0
 10  2  1  0
  8  7  1  0
 11  2  1  0
 11  3  1  0
  2  1  2  0
 12  5  2  0
  7  6  1  0
  7  9  2  0
  3  5  1  0
  1  9  1  0
  5 13  1  0
 13  4  1  0
  1 14  1  0
  3 15  1  0
  3 16  1  0
  4 17  1  0
  4 18  1  0
  8 19  1  0
  9 20  1  0
 10 21  1  0
 13 22  1  0
M  END
