
     RDKit          3D

 44 46  0  0  0  0  0  0  0  0999 V2000
    6.1459    1.0122   -0.8880 C   0  0  0  0  0  0  0  0  0  0  0  0
    5.9054   -0.0467   -0.0270 C   0  0  0  0  0  0  0  0  0  0  0  0
    3.6884    0.4381    0.0423 C   0  0  0  0  0  0  0  0  0  0  0  0
    2.1736   -1.0416    1.2828 C   0  0  0  0  0  0  0  0  0  0  0  0
    1.4398   -2.0501    0.4044 C   0  0  0  0  0  0  0  0  0  0  0  0
    0.1755   -1.4600   -0.2284 C   0  0  1  0  0  0  0  0  0  0  0  0
    1.2636    0.8186    0.0242 C   0  0  0  0  0  0  0  0  0  0  0  0
   -0.9490   -1.3502    0.8031 C   0  0  0  0  0  0  0  0  0  0  0  0
   -3.1446   -0.2388    0.8671 C   0  0  0  0  0  0  0  0  0  0  0  0
   -6.4494    0.7149   -0.3102 C   0  0  0  0  0  0  0  0  0  0  0  0
   -5.3804    0.7568    0.7760 C   0  0  0  0  0  0  0  0  0  0  0  0
   -3.0256    0.0708    2.0523 O   0  0  0  0  0  0  0  0  0  0  0  0
   -4.2539    0.0755    0.1555 N   0  0  0  0  0  0  0  0  0  0  0  0
   -5.6370    0.7613   -1.6008 C   0  0  0  0  0  0  0  0  0  0  0  0
   -4.4220   -0.1030   -1.2795 C   0  0  0  0  0  0  0  0  0  0  0  0
   -2.1719   -0.9005    0.1831 N   0  0  0  0  0  0  0  0  0  0  0  0
    0.5004   -0.1220   -0.9005 C   0  0  0  0  0  0  0  0  0  0  0  0
    2.4575    0.1710    0.5376 N   0  0  0  0  0  0  0  0  0  0  0  0
    3.8142    1.4815   -0.7911 N   0  0  0  0  0  0  0  0  0  0  0  0
    5.0273    1.7516   -1.2375 C   0  0  0  0  0  0  0  0  0  0  0  0
    4.7051   -0.3427    0.4375 N   0  0  0  0  0  0  0  0  0  0  0  0
    7.1319    1.2409   -1.2624 H   0  0  0  0  0  0  0  0  0  0  0  0
    6.7173   -0.6878    0.3011 H   0  0  0  0  0  0  0  0  0  0  0  0
    1.5640   -0.7709    2.1506 H   0  0  0  0  0  0  0  0  0  0  0  0
    3.0986   -1.4643    1.6622 H   0  0  0  0  0  0  0  0  0  0  0  0
    2.1159   -2.3818   -0.3887 H   0  0  0  0  0  0  0  0  0  0  0  0
    1.1924   -2.9348    0.9974 H   0  0  0  0  0  0  0  0  0  0  0  0
   -0.1633   -2.1558   -1.0048 H   0  0  0  0  0  0  0  0  0  0  0  0
    1.5385    1.7307   -0.4964 H   0  0  0  0  0  0  0  0  0  0  0  0
    0.6425    1.1113    0.8770 H   0  0  0  0  0  0  0  0  0  0  0  0
   -1.0821   -2.3278    1.2820 H   0  0  0  0  0  0  0  0  0  0  0  0
   -0.6891   -0.6508    1.5980 H   0  0  0  0  0  0  0  0  0  0  0  0
   -7.1586    1.5368   -0.2212 H   0  0  0  0  0  0  0  0  0  0  0  0
   -5.1243    1.7889    1.0360 H   0  0  0  0  0  0  0  0  0  0  0  0
   -5.6948    0.2547    1.6914 H   0  0  0  0  0  0  0  0  0  0  0  0
   -6.1821    0.3974   -2.4709 H   0  0  0  0  0  0  0  0  0  0  0  0
   -5.3197    1.7851   -1.8096 H   0  0  0  0  0  0  0  0  0  0  0  0
   -3.5363    0.2211   -1.8316 H   0  0  0  0  0  0  0  0  0  0  0  0
   -4.6068   -1.1533   -1.5324 H   0  0  0  0  0  0  0  0  0  0  0  0
   -2.3988   -1.3220   -0.7032 H   0  0  0  0  0  0  0  0  0  0  0  0
    1.1093   -0.3079   -1.7900 H   0  0  0  0  0  0  0  0  0  0  0  0
   -0.4134    0.3680   -1.2433 H   0  0  0  0  0  0  0  0  0  0  0  0
    5.1120    2.5991   -1.9100 H   0  0  0  0  0  0  0  0  0  0  0  0
   -7.0135   -0.2186   -0.2525 H   0  0  0  0  0  0  0  0  0  0  0  0
 19 20  1  0
 19  3  2  0
 20  1  2  0
  7 18  1  0
  7 17  1  0
 18  3  1  0
 18  4  1  0
  3 21  1  0
  1  2  1  0
  4  5  1  0
 21  2  2  0
 17  6  1  0
  6  5  1  0
  6  8  1  0
 15 14  1  0
 15 13  1  0
 14 10  1  0
 16  8  1  0
 16  9  1  0
 13  9  1  0
 13 11  1  0
  9 12  2  0
 10 11  1  0
  1 22  1  0
  2 23  1  0
  4 24  1  0
  4 25  1  0
  5 26  1  0
  5 27  1  0
  6 28  1  6
  7 29  1  0
  7 30  1  0
  8 31  1  0
  8 32  1  0
 10 44  1  0
 10 33  1  0
 11 34  1  0
 11 35  1  0
 14 36  1  0
 14 37  1  0
 15 38  1  0
 15 39  1  0
 16 40  1  0
 17 41  1  0
 17 42  1  0
 20 43  1  0
M  END
