
     RDKit          3D

 34 36  0  0  0  0  0  0  0  0999 V2000
    1.2009   -1.2464    0.2192 N   0  0  0  0  0  0  0  0  0  0  0  0
   -0.0391   -1.7815    0.3446 C   0  0  0  0  0  0  0  0  0  0  0  0
   -0.1502   -3.0799    0.6097 N   0  0  0  0  0  0  0  0  0  0  0  0
   -1.1118   -0.8923    0.1824 C   0  0  0  0  0  0  0  0  0  0  0  0
   -2.4912   -1.2297    0.2216 C   0  0  0  0  0  0  0  0  0  0  0  0
   -3.5002   -0.1356    0.0921 C   0  0  0  0  0  0  0  0  0  0  0  0
   -4.5725   -0.3019   -0.7830 C   0  0  0  0  0  0  0  0  0  0  0  0
   -5.5364    0.6872   -0.9022 C   0  0  0  0  0  0  0  0  0  0  0  0
   -5.4548    1.8382   -0.1271 C   0  0  0  0  0  0  0  0  0  0  0  0
   -4.4049    1.9967    0.7666 C   0  0  0  0  0  0  0  0  0  0  0  0
   -3.4268    1.0166    0.8718 C   0  0  0  0  0  0  0  0  0  0  0  0
   -2.8799   -2.3962    0.3423 O   0  0  0  0  0  0  0  0  0  0  0  0
   -0.4596    0.6984   -0.1818 S   0  0  0  0  0  0  0  0  0  0  0  0
    1.1391    0.0255   -0.0573 C   0  0  0  0  0  0  0  0  0  0  0  0
    2.1943    0.8347   -0.2417 N   0  0  0  0  0  0  0  0  0  0  0  0
    3.5626    0.5544   -0.1611 C   0  0  0  0  0  0  0  0  0  0  0  0
    4.4270    1.6265   -0.4015 C   0  0  0  0  0  0  0  0  0  0  0  0
    5.7977    1.4501   -0.3416 C   0  0  0  0  0  0  0  0  0  0  0  0
    6.3341    0.2040   -0.0408 C   0  0  0  0  0  0  0  0  0  0  0  0
    5.4747   -0.8577    0.1969 C   0  0  0  0  0  0  0  0  0  0  0  0
    4.0958   -0.6987    0.1400 C   0  0  0  0  0  0  0  0  0  0  0  0
    0.6742   -3.6400    0.7382 H   0  0  0  0  0  0  0  0  0  0  0  0
   -1.0604   -3.4995    0.6934 H   0  0  0  0  0  0  0  0  0  0  0  0
   -4.6437   -1.2006   -1.3824 H   0  0  0  0  0  0  0  0  0  0  0  0
   -6.3558    0.5589   -1.5973 H   0  0  0  0  0  0  0  0  0  0  0  0
   -6.2115    2.6066   -0.2165 H   0  0  0  0  0  0  0  0  0  0  0  0
   -4.3471    2.8818    1.3863 H   0  0  0  0  0  0  0  0  0  0  0  0
   -2.6254    1.1425    1.5895 H   0  0  0  0  0  0  0  0  0  0  0  0
    1.9792    1.7955   -0.4634 H   0  0  0  0  0  0  0  0  0  0  0  0
    4.0212    2.6028   -0.6399 H   0  0  0  0  0  0  0  0  0  0  0  0
    6.4484    2.2935   -0.5324 H   0  0  0  0  0  0  0  0  0  0  0  0
    7.4058    0.0649    0.0059 H   0  0  0  0  0  0  0  0  0  0  0  0
    5.8749   -1.8350    0.4339 H   0  0  0  0  0  0  0  0  0  0  0  0
    3.4489   -1.5403    0.3271 H   0  0  0  0  0  0  0  0  0  0  0  0
  1  2  1  0
  1 14  2  0
  2  3  1  0
  2  4  2  0
  4  5  1  0
  4 13  1  0
  5  6  1  0
  5 12  2  0
  6  7  2  0
  6 11  1  0
  7  8  1  0
  8  9  2  0
  9 10  1  0
 10 11  2  0
 13 14  1  0
 14 15  1  0
 15 16  1  0
 16 17  2  0
 16 21  1  0
 17 18  1  0
 18 19  2  0
 19 20  1  0
 20 21  2  0
  3 22  1  0
  3 23  1  0
  7 24  1  0
  8 25  1  0
  9 26  1  0
 10 27  1  0
 11 28  1  0
 15 29  1  0
 17 30  1  0
 18 31  1  0
 19 32  1  0
 20 33  1  0
 21 34  1  0
M  END
