
     RDKit          3D

 38 40  0  0  0  0  0  0  0  0999 V2000
   -7.2214    1.6972    0.4350 O   0  0  0  0  0  0  0  0  0  0  0  0
   -6.6756    0.6385    0.2215 C   0  0  0  0  0  0  0  0  0  0  0  0
   -5.2134    0.4644    0.1416 C   0  0  0  0  0  0  0  0  0  0  0  0
   -4.3912    1.5763    0.3331 C   0  0  0  0  0  0  0  0  0  0  0  0
   -3.0218    1.4593    0.2663 C   0  0  0  0  0  0  0  0  0  0  0  0
   -4.6107   -0.7645   -0.1193 C   0  0  0  0  0  0  0  0  0  0  0  0
   -3.2350   -0.8969   -0.1889 C   0  0  0  0  0  0  0  0  0  0  0  0
   -2.4150    0.2206    0.0041 C   0  0  0  0  0  0  0  0  0  0  0  0
   -1.0361    0.2143   -0.0466 N   0  0  0  0  0  0  0  0  0  0  0  0
   -0.1345   -0.7959   -0.2354 C   0  0  0  0  0  0  0  0  0  0  0  0
    1.1333   -0.3784   -0.2187 N   0  0  0  0  0  0  0  0  0  0  0  0
    2.0731   -1.2866   -0.3933 C   0  0  0  0  0  0  0  0  0  0  0  0
    3.3854   -0.9139   -0.3763 N   0  0  0  0  0  0  0  0  0  0  0  0
    3.9332    0.3528   -0.2389 C   0  0  0  0  0  0  0  0  0  0  0  0
    3.2999    1.5209   -0.6657 C   0  0  0  0  0  0  0  0  0  0  0  0
    3.9311    2.7458   -0.5316 C   0  0  0  0  0  0  0  0  0  0  0  0
    5.2045    2.8523    0.0163 C   0  0  0  0  0  0  0  0  0  0  0  0
    5.8506    1.7076    0.4371 C   0  0  0  0  0  0  0  0  0  0  0  0
    5.2198    0.4679    0.3211 C   0  0  0  0  0  0  0  0  0  0  0  0
    5.8951   -0.6941    0.7915 C   0  0  0  0  0  0  0  0  0  0  0  0
    6.4365   -1.6393    1.1702 N   0  0  0  0  0  0  0  0  0  0  0  0
    1.7531   -2.6440   -0.5800 C   0  0  0  0  0  0  0  0  0  0  0  0
    0.4165   -2.9468   -0.5744 C   0  0  0  0  0  0  0  0  0  0  0  0
   -0.5488   -2.0394   -0.4074 N   0  0  0  0  0  0  0  0  0  0  0  0
   -7.3479   -0.4918    0.0340 O   0  0  0  0  0  0  0  0  0  0  0  0
   -4.8259    2.5449    0.5401 H   0  0  0  0  0  0  0  0  0  0  0  0
   -2.4039    2.3359    0.4205 H   0  0  0  0  0  0  0  0  0  0  0  0
   -5.2122   -1.6495   -0.2767 H   0  0  0  0  0  0  0  0  0  0  0  0
   -2.8015   -1.8615   -0.3934 H   0  0  0  0  0  0  0  0  0  0  0  0
   -0.5945    1.1114    0.0918 H   0  0  0  0  0  0  0  0  0  0  0  0
    4.0381   -1.6821   -0.4203 H   0  0  0  0  0  0  0  0  0  0  0  0
    2.3191    1.4727   -1.1092 H   0  0  0  0  0  0  0  0  0  0  0  0
    3.4182    3.6350   -0.8736 H   0  0  0  0  0  0  0  0  0  0  0  0
    5.6856    3.8154    0.1119 H   0  0  0  0  0  0  0  0  0  0  0  0
    6.8413    1.7589    0.8680 H   0  0  0  0  0  0  0  0  0  0  0  0
    2.5094   -3.4035   -0.7157 H   0  0  0  0  0  0  0  0  0  0  0  0
    0.0904   -3.9712   -0.7127 H   0  0  0  0  0  0  0  0  0  0  0  0
   -8.2990   -0.3204    0.0928 H   0  0  0  0  0  0  0  0  0  0  0  0
 16 17  1  0
 16 15  2  0
 17 18  2  0
 15 14  1  0
 18 19  1  0
 14 19  2  0
 14 13  1  0
 19 20  1  0
 13 12  1  0
 20 21  3  0
 12 22  1  0
 12 11  2  0
 22 23  2  0
  1  2  2  0
 11 10  1  0
  6  7  1  0
  6  3  2  0
 23 24  1  0
  7  8  2  0
  2  3  1  0
  2 25  1  0
  3  4  1  0
 10 24  2  0
 10  9  1  0
  8  9  1  0
  8  5  1  0
  4  5  2  0
  4 26  1  0
  5 27  1  0
  6 28  1  0
  7 29  1  0
  9 30  1  0
 13 31  1  0
 15 32  1  0
 16 33  1  0
 17 34  1  0
 18 35  1  0
 22 36  1  0
 23 37  1  0
 25 38  1  0
M  END
