
     RDKit          3D

 34 35  0  0  0  0  0  0  0  0999 V2000
    0.1934   -3.7405   -0.4513 C   0  0  0  0  0  0  0  0  0  0  0  0
   -0.8093   -0.1787   -1.2693 C   0  0  0  0  0  0  0  0  0  0  0  0
   -2.2615    1.7761   -0.6031 C   0  0  0  0  0  0  0  0  0  0  0  0
    3.0287    2.6736    0.4520 C   0  0  0  0  0  0  0  0  0  0  0  0
    2.6655    1.8898    1.5390 C   0  0  0  0  0  0  0  0  0  0  0  0
    2.0894    0.6429    1.3380 C   0  0  0  0  0  0  0  0  0  0  0  0
    1.8639    0.1635    0.0480 C   0  0  0  0  0  0  0  0  0  0  0  0
    2.2396    0.9547   -1.0368 C   0  0  0  0  0  0  0  0  0  0  0  0
    2.8162    2.2011   -0.8366 C   0  0  0  0  0  0  0  0  0  0  0  0
    1.2563   -1.1749   -0.1499 C   0  0  0  0  0  0  0  0  0  0  0  0
    1.9358   -2.2931    0.3293 C   0  0  0  0  0  0  0  0  0  0  0  0
    1.4153   -3.5705    0.1804 C   0  0  0  0  0  0  0  0  0  0  0  0
   -0.4950   -2.6312   -0.9217 C   0  0  0  0  0  0  0  0  0  0  0  0
    0.0175   -1.3437   -0.7862 C   0  0  0  0  0  0  0  0  0  0  0  0
   -1.3532    0.6676   -0.1117 C   0  0  1  0  0  0  0  0  0  0  0  0
   -2.3988    2.0928   -1.7545 O   0  0  0  0  0  0  0  0  0  0  0  0
   -2.8660    2.3786    0.4101 O   0  0  0  0  0  0  0  0  0  0  0  0
   -2.1129   -0.2167    0.8563 C   0  0  0  0  0  0  0  0  0  0  0  0
   -1.5021   -0.3434    2.0200 O   0  0  0  0  0  0  0  0  0  0  0  0
   -3.1467   -0.7644    0.5685 O   0  0  0  0  0  0  0  0  0  0  0  0
   -0.2265   -4.7299   -0.5769 H   0  0  0  0  0  0  0  0  0  0  0  0
   -0.2324    0.4724   -1.9259 H   0  0  0  0  0  0  0  0  0  0  0  0
   -1.6434   -0.5542   -1.8636 H   0  0  0  0  0  0  0  0  0  0  0  0
    3.4781    3.6456    0.6090 H   0  0  0  0  0  0  0  0  0  0  0  0
    2.8277    2.2498    2.5466 H   0  0  0  0  0  0  0  0  0  0  0  0
    1.7987    0.0405    2.1899 H   0  0  0  0  0  0  0  0  0  0  0  0
    2.0920    0.5895   -2.0456 H   0  0  0  0  0  0  0  0  0  0  0  0
    3.1050    2.8009   -1.6902 H   0  0  0  0  0  0  0  0  0  0  0  0
    2.8932   -2.1584    0.8180 H   0  0  0  0  0  0  0  0  0  0  0  0
    1.9643   -4.4256    0.5528 H   0  0  0  0  0  0  0  0  0  0  0  0
   -1.4551   -2.7675   -1.4047 H   0  0  0  0  0  0  0  0  0  0  0  0
   -0.5209    1.1478    0.4115 H   0  0  0  0  0  0  0  0  0  0  0  0
   -3.4301    3.0990    0.0892 H   0  0  0  0  0  0  0  0  0  0  0  0
   -1.9979   -0.9481    2.5940 H   0  0  0  0  0  0  0  0  0  0  0  0
  5  4  2  0
  5  6  1  0
  4  9  1  0
  6  7  2  0
  9  8  2  0
 20 18  2  0
  7  8  1  0
  7 10  1  0
 16  3  2  0
  2 15  1  0
  2 14  1  0
 18 15  1  0
 18 19  1  0
 10 14  2  0
 10 11  1  0
  3 15  1  0
  3 17  1  0
 14 13  1  0
 11 12  2  0
 13  1  2  0
 12  1  1  0
  1 21  1  0
  2 22  1  0
  2 23  1  0
  4 24  1  0
  5 25  1  0
  6 26  1  0
  8 27  1  0
  9 28  1  0
 11 29  1  0
 12 30  1  0
 13 31  1  0
 15 32  1  1
 17 33  1  0
 19 34  1  0
M  END
