
     RDKit          3D

 25 26  0  0  0  0  0  0  0  0999 V2000
    0.3875   -0.0913    3.4745 C   0  0  0  0  0  0  0  0  0  0  0  0
    0.2071    0.9666    4.0253 O   0  0  0  0  0  0  0  0  0  0  0  0
    0.9454   -1.1360    4.0798 O   0  0  0  0  0  0  0  0  0  0  0  0
    0.0219   -0.4012    2.0498 C   0  0  0  0  0  0  0  0  0  0  0  0
   -0.5968    0.7800    1.3075 C   0  0  0  0  0  0  0  0  0  0  0  0
   -2.0198   -0.0907   -1.9858 N   0  0  0  0  0  0  0  0  0  0  0  0
   -2.1386    0.2460   -0.6656 C   0  0  0  0  0  0  0  0  0  0  0  0
   -0.9044    0.4364   -0.1127 C   0  0  0  0  0  0  0  0  0  0  0  0
    0.0405    0.2015   -1.1653 C   0  0  0  0  0  0  0  0  0  0  0  0
    1.4380    0.2433   -1.2423 C   0  0  0  0  0  0  0  0  0  0  0  0
    2.0521   -0.0428   -2.4460 C   0  0  0  0  0  0  0  0  0  0  0  0
    1.2966   -0.3725   -3.5838 C   0  0  0  0  0  0  0  0  0  0  0  0
   -0.0838   -0.4174   -3.5407 C   0  0  0  0  0  0  0  0  0  0  0  0
   -0.6995   -0.1277   -2.3238 C   0  0  0  0  0  0  0  0  0  0  0  0
    1.1743   -0.9056    4.9927 H   0  0  0  0  0  0  0  0  0  0  0  0
    0.9214   -0.7539    1.5369 H   0  0  0  0  0  0  0  0  0  0  0  0
   -0.6668   -1.2513    2.0489 H   0  0  0  0  0  0  0  0  0  0  0  0
   -1.5112    1.0937    1.8144 H   0  0  0  0  0  0  0  0  0  0  0  0
    0.0872    1.6324    1.3453 H   0  0  0  0  0  0  0  0  0  0  0  0
   -3.1117    0.3283   -0.2066 H   0  0  0  0  0  0  0  0  0  0  0  0
    2.0334    0.4974   -0.3732 H   0  0  0  0  0  0  0  0  0  0  0  0
    3.1318   -0.0147   -2.5180 H   0  0  0  0  0  0  0  0  0  0  0  0
    1.8060   -0.5965   -4.5124 H   0  0  0  0  0  0  0  0  0  0  0  0
   -0.6636   -0.6713   -4.4192 H   0  0  0  0  0  0  0  0  0  0  0  0
   -2.7903   -0.2760   -2.6053 H   0  0  0  0  0  0  0  0  0  0  0  0
  1  2  2  0
  1  3  1  0
  1  4  1  0
  3 15  1  0
  4  5  1  0
  4 16  1  0
  4 17  1  0
  5  8  1  0
  5 18  1  0
  5 19  1  0
  6  7  1  0
  6 14  1  0
  6 25  1  0
  7  8  2  0
  7 20  1  0
  8  9  1  0
  9 10  1  0
  9 14  2  0
 10 11  2  0
 10 21  1  0
 11 12  1  0
 11 22  1  0
 12 13  2  0
 12 23  1  0
 13 14  1  0
 13 24  1  0
M  END
