
     RDKit          3D

 81 84  0  0  0  0  0  0  0  0999 V2000
    2.6161   -4.9277   -1.3374 C   0  0  0  0  0  0  0  0  0  0  0  0
    3.9907   -4.3446   -1.5925 C   0  0  0  0  0  0  0  0  0  0  0  0
    4.1961   -3.0543   -0.8090 C   0  0  2  0  0  0  0  0  0  0  0  0
    5.7238    1.1330    0.0419 C   0  0  0  0  0  0  0  0  0  0  0  0
    6.0659    1.0303    1.3806 C   0  0  0  0  0  0  0  0  0  0  0  0
    6.2969   -0.2230    1.9356 C   0  0  0  0  0  0  0  0  0  0  0  0
    6.1828   -1.3606    1.1556 C   0  0  0  0  0  0  0  0  0  0  0  0
    1.6974   -0.2252   -1.1276 C   0  0  0  0  0  0  0  0  0  0  0  0
    2.1575    2.0819   -0.3831 C   0  0  0  0  0  0  0  0  0  0  0  0
    2.4338    2.6485   -1.6234 C   0  0  0  0  0  0  0  0  0  0  0  0
    3.2154    3.7895   -1.7146 C   0  0  0  0  0  0  0  0  0  0  0  0
    3.7024    4.3873   -0.5608 C   0  0  0  0  0  0  0  0  0  0  0  0
    2.3903    2.0280    2.1155 C   0  0  0  0  0  0  0  0  0  0  0  0
    0.9322    2.2006    2.5478 C   0  0  0  0  0  0  0  0  0  0  0  0
   -0.0428    2.0287    1.3792 C   0  0  1  0  0  0  0  0  0  0  0  0
    0.3032    0.7903    0.5471 C   0  0  0  0  0  0  0  0  0  0  0  0
   -3.7878    1.6967    1.6666 C   0  0  0  0  0  0  0  0  0  0  0  0
   -6.2495   -1.2536    1.2850 C   0  0  0  0  0  0  0  0  0  0  0  0
   -7.2770   -3.6641    0.3394 C   0  0  0  0  0  0  0  0  0  0  0  0
   -6.6713   -3.6210    1.5866 C   0  0  0  0  0  0  0  0  0  0  0  0
   -6.1602   -2.4155    2.0458 C   0  0  0  0  0  0  0  0  0  0  0  0
   -7.9802   -5.2999   -0.2987 Br  0  0  0  0  0  0  0  0  0  0  0  0
   -7.3792   -2.5252   -0.4447 C   0  0  0  0  0  0  0  0  0  0  0  0
   -6.8636   -1.3303    0.0381 C   0  0  0  0  0  0  0  0  0  0  0  0
   -5.6794    0.0462    1.7706 C   0  0  0  0  0  0  0  0  0  0  0  0
   -4.2352    0.2654    1.3067 C   0  0  2  0  0  0  0  0  0  0  0  0
   -3.3859   -0.7787    1.8428 N   0  0  0  0  0  0  0  0  0  0  0  0
   -2.3254    2.2332   -0.1519 O   0  0  0  0  0  0  0  0  0  0  0  0
   -1.3884    1.9452    1.8715 N   0  0  0  0  0  0  0  0  0  0  0  0
    2.6702    2.6569    0.7834 C   0  0  0  0  0  0  0  0  0  0  0  0
    3.4189    3.8237    0.6741 C   0  0  0  0  0  0  0  0  0  0  0  0
   -0.3357   -0.2422    0.6343 O   0  0  0  0  0  0  0  0  0  0  0  0
    1.3503    0.9142   -0.3122 N   0  0  0  0  0  0  0  0  0  0  0  0
    2.6974   -1.2414    0.8160 O   0  0  0  0  0  0  0  0  0  0  0  0
    3.2228   -2.0690   -1.2281 N   0  0  0  0  0  0  0  0  0  0  0  0
    2.1846   -5.0819   -0.2019 O   0  0  0  0  0  0  0  0  0  0  0  0
    1.9177   -5.2695   -2.4265 N   0  0  0  0  0  0  0  0  0  0  0  0
    0.6010   -5.8563   -2.3500 C   0  0  0  0  0  0  0  0  0  0  0  0
    5.6259   -2.5192   -0.9882 C   0  0  0  0  0  0  0  0  0  0  0  0
    5.8399   -1.2696   -0.1880 C   0  0  0  0  0  0  0  0  0  0  0  0
    6.2178    2.4532    2.3418 Cl  0  0  0  0  0  0  0  0  0  0  0  0
    5.6200   -0.0096   -0.7349 C   0  0  0  0  0  0  0  0  0  0  0  0
    4.7340   -5.0788   -1.2709 H   0  0  0  0  0  0  0  0  0  0  0  0
    4.1670   -4.1714   -2.6576 H   0  0  0  0  0  0  0  0  0  0  0  0
    4.0225   -3.2526    0.2488 H   0  0  0  0  0  0  0  0  0  0  0  0
    5.5347    2.1062   -0.3909 H   0  0  0  0  0  0  0  0  0  0  0  0
    6.3589   -2.3303    1.6043 H   0  0  0  0  0  0  0  0  0  0  0  0
    2.1915    0.1179   -2.0355 H   0  0  0  0  0  0  0  0  0  0  0  0
    0.7925   -0.7443   -1.4473 H   0  0  0  0  0  0  0  0  0  0  0  0
    2.0252    2.2100   -2.5250 H   0  0  0  0  0  0  0  0  0  0  0  0
    3.4240    4.2186   -2.6857 H   0  0  0  0  0  0  0  0  0  0  0  0
    4.3013    5.2865   -0.6222 H   0  0  0  0  0  0  0  0  0  0  0  0
    3.0453    2.4599    2.8722 H   0  0  0  0  0  0  0  0  0  0  0  0
    2.6338    0.9650    2.0569 H   0  0  0  0  0  0  0  0  0  0  0  0
    0.7029    1.4734    3.3311 H   0  0  0  0  0  0  0  0  0  0  0  0
    0.7736    3.1944    2.9709 H   0  0  0  0  0  0  0  0  0  0  0  0
    0.0320    2.9080    0.7338 H   0  0  0  0  0  0  0  0  0  0  0  0
   -4.5102    2.4185    1.2798 H   0  0  0  0  0  0  0  0  0  0  0  0
   -3.7620    1.8055    2.7548 H   0  0  0  0  0  0  0  0  0  0  0  0
   -6.5919   -4.5087    2.1998 H   0  0  0  0  0  0  0  0  0  0  0  0
   -5.6899   -2.3843    3.0204 H   0  0  0  0  0  0  0  0  0  0  0  0
   -7.8556   -2.5547   -1.4156 H   0  0  0  0  0  0  0  0  0  0  0  0
   -6.9475   -0.4388   -0.5724 H   0  0  0  0  0  0  0  0  0  0  0  0
   -6.2942    0.8735    1.4082 H   0  0  0  0  0  0  0  0  0  0  0  0
   -5.7126    0.0866    2.8641 H   0  0  0  0  0  0  0  0  0  0  0  0
   -4.2173    0.1791    0.2149 H   0  0  0  0  0  0  0  0  0  0  0  0
   -2.4305   -0.6677    1.5240 H   0  0  0  0  0  0  0  0  0  0  0  0
   -3.3604   -0.7157    2.8543 H   0  0  0  0  0  0  0  0  0  0  0  0
   -1.5322    1.6534    2.8249 H   0  0  0  0  0  0  0  0  0  0  0  0
    3.8035    4.2830    1.5757 H   0  0  0  0  0  0  0  0  0  0  0  0
    3.1297   -1.9152   -2.2213 H   0  0  0  0  0  0  0  0  0  0  0  0
    2.3158   -5.1081   -3.3357 H   0  0  0  0  0  0  0  0  0  0  0  0
    0.6064   -6.7764   -1.7652 H   0  0  0  0  0  0  0  0  0  0  0  0
   -0.1205   -5.1716   -1.9023 H   0  0  0  0  0  0  0  0  0  0  0  0
    0.2691   -6.0918   -3.3568 H   0  0  0  0  0  0  0  0  0  0  0  0
    6.3291   -3.2955   -0.6775 H   0  0  0  0  0  0  0  0  0  0  0  0
    5.8083   -2.3275   -2.0490 H   0  0  0  0  0  0  0  0  0  0  0  0
    5.3594    0.0902   -1.7811 H   0  0  0  0  0  0  0  0  0  0  0  0
    2.5955   -1.2179   -0.3950 C   0  0  0  0  0  0  0  0  0  0  0  0
    6.7257   -0.3795    3.5993 Cl  0  0  0  0  0  0  0  0  0  0  0  0
   -2.4477    1.9961    1.0423 C   0  0  0  0  0  0  0  0  0  0  0  0
 80  6  1  0
 36  1  2  0
 38 37  1  0
  6  7  2  0
  6  5  1  0
  1 37  1  0
  1  2  1  0
  7 40  1  0
 41  5  1  0
 34 79  2  0
  5  4  2  0
  3  2  1  0
  3 39  1  0
  3 35  1  0
 40 39  1  0
 40 42  2  0
 79 35  1  0
 79  8  1  0
  4 42  1  0
 11 10  2  0
 11 12  1  0
 10  9  1  0
  8 33  1  0
 12 31  2  0
  9 33  1  0
  9 30  2  0
 33 16  1  0
 28 81  2  0
 31 30  1  0
 30 13  1  0
 16 32  2  0
 16 15  1  0
 23 24  1  0
 23 19  2  0
 24 18  2  0
 81 29  1  0
 81 17  1  0
 15 29  1  0
 15 14  1  0
 27 26  1  0
 26 17  1  0
 26 25  1  0
 13 14  1  0
 22 19  1  0
 19 20  1  0
 25 18  1  0
 18 21  1  0
 20 21  2  0
  2 43  1  0
  2 44  1  0
  3 45  1  1
  4 46  1  0
  7 47  1  0
  8 48  1  0
  8 49  1  0
 10 50  1  0
 11 51  1  0
 12 52  1  0
 13 53  1  0
 13 54  1  0
 14 55  1  0
 14 56  1  0
 15 57  1  6
 17 58  1  0
 17 59  1  0
 20 60  1  0
 21 61  1  0
 23 62  1  0
 24 63  1  0
 25 64  1  0
 25 65  1  0
 26 66  1  6
 27 67  1  0
 27 68  1  0
 29 69  1  0
 31 70  1  0
 35 71  1  0
 37 72  1  0
 38 73  1  0
 38 74  1  0
 38 75  1  0
 39 76  1  0
 39 77  1  0
 42 78  1  0
M  END
