
     RDKit          3D

 80 83  0  0  0  0  0  0  0  0999 V2000
   -2.0322    3.0134    0.1437 C   0  0  0  0  0  0  0  0  0  0  0  0
   -2.3426    1.5399   -0.0782 C   0  0  0  0  0  0  0  0  0  0  0  0
   -2.9631    0.8909    1.1610 C   0  0  0  0  0  0  0  0  0  0  0  0
   -3.1494   -0.5745    0.9842 C   0  0  0  0  0  0  0  0  0  0  0  0
   -2.2546   -1.6261    0.9218 C   0  0  0  0  0  0  0  0  0  0  0  0
   -6.2358   -0.5357   -0.6058 C   0  0  0  0  0  0  0  0  0  0  0  0
   -8.1136    0.5801    0.4028 C   0  0  0  0  0  0  0  0  0  0  0  0
   -6.2313   -0.0490    1.7628 C   0  0  0  0  0  0  0  0  0  0  0  0
   -0.2537   -3.2257   -0.5425 C   0  0  0  0  0  0  0  0  0  0  0  0
   -0.1265   -2.7615   -1.9943 C   0  0  1  0  0  0  0  0  0  0  0  0
   -0.3984   -3.9504   -2.9109 C   0  0  0  0  0  0  0  0  0  0  0  0
   -0.5022    5.6230   -1.9263 C   0  0  0  0  0  0  0  0  0  0  0  0
   -1.1017    4.9846   -0.8291 O   0  0  0  0  0  0  0  0  0  0  0  0
   -1.4213    3.6412   -1.0934 C   0  0  0  0  0  0  0  0  0  0  0  0
   -2.9502   -2.7587    0.6778 N   0  0  0  0  0  0  0  0  0  0  0  0
   -4.1958   -2.4850    0.5730 N   0  0  0  0  0  0  0  0  0  0  0  0
   -4.3341   -1.1707    0.7458 N   0  0  0  0  0  0  0  0  0  0  0  0
   -5.6184   -0.5749    0.6353 C   0  0  0  0  0  0  0  0  0  0  0  0
   -7.4920    0.0422   -0.7167 C   0  0  0  0  0  0  0  0  0  0  0  0
   -7.4836    0.5355    1.6397 C   0  0  0  0  0  0  0  0  0  0  0  0
   -0.7905   -1.4809    1.1510 C   0  0  0  0  0  0  0  0  0  0  0  0
   -0.4468   -0.6355    1.9710 O   0  0  0  0  0  0  0  0  0  0  0  0
    0.0955   -2.2109    0.4452 N   0  0  0  0  0  0  0  0  0  0  0  0
   -1.0593   -1.5980   -2.3074 C   0  0  0  0  0  0  0  0  0  0  0  0
    1.5343   -1.9604    0.5847 C   0  0  2  0  0  0  0  0  0  0  0  0
    2.0900   -2.3565    1.9525 C   0  0  0  0  0  0  0  0  0  0  0  0
    3.5379   -2.2426    1.8997 N   0  0  0  0  0  0  0  0  0  0  0  0
    3.9643   -0.8791    1.6537 C   0  0  0  0  0  0  0  0  0  0  0  0
    3.4827   -0.4407    0.2652 C   0  0  1  0  0  0  0  0  0  0  0  0
    1.9603   -0.5431    0.1988 C   0  0  0  0  0  0  0  0  0  0  0  0
    3.9514    0.9783   -0.0190 C   0  0  0  0  0  0  0  0  0  0  0  0
    3.2067    1.9316    0.1701 O   0  0  0  0  0  0  0  0  0  0  0  0
    5.2240    1.1490   -0.4472 N   0  0  0  0  0  0  0  0  0  0  0  0
    5.7588    2.4801   -0.6833 C   0  0  0  0  0  0  0  0  0  0  0  0
    7.0527    2.6590    0.0907 C   0  0  0  0  0  0  0  0  0  0  0  0
    7.9927    1.6578   -0.2333 O   0  0  0  0  0  0  0  0  0  0  0  0
    7.4792    0.3734    0.0331 C   0  0  0  0  0  0  0  0  0  0  0  0
    6.1955    0.1090   -0.7369 C   0  0  0  0  0  0  0  0  0  0  0  0
   -2.9468    3.5491    0.4152 H   0  0  0  0  0  0  0  0  0  0  0  0
   -1.3383    3.1163    0.9833 H   0  0  0  0  0  0  0  0  0  0  0  0
   -3.0220    1.4226   -0.9276 H   0  0  0  0  0  0  0  0  0  0  0  0
   -1.4221    1.0122   -0.3421 H   0  0  0  0  0  0  0  0  0  0  0  0
   -2.3192    1.0562    2.0235 H   0  0  0  0  0  0  0  0  0  0  0  0
   -3.9199    1.3672    1.3816 H   0  0  0  0  0  0  0  0  0  0  0  0
   -5.7393   -0.9477   -1.4746 H   0  0  0  0  0  0  0  0  0  0  0  0
   -9.0904    1.0359    0.3102 H   0  0  0  0  0  0  0  0  0  0  0  0
   -5.7401   -0.1026    2.7258 H   0  0  0  0  0  0  0  0  0  0  0  0
   -1.2626   -3.5855   -0.3622 H   0  0  0  0  0  0  0  0  0  0  0  0
    0.4095   -4.0790   -0.3762 H   0  0  0  0  0  0  0  0  0  0  0  0
    0.9053   -2.4348   -2.1692 H   0  0  0  0  0  0  0  0  0  0  0  0
   -1.4158   -4.3255   -2.7767 H   0  0  0  0  0  0  0  0  0  0  0  0
   -0.2831   -3.6718   -3.9589 H   0  0  0  0  0  0  0  0  0  0  0  0
    0.2887   -4.7739   -2.7081 H   0  0  0  0  0  0  0  0  0  0  0  0
    0.4249    5.1248   -2.2348 H   0  0  0  0  0  0  0  0  0  0  0  0
   -1.1671    5.6608   -2.7978 H   0  0  0  0  0  0  0  0  0  0  0  0
   -0.2618    6.6448   -1.6341 H   0  0  0  0  0  0  0  0  0  0  0  0
   -0.5200    3.0813   -1.3875 H   0  0  0  0  0  0  0  0  0  0  0  0
   -2.1241    3.5679   -1.9367 H   0  0  0  0  0  0  0  0  0  0  0  0
   -7.9812    0.0790   -1.6807 H   0  0  0  0  0  0  0  0  0  0  0  0
   -7.9680    0.9495    2.5136 H   0  0  0  0  0  0  0  0  0  0  0  0
   -0.9676   -1.2969   -3.3519 H   0  0  0  0  0  0  0  0  0  0  0  0
   -2.1033   -1.8662   -2.1263 H   0  0  0  0  0  0  0  0  0  0  0  0
   -0.8327   -0.7206   -1.6999 H   0  0  0  0  0  0  0  0  0  0  0  0
    2.0046   -2.6385   -0.1327 H   0  0  0  0  0  0  0  0  0  0  0  0
    1.6464   -1.7317    2.7368 H   0  0  0  0  0  0  0  0  0  0  0  0
    1.8254   -3.3950    2.1631 H   0  0  0  0  0  0  0  0  0  0  0  0
    3.9339   -2.5659    2.7723 H   0  0  0  0  0  0  0  0  0  0  0  0
    3.5725   -0.1661    2.3975 H   0  0  0  0  0  0  0  0  0  0  0  0
    5.0539   -0.8404    1.7194 H   0  0  0  0  0  0  0  0  0  0  0  0
    3.9027   -1.1337   -0.4694 H   0  0  0  0  0  0  0  0  0  0  0  0
    1.6075   -0.3147   -0.8103 H   0  0  0  0  0  0  0  0  0  0  0  0
    1.5145    0.1860    0.8711 H   0  0  0  0  0  0  0  0  0  0  0  0
    5.9428    2.6111   -1.7553 H   0  0  0  0  0  0  0  0  0  0  0  0
    5.0350    3.2299   -0.3755 H   0  0  0  0  0  0  0  0  0  0  0  0
    7.5020    3.6219   -0.1560 H   0  0  0  0  0  0  0  0  0  0  0  0
    6.8361    2.6499    1.1683 H   0  0  0  0  0  0  0  0  0  0  0  0
    8.2394   -0.3521   -0.2596 H   0  0  0  0  0  0  0  0  0  0  0  0
    7.2877    0.2500    1.1091 H   0  0  0  0  0  0  0  0  0  0  0  0
    5.8247   -0.8766   -0.4702 H   0  0  0  0  0  0  0  0  0  0  0  0
    6.4024    0.0996   -1.8123 H   0  0  0  0  0  0  0  0  0  0  0  0
 19  7  1  0
 19  6  2  0
  7 20  2  0
  6 18  1  0
 20  8  1  0
 18  8  2  0
 18 17  1  0
 16 17  1  0
 16 15  2  0
 17  4  1  0
 15  5  1  0
  4  3  1  0
  4  5  2  0
  3  2  1  0
  5 21  1  0
 22 21  2  0
 21 23  1  0
  2  1  1  0
  1 14  1  0
 23 25  1  0
 23  9  1  0
 14 13  1  0
 13 12  1  0
 30 25  1  0
 30 29  1  0
 25 26  1  0
  9 10  1  0
 10 11  1  0
 10 24  1  0
 29 31  1  0
 29 28  1  0
 32 31  2  0
 31 33  1  0
 33 34  1  0
 33 38  1  0
 34 35  1  0
 38 37  1  0
 26 27  1  0
 27 28  1  0
 37 36  1  0
 36 35  1  0
  1 39  1  0
  1 40  1  0
  2 41  1  0
  2 42  1  0
  3 43  1  0
  3 44  1  0
  6 45  1  0
  7 46  1  0
  8 47  1  0
  9 48  1  0
  9 49  1  0
 10 50  1  1
 11 51  1  0
 11 52  1  0
 11 53  1  0
 12 54  1  0
 12 55  1  0
 12 56  1  0
 14 57  1  0
 14 58  1  0
 19 59  1  0
 20 60  1  0
 24 61  1  0
 24 62  1  0
 24 63  1  0
 25 64  1  6
 26 65  1  0
 26 66  1  0
 27 67  1  0
 28 68  1  0
 28 69  1  0
 29 70  1  6
 30 71  1  0
 30 72  1  0
 34 73  1  0
 34 74  1  0
 35 75  1  0
 35 76  1  0
 37 77  1  0
 37 78  1  0
 38 79  1  0
 38 80  1  0
M  END
