
     RDKit          3D

 61 65  0  0  0  0  0  0  0  0999 V2000
   -9.7044   -0.6205   -0.9464 C   0  0  0  0  0  0  0  0  0  0  0  0
  -10.8229   -0.8271   -0.2353 N   0  0  0  0  0  0  0  0  0  0  0  0
    1.5005    1.1422    0.5108 O   0  0  0  0  0  0  0  0  0  0  0  0
   -8.4300   -0.4262   -0.1863 C   0  0  0  0  0  0  0  0  0  0  0  0
   -7.2698   -0.2771   -0.9393 C   0  0  0  0  0  0  0  0  0  0  0  0
   -4.7921    0.0887   -0.6658 N   0  0  0  0  0  0  0  0  0  0  0  0
   -6.0839   -0.0926   -0.2518 C   0  0  0  0  0  0  0  0  0  0  0  0
   -4.7239    0.1501    1.5516 N   0  0  0  0  0  0  0  0  0  0  0  0
   -4.0211    0.2310    0.4459 C   0  0  0  0  0  0  0  0  0  0  0  0
   -6.0141   -0.0501    1.1511 C   0  0  0  0  0  0  0  0  0  0  0  0
   -7.1817   -0.1985    1.8986 C   0  0  0  0  0  0  0  0  0  0  0  0
   -8.3703   -0.3828    1.2208 C   0  0  0  0  0  0  0  0  0  0  0  0
   -2.5819    0.4557    0.4055 C   0  0  0  0  0  0  0  0  0  0  0  0
   -1.8772    0.5822    1.6079 C   0  0  0  0  0  0  0  0  0  0  0  0
   -0.5191    0.8075    1.6138 C   0  0  0  0  0  0  0  0  0  0  0  0
    0.1854    0.9148    0.4095 C   0  0  0  0  0  0  0  0  0  0  0  0
   -0.5035    0.7861   -0.7956 C   0  0  0  0  0  0  0  0  0  0  0  0
   -1.8715    0.5590   -0.7868 C   0  0  0  0  0  0  0  0  0  0  0  0
    6.0047    2.1458   -1.1290 C   0  0  0  0  0  0  0  0  0  0  0  0
    4.5438    1.9062   -1.5122 C   0  0  0  0  0  0  0  0  0  0  0  0
    3.7053    1.6085   -0.2682 C   0  0  2  0  0  0  0  0  0  0  0  0
    4.3453    0.4706    0.5262 C   0  0  0  0  0  0  0  0  0  0  0  0
    5.8119    0.7840    0.8224 C   0  0  0  0  0  0  0  0  0  0  0  0
    6.6054    1.0657   -0.3644 N   0  0  0  0  0  0  0  0  0  0  0  0
    2.2735    1.3172   -0.6689 C   0  0  0  0  0  0  0  0  0  0  0  0
   -9.7154   -0.5901   -2.1717 O   0  0  0  0  0  0  0  0  0  0  0  0
    7.8324   -1.0607   -0.4540 C   0  0  0  0  0  0  0  0  0  0  0  0
    7.5802   -2.4283   -0.4490 C   0  0  0  0  0  0  0  0  0  0  0  0
    8.4579   -3.3141    0.1662 C   0  0  0  0  0  0  0  0  0  0  0  0
    9.6003   -2.8370    0.7921 C   0  0  0  0  0  0  0  0  0  0  0  0
    9.8573   -1.4701    0.7993 C   0  0  0  0  0  0  0  0  0  0  0  0
    6.9021   -0.1087   -1.1616 C   0  0  0  0  0  0  0  0  0  0  0  0
    8.9801   -0.5905    0.1823 C   0  0  0  0  0  0  0  0  0  0  0  0
   10.2858   -3.5224    1.2739 H   0  0  0  0  0  0  0  0  0  0  0  0
    6.6851   -2.8074   -0.9288 H   0  0  0  0  0  0  0  0  0  0  0  0
    8.2428   -4.3752    0.1606 H   0  0  0  0  0  0  0  0  0  0  0  0
   10.7459   -1.0896    1.2869 H   0  0  0  0  0  0  0  0  0  0  0  0
    6.0104   -0.6638   -1.4901 H   0  0  0  0  0  0  0  0  0  0  0  0
    7.3898    0.2353   -2.0797 H   0  0  0  0  0  0  0  0  0  0  0  0
    9.1792    0.4739    0.1989 H   0  0  0  0  0  0  0  0  0  0  0  0
  -10.8471   -0.8875    0.7659 H   0  0  0  0  0  0  0  0  0  0  0  0
  -11.6958   -0.9633   -0.7176 H   0  0  0  0  0  0  0  0  0  0  0  0
    2.2299    0.4135   -1.2897 H   0  0  0  0  0  0  0  0  0  0  0  0
    1.8712    2.1488   -1.2591 H   0  0  0  0  0  0  0  0  0  0  0  0
   -7.3010   -0.3040   -2.0198 H   0  0  0  0  0  0  0  0  0  0  0  0
   -9.2655   -0.4882    1.8185 H   0  0  0  0  0  0  0  0  0  0  0  0
   -4.4844    0.1183   -1.6244 H   0  0  0  0  0  0  0  0  0  0  0  0
   -7.1599   -0.1672    2.9797 H   0  0  0  0  0  0  0  0  0  0  0  0
   -2.4077    0.5040    2.5473 H   0  0  0  0  0  0  0  0  0  0  0  0
   -2.3674    0.4658   -1.7447 H   0  0  0  0  0  0  0  0  0  0  0  0
    0.0127    0.9094    2.5513 H   0  0  0  0  0  0  0  0  0  0  0  0
    0.0043    0.8606   -1.7472 H   0  0  0  0  0  0  0  0  0  0  0  0
    5.8628    1.6634    1.4734 H   0  0  0  0  0  0  0  0  0  0  0  0
    6.2716   -0.0375    1.3759 H   0  0  0  0  0  0  0  0  0  0  0  0
    3.8175    0.3039    1.4675 H   0  0  0  0  0  0  0  0  0  0  0  0
    4.2701   -0.4628   -0.0438 H   0  0  0  0  0  0  0  0  0  0  0  0
    3.7052    2.5112    0.3578 H   0  0  0  0  0  0  0  0  0  0  0  0
    4.1591    2.7916   -2.0262 H   0  0  0  0  0  0  0  0  0  0  0  0
    4.4652    1.0764   -2.2229 H   0  0  0  0  0  0  0  0  0  0  0  0
    6.6065    2.3257   -2.0230 H   0  0  0  0  0  0  0  0  0  0  0  0
    6.0594    3.0567   -0.5218 H   0  0  0  0  0  0  0  0  0  0  0  0
  1  2  1  0
  1  4  1  0
  1 26  2  0
  3 16  1  0
  3 25  1  0
  4  5  2  0
  4 12  1  0
  5  7  1  0
  6  7  1  0
  6  9  1  0
  7 10  2  0
  8  9  2  0
  8 10  1  0
  9 13  1  0
 10 11  1  0
 11 12  2  0
 13 14  2  0
 13 18  1  0
 14 15  1  0
 15 16  2  0
 16 17  1  0
 17 18  2  0
 23 22  1  0
 23 24  1  0
 22 21  1  0
 21 20  1  0
 21 25  1  0
 20 19  1  0
 19 24  1  0
 32 24  1  0
 27 28  2  0
 27 32  1  0
 27 33  1  0
 28 29  1  0
 28 35  1  0
 29 30  2  0
 29 36  1  0
 30 31  1  0
 30 34  1  0
 31 33  2  0
 31 37  1  0
 32 38  1  0
 32 39  1  0
 33 40  1  0
  2 41  1  0
  2 42  1  0
 25 43  1  0
 25 44  1  0
  5 45  1  0
 12 46  1  0
  6 47  1  0
 11 48  1  0
 14 49  1  0
 18 50  1  0
 15 51  1  0
 17 52  1  0
 23 53  1  0
 23 54  1  0
 22 55  1  0
 22 56  1  0
 21 57  1  1
 20 58  1  0
 20 59  1  0
 19 60  1  0
 19 61  1  0
M  END
