
     RDKit          3D

 62 64  0  0  0  0  0  0  0  0999 V2000
    2.4645    2.2113    0.2174 C   0  0  0  0  0  0  0  0  0  0  0  0
    4.2245    4.0222    0.2624 C   0  0  0  0  0  0  0  0  0  0  0  0
    6.1886   -2.7843    0.4238 C   0  0  0  0  0  0  0  0  0  0  0  0
    4.8712    1.6771    0.6990 C   0  0  0  0  0  0  0  0  0  0  0  0
    3.9475   -2.6687   -0.6224 C   0  0  0  0  0  0  0  0  0  0  0  0
    4.7243    0.1952    0.8469 C   0  0  0  0  0  0  0  0  0  0  0  0
    2.7545   -2.0154   -1.2543 C   0  0  0  0  0  0  0  0  0  0  0  0
    0.5986   -1.0010   -0.8486 C   0  0  0  0  0  0  0  0  0  0  0  0
   -0.4289   -0.6444    0.2131 C   0  0  0  0  0  0  0  0  0  0  0  0
    5.2596   -0.5593   -0.3831 C   0  0  0  0  0  0  0  0  0  0  0  0
   -6.1115    0.2092   -0.2927 C   0  0  0  0  0  0  0  0  0  0  0  0
   -4.0832    1.2222   -1.3496 C   0  0  0  0  0  0  0  0  0  0  0  0
   -4.6424    1.7380    1.0294 C   0  0  0  0  0  0  0  0  0  0  0  0
   -4.1301   -1.2168   -0.8295 C   0  0  0  0  0  0  0  0  0  0  0  0
   -4.6914   -0.6972    1.5512 C   0  0  0  0  0  0  0  0  0  0  0  0
    1.7601   -1.6350   -0.2592 N   0  0  0  0  0  0  0  0  0  0  0  0
   -1.5139    0.1188   -0.3677 N   0  0  0  0  0  0  0  0  0  0  0  0
    3.9105    2.5617    0.4156 C   0  0  0  0  0  0  0  0  0  0  0  0
    5.0653   -2.0450   -0.2405 C   0  0  0  0  0  0  0  0  0  0  0  0
   -4.9715   -0.0226   -1.2886 C   0  0  1  0  0  0  0  0  0  0  0  0
   -5.5332    0.4964    1.0957 C   0  0  2  0  0  0  0  0  0  0  0  0
   -3.5002    1.5028    0.0379 C   0  0  1  0  0  0  0  0  0  0  0  0
   -3.5503   -0.9350    0.5580 C   0  0  2  0  0  0  0  0  0  0  0  0
   -2.6542    0.3135    0.5127 C   0  0  1  0  0  0  0  0  0  0  0  0
    1.8326    2.7662    0.9159 H   0  0  0  0  0  0  0  0  0  0  0  0
    2.1355    2.4945   -0.7862 H   0  0  0  0  0  0  0  0  0  0  0  0
    2.2545    1.1513    0.3462 H   0  0  0  0  0  0  0  0  0  0  0  0
    3.6533    4.6240    0.9742 H   0  0  0  0  0  0  0  0  0  0  0  0
    5.2823    4.2334    0.4176 H   0  0  0  0  0  0  0  0  0  0  0  0
    3.9503    4.3798   -0.7339 H   0  0  0  0  0  0  0  0  0  0  0  0
    7.0891   -2.7640   -0.1956 H   0  0  0  0  0  0  0  0  0  0  0  0
    6.4579   -2.3165    1.3743 H   0  0  0  0  0  0  0  0  0  0  0  0
    5.9369   -3.8261    0.6210 H   0  0  0  0  0  0  0  0  0  0  0  0
    5.8869    2.0537    0.8013 H   0  0  0  0  0  0  0  0  0  0  0  0
    3.8648   -3.7368   -0.4361 H   0  0  0  0  0  0  0  0  0  0  0  0
    5.2723   -0.1362    1.7350 H   0  0  0  0  0  0  0  0  0  0  0  0
    3.6848   -0.0979    0.9965 H   0  0  0  0  0  0  0  0  0  0  0  0
    3.0517   -1.1066   -1.7834 H   0  0  0  0  0  0  0  0  0  0  0  0
    2.3348   -2.6887   -2.0182 H   0  0  0  0  0  0  0  0  0  0  0  0
    0.1107   -1.6167   -1.6206 H   0  0  0  0  0  0  0  0  0  0  0  0
    0.9346   -0.0864   -1.3507 H   0  0  0  0  0  0  0  0  0  0  0  0
   -0.8317   -1.5687    0.6377 H   0  0  0  0  0  0  0  0  0  0  0  0
    0.0713   -0.1186    1.0415 H   0  0  0  0  0  0  0  0  0  0  0  0
    4.7468   -0.1776   -1.2677 H   0  0  0  0  0  0  0  0  0  0  0  0
    6.3214   -0.3323   -0.5194 H   0  0  0  0  0  0  0  0  0  0  0  0
   -6.7575   -0.6739   -0.2535 H   0  0  0  0  0  0  0  0  0  0  0  0
   -3.2826    1.0791   -2.0797 H   0  0  0  0  0  0  0  0  0  0  0  0
   -4.6636    2.0872   -1.6868 H   0  0  0  0  0  0  0  0  0  0  0  0
   -5.2269    2.6101    0.7197 H   0  0  0  0  0  0  0  0  0  0  0  0
   -4.2403    1.9680    2.0217 H   0  0  0  0  0  0  0  0  0  0  0  0
   -4.7464   -2.1221   -0.7970 H   0  0  0  0  0  0  0  0  0  0  0  0
   -3.3233   -1.4068   -1.5414 H   0  0  0  0  0  0  0  0  0  0  0  0
   -4.2899   -0.5172    2.5543 H   0  0  0  0  0  0  0  0  0  0  0  0
   -5.3151   -1.5944    1.6205 H   0  0  0  0  0  0  0  0  0  0  0  0
    1.4657   -2.4677    0.2396 H   0  0  0  0  0  0  0  0  0  0  0  0
   -1.1548    1.0257   -0.6439 H   0  0  0  0  0  0  0  0  0  0  0  0
   -5.3878   -0.2255   -2.2803 H   0  0  0  0  0  0  0  0  0  0  0  0
   -6.3465    0.6642    1.8085 H   0  0  0  0  0  0  0  0  0  0  0  0
   -2.8650    2.3959    0.0008 H   0  0  0  0  0  0  0  0  0  0  0  0
   -2.9659   -1.7975    0.8935 H   0  0  0  0  0  0  0  0  0  0  0  0
   -2.3181    0.5318    1.5435 H   0  0  0  0  0  0  0  0  0  0  0  0
   -6.7383    1.0447   -0.6213 H   0  0  0  0  0  0  0  0  0  0  0  0
  1 18  1  0
  1 25  1  0
  1 26  1  0
  1 27  1  0
 18  2  1  0
  2 28  1  0
  2 29  1  0
  2 30  1  0
  3 19  1  0
  3 31  1  0
  3 32  1  0
  3 33  1  0
  4  6  1  0
  4 18  2  0
  4 34  1  0
  5  7  1  0
  5 19  2  0
  5 35  1  0
 10  6  1  0
  6 36  1  0
  6 37  1  0
  7 16  1  0
  7 38  1  0
  7 39  1  0
  8 16  1  0
  8  9  1  0
  8 40  1  0
  8 41  1  0
 17  9  1  0
  9 42  1  0
  9 43  1  0
 19 10  1  0
 10 44  1  0
 10 45  1  0
 21 11  1  0
 20 11  1  0
 11 62  1  0
 11 46  1  0
 22 12  1  0
 12 20  1  0
 12 47  1  0
 12 48  1  0
 22 13  1  0
 13 21  1  0
 13 49  1  0
 13 50  1  0
 23 14  1  0
 20 14  1  0
 14 51  1  0
 14 52  1  0
 23 15  1  0
 21 15  1  0
 15 53  1  0
 15 54  1  0
 16 55  1  0
 17 24  1  0
 17 56  1  0
 20 57  1  6
 21 58  1  1
 22 24  1  0
 22 59  1  6
 24 23  1  0
 23 60  1  1
 24 61  1  1
M  END
