
     RDKit          3D

 16 17  0  0  0  0  0  0  0  0999 V2000
    1.8836   -0.5699   -0.0180 C   0  0  0  0  0  0  0  0  0  0  0  0
    3.1569    1.3250    0.0010 C   0  0  0  0  0  0  0  0  0  0  0  0
    2.0253    2.1632    0.0205 C   0  0  0  0  0  0  0  0  0  0  0  0
    0.7855    1.5922    0.0201 C   0  0  0  0  0  0  0  0  0  0  0  0
    0.6785    0.1853    0.0002 C   0  0  0  0  0  0  0  0  0  0  0  0
    1.8976   -1.9188   -0.0374 N   0  0  0  0  0  0  0  0  0  0  0  0
    3.0957    0.0209   -0.0172 N   0  0  0  0  0  0  0  0  0  0  0  0
    0.7557   -2.5462   -0.0404 C   0  0  0  0  0  0  0  0  0  0  0  0
   -0.5325   -0.5485   -0.0036 C   0  0  0  0  0  0  0  0  0  0  0  0
   -0.5027   -1.9123   -0.0242 C   0  0  0  0  0  0  0  0  0  0  0  0
    4.1477    1.7665    0.0008 H   0  0  0  0  0  0  0  0  0  0  0  0
    2.1489    3.2365    0.0351 H   0  0  0  0  0  0  0  0  0  0  0  0
   -0.0967    2.2175    0.0342 H   0  0  0  0  0  0  0  0  0  0  0  0
    0.7886   -3.6301   -0.0564 H   0  0  0  0  0  0  0  0  0  0  0  0
   -1.4010   -2.5130   -0.0286 H   0  0  0  0  0  0  0  0  0  0  0  0
   -2.1909    0.3341    0.0192 Br  0  0  0  0  0  0  0  0  0  0  0  0
 16  9  1  0
  9 10  2  0
  9  5  1  0
 10  8  1  0
  4  5  2  0
  4  3  1  0
  5  1  1  0
  8  6  2  0
  3  2  2  0
  1  6  1  0
  1  7  2  0
  2  7  1  0
  2 11  1  0
  3 12  1  0
  4 13  1  0
  8 14  1  0
 10 15  1  0
M  END
