
     RDKit          3D

 58 62  0  0  0  0  0  0  0  0999 V2000
    7.5925   -2.4814   -0.3782 C   0  0  0  0  0  0  0  0  0  0  0  0
    6.8079   -1.2839   -0.2127 N   0  0  0  0  0  0  0  0  0  0  0  0
    7.3085   -0.0150   -0.0186 C   0  0  0  0  0  0  0  0  0  0  0  0
    8.7741    0.2354   -0.0411 C   0  0  0  0  0  0  0  0  0  0  0  0
    6.2750    0.8668    0.1758 C   0  0  0  0  0  0  0  0  0  0  0  0
    6.3475    2.3386    0.4069 C   0  0  0  0  0  0  0  0  0  0  0  0
    5.0707    0.0990    0.1095 C   0  0  0  0  0  0  0  0  0  0  0  0
    3.7224    0.4454    0.2407 C   0  0  0  0  0  0  0  0  0  0  0  0
    5.4442   -1.2387   -0.1232 C   0  0  0  0  0  0  0  0  0  0  0  0
    4.4885   -2.2459   -0.2170 C   0  0  0  0  0  0  0  0  0  0  0  0
    3.1607   -1.8884   -0.0956 C   0  0  0  0  0  0  0  0  0  0  0  0
    2.7656   -0.5529    0.1308 C   0  0  0  0  0  0  0  0  0  0  0  0
    1.3872   -0.3411    0.2805 N   0  0  0  0  0  0  0  0  0  0  0  0
    0.6423    0.7715    0.0833 C   0  0  0  0  0  0  0  0  0  0  0  0
   -0.6688    0.6052    0.2973 N   0  0  0  0  0  0  0  0  0  0  0  0
    1.2217    1.9070   -0.2970 N   0  0  0  0  0  0  0  0  0  0  0  0
    0.4091    2.9403   -0.4808 C   0  0  0  0  0  0  0  0  0  0  0  0
   -0.9566    2.8916   -0.2961 C   0  0  0  0  0  0  0  0  0  0  0  0
   -1.4434    1.6498    0.1106 C   0  0  0  0  0  0  0  0  0  0  0  0
   -2.7987    1.4510    0.3482 N   0  0  0  0  0  0  0  0  0  0  0  0
   -3.3988    0.3122    0.7839 C   0  0  0  0  0  0  0  0  0  0  0  0
   -3.6778    2.4477    0.1663 N   0  0  0  0  0  0  0  0  0  0  0  0
   -4.8485    1.9473    0.4852 C   0  0  0  0  0  0  0  0  0  0  0  0
   -6.0914    2.7617    0.4025 C   0  0  0  0  0  0  0  0  0  0  0  0
   -4.7311    0.5892    0.8934 C   0  0  0  0  0  0  0  0  0  0  0  0
   -5.8256   -0.3368    1.3089 C   0  0  0  0  0  0  0  0  0  0  0  0
   -5.9620   -1.4329    0.3788 N   0  0  0  0  0  0  0  0  0  0  0  0
   -6.4159   -1.1168   -0.9796 C   0  0  0  0  0  0  0  0  0  0  0  0
   -7.0972   -2.3423    0.5653 C   0  0  0  0  0  0  0  0  0  0  0  0
   -7.2144   -2.4225   -0.9674 C   0  0  1  0  0  0  0  0  0  0  0  0
   -8.4722   -2.3544   -1.5652 O   0  0  0  0  0  0  0  0  0  0  0  0
    7.8875   -2.9128    0.5800 H   0  0  0  0  0  0  0  0  0  0  0  0
    7.0195   -3.2230   -0.9298 H   0  0  0  0  0  0  0  0  0  0  0  0
    8.4911   -2.2667   -0.9520 H   0  0  0  0  0  0  0  0  0  0  0  0
    9.2147   -0.0084   -1.0102 H   0  0  0  0  0  0  0  0  0  0  0  0
    8.9850    1.2829    0.1612 H   0  0  0  0  0  0  0  0  0  0  0  0
    9.2987   -0.3568    0.7114 H   0  0  0  0  0  0  0  0  0  0  0  0
    5.8936    2.9008   -0.4127 H   0  0  0  0  0  0  0  0  0  0  0  0
    5.8194    2.6267    1.3187 H   0  0  0  0  0  0  0  0  0  0  0  0
    7.3751    2.6869    0.5072 H   0  0  0  0  0  0  0  0  0  0  0  0
    3.4394    1.4700    0.4266 H   0  0  0  0  0  0  0  0  0  0  0  0
    4.7567   -3.2816   -0.3823 H   0  0  0  0  0  0  0  0  0  0  0  0
    2.4005   -2.6562   -0.1741 H   0  0  0  0  0  0  0  0  0  0  0  0
    0.8399   -1.1628    0.4854 H   0  0  0  0  0  0  0  0  0  0  0  0
    0.8770    3.8666   -0.7946 H   0  0  0  0  0  0  0  0  0  0  0  0
   -1.5895    3.7495   -0.4515 H   0  0  0  0  0  0  0  0  0  0  0  0
   -2.8375   -0.5851    0.9824 H   0  0  0  0  0  0  0  0  0  0  0  0
   -6.8212    2.2984   -0.2633 H   0  0  0  0  0  0  0  0  0  0  0  0
   -6.5664    2.8592    1.3796 H   0  0  0  0  0  0  0  0  0  0  0  0
   -5.8766    3.7607    0.0278 H   0  0  0  0  0  0  0  0  0  0  0  0
   -5.6169   -0.7512    2.2992 H   0  0  0  0  0  0  0  0  0  0  0  0
   -6.7636    0.2344    1.4033 H   0  0  0  0  0  0  0  0  0  0  0  0
   -7.0924   -0.2491   -1.0157 H   0  0  0  0  0  0  0  0  0  0  0  0
   -5.6303   -0.9881   -1.7268 H   0  0  0  0  0  0  0  0  0  0  0  0
   -6.8838   -3.2521    1.1313 H   0  0  0  0  0  0  0  0  0  0  0  0
   -7.9795   -1.8468    0.9946 H   0  0  0  0  0  0  0  0  0  0  0  0
   -6.6191   -3.2532   -1.3606 H   0  0  0  0  0  0  0  0  0  0  0  0
   -8.8424   -3.2414   -1.6000 H   0  0  0  0  0  0  0  0  0  0  0  0
 16 17  2  0
 16 14  1  0
 17 18  1  0
 11 10  1  0
 11 12  2  0
 13 14  1  0
 13 12  1  0
 14 15  2  0
 10  9  2  0
 12  8  1  0
 18 19  2  0
  9  7  1  0
  9  2  1  0
 15 19  1  0
  8  7  2  0
  1  2  1  0
 19 20  1  0
  7  5  1  0
  2  3  1  0
 20 22  1  0
 20 21  1  0
  3  5  2  0
  3  4  1  0
  5  6  1  0
 22 23  2  0
 28 30  1  0
 28 27  1  0
 21 25  2  0
 31 30  1  0
 30 29  1  0
 23 25  1  0
 23 24  1  0
 25 26  1  0
 27 29  1  0
 27 26  1  0
  1 32  1  0
  1 33  1  0
  1 34  1  0
  4 35  1  0
  4 36  1  0
  4 37  1  0
  6 38  1  0
  6 39  1  0
  6 40  1  0
  8 41  1  0
 10 42  1  0
 11 43  1  0
 13 44  1  0
 17 45  1  0
 18 46  1  0
 21 47  1  0
 24 48  1  0
 24 49  1  0
 24 50  1  0
 26 51  1  0
 26 52  1  0
 28 53  1  0
 28 54  1  0
 29 55  1  0
 29 56  1  0
 30 57  1  6
 31 58  1  0
M  END
