
     RDKit          3D

 45 47  0  0  0  0  0  0  0  0999 V2000
    5.1681   -1.8143   -1.4677 F   0  0  0  0  0  0  0  0  0  0  0  0
    5.2064   -0.6958   -0.7295 C   0  0  0  0  0  0  0  0  0  0  0  0
    6.3588    0.0615   -0.7263 C   0  0  0  0  0  0  0  0  0  0  0  0
    6.4053    1.2215    0.0328 C   0  0  0  0  0  0  0  0  0  0  0  0
    5.2891    1.5755    0.7656 C   0  0  0  0  0  0  0  0  0  0  0  0
    5.3313    2.6851    1.5172 F   0  0  0  0  0  0  0  0  0  0  0  0
    4.1345    0.8205    0.7632 C   0  0  0  0  0  0  0  0  0  0  0  0
    4.0703   -0.3447   -0.0059 C   0  0  0  0  0  0  0  0  0  0  0  0
    2.8898   -1.2064   -0.0294 C   0  0  0  0  0  0  0  0  0  0  0  0
    1.6163   -0.7973   -0.1211 C   0  0  0  0  0  0  0  0  0  0  0  0
    0.5301   -1.8126   -0.0711 C   0  0  0  0  0  0  0  0  0  0  0  0
    0.7503   -3.0088   -0.0793 O   0  0  0  0  0  0  0  0  0  0  0  0
   -0.7269   -1.3137   -0.0152 N   0  0  0  0  0  0  0  0  0  0  0  0
    1.2360    0.5208   -0.3188 N   0  0  0  0  0  0  0  0  0  0  0  0
   -0.0269    1.0190   -0.2849 C   0  0  0  0  0  0  0  0  0  0  0  0
   -0.2490    2.2031   -0.4597 O   0  0  0  0  0  0  0  0  0  0  0  0
   -1.0908    0.0304   -0.0080 C   0  0  0  0  0  0  0  0  0  0  0  0
   -2.3468    0.4653    0.2029 C   0  0  0  0  0  0  0  0  0  0  0  0
   -3.5023   -0.3026    0.5802 C   0  0  0  0  0  0  0  0  0  0  0  0
   -3.4537   -1.4651    1.3179 N   0  0  0  0  0  0  0  0  0  0  0  0
   -4.7122   -1.8881    1.4958 C   0  0  0  0  0  0  0  0  0  0  0  0
   -5.5743   -1.0973    0.9049 N   0  0  0  0  0  0  0  0  0  0  0  0
   -4.8520   -0.0969    0.3330 C   0  0  0  0  0  0  0  0  0  0  0  0
   -5.5133    1.0229   -0.4366 C   0  0  1  0  0  0  0  0  0  0  0  0
   -4.8861    1.1626   -1.8296 C   0  0  0  0  0  0  0  0  0  0  0  0
   -7.0064    0.7374   -0.6034 C   0  0  0  0  0  0  0  0  0  0  0  0
   -5.3507    2.3409    0.3351 C   0  0  0  0  0  0  0  0  0  0  0  0
    7.2138   -0.2469   -1.3128 H   0  0  0  0  0  0  0  0  0  0  0  0
    7.2981    1.8317    0.0552 H   0  0  0  0  0  0  0  0  0  0  0  0
    3.3011    1.1177    1.3871 H   0  0  0  0  0  0  0  0  0  0  0  0
    3.0479   -2.2755    0.0224 H   0  0  0  0  0  0  0  0  0  0  0  0
   -1.4635   -2.0039   -0.0813 H   0  0  0  0  0  0  0  0  0  0  0  0
   -2.4974    1.5272    0.0675 H   0  0  0  0  0  0  0  0  0  0  0  0
   -2.6487   -1.8487    1.7894 H   0  0  0  0  0  0  0  0  0  0  0  0
   -4.9483   -2.7715    2.0685 H   0  0  0  0  0  0  0  0  0  0  0  0
   -4.9738    0.2362   -2.3997 H   0  0  0  0  0  0  0  0  0  0  0  0
   -5.3923    1.9502   -2.3920 H   0  0  0  0  0  0  0  0  0  0  0  0
   -3.8294    1.4266   -1.7834 H   0  0  0  0  0  0  0  0  0  0  0  0
   -7.5195    0.6755    0.3564 H   0  0  0  0  0  0  0  0  0  0  0  0
   -7.4681    1.5421   -1.1781 H   0  0  0  0  0  0  0  0  0  0  0  0
   -7.1834   -0.1980   -1.1352 H   0  0  0  0  0  0  0  0  0  0  0  0
   -4.3044    2.6276    0.4502 H   0  0  0  0  0  0  0  0  0  0  0  0
   -5.8531    3.1547   -0.1917 H   0  0  0  0  0  0  0  0  0  0  0  0
   -5.7868    2.2669    1.3326 H   0  0  0  0  0  0  0  0  0  0  0  0
    1.9609    1.1952   -0.5314 H   0  0  0  0  0  0  0  0  0  0  0  0
 22 21  2  0
 22 23  1  0
 24 25  1  6
 21 20  1  0
 23 24  1  0
 23 19  2  0
 24 26  1  0
 24 27  1  0
 20 19  1  0
 19 18  1  0
 18 17  2  0
 13 17  1  0
 13 11  1  0
 17 15  1  0
 12 11  2  0
 11 10  1  0
 15 16  2  0
 15 14  1  0
 10 14  1  0
 10  9  2  0
  9  8  1  0
  8  7  1  0
  8  2  2  0
  7  5  2  0
  1  2  1  0
  2  3  1  0
  5  6  1  0
  5  4  1  0
  3  4  2  0
  3 28  1  0
  4 29  1  0
  7 30  1  0
  9 31  1  0
 13 32  1  0
 18 33  1  0
 20 34  1  0
 21 35  1  0
 25 36  1  0
 25 37  1  0
 25 38  1  0
 26 39  1  0
 26 40  1  0
 26 41  1  0
 27 42  1  0
 27 43  1  0
 27 44  1  0
 14 45  1  0
M  END
