
     RDKit          3D

 50 54  0  0  0  0  0  0  0  0999 V2000
    8.2826    3.4497    9.8890 Cl  0  0  0  0  0  0  0  0  0  0  0  0
    8.4300    2.8641   11.5093 C   0  0  0  0  0  0  0  0  0  0  0  0
    7.7337    1.7352   11.8948 C   0  0  0  0  0  0  0  0  0  0  0  0
    7.8498    1.2308   13.1949 C   0  0  0  0  0  0  0  0  0  0  0  0
    8.6686    1.9137   14.0577 C   0  0  0  0  0  0  0  0  0  0  0  0
    8.9420    1.6508   15.3550 O   0  0  0  0  0  0  0  0  0  0  0  0
    9.8174    2.6746   15.8116 C   0  0  0  0  0  0  0  0  0  0  0  0
   10.0535    3.5463   14.7075 O   0  0  0  0  0  0  0  0  0  0  0  0
    9.3435    3.0599   13.6733 C   0  0  0  0  0  0  0  0  0  0  0  0
    9.2655    3.5700   12.3954 C   0  0  0  0  0  0  0  0  0  0  0  0
    9.9434    4.7312   12.0223 N   0  0  0  0  0  0  0  0  0  0  0  0
   11.2917    4.8821   12.0178 C   0  0  0  0  0  0  0  0  0  0  0  0
   12.1838    3.8422   12.3088 C   0  0  0  0  0  0  0  0  0  0  0  0
   13.5194    4.1769   12.2563 C   0  0  0  0  0  0  0  0  0  0  0  0
   13.9725    5.3865   11.9542 N   0  0  0  0  0  0  0  0  0  0  0  0
   13.0336    6.2990   11.6835 C   0  0  0  0  0  0  0  0  0  0  0  0
   13.5303    7.5294   11.3741 N   0  0  0  0  0  0  0  0  0  0  0  0
   12.9107    8.7275   11.0350 C   0  0  0  0  0  0  0  0  0  0  0  0
   11.5399    8.8954   10.8504 C   0  0  0  0  0  0  0  0  0  0  0  0
   11.0743   10.1560   10.4949 C   0  0  0  0  0  0  0  0  0  0  0  0
   11.9135   11.2390   10.3268 C   0  0  0  0  0  0  0  0  0  0  0  0
   13.2981   11.0864   10.5137 C   0  0  0  0  0  0  0  0  0  0  0  0
   13.7715    9.8190   10.8540 C   0  0  0  0  0  0  0  0  0  0  0  0
   14.1517   12.1802   10.3969 N   0  0  0  0  0  0  0  0  0  0  0  0
   15.5653   11.9814   10.6516 C   0  0  0  0  0  0  0  0  0  0  0  0
   16.2651   13.3186   10.8132 C   0  0  0  0  0  0  0  0  0  0  0  0
   16.0639   14.1626    9.7046 O   0  0  0  0  0  0  0  0  0  0  0  0
   14.6873   14.3931    9.5149 C   0  0  0  0  0  0  0  0  0  0  0  0
   13.9277   13.1010    9.2900 C   0  0  0  0  0  0  0  0  0  0  0  0
   11.7248    6.1008   11.7012 N   0  0  0  0  0  0  0  0  0  0  0  0
    7.0970    1.2281   11.1839 H   0  0  0  0  0  0  0  0  0  0  0  0
    7.3140    0.3410   13.4944 H   0  0  0  0  0  0  0  0  0  0  0  0
    9.3463    3.2319   16.6239 H   0  0  0  0  0  0  0  0  0  0  0  0
   10.7613    2.2373   16.1425 H   0  0  0  0  0  0  0  0  0  0  0  0
    9.4071    5.5108   11.6698 H   0  0  0  0  0  0  0  0  0  0  0  0
   11.8671    2.8377   12.5427 H   0  0  0  0  0  0  0  0  0  0  0  0
   14.2703    3.4233   12.4676 H   0  0  0  0  0  0  0  0  0  0  0  0
   14.5375    7.5625   11.4188 H   0  0  0  0  0  0  0  0  0  0  0  0
   10.8541    8.0762   10.9800 H   0  0  0  0  0  0  0  0  0  0  0  0
   14.8324    9.6478   10.9804 H   0  0  0  0  0  0  0  0  0  0  0  0
   10.0096   10.2947   10.3543 H   0  0  0  0  0  0  0  0  0  0  0  0
   11.4861   12.1993   10.0748 H   0  0  0  0  0  0  0  0  0  0  0  0
   15.7022   11.4310   11.5837 H   0  0  0  0  0  0  0  0  0  0  0  0
   16.0456   11.3976    9.8515 H   0  0  0  0  0  0  0  0  0  0  0  0
   14.2392   12.6485    8.3370 H   0  0  0  0  0  0  0  0  0  0  0  0
   12.8724   13.3497    9.2023 H   0  0  0  0  0  0  0  0  0  0  0  0
   15.9076   13.8027   11.7332 H   0  0  0  0  0  0  0  0  0  0  0  0
   17.3388   13.1556   10.9162 H   0  0  0  0  0  0  0  0  0  0  0  0
   14.2622   14.9189   10.3817 H   0  0  0  0  0  0  0  0  0  0  0  0
   14.5768   15.0382    8.6424 H   0  0  0  0  0  0  0  0  0  0  0  0
  1  2  1  0
  2  3  2  0
  2 10  1  0
  3  4  1  0
  4  5  2  0
  5  6  1  0
  5  9  1  0
  6  7  1  0
  7  8  1  0
  8  9  1  0
  9 10  2  0
 10 11  1  0
 11 12  1  0
 12 13  2  0
 12 30  1  0
 13 14  1  0
 14 15  2  0
 15 16  1  0
 16 17  1  0
 16 30  2  0
 17 18  1  0
 18 19  2  0
 18 23  1  0
 19 20  1  0
 20 21  2  0
 21 22  1  0
 22 23  2  0
 22 24  1  0
 24 25  1  0
 24 29  1  0
 25 26  1  0
 26 27  1  0
 27 28  1  0
 28 29  1  0
  3 31  1  0
  4 32  1  0
  7 33  1  0
  7 34  1  0
 11 35  1  0
 13 36  1  0
 14 37  1  0
 17 38  1  0
 19 39  1  0
 23 40  1  0
 20 41  1  0
 21 42  1  0
 25 43  1  0
 25 44  1  0
 29 45  1  0
 29 46  1  0
 26 47  1  0
 26 48  1  0
 28 49  1  0
 28 50  1  0
M  END
