
     RDKit          3D

118120  0  0  0  0  0  0  0  0999 V2000
   14.9651   -3.6952   -1.3505 C   0  0  0  0  0  0  0  0  0  0  0  0
   13.5157   -3.7521   -0.8880 C   0  0  0  0  0  0  0  0  0  0  0  0
   12.9746   -2.3893   -0.4729 C   0  0  0  0  0  0  0  0  0  0  0  0
   11.5312   -2.4348    0.0118 C   0  0  0  0  0  0  0  0  0  0  0  0
   10.9892   -1.0656    0.4019 C   0  0  0  0  0  0  0  0  0  0  0  0
    9.5544   -1.1219    0.9269 C   0  0  0  0  0  0  0  0  0  0  0  0
    9.0450    0.2284    1.3194 C   0  0  0  0  0  0  0  0  0  0  0  0
    7.9459    0.8456    0.8924 C   0  0  0  0  0  0  0  0  0  0  0  0
    2.5232    1.5509   -0.0329 C   0  0  0  0  0  0  0  0  0  0  0  0
    3.2955    2.5607    0.7631 C   0  0  0  0  0  0  0  0  0  0  0  0
    4.3119    3.3085    0.1746 C   0  0  0  0  0  0  0  0  0  0  0  0
    5.0845    4.1914    0.9118 C   0  0  0  0  0  0  0  0  0  0  0  0
    4.8462    4.3475    2.2745 C   0  0  0  0  0  0  0  0  0  0  0  0
    3.0699    2.7315    2.1244 C   0  0  0  0  0  0  0  0  0  0  0  0
    2.4048   -0.8099   -0.8481 C   0  0  0  0  0  0  0  0  0  0  0  0
   -1.0490   -1.4703   -0.7886 C   0  0  0  0  0  0  0  0  0  0  0  0
   -3.4049   -1.6403   -1.4714 C   0  0  2  0  0  0  0  0  0  0  0  0
   -3.7874   -0.4816   -2.3921 C   0  0  0  0  0  0  0  0  0  0  0  0
   -5.3259    1.0343   -1.3625 C   0  0  0  0  0  0  0  0  0  0  0  0
   -6.7752    1.0984   -0.8834 C   0  0  2  0  0  0  0  0  0  0  0  0
    6.9496    0.3266   -0.0934 C   0  0  0  0  0  0  0  0  0  0  0  0
    5.5807    0.1352    0.5361 C   0  0  0  0  0  0  0  0  0  0  0  0
    5.4385   -0.0840    1.7271 O   0  0  0  0  0  0  0  0  0  0  0  0
    4.5558    0.1922   -0.3380 N   0  0  0  0  0  0  0  0  0  0  0  0
    3.1756    0.1509    0.0504 C   0  0  1  0  0  0  0  0  0  0  0  0
    3.8269    3.6160    2.8780 C   0  0  0  0  0  0  0  0  0  0  0  0
    5.6201    5.2180    2.9571 O   0  0  0  0  0  0  0  0  0  0  0  0
    1.3071   -1.3273   -0.2757 N   0  0  0  0  0  0  0  0  0  0  0  0
    0.3237   -2.1142   -0.9703 C   0  0  1  0  0  0  0  0  0  0  0  0
    0.3020   -3.5846   -0.4962 C   0  0  1  0  0  0  0  0  0  0  0  0
    1.6695   -4.2271   -0.6925 C   0  0  0  0  0  0  0  0  0  0  0  0
   -2.0012   -1.9617   -1.5996 N   0  0  0  0  0  0  0  0  0  0  0  0
   -5.1191   -0.0793   -2.0598 O   0  0  0  0  0  0  0  0  0  0  0  0
   -4.5057    1.8916   -1.1849 O   0  0  0  0  0  0  0  0  0  0  0  0
   -7.0675    2.3766   -0.0909 C   0  0  0  0  0  0  0  0  0  0  0  0
   -7.0889    3.6096   -0.9537 C   0  0  0  0  0  0  0  0  0  0  0  0
   -8.0841    3.7777   -1.9156 C   0  0  0  0  0  0  0  0  0  0  0  0
   -8.1374    4.9028   -2.7214 C   0  0  0  0  0  0  0  0  0  0  0  0
   -7.1815    5.9056   -2.5750 C   0  0  0  0  0  0  0  0  0  0  0  0
   -6.1846    5.7593   -1.6153 C   0  0  0  0  0  0  0  0  0  0  0  0
   -6.1437    4.6203   -0.8231 C   0  0  0  0  0  0  0  0  0  0  0  0
   -7.2715    6.9858   -3.3790 O   0  0  0  0  0  0  0  0  0  0  0  0
   -7.1277   -0.1096   -0.1680 N   0  0  0  0  0  0  0  0  0  0  0  0
   -6.3692   -0.6128    0.8193 C   0  0  0  0  0  0  0  0  0  0  0  0
   -5.3500   -0.0599    1.2012 O   0  0  0  0  0  0  0  0  0  0  0  0
   -6.8153   -1.9773    1.3572 C   0  0  1  0  0  0  0  0  0  0  0  0
   -6.0918   -2.9848    0.5936 N   0  0  0  0  0  0  0  0  0  0  0  0
   -4.7686   -3.2726    0.6667 C   0  0  0  0  0  0  0  0  0  0  0  0
   -4.0666   -3.0198    1.6299 O   0  0  0  0  0  0  0  0  0  0  0  0
   -4.2179   -3.9044   -0.5973 C   0  0  0  0  0  0  0  0  0  0  0  0
   -4.2396   -2.8916   -1.7459 C   0  0  0  0  0  0  0  0  0  0  0  0
   -6.7067   -2.0731    2.8792 C   0  0  1  0  0  0  0  0  0  0  0  0
   -7.6509   -1.0529    3.5121 C   0  0  0  0  0  0  0  0  0  0  0  0
   -7.0429   -3.4786    3.3617 C   0  0  0  0  0  0  0  0  0  0  0  0
   15.3335   -4.6785   -1.6449 H   0  0  0  0  0  0  0  0  0  0  0  0
   15.0804   -3.0282   -2.2073 H   0  0  0  0  0  0  0  0  0  0  0  0
   15.6157   -3.3229   -0.5564 H   0  0  0  0  0  0  0  0  0  0  0  0
   12.8887   -4.1607   -1.6866 H   0  0  0  0  0  0  0  0  0  0  0  0
   13.4263   -4.4473   -0.0477 H   0  0  0  0  0  0  0  0  0  0  0  0
   13.6096   -1.9733    0.3176 H   0  0  0  0  0  0  0  0  0  0  0  0
   13.0536   -1.6974   -1.3186 H   0  0  0  0  0  0  0  0  0  0  0  0
   10.8962   -2.8658   -0.7703 H   0  0  0  0  0  0  0  0  0  0  0  0
   11.4572   -3.1122    0.8696 H   0  0  0  0  0  0  0  0  0  0  0  0
   11.6369   -0.6208    1.1651 H   0  0  0  0  0  0  0  0  0  0  0  0
   11.0325   -0.3958   -0.4625 H   0  0  0  0  0  0  0  0  0  0  0  0
    8.9102   -1.5891    0.1786 H   0  0  0  0  0  0  0  0  0  0  0  0
    9.5286   -1.7791    1.8037 H   0  0  0  0  0  0  0  0  0  0  0  0
    9.6670    0.7600    2.0354 H   0  0  0  0  0  0  0  0  0  0  0  0
    7.7317    1.8348    1.2855 H   0  0  0  0  0  0  0  0  0  0  0  0
    1.4937    1.4800    0.3248 H   0  0  0  0  0  0  0  0  0  0  0  0
    2.4727    1.8557   -1.0819 H   0  0  0  0  0  0  0  0  0  0  0  0
    4.5066    3.2055   -0.8865 H   0  0  0  0  0  0  0  0  0  0  0  0
    5.8701    4.7628    0.4327 H   0  0  0  0  0  0  0  0  0  0  0  0
    2.2864    2.1648    2.6148 H   0  0  0  0  0  0  0  0  0  0  0  0
   -1.2069   -3.4067    1.0860 H   0  0  0  0  0  0  0  0  0  0  0  0
   -0.1193   -4.7736    1.2533 H   0  0  0  0  0  0  0  0  0  0  0  0
    0.4535   -3.1595    1.6371 H   0  0  0  0  0  0  0  0  0  0  0  0
   -3.5576   -1.2953   -0.4463 H   0  0  0  0  0  0  0  0  0  0  0  0
   -3.0851    0.3441   -2.2813 H   0  0  0  0  0  0  0  0  0  0  0  0
   -3.7989   -0.7919   -3.4382 H   0  0  0  0  0  0  0  0  0  0  0  0
   -7.4004    1.0978   -1.7811 H   0  0  0  0  0  0  0  0  0  0  0  0
    6.8723    1.0111   -0.9435 H   0  0  0  0  0  0  0  0  0  0  0  0
    7.2571   -0.6365   -0.5089 H   0  0  0  0  0  0  0  0  0  0  0  0
    4.7579    0.4061   -1.3020 H   0  0  0  0  0  0  0  0  0  0  0  0
    3.1317   -0.1917    1.0854 H   0  0  0  0  0  0  0  0  0  0  0  0
    3.6226    3.7342    3.9364 H   0  0  0  0  0  0  0  0  0  0  0  0
    5.3607    5.2385    3.8846 H   0  0  0  0  0  0  0  0  0  0  0  0
    1.0918   -1.0573    0.6715 H   0  0  0  0  0  0  0  0  0  0  0  0
    0.5843   -2.1082   -2.0316 H   0  0  0  0  0  0  0  0  0  0  0  0
   -0.4073   -4.1108   -1.1433 H   0  0  0  0  0  0  0  0  0  0  0  0
    2.4201   -3.7738   -0.0432 H   0  0  0  0  0  0  0  0  0  0  0  0
    1.6243   -5.2899   -0.4526 H   0  0  0  0  0  0  0  0  0  0  0  0
    2.0147   -4.1304   -1.7230 H   0  0  0  0  0  0  0  0  0  0  0  0
   -1.7346   -2.6178   -2.3182 H   0  0  0  0  0  0  0  0  0  0  0  0
   -8.0488    2.2444    0.3719 H   0  0  0  0  0  0  0  0  0  0  0  0
   -6.3480    2.4844    0.7204 H   0  0  0  0  0  0  0  0  0  0  0  0
   -8.8457    3.0156   -2.0397 H   0  0  0  0  0  0  0  0  0  0  0  0
   -8.9213    5.0101   -3.4609 H   0  0  0  0  0  0  0  0  0  0  0  0
   -5.4337    6.5304   -1.4842 H   0  0  0  0  0  0  0  0  0  0  0  0
   -5.3564    4.5254   -0.0862 H   0  0  0  0  0  0  0  0  0  0  0  0
   -6.5680    7.6136   -3.1797 H   0  0  0  0  0  0  0  0  0  0  0  0
   -7.9565   -0.6003   -0.4615 H   0  0  0  0  0  0  0  0  0  0  0  0
   -7.8677   -2.1338    1.1000 H   0  0  0  0  0  0  0  0  0  0  0  0
   -6.5560   -3.2651   -0.2559 H   0  0  0  0  0  0  0  0  0  0  0  0
   -3.2029   -4.2500   -0.3998 H   0  0  0  0  0  0  0  0  0  0  0  0
   -4.8102   -4.7787   -0.8794 H   0  0  0  0  0  0  0  0  0  0  0  0
   -5.2694   -2.5999   -1.9574 H   0  0  0  0  0  0  0  0  0  0  0  0
   -3.8789   -3.3705   -2.6606 H   0  0  0  0  0  0  0  0  0  0  0  0
   -5.6868   -1.8313    3.1786 H   0  0  0  0  0  0  0  0  0  0  0  0
   -7.5980   -1.1112    4.5997 H   0  0  0  0  0  0  0  0  0  0  0  0
   -7.4040   -0.0275    3.2325 H   0  0  0  0  0  0  0  0  0  0  0  0
   -8.6876   -1.2393    3.2208 H   0  0  0  0  0  0  0  0  0  0  0  0
   -6.3576   -4.2254    2.9629 H   0  0  0  0  0  0  0  0  0  0  0  0
   -6.9861   -3.5279    4.4500 H   0  0  0  0  0  0  0  0  0  0  0  0
   -8.0571   -3.7643    3.0724 H   0  0  0  0  0  0  0  0  0  0  0  0
    2.7518   -1.0311   -1.9972 O   0  0  0  0  0  0  0  0  0  0  0  0
   -1.2580   -0.6192    0.0590 O   0  0  0  0  0  0  0  0  0  0  0  0
   -0.1729   -3.7282    0.9465 C   0  0  0  0  0  0  0  0  0  0  0  0
 53 52  1  0
 52 54  1  0
 52 46  1  0
 47 46  1  0
 47 48  1  0
 46 44  1  0
 49 48  2  0
 45 44  2  0
 40 41  2  0
 40 39  1  0
 48 50  1  0
 44 43  1  0
 42 39  1  0
 41 36  1  0
 39 38  2  0
 50 51  1  0
 43 20  1  0
 36 35  1  0
 36 37  2  0
 38 37  1  0
 35 20  1  0
 51 17  1  0
 20 19  1  0
 33 19  1  0
 33 18  1  0
 19 34  2  0
 18 17  1  0
 17 32  1  0
 32 16  1  0
  2  1  1  0
  2  3  1  0
  4  3  1  0
  4  5  1  0
 16 29  1  0
 16117  2  0
116 15  2  0
 29 30  1  0
 29 28  1  0
 31 30  1  0
 15 28  1  0
 15 25  1  0
  6  5  1  0
  6  7  1  0
 30118  1  0
 21 22  1  0
 21  8  1  0
 24 22  1  0
 24 25  1  0
 22 23  2  0
 25  9  1  0
  7  8  2  0
  9 10  1  0
 14 10  1  0
 14 26  2  0
 10 11  2  0
 26 13  1  0
 11 12  1  0
 13 12  2  0
 13 27  1  0
  1 55  1  0
  1 56  1  0
  1 57  1  0
  2 58  1  0
  2 59  1  0
  3 60  1  0
  3 61  1  0
  4 62  1  0
  4 63  1  0
  5 64  1  0
  5 65  1  0
  6 66  1  0
  6 67  1  0
  7 68  1  0
  8 69  1  0
  9 70  1  0
  9 71  1  0
 11 72  1  0
 12 73  1  0
 14 74  1  0
118 75  1  0
118 76  1  0
118 77  1  0
 17 78  1  1
 18 79  1  0
 18 80  1  0
 20 81  1  6
 21 82  1  0
 21 83  1  0
 24 84  1  0
 25 85  1  1
 26 86  1  0
 27 87  1  0
 28 88  1  0
 29 89  1  6
 30 90  1  6
 31 91  1  0
 31 92  1  0
 31 93  1  0
 32 94  1  0
 35 95  1  0
 35 96  1  0
 37 97  1  0
 38 98  1  0
 40 99  1  0
 41100  1  0
 42101  1  0
 43102  1  0
 46103  1  1
 47104  1  0
 50105  1  0
 50106  1  0
 51107  1  0
 51108  1  0
 52109  1  6
 53110  1  0
 53111  1  0
 53112  1  0
 54113  1  0
 54114  1  0
 54115  1  0
M  END
