
     RDKit          3D

 33 32  0  0  0  0  0  0  0  0999 V2000
    3.8536   -1.3787    0.8393 O   0  0  0  0  0  0  0  0  0  0  0  0
    3.6324   -0.3631    0.2093 C   0  0  0  0  0  0  0  0  0  0  0  0
    4.5736    0.5215   -0.1349 O   0  0  0  0  0  0  0  0  0  0  0  0
    5.9197    0.2396    0.2622 C   0  0  0  0  0  0  0  0  0  0  0  0
    6.7941    1.3531   -0.2627 C   0  0  0  0  0  0  0  0  0  0  0  0
    2.4211    0.0349   -0.2204 N   0  0  0  0  0  0  0  0  0  0  0  0
    1.2384   -0.7854   -0.0919 C   0  0  0  0  0  0  0  0  0  0  0  0
   -0.0102    0.0786   -0.0025 C   0  0  0  0  0  0  0  0  0  0  0  0
   -1.2579   -0.7863    0.0922 C   0  0  0  0  0  0  0  0  0  0  0  0
   -2.4411    0.0302    0.2365 N   0  0  0  0  0  0  0  0  0  0  0  0
   -3.6455   -0.3354   -0.2384 C   0  0  0  0  0  0  0  0  0  0  0  0
   -3.8625   -1.3172   -0.9214 O   0  0  0  0  0  0  0  0  0  0  0  0
   -4.5860    0.5406    0.1288 O   0  0  0  0  0  0  0  0  0  0  0  0
   -5.9297    0.2814   -0.2904 C   0  0  0  0  0  0  0  0  0  0  0  0
   -6.8058    1.3687    0.2842 C   0  0  0  0  0  0  0  0  0  0  0  0
    6.2363   -0.7226   -0.1455 H   0  0  0  0  0  0  0  0  0  0  0  0
    5.9845    0.1795    1.3508 H   0  0  0  0  0  0  0  0  0  0  0  0
    6.4986    2.3211    0.1421 H   0  0  0  0  0  0  0  0  0  0  0  0
    7.8259    1.1685    0.0345 H   0  0  0  0  0  0  0  0  0  0  0  0
    6.7636    1.4073   -1.3510 H   0  0  0  0  0  0  0  0  0  0  0  0
    2.3734    0.8329   -0.8348 H   0  0  0  0  0  0  0  0  0  0  0  0
    1.1502   -1.4774   -0.9369 H   0  0  0  0  0  0  0  0  0  0  0  0
    1.3303   -1.3932    0.8081 H   0  0  0  0  0  0  0  0  0  0  0  0
    0.0651    0.7298    0.8731 H   0  0  0  0  0  0  0  0  0  0  0  0
   -0.0858    0.7256   -0.8812 H   0  0  0  0  0  0  0  0  0  0  0  0
   -1.3579   -1.3901   -0.8094 H   0  0  0  0  0  0  0  0  0  0  0  0
   -1.1626   -1.4819    0.9333 H   0  0  0  0  0  0  0  0  0  0  0  0
   -2.4013    0.7988    0.8879 H   0  0  0  0  0  0  0  0  0  0  0  0
   -5.9880    0.2761   -1.3811 H   0  0  0  0  0  0  0  0  0  0  0  0
   -6.2512   -0.6990    0.0671 H   0  0  0  0  0  0  0  0  0  0  0  0
   -7.8379    1.1944   -0.0186 H   0  0  0  0  0  0  0  0  0  0  0  0
   -6.7739    1.3745    1.3739 H   0  0  0  0  0  0  0  0  0  0  0  0
   -6.5141    2.3545   -0.0779 H   0  0  0  0  0  0  0  0  0  0  0  0
  1  2  2  0
  2  3  1  0
  2  6  1  0
  3  4  1  0
  4  5  1  0
  4 16  1  0
  4 17  1  0
  5 18  1  0
  5 19  1  0
  5 20  1  0
  6  7  1  0
  6 21  1  0
  7  8  1  0
  7 22  1  0
  7 23  1  0
  8  9  1  0
  8 24  1  0
  8 25  1  0
  9 10  1  0
  9 26  1  0
  9 27  1  0
 10 11  1  0
 10 28  1  0
 11 12  2  0
 11 13  1  0
 13 14  1  0
 14 15  1  0
 14 29  1  0
 14 30  1  0
 15 31  1  0
 15 32  1  0
 15 33  1  0
M  END
