
     RDKit          3D

 50 53  0  0  0  0  0  0  0  0999 V2000
    4.9507   -3.6406   -0.5218 F   0  0  0  0  0  0  0  0  0  0  0  0
   -0.3163    2.3705   -0.3055 C   0  0  0  0  0  0  0  0  0  0  0  0
    0.8600    1.4009   -0.1834 C   0  0  2  0  0  0  0  0  0  0  0  0
    4.6129   -2.3795   -0.2400 C   0  0  0  0  0  0  0  0  0  0  0  0
    3.7969   -2.1356    0.8487 C   0  0  0  0  0  0  0  0  0  0  0  0
    3.4486   -0.8256    1.1361 C   0  0  0  0  0  0  0  0  0  0  0  0
    5.0966   -1.3662   -1.0488 C   0  0  0  0  0  0  0  0  0  0  0  0
    4.7441   -0.0600   -0.7586 C   0  0  0  0  0  0  0  0  0  0  0  0
    3.9216    0.2023    0.3307 C   0  0  0  0  0  0  0  0  0  0  0  0
    3.3960    1.8660    0.6341 S   0  0  1  0  0  0  0  0  0  0  0  0
    2.9246    1.9256    2.0078 O   0  0  0  0  0  0  0  0  0  0  0  0
    4.4431    2.7650    0.1792 O   0  0  0  0  0  0  0  0  0  0  0  0
    2.1063    2.1511   -0.3348 N   0  0  0  0  0  0  0  0  0  0  0  0
    0.7455    0.2583   -1.1949 C   0  0  0  0  0  0  0  0  0  0  0  0
   -0.4900   -0.6041   -0.9373 C   0  0  0  0  0  0  0  0  0  0  0  0
   -1.6604    0.2726   -0.6642 C   0  0  0  0  0  0  0  0  0  0  0  0
   -1.5954    1.6062   -0.3814 C   0  0  0  0  0  0  0  0  0  0  0  0
   -2.9374    2.0518   -0.1779 C   0  0  0  0  0  0  0  0  0  0  0  0
   -3.7692    0.9223   -0.3486 C   0  0  0  0  0  0  0  0  0  0  0  0
   -5.1527    0.9977   -0.2067 C   0  0  0  0  0  0  0  0  0  0  0  0
   -5.6988    2.2315    0.1020 C   0  0  0  0  0  0  0  0  0  0  0  0
   -4.8897    3.3652    0.2708 C   0  0  0  0  0  0  0  0  0  0  0  0
   -3.5161    3.2856    0.1333 C   0  0  0  0  0  0  0  0  0  0  0  0
   -2.9702   -0.1485   -0.6571 N   0  0  0  0  0  0  0  0  0  0  0  0
   -3.4252   -1.5132   -0.7682 C   0  0  0  0  0  0  0  0  0  0  0  0
   -3.4840   -2.1956    0.5925 C   0  0  0  0  0  0  0  0  0  0  0  0
   -4.0129   -3.6000    0.5141 C   0  0  0  0  0  0  0  0  0  0  0  0
   -4.3859   -4.1399   -0.4974 O   0  0  0  0  0  0  0  0  0  0  0  0
   -4.0257   -4.1881    1.7040 O   0  0  0  0  0  0  0  0  0  0  0  0
   -0.1803    2.9985   -1.1937 H   0  0  0  0  0  0  0  0  0  0  0  0
    0.8438    0.9794    0.8260 H   0  0  0  0  0  0  0  0  0  0  0  0
    3.4420   -2.9502    1.4655 H   0  0  0  0  0  0  0  0  0  0  0  0
    2.8138   -0.6202    1.9869 H   0  0  0  0  0  0  0  0  0  0  0  0
    5.7379   -1.5917   -1.8902 H   0  0  0  0  0  0  0  0  0  0  0  0
    5.1170    0.7402   -1.3833 H   0  0  0  0  0  0  0  0  0  0  0  0
    2.3689    2.3613   -1.2923 H   0  0  0  0  0  0  0  0  0  0  0  0
    0.6974    0.6812   -2.2031 H   0  0  0  0  0  0  0  0  0  0  0  0
    1.6352   -0.3718   -1.1562 H   0  0  0  0  0  0  0  0  0  0  0  0
   -0.6673   -1.2503   -1.8007 H   0  0  0  0  0  0  0  0  0  0  0  0
   -0.3121   -1.2755   -0.0896 H   0  0  0  0  0  0  0  0  0  0  0  0
   -5.7878    0.1294   -0.3310 H   0  0  0  0  0  0  0  0  0  0  0  0
   -6.7712    2.3217    0.2168 H   0  0  0  0  0  0  0  0  0  0  0  0
   -5.3509    4.3135    0.5150 H   0  0  0  0  0  0  0  0  0  0  0  0
   -2.8979    4.1650    0.2691 H   0  0  0  0  0  0  0  0  0  0  0  0
   -4.4061   -1.5112   -1.2438 H   0  0  0  0  0  0  0  0  0  0  0  0
   -2.7568   -2.0510   -1.4399 H   0  0  0  0  0  0  0  0  0  0  0  0
   -2.4921   -2.2231    1.0520 H   0  0  0  0  0  0  0  0  0  0  0  0
   -4.1153   -1.6256    1.2808 H   0  0  0  0  0  0  0  0  0  0  0  0
   -4.3738   -5.0890    1.6249 H   0  0  0  0  0  0  0  0  0  0  0  0
   -0.3137    3.0486    0.5517 H   0  0  0  0  0  0  0  0  0  0  0  0
  7  8  1  0
  7  4  2  0
  8  9  2  0
 12 10  2  0
  1  4  1  0
  4  5  1  0
  9 10  1  0
  9  6  1  0
 10 13  1  6
 10 11  2  0
 13  3  1  0
  5  6  2  0
 14  3  1  0
 14 15  1  0
  3  2  1  0
  2 17  1  0
 15 16  1  0
 17 16  2  0
 17 18  1  0
 16 24  1  0
 25 24  1  0
 25 26  1  0
 18 23  2  0
 18 19  1  0
 24 19  1  0
 23 22  1  0
 26 27  1  0
 19 20  2  0
 28 27  2  0
 27 29  1  0
 22 21  2  0
 20 21  1  0
  2 50  1  0
  2 30  1  0
  3 31  1  1
  5 32  1  0
  6 33  1  0
  7 34  1  0
  8 35  1  0
 13 36  1  0
 14 37  1  0
 14 38  1  0
 15 39  1  0
 15 40  1  0
 20 41  1  0
 21 42  1  0
 22 43  1  0
 23 44  1  0
 25 45  1  0
 25 46  1  0
 26 47  1  0
 26 48  1  0
 29 49  1  0
M  END
