
     RDKit          3D

 38 39  0  0  0  0  0  0  0  0999 V2000
    0.3584    0.5093    0.8815 N   0  0  0  0  0  0  0  0  0  0  0  0
    1.2974    1.5707    1.1407 C   0  0  0  0  0  0  0  0  0  0  0  0
    2.7345    1.1152    1.0685 C   0  0  0  0  0  0  0  0  0  0  0  0
    3.1489    0.2200    0.0921 C   0  0  0  0  0  0  0  0  0  0  0  0
    4.4810   -0.1589    0.0394 C   0  0  0  0  0  0  0  0  0  0  0  0
    4.9018   -1.1050   -0.9856 N   0  0  0  0  0  0  0  0  0  0  0  0
    4.0671   -1.5201   -1.7547 O   0  0  0  0  0  0  0  0  0  0  0  0
    6.0656   -1.4281   -1.0161 O   0  0  0  0  0  0  0  0  0  0  0  0
    5.4238    0.3294    0.9322 C   0  0  0  0  0  0  0  0  0  0  0  0
    5.0024    1.2224    1.9021 C   0  0  0  0  0  0  0  0  0  0  0  0
    3.6709    1.6078    1.9717 C   0  0  0  0  0  0  0  0  0  0  0  0
   -0.4563    0.4648   -0.1907 C   0  0  0  0  0  0  0  0  0  0  0  0
   -0.4977    1.3261   -1.0519 O   0  0  0  0  0  0  0  0  0  0  0  0
   -1.2938   -0.7736   -0.2617 C   0  0  0  0  0  0  0  0  0  0  0  0
   -0.6897   -2.0195   -0.3361 C   0  0  0  0  0  0  0  0  0  0  0  0
   -1.4330   -3.1841   -0.4722 C   0  0  0  0  0  0  0  0  0  0  0  0
   -2.8039   -3.0591   -0.5171 C   0  0  0  0  0  0  0  0  0  0  0  0
   -3.5538   -4.1608   -0.6458 F   0  0  0  0  0  0  0  0  0  0  0  0
   -3.4560   -1.8412   -0.4327 C   0  0  0  0  0  0  0  0  0  0  0  0
   -2.6918   -0.6861   -0.3081 C   0  0  0  0  0  0  0  0  0  0  0  0
   -3.2119    0.5445   -0.1975 O   0  0  0  0  0  0  0  0  0  0  0  0
   -4.6062    0.6905   -0.1704 C   0  0  0  0  0  0  0  0  0  0  0  0
   -4.9040    2.1600    0.0070 C   0  0  0  0  0  0  0  0  0  0  0  0
   -4.0777    3.0218    0.1230 O   0  0  0  0  0  0  0  0  0  0  0  0
   -6.2135    2.3587    0.0156 O   0  0  0  0  0  0  0  0  0  0  0  0
    0.2732   -0.2127    1.5798 H   0  0  0  0  0  0  0  0  0  0  0  0
    1.1260    2.3652    0.4141 H   0  0  0  0  0  0  0  0  0  0  0  0
    1.0999    1.9970    2.1257 H   0  0  0  0  0  0  0  0  0  0  0  0
    2.4390   -0.1798   -0.6184 H   0  0  0  0  0  0  0  0  0  0  0  0
    6.4583    0.0238    0.8847 H   0  0  0  0  0  0  0  0  0  0  0  0
    5.7157    1.6125    2.6149 H   0  0  0  0  0  0  0  0  0  0  0  0
    3.3564    2.2965    2.7464 H   0  0  0  0  0  0  0  0  0  0  0  0
    0.3901   -2.0933   -0.3040 H   0  0  0  0  0  0  0  0  0  0  0  0
   -0.9560   -4.1519   -0.5419 H   0  0  0  0  0  0  0  0  0  0  0  0
   -4.5367   -1.8219   -0.4625 H   0  0  0  0  0  0  0  0  0  0  0  0
   -5.0744    0.3410   -1.0982 H   0  0  0  0  0  0  0  0  0  0  0  0
   -5.0598    0.1329    0.6578 H   0  0  0  0  0  0  0  0  0  0  0  0
   -6.4096    3.3010    0.1294 H   0  0  0  0  0  0  0  0  0  0  0  0
  8  6  1  0
  7  6  2  0
  6  5  1  0
  9  5  1  0
  9 10  2  0
  5  4  2  0
 10 11  1  0
  4  3  1  0
 11  3  2  0
  3  2  1  0
  2  1  1  0
 13 12  2  0
 12  1  1  0
 12 14  1  0
 15 14  2  0
 15 16  1  0
 14 20  1  0
 16 17  2  0
 24 23  2  0
 20 21  1  0
 20 19  2  0
 21 22  1  0
 17 19  1  0
 17 18  1  0
 23 22  1  0
 23 25  1  0
  1 26  1  0
  2 27  1  0
  2 28  1  0
  4 29  1  0
  9 30  1  0
 10 31  1  0
 11 32  1  0
 15 33  1  0
 16 34  1  0
 19 35  1  0
 22 36  1  0
 22 37  1  0
 25 38  1  0
M  CHG  2   6   1   8  -1
M  END
