
     RDKit          3D

 31 32  0  0  0  0  0  0  0  0999 V2000
   -1.8502    0.4643    0.0021 C   0  0  1  0  0  0  0  0  0  0  0  0
   -4.6345   -0.5249   -0.0060 C   0  0  0  0  0  0  0  0  0  0  0  0
   -2.4906   -0.1348    1.2597 C   0  0  0  0  0  0  0  0  0  0  0  0
    4.6584    0.8831    0.0197 O   0  0  0  0  0  0  0  0  0  0  0  0
    4.3597   -1.3248   -0.0009 O   0  0  0  0  0  0  0  0  0  0  0  0
    2.4419    0.0242    0.0046 C   0  0  0  0  0  0  0  0  0  0  0  0
    1.8583    1.2887   -0.0082 C   0  0  0  0  0  0  0  0  0  0  0  0
    0.4803    1.4240   -0.0094 C   0  0  0  0  0  0  0  0  0  0  0  0
   -0.3535    0.3076    0.0032 C   0  0  0  0  0  0  0  0  0  0  0  0
    0.2407   -0.9552    0.0146 C   0  0  0  0  0  0  0  0  0  0  0  0
    1.6169   -1.1010    0.0154 C   0  0  0  0  0  0  0  0  0  0  0  0
   -2.4856   -0.1290   -1.2611 C   0  0  0  0  0  0  0  0  0  0  0  0
   -3.9991    0.0613   -1.2618 C   0  0  0  0  0  0  0  0  0  0  0  0
   -4.0042    0.0556    1.2553 C   0  0  0  0  0  0  0  0  0  0  0  0
   -2.0691    1.5391    0.0044 H   0  0  0  0  0  0  0  0  0  0  0  0
   -5.7125   -0.3464   -0.0071 H   0  0  0  0  0  0  0  0  0  0  0  0
   -4.5000   -1.6122   -0.0076 H   0  0  0  0  0  0  0  0  0  0  0  0
   -2.2613   -1.2045    1.3171 H   0  0  0  0  0  0  0  0  0  0  0  0
   -2.0524    0.3235    2.1502 H   0  0  0  0  0  0  0  0  0  0  0  0
    5.3283   -1.3321    0.0070 H   0  0  0  0  0  0  0  0  0  0  0  0
    2.4826    2.1724   -0.0170 H   0  0  0  0  0  0  0  0  0  0  0  0
    0.0454    2.4164   -0.0195 H   0  0  0  0  0  0  0  0  0  0  0  0
   -0.3789   -1.8436    0.0232 H   0  0  0  0  0  0  0  0  0  0  0  0
    2.0381   -2.0970    0.0254 H   0  0  0  0  0  0  0  0  0  0  0  0
   -2.0440    0.3341   -2.1473 H   0  0  0  0  0  0  0  0  0  0  0  0
   -2.2550   -1.1983   -1.3227 H   0  0  0  0  0  0  0  0  0  0  0  0
   -4.4299   -0.3982   -2.1546 H   0  0  0  0  0  0  0  0  0  0  0  0
   -4.2287    1.1308   -1.3230 H   0  0  0  0  0  0  0  0  0  0  0  0
   -4.2342    1.1248    1.3210 H   0  0  0  0  0  0  0  0  0  0  0  0
   -4.4377   -0.4087    2.1445 H   0  0  0  0  0  0  0  0  0  0  0  0
    3.9192   -0.0733    0.0087 C   0  0  0  0  0  0  0  0  0  0  0  0
  4 31  2  0
 31  5  1  0
 31  6  1  0
 11  6  2  0
 11 10  1  0
  6  7  1  0
 10  9  2  0
  3 14  1  0
  3  1  1  0
  7  8  2  0
  9  8  1  0
  9  1  1  0
 14  2  1  0
  1 12  1  0
  2 13  1  0
 12 13  1  0
  1 15  1  1
  2 16  1  0
  2 17  1  0
  3 18  1  0
  3 19  1  0
  5 20  1  0
  7 21  1  0
  8 22  1  0
 10 23  1  0
 11 24  1  0
 12 25  1  0
 12 26  1  0
 13 27  1  0
 13 28  1  0
 14 29  1  0
 14 30  1  0
M  END
