
     RDKit          3D

 38 37  0  0  0  0  0  0  0  0999 V2000
   -7.7872   -0.5119    0.0199 C   0  0  0  0  0  0  0  0  0  0  0  0
   -6.5176    0.3254   -0.0053 C   0  0  0  0  0  0  0  0  0  0  0  0
   -5.2606   -0.5297    0.0100 C   0  0  0  0  0  0  0  0  0  0  0  0
   -2.8421   -0.4967   -0.0053 C   0  0  0  0  0  0  0  0  0  0  0  0
   -1.6079    0.3913   -0.0301 C   0  0  0  0  0  0  0  0  0  0  0  0
   -0.3129   -0.4099   -0.0214 C   0  0  0  0  0  0  0  0  0  0  0  0
    0.9267    0.4768   -0.0235 C   0  0  0  0  0  0  0  0  0  0  0  0
    2.2059   -0.3558   -0.0311 C   0  0  0  0  0  0  0  0  0  0  0  0
    3.4812    0.4863    0.0266 C   0  0  1  0  0  0  0  0  0  0  0  0
    4.7406   -0.4093   -0.0337 C   0  0  1  0  0  0  0  0  0  0  0  0
    5.8586    0.3156    0.0355 F   0  0  0  0  0  0  0  0  0  0  0  0
    4.7749   -1.2881    0.9766 F   0  0  0  0  0  0  0  0  0  0  0  0
    4.7956   -1.1141   -1.1721 F   0  0  0  0  0  0  0  0  0  0  0  0
   -4.0622    0.2871   -0.0082 N   0  0  0  0  0  0  0  0  0  0  0  0
   -8.9694    0.3385    0.0156 N   0  0  0  0  0  0  0  0  0  0  0  0
    3.5751    1.4029   -1.0146 O   0  0  0  0  0  0  0  0  0  0  0  0
    3.5773    1.2463    1.1857 O   0  0  0  0  0  0  0  0  0  0  0  0
   -7.8168   -1.1433   -0.8726 H   0  0  0  0  0  0  0  0  0  0  0  0
   -7.7445   -1.1973    0.8791 H   0  0  0  0  0  0  0  0  0  0  0  0
   -6.5259    0.9586   -0.8986 H   0  0  0  0  0  0  0  0  0  0  0  0
   -6.5026    0.9984    0.8584 H   0  0  0  0  0  0  0  0  0  0  0  0
   -5.2461   -1.1354    0.9225 H   0  0  0  0  0  0  0  0  0  0  0  0
   -5.2959   -1.2451   -0.8288 H   0  0  0  0  0  0  0  0  0  0  0  0
   -2.7951   -1.2084   -0.8467 H   0  0  0  0  0  0  0  0  0  0  0  0
   -2.8290   -1.1049    0.9057 H   0  0  0  0  0  0  0  0  0  0  0  0
   -1.6348    1.0269   -0.9224 H   0  0  0  0  0  0  0  0  0  0  0  0
   -1.6336    1.0652    0.8318 H   0  0  0  0  0  0  0  0  0  0  0  0
   -0.2921   -1.0605    0.8596 H   0  0  0  0  0  0  0  0  0  0  0  0
   -0.2868   -1.0742   -0.8918 H   0  0  0  0  0  0  0  0  0  0  0  0
    0.8958    1.1332   -0.8972 H   0  0  0  0  0  0  0  0  0  0  0  0
    0.9005    1.1285    0.8540 H   0  0  0  0  0  0  0  0  0  0  0  0
    2.1916   -1.0462    0.8177 H   0  0  0  0  0  0  0  0  0  0  0  0
    2.2210   -0.9828   -0.9276 H   0  0  0  0  0  0  0  0  0  0  0  0
   -4.0754    0.8632   -0.8429 H   0  0  0  0  0  0  0  0  0  0  0  0
   -9.8002   -0.2391   -0.0025 H   0  0  0  0  0  0  0  0  0  0  0  0
   -9.0133    0.8466    0.8909 H   0  0  0  0  0  0  0  0  0  0  0  0
    3.1707    1.0476   -1.8135 H   0  0  0  0  0  0  0  0  0  0  0  0
    3.0910    0.8275    1.9036 H   0  0  0  0  0  0  0  0  0  0  0  0
  9 16  1  6
 10 12  1  1
 17  9  1  0
  9 10  1  0
  9  8  1  0
 10 13  1  0
 10 11  1  0
  1 15  1  0
  1  2  1  0
  7  8  1  0
  7  6  1  0
  5  6  1  0
  5  4  1  0
  3  2  1  0
  3 14  1  0
 14  4  1  0
  1 18  1  0
  1 19  1  0
  2 20  1  0
  2 21  1  0
  3 22  1  0
  3 23  1  0
  4 24  1  0
  4 25  1  0
  5 26  1  0
  5 27  1  0
  6 28  1  0
  6 29  1  0
  7 30  1  0
  7 31  1  0
  8 32  1  0
  8 33  1  0
 14 34  1  0
 15 35  1  0
 15 36  1  0
 16 37  1  0
 17 38  1  0
M  END
