
     RDKit          3D

 17 16  0  0  0  0  0  0  0  0999 V2000
   -1.7180    0.1558   -0.4148 N   0  0  0  0  0  0  0  0  0  0  0  0
   -0.3074    0.4274   -0.5709 C   0  0  1  0  0  0  0  0  0  0  0  0
    0.6249   -0.1432    0.5068 C   0  0  0  0  0  0  0  0  0  0  0  0
    0.1755    0.5656    2.0618 S   0  0  0  0  0  0  0  0  0  0  0  0
    0.7519   -0.6335    3.2017 C   0  0  0  0  0  0  0  0  0  0  0  0
    0.1866   -0.1220   -1.9016 C   0  0  0  0  0  0  0  0  0  0  0  0
    0.0246   -1.2454   -2.3805 O   0  0  0  0  0  0  0  0  0  0  0  0
    0.8981    0.7777   -2.6305 O   0  0  0  0  0  0  0  0  0  0  0  0
   -2.0217    0.4487    0.4951 H   0  0  0  0  0  0  0  0  0  0  0  0
   -1.9152   -0.8183   -0.5422 H   0  0  0  0  0  0  0  0  0  0  0  0
   -0.1845    1.5546   -0.5873 H   0  0  0  0  0  0  0  0  0  0  0  0
    1.6800    0.1229    0.2547 H   0  0  0  0  0  0  0  0  0  0  0  0
    0.5513   -1.2571    0.5427 H   0  0  0  0  0  0  0  0  0  0  0  0
    0.4714   -0.2552    4.2124 H   0  0  0  0  0  0  0  0  0  0  0  0
    0.2773   -1.6272    3.0400 H   0  0  0  0  0  0  0  0  0  0  0  0
    1.8572   -0.7551    3.1544 H   0  0  0  0  0  0  0  0  0  0  0  0
    1.1844    0.3692   -3.4648 H   0  0  0  0  0  0  0  0  0  0  0  0
  1  2  1  0
  1  9  1  0
  1 10  1  0
  2  3  1  0
  2  6  1  0
  2 11  1  6
  3  4  1  0
  3 12  1  0
  3 13  1  0
  4  5  1  0
  5 14  1  0
  5 15  1  0
  5 16  1  0
  6  7  2  0
  6  8  1  0
  8 17  1  0
M  END
