
     RDKit          3D

 20 20  0  0  0  0  0  0  0  0999 V2000
   -0.6764    1.4450    0.1306 C   0  0  0  0  0  0  0  0  0  0  0  0
    0.5990    0.7127   -0.2781 C   0  0  2  0  0  0  0  0  0  0  0  0
    0.5981   -0.7007    0.2816 C   0  0  1  0  0  0  0  0  0  0  0  0
   -0.6481   -1.4515   -0.1804 C   0  0  0  0  0  0  0  0  0  0  0  0
   -1.9290   -0.7266    0.2158 C   0  0  0  0  0  0  0  0  0  0  0  0
   -1.9294    0.7014   -0.3166 C   0  0  0  0  0  0  0  0  0  0  0  0
    1.7835   -1.3431   -0.1384 O   0  0  0  0  0  0  0  0  0  0  0  0
    1.7546    1.3731    0.1938 O   0  0  0  0  0  0  0  0  0  0  0  0
   -0.6863    1.5580    1.2205 H   0  0  0  0  0  0  0  0  0  0  0  0
   -0.6634    2.4553   -0.2898 H   0  0  0  0  0  0  0  0  0  0  0  0
    0.6192    0.6391   -1.3782 H   0  0  0  0  0  0  0  0  0  0  0  0
    0.5690   -0.6265    1.3816 H   0  0  0  0  0  0  0  0  0  0  0  0
   -0.6109   -1.5647   -1.2697 H   0  0  0  0  0  0  0  0  0  0  0  0
   -0.6381   -2.4614    0.2412 H   0  0  0  0  0  0  0  0  0  0  0  0
   -2.7965   -1.2743   -0.1581 H   0  0  0  0  0  0  0  0  0  0  0  0
   -2.0202   -0.7097    1.3069 H   0  0  0  0  0  0  0  0  0  0  0  0
   -2.8188    1.2354    0.0243 H   0  0  0  0  0  0  0  0  0  0  0  0
   -1.9784    0.6843   -1.4104 H   0  0  0  0  0  0  0  0  0  0  0  0
    1.7434   -2.2578    0.1575 H   0  0  0  0  0  0  0  0  0  0  0  0
    1.7257    2.2807   -0.1250 H   0  0  0  0  0  0  0  0  0  0  0  0
  7  3  1  0
  3  4  1  0
  3  2  1  0
  4  5  1  0
  2  1  1  0
  2  8  1  0
  1  6  1  0
  5  6  1  0
  1  9  1  0
  1 10  1  0
  2 11  1  6
  3 12  1  1
  4 13  1  0
  4 14  1  0
  5 15  1  0
  5 16  1  0
  6 17  1  0
  6 18  1  0
  7 19  1  0
  8 20  1  0
M  END
