
     RDKit          3D

 38 39  0  0  0  0  0  0  0  0999 V2000
    3.8538   -2.0385    0.7136 O   0  0  0  0  0  0  0  0  0  0  0  0
    3.1775   -1.0978    0.3260 C   0  0  0  0  0  0  0  0  0  0  0  0
    3.6986    0.1051    0.0122 N   0  0  0  0  0  0  0  0  0  0  0  0
    5.1082    0.3770    0.1264 C   0  0  1  0  0  0  0  0  0  0  0  0
    5.8815    0.0214   -1.1401 C   0  0  0  0  0  0  0  0  0  0  0  0
    5.4635    0.9056   -2.1499 O   0  0  0  0  0  0  0  0  0  0  0  0
    1.7129   -1.2192    0.1944 C   0  0  0  0  0  0  0  0  0  0  0  0
    0.9863   -2.3759    0.0536 C   0  0  0  0  0  0  0  0  0  0  0  0
    1.5210   -3.7651   -0.0413 C   0  0  0  0  0  0  0  0  0  0  0  0
   -0.3572   -2.1841   -0.0097 N   0  0  0  0  0  0  0  0  0  0  0  0
   -0.6905   -0.9316    0.0854 C   0  0  0  0  0  0  0  0  0  0  0  0
   -2.0732   -0.4580    0.0644 C   0  0  0  0  0  0  0  0  0  0  0  0
   -3.1125   -1.3875    0.0031 C   0  0  0  0  0  0  0  0  0  0  0  0
   -4.4284   -0.9662   -0.0162 C   0  0  0  0  0  0  0  0  0  0  0  0
   -4.7272    0.3922    0.0235 C   0  0  0  0  0  0  0  0  0  0  0  0
   -6.1571    0.8341    0.0512 C   0  0  1  0  0  0  0  0  0  0  0  0
   -6.9356    0.0654   -0.7186 F   0  0  0  0  0  0  0  0  0  0  0  0
   -6.6634    0.7740    1.2922 F   0  0  0  0  0  0  0  0  0  0  0  0
   -6.3085    2.0940   -0.3679 F   0  0  0  0  0  0  0  0  0  0  0  0
   -3.6998    1.3244    0.0865 C   0  0  0  0  0  0  0  0  0  0  0  0
   -2.3828    0.8998    0.1048 C   0  0  0  0  0  0  0  0  0  0  0  0
    0.6497    0.1333    0.2633 S   0  0  0  0  0  0  0  0  0  0  0  0
    5.5133   -0.2198    0.9475 H   0  0  0  0  0  0  0  0  0  0  0  0
    6.9558    0.0946   -0.9399 H   0  0  0  0  0  0  0  0  0  0  0  0
    5.6688   -1.0247   -1.3872 H   0  0  0  0  0  0  0  0  0  0  0  0
    5.9507    0.7036   -2.9540 H   0  0  0  0  0  0  0  0  0  0  0  0
    1.8030   -4.1433    0.9418 H   0  0  0  0  0  0  0  0  0  0  0  0
    0.7562   -4.4225   -0.4490 H   0  0  0  0  0  0  0  0  0  0  0  0
    2.4041   -3.8181   -0.6738 H   0  0  0  0  0  0  0  0  0  0  0  0
   -2.8899   -2.4449   -0.0289 H   0  0  0  0  0  0  0  0  0  0  0  0
   -5.2137   -1.7086   -0.0631 H   0  0  0  0  0  0  0  0  0  0  0  0
   -3.9044    2.3854    0.1180 H   0  0  0  0  0  0  0  0  0  0  0  0
   -1.6022    1.6491    0.1471 H   0  0  0  0  0  0  0  0  0  0  0  0
    5.2977    1.8457    0.4651 C   0  0  0  0  0  0  0  0  0  0  0  0
    6.5693    2.1200    0.6999 O   0  0  0  0  0  0  0  0  0  0  0  0
    4.4091    2.6554    0.5116 O   0  0  0  0  0  0  0  0  0  0  0  0
    3.1365    0.7888   -0.4704 H   0  0  0  0  0  0  0  0  0  0  0  0
    6.6818    3.0638    0.8898 H   0  0  0  0  0  0  0  0  0  0  0  0
 16 19  1  6
 17 16  1  0
 16 18  1  0
 16 15  1  0
 20 15  2  0
 20 21  1  0
 15 14  1  0
 21 12  2  0
 14 13  2  0
 12 13  1  0
 12 11  1  0
 10 11  2  0
 10  8  1  0
 11 22  1  0
  9  8  1  0
  8  7  2  0
 22  7  1  0
  7  2  1  0
  3  2  1  0
  3  4  1  0
  2  1  2  0
  4  5  1  0
  5  6  1  0
  4 23  1  1
  5 24  1  0
  5 25  1  0
  6 26  1  0
  9 27  1  0
  9 28  1  0
  9 29  1  0
 13 30  1  0
 14 31  1  0
 20 32  1  0
 21 33  1  0
  4 34  1  0
 34 35  1  0
 34 36  2  0
  3 37  1  0
 35 38  1  0
M  END
