
     RDKit          3D

 14 14  0  0  0  0  0  0  0  0999 V2000
    3.1558   -0.6676   -0.1189 N   0  0  0  0  0  0  0  0  0  0  0  0
   -2.2776   -1.3504   -0.0027 O   0  0  0  0  0  0  0  0  0  0  0  0
   -2.4868    0.8818    0.0733 O   0  0  0  0  0  0  0  0  0  0  0  0
    0.1285    1.2357    0.0427 O   0  0  0  0  0  0  0  0  0  0  0  0
    1.8713   -0.1601   -0.0217 C   0  0  0  0  0  0  0  0  0  0  0  0
    1.4757    1.1470    0.0276 C   0  0  0  0  0  0  0  0  0  0  0  0
    0.6667   -0.9188   -0.0308 C   0  0  0  0  0  0  0  0  0  0  0  0
   -0.3515   -0.0173    0.0126 C   0  0  0  0  0  0  0  0  0  0  0  0
   -1.7908   -0.2444    0.0262 C   0  0  0  0  0  0  0  0  0  0  0  0
    3.8685   -0.0228    0.1872 H   0  0  0  0  0  0  0  0  0  0  0  0
    3.2726   -1.5492    0.3567 H   0  0  0  0  0  0  0  0  0  0  0  0
   -3.4349    0.6826    0.0783 H   0  0  0  0  0  0  0  0  0  0  0  0
    2.0274    2.0731    0.0495 H   0  0  0  0  0  0  0  0  0  0  0  0
    0.5740   -1.9930   -0.0632 H   0  0  0  0  0  0  0  0  0  0  0  0
  1  5  1  0
  1 10  1  0
  1 11  1  0
  2  9  2  0
  9  3  1  0
  3 12  1  0
  8  4  1  0
  4  6  1  0
  7  5  1  0
  5  6  2  0
  6 13  1  0
  7  8  2  0
  7 14  1  0
  9  8  1  0
M  END
