
     RDKit          3D

 52 52  0  0  0  0  0  0  0  0999 V2000
   10.8536    2.9161   -0.5452 C   0  0  0  0  0  0  0  0  0  0  0  0
   -7.3548    2.1352    1.9714 O   0  0  0  0  0  0  0  0  0  0  0  0
   -5.3134   -0.6314   -1.8204 O   0  0  0  0  0  0  0  0  0  0  0  0
   -9.1088    1.8796    0.6049 O   0  0  0  0  0  0  0  0  0  0  0  0
   -7.7801    0.5030   -1.1463 O   0  0  0  0  0  0  0  0  0  0  0  0
   -5.8189    0.6104    0.1573 C   0  0  0  0  0  0  0  0  0  0  0  0
    2.2915   -2.7342    1.7314 C   0  0  0  0  0  0  0  0  0  0  0  0
    1.1026   -2.7813    1.0257 C   0  0  0  0  0  0  0  0  0  0  0  0
    3.3530   -1.9410    1.3061 C   0  0  0  0  0  0  0  0  0  0  0  0
    2.0072   -1.2296   -0.5640 C   0  0  0  0  0  0  0  0  0  0  0  0
    9.8843    2.0574    0.2548 C   0  0  0  0  0  0  0  0  0  0  0  0
    8.5791    1.7953   -0.4868 C   0  0  0  0  0  0  0  0  0  0  0  0
    7.6122    0.9186    0.2979 C   0  0  0  0  0  0  0  0  0  0  0  0
    6.2972    0.6818   -0.4363 C   0  0  0  0  0  0  0  0  0  0  0  0
   -1.4094   -1.1704   -0.1811 C   0  0  0  0  0  0  0  0  0  0  0  0
   -2.7141   -1.1476   -0.9603 C   0  0  0  0  0  0  0  0  0  0  0  0
    5.3882   -0.2409    0.3474 C   0  0  0  0  0  0  0  0  0  0  0  0
   -3.7121   -0.3727   -0.2572 N   0  0  0  0  0  0  0  0  0  0  0  0
    4.1703   -0.3892   -0.3656 O   0  0  0  0  0  0  0  0  0  0  0  0
   -7.8476    1.7066    0.9626 C   0  0  0  0  0  0  0  0  0  0  0  0
   -4.9548   -0.1813   -0.7387 C   0  0  0  0  0  0  0  0  0  0  0  0
   -7.1091    0.8959   -0.0675 C   0  0  0  0  0  0  0  0  0  0  0  0
    0.9520   -2.0200   -0.1357 C   0  0  0  0  0  0  0  0  0  0  0  0
    3.2104   -1.1852    0.1458 C   0  0  0  0  0  0  0  0  0  0  0  0
   11.7800    3.0943    0.0019 H   0  0  0  0  0  0  0  0  0  0  0  0
   11.1145    2.4361   -1.4903 H   0  0  0  0  0  0  0  0  0  0  0  0
   10.4160    3.8878   -0.7813 H   0  0  0  0  0  0  0  0  0  0  0  0
   -9.5973    2.3975    1.2635 H   0  0  0  0  0  0  0  0  0  0  0  0
   -8.6987    0.7987   -1.1077 H   0  0  0  0  0  0  0  0  0  0  0  0
   -5.3872    0.9883    1.0739 H   0  0  0  0  0  0  0  0  0  0  0  0
    2.4067   -3.3246    2.6315 H   0  0  0  0  0  0  0  0  0  0  0  0
    0.2892   -3.4068    1.3736 H   0  0  0  0  0  0  0  0  0  0  0  0
    4.2686   -1.9322    1.8812 H   0  0  0  0  0  0  0  0  0  0  0  0
    1.9052   -0.6307   -1.4624 H   0  0  0  0  0  0  0  0  0  0  0  0
   10.3572    1.1022    0.5034 H   0  0  0  0  0  0  0  0  0  0  0  0
    9.6647    2.5436    1.2104 H   0  0  0  0  0  0  0  0  0  0  0  0
    8.0972    2.7507   -0.7224 H   0  0  0  0  0  0  0  0  0  0  0  0
    8.7984    1.3212   -1.4498 H   0  0  0  0  0  0  0  0  0  0  0  0
    8.0913   -0.0424    0.5141 H   0  0  0  0  0  0  0  0  0  0  0  0
    7.4084    1.3818    1.2692 H   0  0  0  0  0  0  0  0  0  0  0  0
    5.7942    1.6380   -0.6064 H   0  0  0  0  0  0  0  0  0  0  0  0
    6.4980    0.2463   -1.4196 H   0  0  0  0  0  0  0  0  0  0  0  0
   -1.0336   -0.1505   -0.0578 H   0  0  0  0  0  0  0  0  0  0  0  0
   -1.5869   -1.5679    0.8227 H   0  0  0  0  0  0  0  0  0  0  0  0
   -2.5429   -0.7220   -1.9534 H   0  0  0  0  0  0  0  0  0  0  0  0
   -3.0722   -2.1704   -1.1138 H   0  0  0  0  0  0  0  0  0  0  0  0
    5.8733   -1.2142    0.4840 H   0  0  0  0  0  0  0  0  0  0  0  0
    5.1932    0.1709    1.3449 H   0  0  0  0  0  0  0  0  0  0  0  0
   -0.7216   -3.0446   -0.9851 H   0  0  0  0  0  0  0  0  0  0  0  0
   -0.1951   -1.6424   -1.8977 H   0  0  0  0  0  0  0  0  0  0  0  0
   -3.4759   -0.0047    0.6498 H   0  0  0  0  0  0  0  0  0  0  0  0
   -0.3516   -2.0205   -0.8845 C   0  0  0  0  0  0  0  0  0  0  0  0
  1 11  1  0
  2 20  2  0
  6 21  1  0
  6 22  2  0
  7  8  2  0
  7  9  1  0
  8 23  1  0
  9 24  2  0
 12 11  1  0
 12 13  1  0
 13 14  1  0
 16 15  1  0
 17 14  1  0
 52 15  1  0
 18 16  1  0
 18 21  1  0
 19 17  1  0
 20  4  1  0
 20 22  1  0
 21  3  2  0
 22  5  1  0
 23 10  2  0
 23 52  1  0
 24 10  1  0
 24 19  1  0
  1 25  1  0
  1 26  1  0
  1 27  1  0
  4 28  1  0
  5 29  1  0
  6 30  1  0
  7 31  1  0
  8 32  1  0
  9 33  1  0
 10 34  1  0
 11 35  1  0
 11 36  1  0
 12 37  1  0
 12 38  1  0
 13 39  1  0
 13 40  1  0
 14 41  1  0
 14 42  1  0
 15 43  1  0
 15 44  1  0
 16 45  1  0
 16 46  1  0
 17 47  1  0
 17 48  1  0
 52 49  1  0
 52 50  1  0
 18 51  1  0
M  END
