
     RDKit          3D

 44 46  0  0  0  0  0  0  0  0999 V2000
   -4.5354    0.4369   -2.4889 O   0  0  0  0  0  0  0  0  0  0  0  0
   -5.0230    0.4446   -1.2533 C   0  0  0  0  0  0  0  0  0  0  0  0
   -6.2002    0.5359   -1.0122 O   0  0  0  0  0  0  0  0  0  0  0  0
   -3.9296    0.3354   -0.2172 C   0  0  2  0  0  0  0  0  0  0  0  0
   -3.0917   -0.9358   -0.4328 C   0  0  0  0  0  0  0  0  0  0  0  0
   -4.4818    0.3738    1.2048 C   0  0  0  0  0  0  0  0  0  0  0  0
   -3.3650    0.1954    2.2287 C   0  0  0  0  0  0  0  0  0  0  0  0
   -2.5473   -1.0534    1.9308 C   0  0  0  0  0  0  0  0  0  0  0  0
   -2.0435   -1.0017    0.5672 N   0  0  0  0  0  0  0  0  0  0  0  0
   -0.7603   -0.7924    0.2189 C   0  0  0  0  0  0  0  0  0  0  0  0
   -0.3887   -0.6434   -0.9326 O   0  0  0  0  0  0  0  0  0  0  0  0
    0.2675   -0.7726    1.3545 C   0  0  0  0  0  0  0  0  0  0  0  0
    1.5720   -0.4717    0.8413 N   0  0  0  0  0  0  0  0  0  0  0  0
    2.4697   -1.3822    0.4139 C   0  0  0  0  0  0  0  0  0  0  0  0
    2.0299    0.7918    0.5380 C   0  0  0  0  0  0  0  0  0  0  0  0
    1.4330    2.0259    0.7711 C   0  0  0  0  0  0  0  0  0  0  0  0
    2.1336    3.1511    0.3773 C   0  0  0  0  0  0  0  0  0  0  0  0
    3.3914    3.0442   -0.2313 C   0  0  0  0  0  0  0  0  0  0  0  0
    3.9760    1.8126   -0.4634 C   0  0  0  0  0  0  0  0  0  0  0  0
    3.2880    0.6584   -0.0773 C   0  0  0  0  0  0  0  0  0  0  0  0
    3.5593   -0.7554   -0.1510 C   0  0  0  0  0  0  0  0  0  0  0  0
    4.7374   -1.3924   -0.7091 C   0  0  0  0  0  0  0  0  0  0  0  0
    5.6240   -0.7331   -1.2301 O   0  0  0  0  0  0  0  0  0  0  0  0
    4.8686   -2.8920   -0.6076 C   0  0  0  0  0  0  0  0  0  0  0  0
   -5.2563    0.5097   -3.1324 H   0  0  0  0  0  0  0  0  0  0  0  0
   -3.2628    1.1934   -0.3703 H   0  0  0  0  0  0  0  0  0  0  0  0
   -3.7271   -1.8207   -0.3263 H   0  0  0  0  0  0  0  0  0  0  0  0
   -2.6465   -0.9620   -1.4223 H   0  0  0  0  0  0  0  0  0  0  0  0
   -5.0034    1.3149    1.3836 H   0  0  0  0  0  0  0  0  0  0  0  0
   -5.2167   -0.4264    1.3314 H   0  0  0  0  0  0  0  0  0  0  0  0
   -2.7064    1.0693    2.2265 H   0  0  0  0  0  0  0  0  0  0  0  0
   -3.7879    0.1193    3.2320 H   0  0  0  0  0  0  0  0  0  0  0  0
   -1.7376   -1.1726    2.6455 H   0  0  0  0  0  0  0  0  0  0  0  0
   -3.1767   -1.9434    2.0237 H   0  0  0  0  0  0  0  0  0  0  0  0
    0.0109   -0.0368    2.1186 H   0  0  0  0  0  0  0  0  0  0  0  0
    0.2999   -1.7415    1.8557 H   0  0  0  0  0  0  0  0  0  0  0  0
    2.2718   -2.4343    0.5479 H   0  0  0  0  0  0  0  0  0  0  0  0
    0.4623    2.1167    1.2423 H   0  0  0  0  0  0  0  0  0  0  0  0
    1.7024    4.1296    0.5422 H   0  0  0  0  0  0  0  0  0  0  0  0
    3.9131    3.9461   -0.5242 H   0  0  0  0  0  0  0  0  0  0  0  0
    4.9452    1.7461   -0.9359 H   0  0  0  0  0  0  0  0  0  0  0  0
    3.9313   -3.4084   -0.4152 H   0  0  0  0  0  0  0  0  0  0  0  0
    5.3046   -3.2901   -1.5228 H   0  0  0  0  0  0  0  0  0  0  0  0
    5.5512   -3.1312    0.2109 H   0  0  0  0  0  0  0  0  0  0  0  0
  8  7  1  0
  8  9  1  0
 17 16  1  0
 17 18  2  0
 16 15  2  0
  7  6  1  0
  9  5  1  0
  9 10  1  0
 18 19  1  0
 12 10  1  0
 12 13  1  0
  6  4  1  0
  5  4  1  0
 15 13  1  0
 15 20  1  0
 10 11  2  0
 13 14  1  0
  3  2  2  0
  4  2  1  0
 19 20  2  0
 20 21  1  0
  2  1  1  0
 14 21  2  0
 21 22  1  0
 22 23  2  0
 22 24  1  0
  1 25  1  0
  4 26  1  1
  5 27  1  0
  5 28  1  0
  6 29  1  0
  6 30  1  0
  7 31  1  0
  7 32  1  0
  8 33  1  0
  8 34  1  0
 12 35  1  0
 12 36  1  0
 14 37  1  0
 16 38  1  0
 17 39  1  0
 18 40  1  0
 19 41  1  0
 24 42  1  0
 24 43  1  0
 24 44  1  0
M  END
