
     RDKit          3D

 11 10  0  0  0  0  0  0  0  0999 V2000
   -0.6268   -0.0433    0.3059 C   0  0  0  0  0  0  0  0  0  0  0  0
   -0.3689    0.1446    2.5676 N   0  0  0  0  0  0  0  0  0  0  0  0
    0.2972    0.2014    1.3252 O   0  0  0  0  0  0  0  0  0  0  0  0
    0.1009    0.0430   -1.0115 C   0  0  0  0  0  0  0  0  0  0  0  0
   -0.7289   -0.1948   -2.0192 O   0  0  0  0  0  0  0  0  0  0  0  0
    1.2696    0.2927   -1.1423 O   0  0  0  0  0  0  0  0  0  0  0  0
   -1.0887   -1.0359    0.3896 H   0  0  0  0  0  0  0  0  0  0  0  0
   -1.4467    0.6867    0.3025 H   0  0  0  0  0  0  0  0  0  0  0  0
    0.1228   -0.5709    3.0936 H   0  0  0  0  0  0  0  0  0  0  0  0
   -0.1413    1.0239    3.0201 H   0  0  0  0  0  0  0  0  0  0  0  0
   -0.2556   -0.1357   -2.8628 H   0  0  0  0  0  0  0  0  0  0  0  0
  1  3  1  0
  1  4  1  0
  1  7  1  0
  1  8  1  0
  2  3  1  0
  2  9  1  0
  2 10  1  0
  4  5  1  0
  4  6  2  0
  5 11  1  0
M  END
