
     RDKit          3D

 31 33  0  0  0  0  0  0  0  0999 V2000
    4.2791   -0.7399    0.5686 N   0  0  0  0  0  0  0  0  0  0  0  0
   -3.0294   -0.4347    0.2675 C   0  0  0  0  0  0  0  0  0  0  0  0
   -0.7592   -1.0834   -0.2613 C   0  0  0  0  0  0  0  0  0  0  0  0
   -0.3355    0.2305   -0.0641 C   0  0  0  0  0  0  0  0  0  0  0  0
   -1.2729    1.1978    0.2984 C   0  0  0  0  0  0  0  0  0  0  0  0
    1.4165    1.7627   -0.9364 C   0  0  0  0  0  0  0  0  0  0  0  0
    2.7501    2.1358   -1.1530 C   0  0  0  0  0  0  0  0  0  0  0  0
    3.7950    1.3580   -0.6962 C   0  0  0  0  0  0  0  0  0  0  0  0
    3.4673    0.1910   -0.0094 C   0  0  0  0  0  0  0  0  0  0  0  0
    3.5170   -1.7028    1.1605 C   0  0  0  0  0  0  0  0  0  0  0  0
    2.1934   -1.4224    0.9764 C   0  0  0  0  0  0  0  0  0  0  0  0
   -2.0968   -1.3938   -0.0898 C   0  0  0  0  0  0  0  0  0  0  0  0
   -2.6146    0.8784    0.4690 C   0  0  0  0  0  0  0  0  0  0  0  0
   -3.6192    1.9169    0.9043 C   0  0  0  0  0  0  0  0  0  0  0  0
   -3.2612    3.2497    0.4578 N   0  0  0  0  0  0  0  0  0  0  0  0
    1.0803    0.5978   -0.2621 C   0  0  0  0  0  0  0  0  0  0  0  0
    2.1298   -0.2092    0.2203 C   0  0  0  0  0  0  0  0  0  0  0  0
    5.2852   -0.7175    0.5711 H   0  0  0  0  0  0  0  0  0  0  0  0
   -4.0715   -0.7042    0.3872 H   0  0  0  0  0  0  0  0  0  0  0  0
   -0.0581   -1.8476   -0.5691 H   0  0  0  0  0  0  0  0  0  0  0  0
   -0.9525    2.2185    0.4619 H   0  0  0  0  0  0  0  0  0  0  0  0
    0.6281    2.3936   -1.3285 H   0  0  0  0  0  0  0  0  0  0  0  0
    2.9609    3.0486   -1.6946 H   0  0  0  0  0  0  0  0  0  0  0  0
    4.8254    1.6451   -0.8619 H   0  0  0  0  0  0  0  0  0  0  0  0
    3.9796   -2.5284    1.6767 H   0  0  0  0  0  0  0  0  0  0  0  0
    1.3724   -2.0146    1.3460 H   0  0  0  0  0  0  0  0  0  0  0  0
   -4.6168    1.5903    0.5828 H   0  0  0  0  0  0  0  0  0  0  0  0
   -3.6478    1.9249    1.9979 H   0  0  0  0  0  0  0  0  0  0  0  0
   -3.3917    3.3186   -0.5439 H   0  0  0  0  0  0  0  0  0  0  0  0
   -3.8975    3.9204    0.8683 H   0  0  0  0  0  0  0  0  0  0  0  0
   -2.6229   -3.0271   -0.3534 Cl  0  0  0  0  0  0  0  0  0  0  0  0
  8  7  1  0
  8  9  2  0
  7  6  2  0
  9  1  1  0
  9 17  1  0
  1 10  1  0
  6 16  1  0
 10 11  2  0
 17 16  2  0
 17 11  1  0
 16  4  1  0
  4  5  2  0
  4  3  1  0
  5 13  1  0
  3 12  2  0
 13 14  1  0
 13  2  2  0
 14 15  1  0
 12  2  1  0
 12 31  1  0
  1 18  1  0
  2 19  1  0
  3 20  1  0
  5 21  1  0
  6 22  1  0
  7 23  1  0
  8 24  1  0
 10 25  1  0
 11 26  1  0
 14 27  1  0
 14 28  1  0
 15 29  1  0
 15 30  1  0
M  END
