
     RDKit          3D

 48 51  0  0  0  0  0  0  0  0999 V2000
   -4.5402   -0.1280    0.0770 C   0  0  0  0  0  0  0  0  0  0  0  0
    1.7897   -1.1757   -0.5398 C   0  0  0  0  0  0  0  0  0  0  0  0
   -5.8247    0.5633    0.0004 C   0  0  0  0  0  0  0  0  0  0  0  0
   -6.7988    0.3775    0.9765 C   0  0  0  0  0  0  0  0  0  0  0  0
   -8.0014    1.0518    0.8564 C   0  0  0  0  0  0  0  0  0  0  0  0
   -8.1869    1.8890   -0.2338 C   0  0  0  0  0  0  0  0  0  0  0  0
   -6.1158    1.4286   -1.0537 C   0  0  0  0  0  0  0  0  0  0  0  0
   -1.4508   -1.0243   -1.0222 C   0  0  0  0  0  0  0  0  0  0  0  0
   -0.6045   -1.8761   -0.3566 C   0  0  0  0  0  0  0  0  0  0  0  0
    0.7434   -2.2147   -0.9132 C   0  0  0  0  0  0  0  0  0  0  0  0
   -2.1754   -2.1462    1.4525 N   0  0  0  0  0  0  0  0  0  0  0  0
   -4.2061   -0.9268    1.1048 N   0  0  0  0  0  0  0  0  0  0  0  0
   -2.9931   -1.3405    0.7845 C   0  0  0  0  0  0  0  0  0  0  0  0
   -7.2644    2.0766   -1.1721 N   0  0  0  0  0  0  0  0  0  0  0  0
   -1.0096   -2.4053    0.9056 C   0  0  0  0  0  0  0  0  0  0  0  0
   -3.6254   -0.0060   -0.8708 N   0  0  0  0  0  0  0  0  0  0  0  0
   -2.6398   -0.7844   -0.4161 N   0  0  0  0  0  0  0  0  0  0  0  0
    1.4944   -0.0145   -0.3385 O   0  0  0  0  0  0  0  0  0  0  0  0
    3.0519   -1.6692   -0.4950 N   0  0  0  0  0  0  0  0  0  0  0  0
    4.2565   -0.9973   -0.2791 C   0  0  0  0  0  0  0  0  0  0  0  0
    5.4194   -1.7738   -0.2924 C   0  0  0  0  0  0  0  0  0  0  0  0
    6.6555   -1.1929   -0.0939 C   0  0  0  0  0  0  0  0  0  0  0  0
    6.7686    0.1746    0.1247 C   0  0  0  0  0  0  0  0  0  0  0  0
    5.6153    0.9412    0.1383 C   0  0  0  0  0  0  0  0  0  0  0  0
    5.6718    2.4189    0.3765 C   0  0  1  0  0  0  0  0  0  0  0  0
    6.9213    2.8787    0.4796 F   0  0  0  0  0  0  0  0  0  0  0  0
    5.0838    3.1033   -0.6155 F   0  0  0  0  0  0  0  0  0  0  0  0
    5.0332    2.7629    1.5048 F   0  0  0  0  0  0  0  0  0  0  0  0
    4.3596    0.3727   -0.0590 C   0  0  0  0  0  0  0  0  0  0  0  0
   -6.6159   -0.2854    1.8117 H   0  0  0  0  0  0  0  0  0  0  0  0
   -2.0157   -0.5482   -3.0177 H   0  0  0  0  0  0  0  0  0  0  0  0
   -1.1966    0.7472   -2.1607 H   0  0  0  0  0  0  0  0  0  0  0  0
   -0.2682   -0.6221   -2.7619 H   0  0  0  0  0  0  0  0  0  0  0  0
   -8.7841    0.9322    1.5922 H   0  0  0  0  0  0  0  0  0  0  0  0
   -9.1180    2.4310   -0.3545 H   0  0  0  0  0  0  0  0  0  0  0  0
   -5.3806    1.6009   -1.8319 H   0  0  0  0  0  0  0  0  0  0  0  0
    0.7146   -2.2589   -2.0049 H   0  0  0  0  0  0  0  0  0  0  0  0
    1.0542   -3.2124   -0.6032 H   0  0  0  0  0  0  0  0  0  0  0  0
    0.8633   -2.8004    1.8844 H   0  0  0  0  0  0  0  0  0  0  0  0
   -0.5438   -3.5626    2.6301 H   0  0  0  0  0  0  0  0  0  0  0  0
    0.1363   -4.2103    1.1342 H   0  0  0  0  0  0  0  0  0  0  0  0
    3.1470   -2.6598   -0.6639 H   0  0  0  0  0  0  0  0  0  0  0  0
    5.3493   -2.8421   -0.4595 H   0  0  0  0  0  0  0  0  0  0  0  0
    7.5424   -1.8113   -0.1095 H   0  0  0  0  0  0  0  0  0  0  0  0
    7.7440    0.6127    0.2797 H   0  0  0  0  0  0  0  0  0  0  0  0
    3.4749    0.9887   -0.0420 H   0  0  0  0  0  0  0  0  0  0  0  0
   -1.2121   -0.3326   -2.3135 C   0  0  0  0  0  0  0  0  0  0  0  0
   -0.0889   -3.2932    1.6808 C   0  0  0  0  0  0  0  0  0  0  0  0
 22 23  1  0
 22 21  2  0
 23 24  2  0
 25 27  1  6
 21 20  1  0
 24 25  1  0
 24 29  1  0
 25 26  1  0
 25 28  1  0
 20 29  2  0
 20 19  1  0
 19  2  1  0
  2 18  2  0
  2 10  1  0
 10  9  1  0
 48 15  1  0
  9 15  1  0
  9  8  2  0
 15 11  2  0
 47  8  1  0
  8 17  1  0
 11 13  1  0
 17 13  1  0
 17 16  1  0
 13 12  2  0
 16  1  2  0
 12  1  1  0
  1  3  1  0
  3  7  1  0
  3  4  2  0
  7 14  2  0
  4  5  1  0
 14  6  1  0
  5  6  2  0
  4 30  1  0
 47 31  1  0
 47 32  1  0
 47 33  1  0
  5 34  1  0
  6 35  1  0
  7 36  1  0
 10 37  1  0
 10 38  1  0
 48 39  1  0
 48 40  1  0
 48 41  1  0
 19 42  1  0
 21 43  1  0
 22 44  1  0
 23 45  1  0
 29 46  1  0
M  END
