
     RDKit          3D

 68 72  0  0  0  0  0  0  0  0999 V2000
    6.6115    0.7779   -0.3118 C   0  0  0  0  0  0  0  0  0  0  0  0
    5.5673   -0.1384   -0.3299 C   0  0  0  0  0  0  0  0  0  0  0  0
    5.4459   -1.0307   -1.3947 C   0  0  0  0  0  0  0  0  0  0  0  0
    9.0086    2.3701   -0.3846 C   0  0  0  0  0  0  0  0  0  0  0  0
    6.8171    1.8150    0.7500 C   0  0  0  0  0  0  0  0  0  0  0  0
    3.9775   -2.2573    1.3856 C   0  0  0  0  0  0  0  0  0  0  0  0
    1.6347   -2.8483    1.1524 C   0  0  0  0  0  0  0  0  0  0  0  0
    2.4272   -0.6974    0.4051 C   0  0  0  0  0  0  0  0  0  0  0  0
   -1.0972   -2.0769    0.7246 C   0  0  1  0  0  0  0  0  0  0  0  0
    0.0048   -1.2163    0.0977 C   0  0  0  0  0  0  0  0  0  0  0  0
   -2.4249   -1.7519    0.0644 C   0  0  0  0  0  0  0  0  0  0  0  0
   -5.0290   -0.4708   -0.8566 C   0  0  0  0  0  0  0  0  0  0  0  0
   -6.3635    1.5491   -0.6970 C   0  0  0  0  0  0  0  0  0  0  0  0
   -7.0084    3.9657    0.4253 N   0  0  0  0  0  0  0  0  0  0  0  0
   -4.6541    4.4239    0.1524 C   0  0  0  0  0  0  0  0  0  0  0  0
   -5.4948    3.4818    2.3209 C   0  0  0  0  0  0  0  0  0  0  0  0
   -5.4774    2.0881    0.2261 C   0  0  0  0  0  0  0  0  0  0  0  0
   -4.3653    1.3369    0.5894 C   0  0  0  0  0  0  0  0  0  0  0  0
   -6.1330    0.2825   -1.2194 C   0  0  0  0  0  0  0  0  0  0  0  0
   -7.1219   -0.2537   -2.2081 C   0  0  1  0  0  0  0  0  0  0  0  0
   -6.8201   -1.4827   -2.6369 F   0  0  0  0  0  0  0  0  0  0  0  0
   -8.3581   -0.3135   -1.6904 F   0  0  0  0  0  0  0  0  0  0  0  0
   -7.2069    0.5279   -3.2957 F   0  0  0  0  0  0  0  0  0  0  0  0
   -4.1259    0.0710    0.0597 C   0  0  0  0  0  0  0  0  0  0  0  0
   -2.9749   -0.5863    0.4989 N   0  0  0  0  0  0  0  0  0  0  0  0
   -2.9250   -2.4590   -0.7905 O   0  0  0  0  0  0  0  0  0  0  0  0
   -0.7286   -3.5474    0.5857 C   0  0  0  0  0  0  0  0  0  0  0  0
    0.5269   -3.8408    1.3933 C   0  0  0  0  0  0  0  0  0  0  0  0
    1.3819   -1.6052    0.5712 C   0  0  0  0  0  0  0  0  0  0  0  0
    2.9368   -3.1546    1.5480 C   0  0  0  0  0  0  0  0  0  0  0  0
    3.7043   -1.0239    0.8140 C   0  0  0  0  0  0  0  0  0  0  0  0
    4.7051   -0.0821    0.7039 O   0  0  0  0  0  0  0  0  0  0  0  0
    6.3804   -0.9457   -2.4085 C   0  0  0  0  0  0  0  0  0  0  0  0
    7.3894   -0.0829   -2.4241 N   0  0  0  0  0  0  0  0  0  0  0  0
    7.4866    0.7437   -1.3945 C   0  0  0  0  0  0  0  0  0  0  0  0
    8.3014    2.1133    0.9200 C   0  0  0  0  0  0  0  0  0  0  0  0
    9.9572    3.1214   -0.5028 O   0  0  0  0  0  0  0  0  0  0  0  0
    8.5383    1.6492   -1.4416 N   0  0  0  0  0  0  0  0  0  0  0  0
    4.6514   -1.7608   -1.4498 H   0  0  0  0  0  0  0  0  0  0  0  0
    6.2839    2.7302    0.4728 H   0  0  0  0  0  0  0  0  0  0  0  0
    6.4046    1.4925    1.7044 H   0  0  0  0  0  0  0  0  0  0  0  0
    4.9807   -2.5088    1.7051 H   0  0  0  0  0  0  0  0  0  0  0  0
    2.2335    0.2754   -0.0331 H   0  0  0  0  0  0  0  0  0  0  0  0
   -1.1685   -1.8293    1.7907 H   0  0  0  0  0  0  0  0  0  0  0  0
   -0.0382   -1.3215   -0.9920 H   0  0  0  0  0  0  0  0  0  0  0  0
   -0.1586   -0.1570    0.3081 H   0  0  0  0  0  0  0  0  0  0  0  0
   -4.8652   -1.4525   -1.2668 H   0  0  0  0  0  0  0  0  0  0  0  0
   -7.2223    2.1293   -1.0058 H   0  0  0  0  0  0  0  0  0  0  0  0
   -7.7146    3.4623    0.9516 H   0  0  0  0  0  0  0  0  0  0  0  0
   -7.0986    4.9347    0.7081 H   0  0  0  0  0  0  0  0  0  0  0  0
   -4.7967    5.4481    0.5050 H   0  0  0  0  0  0  0  0  0  0  0  0
   -3.6358    4.1284    0.4041 H   0  0  0  0  0  0  0  0  0  0  0  0
   -4.7537    4.4212   -0.9335 H   0  0  0  0  0  0  0  0  0  0  0  0
   -6.1987    2.7958    2.7959 H   0  0  0  0  0  0  0  0  0  0  0  0
   -4.4880    3.1979    2.6281 H   0  0  0  0  0  0  0  0  0  0  0  0
   -5.6820    4.4823    2.7160 H   0  0  0  0  0  0  0  0  0  0  0  0
   -3.6518    1.7433    1.2974 H   0  0  0  0  0  0  0  0  0  0  0  0
   -2.4579   -0.0945    1.2128 H   0  0  0  0  0  0  0  0  0  0  0  0
   -1.5414   -4.1881    0.9313 H   0  0  0  0  0  0  0  0  0  0  0  0
   -0.5602   -3.7862   -0.4676 H   0  0  0  0  0  0  0  0  0  0  0  0
    0.8848   -4.8490    1.1723 H   0  0  0  0  0  0  0  0  0  0  0  0
    0.2799   -3.8372    2.4601 H   0  0  0  0  0  0  0  0  0  0  0  0
    3.1404   -4.1187    1.9990 H   0  0  0  0  0  0  0  0  0  0  0  0
    6.3073   -1.6149   -3.2577 H   0  0  0  0  0  0  0  0  0  0  0  0
    8.8006    1.2571    1.3872 H   0  0  0  0  0  0  0  0  0  0  0  0
    8.4567    2.9677    1.5767 H   0  0  0  0  0  0  0  0  0  0  0  0
    9.0536    1.6963   -2.3109 H   0  0  0  0  0  0  0  0  0  0  0  0
   -5.6808    3.4884    0.7973 C   0  0  1  0  0  0  0  0  0  0  0  0
  1  2  1  0
  1  5  1  0
  1 35  2  0
  2  3  2  0
  2 32  1  0
  3 33  1  0
  4 36  1  0
  4 37  2  0
  4 38  1  0
  5 36  1  0
  6 30  2  0
  6 31  1  0
  7 28  1  0
  7 29  2  0
  7 30  1  0
  8 29  1  0
  8 31  2  0
  9 10  1  0
  9 11  1  0
  9 27  1  0
 10 29  1  0
 11 25  1  0
 11 26  2  0
 12 19  2  0
 12 24  1  0
 13 17  2  0
 13 19  1  0
 68 14  1  1
 68 15  1  0
 68 16  1  0
 68 17  1  0
 17 18  1  0
 18 24  2  0
 19 20  1  0
 20 21  1  6
 20 22  1  0
 20 23  1  0
 24 25  1  0
 27 28  1  0
 31 32  1  0
 33 34  2  0
 34 35  1  0
 35 38  1  0
  3 39  1  0
  5 40  1  0
  5 41  1  0
  6 42  1  0
  8 43  1  0
  9 44  1  1
 10 45  1  0
 10 46  1  0
 12 47  1  0
 13 48  1  0
 14 49  1  0
 14 50  1  0
 15 51  1  0
 15 52  1  0
 15 53  1  0
 16 54  1  0
 16 55  1  0
 16 56  1  0
 18 57  1  0
 25 58  1  0
 27 59  1  0
 27 60  1  0
 28 61  1  0
 28 62  1  0
 30 63  1  0
 33 64  1  0
 36 65  1  0
 36 66  1  0
 38 67  1  0
M  END
