
     RDKit          3D

 36 37  0  0  0  0  0  0  0  0999 V2000
   -2.2943   -0.4091   -0.3872 C   0  0  0  0  0  0  0  0  0  0  0  0
   -2.7670   -1.6485    0.0463 C   0  0  0  0  0  0  0  0  0  0  0  0
   -3.5995    1.1714    0.9241 N   0  0  0  0  0  0  0  0  0  0  0  0
   -0.9609   -0.2904   -0.7531 C   0  0  0  0  0  0  0  0  0  0  0  0
    3.7562    1.5920   -0.6961 C   0  0  0  0  0  0  0  0  0  0  0  0
   -1.9173   -2.7404    0.0966 C   0  0  0  0  0  0  0  0  0  0  0  0
    3.2194    0.2798   -1.2362 C   0  0  0  0  0  0  0  0  0  0  0  0
    1.9499   -0.0262   -0.6052 N   0  0  0  0  0  0  0  0  0  0  0  0
   -0.0921   -1.3810   -0.7044 C   0  0  0  0  0  0  0  0  0  0  0  0
    2.6721    1.2451    1.3314 C   0  0  0  0  0  0  0  0  0  0  0  0
   -4.5063    2.3012    0.9353 C   0  0  0  0  0  0  0  0  0  0  0  0
    3.8988    1.5573    0.7071 O   0  0  0  0  0  0  0  0  0  0  0  0
   -0.5822   -2.6058   -0.2730 C   0  0  0  0  0  0  0  0  0  0  0  0
    2.1134   -0.0734    0.8354 C   0  0  0  0  0  0  0  0  0  0  0  0
    1.3458   -1.2301   -1.1322 C   0  0  0  0  0  0  0  0  0  0  0  0
   -3.2140    0.7812   -0.4199 C   0  0  0  0  0  0  0  0  0  0  0  0
   -3.8045   -1.7546    0.3401 H   0  0  0  0  0  0  0  0  0  0  0  0
   -0.5788    0.6724   -1.0734 H   0  0  0  0  0  0  0  0  0  0  0  0
   -2.7377    1.5985   -0.9833 H   0  0  0  0  0  0  0  0  0  0  0  0
   -4.1250    0.5216   -0.9688 H   0  0  0  0  0  0  0  0  0  0  0  0
   -2.2895   -3.7008    0.4299 H   0  0  0  0  0  0  0  0  0  0  0  0
   -2.7643    1.4123    1.4439 H   0  0  0  0  0  0  0  0  0  0  0  0
   -4.1343    3.1859    0.3999 H   0  0  0  0  0  0  0  0  0  0  0  0
   -5.4556    2.0186    0.4760 H   0  0  0  0  0  0  0  0  0  0  0  0
   -4.7136    2.5968    1.9636 H   0  0  0  0  0  0  0  0  0  0  0  0
    3.0813    2.4074   -0.9938 H   0  0  0  0  0  0  0  0  0  0  0  0
    3.0761    0.3728   -2.3158 H   0  0  0  0  0  0  0  0  0  0  0  0
    3.9643   -0.5185   -1.0746 H   0  0  0  0  0  0  0  0  0  0  0  0
    0.0817   -3.4611   -0.2207 H   0  0  0  0  0  0  0  0  0  0  0  0
    1.1467   -0.2503    1.3115 H   0  0  0  0  0  0  0  0  0  0  0  0
    2.7791   -0.9001    1.1410 H   0  0  0  0  0  0  0  0  0  0  0  0
    1.3894   -1.1737   -2.2247 H   0  0  0  0  0  0  0  0  0  0  0  0
    1.9059   -2.1370   -0.8486 H   0  0  0  0  0  0  0  0  0  0  0  0
    2.8561    1.1979    2.4057 H   0  0  0  0  0  0  0  0  0  0  0  0
    1.9341    2.0387    1.1474 H   0  0  0  0  0  0  0  0  0  0  0  0
    4.7402    1.7996   -1.1191 H   0  0  0  0  0  0  0  0  0  0  0  0
  1  2  2  0
  1  4  1  0
  1 16  1  0
  2  6  1  0
  3 11  1  0
  3 16  1  0
  4  9  2  0
  5  7  1  0
  5 12  1  0
  6 13  2  0
  7  8  1  0
  8 14  1  0
  8 15  1  0
  9 13  1  0
  9 15  1  0
 10 12  1  0
 10 14  1  0
  2 17  1  0
  4 18  1  0
 16 19  1  0
 16 20  1  0
  6 21  1  0
  3 22  1  0
 11 23  1  0
 11 24  1  0
 11 25  1  0
  5 36  1  0
  5 26  1  0
  7 27  1  0
  7 28  1  0
 13 29  1  0
 14 30  1  0
 14 31  1  0
 15 32  1  0
 15 33  1  0
 10 34  1  0
 10 35  1  0
M  END
