
     RDKit          3D

 29 28  0  0  0  0  0  0  0  0999 V2000
    4.0083   -0.1306    0.0150 C   0  0  0  0  0  0  0  0  0  0  0  0
    5.0551    0.6897   -0.0361 O   0  0  0  0  0  0  0  0  0  0  0  0
    2.7079    0.6234    0.0130 C   0  0  0  0  0  0  0  0  0  0  0  0
    4.1193   -1.3308    0.0603 O   0  0  0  0  0  0  0  0  0  0  0  0
    1.4761   -0.2670    0.0194 C   0  0  0  0  0  0  0  0  0  0  0  0
    0.1890    0.5487    0.0200 C   0  0  0  0  0  0  0  0  0  0  0  0
   -1.0624   -0.3203    0.0173 C   0  0  0  0  0  0  0  0  0  0  0  0
   -2.3538    0.4874    0.0161 C   0  0  0  0  0  0  0  0  0  0  0  0
   -3.6054   -0.3815    0.0163 C   0  0  0  0  0  0  0  0  0  0  0  0
   -4.9002    0.4224    0.0130 C   0  0  0  0  0  0  0  0  0  0  0  0
   -6.1404   -0.4610    0.0144 C   0  0  0  0  0  0  0  0  0  0  0  0
    5.8768    0.1765   -0.0289 H   0  0  0  0  0  0  0  0  0  0  0  0
    2.7030    1.2885    0.8834 H   0  0  0  0  0  0  0  0  0  0  0  0
    2.6984    1.2866   -0.8580 H   0  0  0  0  0  0  0  0  0  0  0  0
    1.4884   -0.9249   -0.8541 H   0  0  0  0  0  0  0  0  0  0  0  0
    1.4933   -0.9181    0.8977 H   0  0  0  0  0  0  0  0  0  0  0  0
    0.1728    1.2055    0.8968 H   0  0  0  0  0  0  0  0  0  0  0  0
    0.1740    1.2094   -0.8541 H   0  0  0  0  0  0  0  0  0  0  0  0
   -1.0445   -0.9783   -0.8588 H   0  0  0  0  0  0  0  0  0  0  0  0
   -1.0468   -0.9803    0.8919 H   0  0  0  0  0  0  0  0  0  0  0  0
   -2.3700    1.1472    0.8909 H   0  0  0  0  0  0  0  0  0  0  0  0
   -2.3695    1.1456   -0.8601 H   0  0  0  0  0  0  0  0  0  0  0  0
   -3.5883   -1.0428   -0.8576 H   0  0  0  0  0  0  0  0  0  0  0  0
   -3.5904   -1.0397    0.8928 H   0  0  0  0  0  0  0  0  0  0  0  0
   -4.9179    1.0831    0.8856 H   0  0  0  0  0  0  0  0  0  0  0  0
   -4.9165    1.0781   -0.8634 H   0  0  0  0  0  0  0  0  0  0  0  0
   -6.1612   -1.1090   -0.8641 H   0  0  0  0  0  0  0  0  0  0  0  0
   -6.1639   -1.1028    0.8972 H   0  0  0  0  0  0  0  0  0  0  0  0
   -7.0576    0.1294    0.0109 H   0  0  0  0  0  0  0  0  0  0  0  0
  4  1  2  0
  1  3  1  0
  1  2  1  0
  2 12  1  0
  5  3  1  0
  3 13  1  0
  3 14  1  0
  5  6  1  0
  5 15  1  0
  5 16  1  0
  7  6  1  0
  6 17  1  0
  6 18  1  0
  7  8  1  0
  7 19  1  0
  7 20  1  0
  8  9  1  0
  8 21  1  0
  8 22  1  0
  9 10  1  0
  9 23  1  0
  9 24  1  0
 10 11  1  0
 10 25  1  0
 10 26  1  0
 11 27  1  0
 11 28  1  0
 11 29  1  0
M  END
