
     RDKit          3D

 38 40  0  0  0  0  0  0  0  0999 V2000
    3.8690   -0.6126   -0.4635 C   0  0  0  0  0  0  0  0  0  0  0  0
    2.4652   -0.4346   -0.9266 C   0  0  0  0  0  0  0  0  0  0  0  0
    0.2349    0.2461   -0.2811 C   0  0  0  0  0  0  0  0  0  0  0  0
    1.6028    0.0319    0.1462 N   0  0  0  0  0  0  0  0  0  0  0  0
   -0.6159    0.7894    0.8641 C   0  0  0  0  0  0  0  0  0  0  0  0
   -2.0432    0.9817    0.4717 C   0  0  0  0  0  0  0  0  0  0  0  0
   -3.9780    1.9282   -0.1574 N   0  0  0  0  0  0  0  0  0  0  0  0
   -2.6771    2.1604    0.1975 C   0  0  0  0  0  0  0  0  0  0  0  0
   -4.2218    0.5875   -0.1222 C   0  0  0  0  0  0  0  0  0  0  0  0
   -3.0220   -0.0470    0.2711 C   0  0  0  0  0  0  0  0  0  0  0  0
   -2.9990   -1.4415    0.3945 C   0  0  0  0  0  0  0  0  0  0  0  0
   -4.1492   -2.1572    0.1251 C   0  0  0  0  0  0  0  0  0  0  0  0
   -5.3308   -1.5060   -0.2684 C   0  0  0  0  0  0  0  0  0  0  0  0
   -5.3851   -0.1312   -0.3963 C   0  0  0  0  0  0  0  0  0  0  0  0
    4.2685    1.8256   -0.0863 C   0  0  0  0  0  0  0  0  0  0  0  0
    4.6596    0.4346   -0.0821 N   0  0  0  0  0  0  0  0  0  0  0  0
    4.6000   -1.7675   -0.3052 C   0  0  0  0  0  0  0  0  0  0  0  0
    5.8769   -1.4021    0.1872 C   0  0  0  0  0  0  0  0  0  0  0  0
    5.8755   -0.0352    0.3134 C   0  0  0  0  0  0  0  0  0  0  0  0
    2.4194    0.3021   -1.7372 H   0  0  0  0  0  0  0  0  0  0  0  0
    2.1314   -1.3864   -1.3662 H   0  0  0  0  0  0  0  0  0  0  0  0
    0.2386    0.9759   -1.0961 H   0  0  0  0  0  0  0  0  0  0  0  0
   -0.2322   -0.6656   -0.6874 H   0  0  0  0  0  0  0  0  0  0  0  0
    1.6136   -0.6574    0.8896 H   0  0  0  0  0  0  0  0  0  0  0  0
   -0.5595    0.0973    1.7119 H   0  0  0  0  0  0  0  0  0  0  0  0
   -0.1873    1.7347    1.2045 H   0  0  0  0  0  0  0  0  0  0  0  0
   -4.6455    2.6413   -0.3977 H   0  0  0  0  0  0  0  0  0  0  0  0
   -2.2918    3.1678    0.2327 H   0  0  0  0  0  0  0  0  0  0  0  0
   -2.0926   -1.9528    0.6974 H   0  0  0  0  0  0  0  0  0  0  0  0
   -4.1448   -3.2358    0.2150 H   0  0  0  0  0  0  0  0  0  0  0  0
   -6.2157   -2.0936   -0.4770 H   0  0  0  0  0  0  0  0  0  0  0  0
   -6.2975    0.3667   -0.6996 H   0  0  0  0  0  0  0  0  0  0  0  0
    3.4696    2.0086    0.6292 H   0  0  0  0  0  0  0  0  0  0  0  0
    5.1288    2.4370    0.1730 H   0  0  0  0  0  0  0  0  0  0  0  0
    3.9212    2.1270   -1.0738 H   0  0  0  0  0  0  0  0  0  0  0  0
    4.2454   -2.7636   -0.5237 H   0  0  0  0  0  0  0  0  0  0  0  0
    6.6997   -2.0591    0.4215 H   0  0  0  0  0  0  0  0  0  0  0  0
    6.6467    0.6400    0.6492 H   0  0  0  0  0  0  0  0  0  0  0  0
 19 18  2  0
 19 16  1  0
 18 17  1  0
 16 15  1  0
 16  1  1  0
 17  1  2  0
  1  2  1  0
  4  2  1  0
  4  3  1  0
  5  3  1  0
  5  6  1  0
  6 10  1  0
  6  8  2  0
 11 10  1  0
 11 12  2  0
 10  9  2  0
  8  7  1  0
 12 13  1  0
  9  7  1  0
  9 14  1  0
 13 14  2  0
  2 20  1  0
  2 21  1  0
  3 22  1  0
  3 23  1  0
  4 24  1  0
  5 25  1  0
  5 26  1  0
  7 27  1  0
  8 28  1  0
 11 29  1  0
 12 30  1  0
 13 31  1  0
 14 32  1  0
 15 33  1  0
 15 34  1  0
 15 35  1  0
 17 36  1  0
 18 37  1  0
 19 38  1  0
M  END
