
     RDKit          3D

 19 19  0  0  0  0  0  0  0  0999 V2000
   -0.8262    2.8961   -0.3144 C   0  0  0  0  0  0  0  0  0  0  0  0
    0.1836    1.9800   -0.5696 C   0  0  0  0  0  0  0  0  0  0  0  0
   -0.0863    0.6268   -0.4810 C   0  0  0  0  0  0  0  0  0  0  0  0
    1.7354   -0.6502    0.2265 C   0  0  1  0  0  0  0  0  0  0  0  0
   -1.1150   -2.1318   -0.7752 O   0  0  0  0  0  0  0  0  0  0  0  0
   -1.3534    0.1571   -0.1332 C   0  0  0  0  0  0  0  0  0  0  0  0
   -2.3496    1.0967    0.1321 C   0  0  0  0  0  0  0  0  0  0  0  0
   -2.0918    2.4546    0.0400 C   0  0  0  0  0  0  0  0  0  0  0  0
    2.4524    0.3562    0.7312 F   0  0  0  0  0  0  0  0  0  0  0  0
    2.5704   -1.5542   -0.2551 F   0  0  0  0  0  0  0  0  0  0  0  0
    1.0651   -1.1896    1.2459 F   0  0  0  0  0  0  0  0  0  0  0  0
   -2.6667   -1.5677    0.7235 O   0  0  0  0  0  0  0  0  0  0  0  0
    0.9339   -0.2615   -0.7742 O   0  0  0  0  0  0  0  0  0  0  0  0
   -0.6174    3.9544   -0.3919 H   0  0  0  0  0  0  0  0  0  0  0  0
    1.1710    2.3176   -0.8539 H   0  0  0  0  0  0  0  0  0  0  0  0
   -3.3430    0.7656    0.3994 H   0  0  0  0  0  0  0  0  0  0  0  0
   -2.8816    3.1659    0.2382 H   0  0  0  0  0  0  0  0  0  0  0  0
   -2.8903   -2.5095    0.6763 H   0  0  0  0  0  0  0  0  0  0  0  0
   -1.6715   -1.2974   -0.1085 C   0  0  0  0  0  0  0  0  0  0  0  0
  4  9  1  1
 10  4  1  0
  4 13  1  0
  4 11  1  0
 13  3  1  0
  3  2  1  0
  3  6  2  0
  2  1  2  0
  5 19  2  0
  6 19  1  0
  6  7  1  0
 19 12  1  0
  1  8  1  0
  7  8  2  0
  1 14  1  0
  2 15  1  0
  7 16  1  0
  8 17  1  0
 12 18  1  0
M  END
