
     RDKit          3D

 15 15  0  0  0  0  0  0  0  0999 V2000
   -0.0026   -0.0180   -0.6161 C   0  0  0  0  0  0  0  0  0  0  0  0
    1.1924   -0.0033    0.0925 C   0  0  0  0  0  0  0  0  0  0  0  0
    1.1551    0.0010    1.4728 C   0  0  0  0  0  0  0  0  0  0  0  0
   -0.0667   -0.0038    2.1453 C   0  0  0  0  0  0  0  0  0  0  0  0
   -1.2551   -0.0165    1.4195 C   0  0  0  0  0  0  0  0  0  0  0  0
   -1.2273   -0.0311    0.0374 C   0  0  0  0  0  0  0  0  0  0  0  0
   -0.1153   -0.0347    3.4981 O   0  0  0  0  0  0  0  0  0  0  0  0
    0.0305   -0.0127   -2.0654 N   0  0  0  0  0  0  0  0  0  0  0  0
   -1.0225   -0.0328   -2.6598 O   0  0  0  0  0  0  0  0  0  0  0  0
    1.1096   -0.0603   -2.6097 O   0  0  0  0  0  0  0  0  0  0  0  0
    2.1478    0.0064   -0.4123 H   0  0  0  0  0  0  0  0  0  0  0  0
    2.0778   -0.0240    2.0380 H   0  0  0  0  0  0  0  0  0  0  0  0
   -2.2030   -0.0422    1.9404 H   0  0  0  0  0  0  0  0  0  0  0  0
   -2.1578   -0.0285   -0.5117 H   0  0  0  0  0  0  0  0  0  0  0  0
    0.2605    0.7717    3.8713 H   0  0  0  0  0  0  0  0  0  0  0  0
  1  2  2  0
  1  6  1  0
  1  8  1  0
  2  3  1  0
  2 11  1  0
  3  4  2  0
  3 12  1  0
  4  5  1  0
  4  7  1  0
  5  6  2  0
  5 13  1  0
  6 14  1  0
  7 15  1  0
  8  9  1  0
  8 10  2  0
M  CHG  2   8   1   9  -1
M  END
