
     RDKit          3D

 52 54  0  0  0  0  0  0  0  0999 V2000
    1.9605    1.8186    1.9648 C   0  0  0  0  0  0  0  0  0  0  0  0
    0.5772    1.7104    2.0911 C   0  0  0  0  0  0  0  0  0  0  0  0
   -0.2782    1.8485    0.9811 C   0  0  0  0  0  0  0  0  0  0  0  0
    0.2735    2.0689   -0.2861 C   0  0  0  0  0  0  0  0  0  0  0  0
    1.6435    2.1746   -0.4328 C   0  0  0  0  0  0  0  0  0  0  0  0
    2.4687    2.0562    0.7038 C   0  0  0  0  0  0  0  0  0  0  0  0
   -2.5005   -1.9844   -0.1064 S   0  0  1  0  0  0  0  0  0  0  0  0
   -0.7824   -1.6884   -0.3568 C   0  0  0  0  0  0  0  0  0  0  0  0
   -0.2900   -1.4102   -1.6277 C   0  0  0  0  0  0  0  0  0  0  0  0
    1.0521   -1.1404   -1.7929 C   0  0  0  0  0  0  0  0  0  0  0  0
    1.9103   -1.1418   -0.6917 C   0  0  0  0  0  0  0  0  0  0  0  0
    1.4085   -1.4106    0.5815 C   0  0  0  0  0  0  0  0  0  0  0  0
    0.0630   -1.6807    0.7438 C   0  0  0  0  0  0  0  0  0  0  0  0
    3.1998   -0.8836   -0.9527 O   0  0  0  0  0  0  0  0  0  0  0  0
    4.1351   -0.9591    0.1130 C   0  0  0  0  0  0  0  0  0  0  0  0
    5.4448   -0.6080   -0.4108 C   0  0  0  0  0  0  0  0  0  0  0  0
    6.5389   -0.3197   -0.8173 C   0  0  0  0  0  0  0  0  0  0  0  0
    7.8590    0.0345   -1.3113 C   0  0  0  0  0  0  0  0  0  0  0  0
   -3.1332   -2.1199   -1.4091 O   0  0  0  0  0  0  0  0  0  0  0  0
   -2.6557   -3.0204    0.9004 O   0  0  0  0  0  0  0  0  0  0  0  0
   -0.2064    1.5018    3.1908 N   0  0  0  0  0  0  0  0  0  0  0  0
   -1.5182    1.5212    2.8196 C   0  0  0  0  0  0  0  0  0  0  0  0
   -1.6209    1.7376    1.4714 C   0  0  0  0  0  0  0  0  0  0  0  0
   -2.8771    1.8244    0.6742 C   0  0  0  0  0  0  0  0  0  0  0  0
   -3.0595    0.5976   -0.2435 C   0  0  2  0  0  0  0  0  0  0  0  0
   -4.3431    0.7417   -1.0396 C   0  0  0  0  0  0  0  0  0  0  0  0
   -3.1102   -0.6040    0.5619 N   0  0  0  0  0  0  0  0  0  0  0  0
   -4.1471    1.4856   -2.1185 O   0  0  0  0  0  0  0  0  0  0  0  0
   -5.4065    0.2871   -0.7139 O   0  0  0  0  0  0  0  0  0  0  0  0
    2.2635    2.4193   -1.7788 C   0  0  0  0  0  0  0  0  0  0  0  0
    2.6172    1.7258    2.8205 H   0  0  0  0  0  0  0  0  0  0  0  0
   -0.3695    2.1578   -1.1551 H   0  0  0  0  0  0  0  0  0  0  0  0
    3.5419    2.1528    0.5812 H   0  0  0  0  0  0  0  0  0  0  0  0
   -0.9442   -1.4106   -2.4888 H   0  0  0  0  0  0  0  0  0  0  0  0
    1.4463   -0.9246   -2.7772 H   0  0  0  0  0  0  0  0  0  0  0  0
    2.0454   -1.4129    1.4540 H   0  0  0  0  0  0  0  0  0  0  0  0
   -0.3095   -1.8934    1.7373 H   0  0  0  0  0  0  0  0  0  0  0  0
    3.8617   -0.2697    0.9181 H   0  0  0  0  0  0  0  0  0  0  0  0
    4.1544   -1.9699    0.5361 H   0  0  0  0  0  0  0  0  0  0  0  0
    8.6083   -0.0861   -0.5289 H   0  0  0  0  0  0  0  0  0  0  0  0
    8.1481   -0.5996   -2.1494 H   0  0  0  0  0  0  0  0  0  0  0  0
    7.8880    1.0711   -1.6463 H   0  0  0  0  0  0  0  0  0  0  0  0
   -2.3004    1.3965    3.5528 H   0  0  0  0  0  0  0  0  0  0  0  0
   -3.7413    1.9051    1.3384 H   0  0  0  0  0  0  0  0  0  0  0  0
   -2.8746    2.7195    0.0480 H   0  0  0  0  0  0  0  0  0  0  0  0
   -2.2135    0.5843   -0.9412 H   0  0  0  0  0  0  0  0  0  0  0  0
   -2.7937   -0.4767    1.5198 H   0  0  0  0  0  0  0  0  0  0  0  0
   -4.9842    1.6258   -2.5867 H   0  0  0  0  0  0  0  0  0  0  0  0
    2.7239    3.4082   -1.8338 H   0  0  0  0  0  0  0  0  0  0  0  0
    3.0460    1.6898   -1.9911 H   0  0  0  0  0  0  0  0  0  0  0  0
    1.5230    2.3542   -2.5751 H   0  0  0  0  0  0  0  0  0  0  0  0
    0.1219    1.3815    4.1340 H   0  0  0  0  0  0  0  0  0  0  0  0
  6  1  2  0
  1  2  1  0
  1 31  1  0
  3  2  2  0
  2 21  1  0
  4  3  1  0
  3 23  1  0
  5  4  2  0
  4 32  1  0
 30  5  1  0
  5  6  1  0
  6 33  1  0
  7 27  1  1
 20  7  2  0
  7  8  1  0
  7 19  2  0
  9  8  2  0
  8 13  1  0
  9 10  1  0
  9 34  1  0
 10 11  2  0
 10 35  1  0
 11 14  1  0
 11 12  1  0
 13 12  2  0
 12 36  1  0
 13 37  1  0
 14 15  1  0
 15 16  1  0
 15 38  1  0
 15 39  1  0
 16 17  3  0
 17 18  1  0
 18 40  1  0
 18 41  1  0
 18 42  1  0
 22 21  1  0
 23 22  2  0
 22 43  1  0
 24 23  1  0
 24 25  1  0
 24 44  1  0
 24 45  1  0
 25 26  1  0
 25 27  1  0
 25 46  1  6
 29 26  2  0
 26 28  1  0
 27 47  1  0
 28 48  1  0
 30 49  1  0
 30 50  1  0
 30 51  1  0
 21 52  1  0
M  END
