
     RDKit          3D

 31 33  0  0  0  0  0  0  0  0999 V2000
   -5.9933    1.3291    0.0291 C   0  0  0  0  0  0  0  0  0  0  0  0
   -5.3626    0.0610   -0.0194 O   0  0  0  0  0  0  0  0  0  0  0  0
   -4.0262    0.0078   -0.0167 C   0  0  0  0  0  0  0  0  0  0  0  0
   -3.1910    1.1230    0.0177 C   0  0  0  0  0  0  0  0  0  0  0  0
   -1.8151    0.9573    0.0192 C   0  0  0  0  0  0  0  0  0  0  0  0
   -3.4545   -1.2693   -0.0519 C   0  0  0  0  0  0  0  0  0  0  0  0
   -2.0871   -1.4202   -0.0492 C   0  0  0  0  0  0  0  0  0  0  0  0
   -1.2329   -0.3101   -0.0116 C   0  0  0  0  0  0  0  0  0  0  0  0
    0.2204   -0.4779   -0.0018 C   0  0  0  0  0  0  0  0  0  0  0  0
    0.8725    0.6920   -0.0166 O   0  0  0  0  0  0  0  0  0  0  0  0
    2.2232    0.7405   -0.0058 C   0  0  0  0  0  0  0  0  0  0  0  0
    2.8050    2.0048   -0.0221 C   0  0  0  0  0  0  0  0  0  0  0  0
    4.1816    2.1003   -0.0132 C   0  0  0  0  0  0  0  0  0  0  0  0
    4.9774    0.9516    0.0118 C   0  0  0  0  0  0  0  0  0  0  0  0
    4.3861   -0.2932    0.0278 C   0  0  0  0  0  0  0  0  0  0  0  0
    2.9935   -0.4177    0.0185 C   0  0  0  0  0  0  0  0  0  0  0  0
    2.3261   -1.7261    0.0348 C   0  0  0  0  0  0  0  0  0  0  0  0
    2.9501   -2.7806    0.0595 O   0  0  0  0  0  0  0  0  0  0  0  0
    0.8860   -1.6580    0.0226 C   0  0  0  0  0  0  0  0  0  0  0  0
   -5.7433    1.9391   -0.8419 H   0  0  0  0  0  0  0  0  0  0  0  0
   -7.0636    1.1398    0.0317 H   0  0  0  0  0  0  0  0  0  0  0  0
   -5.7273    1.8777    0.9354 H   0  0  0  0  0  0  0  0  0  0  0  0
   -3.5903    2.1273    0.0446 H   0  0  0  0  0  0  0  0  0  0  0  0
   -1.2016    1.8465    0.0480 H   0  0  0  0  0  0  0  0  0  0  0  0
   -4.0969   -2.1398   -0.0820 H   0  0  0  0  0  0  0  0  0  0  0  0
   -1.6896   -2.4253   -0.0806 H   0  0  0  0  0  0  0  0  0  0  0  0
    2.1808    2.8887   -0.0396 H   0  0  0  0  0  0  0  0  0  0  0  0
    4.6451    3.0777   -0.0265 H   0  0  0  0  0  0  0  0  0  0  0  0
    6.0549    1.0423    0.0185 H   0  0  0  0  0  0  0  0  0  0  0  0
    4.9932   -1.1884    0.0471 H   0  0  0  0  0  0  0  0  0  0  0  0
    0.3347   -2.5870    0.0398 H   0  0  0  0  0  0  0  0  0  0  0  0
  1  2  1  0
  2  3  1  0
  3  6  2  0
  3  4  1  0
  6  7  1  0
  4  5  2  0
  7  8  2  0
  5  8  1  0
  8  9  1  0
  9 10  1  0
  9 19  2  0
 10 11  1  0
 19 17  1  0
 11 12  2  0
 11 16  1  0
 12 13  1  0
 17 16  1  0
 17 18  2  0
 16 15  2  0
 13 14  2  0
 15 14  1  0
  1 20  1  0
  1 21  1  0
  1 22  1  0
  4 23  1  0
  5 24  1  0
  6 25  1  0
  7 26  1  0
 12 27  1  0
 13 28  1  0
 14 29  1  0
 15 30  1  0
 19 31  1  0
M  END
