
     RDKit          3D

 45 44  0  0  0  0  0  0  0  0999 V2000
   -9.1423   -1.2598    0.4752 O   0  0  0  0  0  0  0  0  0  0  0  0
   -8.3284   -0.5752   -0.0951 C   0  0  0  0  0  0  0  0  0  0  0  0
   -7.1088    0.0237    0.5282 C   0  0  0  0  0  0  0  0  0  0  0  0
   -5.8520   -0.2755   -0.2904 C   0  0  0  0  0  0  0  0  0  0  0  0
   -4.6098    0.3820    0.2965 C   0  0  0  0  0  0  0  0  0  0  0  0
   -3.3499    0.0979   -0.5108 C   0  0  0  0  0  0  0  0  0  0  0  0
   -2.1001    0.7303    0.0885 C   0  0  0  0  0  0  0  0  0  0  0  0
   -0.8456    0.4805   -0.7388 C   0  0  0  0  0  0  0  0  0  0  0  0
    0.4128    1.0623   -0.1081 C   0  0  0  0  0  0  0  0  0  0  0  0
    1.6591    0.8595   -0.9720 C   0  0  0  0  0  0  0  0  0  0  0  0
    2.8946    1.3905   -0.3233 C   0  0  0  0  0  0  0  0  0  0  0  0
    3.9580    0.6506    0.0085 C   0  0  0  0  0  0  0  0  0  0  0  0
    5.1395    1.1856    0.6646 C   0  0  0  0  0  0  0  0  0  0  0  0
    6.2381    0.5000    1.0060 C   0  0  0  0  0  0  0  0  0  0  0  0
    6.5136   -0.9503    0.7666 C   0  0  0  0  0  0  0  0  0  0  0  0
    7.6248   -1.1599   -0.2659 C   0  0  0  0  0  0  0  0  0  0  0  0
    7.9522   -2.6311   -0.4783 C   0  0  0  0  0  0  0  0  0  0  0  0
   -7.2654    1.1091    0.5523 H   0  0  0  0  0  0  0  0  0  0  0  0
   -7.0056   -0.3187    1.5595 H   0  0  0  0  0  0  0  0  0  0  0  0
   -5.7014   -1.3577   -0.3448 H   0  0  0  0  0  0  0  0  0  0  0  0
   -5.9963    0.0682   -1.3195 H   0  0  0  0  0  0  0  0  0  0  0  0
   -4.7676    1.4641    0.3558 H   0  0  0  0  0  0  0  0  0  0  0  0
   -4.4688    0.0378    1.3265 H   0  0  0  0  0  0  0  0  0  0  0  0
   -3.2052   -0.9851   -0.5884 H   0  0  0  0  0  0  0  0  0  0  0  0
   -3.4871    0.4599   -1.5357 H   0  0  0  0  0  0  0  0  0  0  0  0
   -2.2534    1.8098    0.1935 H   0  0  0  0  0  0  0  0  0  0  0  0
   -1.9504    0.3457    1.1034 H   0  0  0  0  0  0  0  0  0  0  0  0
   -0.7113   -0.5973   -0.8804 H   0  0  0  0  0  0  0  0  0  0  0  0
   -0.9829    0.9029   -1.7404 H   0  0  0  0  0  0  0  0  0  0  0  0
    0.2709    2.1326    0.0751 H   0  0  0  0  0  0  0  0  0  0  0  0
    0.5758    0.6036    0.8723 H   0  0  0  0  0  0  0  0  0  0  0  0
    1.7875   -0.2036   -1.1955 H   0  0  0  0  0  0  0  0  0  0  0  0
    1.5012    1.3628   -1.9330 H   0  0  0  0  0  0  0  0  0  0  0  0
    2.9017    2.4546   -0.0940 H   0  0  0  0  0  0  0  0  0  0  0  0
    3.9418   -0.4103   -0.2239 H   0  0  0  0  0  0  0  0  0  0  0  0
    5.1120    2.2473    0.8944 H   0  0  0  0  0  0  0  0  0  0  0  0
    7.0412    1.0503    1.4879 H   0  0  0  0  0  0  0  0  0  0  0  0
    6.8203   -1.4159    1.7096 H   0  0  0  0  0  0  0  0  0  0  0  0
    5.6149   -1.4799    0.4417 H   0  0  0  0  0  0  0  0  0  0  0  0
    7.3201   -0.7071   -1.2131 H   0  0  0  0  0  0  0  0  0  0  0  0
    8.5234   -0.6247    0.0546 H   0  0  0  0  0  0  0  0  0  0  0  0
    8.2957   -3.0975    0.4467 H   0  0  0  0  0  0  0  0  0  0  0  0
    7.0761   -3.1852   -0.8204 H   0  0  0  0  0  0  0  0  0  0  0  0
    8.7364   -2.7612   -1.2249 H   0  0  0  0  0  0  0  0  0  0  0  0
   -8.4497   -0.3377   -1.1688 H   0  0  0  0  0  0  0  0  0  0  0  0
  1  2  2  0
  2  3  1  0
  3  4  1  0
  4  5  1  0
  5  6  1  0
  6  7  1  0
  7  8  1  0
  8  9  1  0
  9 10  1  0
 10 11  1  0
 11 12  2  0
 12 13  1  0
 13 14  2  0
 14 15  1  0
 15 16  1  0
 16 17  1  0
  3 18  1  0
  3 19  1  0
  4 20  1  0
  4 21  1  0
  5 22  1  0
  5 23  1  0
  6 24  1  0
  6 25  1  0
  7 26  1  0
  7 27  1  0
  8 28  1  0
  8 29  1  0
  9 30  1  0
  9 31  1  0
 10 32  1  0
 10 33  1  0
 11 34  1  0
 12 35  1  0
 13 36  1  0
 14 37  1  0
 15 38  1  0
 15 39  1  0
 16 40  1  0
 16 41  1  0
 17 42  1  0
 17 43  1  0
 17 44  1  0
  2 45  1  0
M  END
