
     RDKit          3D

 36 35  0  0  0  0  0  0  0  0999 V2000
   -2.7982    0.7217    0.0318 C   0  0  0  0  0  0  0  0  0  0  0  0
   -4.1091   -0.0141    0.0886 C   0  0  0  0  0  0  0  0  0  0  0  0
   -5.3397    0.8358   -0.1065 C   0  0  0  0  0  0  0  0  0  0  0  0
    7.1915    0.3195    0.0082 C   0  0  0  0  0  0  0  0  0  0  0  0
    5.8761   -0.4440    0.0156 C   0  0  0  0  0  0  0  0  0  0  0  0
    4.6699    0.4820    0.0179 C   0  0  0  0  0  0  0  0  0  0  0  0
    2.2540    0.5894    0.0325 C   0  0  0  0  0  0  0  0  0  0  0  0
    0.9702   -0.2250    0.0522 C   0  0  0  0  0  0  0  0  0  0  0  0
   -0.2779    0.6480    0.0327 C   0  0  0  0  0  0  0  0  0  0  0  0
   -1.5650   -0.1670    0.0683 C   0  0  0  0  0  0  0  0  0  0  0  0
    8.3238   -0.5966   -0.0036 N   0  0  0  0  0  0  0  0  0  0  0  0
    3.4266   -0.2642    0.0531 N   0  0  0  0  0  0  0  0  0  0  0  0
   -4.1964   -1.2038    0.2812 O   0  0  0  0  0  0  0  0  0  0  0  0
   -6.8224   -0.1949    0.0661 S   0  0  0  0  0  0  0  0  0  0  0  0
   -2.7966    1.3516   -0.8645 H   0  0  0  0  0  0  0  0  0  0  0  0
   -2.7878    1.4280    0.8707 H   0  0  0  0  0  0  0  0  0  0  0  0
   -5.3380    1.6483    0.6235 H   0  0  0  0  0  0  0  0  0  0  0  0
   -5.2997    1.2977   -1.0955 H   0  0  0  0  0  0  0  0  0  0  0  0
    7.1916    1.0243   -0.8360 H   0  0  0  0  0  0  0  0  0  0  0  0
    7.2542    0.9290    0.9143 H   0  0  0  0  0  0  0  0  0  0  0  0
    5.8313   -1.0940   -0.8663 H   0  0  0  0  0  0  0  0  0  0  0  0
    5.8374   -1.0976    0.8914 H   0  0  0  0  0  0  0  0  0  0  0  0
    4.7087    1.1228    0.9055 H   0  0  0  0  0  0  0  0  0  0  0  0
    4.7286    1.1611   -0.8491 H   0  0  0  0  0  0  0  0  0  0  0  0
    2.2413    1.2674   -0.8377 H   0  0  0  0  0  0  0  0  0  0  0  0
    2.2849    1.2346    0.9171 H   0  0  0  0  0  0  0  0  0  0  0  0
    0.9531   -0.8988   -0.8119 H   0  0  0  0  0  0  0  0  0  0  0  0
    0.9629   -0.8622    0.9422 H   0  0  0  0  0  0  0  0  0  0  0  0
   -0.2567    1.3330    0.8873 H   0  0  0  0  0  0  0  0  0  0  0  0
   -0.2686    1.2786   -0.8630 H   0  0  0  0  0  0  0  0  0  0  0  0
   -1.5782   -0.7847    0.9701 H   0  0  0  0  0  0  0  0  0  0  0  0
   -1.5822   -0.8569   -0.7801 H   0  0  0  0  0  0  0  0  0  0  0  0
    8.3402   -1.0893   -0.8886 H   0  0  0  0  0  0  0  0  0  0  0  0
    9.1851   -0.0658    0.0243 H   0  0  0  0  0  0  0  0  0  0  0  0
    3.3940   -0.8766   -0.7548 H   0  0  0  0  0  0  0  0  0  0  0  0
   -7.6992    0.7889   -0.1626 H   0  0  0  0  0  0  0  0  0  0  0  0
 11  4  1  0
  4  5  1  0
  5  6  1  0
  6 12  1  0
 13  2  2  0
 12  7  1  0
 14  3  1  0
  2  3  1  0
  2  1  1  0
 10  1  1  0
 10  9  1  0
  7  8  1  0
  8  9  1  0
  1 15  1  0
  1 16  1  0
  3 17  1  0
  3 18  1  0
  4 19  1  0
  4 20  1  0
  5 21  1  0
  5 22  1  0
  6 23  1  0
  6 24  1  0
  7 25  1  0
  7 26  1  0
  8 27  1  0
  8 28  1  0
  9 29  1  0
  9 30  1  0
 10 31  1  0
 10 32  1  0
 11 33  1  0
 11 34  1  0
 12 35  1  0
 14 36  1  0
M  END
