
     RDKit          3D

 33 33  0  0  0  0  0  0  0  0999 V2000
    1.7622    0.7017    3.2449 N   0  0  0  0  0  0  0  0  0  0  0  0
    0.3879    0.3245    3.4901 C   0  0  2  0  0  0  0  0  0  0  0  0
    0.1411    0.1706    4.9820 C   0  0  0  0  0  0  0  0  0  0  0  0
    0.8359   -0.3966    5.8281 O   0  0  0  0  0  0  0  0  0  0  0  0
   -1.0139    0.7509    5.4049 O   0  0  0  0  0  0  0  0  0  0  0  0
   -0.0912   -0.9862    2.8272 C   0  0  0  0  0  0  0  0  0  0  0  0
   -0.0831   -0.8755    1.3453 C   0  0  0  0  0  0  0  0  0  0  0  0
   -1.2053   -0.3833    0.6720 C   0  0  0  0  0  0  0  0  0  0  0  0
    1.0447   -1.2624    0.6141 C   0  0  0  0  0  0  0  0  0  0  0  0
   -1.2203   -0.2700   -0.7215 C   0  0  0  0  0  0  0  0  0  0  0  0
    1.0581   -1.1610   -0.7726 C   0  0  0  0  0  0  0  0  0  0  0  0
   -0.0725   -0.6651   -1.4451 C   0  0  0  0  0  0  0  0  0  0  0  0
   -2.4163    0.2558   -1.4488 C   0  0  0  0  0  0  0  0  0  0  0  0
   -0.0639   -0.5628   -2.8164 O   0  0  0  0  0  0  0  0  0  0  0  0
    0.7618    0.5745   -3.6122 P   0  0  1  0  0  0  0  0  0  0  0  0
    2.1461    0.7653   -3.2328 O   0  0  0  0  0  0  0  0  0  0  0  0
    0.5350    0.0873   -5.1086 O   0  0  0  0  0  0  0  0  0  0  0  0
   -0.2757    1.7754   -3.6200 O   0  0  0  0  0  0  0  0  0  0  0  0
   -3.5876    0.0348   -0.6751 O   0  0  0  0  0  0  0  0  0  0  0  0
    1.8416    1.1319    2.3435 H   0  0  0  0  0  0  0  0  0  0  0  0
    2.3699   -0.0934    3.2945 H   0  0  0  0  0  0  0  0  0  0  0  0
   -0.2623    1.1701    3.1081 H   0  0  0  0  0  0  0  0  0  0  0  0
   -1.1143    0.6187    6.3627 H   0  0  0  0  0  0  0  0  0  0  0  0
    0.5668   -1.8346    3.1565 H   0  0  0  0  0  0  0  0  0  0  0  0
   -1.1319   -1.2018    3.1901 H   0  0  0  0  0  0  0  0  0  0  0  0
   -2.0952   -0.0770    1.2469 H   0  0  0  0  0  0  0  0  0  0  0  0
    1.9324   -1.6513    1.1365 H   0  0  0  0  0  0  0  0  0  0  0  0
    1.9506   -1.4682   -1.3374 H   0  0  0  0  0  0  0  0  0  0  0  0
   -2.2951    1.3609   -1.6340 H   0  0  0  0  0  0  0  0  0  0  0  0
   -2.5174   -0.2699   -2.4381 H   0  0  0  0  0  0  0  0  0  0  0  0
    1.2206   -0.4200   -5.5339 H   0  0  0  0  0  0  0  0  0  0  0  0
   -0.9939    1.7141   -4.2480 H   0  0  0  0  0  0  0  0  0  0  0  0
   -4.2736    0.5894   -1.0639 H   0  0  0  0  0  0  0  0  0  0  0  0
  1  2  1  0
  1 20  1  0
  1 21  1  0
  2  3  1  0
  2  6  1  0
  2 22  1  6
  3  4  2  0
  3  5  1  0
  5 23  1  0
  6  7  1  0
  6 24  1  0
  6 25  1  0
  7  8  2  0
  7  9  1  0
  8 10  1  0
  8 26  1  0
  9 11  2  0
  9 27  1  0
 10 12  2  0
 10 13  1  0
 11 12  1  0
 11 28  1  0
 12 14  1  0
 13 19  1  0
 13 29  1  0
 13 30  1  0
 15 14  1  1
 15 16  2  0
 15 17  1  0
 15 18  1  0
 17 31  1  0
 18 32  1  0
 19 33  1  0
M  END
