
     RDKit          3D

 35 38  0  0  0  0  0  0  0  0999 V2000
    4.1222    0.1956    0.0270 N   0  0  0  0  0  0  0  0  0  0  0  0
    0.0883    0.0205    0.0331 N   0  0  0  0  0  0  0  0  0  0  0  0
    2.1750   -1.1508    0.0067 C   0  0  0  0  0  0  0  0  0  0  0  0
    1.5317   -2.3399   -0.0132 C   0  0  0  0  0  0  0  0  0  0  0  0
   -0.5997   -1.1757    0.0191 C   0  0  0  0  0  0  0  0  0  0  0  0
    0.1143   -2.3890   -0.0047 C   0  0  0  0  0  0  0  0  0  0  0  0
   -0.5741   -3.6103   -0.0162 C   0  0  0  0  0  0  0  0  0  0  0  0
   -2.6434   -2.4291    0.0235 C   0  0  0  0  0  0  0  0  0  0  0  0
   -0.6474    1.2505    0.0497 C   0  0  0  0  0  0  0  0  0  0  0  0
   -1.7337    2.9956    1.2815 C   0  0  0  0  0  0  0  0  0  0  0  0
   -1.7190    3.0395   -1.1295 C   0  0  0  0  0  0  0  0  0  0  0  0
    3.6433   -1.0787    0.0037 C   0  0  0  0  0  0  0  0  0  0  0  0
    3.3624    1.3668    0.0516 C   0  0  0  0  0  0  0  0  0  0  0  0
    2.0052    1.2659    0.0529 N   0  0  0  0  0  0  0  0  0  0  0  0
    1.4519    0.0895    0.0313 C   0  0  0  0  0  0  0  0  0  0  0  0
   -1.9961   -1.2059    0.0315 C   0  0  0  0  0  0  0  0  0  0  0  0
   -1.9450   -3.6449    0.0006 C   0  0  0  0  0  0  0  0  0  0  0  0
   -4.0724   -2.4474    0.0401 C   0  0  0  0  0  0  0  0  0  0  0  0
   -5.2234   -2.4716    0.0447 N   0  0  0  0  0  0  0  0  0  0  0  0
    3.9357    2.4373    0.0714 O   0  0  0  0  0  0  0  0  0  0  0  0
    4.3654   -2.0537   -0.0179 O   0  0  0  0  0  0  0  0  0  0  0  0
   -1.0128    1.8161    1.2610 C   0  0  0  0  0  0  0  0  0  0  0  0
   -2.0897    3.6163    0.0839 C   0  0  0  0  0  0  0  0  0  0  0  0
   -0.9974    1.8576   -1.1436 C   0  0  0  0  0  0  0  0  0  0  0  0
   -2.7856    4.7620    0.1598 O   0  0  0  0  0  0  0  0  0  0  0  0
    5.1280    0.3112    0.0253 H   0  0  0  0  0  0  0  0  0  0  0  0
    2.0956   -3.2648   -0.0329 H   0  0  0  0  0  0  0  0  0  0  0  0
   -0.0058   -4.5304   -0.0345 H   0  0  0  0  0  0  0  0  0  0  0  0
   -2.0186    3.4419    2.2254 H   0  0  0  0  0  0  0  0  0  0  0  0
   -1.9885    3.5112   -2.0666 H   0  0  0  0  0  0  0  0  0  0  0  0
   -2.5775   -0.2963    0.0494 H   0  0  0  0  0  0  0  0  0  0  0  0
   -2.4789   -4.5840   -0.0031 H   0  0  0  0  0  0  0  0  0  0  0  0
   -0.7350    1.3386    2.1919 H   0  0  0  0  0  0  0  0  0  0  0  0
   -0.7113    1.4130   -2.0880 H   0  0  0  0  0  0  0  0  0  0  0  0
   -2.9622    5.1123   -0.7203 H   0  0  0  0  0  0  0  0  0  0  0  0
 20 13  2  0
 13  1  1  0
 13 14  1  0
 25 23  1  0
 10 23  2  0
 10 22  1  0
  1 12  1  0
 14 15  2  0
 23 11  1  0
 22  9  2  0
 11 24  2  0
 12 21  2  0
 12  3  1  0
 15  3  1  0
 15  2  1  0
  9 24  1  0
  9  2  1  0
  3  4  2  0
  2  5  1  0
  4  6  1  0
  5  6  2  0
  5 16  1  0
  6  7  1  0
 16  8  2  0
  7 17  2  0
  8 17  1  0
  8 18  1  0
 18 19  3  0
  1 26  1  0
  4 27  1  0
  7 28  1  0
 10 29  1  0
 11 30  1  0
 16 31  1  0
 17 32  1  0
 22 33  1  0
 24 34  1  0
 25 35  1  0
M  END
