
     RDKit          3D

 63 65  0  0  0  0  0  0  0  0999 V2000
    4.3790    4.3878    1.2765 N   0  0  0  0  0  0  0  0  0  0  0  0
    4.6723    3.2887    0.5225 C   0  0  0  0  0  0  0  0  0  0  0  0
    6.0082    2.9239    0.2765 C   0  0  0  0  0  0  0  0  0  0  0  0
    6.2685    1.7767   -0.4436 C   0  0  0  0  0  0  0  0  0  0  0  0
    7.6719    1.3415   -0.7360 C   0  0  0  0  0  0  0  0  0  0  0  0
    5.1798    1.0236   -0.8996 C   0  0  0  0  0  0  0  0  0  0  0  0
    3.6472    2.5715    0.0761 N   0  0  0  0  0  0  0  0  0  0  0  0
    3.8976    1.4601   -0.6201 C   0  0  0  0  0  0  0  0  0  0  0  0
    2.6992    0.6725   -1.0632 C   0  0  0  0  0  0  0  0  0  0  0  0
    1.9868    0.0023    0.1215 C   0  0  0  0  0  0  0  0  0  0  0  0
    0.8326   -0.8473   -0.3362 C   0  0  0  0  0  0  0  0  0  0  0  0
    1.0074   -2.1782   -0.7367 C   0  0  0  0  0  0  0  0  0  0  0  0
    2.3352   -2.8797   -0.6260 C   0  0  0  0  0  0  0  0  0  0  0  0
    2.5482   -3.4961    0.7577 C   0  0  0  0  0  0  0  0  0  0  0  0
    3.8969   -4.1860    0.8856 C   0  0  0  0  0  0  0  0  0  0  0  0
    4.0546   -4.7768    2.2070 N   0  0  0  0  0  0  0  0  0  0  0  0
   -0.1014   -2.8828   -1.2004 C   0  0  0  0  0  0  0  0  0  0  0  0
   -1.3565   -2.2980   -1.2748 C   0  0  0  0  0  0  0  0  0  0  0  0
   -0.4340   -0.2740   -0.4187 C   0  0  0  0  0  0  0  0  0  0  0  0
   -1.5411   -0.9762   -0.8827 C   0  0  0  0  0  0  0  0  0  0  0  0
   -2.9031   -0.3422   -0.9053 C   0  0  0  0  0  0  0  0  0  0  0  0
   -3.6552   -0.5742    0.4124 C   0  0  0  0  0  0  0  0  0  0  0  0
   -5.0016    0.0915    0.4131 C   0  0  0  0  0  0  0  0  0  0  0  0
   -6.1665   -0.6488    0.3302 C   0  0  0  0  0  0  0  0  0  0  0  0
   -4.9952    1.4256    0.4720 N   0  0  0  0  0  0  0  0  0  0  0  0
   -6.1560    2.0702    0.4487 C   0  0  0  0  0  0  0  0  0  0  0  0
   -6.1105    3.4349    0.4638 N   0  0  0  0  0  0  0  0  0  0  0  0
   -7.3883    1.3970    0.3688 C   0  0  0  0  0  0  0  0  0  0  0  0
   -7.3970    0.0192    0.3076 C   0  0  0  0  0  0  0  0  0  0  0  0
   -8.6794   -0.7492    0.2144 C   0  0  0  0  0  0  0  0  0  0  0  0
    5.0875    5.0954    1.3730 H   0  0  0  0  0  0  0  0  0  0  0  0
    3.4425    4.7479    1.1946 H   0  0  0  0  0  0  0  0  0  0  0  0
    6.8173    3.5410    0.6487 H   0  0  0  0  0  0  0  0  0  0  0  0
    7.8736    0.3625   -0.2987 H   0  0  0  0  0  0  0  0  0  0  0  0
    7.8340    1.2497   -1.8108 H   0  0  0  0  0  0  0  0  0  0  0  0
    8.4028    2.0454   -0.3417 H   0  0  0  0  0  0  0  0  0  0  0  0
    5.3365    0.1165   -1.4702 H   0  0  0  0  0  0  0  0  0  0  0  0
    1.9922    1.3321   -1.5734 H   0  0  0  0  0  0  0  0  0  0  0  0
    3.0017   -0.0869   -1.7868 H   0  0  0  0  0  0  0  0  0  0  0  0
    2.7079   -0.5885    0.6907 H   0  0  0  0  0  0  0  0  0  0  0  0
    1.6262    0.7808    0.7964 H   0  0  0  0  0  0  0  0  0  0  0  0
    2.3912   -3.6690   -1.3802 H   0  0  0  0  0  0  0  0  0  0  0  0
    3.1586   -2.1948   -0.8461 H   0  0  0  0  0  0  0  0  0  0  0  0
    2.4622   -2.7246    1.5286 H   0  0  0  0  0  0  0  0  0  0  0  0
    1.7479   -4.2183    0.9504 H   0  0  0  0  0  0  0  0  0  0  0  0
    4.0058   -4.9110    0.0652 H   0  0  0  0  0  0  0  0  0  0  0  0
    4.6902   -3.4458    0.7461 H   0  0  0  0  0  0  0  0  0  0  0  0
    3.3814   -5.5254    2.3188 H   0  0  0  0  0  0  0  0  0  0  0  0
    4.9622   -5.2205    2.2698 H   0  0  0  0  0  0  0  0  0  0  0  0
    0.0231   -3.9135   -1.5138 H   0  0  0  0  0  0  0  0  0  0  0  0
   -2.1978   -2.8741   -1.6438 H   0  0  0  0  0  0  0  0  0  0  0  0
   -0.5582    0.7600   -0.1098 H   0  0  0  0  0  0  0  0  0  0  0  0
   -2.8170    0.7322   -1.0806 H   0  0  0  0  0  0  0  0  0  0  0  0
   -3.4911   -0.7536   -1.7296 H   0  0  0  0  0  0  0  0  0  0  0  0
   -3.7689   -1.6470    0.5816 H   0  0  0  0  0  0  0  0  0  0  0  0
   -3.0573   -0.1779    1.2375 H   0  0  0  0  0  0  0  0  0  0  0  0
   -6.1226   -1.7300    0.2876 H   0  0  0  0  0  0  0  0  0  0  0  0
   -5.2515    3.8471    0.7894 H   0  0  0  0  0  0  0  0  0  0  0  0
   -6.9383    3.9249    0.7590 H   0  0  0  0  0  0  0  0  0  0  0  0
   -8.3138    1.9605    0.3563 H   0  0  0  0  0  0  0  0  0  0  0  0
   -8.7201   -1.3193   -0.7153 H   0  0  0  0  0  0  0  0  0  0  0  0
   -8.7649   -1.4666    1.0317 H   0  0  0  0  0  0  0  0  0  0  0  0
   -9.5478   -0.0930    0.2459 H   0  0  0  0  0  0  0  0  0  0  0  0
 30 29  1  0
 29 28  1  0
 29 24  2  0
 28 26  2  0
 24 23  1  0
 26 27  1  0
 26 25  1  0
 21 20  1  0
 21 22  1  0
 23 25  2  0
 23 22  1  0
 20 18  2  0
 20 19  1  0
 18 17  1  0
 19 11  2  0
 17 12  2  0
 11 12  1  0
 11 10  1  0
 12 13  1  0
 10  9  1  0
  9  8  1  0
 16 15  1  0
 14 13  1  0
 14 15  1  0
  7  8  1  0
  7  2  2  0
  8  6  2  0
  1  2  1  0
  2  3  1  0
  6  4  1  0
  3  4  2  0
  4  5  1  0
  1 31  1  0
  1 32  1  0
  3 33  1  0
  5 34  1  0
  5 35  1  0
  5 36  1  0
  6 37  1  0
  9 38  1  0
  9 39  1  0
 10 40  1  0
 10 41  1  0
 13 42  1  0
 13 43  1  0
 14 44  1  0
 14 45  1  0
 15 46  1  0
 15 47  1  0
 16 48  1  0
 16 49  1  0
 17 50  1  0
 18 51  1  0
 19 52  1  0
 21 53  1  0
 21 54  1  0
 22 55  1  0
 22 56  1  0
 24 57  1  0
 27 58  1  0
 27 59  1  0
 28 60  1  0
 30 61  1  0
 30 62  1  0
 30 63  1  0
M  END
