
     RDKit          3D

 39 40  0  0  0  0  0  0  0  0999 V2000
    1.2407    2.0901   -0.1034 C   0  0  0  0  0  0  0  0  0  0  0  0
    4.6757   -0.3573   -0.2983 C   0  0  0  0  0  0  0  0  0  0  0  0
    7.5716   -2.2663    0.4123 O   0  0  0  0  0  0  0  0  0  0  0  0
    6.5128   -1.4805    0.6379 N   0  0  0  0  0  0  0  0  0  0  0  0
    5.8507   -1.2084   -0.4128 C   0  0  0  0  0  0  0  0  0  0  0  0
    4.2315    0.1616    0.9208 C   0  0  0  0  0  0  0  0  0  0  0  0
    3.1215    0.9624    0.9516 C   0  0  0  0  0  0  0  0  0  0  0  0
    2.4524    1.2626   -0.1736 N   0  0  0  0  0  0  0  0  0  0  0  0
    2.8496    0.7750   -1.3563 C   0  0  0  0  0  0  0  0  0  0  0  0
    3.9549   -0.0327   -1.4471 C   0  0  0  0  0  0  0  0  0  0  0  0
    0.0010    1.2144   -0.0043 C   0  0  0  0  0  0  0  0  0  0  0  0
   -1.2347    2.0956    0.0963 C   0  0  0  0  0  0  0  0  0  0  0  0
   -2.4493    1.2736    0.1771 N   0  0  0  0  0  0  0  0  0  0  0  0
   -3.1356    0.9830   -0.9401 C   0  0  0  0  0  0  0  0  0  0  0  0
   -4.2478    0.1858   -0.8979 C   0  0  0  0  0  0  0  0  0  0  0  0
   -4.6755   -0.3401    0.3242 C   0  0  0  0  0  0  0  0  0  0  0  0
   -3.9366   -0.0255    1.4645 C   0  0  0  0  0  0  0  0  0  0  0  0
   -2.8310    0.7795    1.3621 C   0  0  0  0  0  0  0  0  0  0  0  0
   -5.8508   -1.1894    0.4498 C   0  0  0  0  0  0  0  0  0  0  0  0
   -6.5294   -1.4513   -0.5929 N   0  0  0  0  0  0  0  0  0  0  0  0
   -7.5862   -2.2372   -0.3580 O   0  0  0  0  0  0  0  0  0  0  0  0
    1.3369    2.7437    0.7618 H   0  0  0  0  0  0  0  0  0  0  0  0
    1.2170    2.7181   -0.9925 H   0  0  0  0  0  0  0  0  0  0  0  0
    7.9827   -2.3894    1.2765 H   0  0  0  0  0  0  0  0  0  0  0  0
    6.1237   -1.5803   -1.3983 H   0  0  0  0  0  0  0  0  0  0  0  0
    4.7440   -0.0509    1.8470 H   0  0  0  0  0  0  0  0  0  0  0  0
    2.7446    1.3875    1.8697 H   0  0  0  0  0  0  0  0  0  0  0  0
    2.2663    1.0537   -2.2213 H   0  0  0  0  0  0  0  0  0  0  0  0
    4.2500   -0.4014   -2.4189 H   0  0  0  0  0  0  0  0  0  0  0  0
   -0.0734    0.5702   -0.8838 H   0  0  0  0  0  0  0  0  0  0  0  0
    0.0721    0.5689    0.8744 H   0  0  0  0  0  0  0  0  0  0  0  0
   -1.2037    2.7278    0.9824 H   0  0  0  0  0  0  0  0  0  0  0  0
   -1.3322    2.7453   -0.7715 H   0  0  0  0  0  0  0  0  0  0  0  0
   -2.7694    1.4111   -1.8612 H   0  0  0  0  0  0  0  0  0  0  0  0
   -4.7746   -0.0194   -1.8177 H   0  0  0  0  0  0  0  0  0  0  0  0
   -4.2181   -0.4001    2.4381 H   0  0  0  0  0  0  0  0  0  0  0  0
   -2.2336    1.0499    2.2204 H   0  0  0  0  0  0  0  0  0  0  0  0
   -6.1095   -1.5690    1.4362 H   0  0  0  0  0  0  0  0  0  0  0  0
   -8.0109   -2.3517   -1.2168 H   0  0  0  0  0  0  0  0  0  0  0  0
  1  8  1  0
  1 11  1  0
  1 22  1  0
  1 23  1  0
  2  5  1  0
  2  6  2  0
  2 10  1  0
  3  4  1  0
  3 24  1  0
  4  5  2  0
  5 25  1  0
  6  7  1  0
  6 26  1  0
  7  8  2  0
  7 27  1  0
  8  9  1  0
  9 10  2  0
  9 28  1  0
 10 29  1  0
 11 12  1  0
 11 30  1  0
 11 31  1  0
 12 13  1  0
 12 32  1  0
 12 33  1  0
 13 14  2  0
 13 18  1  0
 14 15  1  0
 14 34  1  0
 15 16  2  0
 15 35  1  0
 16 17  1  0
 16 19  1  0
 17 18  2  0
 17 36  1  0
 18 37  1  0
 19 20  2  0
 19 38  1  0
 20 21  1  0
 21 39  1  0
M  CHG  2   8   1  13   1
M  END
