
     RDKit          3D

 82 87  0  0  0  0  0  0  0  0999 V2000
   -0.1479    3.0599    0.6823 N   0  0  0  0  0  0  0  0  0  0  0  0
    4.0047   -0.1011    1.4787 N   0  0  0  0  0  0  0  0  0  0  0  0
   -3.2121    0.7762   -0.3856 N   0  0  0  0  0  0  0  0  0  0  0  0
   -6.1642   -2.2366   -0.6659 N   0  0  0  0  0  0  0  0  0  0  0  0
    2.7267   -1.4994    2.7203 O   0  0  0  0  0  0  0  0  0  0  0  0
   -1.7818    1.9457   -1.6913 O   0  0  0  0  0  0  0  0  0  0  0  0
   -3.6009    3.8119    1.7595 C   0  0  0  0  0  0  0  0  0  0  0  0
   -1.5672    4.9556    0.2653 C   0  0  0  0  0  0  0  0  0  0  0  0
   -2.3914    3.1483    1.6190 C   0  0  0  0  0  0  0  0  0  0  0  0
    0.6751   -1.0455    0.6636 C   0  0  0  0  0  0  0  0  0  0  0  0
   -0.5073   -0.5767    0.1185 C   0  0  0  0  0  0  0  0  0  0  0  0
    1.2717    1.2165    1.2127 C   0  0  0  0  0  0  0  0  0  0  0  0
   -7.3828   -4.1671   -0.2068 C   0  0  0  0  0  0  0  0  0  0  0  0
   -8.1535   -3.3893   -1.2861 C   0  0  0  0  0  0  0  0  0  0  0  0
   -5.1268   -0.2000   -1.5505 C   0  0  0  0  0  0  0  0  0  0  0  0
   -4.2688   -1.2277    0.5484 C   0  0  0  0  0  0  0  0  0  0  0  0
   -6.5160   -3.1026    0.4490 C   0  0  0  0  0  0  0  0  0  0  0  0
   -7.4088   -2.0504   -1.4036 C   0  0  0  0  0  0  0  0  0  0  0  0
    5.2362   -0.4859    2.1478 C   0  0  0  0  0  0  0  0  0  0  0  0
   -4.3704    1.0755   -1.2067 C   0  0  0  0  0  0  0  0  0  0  0  0
   -3.5588    0.0851    0.8418 C   0  0  0  0  0  0  0  0  0  0  0  0
   -1.3702    3.7035    0.8485 C   0  0  0  0  0  0  0  0  0  0  0  0
    1.5837   -0.1337    1.1902 C   0  0  0  0  0  0  0  0  0  0  0  0
    0.0761    1.6980    0.6714 C   0  0  0  0  0  0  0  0  0  0  0  0
   -0.8218    0.7790    0.1042 C   0  0  0  0  0  0  0  0  0  0  0  0
   -5.5160   -0.9919   -0.3019 C   0  0  2  0  0  0  0  0  0  0  0  0
    0.6720    3.6446    0.7035 H   0  0  0  0  0  0  0  0  0  0  0  0
   -4.3842    3.3594    2.3544 H   0  0  0  0  0  0  0  0  0  0  0  0
   -0.7784    5.3991   -0.3302 H   0  0  0  0  0  0  0  0  0  0  0  0
   -2.2353    2.2078    2.1315 H   0  0  0  0  0  0  0  0  0  0  0  0
    0.8950   -2.1045    0.6564 H   0  0  0  0  0  0  0  0  0  0  0  0
   -1.1942   -1.2820   -0.3346 H   0  0  0  0  0  0  0  0  0  0  0  0
    1.9602    1.9233    1.6625 H   0  0  0  0  0  0  0  0  0  0  0  0
   -8.0363   -4.6679    0.5072 H   0  0  0  0  0  0  0  0  0  0  0  0
   -6.7502   -4.9310   -0.6617 H   0  0  0  0  0  0  0  0  0  0  0  0
   -8.1710   -3.9291   -2.2329 H   0  0  0  0  0  0  0  0  0  0  0  0
   -9.1912   -3.2240   -0.9966 H   0  0  0  0  0  0  0  0  0  0  0  0
   -6.0101    0.0817   -2.1266 H   0  0  0  0  0  0  0  0  0  0  0  0
   -4.5072   -0.8322   -2.1944 H   0  0  0  0  0  0  0  0  0  0  0  0
   -3.5915   -1.9119    0.0270 H   0  0  0  0  0  0  0  0  0  0  0  0
   -4.5299   -1.6900    1.5017 H   0  0  0  0  0  0  0  0  0  0  0  0
   -5.6303   -3.5224    0.9269 H   0  0  0  0  0  0  0  0  0  0  0  0
   -7.0873   -2.5641    1.2256 H   0  0  0  0  0  0  0  0  0  0  0  0
   -8.0135   -1.2420   -0.9604 H   0  0  0  0  0  0  0  0  0  0  0  0
   -7.2168   -1.7721   -2.4407 H   0  0  0  0  0  0  0  0  0  0  0  0
    5.7714    0.4313    2.4145 H   0  0  0  0  0  0  0  0  0  0  0  0
    5.0010   -1.0040    3.0732 H   0  0  0  0  0  0  0  0  0  0  0  0
   -5.0228    1.7630   -0.6548 H   0  0  0  0  0  0  0  0  0  0  0  0
   -4.0523    1.5863   -2.1112 H   0  0  0  0  0  0  0  0  0  0  0  0
   -2.6746   -0.0835    1.4509 H   0  0  0  0  0  0  0  0  0  0  0  0
   -4.2259    0.7346    1.4217 H   0  0  0  0  0  0  0  0  0  0  0  0
   -6.2065   -0.3614    0.2961 H   0  0  0  0  0  0  0  0  0  0  0  0
   -3.8003    5.0527    1.1696 C   0  0  0  0  0  0  0  0  0  0  0  0
   -2.7682    5.6254    0.4360 C   0  0  0  0  0  0  0  0  0  0  0  0
    4.2412    0.6105    0.2326 C   0  0  0  0  0  0  0  0  0  0  0  0
    5.0939   -0.2226   -0.7166 C   0  0  0  0  0  0  0  0  0  0  0  0
    6.1098   -1.3514    1.2517 C   0  0  0  0  0  0  0  0  0  0  0  0
    6.4118   -0.6500   -0.0732 C   0  0  1  0  0  0  0  0  0  0  0  0
   -4.7427    5.5711    1.2870 H   0  0  0  0  0  0  0  0  0  0  0  0
   -2.9040    6.5967   -0.0222 H   0  0  0  0  0  0  0  0  0  0  0  0
    3.3009    0.8622   -0.2484 H   0  0  0  0  0  0  0  0  0  0  0  0
    4.7468    1.5536    0.4608 H   0  0  0  0  0  0  0  0  0  0  0  0
    4.5353   -1.1129   -1.0242 H   0  0  0  0  0  0  0  0  0  0  0  0
    5.2694    0.3758   -1.6124 H   0  0  0  0  0  0  0  0  0  0  0  0
    7.0301   -1.5789    1.7927 H   0  0  0  0  0  0  0  0  0  0  0  0
    5.6085   -2.3034    1.0511 H   0  0  0  0  0  0  0  0  0  0  0  0
    8.4781   -1.8923   -0.4179 C   0  0  0  0  0  0  0  0  0  0  0  0
    9.2230   -2.4860   -1.6142 C   0  0  0  0  0  0  0  0  0  0  0  0
    8.5530   -1.8370   -2.8409 C   0  0  0  0  0  0  0  0  0  0  0  0
    7.4960   -0.9070   -2.2464 C   0  0  0  0  0  0  0  0  0  0  0  0
    7.1819   -1.5053   -0.9567 N   0  0  0  0  0  0  0  0  0  0  0  0
    6.9878    0.2691    0.1586 H   0  0  0  0  0  0  0  0  0  0  0  0
    8.3775   -2.6031    0.4029 H   0  0  0  0  0  0  0  0  0  0  0  0
    9.0225   -1.0154   -0.0262 H   0  0  0  0  0  0  0  0  0  0  0  0
   10.2903   -2.2735   -1.5581 H   0  0  0  0  0  0  0  0  0  0  0  0
    9.1128   -3.5703   -1.6402 H   0  0  0  0  0  0  0  0  0  0  0  0
    9.2576   -1.2876   -3.4645 H   0  0  0  0  0  0  0  0  0  0  0  0
    8.0865   -2.5942   -3.4719 H   0  0  0  0  0  0  0  0  0  0  0  0
    7.9047    0.1115   -2.1271 H   0  0  0  0  0  0  0  0  0  0  0  0
    6.6118   -0.8283   -2.8799 H   0  0  0  0  0  0  0  0  0  0  0  0
    2.8285   -0.6440    1.8496 C   0  0  0  0  0  0  0  0  0  0  0  0
   -1.9919    1.2348   -0.7170 C   0  0  0  0  0  0  0  0  0  0  0  0
  5 81  2  0
 81  2  1  0
 81 23  1  0
  2 19  1  0
 12 23  1  0
 12 24  2  0
 23 10  2  0
  1 24  1  0
  1 22  1  0
 24 25  1  0
 10 11  1  0
  8 22  2  0
 22  9  1  0
 25 11  2  0
 25 82  1  0
 21 16  1  0
 21  3  1  0
 16 26  1  0
  9  7  2  0
 17 13  1  0
 17  4  1  0
 82  3  1  0
 82  6  2  0
  3 20  1  0
 26  4  1  0
 26 15  1  0
 13 14  1  0
  4 18  1  0
 20 15  1  0
 14 18  1  0
  1 27  1  0
  7 28  1  0
  8 29  1  0
  9 30  1  0
 10 31  1  0
 11 32  1  0
 12 33  1  0
 13 34  1  0
 13 35  1  0
 14 36  1  0
 14 37  1  0
 15 38  1  0
 15 39  1  0
 16 40  1  0
 16 41  1  0
 17 42  1  0
 17 43  1  0
 18 44  1  0
 18 45  1  0
 19 46  1  0
 19 47  1  0
 20 48  1  0
 20 49  1  0
 21 50  1  0
 21 51  1  0
 26 52  1  1
  7 53  1  0
  8 54  1  0
  2 55  1  0
 55 56  1  0
 19 57  1  0
 56 58  1  0
 53 54  2  0
 57 58  1  0
 53 59  1  0
 54 60  1  0
 55 61  1  0
 55 62  1  0
 56 63  1  0
 56 64  1  0
 57 65  1  0
 57 66  1  0
 58 71  1  0
 71 67  1  0
 67 68  1  0
 68 69  1  0
 69 70  1  0
 70 71  1  0
 58 72  1  1
 67 73  1  0
 67 74  1  0
 68 75  1  0
 68 76  1  0
 69 77  1  0
 69 78  1  0
 70 79  1  0
 70 80  1  0
M  END
