
     RDKit          3D

 86 91  0  0  0  0  0  0  0  0999 V2000
    1.5671    0.6911   -7.4142 C   0  0  0  0  0  0  0  0  0  0  0  0
    2.8355    0.3500   -7.8521 C   0  0  0  0  0  0  0  0  0  0  0  0
    3.7036   -0.3419   -7.0306 C   0  0  0  0  0  0  0  0  0  0  0  0
    3.3206   -0.7118   -5.7373 C   0  0  0  0  0  0  0  0  0  0  0  0
    4.1319   -1.3822   -4.9258 O   0  0  0  0  0  0  0  0  0  0  0  0
    2.0313   -0.3659   -5.2697 C   0  0  0  0  0  0  0  0  0  0  0  0
    1.5753   -0.7186   -3.9139 C   0  0  0  0  0  0  0  0  0  0  0  0
    2.2906   -1.3553   -3.1359 O   0  0  0  0  0  0  0  0  0  0  0  0
    0.2428   -0.2962   -3.4873 C   0  0  0  0  0  0  0  0  0  0  0  0
   -0.1845   -0.5813   -2.1907 C   0  0  0  0  0  0  0  0  0  0  0  0
    0.5632   -1.2603   -1.3334 O   0  0  0  0  0  0  0  0  0  0  0  0
   -1.4727   -0.1692   -1.7565 C   0  0  0  0  0  0  0  0  0  0  0  0
   -1.8493   -0.4221   -0.3124 C   0  0  1  0  0  0  0  0  0  0  0  0
   -0.8664    0.1920    0.4995 O   0  0  0  0  0  0  0  0  0  0  0  0
   -3.2135    0.1538    0.0545 C   0  0  0  0  0  0  0  0  0  0  0  0
   -4.2553   -0.0085   -1.0438 C   0  0  2  0  0  0  0  0  0  0  0  0
   -5.4487    0.5477   -0.5451 O   0  0  0  0  0  0  0  0  0  0  0  0
   -4.4728   -1.5019   -1.3342 C   0  0  0  0  0  0  0  0  0  0  0  0
   -4.0164   -2.0175   -2.3276 O   0  0  0  0  0  0  0  0  0  0  0  0
   -5.2860   -2.2756   -0.3331 C   0  0  0  0  0  0  0  0  0  0  0  0
   -3.7654    0.7403   -2.2773 C   0  0  0  0  0  0  0  0  0  0  0  0
   -2.3482    0.4112   -2.6442 C   0  0  0  0  0  0  0  0  0  0  0  0
   -1.9140    0.7221   -3.9572 C   0  0  0  0  0  0  0  0  0  0  0  0
   -2.7814    1.3446   -4.7473 O   0  0  0  0  0  0  0  0  0  0  0  0
   -0.6287    0.3843   -4.3688 C   0  0  0  0  0  0  0  0  0  0  0  0
   -0.1954    0.7162   -5.7117 C   0  0  0  0  0  0  0  0  0  0  0  0
   -0.9398    1.3052   -6.4975 O   0  0  0  0  0  0  0  0  0  0  0  0
    1.1708    0.3359   -6.1342 C   0  0  0  0  0  0  0  0  0  0  0  0
    5.4263   -1.7474   -5.3759 C   0  0  0  0  0  0  0  0  0  0  0  0
   -0.3523   -0.5780    1.5498 C   0  0  1  0  0  0  0  0  0  0  0  0
    0.8839    0.1260    2.0820 C   0  0  0  0  0  0  0  0  0  0  0  0
    0.5235    1.3773    2.8729 C   0  0  2  0  0  0  0  0  0  0  0  0
    1.7239    1.9858    3.4140 N   0  0  0  0  0  0  0  0  0  0  0  0
   -0.4789    1.0052    3.9649 C   0  0  2  0  0  0  0  0  0  0  0  0
    0.0893    0.1145    4.9047 O   0  0  0  0  0  0  0  0  0  0  0  0
   -1.6920    0.3497    3.3043 C   0  0  1  0  0  0  0  0  0  0  0  0
   -1.3055   -0.7946    2.5543 O   0  0  0  0  0  0  0  0  0  0  0  0
   -2.7520   -0.1001    4.2875 C   0  0  0  0  0  0  0  0  0  0  0  0
    0.0176    0.4922    6.2460 C   0  0  1  0  0  0  0  0  0  0  0  0
    0.1998   -0.7491    7.1038 C   0  0  0  0  0  0  0  0  0  0  0  0
    1.6345   -1.2657    7.0718 C   0  0  2  0  0  0  0  0  0  0  0  0
    1.8234   -2.3250    7.9817 O   0  0  0  0  0  0  0  0  0  0  0  0
    2.5677   -0.1294    7.4468 C   0  0  1  0  0  0  0  0  0  0  0  0
    3.8953   -0.5865    7.3399 O   0  0  0  0  0  0  0  0  0  0  0  0
    2.3174    1.0572    6.5053 C   0  0  1  0  0  0  0  0  0  0  0  0
    0.9577    1.4737    6.5779 O   0  0  0  0  0  0  0  0  0  0  0  0
    3.1619    2.2678    6.8478 C   0  0  0  0  0  0  0  0  0  0  0  0
    0.8940    1.2309   -8.0639 H   0  0  0  0  0  0  0  0  0  0  0  0
    3.1553    0.6247   -8.8480 H   0  0  0  0  0  0  0  0  0  0  0  0
    4.6845   -0.5927   -7.4082 H   0  0  0  0  0  0  0  0  0  0  0  0
    1.4089   -1.4755   -1.8042 H   0  0  0  0  0  0  0  0  0  0  0  0
   -1.8514   -1.5088   -0.1447 H   0  0  0  0  0  0  0  0  0  0  0  0
   -3.1015    1.2269    0.2339 H   0  0  0  0  0  0  0  0  0  0  0  0
   -3.5550   -0.2953    0.9890 H   0  0  0  0  0  0  0  0  0  0  0  0
   -6.1078    0.5705   -1.2482 H   0  0  0  0  0  0  0  0  0  0  0  0
   -5.1093   -3.3429   -0.4479 H   0  0  0  0  0  0  0  0  0  0  0  0
   -5.0762   -1.9821    0.6947 H   0  0  0  0  0  0  0  0  0  0  0  0
   -6.3477   -2.0856   -0.5037 H   0  0  0  0  0  0  0  0  0  0  0  0
   -3.8485    1.8134   -2.0747 H   0  0  0  0  0  0  0  0  0  0  0  0
   -4.4228    0.5411   -3.1268 H   0  0  0  0  0  0  0  0  0  0  0  0
   -2.3349    1.4969   -5.6137 H   0  0  0  0  0  0  0  0  0  0  0  0
    5.8854   -2.2920   -4.5554 H   0  0  0  0  0  0  0  0  0  0  0  0
    5.3829   -2.3969   -6.2525 H   0  0  0  0  0  0  0  0  0  0  0  0
    6.0384   -0.8729   -5.6062 H   0  0  0  0  0  0  0  0  0  0  0  0
   -0.0962   -1.5799    1.1890 H   0  0  0  0  0  0  0  0  0  0  0  0
    1.4263   -0.5626    2.7337 H   0  0  0  0  0  0  0  0  0  0  0  0
    1.5473    0.3672    1.2483 H   0  0  0  0  0  0  0  0  0  0  0  0
   -0.0203    2.0653    2.2076 H   0  0  0  0  0  0  0  0  0  0  0  0
    2.2725    2.3652    2.6515 H   0  0  0  0  0  0  0  0  0  0  0  0
    1.4762    2.7764    3.9969 H   0  0  0  0  0  0  0  0  0  0  0  0
   -0.8212    1.9253    4.4596 H   0  0  0  0  0  0  0  0  0  0  0  0
   -2.1410    1.1035    2.6435 H   0  0  0  0  0  0  0  0  0  0  0  0
   -3.6047   -0.5287    3.7593 H   0  0  0  0  0  0  0  0  0  0  0  0
   -2.3719   -0.8503    4.9810 H   0  0  0  0  0  0  0  0  0  0  0  0
   -3.1177    0.7501    4.8641 H   0  0  0  0  0  0  0  0  0  0  0  0
   -0.9540    0.9536    6.4636 H   0  0  0  0  0  0  0  0  0  0  0  0
   -0.0563   -0.4905    8.1352 H   0  0  0  0  0  0  0  0  0  0  0  0
   -0.5006   -1.5260    6.7847 H   0  0  0  0  0  0  0  0  0  0  0  0
    1.8832   -1.5863    6.0491 H   0  0  0  0  0  0  0  0  0  0  0  0
    1.2602   -3.0561    7.7089 H   0  0  0  0  0  0  0  0  0  0  0  0
    2.3367    0.1829    8.4787 H   0  0  0  0  0  0  0  0  0  0  0  0
    4.4717    0.0427    7.7825 H   0  0  0  0  0  0  0  0  0  0  0  0
    2.5486    0.7466    5.4803 H   0  0  0  0  0  0  0  0  0  0  0  0
    2.9338    3.0926    6.1719 H   0  0  0  0  0  0  0  0  0  0  0  0
    2.9873    2.6069    7.8714 H   0  0  0  0  0  0  0  0  0  0  0  0
    4.2246    2.0525    6.7357 H   0  0  0  0  0  0  0  0  0  0  0  0
  1  2  2  0
  1 28  1  0
  1 48  1  0
  2  3  1  0
  2 49  1  0
  3  4  2  0
  3 50  1  0
  4  5  1  0
  4  6  1  0
  5 29  1  0
  6  7  1  0
  6 28  2  0
  7  8  2  0
  7  9  1  0
  9 10  2  0
  9 25  1  0
 10 11  1  0
 10 12  1  0
 11 51  1  0
 12 13  1  0
 12 22  2  0
 13 14  1  0
 13 15  1  0
 13 52  1  6
 14 30  1  0
 15 16  1  0
 15 53  1  0
 15 54  1  0
 16 17  1  1
 16 18  1  0
 16 21  1  0
 17 55  1  0
 18 19  2  0
 18 20  1  0
 20 56  1  0
 20 57  1  0
 20 58  1  0
 21 22  1  0
 21 59  1  0
 21 60  1  0
 22 23  1  0
 23 24  1  0
 23 25  2  0
 24 61  1  0
 25 26  1  0
 26 27  2  0
 26 28  1  0
 29 62  1  0
 29 63  1  0
 29 64  1  0
 30 31  1  0
 30 37  1  0
 30 65  1  6
 31 32  1  0
 31 66  1  0
 31 67  1  0
 32 33  1  0
 32 34  1  0
 32 68  1  6
 33 69  1  0
 33 70  1  0
 34 35  1  0
 34 36  1  0
 34 71  1  1
 35 39  1  0
 36 37  1  0
 36 38  1  0
 36 72  1  6
 38 73  1  0
 38 74  1  0
 38 75  1  0
 39 40  1  0
 39 46  1  0
 39 76  1  6
 40 41  1  0
 40 77  1  0
 40 78  1  0
 41 42  1  0
 41 43  1  0
 41 79  1  6
 42 80  1  0
 43 44  1  0
 43 45  1  0
 43 81  1  1
 44 82  1  0
 45 46  1  0
 45 47  1  0
 45 83  1  6
 47 84  1  0
 47 85  1  0
 47 86  1  0
M  END
