
     RDKit          3D

 50 52  0  0  0  0  0  0  0  0999 V2000
   -7.6370    1.5580   -1.2980 C   0  0  0  0  0  0  0  0  0  0  0  0
   -7.2645    0.4051   -0.5691 O   0  0  0  0  0  0  0  0  0  0  0  0
   -5.9597    0.1934   -0.3157 C   0  0  0  0  0  0  0  0  0  0  0  0
   -4.9258    1.0116   -0.7537 C   0  0  0  0  0  0  0  0  0  0  0  0
   -3.6067    0.7153   -0.4452 C   0  0  0  0  0  0  0  0  0  0  0  0
   -3.3005   -0.4093    0.3182 C   0  0  0  0  0  0  0  0  0  0  0  0
   -1.9443   -0.7781    0.6903 C   0  0  0  0  0  0  0  0  0  0  0  0
   -0.8148   -0.1114    0.4040 C   0  0  0  0  0  0  0  0  0  0  0  0
    0.5032   -0.6164    0.8316 C   0  0  0  0  0  0  0  0  0  0  0  0
    0.6374   -1.7163    1.3410 O   0  0  0  0  0  0  0  0  0  0  0  0
    1.6600    0.2859    0.6133 C   0  0  0  0  0  0  0  0  0  0  0  0
    1.5076    1.6655    0.7471 C   0  0  0  0  0  0  0  0  0  0  0  0
    2.5633    2.5485    0.6155 C   0  0  0  0  0  0  0  0  0  0  0  0
    3.8322    2.0499    0.3268 C   0  0  0  0  0  0  0  0  0  0  0  0
    4.9202    2.8139    0.1784 O   0  0  0  0  0  0  0  0  0  0  0  0
    4.8062    4.2150    0.3545 C   0  0  0  0  0  0  0  0  0  0  0  0
    4.0293    0.6702    0.1720 C   0  0  0  0  0  0  0  0  0  0  0  0
    5.3369    0.0810   -0.0771 C   0  0  0  0  0  0  0  0  0  0  0  0
    5.4219   -1.1908   -0.4603 C   0  0  0  0  0  0  0  0  0  0  0  0
    4.1734   -1.9948   -0.6900 C   0  0  2  0  0  0  0  0  0  0  0  0
    4.3800   -3.4513   -0.3112 C   0  0  0  0  0  0  0  0  0  0  0  0
    3.7197   -1.8650   -2.1413 C   0  0  0  0  0  0  0  0  0  0  0  0
    3.1268   -1.5183    0.1803 O   0  0  0  0  0  0  0  0  0  0  0  0
    2.9441   -0.1990    0.3131 C   0  0  0  0  0  0  0  0  0  0  0  0
   -4.3512   -1.2240    0.7596 C   0  0  0  0  0  0  0  0  0  0  0  0
   -5.6780   -0.9519    0.4592 C   0  0  0  0  0  0  0  0  0  0  0  0
   -6.7035   -1.7932    0.8477 N   0  0  0  0  0  0  0  0  0  0  0  0
   -7.3211    2.4758   -0.7956 H   0  0  0  0  0  0  0  0  0  0  0  0
   -7.2265    1.5490   -2.3110 H   0  0  0  0  0  0  0  0  0  0  0  0
   -8.7221    1.5471   -1.3593 H   0  0  0  0  0  0  0  0  0  0  0  0
   -5.1374    1.8925   -1.3447 H   0  0  0  0  0  0  0  0  0  0  0  0
   -2.8283    1.3739   -0.8066 H   0  0  0  0  0  0  0  0  0  0  0  0
   -1.8561   -1.6934    1.2691 H   0  0  0  0  0  0  0  0  0  0  0  0
   -0.8414    0.8088   -0.1656 H   0  0  0  0  0  0  0  0  0  0  0  0
    0.5334    2.0724    0.9852 H   0  0  0  0  0  0  0  0  0  0  0  0
    2.3837    3.6065    0.7409 H   0  0  0  0  0  0  0  0  0  0  0  0
    4.1288    4.6611   -0.3768 H   0  0  0  0  0  0  0  0  0  0  0  0
    4.4646    4.4701    1.3598 H   0  0  0  0  0  0  0  0  0  0  0  0
    5.8021    4.6233    0.2054 H   0  0  0  0  0  0  0  0  0  0  0  0
    6.2276    0.6771    0.0677 H   0  0  0  0  0  0  0  0  0  0  0  0
    6.3778   -1.6644   -0.6477 H   0  0  0  0  0  0  0  0  0  0  0  0
    4.6948   -3.5502    0.7282 H   0  0  0  0  0  0  0  0  0  0  0  0
    3.4656   -4.0277   -0.4551 H   0  0  0  0  0  0  0  0  0  0  0  0
    5.1552   -3.8882   -0.9403 H   0  0  0  0  0  0  0  0  0  0  0  0
    4.5057   -2.2223   -2.8078 H   0  0  0  0  0  0  0  0  0  0  0  0
    2.8236   -2.4599   -2.3273 H   0  0  0  0  0  0  0  0  0  0  0  0
    3.5107   -0.8263   -2.4025 H   0  0  0  0  0  0  0  0  0  0  0  0
   -4.1238   -2.0987    1.3600 H   0  0  0  0  0  0  0  0  0  0  0  0
   -7.5970   -1.3496    0.9905 H   0  0  0  0  0  0  0  0  0  0  0  0
   -6.4730   -2.3994    1.6191 H   0  0  0  0  0  0  0  0  0  0  0  0
 16 15  1  0
 15 14  1  0
 13 14  1  0
 13 12  2  0
 14 17  2  0
 12 11  1  0
 17 18  1  0
 17 24  1  0
 18 19  2  0
 11 24  2  0
 11  9  1  0
 24 23  1  0
 19 20  1  0
 10  9  2  0
 20 22  1  6
 20 23  1  0
 20 21  1  0
  9  8  1  0
  8  7  2  0
  7  6  1  0
  5  6  2  0
  5  4  1  0
  6 25  1  0
  4  3  2  0
 25 26  2  0
  3 26  1  0
  3  2  1  0
 26 27  1  0
  2  1  1  0
  1 28  1  0
  1 29  1  0
  1 30  1  0
  4 31  1  0
  5 32  1  0
  7 33  1  0
  8 34  1  0
 12 35  1  0
 13 36  1  0
 16 37  1  0
 16 38  1  0
 16 39  1  0
 18 40  1  0
 19 41  1  0
 21 42  1  0
 21 43  1  0
 21 44  1  0
 22 45  1  0
 22 46  1  0
 22 47  1  0
 25 48  1  0
 27 49  1  0
 27 50  1  0
M  END
