
     RDKit          3D

 22 21  0  0  0  0  0  0  0  0999 V2000
    0.9826    0.8371   -1.6883 N   0  0  0  0  0  0  0  0  0  0  0  0
    2.3278    0.9115   -1.4083 C   0  0  0  0  0  0  0  0  0  0  0  0
    2.8813    0.2200   -0.5391 O   0  0  0  0  0  0  0  0  0  0  0  0
    0.0822   -0.0487   -1.0029 C   0  0  1  0  0  0  0  0  0  0  0  0
   -0.3513    0.4499    0.3904 C   0  0  0  0  0  0  0  0  0  0  0  0
   -0.0374   -0.5665    1.4551 C   0  0  0  0  0  0  0  0  0  0  0  0
   -0.5847    0.1072    2.9988 S   0  0  0  0  0  0  0  0  0  0  0  0
    0.7120   -0.3576    4.0814 C   0  0  0  0  0  0  0  0  0  0  0  0
   -1.2020   -0.3056   -1.7880 C   0  0  0  0  0  0  0  0  0  0  0  0
   -1.8061   -1.3727   -1.9070 O   0  0  0  0  0  0  0  0  0  0  0  0
   -1.7266    0.7790   -2.4233 O   0  0  0  0  0  0  0  0  0  0  0  0
    0.5876    1.4128   -2.3944 H   0  0  0  0  0  0  0  0  0  0  0  0
    2.8776    1.6322   -2.0576 H   0  0  0  0  0  0  0  0  0  0  0  0
    0.5934   -1.0565   -0.8863 H   0  0  0  0  0  0  0  0  0  0  0  0
   -1.4594    0.6352    0.3587 H   0  0  0  0  0  0  0  0  0  0  0  0
    0.1514    1.4260    0.6214 H   0  0  0  0  0  0  0  0  0  0  0  0
    1.0585   -0.7785    1.4978 H   0  0  0  0  0  0  0  0  0  0  0  0
   -0.5593   -1.5328    1.2457 H   0  0  0  0  0  0  0  0  0  0  0  0
    0.4264    0.0242    5.0894 H   0  0  0  0  0  0  0  0  0  0  0  0
    0.8348   -1.4626    4.1327 H   0  0  0  0  0  0  0  0  0  0  0  0
    1.6847    0.0941    3.7838 H   0  0  0  0  0  0  0  0  0  0  0  0
   -2.5374    0.5222   -2.8940 H   0  0  0  0  0  0  0  0  0  0  0  0
  1  2  1  0
  1  4  1  0
  1 12  1  0
  2  3  2  0
  2 13  1  0
  4  5  1  0
  4  9  1  0
  4 14  1  1
  5  6  1  0
  5 15  1  0
  5 16  1  0
  6  7  1  0
  6 17  1  0
  6 18  1  0
  7  8  1  0
  8 19  1  0
  8 20  1  0
  8 21  1  0
  9 10  2  0
  9 11  1  0
 11 22  1  0
M  END
