
     RDKit          3D

 34 37  0  0  0  0  0  0  0  0999 V2000
    3.4616    1.1039   -0.0784 C   0  0  0  0  0  0  0  0  0  0  0  0
    4.0700   -0.1387   -0.0382 C   0  0  0  0  0  0  0  0  0  0  0  0
    3.4067   -1.2557    0.2436 N   0  0  0  0  0  0  0  0  0  0  0  0
    2.1068   -1.1621    0.4891 C   0  0  0  0  0  0  0  0  0  0  0  0
    1.3853    0.0323    0.4737 C   0  0  0  0  0  0  0  0  0  0  0  0
    2.1012    1.1870    0.1835 C   0  0  0  0  0  0  0  0  0  0  0  0
   -0.0875    0.0244    0.8274 C   0  0  2  0  0  0  0  0  0  0  0  0
   -0.7429   -1.1706    0.2874 N   0  0  0  0  0  0  0  0  0  0  0  0
   -2.0805   -1.2922    0.8615 C   0  0  0  0  0  0  0  0  0  0  0  0
   -2.9530   -0.0865    0.5048 C   0  0  1  0  0  0  0  0  0  0  0  0
   -2.2745    1.1784    1.0356 C   0  0  0  0  0  0  0  0  0  0  0  0
   -0.8692    1.2899    0.4330 C   0  0  2  0  0  0  0  0  0  0  0  0
   -0.9805    1.3810   -1.0915 C   0  0  0  0  0  0  0  0  0  0  0  0
   -1.6631    0.1155   -1.6160 C   0  0  2  0  0  0  0  0  0  0  0  0
   -3.0688    0.0011   -1.0198 C   0  0  0  0  0  0  0  0  0  0  0  0
   -0.8417   -1.0965   -1.1700 C   0  0  0  0  0  0  0  0  0  0  0  0
    4.0385    1.9891   -0.3092 H   0  0  0  0  0  0  0  0  0  0  0  0
    5.1312   -0.2391   -0.2380 H   0  0  0  0  0  0  0  0  0  0  0  0
    1.5895   -2.0893    0.7094 H   0  0  0  0  0  0  0  0  0  0  0  0
    1.6151    2.1540    0.1590 H   0  0  0  0  0  0  0  0  0  0  0  0
   -0.1378   -0.0652    1.9214 H   0  0  0  0  0  0  0  0  0  0  0  0
   -2.5340   -2.2184    0.4944 H   0  0  0  0  0  0  0  0  0  0  0  0
   -1.9874   -1.3937    1.9475 H   0  0  0  0  0  0  0  0  0  0  0  0
   -3.9436   -0.2045    0.9538 H   0  0  0  0  0  0  0  0  0  0  0  0
   -2.8630    2.0636    0.7751 H   0  0  0  0  0  0  0  0  0  0  0  0
   -2.2141    1.1491    2.1287 H   0  0  0  0  0  0  0  0  0  0  0  0
   -0.3795    2.1798    0.8377 H   0  0  0  0  0  0  0  0  0  0  0  0
   -1.5551    2.2700   -1.3700 H   0  0  0  0  0  0  0  0  0  0  0  0
    0.0064    1.4955   -1.5506 H   0  0  0  0  0  0  0  0  0  0  0  0
   -1.7146    0.1400   -2.7085 H   0  0  0  0  0  0  0  0  0  0  0  0
   -3.5738   -0.8873   -1.4143 H   0  0  0  0  0  0  0  0  0  0  0  0
   -3.6780    0.8637   -1.3088 H   0  0  0  0  0  0  0  0  0  0  0  0
    0.1640   -1.0569   -1.5973 H   0  0  0  0  0  0  0  0  0  0  0  0
   -1.2997   -2.0236   -1.5274 H   0  0  0  0  0  0  0  0  0  0  0  0
  3  4  2  0
  3  2  1  0
  4  5  1  0
 11 12  1  0
 11 10  1  0
 12  7  1  0
 12 13  1  0
  2  1  2  0
  5  7  1  0
  5  6  2  0
  7  8  1  0
  1  6  1  0
 13 14  1  0
 10  9  1  0
 10 15  1  0
  9  8  1  0
  8 16  1  0
 15 14  1  0
 14 16  1  0
  1 17  1  0
  2 18  1  0
  4 19  1  0
  6 20  1  0
  7 21  1  1
  9 22  1  0
  9 23  1  0
 10 24  1  1
 11 25  1  0
 11 26  1  0
 12 27  1  1
 13 28  1  0
 13 29  1  0
 14 30  1  6
 15 31  1  0
 15 32  1  0
 16 33  1  0
 16 34  1  0
M  END
