
     RDKit          3D

 28 30  0  0  0  0  0  0  0  0999 V2000
   -2.3827    0.8925   -0.3669 C   0  0  0  0  0  0  0  0  0  0  0  0
   -3.7726    0.9158   -0.3566 C   0  0  0  0  0  0  0  0  0  0  0  0
   -4.3786    2.0669   -0.6993 O   0  0  0  0  0  0  0  0  0  0  0  0
   -4.4818   -0.2300   -0.0000 C   0  0  0  0  0  0  0  0  0  0  0  0
   -3.7957   -1.3830    0.3451 C   0  0  0  0  0  0  0  0  0  0  0  0
   -2.4100   -1.4184    0.3321 C   0  0  0  0  0  0  0  0  0  0  0  0
   -1.7018   -0.2726   -0.0291 C   0  0  0  0  0  0  0  0  0  0  0  0
   -0.2259   -0.2519   -0.0446 C   0  0  0  0  0  0  0  0  0  0  0  0
    0.4010    0.8530    0.1547 N   0  0  0  0  0  0  0  0  0  0  0  0
    1.7738    0.8295    0.1411 C   0  0  0  0  0  0  0  0  0  0  0  0
    2.4684    2.0293    0.3513 C   0  0  0  0  0  0  0  0  0  0  0  0
    3.8458    2.0397    0.3545 C   0  0  0  0  0  0  0  0  0  0  0  0
    4.5706    0.8600    0.1493 C   0  0  0  0  0  0  0  0  0  0  0  0
    3.9036   -0.3273   -0.0590 C   0  0  0  0  0  0  0  0  0  0  0  0
    2.5064   -0.3506   -0.0636 C   0  0  0  0  0  0  0  0  0  0  0  0
    1.7824   -1.5937   -0.2941 C   0  0  0  0  0  0  0  0  0  0  0  0
    2.2879   -2.6819   -0.4994 O   0  0  0  0  0  0  0  0  0  0  0  0
    0.4137   -1.4357   -0.2743 N   0  0  0  0  0  0  0  0  0  0  0  0
   -1.8316    1.7811   -0.6461 H   0  0  0  0  0  0  0  0  0  0  0  0
   -5.3367    1.9720   -0.6527 H   0  0  0  0  0  0  0  0  0  0  0  0
   -5.5657   -0.2211    0.0118 H   0  0  0  0  0  0  0  0  0  0  0  0
   -4.3508   -2.2649    0.6354 H   0  0  0  0  0  0  0  0  0  0  0  0
   -1.9039   -2.3248    0.6377 H   0  0  0  0  0  0  0  0  0  0  0  0
    1.9033    2.9380    0.5132 H   0  0  0  0  0  0  0  0  0  0  0  0
    4.3733    2.9701    0.5202 H   0  0  0  0  0  0  0  0  0  0  0  0
    5.6518    0.8822    0.1546 H   0  0  0  0  0  0  0  0  0  0  0  0
    4.4551   -1.2438   -0.2215 H   0  0  0  0  0  0  0  0  0  0  0  0
   -0.1349   -2.2596   -0.4850 H   0  0  0  0  0  0  0  0  0  0  0  0
  3  2  1  0
  4  2  1  0
  4  5  2  0
  2  1  2  0
  5  6  1  0
  1  7  1  0
  6  7  2  0
  7  8  1  0
  8  9  2  0
  8 18  1  0
  9 10  1  0
 18 16  1  0
 10 11  2  0
 10 15  1  0
 11 12  1  0
 16 15  1  0
 16 17  2  0
 15 14  2  0
 12 13  2  0
 14 13  1  0
  1 19  1  0
  3 20  1  0
  4 21  1  0
  5 22  1  0
  6 23  1  0
 11 24  1  0
 12 25  1  0
 13 26  1  0
 14 27  1  0
 18 28  1  0
M  END
