
     RDKit          3D

 36 38  0  0  0  0  0  0  0  0999 V2000
   -3.2400   -2.0096   -0.4058 C   0  0  0  0  0  0  0  0  0  0  0  0
    2.5652   -0.9198    0.6648 C   0  0  1  0  0  0  0  0  0  0  0  0
    3.6178    0.4238   -1.1675 C   0  0  2  0  0  0  0  0  0  0  0  0
    2.2252    0.9679   -1.4601 C   0  0  0  0  0  0  0  0  0  0  0  0
    1.2275   -0.3083    0.2295 C   0  0  1  0  0  0  0  0  0  0  0  0
    0.2649   -0.1843    1.3965 C   0  0  0  0  0  0  0  0  0  0  0  0
   -2.0309   -0.3642    0.4008 C   0  0  0  0  0  0  0  0  0  0  0  0
   -4.1752    0.0913   -0.5051 C   0  0  0  0  0  0  0  0  0  0  0  0
   -3.0026    0.5788    0.1002 C   0  0  0  0  0  0  0  0  0  0  0  0
   -1.4106    1.6430    0.9809 C   0  0  0  0  0  0  0  0  0  0  0  0
    3.4666   -0.9798   -0.5707 C   0  0  1  0  0  0  0  0  0  0  0  0
    4.3156    1.2858   -0.2154 N   0  0  0  0  0  0  0  0  0  0  0  0
   -1.0163    0.3375    0.9781 N   0  0  0  0  0  0  0  0  0  0  0  0
   -2.0979   -1.6744    0.1677 N   0  0  0  0  0  0  0  0  0  0  0  0
   -4.2571   -1.2218   -0.7476 N   0  0  0  0  0  0  0  0  0  0  0  0
   -5.2003    0.8806   -0.8336 N   0  0  0  0  0  0  0  0  0  0  0  0
   -2.5945    1.8332    0.4734 N   0  0  0  0  0  0  0  0  0  0  0  0
    1.4038    0.9784   -0.3151 O   0  0  0  0  0  0  0  0  0  0  0  0
    3.1457   -0.2120    1.7285 O   0  0  0  0  0  0  0  0  0  0  0  0
    4.7008   -1.5493   -0.2082 O   0  0  0  0  0  0  0  0  0  0  0  0
   -3.3715   -3.0628   -0.6309 H   0  0  0  0  0  0  0  0  0  0  0  0
    2.3665   -1.9427    1.0080 H   0  0  0  0  0  0  0  0  0  0  0  0
    4.1417    0.3500   -2.1324 H   0  0  0  0  0  0  0  0  0  0  0  0
    1.7734    0.3613   -2.2576 H   0  0  0  0  0  0  0  0  0  0  0  0
    0.7777   -0.9783   -0.5217 H   0  0  0  0  0  0  0  0  0  0  0  0
    0.1095   -1.1634    1.8498 H   0  0  0  0  0  0  0  0  0  0  0  0
    0.6694    0.4753    2.1631 H   0  0  0  0  0  0  0  0  0  0  0  0
   -0.7751    2.4154    1.3877 H   0  0  0  0  0  0  0  0  0  0  0  0
    2.9539   -1.6034   -1.3184 H   0  0  0  0  0  0  0  0  0  0  0  0
    5.2819    0.9942   -0.1357 H   0  0  0  0  0  0  0  0  0  0  0  0
    4.3357    2.2402   -0.5545 H   0  0  0  0  0  0  0  0  0  0  0  0
   -5.9933    0.5025   -1.3225 H   0  0  0  0  0  0  0  0  0  0  0  0
   -5.1447    1.8770   -0.7177 H   0  0  0  0  0  0  0  0  0  0  0  0
    3.5718    0.5729    1.3194 H   0  0  0  0  0  0  0  0  0  0  0  0
    5.2166   -1.6795   -1.0108 H   0  0  0  0  0  0  0  0  0  0  0  0
    2.2826    1.9962   -1.8230 H   0  0  0  0  0  0  0  0  0  0  0  0
 17 10  2  0
 17  9  1  0
 10 13  1  0
  4  3  1  0
  4 18  1  0
  3 11  1  0
  3 12  1  0
 16  8  1  0
 11  2  1  0
 11 20  1  0
  9  8  2  0
  9  7  1  0
  5 18  1  0
  5  2  1  0
  5  6  1  0
 13  7  1  0
 13  6  1  0
  8 15  1  0
  2 19  1  0
  7 14  2  0
 15  1  2  0
 14  1  1  0
  1 21  1  0
  2 22  1  1
  3 23  1  6
  4 36  1  0
  4 24  1  0
  5 25  1  6
  6 26  1  0
  6 27  1  0
 10 28  1  0
 11 29  1  6
 12 30  1  0
 12 31  1  0
 16 32  1  0
 16 33  1  0
 19 34  1  0
 20 35  1  0
M  END
