
     RDKit          3D

 47 49  0  0  0  0  0  0  0  0999 V2000
    1.5539   -0.4297   -0.1268 C   0  0  0  0  0  0  0  0  0  0  0  0
    3.1229    2.8931   -0.6306 C   0  0  0  0  0  0  0  0  0  0  0  0
    3.8767    0.2395   -0.3537 C   0  0  0  0  0  0  0  0  0  0  0  0
    1.9855   -1.7412    0.0048 C   0  0  0  0  0  0  0  0  0  0  0  0
    1.3428   -3.0138    0.1869 C   0  0  0  0  0  0  0  0  0  0  0  0
    2.3381   -3.9174    0.2259 C   0  0  0  0  0  0  0  0  0  0  0  0
   -2.7285   -1.5162    2.2284 C   0  0  0  0  0  0  0  0  0  0  0  0
   -5.9468    1.2040   -2.2077 C   0  0  0  0  0  0  0  0  0  0  0  0
   -6.7740    0.8159   -1.0185 C   0  0  0  0  0  0  0  0  0  0  0  0
   -6.3304    0.0965    0.0158 C   0  0  0  0  0  0  0  0  0  0  0  0
   -4.9557   -0.4597    0.2217 C   0  0  0  0  0  0  0  0  0  0  0  0
   -4.1685    0.3413    1.2720 C   0  0  0  0  0  0  0  0  0  0  0  0
   -2.7846   -0.2023    1.5095 C   0  0  0  0  0  0  0  0  0  0  0  0
   -1.7231    0.4863    1.0795 C   0  0  0  0  0  0  0  0  0  0  0  0
   -0.2915    0.1101    1.2258 C   0  0  0  0  0  0  0  0  0  0  0  0
    2.5097    0.5773   -0.3080 C   0  0  0  0  0  0  0  0  0  0  0  0
    2.1680    1.9612   -0.4672 C   0  0  0  0  0  0  0  0  0  0  0  0
    4.5229    2.5278   -0.6582 C   0  0  0  0  0  0  0  0  0  0  0  0
    4.3385   -1.0577   -0.2275 C   0  0  0  0  0  0  0  0  0  0  0  0
    3.3575   -2.0150   -0.0541 C   0  0  0  0  0  0  0  0  0  0  0  0
   -8.1922    1.3073   -1.0634 C   0  0  0  0  0  0  0  0  0  0  0  0
    0.2384   -0.1284   -0.0960 O   0  0  0  0  0  0  0  0  0  0  0  0
    5.4523    3.2833   -0.7929 O   0  0  0  0  0  0  0  0  0  0  0  0
    4.8103    1.2068   -0.5239 O   0  0  0  0  0  0  0  0  0  0  0  0
    3.5639   -3.3356    0.0831 O   0  0  0  0  0  0  0  0  0  0  0  0
    2.8840    3.9398   -0.7514 H   0  0  0  0  0  0  0  0  0  0  0  0
    0.2886   -3.2197    0.2704 H   0  0  0  0  0  0  0  0  0  0  0  0
    2.3374   -4.9889    0.3438 H   0  0  0  0  0  0  0  0  0  0  0  0
   -3.2895   -2.2796    1.6860 H   0  0  0  0  0  0  0  0  0  0  0  0
   -1.7210   -1.8981    2.3765 H   0  0  0  0  0  0  0  0  0  0  0  0
   -3.1967   -1.4272    3.2115 H   0  0  0  0  0  0  0  0  0  0  0  0
   -4.9100    0.8810   -2.1442 H   0  0  0  0  0  0  0  0  0  0  0  0
   -6.3714    0.7893   -3.1254 H   0  0  0  0  0  0  0  0  0  0  0  0
   -5.9482    2.2899   -2.3320 H   0  0  0  0  0  0  0  0  0  0  0  0
   -7.0306   -0.0996    0.8251 H   0  0  0  0  0  0  0  0  0  0  0  0
   -5.0461   -1.4999    0.5466 H   0  0  0  0  0  0  0  0  0  0  0  0
   -4.3844   -0.4783   -0.7080 H   0  0  0  0  0  0  0  0  0  0  0  0
   -4.1077    1.3814    0.9445 H   0  0  0  0  0  0  0  0  0  0  0  0
   -4.7282    0.3403    2.2134 H   0  0  0  0  0  0  0  0  0  0  0  0
   -1.8992    1.4330    0.5755 H   0  0  0  0  0  0  0  0  0  0  0  0
    0.2724    0.9267    1.6903 H   0  0  0  0  0  0  0  0  0  0  0  0
   -0.1488   -0.7774    1.8464 H   0  0  0  0  0  0  0  0  0  0  0  0
    1.1261    2.2539   -0.4617 H   0  0  0  0  0  0  0  0  0  0  0  0
    5.3929   -1.2954   -0.2659 H   0  0  0  0  0  0  0  0  0  0  0  0
   -8.7070    0.9346   -1.9531 H   0  0  0  0  0  0  0  0  0  0  0  0
   -8.7628    0.9954   -0.1888 H   0  0  0  0  0  0  0  0  0  0  0  0
   -8.2284    2.3984   -1.1207 H   0  0  0  0  0  0  0  0  0  0  0  0
 21  9  1  0
  9  8  1  0
  9 10  2  0
 10 11  1  0
 11 12  1  0
 12 13  1  0
  7 13  1  0
 13 14  2  0
 14 15  1  0
 15 22  1  0
 22  1  1  0
  1  4  2  0
  1 16  1  0
 17 16  1  0
 17  2  2  0
  5  4  1  0
  5  6  2  0
  4 20  1  0
 16  3  2  0
  2 18  1  0
  6 25  1  0
 20 25  1  0
 20 19  2  0
  3 19  1  0
  3 24  1  0
 18 24  1  0
 18 23  2  0
  2 26  1  0
  5 27  1  0
  6 28  1  0
  7 29  1  0
  7 30  1  0
  7 31  1  0
  8 32  1  0
  8 33  1  0
  8 34  1  0
 10 35  1  0
 11 36  1  0
 11 37  1  0
 12 38  1  0
 12 39  1  0
 14 40  1  0
 15 41  1  0
 15 42  1  0
 17 43  1  0
 19 44  1  0
 21 45  1  0
 21 46  1  0
 21 47  1  0
M  END
