
     RDKit          3D

 30 30  0  0  0  0  0  0  0  0999 V2000
    2.4706   -0.4903    0.0070 C   0  0  0  0  0  0  0  0  0  0  0  0
    1.0047   -0.8207    0.0203 C   0  0  0  0  0  0  0  0  0  0  0  0
    3.1758   -0.4227   -1.1925 C   0  0  0  0  0  0  0  0  0  0  0  0
    3.1446   -0.2012    1.1915 C   0  0  0  0  0  0  0  0  0  0  0  0
    0.1576    0.4432   -0.0973 C   0  0  0  0  0  0  0  0  0  0  0  0
    4.5201   -0.0744   -1.2098 C   0  0  0  0  0  0  0  0  0  0  0  0
    4.4894    0.1450    1.1799 C   0  0  0  0  0  0  0  0  0  0  0  0
   -1.2414    0.1045   -0.0888 N   0  0  0  0  0  0  0  0  0  0  0  0
    5.1817    0.2098   -0.0223 C   0  0  0  0  0  0  0  0  0  0  0  0
   -2.1881    1.0603   -0.0344 C   0  0  0  0  0  0  0  0  0  0  0  0
   -3.5106    0.6180    0.0513 N   0  0  0  0  0  0  0  0  0  0  0  0
   -1.8806    2.3062   -0.0721 N   0  0  0  0  0  0  0  0  0  0  0  0
   -4.0061   -0.6672    0.1395 C   0  0  0  0  0  0  0  0  0  0  0  0
   -3.2267   -1.6828    0.1865 N   0  0  0  0  0  0  0  0  0  0  0  0
   -5.3718   -0.7013    0.2276 N   0  0  0  0  0  0  0  0  0  0  0  0
    0.7670   -1.4967   -0.8055 H   0  0  0  0  0  0  0  0  0  0  0  0
    0.7476   -1.3413    0.9464 H   0  0  0  0  0  0  0  0  0  0  0  0
    2.6695   -0.6499   -2.1238 H   0  0  0  0  0  0  0  0  0  0  0  0
    2.6122   -0.2548    2.1345 H   0  0  0  0  0  0  0  0  0  0  0  0
    0.3932    1.1236    0.7277 H   0  0  0  0  0  0  0  0  0  0  0  0
    0.4213    0.9745   -1.0176 H   0  0  0  0  0  0  0  0  0  0  0  0
    5.0522   -0.0275   -2.1516 H   0  0  0  0  0  0  0  0  0  0  0  0
    4.9972    0.3615    2.1110 H   0  0  0  0  0  0  0  0  0  0  0  0
   -1.5537   -0.8569    0.0237 H   0  0  0  0  0  0  0  0  0  0  0  0
    6.2310    0.4752   -0.0338 H   0  0  0  0  0  0  0  0  0  0  0  0
   -4.1882    1.3617    0.0978 H   0  0  0  0  0  0  0  0  0  0  0  0
   -2.7029    2.8956   -0.0309 H   0  0  0  0  0  0  0  0  0  0  0  0
   -3.7463   -2.5501    0.2265 H   0  0  0  0  0  0  0  0  0  0  0  0
   -5.8940    0.0583   -0.1805 H   0  0  0  0  0  0  0  0  0  0  0  0
   -5.7986   -1.5973    0.0564 H   0  0  0  0  0  0  0  0  0  0  0  0
  6  3  1  0
  6  9  2  0
  3  1  2  0
  9  7  1  0
  1  2  1  0
  1  4  1  0
  7  4  2  0
  2  5  1  0
  5  8  1  0
  8 10  1  0
 10 12  2  0
 10 11  1  0
 14 13  2  0
 11 13  1  0
 13 15  1  0
  2 16  1  0
  2 17  1  0
  3 18  1  0
  4 19  1  0
  5 20  1  0
  5 21  1  0
  6 22  1  0
  7 23  1  0
  8 24  1  0
  9 25  1  0
 11 26  1  0
 12 27  1  0
 14 28  1  0
 15 29  1  0
 15 30  1  0
M  END
