
     RDKit          3D

 47 50  0  0  0  0  0  0  0  0999 V2000
    0.0223    1.7576   -1.9199 C   0  0  0  0  0  0  0  0  0  0  0  0
   -0.7501    2.6145   -1.5949 O   0  0  0  0  0  0  0  0  0  0  0  0
    1.3055    1.1583   -1.3347 C   0  0  2  0  0  0  0  0  0  0  0  0
    1.0374    0.0129   -2.3462 C   0  0  2  0  0  0  0  0  0  0  0  0
    0.0034    0.8489   -2.9500 N   0  0  0  0  0  0  0  0  0  0  0  0
   -1.1823    0.1937   -3.4435 C   0  0  1  0  0  0  0  0  0  0  0  0
   -1.4137    0.4978   -4.9113 C   0  0  0  0  0  0  0  0  0  0  0  0
   -2.6377    0.1517   -5.2776 O   0  0  0  0  0  0  0  0  0  0  0  0
   -0.5939    0.9834   -5.6423 O   0  0  0  0  0  0  0  0  0  0  0  0
   -1.0064   -1.3411   -3.1696 C   0  0  2  0  0  0  0  0  0  0  0  0
   -0.3390   -2.0711   -4.3327 C   0  0  0  0  0  0  0  0  0  0  0  0
   -2.3245   -2.0001   -2.7909 C   0  0  0  0  0  0  0  0  0  0  0  0
    0.1147   -1.3992   -1.7024 S   0  0  0  0  0  0  0  0  0  0  0  0
    1.2803    0.9039    0.0617 N   0  0  0  0  0  0  0  0  0  0  0  0
    2.3970    0.9329    0.8286 C   0  0  0  0  0  0  0  0  0  0  0  0
    3.5039    1.1533    0.3661 O   0  0  0  0  0  0  0  0  0  0  0  0
    2.2045    0.7078    2.2688 C   0  0  0  0  0  0  0  0  0  0  0  0
    1.3501    0.2298    4.2905 N   0  0  0  0  0  0  0  0  0  0  0  0
    2.6345    0.6690    4.4139 O   0  0  0  0  0  0  0  0  0  0  0  0
    3.1506    0.9499    3.2248 C   0  0  0  0  0  0  0  0  0  0  0  0
    1.0842    0.2493    3.0200 C   0  0  0  0  0  0  0  0  0  0  0  0
    4.5458    1.4378    3.1816 C   0  0  0  0  0  0  0  0  0  0  0  0
   -0.2506   -0.1600    2.5488 C   0  0  0  0  0  0  0  0  0  0  0  0
   -0.4459   -1.3718    1.8893 C   0  0  0  0  0  0  0  0  0  0  0  0
    0.9005   -2.4215    1.6260 Cl  0  0  0  0  0  0  0  0  0  0  0  0
   -1.6983   -1.7463    1.4322 C   0  0  0  0  0  0  0  0  0  0  0  0
   -2.7774   -0.9006    1.6405 C   0  0  0  0  0  0  0  0  0  0  0  0
   -2.6059    0.3080    2.3008 C   0  0  0  0  0  0  0  0  0  0  0  0
   -1.3479    0.6738    2.7534 C   0  0  0  0  0  0  0  0  0  0  0  0
    2.1964    1.7260   -1.6043 H   0  0  0  0  0  0  0  0  0  0  0  0
    1.8591   -0.2704   -3.0020 H   0  0  0  0  0  0  0  0  0  0  0  0
   -2.0477    0.5554   -2.8790 H   0  0  0  0  0  0  0  0  0  0  0  0
   -2.7688    0.3186   -6.2240 H   0  0  0  0  0  0  0  0  0  0  0  0
   -0.1214   -3.0984   -4.0452 H   0  0  0  0  0  0  0  0  0  0  0  0
   -0.9945   -2.1090   -5.2051 H   0  0  0  0  0  0  0  0  0  0  0  0
    0.5987   -1.6030   -4.6327 H   0  0  0  0  0  0  0  0  0  0  0  0
   -2.1709   -3.0474   -2.5304 H   0  0  0  0  0  0  0  0  0  0  0  0
   -2.7895   -1.5002   -1.9408 H   0  0  0  0  0  0  0  0  0  0  0  0
   -3.0198   -1.9692   -3.6291 H   0  0  0  0  0  0  0  0  0  0  0  0
    0.3865    0.7205    0.4906 H   0  0  0  0  0  0  0  0  0  0  0  0
    4.9019    1.6840    4.1794 H   0  0  0  0  0  0  0  0  0  0  0  0
    5.1996    0.6758    2.7574 H   0  0  0  0  0  0  0  0  0  0  0  0
    4.6218    2.3191    2.5487 H   0  0  0  0  0  0  0  0  0  0  0  0
   -1.8291   -2.6889    0.9191 H   0  0  0  0  0  0  0  0  0  0  0  0
   -3.7555   -1.1921    1.2824 H   0  0  0  0  0  0  0  0  0  0  0  0
   -3.4488    0.9655    2.4630 H   0  0  0  0  0  0  0  0  0  0  0  0
   -1.2049    1.6178    3.2629 H   0  0  0  0  0  0  0  0  0  0  0  0
  1  2  2  0
  1  3  1  0
  1  5  1  0
  3  4  1  0
  3 14  1  0
  3 30  1  6
  4  5  1  0
  4 13  1  0
  4 31  1  6
  5  6  1  0
  6  7  1  0
  6 10  1  0
  6 32  1  1
  7  8  1  0
  7  9  2  0
  8 33  1  0
 10 11  1  6
 10 12  1  0
 10 13  1  0
 11 34  1  0
 11 35  1  0
 11 36  1  0
 12 37  1  0
 12 38  1  0
 12 39  1  0
 14 15  1  0
 14 40  1  0
 15 16  2  0
 15 17  1  0
 17 20  2  0
 17 21  1  0
 18 19  1  0
 18 21  2  0
 19 20  1  0
 20 22  1  0
 21 23  1  0
 22 41  1  0
 22 42  1  0
 22 43  1  0
 23 24  2  0
 23 29  1  0
 24 25  1  0
 24 26  1  0
 26 27  2  0
 26 44  1  0
 27 28  1  0
 27 45  1  0
 28 29  2  0
 28 46  1  0
 29 47  1  0
M  END
