
     RDKit          3D

 29 29  0  0  0  0  0  0  0  0999 V2000
   -1.4482   -0.0972   -2.2204 N   0  0  0  0  0  0  0  0  0  0  0  0
   -0.4971    0.2793   -3.2511 C   0  0  0  0  0  0  0  0  0  0  0  0
   -1.0534    0.3854   -0.9088 C   0  0  0  0  0  0  0  0  0  0  0  0
    0.8630   -0.3291   -2.9432 C   0  0  0  0  0  0  0  0  0  0  0  0
    1.3320    0.0894   -1.5549 C   0  0  0  0  0  0  0  0  0  0  0  0
    0.2828   -0.2229   -0.4888 C   0  0  1  0  0  0  0  0  0  0  0  0
    0.7329    0.2628    0.8871 C   0  0  0  0  0  0  0  0  0  0  0  0
   -0.1198   -0.2353    2.0485 C   0  0  0  0  0  0  0  0  0  0  0  0
    0.3796    0.2488    3.4042 C   0  0  0  0  0  0  0  0  0  0  0  0
   -0.4493   -0.2821    4.5655 C   0  0  0  0  0  0  0  0  0  0  0  0
   -2.3604    0.2739   -2.4518 H   0  0  0  0  0  0  0  0  0  0  0  0
   -0.3833    1.3734   -3.3403 H   0  0  0  0  0  0  0  0  0  0  0  0
   -0.8635   -0.0788   -4.2159 H   0  0  0  0  0  0  0  0  0  0  0  0
   -1.8359    0.1199   -0.1939 H   0  0  0  0  0  0  0  0  0  0  0  0
   -0.9541    1.4859   -0.8760 H   0  0  0  0  0  0  0  0  0  0  0  0
    1.5859   -0.0214   -3.7023 H   0  0  0  0  0  0  0  0  0  0  0  0
    0.7883   -1.4199   -2.9958 H   0  0  0  0  0  0  0  0  0  0  0  0
    1.5292    1.1685   -1.5500 H   0  0  0  0  0  0  0  0  0  0  0  0
    2.2773   -0.3993   -1.3029 H   0  0  0  0  0  0  0  0  0  0  0  0
    0.1530   -1.3124   -0.4470 H   0  0  0  0  0  0  0  0  0  0  0  0
    0.7575    1.3592    0.8930 H   0  0  0  0  0  0  0  0  0  0  0  0
    1.7675   -0.0604    1.0490 H   0  0  0  0  0  0  0  0  0  0  0  0
   -0.1341   -1.3310    2.0376 H   0  0  0  0  0  0  0  0  0  0  0  0
   -1.1599    0.0802    1.9184 H   0  0  0  0  0  0  0  0  0  0  0  0
    0.3751    1.3433    3.4216 H   0  0  0  0  0  0  0  0  0  0  0  0
    1.4244   -0.0507    3.5329 H   0  0  0  0  0  0  0  0  0  0  0  0
   -0.0842    0.0912    5.5230 H   0  0  0  0  0  0  0  0  0  0  0  0
   -1.4956    0.0157    4.4726 H   0  0  0  0  0  0  0  0  0  0  0  0
   -0.4218   -1.3728    4.6037 H   0  0  0  0  0  0  0  0  0  0  0  0
  1  2  1  0
  1  3  1  0
  1 11  1  0
  2  4  1  0
  2 12  1  0
  2 13  1  0
  3  6  1  0
  3 14  1  0
  3 15  1  0
  4  5  1  0
  4 16  1  0
  4 17  1  0
  5  6  1  0
  5 18  1  0
  5 19  1  0
  6  7  1  0
  6 20  1  1
  7  8  1  0
  7 21  1  0
  7 22  1  0
  8  9  1  0
  8 23  1  0
  8 24  1  0
  9 10  1  0
  9 25  1  0
  9 26  1  0
 10 27  1  0
 10 28  1  0
 10 29  1  0
M  END
