
     RDKit          3D

 42 44  0  0  0  0  0  0  0  0999 V2000
   -3.4723    1.2201   -1.4495 C   0  0  0  0  0  0  0  0  0  0  0  0
    2.4767    0.1626    0.5714 C   0  0  0  0  0  0  0  0  0  0  0  0
    3.4589    1.0993    0.2953 C   0  0  0  0  0  0  0  0  0  0  0  0
    4.5864    0.7054   -0.4114 C   0  0  0  0  0  0  0  0  0  0  0  0
    4.7402   -0.6020   -0.8389 C   0  0  0  0  0  0  0  0  0  0  0  0
    3.7433   -1.5260   -0.5522 C   0  0  0  0  0  0  0  0  0  0  0  0
   -0.9773   -3.3349    1.3141 C   0  0  0  0  0  0  0  0  0  0  0  0
   -2.3317   -3.9887    1.0874 C   0  0  0  0  0  0  0  0  0  0  0  0
   -3.1559   -2.8612    0.4747 C   0  0  0  0  0  0  0  0  0  0  0  0
   -2.9065    2.0390   -0.3801 C   0  0  0  0  0  0  0  0  0  0  0  0
   -2.1311    1.4368    0.5687 C   0  0  0  0  0  0  0  0  0  0  0  0
   -1.4948    2.2228    1.6568 C   0  0  0  0  0  0  0  0  0  0  0  0
   -2.3676   -0.6230   -0.3848 C   0  0  0  0  0  0  0  0  0  0  0  0
   -2.1448   -2.1136   -0.4144 C   0  0  1  0  0  0  0  0  0  0  0  0
    1.5306   -2.1548    0.4747 C   0  0  0  0  0  0  0  0  0  0  0  0
    2.6049   -1.1601    0.1534 C   0  0  0  0  0  0  0  0  0  0  0  0
   -1.8888    0.0937    0.5604 N   0  0  0  0  0  0  0  0  0  0  0  0
   -0.8607   -2.4529    0.1612 N   0  0  0  0  0  0  0  0  0  0  0  0
   -3.1387   -0.0993   -1.3755 N   0  0  0  0  0  0  0  0  0  0  0  0
   -4.1696    1.6978   -2.3322 O   0  0  0  0  0  0  0  0  0  0  0  0
   -3.1921    3.3320   -0.4332 O   0  0  0  0  0  0  0  0  0  0  0  0
   -1.6563    3.4074    1.8192 O   0  0  0  0  0  0  0  0  0  0  0  0
   -0.7185    1.4778    2.4282 O   0  0  0  0  0  0  0  0  0  0  0  0
    0.2531   -1.1977   -1.3226 O   0  0  0  0  0  0  0  0  0  0  0  0
    1.5955    0.4713    1.1221 H   0  0  0  0  0  0  0  0  0  0  0  0
    3.3480    2.1229    0.6270 H   0  0  0  0  0  0  0  0  0  0  0  0
    5.6224   -0.9030   -1.3875 H   0  0  0  0  0  0  0  0  0  0  0  0
    3.8650   -2.5491   -0.8859 H   0  0  0  0  0  0  0  0  0  0  0  0
   -0.9639   -2.7653    2.2489 H   0  0  0  0  0  0  0  0  0  0  0  0
   -0.1636   -4.0585    1.3418 H   0  0  0  0  0  0  0  0  0  0  0  0
   -2.2332   -4.8187    0.3852 H   0  0  0  0  0  0  0  0  0  0  0  0
   -2.7667   -4.3733    2.0084 H   0  0  0  0  0  0  0  0  0  0  0  0
   -4.0134   -3.2123   -0.0966 H   0  0  0  0  0  0  0  0  0  0  0  0
   -3.5257   -2.2020    1.2622 H   0  0  0  0  0  0  0  0  0  0  0  0
   -2.2102   -2.4647   -1.4498 H   0  0  0  0  0  0  0  0  0  0  0  0
    1.3117   -2.1334    1.5451 H   0  0  0  0  0  0  0  0  0  0  0  0
    1.8703   -3.1721    0.2573 H   0  0  0  0  0  0  0  0  0  0  0  0
   -3.4879   -0.7043   -2.1098 H   0  0  0  0  0  0  0  0  0  0  0  0
   -3.7541    3.4846   -1.2104 H   0  0  0  0  0  0  0  0  0  0  0  0
   -0.3206    2.0368    3.1125 H   0  0  0  0  0  0  0  0  0  0  0  0
    0.2621   -1.8885   -0.3147 C   0  0  0  0  0  0  0  0  0  0  0  0
    5.8229    1.8712   -0.7617 Cl  0  0  0  0  0  0  0  0  0  0  0  0
 20  1  2  0
  8  9  1  0
  8  7  1  0
  1 19  1  0
  1 10  1  0
  9 14  1  0
 19 13  1  0
  7 18  1  0
 21 10  1  0
 10 11  2  0
 13 14  1  0
 13 17  2  0
 14 18  1  0
 18 41  1  0
 11 17  1  0
 11 12  1  0
 22 12  2  0
 15 41  1  0
 15 16  1  0
 41 24  2  0
 12 23  1  0
 16  2  2  0
 16  6  1  0
  2  3  1  0
  6  5  2  0
  3  4  2  0
  5  4  1  0
  4 42  1  0
  2 25  1  0
  3 26  1  0
  5 27  1  0
  6 28  1  0
  7 29  1  0
  7 30  1  0
  8 31  1  0
  8 32  1  0
  9 33  1  0
  9 34  1  0
 14 35  1  6
 15 36  1  0
 15 37  1  0
 19 38  1  0
 21 39  1  0
 23 40  1  0
M  END
