
     RDKit          3D

 52 55  0  0  0  0  0  0  0  0999 V2000
   10.3612   -1.1362    1.3608 C   0  0  0  0  0  0  0  0  0  0  0  0
    9.3786   -0.6313    0.4959 O   0  0  0  0  0  0  0  0  0  0  0  0
    9.2990    0.7703    0.5391 C   0  0  0  0  0  0  0  0  0  0  0  0
    8.2361    1.2656   -0.4155 C   0  0  0  0  0  0  0  0  0  0  0  0
    6.9119    0.8110   -0.0432 N   0  0  0  0  0  0  0  0  0  0  0  0
    5.8803    1.3098   -0.9284 C   0  0  0  0  0  0  0  0  0  0  0  0
    4.5235    0.7646   -0.5709 C   0  0  0  0  0  0  0  0  0  0  0  0
    3.3924    1.5688   -0.6127 C   0  0  0  0  0  0  0  0  0  0  0  0
    2.1239    1.0809   -0.3259 C   0  0  0  0  0  0  0  0  0  0  0  0
    1.9601   -0.2602    0.0210 C   0  0  0  0  0  0  0  0  0  0  0  0
    3.0974   -1.0748    0.0777 C   0  0  0  0  0  0  0  0  0  0  0  0
    4.3515   -0.5704   -0.2097 C   0  0  0  0  0  0  0  0  0  0  0  0
    0.7498   -0.8663    0.3555 N   0  0  0  0  0  0  0  0  0  0  0  0
   -0.5406   -0.4760    0.1926 C   0  0  0  0  0  0  0  0  0  0  0  0
   -1.4497   -1.3282    0.6203 N   0  0  0  0  0  0  0  0  0  0  0  0
   -2.7386   -0.9814    0.4703 C   0  0  0  0  0  0  0  0  0  0  0  0
   -3.7715   -1.8459    0.9009 C   0  0  0  0  0  0  0  0  0  0  0  0
   -5.0788   -1.4815    0.7390 C   0  0  0  0  0  0  0  0  0  0  0  0
   -5.4506   -0.2426    0.1539 C   0  0  0  0  0  0  0  0  0  0  0  0
   -4.4552    0.6070   -0.2675 C   0  0  0  0  0  0  0  0  0  0  0  0
   -3.1048    0.2494   -0.1186 C   0  0  0  0  0  0  0  0  0  0  0  0
   -2.0314    1.0630   -0.5362 C   0  0  0  0  0  0  0  0  0  0  0  0
   -0.7841    0.7222   -0.3896 N   0  0  0  0  0  0  0  0  0  0  0  0
   -6.8717    0.1154    0.0041 C   0  0  0  0  0  0  0  0  0  0  0  0
   -7.8480   -0.8503   -0.2357 C   0  0  0  0  0  0  0  0  0  0  0  0
   -9.1697   -0.4584   -0.3748 C   0  0  0  0  0  0  0  0  0  0  0  0
   -9.5783    0.8024   -0.2916 N   0  0  0  0  0  0  0  0  0  0  0  0
   -8.6497    1.7243   -0.0621 C   0  0  0  0  0  0  0  0  0  0  0  0
   -7.3035    1.4382    0.0928 C   0  0  0  0  0  0  0  0  0  0  0  0
   10.3625   -2.2226    1.2755 H   0  0  0  0  0  0  0  0  0  0  0  0
   11.3638   -0.7690    1.1078 H   0  0  0  0  0  0  0  0  0  0  0  0
   10.1658   -0.8721    2.4076 H   0  0  0  0  0  0  0  0  0  0  0  0
    9.0747    1.1162    1.5605 H   0  0  0  0  0  0  0  0  0  0  0  0
   10.2604    1.2262    0.2617 H   0  0  0  0  0  0  0  0  0  0  0  0
    8.3201    2.3633   -0.4559 H   0  0  0  0  0  0  0  0  0  0  0  0
    8.4585    0.9062   -1.4251 H   0  0  0  0  0  0  0  0  0  0  0  0
    6.7086    1.1161    0.9020 H   0  0  0  0  0  0  0  0  0  0  0  0
    5.8300    2.4100   -0.9595 H   0  0  0  0  0  0  0  0  0  0  0  0
    6.1360    0.9962   -1.9470 H   0  0  0  0  0  0  0  0  0  0  0  0
    3.4943    2.6168   -0.8710 H   0  0  0  0  0  0  0  0  0  0  0  0
    1.2766    1.7445   -0.3704 H   0  0  0  0  0  0  0  0  0  0  0  0
    2.9924   -2.1193    0.3490 H   0  0  0  0  0  0  0  0  0  0  0  0
    5.2121   -1.2246   -0.1522 H   0  0  0  0  0  0  0  0  0  0  0  0
    0.8312   -1.7939    0.7450 H   0  0  0  0  0  0  0  0  0  0  0  0
   -3.5104   -2.7899    1.3605 H   0  0  0  0  0  0  0  0  0  0  0  0
   -5.8534   -2.1528    1.0882 H   0  0  0  0  0  0  0  0  0  0  0  0
   -4.6951    1.5527   -0.7397 H   0  0  0  0  0  0  0  0  0  0  0  0
   -2.2315    2.0224   -1.0048 H   0  0  0  0  0  0  0  0  0  0  0  0
   -7.5930   -1.8972   -0.3346 H   0  0  0  0  0  0  0  0  0  0  0  0
   -9.9327   -1.2044   -0.5677 H   0  0  0  0  0  0  0  0  0  0  0  0
   -8.9917    2.7507    0.0107 H   0  0  0  0  0  0  0  0  0  0  0  0
   -6.6103    2.2429    0.2996 H   0  0  0  0  0  0  0  0  0  0  0  0
  6  7  1  0
  6  5  1  0
  4  3  1  0
  4  5  1  0
  7  8  2  0
  7 12  1  0
  8  9  1  0
  3  2  1  0
 12 11  2  0
  9 10  2  0
  2  1  1  0
 11 10  1  0
 10 13  1  0
 13 14  1  0
 15 14  2  0
 15 16  1  0
 14 23  1  0
 17 16  2  0
 17 18  1  0
 16 21  1  0
 23 22  2  0
 18 19  2  0
 21 22  1  0
 21 20  2  0
 19 20  1  0
 19 24  1  0
 29 24  1  0
 29 28  2  0
 24 25  2  0
 28 27  1  0
 25 26  1  0
 27 26  2  0
  1 30  1  0
  1 31  1  0
  1 32  1  0
  3 33  1  0
  3 34  1  0
  4 35  1  0
  4 36  1  0
  5 37  1  0
  6 38  1  0
  6 39  1  0
  8 40  1  0
  9 41  1  0
 11 42  1  0
 12 43  1  0
 13 44  1  0
 17 45  1  0
 18 46  1  0
 20 47  1  0
 22 48  1  0
 25 49  1  0
 26 50  1  0
 28 51  1  0
 29 52  1  0
M  END
