
     RDKit          3D

 35 37  0  0  0  0  0  0  0  0999 V2000
   -1.3641   -0.4003    1.5452 O   0  0  0  0  0  0  0  0  0  0  0  0
   -0.8131   -0.5263    0.4794 C   0  0  0  0  0  0  0  0  0  0  0  0
    0.6548   -0.3280    0.3312 C   0  0  0  0  0  0  0  0  0  0  0  0
    1.3865    0.0907    1.4397 C   0  0  0  0  0  0  0  0  0  0  0  0
    2.7522    0.2975    1.3428 C   0  0  0  0  0  0  0  0  0  0  0  0
    1.3076   -0.5451   -0.8825 C   0  0  0  0  0  0  0  0  0  0  0  0
    2.6720   -0.3450   -0.9895 C   0  0  0  0  0  0  0  0  0  0  0  0
    3.3804    0.0753    0.1274 C   0  0  0  0  0  0  0  0  0  0  0  0
    5.1236    0.3765   -0.0345 S   0  0  1  0  0  0  0  0  0  0  0  0
    5.5829    0.9799    1.2078 O   0  0  0  0  0  0  0  0  0  0  0  0
    5.6894   -1.1550   -0.2550 N   0  0  0  0  0  0  0  0  0  0  0  0
    5.3660    1.0819   -1.2833 O   0  0  0  0  0  0  0  0  0  0  0  0
   -1.6083   -0.8888   -0.7659 C   0  0  0  0  0  0  0  0  0  0  0  0
   -3.0118   -0.9506   -0.4957 N   0  0  0  0  0  0  0  0  0  0  0  0
   -3.8650    0.1162   -0.3668 C   0  0  0  0  0  0  0  0  0  0  0  0
   -3.6873    1.4832   -0.5434 C   0  0  0  0  0  0  0  0  0  0  0  0
   -4.7973    2.2835   -0.3363 C   0  0  0  0  0  0  0  0  0  0  0  0
   -6.0367    1.7384    0.0333 C   0  0  0  0  0  0  0  0  0  0  0  0
   -6.2023    0.3764    0.2082 C   0  0  0  0  0  0  0  0  0  0  0  0
   -5.0952   -0.4472    0.0068 C   0  0  0  0  0  0  0  0  0  0  0  0
   -4.9722   -1.8144    0.1147 N   0  0  0  0  0  0  0  0  0  0  0  0
   -3.7301   -2.0601   -0.1795 C   0  0  0  0  0  0  0  0  0  0  0  0
    0.8907    0.2649    2.3848 H   0  0  0  0  0  0  0  0  0  0  0  0
    3.3087    0.6296    2.2077 H   0  0  0  0  0  0  0  0  0  0  0  0
    0.7681   -0.8722   -1.7603 H   0  0  0  0  0  0  0  0  0  0  0  0
    3.1678   -0.5192   -1.9349 H   0  0  0  0  0  0  0  0  0  0  0  0
    6.5845   -1.1579   -0.7353 H   0  0  0  0  0  0  0  0  0  0  0  0
    5.7476   -1.6843    0.6090 H   0  0  0  0  0  0  0  0  0  0  0  0
   -1.4165   -0.1641   -1.5610 H   0  0  0  0  0  0  0  0  0  0  0  0
   -1.2721   -1.8565   -1.1459 H   0  0  0  0  0  0  0  0  0  0  0  0
   -2.7345    1.9115   -0.8277 H   0  0  0  0  0  0  0  0  0  0  0  0
   -4.7072    3.3546   -0.4600 H   0  0  0  0  0  0  0  0  0  0  0  0
   -6.8772    2.4025    0.1860 H   0  0  0  0  0  0  0  0  0  0  0  0
   -7.1586   -0.0407    0.4959 H   0  0  0  0  0  0  0  0  0  0  0  0
   -3.2746   -3.0402   -0.1971 H   0  0  0  0  0  0  0  0  0  0  0  0
 21 22  2  0
 21 20  1  0
 22 14  1  0
 20 19  2  0
 20 15  1  0
 14 15  1  0
 14 13  1  0
 19 18  1  0
  1  2  2  0
 15 16  2  0
 13  2  1  0
  2  3  1  0
 18 17  2  0
  3  4  2  0
  3  6  1  0
 16 17  1  0
  4  5  1  0
  6  7  2  0
  5  8  2  0
  7  8  1  0
  8  9  1  0
  9 11  1  6
 12  9  2  0
  9 10  2  0
  4 23  1  0
  5 24  1  0
  6 25  1  0
  7 26  1  0
 11 27  1  0
 11 28  1  0
 13 29  1  0
 13 30  1  0
 16 31  1  0
 17 32  1  0
 18 33  1  0
 19 34  1  0
 22 35  1  0
M  END
