
     RDKit          3D

 22 22  0  0  0  0  0  0  0  0999 V2000
    0.0635   -0.2241   -3.4805 I   0  0  0  0  0  0  0  0  0  0  0  0
    0.2643    0.1361   -1.4163 C   0  0  0  0  0  0  0  0  0  0  0  0
   -0.6555    0.9496   -0.7721 C   0  0  0  0  0  0  0  0  0  0  0  0
   -0.5142    1.1822    0.5896 C   0  0  0  0  0  0  0  0  0  0  0  0
    1.3178   -0.4393   -0.7208 C   0  0  0  0  0  0  0  0  0  0  0  0
    1.4418   -0.1907    0.6388 C   0  0  0  0  0  0  0  0  0  0  0  0
    0.5321    0.6195    1.3125 C   0  0  0  0  0  0  0  0  0  0  0  0
    0.6762    0.8537    2.7883 C   0  0  0  0  0  0  0  0  0  0  0  0
    0.1645   -0.3257    3.6126 C   0  0  2  0  0  0  0  0  0  0  0  0
   -1.6256   -0.6235    3.4078 S   0  0  0  0  0  0  0  0  0  0  0  0
    0.4299   -0.1499    5.0901 C   0  0  0  0  0  0  0  0  0  0  0  0
    0.5021    0.9210    5.6382 O   0  0  0  0  0  0  0  0  0  0  0  0
    0.5456   -1.3104    5.7157 O   0  0  0  0  0  0  0  0  0  0  0  0
   -1.4769    1.4024   -1.3103 H   0  0  0  0  0  0  0  0  0  0  0  0
   -1.2338    1.8190    1.0891 H   0  0  0  0  0  0  0  0  0  0  0  0
    2.0421   -1.0691   -1.2190 H   0  0  0  0  0  0  0  0  0  0  0  0
    2.2698   -0.6356    1.1782 H   0  0  0  0  0  0  0  0  0  0  0  0
    0.1537    1.7650    3.0840 H   0  0  0  0  0  0  0  0  0  0  0  0
    1.7317    1.0039    3.0311 H   0  0  0  0  0  0  0  0  0  0  0  0
    0.6301   -1.2528    3.2706 H   0  0  0  0  0  0  0  0  0  0  0  0
   -2.0303    0.5991    3.7762 H   0  0  0  0  0  0  0  0  0  0  0  0
    0.6652   -1.1666    6.6666 H   0  0  0  0  0  0  0  0  0  0  0  0
  1  2  1  0
  2  3  2  0
  2  5  1  0
  3  4  1  0
  3 14  1  0
  4  7  2  0
  4 15  1  0
  5  6  2  0
  5 16  1  0
  6  7  1  0
  6 17  1  0
  7  8  1  0
  8  9  1  0
  8 18  1  0
  8 19  1  0
  9 10  1  0
  9 11  1  0
  9 20  1  6
 10 21  1  0
 11 12  2  0
 11 13  1  0
 13 22  1  0
M  END
