
     RDKit          3D

 25 26  0  0  0  0  0  0  0  0999 V2000
    1.6966    0.5402    0.9213 C   0  0  0  0  0  0  0  0  0  0  0  0
   -4.7417    0.0700    0.2465 C   0  0  0  0  0  0  0  0  0  0  0  0
   -3.6843   -0.7943    0.4500 C   0  0  0  0  0  0  0  0  0  0  0  0
    2.0876   -1.1200   -0.7737 C   0  0  0  0  0  0  0  0  0  0  0  0
    2.5743   -0.1106    0.0527 C   0  0  0  0  0  0  0  0  0  0  0  0
    4.0139    0.2296   -0.0206 C   0  0  0  0  0  0  0  0  0  0  0  0
    0.7492   -1.4707   -0.7441 C   0  0  0  0  0  0  0  0  0  0  0  0
   -0.1093   -0.8138    0.1248 C   0  0  0  0  0  0  0  0  0  0  0  0
   -2.4283   -0.3756    0.0158 C   0  0  0  0  0  0  0  0  0  0  0  0
    4.3616    1.1981    0.8158 O   0  0  0  0  0  0  0  0  0  0  0  0
    4.7972   -0.3144   -0.7626 O   0  0  0  0  0  0  0  0  0  0  0  0
   -1.4030   -1.2475    0.1835 O   0  0  0  0  0  0  0  0  0  0  0  0
   -4.5142    1.3007   -0.3633 C   0  0  0  0  0  0  0  0  0  0  0  0
   -3.2220    1.6025   -0.7475 C   0  0  0  0  0  0  0  0  0  0  0  0
   -2.1933    0.7755   -0.5659 N   0  0  0  0  0  0  0  0  0  0  0  0
    0.3590    0.1931    0.9605 C   0  0  0  0  0  0  0  0  0  0  0  0
    2.0478    1.3231    1.5787 H   0  0  0  0  0  0  0  0  0  0  0  0
   -3.8174   -1.7563    0.9257 H   0  0  0  0  0  0  0  0  0  0  0  0
    2.7541   -1.6340   -1.4526 H   0  0  0  0  0  0  0  0  0  0  0  0
    0.3724   -2.2556   -1.3867 H   0  0  0  0  0  0  0  0  0  0  0  0
    5.3075    1.3868    0.7277 H   0  0  0  0  0  0  0  0  0  0  0  0
   -5.3175    2.0025   -0.5361 H   0  0  0  0  0  0  0  0  0  0  0  0
   -2.9952    2.5468   -1.2283 H   0  0  0  0  0  0  0  0  0  0  0  0
   -0.3078    0.6977    1.6467 H   0  0  0  0  0  0  0  0  0  0  0  0
   -5.7367   -0.2106    0.5653 H   0  0  0  0  0  0  0  0  0  0  0  0
  2  3  2  0
  2 13  1  0
  3  9  1  0
 11  6  2  0
 13 14  2  0
  4  7  2  0
  4  5  1  0
  7  8  1  0
  9 12  1  0
  9 15  2  0
  6  5  1  0
  6 10  1  0
  5  1  2  0
  8 12  1  0
  8 16  2  0
 14 15  1  0
  1 16  1  0
  1 17  1  0
  2 25  1  0
  3 18  1  0
  4 19  1  0
  7 20  1  0
 10 21  1  0
 13 22  1  0
 14 23  1  0
 16 24  1  0
M  END
