
     RDKit          3D

 48 50  0  0  0  0  0  0  0  0999 V2000
   -3.2415    1.4625   -1.1096 C   0  0  0  0  0  0  0  0  0  0  0  0
   -1.2575    0.9408   -3.0343 C   0  0  0  0  0  0  0  0  0  0  0  0
   -2.5071    0.2586   -1.0750 O   0  0  0  0  0  0  0  0  0  0  0  0
   -1.5424    0.0657   -1.9980 C   0  0  0  0  0  0  0  0  0  0  0  0
   -0.2359    0.6656   -3.9421 C   0  0  0  0  0  0  0  0  0  0  0  0
    0.4998   -0.5032   -3.8258 C   0  0  0  0  0  0  0  0  0  0  0  0
    1.5097   -0.8653   -4.6482 O   0  0  0  0  0  0  0  0  0  0  0  0
    1.8881    0.0346   -5.6672 C   0  0  0  0  0  0  0  0  0  0  0  0
    0.2053   -1.3836   -2.7826 C   0  0  0  0  0  0  0  0  0  0  0  0
   -0.7871   -1.1097   -1.8615 C   0  0  0  0  0  0  0  0  0  0  0  0
   -1.0323   -2.0447   -0.7037 C   0  0  0  0  0  0  0  0  0  0  0  0
   -0.8084   -1.4278    0.6380 C   0  0  0  0  0  0  0  0  0  0  0  0
   -1.7033   -1.3700    1.5833 N   0  0  0  0  0  0  0  0  0  0  0  0
   -1.0708   -0.7578    2.6306 C   0  0  0  0  0  0  0  0  0  0  0  0
   -1.4783   -0.4102    3.9309 C   0  0  0  0  0  0  0  0  0  0  0  0
   -2.7003   -0.6505    4.3987 N   0  0  0  0  0  0  0  0  0  0  0  0
    0.2356   -0.4479    2.2933 C   0  0  0  0  0  0  0  0  0  0  0  0
    1.1376    0.1436    3.0833 N   0  0  0  0  0  0  0  0  0  0  0  0
    0.6193    0.4039    4.2504 C   0  0  0  0  0  0  0  0  0  0  0  0
   -0.5819    0.1860    4.7313 N   0  0  0  0  0  0  0  0  0  0  0  0
    0.3995   -0.8844    1.0190 N   0  0  0  0  0  0  0  0  0  0  0  0
    1.6413   -0.8114    0.2698 C   0  0  0  0  0  0  0  0  0  0  0  0
    1.8644    0.5320   -0.4110 C   0  0  0  0  0  0  0  0  0  0  0  0
    3.0951    0.4942   -1.3088 C   0  0  0  0  0  0  0  0  0  0  0  0
    3.2996    1.7913   -2.0771 C   0  0  0  0  0  0  0  0  0  0  0  0
    1.4485    0.9951    5.1109 F   0  0  0  0  0  0  0  0  0  0  0  0
   -3.9257    1.4321   -0.2652 H   0  0  0  0  0  0  0  0  0  0  0  0
   -2.5956    2.3390   -1.0070 H   0  0  0  0  0  0  0  0  0  0  0  0
   -3.8226    1.5623   -2.0306 H   0  0  0  0  0  0  0  0  0  0  0  0
   -0.0464    1.3830   -4.7288 H   0  0  0  0  0  0  0  0  0  0  0  0
    2.7309   -0.4165   -6.1853 H   0  0  0  0  0  0  0  0  0  0  0  0
    1.0829    0.2022   -6.3884 H   0  0  0  0  0  0  0  0  0  0  0  0
    2.2001    1.0020   -5.2631 H   0  0  0  0  0  0  0  0  0  0  0  0
    0.7902   -2.2913   -2.6817 H   0  0  0  0  0  0  0  0  0  0  0  0
   -0.3847   -2.9194   -0.8097 H   0  0  0  0  0  0  0  0  0  0  0  0
   -2.0582   -2.4163   -0.7102 H   0  0  0  0  0  0  0  0  0  0  0  0
   -2.9557   -0.3673    5.3291 H   0  0  0  0  0  0  0  0  0  0  0  0
   -3.4048   -1.0664    3.8153 H   0  0  0  0  0  0  0  0  0  0  0  0
    1.6425   -1.6174   -0.4629 H   0  0  0  0  0  0  0  0  0  0  0  0
    2.4541   -1.0195    0.9673 H   0  0  0  0  0  0  0  0  0  0  0  0
    1.9768    1.3122    0.3473 H   0  0  0  0  0  0  0  0  0  0  0  0
    0.9872    0.7927   -1.0075 H   0  0  0  0  0  0  0  0  0  0  0  0
    2.9939   -0.3336   -2.0170 H   0  0  0  0  0  0  0  0  0  0  0  0
    3.9830    0.2786   -0.7067 H   0  0  0  0  0  0  0  0  0  0  0  0
    4.2046    1.7539   -2.6842 H   0  0  0  0  0  0  0  0  0  0  0  0
    2.4602    1.9846   -2.7483 H   0  0  0  0  0  0  0  0  0  0  0  0
    3.3879    2.6451   -1.4028 H   0  0  0  0  0  0  0  0  0  0  0  0
   -1.8170    1.8578   -3.1607 H   0  0  0  0  0  0  0  0  0  0  0  0
  1  3  1  0
  1 27  1  0
  1 28  1  0
  1 29  1  0
  2  4  2  0
  2  5  1  0
  2 48  1  0
  3  4  1  0
  4 10  1  0
  5  6  2  0
  5 30  1  0
  6  7  1  0
  6  9  1  0
  7  8  1  0
  8 31  1  0
  8 32  1  0
  8 33  1  0
  9 10  2  0
  9 34  1  0
 10 11  1  0
 11 12  1  0
 11 35  1  0
 11 36  1  0
 12 13  2  0
 12 21  1  0
 13 14  1  0
 14 15  2  0
 14 17  1  0
 15 16  1  0
 15 20  1  0
 16 37  1  0
 16 38  1  0
 17 18  2  0
 17 21  1  0
 18 19  1  0
 19 20  2  0
 19 26  1  0
 21 22  1  0
 22 23  1  0
 22 39  1  0
 22 40  1  0
 23 24  1  0
 23 41  1  0
 23 42  1  0
 24 25  1  0
 24 43  1  0
 24 44  1  0
 25 45  1  0
 25 46  1  0
 25 47  1  0
M  END
