
     RDKit          3D

 47 50  0  0  0  0  0  0  0  0999 V2000
    4.1035    2.7895    0.4923 N   0  0  0  0  0  0  0  0  0  0  0  0
    5.1375    1.9537    0.4098 C   0  0  0  0  0  0  0  0  0  0  0  0
    5.1255    0.6523    0.2146 N   0  0  0  0  0  0  0  0  0  0  0  0
    3.8861    0.1784    0.0520 C   0  0  0  0  0  0  0  0  0  0  0  0
    2.7059    0.9287    0.0623 C   0  0  0  0  0  0  0  0  0  0  0  0
    2.8670    2.3059    0.3461 C   0  0  0  0  0  0  0  0  0  0  0  0
   -8.4621   -0.3641    0.0737 C   0  0  0  0  0  0  0  0  0  0  0  0
    4.1776   -3.1575    1.0164 C   0  0  0  0  0  0  0  0  0  0  0  0
    4.2012   -3.0237   -1.5084 C   0  0  0  0  0  0  0  0  0  0  0  0
    1.8497    3.1588    0.4780 N   0  0  0  0  0  0  0  0  0  0  0  0
   -4.2990   -1.2891    0.7235 C   0  0  0  0  0  0  0  0  0  0  0  0
   -0.3064    1.2395   -1.0088 C   0  0  0  0  0  0  0  0  0  0  0  0
   -2.9457   -1.4596    0.8343 C   0  0  0  0  0  0  0  0  0  0  0  0
   -1.6545    1.4234   -1.1236 C   0  0  0  0  0  0  0  0  0  0  0  0
   -3.9580    0.6957   -0.6094 C   0  0  0  0  0  0  0  0  0  0  0  0
   -0.6405   -0.7256    0.3370 C   0  0  0  0  0  0  0  0  0  0  0  0
   -7.0785   -0.8482    0.4356 C   0  0  0  0  0  0  0  0  0  0  0  0
    2.2022   -1.2269   -0.2645 N   0  0  0  0  0  0  0  0  0  0  0  0
   -4.8201   -0.1952   -0.0098 C   0  0  0  0  0  0  0  0  0  0  0  0
    0.2250    0.1592   -0.2574 C   0  0  0  0  0  0  0  0  0  0  0  0
    1.6748   -0.0288   -0.1534 C   0  0  0  0  0  0  0  0  0  0  0  0
   -2.5647    0.5305   -0.5061 C   0  0  0  0  0  0  0  0  0  0  0  0
   -2.0386   -0.5643    0.2282 C   0  0  0  0  0  0  0  0  0  0  0  0
    3.5293   -1.1033   -0.1423 N   0  0  0  0  0  0  0  0  0  0  0  0
    6.1138    2.4112    0.5331 H   0  0  0  0  0  0  0  0  0  0  0  0
   -9.2033   -1.0257    0.5207 H   0  0  0  0  0  0  0  0  0  0  0  0
   -8.6437    0.6438    0.4467 H   0  0  0  0  0  0  0  0  0  0  0  0
   -8.6154   -0.3697   -1.0055 H   0  0  0  0  0  0  0  0  0  0  0  0
    4.8848   -3.9865    1.0046 H   0  0  0  0  0  0  0  0  0  0  0  0
    4.3253   -2.6021    1.9426 H   0  0  0  0  0  0  0  0  0  0  0  0
    3.1699   -3.5744    1.0211 H   0  0  0  0  0  0  0  0  0  0  0  0
    4.3445   -2.3701   -2.3688 H   0  0  0  0  0  0  0  0  0  0  0  0
    4.9279   -3.8329   -1.5752 H   0  0  0  0  0  0  0  0  0  0  0  0
    3.2048   -3.4617   -1.5679 H   0  0  0  0  0  0  0  0  0  0  0  0
    2.0404    4.1064    0.7580 H   0  0  0  0  0  0  0  0  0  0  0  0
    0.8966    2.8443    0.5281 H   0  0  0  0  0  0  0  0  0  0  0  0
   -4.9555   -2.0016    1.2036 H   0  0  0  0  0  0  0  0  0  0  0  0
    0.3646    1.9148   -1.5258 H   0  0  0  0  0  0  0  0  0  0  0  0
   -2.5604   -2.3023    1.3954 H   0  0  0  0  0  0  0  0  0  0  0  0
   -2.0392    2.2536   -1.7032 H   0  0  0  0  0  0  0  0  0  0  0  0
   -4.3564    1.5350   -1.1676 H   0  0  0  0  0  0  0  0  0  0  0  0
   -0.2539   -1.5593    0.9111 H   0  0  0  0  0  0  0  0  0  0  0  0
   -6.9488   -0.8599    1.5228 H   0  0  0  0  0  0  0  0  0  0  0  0
   -6.9283   -1.8700    0.0722 H   0  0  0  0  0  0  0  0  0  0  0  0
    5.4102   -1.8674   -0.1706 H   0  0  0  0  0  0  0  0  0  0  0  0
    4.3972   -2.2709   -0.2013 C   0  0  1  0  0  0  0  0  0  0  0  0
   -6.1356    0.0333   -0.1630 O   0  0  0  0  0  0  0  0  0  0  0  0
  1  6  2  0
  2  1  1  0
  3  2  2  0
  3  4  1  0
  4 24  1  0
  4  5  2  0
  5  6  1  0
  5 21  1  0
  6 10  1  0
  9 46  1  0
 12 14  1  0
 12 20  2  0
 13 11  2  0
 14 22  2  0
 15 19  2  0
 16 23  2  0
 17  7  1  0
 17 47  1  0
 18 21  2  0
 19 11  1  0
 19 47  1  0
 20 16  1  0
 21 20  1  0
 22 15  1  0
 22 23  1  0
 23 13  1  0
 46  8  1  0
 46 24  1  0
 24 18  1  0
  2 25  1  0
  7 26  1  0
  7 27  1  0
  7 28  1  0
  8 29  1  0
  8 30  1  0
  8 31  1  0
  9 32  1  0
  9 33  1  0
  9 34  1  0
 10 35  1  0
 10 36  1  0
 11 37  1  0
 12 38  1  0
 13 39  1  0
 14 40  1  0
 15 41  1  0
 16 42  1  0
 17 43  1  0
 17 44  1  0
 46 45  1  6
M  END
