
     RDKit          3D

 78 83  0  0  0  0  0  0  0  0999 V2000
   -7.4617    1.9144   -1.9444 C   0  0  0  0  0  0  0  0  0  0  0  0
   -3.8748   -0.3941    1.1783 N   0  0  0  0  0  0  0  0  0  0  0  0
    1.3594   -5.0136   -2.0985 O   0  0  0  0  0  0  0  0  0  0  0  0
   -7.4313    0.5842   -1.1989 C   0  0  1  0  0  0  0  0  0  0  0  0
   -0.9075   -1.3416    1.0399 N   0  0  0  0  0  0  0  0  0  0  0  0
   -8.6866    0.5053   -0.5286 O   0  0  0  0  0  0  0  0  0  0  0  0
   -7.3119   -0.5616   -2.2029 C   0  0  0  0  0  0  0  0  0  0  0  0
   -0.6558    0.7554    1.7353 N   0  0  0  0  0  0  0  0  0  0  0  0
   -6.2942    0.5781   -0.1524 C   0  0  1  0  0  0  0  0  0  0  0  0
    1.5897    1.1766    0.9849 N   0  0  0  0  0  0  0  0  0  0  0  0
   -6.2828   -0.6636    0.7399 C   0  0  0  0  0  0  0  0  0  0  0  0
    2.5127   -0.6752   -0.1767 N   0  0  0  0  0  0  0  0  0  0  0  0
   -5.1829   -0.5754    1.7846 C   0  0  0  0  0  0  0  0  0  0  0  0
    1.5084   -2.7183   -0.4655 N   0  0  0  0  0  0  0  0  0  0  0  0
   -3.8428    0.7993    0.3502 C   0  0  0  0  0  0  0  0  0  0  0  0
   -4.8964    0.7478   -0.7438 C   0  0  0  0  0  0  0  0  0  0  0  0
   -1.4739   -0.3404    1.6537 C   0  0  0  0  0  0  0  0  0  0  0  0
    0.3416   -0.8979    0.6924 C   0  0  0  0  0  0  0  0  0  0  0  0
    0.5088    0.4138    1.1248 C   0  0  0  0  0  0  0  0  0  0  0  0
    2.5256    0.5550    0.3050 C   0  0  0  0  0  0  0  0  0  0  0  0
    1.4484   -1.4676    0.0136 C   0  0  0  0  0  0  0  0  0  0  0  0
    0.5051   -3.7405   -0.2189 C   0  0  0  0  0  0  0  0  0  0  0  0
    0.1963   -4.4786   -1.5096 C   0  0  0  0  0  0  0  0  0  0  0  0
    2.2941   -3.9954   -2.3767 C   0  0  0  0  0  0  0  0  0  0  0  0
    2.6960   -3.2388   -1.1232 C   0  0  0  0  0  0  0  0  0  0  0  0
    3.7204    1.2647    0.0784 N   0  0  0  0  0  0  0  0  0  0  0  0
    4.9843    0.7734    0.4046 C   0  0  0  0  0  0  0  0  0  0  0  0
    5.4566   -0.4987    0.6771 C   0  0  0  0  0  0  0  0  0  0  0  0
    6.8031   -0.6153    1.0076 C   0  0  0  0  0  0  0  0  0  0  0  0
    7.6378    0.5020    1.0548 C   0  0  0  0  0  0  0  0  0  0  0  0
    7.1521    1.7739    0.7818 C   0  0  0  0  0  0  0  0  0  0  0  0
    5.8073    1.9081    0.4547 C   0  0  0  0  0  0  0  0  0  0  0  0
    5.0951    3.0383    0.1331 N   0  0  0  0  0  0  0  0  0  0  0  0
    3.8694    2.6352   -0.0825 C   0  0  0  0  0  0  0  0  0  0  0  0
    2.8595    3.4484   -0.4456 N   0  0  0  0  0  0  0  0  0  0  0  0
    3.0897    4.8745   -0.3726 C   0  0  0  0  0  0  0  0  0  0  0  0
    1.8026    3.0310   -1.3454 C   0  0  0  0  0  0  0  0  0  0  0  0
   -6.5811    2.0366   -2.5739 H   0  0  0  0  0  0  0  0  0  0  0  0
   -8.3369    1.9667   -2.5948 H   0  0  0  0  0  0  0  0  0  0  0  0
   -7.4993    2.7587   -1.2526 H   0  0  0  0  0  0  0  0  0  0  0  0
   -8.7748   -0.3706   -0.1400 H   0  0  0  0  0  0  0  0  0  0  0  0
   -6.3910   -0.4966   -2.7827 H   0  0  0  0  0  0  0  0  0  0  0  0
   -7.3222   -1.5386   -1.7148 H   0  0  0  0  0  0  0  0  0  0  0  0
   -8.1459   -0.5320   -2.9058 H   0  0  0  0  0  0  0  0  0  0  0  0
   -6.4753    1.4440    0.5000 H   0  0  0  0  0  0  0  0  0  0  0  0
   -7.2313   -0.7843    1.2692 H   0  0  0  0  0  0  0  0  0  0  0  0
   -6.1313   -1.5639    0.1369 H   0  0  0  0  0  0  0  0  0  0  0  0
   -5.1657   -1.4937    2.3773 H   0  0  0  0  0  0  0  0  0  0  0  0
   -5.4125    0.2471    2.4861 H   0  0  0  0  0  0  0  0  0  0  0  0
   -3.9941    1.7107    0.9579 H   0  0  0  0  0  0  0  0  0  0  0  0
   -2.8554    0.8883   -0.1106 H   0  0  0  0  0  0  0  0  0  0  0  0
   -4.6684   -0.0806   -1.4213 H   0  0  0  0  0  0  0  0  0  0  0  0
   -4.8256    1.6657   -1.3309 H   0  0  0  0  0  0  0  0  0  0  0  0
   -1.7953    2.5128    1.8309 H   0  0  0  0  0  0  0  0  0  0  0  0
   -1.1683    1.9411    3.3891 H   0  0  0  0  0  0  0  0  0  0  0  0
   -0.0775    2.6796    2.2115 H   0  0  0  0  0  0  0  0  0  0  0  0
    0.8900   -4.4449    0.5275 H   0  0  0  0  0  0  0  0  0  0  0  0
   -0.4060   -3.3007    0.1757 H   0  0  0  0  0  0  0  0  0  0  0  0
   -0.3105   -3.7963   -2.2063 H   0  0  0  0  0  0  0  0  0  0  0  0
   -0.4791   -5.3088   -1.2996 H   0  0  0  0  0  0  0  0  0  0  0  0
    3.1738   -4.4661   -2.8172 H   0  0  0  0  0  0  0  0  0  0  0  0
    1.8844   -3.2866   -3.1099 H   0  0  0  0  0  0  0  0  0  0  0  0
    3.3631   -2.4229   -1.3853 H   0  0  0  0  0  0  0  0  0  0  0  0
    3.2299   -3.9032   -0.4339 H   0  0  0  0  0  0  0  0  0  0  0  0
    4.8151   -1.3665    0.6308 H   0  0  0  0  0  0  0  0  0  0  0  0
    7.2083   -1.5944    1.2267 H   0  0  0  0  0  0  0  0  0  0  0  0
    8.6822    0.3740    1.3091 H   0  0  0  0  0  0  0  0  0  0  0  0
    7.7992    2.6408    0.8228 H   0  0  0  0  0  0  0  0  0  0  0  0
    3.6371    5.2552   -1.2402 H   0  0  0  0  0  0  0  0  0  0  0  0
    2.1265    5.3811   -0.3278 H   0  0  0  0  0  0  0  0  0  0  0  0
    3.6473    5.1278    0.5255 H   0  0  0  0  0  0  0  0  0  0  0  0
    1.9782    2.0326   -1.7390 H   0  0  0  0  0  0  0  0  0  0  0  0
    0.8276    3.0456   -0.8579 H   0  0  0  0  0  0  0  0  0  0  0  0
    1.7722    3.7079   -2.2014 H   0  0  0  0  0  0  0  0  0  0  0  0
   -2.8585   -0.3663    2.2127 C   0  0  0  0  0  0  0  0  0  0  0  0
   -0.9492    2.0427    2.3285 C   0  0  0  0  0  0  0  0  0  0  0  0
   -2.9974    0.4800    2.9038 H   0  0  0  0  0  0  0  0  0  0  0  0
   -2.9575   -1.2720    2.8162 H   0  0  0  0  0  0  0  0  0  0  0  0
 36 35  1  0
 37 35  1  0
  1  4  1  0
 35 34  1  0
 16 15  1  0
 16  9  1  0
 15  2  1  0
  4  9  1  0
  4  7  1  0
  4  6  1  1
 34 33  2  0
 34 26  1  0
  9 11  1  0
 33 32  1  0
 76  8  1  0
  2 75  1  0
  2 13  1  0
 26 20  1  0
 26 27  1  0
 10 20  2  0
 10 19  1  0
 32 31  2  0
 32 27  1  0
  8 19  1  0
  8 17  1  0
 20 12  1  0
 19 18  2  0
 17 75  1  0
 17  5  2  0
 11 13  1  0
 31 30  1  0
 12 21  2  0
 27 28  2  0
 18  5  1  0
 18 21  1  0
 21 14  1  0
 14 25  1  0
 14 22  1  0
 30 29  2  0
 25 24  1  0
 28 29  1  0
 22 23  1  0
 24  3  1  0
 23  3  1  0
  1 38  1  0
  1 39  1  0
  1 40  1  0
  6 41  1  0
  7 42  1  0
  7 43  1  0
  7 44  1  0
  9 45  1  1
 11 46  1  0
 11 47  1  0
 13 48  1  0
 13 49  1  0
 15 50  1  0
 15 51  1  0
 16 52  1  0
 16 53  1  0
 75 77  1  0
 75 78  1  0
 76 54  1  0
 76 55  1  0
 76 56  1  0
 22 57  1  0
 22 58  1  0
 23 59  1  0
 23 60  1  0
 24 61  1  0
 24 62  1  0
 25 63  1  0
 25 64  1  0
 28 65  1  0
 29 66  1  0
 30 67  1  0
 31 68  1  0
 36 69  1  0
 36 70  1  0
 36 71  1  0
 37 72  1  0
 37 73  1  0
 37 74  1  0
M  END
