
     RDKit          3D

 50 53  0  0  0  0  0  0  0  0999 V2000
    3.3715   -2.9490    1.9848 C   0  0  0  0  0  0  0  0  0  0  0  0
    3.3510   -2.5615    0.6514 C   0  0  0  0  0  0  0  0  0  0  0  0
    2.3421   -1.7163    0.1887 C   0  0  0  0  0  0  0  0  0  0  0  0
    1.3629   -1.2827    1.0874 C   0  0  0  0  0  0  0  0  0  0  0  0
    1.3841   -1.6754    2.4120 C   0  0  0  0  0  0  0  0  0  0  0  0
    2.3939   -2.5145    2.8612 C   0  0  0  0  0  0  0  0  0  0  0  0
    9.4929   -0.4755   -5.1452 C   0  0  0  0  0  0  0  0  0  0  0  0
    9.7340    0.0786   -3.9626 N   0  0  0  0  0  0  0  0  0  0  0  0
    8.2183   -0.6810   -5.6499 C   0  0  0  0  0  0  0  0  0  0  0  0
    7.1184   -0.2856   -4.8977 C   0  0  0  0  0  0  0  0  0  0  0  0
    7.3689    0.2954   -3.6590 C   0  0  0  0  0  0  0  0  0  0  0  0
    8.6819    0.4516   -3.2426 C   0  0  0  0  0  0  0  0  0  0  0  0
    2.5458   -0.9440   -3.4836 C   0  0  0  0  0  0  0  0  0  0  0  0
    1.1925   -0.7778   -3.7435 C   0  0  0  0  0  0  0  0  0  0  0  0
    0.7582   -0.2461   -4.9471 C   0  0  0  0  0  0  0  0  0  0  0  0
    1.7295    0.1089   -5.8653 C   0  0  0  0  0  0  0  0  0  0  0  0
    3.0269   -0.0649   -5.6713 N   0  0  0  0  0  0  0  0  0  0  0  0
    3.4560   -0.5947   -4.5245 C   0  0  0  0  0  0  0  0  0  0  0  0
    4.7901   -0.7524   -4.3872 N   0  0  0  0  0  0  0  0  0  0  0  0
    5.7255   -0.4498   -5.4391 C   0  0  0  0  0  0  0  0  0  0  0  0
    3.0303   -1.4910   -2.1918 C   0  0  0  0  0  0  0  0  0  0  0  0
    2.2160   -1.2678   -1.1301 N   0  0  0  0  0  0  0  0  0  0  0  0
    4.0959   -2.0883   -2.0963 O   0  0  0  0  0  0  0  0  0  0  0  0
    2.4033   -2.9603    4.1588 O   0  0  0  0  0  0  0  0  0  0  0  0
    3.8477   -0.1316    6.0043 C   0  0  0  0  0  0  0  0  0  0  0  0
    3.6586   -0.5728    7.3052 C   0  0  0  0  0  0  0  0  0  0  0  0
    3.0507   -1.8045    7.5207 C   0  0  0  0  0  0  0  0  0  0  0  0
    2.6323   -2.5817    6.4530 C   0  0  0  0  0  0  0  0  0  0  0  0
    2.8265   -2.1275    5.1512 C   0  0  0  0  0  0  0  0  0  0  0  0
    3.4369   -0.8999    4.9208 C   0  0  0  0  0  0  0  0  0  0  0  0
    4.1592   -3.6043    2.3345 H   0  0  0  0  0  0  0  0  0  0  0  0
    4.1232   -2.9230   -0.0060 H   0  0  0  0  0  0  0  0  0  0  0  0
    0.5653   -0.6343    0.7442 H   0  0  0  0  0  0  0  0  0  0  0  0
    0.6106   -1.3321    3.0871 H   0  0  0  0  0  0  0  0  0  0  0  0
    8.0914   -1.1502   -6.6174 H   0  0  0  0  0  0  0  0  0  0  0  0
    6.5608    0.6244   -3.0188 H   0  0  0  0  0  0  0  0  0  0  0  0
    8.8907    0.9016   -2.2783 H   0  0  0  0  0  0  0  0  0  0  0  0
    0.4531   -1.0817   -3.0128 H   0  0  0  0  0  0  0  0  0  0  0  0
   -0.2917   -0.1173   -5.1642 H   0  0  0  0  0  0  0  0  0  0  0  0
    1.4468    0.5455   -6.8173 H   0  0  0  0  0  0  0  0  0  0  0  0
    5.0914   -1.3667   -3.6459 H   0  0  0  0  0  0  0  0  0  0  0  0
    5.4264    0.4815   -5.9235 H   0  0  0  0  0  0  0  0  0  0  0  0
    5.7238   -1.2159   -6.2224 H   0  0  0  0  0  0  0  0  0  0  0  0
    1.4265   -0.6601   -1.2856 H   0  0  0  0  0  0  0  0  0  0  0  0
    4.3236    0.8224    5.8175 H   0  0  0  0  0  0  0  0  0  0  0  0
    3.9803    0.0329    8.1419 H   0  0  0  0  0  0  0  0  0  0  0  0
    2.8964   -2.1654    8.5292 H   0  0  0  0  0  0  0  0  0  0  0  0
    2.1569   -3.5396    6.6229 H   0  0  0  0  0  0  0  0  0  0  0  0
    3.6008   -0.5339    3.9160 H   0  0  0  0  0  0  0  0  0  0  0  0
   10.3578   -0.7800   -5.7241 H   0  0  0  0  0  0  0  0  0  0  0  0
 12  8  1  0
 12 11  2  0
  8  7  2  0
 11 10  1  0
  7  9  1  0
 10  9  2  0
 10 20  1  0
 16 17  2  0
 16 15  1  0
 17 18  1  0
 20 19  1  0
 15 14  2  0
 18 19  1  0
 18 13  2  0
 14 13  1  0
 13 21  1  0
 21 23  2  0
 21 22  1  0
 22  3  1  0
  3  2  1  0
  3  4  2  0
  2  1  2  0
  4  5  1  0
  1  6  1  0
  5  6  2  0
  6 24  1  0
 24 29  1  0
 29 28  2  0
 29 30  1  0
 28 27  1  0
 30 25  2  0
 27 26  2  0
 25 26  1  0
  1 31  1  0
  2 32  1  0
  4 33  1  0
  5 34  1  0
  7 50  1  0
  9 35  1  0
 11 36  1  0
 12 37  1  0
 14 38  1  0
 15 39  1  0
 16 40  1  0
 19 41  1  0
 20 42  1  0
 20 43  1  0
 22 44  1  0
 25 45  1  0
 26 46  1  0
 27 47  1  0
 28 48  1  0
 30 49  1  0
M  END
