
     RDKit          3D

 28 29  0  0  0  0  0  0  0  0999 V2000
   -2.8798   -0.6637   -0.0807 C   0  0  0  0  0  0  0  0  0  0  0  0
   -2.1157   -1.8069    0.1330 C   0  0  0  0  0  0  0  0  0  0  0  0
   -0.7321   -1.7451    0.1287 C   0  0  0  0  0  0  0  0  0  0  0  0
   -0.0566   -0.5437   -0.0783 C   0  0  0  0  0  0  0  0  0  0  0  0
   -0.8375    0.5892   -0.2904 C   0  0  0  0  0  0  0  0  0  0  0  0
   -2.2227    0.5428   -0.2928 C   0  0  0  0  0  0  0  0  0  0  0  0
   -0.0679    2.1136   -0.5981 Cl  0  0  0  0  0  0  0  0  0  0  0  0
   -4.3853   -0.7494   -0.1182 C   0  0  0  0  0  0  0  0  0  0  0  0
   -5.0203    0.5071    0.2285 N   0  0  0  0  0  0  0  0  0  0  0  0
    1.4216   -0.5146   -0.0933 C   0  0  0  0  0  0  0  0  0  0  0  0
    2.1384    0.1363    0.9168 C   0  0  0  0  0  0  0  0  0  0  0  0
    1.4336    0.7341    1.8943 O   0  0  0  0  0  0  0  0  0  0  0  0
    3.5302    0.1347    0.8946 C   0  0  0  0  0  0  0  0  0  0  0  0
    4.2114   -0.5200   -0.1211 C   0  0  0  0  0  0  0  0  0  0  0  0
    3.5134   -1.1813   -1.1212 C   0  0  0  0  0  0  0  0  0  0  0  0
    2.1255   -1.1731   -1.0959 C   0  0  0  0  0  0  0  0  0  0  0  0
   -2.6055   -2.7563    0.3144 H   0  0  0  0  0  0  0  0  0  0  0  0
   -0.1544   -2.6437    0.3057 H   0  0  0  0  0  0  0  0  0  0  0  0
   -2.7976    1.4435   -0.4607 H   0  0  0  0  0  0  0  0  0  0  0  0
   -4.6842   -1.0073   -1.1384 H   0  0  0  0  0  0  0  0  0  0  0  0
   -4.6990   -1.5974    0.5051 H   0  0  0  0  0  0  0  0  0  0  0  0
   -6.0124    0.4443    0.0436 H   0  0  0  0  0  0  0  0  0  0  0  0
   -4.9284    0.6724    1.2229 H   0  0  0  0  0  0  0  0  0  0  0  0
    2.0281    1.1429    2.5333 H   0  0  0  0  0  0  0  0  0  0  0  0
    4.0826    0.6401    1.6788 H   0  0  0  0  0  0  0  0  0  0  0  0
    5.2938   -0.5123   -0.1235 H   0  0  0  0  0  0  0  0  0  0  0  0
    4.0400   -1.6938   -1.9147 H   0  0  0  0  0  0  0  0  0  0  0  0
    1.5693   -1.6777   -1.8764 H   0  0  0  0  0  0  0  0  0  0  0  0
 12 11  1  0
  9  8  1  0
 11 13  2  0
 11 10  1  0
  7  5  1  0
  6  5  1  0
  6  1  2  0
 13 14  1  0
  8  1  1  0
  5  4  2  0
  1  2  1  0
  4  3  1  0
  4 10  1  0
  2  3  2  0
 10 16  2  0
 14 15  2  0
 16 15  1  0
  2 17  1  0
  3 18  1  0
  6 19  1  0
  8 20  1  0
  8 21  1  0
  9 22  1  0
  9 23  1  0
 12 24  1  0
 13 25  1  0
 14 26  1  0
 15 27  1  0
 16 28  1  0
M  END
