
     RDKit          3D

 68 71  0  0  0  0  0  0  0  0999 V2000
   -3.6472   -0.5585   -0.0740 C   0  0  0  0  0  0  0  0  0  0  0  0
   -3.0100    0.4088   -0.8662 C   0  0  0  0  0  0  0  0  0  0  0  0
   -3.5265    0.7255   -2.1180 C   0  0  0  0  0  0  0  0  0  0  0  0
   -4.6905    0.1166   -2.5722 C   0  0  0  0  0  0  0  0  0  0  0  0
   -5.3311   -0.8112   -1.7760 C   0  0  0  0  0  0  0  0  0  0  0  0
   -4.8077   -1.1547   -0.5374 C   0  0  0  0  0  0  0  0  0  0  0  0
   -3.0392   -1.0043    1.2279 C   0  0  0  0  0  0  0  0  0  0  0  0
   -1.8514   -1.7910    0.9733 N   0  0  0  0  0  0  0  0  0  0  0  0
   -0.6225   -1.4930    1.4142 C   0  0  0  0  0  0  0  0  0  0  0  0
    0.4566   -2.4589    0.9193 C   0  0  2  0  0  0  0  0  0  0  0  0
   -0.3699   -0.5753    2.1815 O   0  0  0  0  0  0  0  0  0  0  0  0
   -1.9131    0.9757   -0.3324 O   0  0  0  0  0  0  0  0  0  0  0  0
    0.6236   -3.6560    1.8626 C   0  0  0  0  0  0  0  0  0  0  0  0
    1.6393   -3.1591    2.8835 C   0  0  0  0  0  0  0  0  0  0  0  0
    2.5920   -2.3071    2.0520 C   0  0  0  0  0  0  0  0  0  0  0  0
    1.7535   -1.8192    0.9557 N   0  0  0  0  0  0  0  0  0  0  0  0
    1.9687   -0.7495    0.1714 C   0  0  0  0  0  0  0  0  0  0  0  0
    3.3022   -0.0161    0.3024 C   0  0  2  0  0  0  0  0  0  0  0  0
    3.0168    1.3823    0.5243 N   0  0  0  0  0  0  0  0  0  0  0  0
    2.7471    1.8633    1.7554 C   0  0  0  0  0  0  0  0  0  0  0  0
    2.9432    1.2259    2.7801 O   0  0  0  0  0  0  0  0  0  0  0  0
    2.1360    3.2412    1.7837 C   0  0  0  0  0  0  0  0  0  0  0  0
    0.6336    3.1454    2.0660 C   0  0  0  0  0  0  0  0  0  0  0  0
   -0.1108    2.3651    1.0999 N   0  0  0  0  0  0  0  0  0  0  0  0
   -0.3564    2.8191   -0.1299 C   0  0  0  0  0  0  0  0  0  0  0  0
    0.0796    3.8786   -0.5637 O   0  0  0  0  0  0  0  0  0  0  0  0
   -1.2505    1.9972   -1.0373 C   0  0  0  0  0  0  0  0  0  0  0  0
    1.1227   -0.3601   -0.6237 O   0  0  0  0  0  0  0  0  0  0  0  0
    4.2372   -0.2509   -0.8965 C   0  0  1  0  0  0  0  0  0  0  0  0
    3.7564    0.3324   -2.2273 C   0  0  0  0  0  0  0  0  0  0  0  0
    4.7552    0.0513   -3.3474 C   0  0  0  0  0  0  0  0  0  0  0  0
    6.1470    0.5700   -3.0066 C   0  0  0  0  0  0  0  0  0  0  0  0
    6.6327   -0.0078   -1.6831 C   0  0  0  0  0  0  0  0  0  0  0  0
    5.6391    0.2652   -0.5598 C   0  0  0  0  0  0  0  0  0  0  0  0
   -6.7901   -1.5702   -2.3279 Cl  0  0  0  0  0  0  0  0  0  0  0  0
   -3.0438    1.4412   -2.7684 H   0  0  0  0  0  0  0  0  0  0  0  0
   -5.0817    0.3757   -3.5466 H   0  0  0  0  0  0  0  0  0  0  0  0
   -5.3020   -1.8973    0.0763 H   0  0  0  0  0  0  0  0  0  0  0  0
   -3.7671   -1.5976    1.7847 H   0  0  0  0  0  0  0  0  0  0  0  0
   -2.7631   -0.1595    1.8563 H   0  0  0  0  0  0  0  0  0  0  0  0
   -1.9513   -2.5574    0.3259 H   0  0  0  0  0  0  0  0  0  0  0  0
    0.2105   -2.7878   -0.0933 H   0  0  0  0  0  0  0  0  0  0  0  0
    1.0289   -4.4986    1.2995 H   0  0  0  0  0  0  0  0  0  0  0  0
   -0.3189   -3.9794    2.3035 H   0  0  0  0  0  0  0  0  0  0  0  0
    2.1587   -3.9691    3.3931 H   0  0  0  0  0  0  0  0  0  0  0  0
    1.1513   -2.5455    3.6415 H   0  0  0  0  0  0  0  0  0  0  0  0
    3.4215   -2.9035    1.6637 H   0  0  0  0  0  0  0  0  0  0  0  0
    3.0025   -1.4846    2.6336 H   0  0  0  0  0  0  0  0  0  0  0  0
    3.8389   -0.3672    1.1810 H   0  0  0  0  0  0  0  0  0  0  0  0
    2.6893    1.9190   -0.2635 H   0  0  0  0  0  0  0  0  0  0  0  0
    2.3064    3.7822    0.8534 H   0  0  0  0  0  0  0  0  0  0  0  0
    2.5974    3.8164    2.5880 H   0  0  0  0  0  0  0  0  0  0  0  0
    0.2241    4.1552    2.1148 H   0  0  0  0  0  0  0  0  0  0  0  0
    0.4698    2.6884    3.0407 H   0  0  0  0  0  0  0  0  0  0  0  0
   -0.4015    1.4316    1.3599 H   0  0  0  0  0  0  0  0  0  0  0  0
   -0.6457    1.5835   -1.8505 H   0  0  0  0  0  0  0  0  0  0  0  0
   -1.9587    2.7071   -1.4746 H   0  0  0  0  0  0  0  0  0  0  0  0
    4.3051   -1.3406   -1.0162 H   0  0  0  0  0  0  0  0  0  0  0  0
    2.7785   -0.0681   -2.4926 H   0  0  0  0  0  0  0  0  0  0  0  0
    3.6371    1.4186   -2.1359 H   0  0  0  0  0  0  0  0  0  0  0  0
    4.8044   -1.0285   -3.5254 H   0  0  0  0  0  0  0  0  0  0  0  0
    4.3985    0.5008   -4.2772 H   0  0  0  0  0  0  0  0  0  0  0  0
    6.8496    0.3288   -3.8081 H   0  0  0  0  0  0  0  0  0  0  0  0
    6.1191    1.6630   -2.9355 H   0  0  0  0  0  0  0  0  0  0  0  0
    6.7708   -1.0895   -1.7881 H   0  0  0  0  0  0  0  0  0  0  0  0
    7.6101    0.4044   -1.4215 H   0  0  0  0  0  0  0  0  0  0  0  0
    5.5897    1.3424   -0.3689 H   0  0  0  0  0  0  0  0  0  0  0  0
    5.9887   -0.1991    0.3668 H   0  0  0  0  0  0  0  0  0  0  0  0
  1  2  2  0
  1  6  1  0
  1  7  1  0
  2  3  1  0
  2 12  1  0
  3  4  2  0
  3 36  1  0
  4  5  1  0
  4 37  1  0
  5  6  2  0
  5 35  1  0
  6 38  1  0
  7  8  1  0
  7 39  1  0
  7 40  1  0
  8  9  1  0
  8 41  1  0
  9 10  1  0
  9 11  2  0
 10 13  1  0
 10 16  1  0
 10 42  1  6
 12 27  1  0
 13 14  1  0
 13 43  1  0
 13 44  1  0
 14 15  1  0
 14 45  1  0
 14 46  1  0
 15 16  1  0
 15 47  1  0
 15 48  1  0
 16 17  1  0
 17 18  1  0
 17 28  2  0
 18 19  1  0
 18 29  1  0
 18 49  1  1
 19 20  1  0
 19 50  1  0
 20 21  2  0
 20 22  1  0
 22 23  1  0
 22 51  1  0
 22 52  1  0
 23 24  1  0
 23 53  1  0
 23 54  1  0
 24 25  1  0
 24 55  1  0
 25 26  2  0
 25 27  1  0
 27 56  1  0
 27 57  1  0
 29 30  1  0
 29 34  1  0
 29 58  1  6
 30 31  1  0
 30 59  1  0
 30 60  1  0
 31 32  1  0
 31 61  1  0
 31 62  1  0
 32 33  1  0
 32 63  1  0
 32 64  1  0
 33 34  1  0
 33 65  1  0
 33 66  1  0
 34 67  1  0
 34 68  1  0
M  END
