
     RDKit          3D

 21 21  0  0  0  0  0  0  0  0999 V2000
    2.8999   -0.0142   -0.0954 C   0  0  0  0  0  0  0  0  0  0  0  0
    3.3599    0.1034    1.0130 O   0  0  0  0  0  0  0  0  0  0  0  0
    3.6530   -0.1412   -1.1838 O   0  0  0  0  0  0  0  0  0  0  0  0
    1.4336   -0.0328   -0.4287 C   0  0  0  0  0  0  0  0  0  0  0  0
    0.5308    0.0403    0.7975 C   0  0  0  0  0  0  0  0  0  0  0  0
   -0.9196    0.0214    0.3985 C   0  0  0  0  0  0  0  0  0  0  0  0
   -1.5711   -1.1842    0.1456 C   0  0  0  0  0  0  0  0  0  0  0  0
   -2.8982   -1.2057   -0.2614 C   0  0  0  0  0  0  0  0  0  0  0  0
   -3.5974   -0.0161   -0.4224 C   0  0  0  0  0  0  0  0  0  0  0  0
   -2.9592    1.1915   -0.1722 C   0  0  0  0  0  0  0  0  0  0  0  0
   -1.6309    1.2074    0.2340 C   0  0  0  0  0  0  0  0  0  0  0  0
    4.5909   -0.1185   -0.9421 H   0  0  0  0  0  0  0  0  0  0  0  0
    1.2294    0.8022   -1.1063 H   0  0  0  0  0  0  0  0  0  0  0  0
    1.2246   -0.9364   -1.0086 H   0  0  0  0  0  0  0  0  0  0  0  0
    0.7428   -0.7999    1.4621 H   0  0  0  0  0  0  0  0  0  0  0  0
    0.7472    0.9501    1.3600 H   0  0  0  0  0  0  0  0  0  0  0  0
   -1.0356   -2.1183    0.2728 H   0  0  0  0  0  0  0  0  0  0  0  0
   -3.3874   -2.1528   -0.4504 H   0  0  0  0  0  0  0  0  0  0  0  0
   -4.6330   -0.0300   -0.7371 H   0  0  0  0  0  0  0  0  0  0  0  0
   -3.4965    2.1237   -0.2922 H   0  0  0  0  0  0  0  0  0  0  0  0
   -1.1427    2.1548    0.4312 H   0  0  0  0  0  0  0  0  0  0  0  0
  1  2  2  0
  1  3  1  0
  1  4  1  0
  3 12  1  0
  4  5  1  0
  4 13  1  0
  4 14  1  0
  5  6  1  0
  5 15  1  0
  5 16  1  0
  6  7  2  0
  6 11  1  0
  7  8  1  0
  7 17  1  0
  8  9  2  0
  8 18  1  0
  9 10  1  0
  9 19  1  0
 10 11  2  0
 10 20  1  0
 11 21  1  0
M  END
