
     RDKit          3D

 50 52  0  0  0  0  0  0  0  0999 V2000
   -1.5457   -2.7548    0.2743 C   0  0  0  0  0  0  0  0  0  0  0  0
    0.8531    2.3661   -1.0418 C   0  0  0  0  0  0  0  0  0  0  0  0
   -0.3773    3.0135   -1.0687 C   0  0  0  0  0  0  0  0  0  0  0  0
    1.0186    1.1951   -0.2702 C   0  0  0  0  0  0  0  0  0  0  0  0
   -2.5083    0.6164    0.8969 C   0  0  0  0  0  0  0  0  0  0  0  0
   -3.9502   -1.0152    1.4292 C   0  0  0  0  0  0  0  0  0  0  0  0
   -2.1804   -1.6101   -0.1872 C   0  0  0  0  0  0  0  0  0  0  0  0
   -0.9432   -3.3288   -1.9802 C   0  0  0  0  0  0  0  0  0  0  0  0
    2.3500    0.5443   -0.2578 C   0  0  0  0  0  0  0  0  0  0  0  0
    5.2408   -0.1373    1.0031 C   0  0  0  0  0  0  0  0  0  0  0  0
    7.7608   -0.2152    1.2461 C   0  0  0  0  0  0  0  0  0  0  0  0
   -1.4755    2.4757   -0.4153 C   0  0  0  0  0  0  0  0  0  0  0  0
   -1.3524    1.2626    0.2834 C   0  0  0  0  0  0  0  0  0  0  0  0
   -0.1074    0.6567    0.3401 C   0  0  0  0  0  0  0  0  0  0  0  0
   -3.3617    1.1614    1.6923 N   0  0  0  0  0  0  0  0  0  0  0  0
   -2.8067   -0.7161    0.7005 N   0  0  0  0  0  0  0  0  0  0  0  0
    1.8469    2.8913   -1.7519 O   0  0  0  0  0  0  0  0  0  0  0  0
   -4.2344    0.1747    2.0098 N   0  0  0  0  0  0  0  0  0  0  0  0
   -2.1955   -1.3509   -1.5503 C   0  0  0  0  0  0  0  0  0  0  0  0
   -1.5756   -2.1880   -2.4545 C   0  0  0  0  0  0  0  0  0  0  0  0
    2.7511   -0.1753    0.7997 N   0  0  0  0  0  0  0  0  0  0  0  0
    3.0805    0.6792   -1.2539 O   0  0  0  0  0  0  0  0  0  0  0  0
    3.9854   -0.9445    0.6945 C   0  0  0  0  0  0  0  0  0  0  0  0
   -0.9316   -3.6162   -0.6217 C   0  0  0  0  0  0  0  0  0  0  0  0
    2.1863   -0.0957    2.1344 C   0  0  0  0  0  0  0  0  0  0  0  0
    6.4906   -1.0093    0.9763 C   0  0  0  0  0  0  0  0  0  0  0  0
   -2.8244   -0.2546   -1.9850 F   0  0  0  0  0  0  0  0  0  0  0  0
   -1.5241   -2.9572    1.3369 H   0  0  0  0  0  0  0  0  0  0  0  0
   -0.4795    3.9243   -1.6482 H   0  0  0  0  0  0  0  0  0  0  0  0
   -0.4564   -3.9946   -2.6799 H   0  0  0  0  0  0  0  0  0  0  0  0
    5.3383    0.6718    0.2756 H   0  0  0  0  0  0  0  0  0  0  0  0
    5.1499    0.3324    1.9881 H   0  0  0  0  0  0  0  0  0  0  0  0
    8.6440   -0.8544    1.2244 H   0  0  0  0  0  0  0  0  0  0  0  0
    7.9014    0.5691    0.5002 H   0  0  0  0  0  0  0  0  0  0  0  0
    7.7252    0.2649    2.2258 H   0  0  0  0  0  0  0  0  0  0  0  0
   -0.0219   -0.2777    0.8776 H   0  0  0  0  0  0  0  0  0  0  0  0
   -2.6504    3.8615   -0.9817 H   0  0  0  0  0  0  0  0  0  0  0  0
    2.5605    2.2129   -1.7918 H   0  0  0  0  0  0  0  0  0  0  0  0
   -5.0116    0.3621    2.6231 H   0  0  0  0  0  0  0  0  0  0  0  0
   -1.5953   -1.9538   -3.5106 H   0  0  0  0  0  0  0  0  0  0  0  0
    4.0530   -1.3771   -0.3037 H   0  0  0  0  0  0  0  0  0  0  0  0
    3.9001   -1.7802    1.3931 H   0  0  0  0  0  0  0  0  0  0  0  0
   -0.4388   -4.5067   -0.2574 H   0  0  0  0  0  0  0  0  0  0  0  0
    1.5997   -0.9823    2.3827 H   0  0  0  0  0  0  0  0  0  0  0  0
    2.9995   -0.0214    2.8560 H   0  0  0  0  0  0  0  0  0  0  0  0
    1.5654    0.7867    2.2541 H   0  0  0  0  0  0  0  0  0  0  0  0
    6.3925   -1.8070    1.7186 H   0  0  0  0  0  0  0  0  0  0  0  0
    6.5674   -1.5055    0.0040 H   0  0  0  0  0  0  0  0  0  0  0  0
   -4.5291   -2.0821    1.5011 O   0  0  0  0  0  0  0  0  0  0  0  0
   -2.6760    3.0546   -0.4532 O   0  0  0  0  0  0  0  0  0  0  0  0
 17  2  1  0
 22  9  2  0
  2  3  2  0
  2  4  1  0
  9  4  1  0
  9 21  1  0
  3 12  1  0
 24  8  1  0
 24  1  2  0
  4 14  2  0
  8 20  2  0
 23 21  1  0
 23 10  1  0
 21 25  1  0
  1  7  1  0
 12 50  1  0
 12 13  2  0
 20 19  1  0
 14 13  1  0
 26 10  1  0
 26 11  1  0
 13  5  1  0
  7 19  2  0
  7 16  1  0
 19 27  1  0
  5 16  1  0
  5 15  2  0
 16  6  1  0
 15 18  1  0
  6 49  2  0
  6 18  1  0
  1 28  1  0
  3 29  1  0
  8 30  1  0
 10 31  1  0
 10 32  1  0
 11 33  1  0
 11 34  1  0
 11 35  1  0
 14 36  1  0
 50 37  1  0
 17 38  1  0
 18 39  1  0
 20 40  1  0
 23 41  1  0
 23 42  1  0
 24 43  1  0
 25 44  1  0
 25 45  1  0
 25 46  1  0
 26 47  1  0
 26 48  1  0
M  END
