
     RDKit          3D

 34 35  0  0  0  0  0  0  0  0999 V2000
    0.1606    0.2133    0.4254 C   0  0  0  0  0  0  0  0  0  0  0  0
    1.3218    0.9745    0.5075 C   0  0  0  0  0  0  0  0  0  0  0  0
    1.2490    2.3375    0.2389 C   0  0  0  0  0  0  0  0  0  0  0  0
    0.0358    2.9203   -0.0992 C   0  0  0  0  0  0  0  0  0  0  0  0
   -1.1145    2.1505   -0.1796 C   0  0  0  0  0  0  0  0  0  0  0  0
   -1.0667    0.7807    0.0827 C   0  0  0  0  0  0  0  0  0  0  0  0
   -4.6032   -1.6115   -0.1432 C   0  0  0  0  0  0  0  0  0  0  0  0
   -3.3824   -2.1201   -0.5617 C   0  0  0  0  0  0  0  0  0  0  0  0
   -2.2291   -1.3551   -0.4921 C   0  0  0  0  0  0  0  0  0  0  0  0
   -2.2861   -0.0510    0.0051 C   0  0  0  0  0  0  0  0  0  0  0  0
   -3.5111    0.4605    0.4268 C   0  0  0  0  0  0  0  0  0  0  0  0
   -4.6666   -0.3121    0.3531 C   0  0  0  0  0  0  0  0  0  0  0  0
   -5.8164    0.2446    0.7839 O   0  0  0  0  0  0  0  0  0  0  0  0
    2.6212    0.3164    0.8725 C   0  0  0  0  0  0  0  0  0  0  0  0
    3.3236   -0.2942   -0.3555 C   0  0  1  0  0  0  0  0  0  0  0  0
    3.6781    0.7375   -1.2947 N   0  0  0  0  0  0  0  0  0  0  0  0
    4.5069   -1.1281    0.1199 C   0  0  0  0  0  0  0  0  0  0  0  0
    4.1187   -2.2612    0.6935 O   0  0  0  0  0  0  0  0  0  0  0  0
    5.6621   -0.8036    0.0059 O   0  0  0  0  0  0  0  0  0  0  0  0
    0.2131   -0.8444    0.6595 H   0  0  0  0  0  0  0  0  0  0  0  0
    2.1409    2.9481    0.3011 H   0  0  0  0  0  0  0  0  0  0  0  0
   -0.0135    3.9811   -0.3084 H   0  0  0  0  0  0  0  0  0  0  0  0
   -2.0499    2.6159   -0.4642 H   0  0  0  0  0  0  0  0  0  0  0  0
   -3.3359   -3.1272   -0.9559 H   0  0  0  0  0  0  0  0  0  0  0  0
   -1.2917   -1.7637   -0.8461 H   0  0  0  0  0  0  0  0  0  0  0  0
   -3.5748    1.4616    0.8368 H   0  0  0  0  0  0  0  0  0  0  0  0
   -6.5471   -0.3755    0.6832 H   0  0  0  0  0  0  0  0  0  0  0  0
    3.2949    1.0408    1.3388 H   0  0  0  0  0  0  0  0  0  0  0  0
    2.4384   -0.4636    1.6137 H   0  0  0  0  0  0  0  0  0  0  0  0
    2.6189   -0.9773   -0.8413 H   0  0  0  0  0  0  0  0  0  0  0  0
    4.3721    1.3560   -0.8934 H   0  0  0  0  0  0  0  0  0  0  0  0
    4.0981    0.3343   -2.1223 H   0  0  0  0  0  0  0  0  0  0  0  0
    4.8881   -2.7553    1.0148 H   0  0  0  0  0  0  0  0  0  0  0  0
   -5.4979   -2.2203   -0.2052 H   0  0  0  0  0  0  0  0  0  0  0  0
  7  8  2  0
  7 12  1  0
  8  9  1  0
 13 12  1  0
 12 11  2  0
  9 10  2  0
 11 10  1  0
 10  6  1  0
  1  6  2  0
  1  2  1  0
  6  5  1  0
 14  2  1  0
 14 15  1  0
 16 15  1  0
  2  3  2  0
 15 17  1  0
  5  4  2  0
  3  4  1  0
 17 19  2  0
 17 18  1  0
  1 20  1  0
  3 21  1  0
  4 22  1  0
  5 23  1  0
  7 34  1  0
  8 24  1  0
  9 25  1  0
 11 26  1  0
 13 27  1  0
 14 28  1  0
 14 29  1  0
 15 30  1  6
 16 31  1  0
 16 32  1  0
 18 33  1  0
M  END
