
     RDKit          3D

 63 67  0  0  0  0  0  0  0  0999 V2000
   -3.4579    0.3799   -0.6146 C   0  0  0  0  0  0  0  0  0  0  0  0
   -2.9371   -0.6586    0.1581 C   0  0  0  0  0  0  0  0  0  0  0  0
   -3.1829   -0.6489    1.5311 C   0  0  0  0  0  0  0  0  0  0  0  0
   -2.1319   -1.7274   -0.4626 C   0  0  0  0  0  0  0  0  0  0  0  0
   -2.4905   -2.2672   -1.7000 C   0  0  0  0  0  0  0  0  0  0  0  0
   -0.5603   -3.7289   -1.6607 C   0  0  0  0  0  0  0  0  0  0  0  0
    0.2261    2.5169   -0.4989 C   0  0  0  0  0  0  0  0  0  0  0  0
    2.3850    1.2549   -0.5930 C   0  0  2  0  0  0  0  0  0  0  0  0
    1.0968    2.0342    1.4479 C   0  0  0  0  0  0  0  0  0  0  0  0
    3.7584    1.8907   -0.3576 C   0  0  1  0  0  0  0  0  0  0  0  0
   -1.7264    3.6768    0.1833 C   0  0  0  0  0  0  0  0  0  0  0  0
   -3.9272    0.3614    2.1211 C   0  0  0  0  0  0  0  0  0  0  0  0
   -4.4286    1.3672    1.3192 C   0  0  0  0  0  0  0  0  0  0  0  0
   -4.2075    1.3955   -0.0433 C   0  0  0  0  0  0  0  0  0  0  0  0
   -1.7239   -3.2537   -2.2878 C   0  0  0  0  0  0  0  0  0  0  0  0
   -0.1905   -3.1899   -0.4318 C   0  0  0  0  0  0  0  0  0  0  0  0
   -0.9871   -2.2047    0.1562 C   0  0  0  0  0  0  0  0  0  0  0  0
   -5.1521    2.3493    1.8830 F   0  0  0  0  0  0  0  0  0  0  0  0
    1.0861   -3.6120    0.2318 C   0  0  0  0  0  0  0  0  0  0  0  0
    1.7562   -2.5844    0.7796 N   0  0  0  0  0  0  0  0  0  0  0  0
    1.4696   -4.7717    0.2621 O   0  0  0  0  0  0  0  0  0  0  0  0
    0.2051   -4.6577   -2.2564 O   0  0  0  0  0  0  0  0  0  0  0  0
   -2.0131   -3.8237   -3.4779 O   0  0  0  0  0  0  0  0  0  0  0  0
    1.2973    1.9118    0.0977 N   0  0  0  0  0  0  0  0  0  0  0  0
   -0.5559    2.9855    0.5438 C   0  0  0  0  0  0  0  0  0  0  0  0
   -0.0310    2.6412   -1.7981 N   0  0  0  0  0  0  0  0  0  0  0  0
    2.4783   -0.0735   -0.1516 O   0  0  0  0  0  0  0  0  0  0  0  0
    0.0063    2.6699    1.7533 N   0  0  0  0  0  0  0  0  0  0  0  0
   -1.1609    3.2932   -2.0122 C   0  0  0  0  0  0  0  0  0  0  0  0
    3.7526   -0.3666    0.4232 C   0  0  1  0  0  0  0  0  0  0  0  0
    4.3408    1.0050    0.7526 C   0  0  1  0  0  0  0  0  0  0  0  0
    4.4937    1.7468   -1.5420 O   0  0  0  0  0  0  0  0  0  0  0  0
   -1.9990    3.8107   -1.1188 N   0  0  0  0  0  0  0  0  0  0  0  0
   -2.5496    4.2198    1.0829 N   0  0  0  0  0  0  0  0  0  0  0  0
    3.5955   -1.2586    1.6417 C   0  0  0  0  0  0  0  0  0  0  0  0
    5.7380    0.9454    0.7502 O   0  0  0  0  0  0  0  0  0  0  0  0
    3.0736   -2.6742    1.3924 C   0  0  1  0  0  0  0  0  0  0  0  0
    3.0383   -3.4470    2.7058 C   0  0  0  0  0  0  0  0  0  0  0  0
   -3.2599    0.4144   -1.6785 H   0  0  0  0  0  0  0  0  0  0  0  0
   -2.8071   -1.4509    2.1539 H   0  0  0  0  0  0  0  0  0  0  0  0
   -3.3896   -1.9276   -2.2026 H   0  0  0  0  0  0  0  0  0  0  0  0
    2.1256    1.2927   -1.6540 H   0  0  0  0  0  0  0  0  0  0  0  0
    1.7883    1.6277    2.1709 H   0  0  0  0  0  0  0  0  0  0  0  0
    3.6693    2.9418   -0.0577 H   0  0  0  0  0  0  0  0  0  0  0  0
   -4.1199    0.3581    3.1859 H   0  0  0  0  0  0  0  0  0  0  0  0
   -4.5929    2.2065   -0.6466 H   0  0  0  0  0  0  0  0  0  0  0  0
   -0.6966   -1.7911    1.1137 H   0  0  0  0  0  0  0  0  0  0  0  0
    1.4462   -1.6581    0.5323 H   0  0  0  0  0  0  0  0  0  0  0  0
   -0.1303   -4.8439   -3.1423 H   0  0  0  0  0  0  0  0  0  0  0  0
   -2.7498   -3.3759   -3.9084 H   0  0  0  0  0  0  0  0  0  0  0  0
   -1.4435    3.4301   -3.0505 H   0  0  0  0  0  0  0  0  0  0  0  0
    4.3824   -0.8657   -0.3246 H   0  0  0  0  0  0  0  0  0  0  0  0
    3.9621    1.3435    1.7259 H   0  0  0  0  0  0  0  0  0  0  0  0
    5.4258    1.6729   -1.3008 H   0  0  0  0  0  0  0  0  0  0  0  0
   -3.4247    4.6161    0.7853 H   0  0  0  0  0  0  0  0  0  0  0  0
   -2.4239    4.0436    2.0642 H   0  0  0  0  0  0  0  0  0  0  0  0
    4.5815   -1.3454    2.1049 H   0  0  0  0  0  0  0  0  0  0  0  0
    2.9521   -0.7605    2.3763 H   0  0  0  0  0  0  0  0  0  0  0  0
    6.0842    1.6903    1.2522 H   0  0  0  0  0  0  0  0  0  0  0  0
    3.7536   -3.1841    0.7002 H   0  0  0  0  0  0  0  0  0  0  0  0
    4.0397   -3.5031    3.1345 H   0  0  0  0  0  0  0  0  0  0  0  0
    2.3881   -2.9494    3.4273 H   0  0  0  0  0  0  0  0  0  0  0  0
    2.6787   -4.4637    2.5631 H   0  0  0  0  0  0  0  0  0  0  0  0
 18 13  1  0
 12 13  2  0
 12  3  1  0
 13 14  1  0
  3  2  2  0
 36 31  1  0
 14  1  2  0
  2  1  1  0
  2  4  1  0
 32 10  1  0
 31 10  1  0
 31 30  1  0
  4 17  1  0
  4  5  2  0
 17 16  2  0
 10  8  1  0
 21 19  2  0
  5 15  1  0
 19 16  1  0
 19 20  1  0
 16  6  1  0
 30 35  1  0
 30 27  1  0
 37 35  1  0
 37 20  1  0
 37 38  1  0
 15  6  2  0
 15 23  1  0
  6 22  1  0
  8 27  1  0
  8 24  1  0
 24  9  1  0
 24  7  1  0
  9 28  2  0
  7 26  2  0
  7 25  1  0
 26 29  1  0
 28 25  1  0
 25 11  2  0
 29 33  2  0
 11 33  1  0
 11 34  1  0
  1 39  1  0
  3 40  1  0
  5 41  1  0
  8 42  1  6
  9 43  1  0
 10 44  1  1
 12 45  1  0
 14 46  1  0
 17 47  1  0
 20 48  1  0
 22 49  1  0
 23 50  1  0
 29 51  1  0
 30 52  1  6
 31 53  1  1
 32 54  1  0
 34 55  1  0
 34 56  1  0
 35 57  1  0
 35 58  1  0
 36 59  1  0
 37 60  1  6
 38 61  1  0
 38 62  1  0
 38 63  1  0
M  END
