
     RDKit          3D

 38 39  0  0  0  0  0  0  0  0999 V2000
   -4.5856    0.1678    0.1125 C   0  0  0  0  0  0  0  0  0  0  0  0
   -3.3645    0.7002   -0.3376 C   0  0  0  0  0  0  0  0  0  0  0  0
   -3.2462    2.0702   -0.5234 C   0  0  0  0  0  0  0  0  0  0  0  0
   -4.3125    2.9172   -0.2482 C   0  0  0  0  0  0  0  0  0  0  0  0
   -5.5142    2.3890    0.1912 C   0  0  0  0  0  0  0  0  0  0  0  0
   -5.6571    1.0169    0.3631 C   0  0  0  0  0  0  0  0  0  0  0  0
   -1.0277   -0.0087   -0.2064 C   0  0  0  0  0  0  0  0  0  0  0  0
   -0.2058   -1.0426   -0.5733 N   0  0  0  0  0  0  0  0  0  0  0  0
    3.3460   -0.2896    0.1524 C   0  0  0  0  0  0  0  0  0  0  0  0
    3.8494   -1.5613    0.3780 C   0  0  0  0  0  0  0  0  0  0  0  0
    2.9916   -2.6414    0.2913 C   0  0  0  0  0  0  0  0  0  0  0  0
    1.6472   -2.4532   -0.0064 C   0  0  0  0  0  0  0  0  0  0  0  0
    3.6421    2.2907    0.4555 O   0  0  0  0  0  0  0  0  0  0  0  0
   -5.8354   -1.7791    0.6507 C   0  0  0  0  0  0  0  0  0  0  0  0
   -4.6202   -1.1705    0.2596 O   0  0  0  0  0  0  0  0  0  0  0  0
   -2.3169   -0.1871   -0.6221 N   0  0  0  0  0  0  0  0  0  0  0  0
   -0.6435    0.9688    0.4092 O   0  0  0  0  0  0  0  0  0  0  0  0
    1.1430   -1.1613   -0.2389 C   0  0  0  0  0  0  0  0  0  0  0  0
    2.0097   -0.0798   -0.1612 C   0  0  0  0  0  0  0  0  0  0  0  0
    4.4402    1.0893    0.2439 S   0  0  1  0  0  0  0  0  0  0  0  0
    5.5113    0.8013    1.1876 O   0  0  0  0  0  0  0  0  0  0  0  0
    5.1424    1.0462   -1.2549 N   0  0  0  0  0  0  0  0  0  0  0  0
   -2.3184    2.4800   -0.8960 H   0  0  0  0  0  0  0  0  0  0  0  0
   -4.2006    3.9833   -0.3924 H   0  0  0  0  0  0  0  0  0  0  0  0
   -6.3541    3.0383    0.4003 H   0  0  0  0  0  0  0  0  0  0  0  0
   -6.6052    0.6256    0.7053 H   0  0  0  0  0  0  0  0  0  0  0  0
   -0.6249   -1.8505   -1.0080 H   0  0  0  0  0  0  0  0  0  0  0  0
    4.8904   -1.7222    0.6216 H   0  0  0  0  0  0  0  0  0  0  0  0
    3.3658   -3.6411    0.4749 H   0  0  0  0  0  0  0  0  0  0  0  0
   -6.1602   -1.4431    1.6386 H   0  0  0  0  0  0  0  0  0  0  0  0
   -6.6355   -1.5877   -0.0686 H   0  0  0  0  0  0  0  0  0  0  0  0
   -5.6450   -2.8486    0.6893 H   0  0  0  0  0  0  0  0  0  0  0  0
   -2.5854   -1.0966   -0.9659 H   0  0  0  0  0  0  0  0  0  0  0  0
    1.6447    0.9168   -0.3537 H   0  0  0  0  0  0  0  0  0  0  0  0
    1.2170   -4.3149    0.0157 H   0  0  0  0  0  0  0  0  0  0  0  0
    4.5027    1.3343   -1.9886 H   0  0  0  0  0  0  0  0  0  0  0  0
    5.9802    1.6210   -1.2839 H   0  0  0  0  0  0  0  0  0  0  0  0
    0.7732   -3.4655   -0.0930 O   0  0  0  0  0  0  0  0  0  0  0  0
  4  5  2  0
  4  3  1  0
  5  6  1  0
  3  2  2  0
 17  7  2  0
  6  1  2  0
  2  1  1  0
  2 16  1  0
  7 16  1  0
  7  8  1  0
  1 15  1  0
  8 18  1  0
 15 14  1  0
 38 12  1  0
 18 12  2  0
 18 19  1  0
 12 11  1  0
 19  9  2  0
 11 10  2  0
  9 10  1  0
  9 20  1  0
 20 22  1  6
 20 21  2  0
 20 13  2  0
  3 23  1  0
  4 24  1  0
  5 25  1  0
  6 26  1  0
  8 27  1  0
 10 28  1  0
 11 29  1  0
 14 30  1  0
 14 31  1  0
 14 32  1  0
 16 33  1  0
 19 34  1  0
 38 35  1  0
 22 36  1  0
 22 37  1  0
M  END
