
     RDKit          3D

 83 85  0  0  0  0  0  0  0  0999 V2000
    0.6018   -5.3104    0.8423 F   0  0  0  0  0  0  0  0  0  0  0  0
   -1.5118   -3.3651   -2.8418 F   0  0  0  0  0  0  0  0  0  0  0  0
   -3.9750    1.3672   -1.5022 C   0  0  0  0  0  0  0  0  0  0  0  0
   -3.9565    0.5004   -0.4165 C   0  0  0  0  0  0  0  0  0  0  0  0
   -2.7457    0.0391    0.0788 C   0  0  0  0  0  0  0  0  0  0  0  0
   -1.5485    0.4690   -0.4826 C   0  0  0  0  0  0  0  0  0  0  0  0
   -1.5874    1.3422   -1.5672 C   0  0  0  0  0  0  0  0  0  0  0  0
   -2.7915    1.7980   -2.0918 C   0  0  0  0  0  0  0  0  0  0  0  0
   -6.0741    0.8344    0.7471 N   0  0  0  0  0  0  0  0  0  0  0  0
   -5.4660   -1.2364    0.0758 O   0  0  0  0  0  0  0  0  0  0  0  0
   -5.7223    2.2036    1.0937 C   0  0  0  0  0  0  0  0  0  0  0  0
   -7.3313    0.3359    1.2860 C   0  0  0  0  0  0  0  0  0  0  0  0
   -7.2057   -0.2272    2.6972 C   0  0  0  0  0  0  0  0  0  0  0  0
   -8.5544   -0.6869    3.2324 C   0  0  0  0  0  0  0  0  0  0  0  0
   -6.4487    3.2617    0.2732 C   0  0  0  0  0  0  0  0  0  0  0  0
   -6.0352    4.6631    0.6993 C   0  0  0  0  0  0  0  0  0  0  0  0
   -2.8122    2.7584   -3.2440 C   0  0  0  0  0  0  0  0  0  0  0  0
    0.8681    0.3163   -0.4740 N   0  0  0  0  0  0  0  0  0  0  0  0
    2.1715   -0.2196   -0.1505 C   0  0  2  0  0  0  0  0  0  0  0  0
    3.1759    0.9411   -0.1305 C   0  0  2  0  0  0  0  0  0  0  0  0
    3.0978    1.7071   -1.3152 O   0  0  0  0  0  0  0  0  0  0  0  0
    1.5216   -2.4298   -1.1274 C   0  0  0  0  0  0  0  0  0  0  0  0
    1.5657   -3.4189   -0.1486 C   0  0  0  0  0  0  0  0  0  0  0  0
    0.5598   -4.3607   -0.1040 C   0  0  0  0  0  0  0  0  0  0  0  0
   -0.4976   -4.3731   -0.9944 C   0  0  0  0  0  0  0  0  0  0  0  0
   -0.5053   -3.3830   -1.9564 C   0  0  0  0  0  0  0  0  0  0  0  0
    0.4778   -2.4176   -2.0469 C   0  0  0  0  0  0  0  0  0  0  0  0
    4.6120    0.4985    0.1569 C   0  0  1  0  0  0  0  0  0  0  0  0
    5.5399    1.7014    0.3612 C   0  0  0  0  0  0  0  0  0  0  0  0
    6.9597    1.2326    0.6418 C   0  0  2  0  0  0  0  0  0  0  0  0
    6.9744    0.2569    1.8143 C   0  0  0  0  0  0  0  0  0  0  0  0
    5.9839   -0.8817    1.5703 C   0  0  0  0  0  0  0  0  0  0  0  0
    4.6353   -0.4285    1.2746 N   0  0  0  0  0  0  0  0  0  0  0  0
    7.7559    2.3760    0.8688 O   0  0  0  0  0  0  0  0  0  0  0  0
    9.1433    2.1702    0.7161 C   0  0  0  0  0  0  0  0  0  0  0  0
    9.8586    3.4899    0.9036 C   0  0  0  0  0  0  0  0  0  0  0  0
   -4.9215    1.7038   -1.9084 H   0  0  0  0  0  0  0  0  0  0  0  0
   -2.7274   -0.6523    0.9105 H   0  0  0  0  0  0  0  0  0  0  0  0
   -0.6792    1.6972   -2.0392 H   0  0  0  0  0  0  0  0  0  0  0  0
   -5.9472    2.3500    2.1548 H   0  0  0  0  0  0  0  0  0  0  0  0
   -4.6452    2.3354    0.9967 H   0  0  0  0  0  0  0  0  0  0  0  0
   -8.0447    1.1631    1.2809 H   0  0  0  0  0  0  0  0  0  0  0  0
   -7.7338   -0.4240    0.6156 H   0  0  0  0  0  0  0  0  0  0  0  0
   -6.5031   -1.0632    2.6931 H   0  0  0  0  0  0  0  0  0  0  0  0
   -6.7855    0.5339    3.3604 H   0  0  0  0  0  0  0  0  0  0  0  0
   -8.4641   -1.0839    4.2434 H   0  0  0  0  0  0  0  0  0  0  0  0
   -9.2715    0.1352    3.2633 H   0  0  0  0  0  0  0  0  0  0  0  0
   -8.9793   -1.4726    2.6054 H   0  0  0  0  0  0  0  0  0  0  0  0
   -6.2322    3.1189   -0.7878 H   0  0  0  0  0  0  0  0  0  0  0  0
   -7.5297    3.1466    0.3853 H   0  0  0  0  0  0  0  0  0  0  0  0
   -6.5598    5.4224    0.1202 H   0  0  0  0  0  0  0  0  0  0  0  0
   -6.2566    4.8384    1.7532 H   0  0  0  0  0  0  0  0  0  0  0  0
   -4.9645    4.8175    0.5555 H   0  0  0  0  0  0  0  0  0  0  0  0
   -2.8171    3.7896   -2.8856 H   0  0  0  0  0  0  0  0  0  0  0  0
   -1.9365    2.6404   -3.8809 H   0  0  0  0  0  0  0  0  0  0  0  0
   -3.7004    2.6263   -3.8605 H   0  0  0  0  0  0  0  0  0  0  0  0
    0.8405    0.9285   -1.2722 H   0  0  0  0  0  0  0  0  0  0  0  0
    2.1261   -0.6436    0.8512 H   0  0  0  0  0  0  0  0  0  0  0  0
    2.8554    1.6170    0.6708 H   0  0  0  0  0  0  0  0  0  0  0  0
    3.5501    1.2399   -2.0259 H   0  0  0  0  0  0  0  0  0  0  0  0
    2.6593   -0.9394   -2.1431 H   0  0  0  0  0  0  0  0  0  0  0  0
    3.5208   -1.7482   -0.8349 H   0  0  0  0  0  0  0  0  0  0  0  0
    2.3673   -3.4412    0.5791 H   0  0  0  0  0  0  0  0  0  0  0  0
   -1.2766   -5.1217   -0.9419 H   0  0  0  0  0  0  0  0  0  0  0  0
    0.4231   -1.6629   -2.8208 H   0  0  0  0  0  0  0  0  0  0  0  0
    4.9762   -0.0585   -0.7188 H   0  0  0  0  0  0  0  0  0  0  0  0
    5.5293    2.3482   -0.5189 H   0  0  0  0  0  0  0  0  0  0  0  0
    5.1752    2.2939    1.2085 H   0  0  0  0  0  0  0  0  0  0  0  0
    7.3273    0.7023   -0.2525 H   0  0  0  0  0  0  0  0  0  0  0  0
    7.9742   -0.1568    1.9709 H   0  0  0  0  0  0  0  0  0  0  0  0
    6.6973    0.7900    2.7302 H   0  0  0  0  0  0  0  0  0  0  0  0
    6.3280   -1.4949    0.7310 H   0  0  0  0  0  0  0  0  0  0  0  0
    5.9488   -1.5403    2.4394 H   0  0  0  0  0  0  0  0  0  0  0  0
    4.2612    0.0360    2.0964 H   0  0  0  0  0  0  0  0  0  0  0  0
    9.5228    1.4393    1.4410 H   0  0  0  0  0  0  0  0  0  0  0  0
    9.3584    1.7638   -0.2821 H   0  0  0  0  0  0  0  0  0  0  0  0
   10.9317    3.3507    0.7736 H   0  0  0  0  0  0  0  0  0  0  0  0
    9.5262    4.2298    0.1744 H   0  0  0  0  0  0  0  0  0  0  0  0
    9.6928    3.8942    1.9028 H   0  0  0  0  0  0  0  0  0  0  0  0
    2.5532   -1.3416   -1.1319 C   0  0  0  0  0  0  0  0  0  0  0  0
   -0.2780   -0.0657    0.1154 C   0  0  0  0  0  0  0  0  0  0  0  0
   -5.2300   -0.0384    0.1635 C   0  0  0  0  0  0  0  0  0  0  0  0
   -0.3137   -0.8047    1.0875 O   0  0  0  0  0  0  0  0  0  0  0  0
  1 24  1  0
  2 26  1  0
  3  4  2  0
  3  8  1  0
  3 37  1  0
  4 82  1  0
  4  5  1  0
  5  6  2  0
  5 38  1  0
  6 81  1  0
  6  7  1  0
  7  8  2  0
  7 39  1  0
  8 17  1  0
 82  9  1  0
 82 10  2  0
  9 12  1  0
  9 11  1  0
 11 15  1  0
 11 40  1  0
 11 41  1  0
 12 13  1  0
 12 42  1  0
 12 43  1  0
 13 14  1  0
 13 44  1  0
 13 45  1  0
 14 46  1  0
 14 47  1  0
 14 48  1  0
 15 16  1  0
 15 49  1  0
 15 50  1  0
 16 51  1  0
 16 52  1  0
 16 53  1  0
 17 54  1  0
 17 55  1  0
 17 56  1  0
 81 83  2  0
 81 18  1  0
 18 19  1  0
 18 57  1  0
 19 80  1  0
 19 20  1  0
 19 58  1  1
 20 21  1  0
 20 28  1  0
 20 59  1  1
 21 60  1  0
 80 22  1  0
 80 61  1  0
 80 62  1  0
 22 27  1  0
 22 23  2  0
 23 24  1  0
 23 63  1  0
 24 25  2  0
 25 26  1  0
 25 64  1  0
 26 27  2  0
 27 65  1  0
 28 29  1  0
 28 33  1  0
 28 66  1  6
 29 30  1  0
 29 67  1  0
 29 68  1  0
 30 34  1  0
 30 31  1  0
 30 69  1  6
 31 32  1  0
 31 70  1  0
 31 71  1  0
 32 33  1  0
 32 72  1  0
 32 73  1  0
 33 74  1  0
 34 35  1  0
 35 36  1  0
 35 75  1  0
 35 76  1  0
 36 77  1  0
 36 78  1  0
 36 79  1  0
M  END
