
     RDKit          3D

 27 26  0  0  0  0  0  0  0  0999 V2000
   -1.0325    0.4700    0.8987 P   0  0  2  0  0  0  0  0  0  0  0  0
   -0.2567   -0.1106   -0.3666 O   0  0  0  0  0  0  0  0  0  0  0  0
   -0.2260   -0.3338    2.0085 O   0  0  0  0  0  0  0  0  0  0  0  0
   -2.5203   -0.1160    0.8649 O   0  0  0  0  0  0  0  0  0  0  0  0
   -1.0919    1.9380    1.0284 O   0  0  0  0  0  0  0  0  0  0  0  0
   -0.5752    0.3773   -1.6740 C   0  0  0  0  0  0  0  0  0  0  0  0
    0.2701   -0.3819   -2.6824 C   0  0  1  0  0  0  0  0  0  0  0  0
   -0.1179    0.0542   -4.0870 C   0  0  0  0  0  0  0  0  0  0  0  0
    0.5903   -0.7291   -5.0144 O   0  0  0  0  0  0  0  0  0  0  0  0
    1.6454   -0.2453   -2.4301 O   0  0  0  0  0  0  0  0  0  0  0  0
   -0.5969   -0.2313    3.3979 C   0  0  0  0  0  0  0  0  0  0  0  0
    0.6083   -0.5726    4.2382 C   0  0  0  0  0  0  0  0  0  0  0  0
    1.6555    0.4232    4.0926 N   0  0  0  0  0  0  0  0  0  0  0  0
   -2.5961   -1.0770    0.7923 H   0  0  0  0  0  0  0  0  0  0  0  0
   -1.6358    0.2213   -1.8888 H   0  0  0  0  0  0  0  0  0  0  0  0
   -0.3718    1.4511   -1.7335 H   0  0  0  0  0  0  0  0  0  0  0  0
    0.0505   -1.4497   -2.5793 H   0  0  0  0  0  0  0  0  0  0  0  0
   -1.2037   -0.0583   -4.2020 H   0  0  0  0  0  0  0  0  0  0  0  0
    0.1030    1.1251   -4.2054 H   0  0  0  0  0  0  0  0  0  0  0  0
    0.3562   -0.4298   -5.8973 H   0  0  0  0  0  0  0  0  0  0  0  0
    1.8984    0.6738   -2.5725 H   0  0  0  0  0  0  0  0  0  0  0  0
   -1.4116   -0.9290    3.6011 H   0  0  0  0  0  0  0  0  0  0  0  0
   -0.9372    0.7814    3.6278 H   0  0  0  0  0  0  0  0  0  0  0  0
    0.9242   -1.5998    4.0090 H   0  0  0  0  0  0  0  0  0  0  0  0
    0.2708   -0.5792    5.2770 H   0  0  0  0  0  0  0  0  0  0  0  0
    2.4157    0.1989    4.7211 H   0  0  0  0  0  0  0  0  0  0  0  0
    2.0494    0.3688    3.1620 H   0  0  0  0  0  0  0  0  0  0  0  0
  1  2  1  6
  1  3  1  0
  1  4  1  0
  1  5  2  0
  2  6  1  0
  3 11  1  0
  4 14  1  0
  6  7  1  0
  6 15  1  0
  6 16  1  0
  7  8  1  0
  7 10  1  0
  7 17  1  6
  8  9  1  0
  8 18  1  0
  8 19  1  0
  9 20  1  0
 10 21  1  0
 11 12  1  0
 11 22  1  0
 11 23  1  0
 12 13  1  0
 12 24  1  0
 12 25  1  0
 13 26  1  0
 13 27  1  0
M  END
