
     RDKit          3D

 31 32  0  0  0  0  0  0  0  0999 V2000
    2.8253   -1.6366    1.6009 N   0  0  0  0  0  0  0  0  0  0  0  0
   -4.3815   -1.8159    0.7380 F   0  0  0  0  0  0  0  0  0  0  0  0
    4.4630   -1.8301   -0.4019 O   0  0  0  0  0  0  0  0  0  0  0  0
    3.1045   -1.4878   -0.0145 S   0  0  1  0  0  0  0  0  0  0  0  0
    2.0071   -2.2003   -0.6664 O   0  0  0  0  0  0  0  0  0  0  0  0
   -5.4259   -0.2833   -0.3507 F   0  0  0  0  0  0  0  0  0  0  0  0
   -3.1592    0.1053    0.1647 C   0  0  0  0  0  0  0  0  0  0  0  0
   -1.8351   -0.2462   -0.0523 C   0  0  0  0  0  0  0  0  0  0  0  0
   -0.8023    0.6141    0.3200 C   0  0  0  0  0  0  0  0  0  0  0  0
    1.6270    0.8809   -0.1211 C   0  0  0  0  0  0  0  0  0  0  0  0
    2.8911    0.2487   -0.2398 C   0  0  0  0  0  0  0  0  0  0  0  0
    4.0038    1.0180   -0.5287 C   0  0  0  0  0  0  0  0  0  0  0  0
   -3.9669   -1.5105   -1.3477 F   0  0  0  0  0  0  0  0  0  0  0  0
   -3.4793    1.3223    0.7506 C   0  0  0  0  0  0  0  0  0  0  0  0
   -2.4490    2.1729    1.1227 C   0  0  0  0  0  0  0  0  0  0  0  0
   -1.1215    1.8337    0.9205 C   0  0  0  0  0  0  0  0  0  0  0  0
    1.5207    2.1956   -0.2553 N   0  0  0  0  0  0  0  0  0  0  0  0
    2.5991    2.9196   -0.5144 C   0  0  0  0  0  0  0  0  0  0  0  0
    3.8665    2.3887   -0.6741 C   0  0  0  0  0  0  0  0  0  0  0  0
    3.5987   -1.3118    2.1722 H   0  0  0  0  0  0  0  0  0  0  0  0
    2.5638   -2.5845    1.8551 H   0  0  0  0  0  0  0  0  0  0  0  0
   -1.5870   -1.1922   -0.5188 H   0  0  0  0  0  0  0  0  0  0  0  0
    0.5727   -0.8372   -0.0467 H   0  0  0  0  0  0  0  0  0  0  0  0
    4.9754    0.5544   -0.6319 H   0  0  0  0  0  0  0  0  0  0  0  0
   -4.5052    1.6155    0.9222 H   0  0  0  0  0  0  0  0  0  0  0  0
   -2.6844    3.1206    1.5880 H   0  0  0  0  0  0  0  0  0  0  0  0
   -0.3456    2.5145    1.2309 H   0  0  0  0  0  0  0  0  0  0  0  0
    2.4388    3.9877   -0.6061 H   0  0  0  0  0  0  0  0  0  0  0  0
    4.7139    3.0203   -0.8948 H   0  0  0  0  0  0  0  0  0  0  0  0
    0.4985    0.1563    0.1180 N   0  0  0  0  0  0  0  0  0  0  0  0
   -4.2341   -0.8695   -0.2028 C   0  0  1  0  0  0  0  0  0  0  0  0
  4  1  1  1
 31  2  1  1
  3  4  2  0
  4  5  2  0
  4 11  1  0
  6 31  1  0
 31  7  1  0
 31 13  1  0
  7  8  2  0
  7 14  1  0
  8  9  1  0
  9 30  1  0
  9 16  2  0
 30 10  1  0
 10 11  2  0
 10 17  1  0
 11 12  1  0
 12 19  2  0
 14 15  2  0
 15 16  1  0
 17 18  2  0
 18 19  1  0
  1 20  1  0
  1 21  1  0
  8 22  1  0
 30 23  1  0
 12 24  1  0
 14 25  1  0
 15 26  1  0
 16 27  1  0
 18 28  1  0
 19 29  1  0
M  END
