
     RDKit          3D

 62 64  0  0  0  0  0  0  0  0999 V2000
   -4.1275    0.6067    0.2298 C   0  0  0  0  0  0  0  0  0  0  0  0
   -3.3520    1.7598    0.1313 C   0  0  0  0  0  0  0  0  0  0  0  0
   -2.0176    1.5965   -0.2862 C   0  0  0  0  0  0  0  0  0  0  0  0
   -1.4694    0.3274   -0.4989 C   0  0  0  0  0  0  0  0  0  0  0  0
   -2.2875   -0.7880   -0.3713 C   0  0  0  0  0  0  0  0  0  0  0  0
   -3.6260   -0.6678   -0.0241 C   0  0  0  0  0  0  0  0  0  0  0  0
   -4.4610   -1.8726    0.1330 C   0  0  0  0  0  0  0  0  0  0  0  0
   -3.9985   -2.9698    0.8066 C   0  0  0  0  0  0  0  0  0  0  0  0
   -4.7627   -4.1491    0.9492 C   0  0  0  0  0  0  0  0  0  0  0  0
   -5.9983   -4.1718    0.3918 C   0  0  0  0  0  0  0  0  0  0  0  0
   -6.4616   -3.0917   -0.2749 N   0  0  0  0  0  0  0  0  0  0  0  0
   -5.7848   -1.9031   -0.4609 C   0  0  0  0  0  0  0  0  0  0  0  0
   -6.3102   -0.9911   -1.0935 O   0  0  0  0  0  0  0  0  0  0  0  0
   -0.0033    0.1189   -0.7693 C   0  0  0  0  0  0  0  0  0  0  0  0
    0.8446    0.2626    0.5052 C   0  0  0  0  0  0  0  0  0  0  0  0
    2.3002    0.0338    0.2153 C   0  0  0  0  0  0  0  0  0  0  0  0
    3.1836    1.1013    0.0808 C   0  0  0  0  0  0  0  0  0  0  0  0
    4.5128    0.8989   -0.2597 C   0  0  0  0  0  0  0  0  0  0  0  0
    4.9850   -0.3920   -0.4607 C   0  0  0  0  0  0  0  0  0  0  0  0
    4.1176   -1.4710   -0.3191 C   0  0  0  0  0  0  0  0  0  0  0  0
    2.7888   -1.2546    0.0073 C   0  0  0  0  0  0  0  0  0  0  0  0
    6.3380   -0.5972   -0.8419 N   0  0  0  0  0  0  0  0  0  0  0  0
    7.5369   -0.5067    0.3051 S   0  0  1  0  0  0  0  0  0  0  0  0
    8.7827   -0.7272   -0.4101 O   0  0  0  0  0  0  0  0  0  0  0  0
    7.3375    0.7285    1.0435 O   0  0  0  0  0  0  0  0  0  0  0  0
    7.2675   -1.8656    1.4187 C   0  0  0  0  0  0  0  0  0  0  0  0
   -1.2144    2.6911   -0.4396 O   0  0  0  0  0  0  0  0  0  0  0  0
   -0.9759    3.1005   -1.7798 C   0  0  0  0  0  0  0  0  0  0  0  0
   -3.9399    3.1168    0.5460 C   0  0  1  0  0  0  0  0  0  0  0  0
   -5.3994    2.9797    0.9990 C   0  0  0  0  0  0  0  0  0  0  0  0
   -3.1485    3.6790    1.7370 C   0  0  0  0  0  0  0  0  0  0  0  0
   -3.9360    4.1352   -0.6023 C   0  0  0  0  0  0  0  0  0  0  0  0
   -5.1585    0.6911    0.5335 H   0  0  0  0  0  0  0  0  0  0  0  0
   -1.8660   -1.7689   -0.5618 H   0  0  0  0  0  0  0  0  0  0  0  0
   -3.0151   -2.9315    1.2602 H   0  0  0  0  0  0  0  0  0  0  0  0
   -4.3861   -5.0036    1.4895 H   0  0  0  0  0  0  0  0  0  0  0  0
   -6.6658   -5.0190    0.4429 H   0  0  0  0  0  0  0  0  0  0  0  0
   -7.3840   -3.1430   -0.6859 H   0  0  0  0  0  0  0  0  0  0  0  0
    0.1378   -0.8862   -1.1728 H   0  0  0  0  0  0  0  0  0  0  0  0
    0.3849    0.7983   -1.5283 H   0  0  0  0  0  0  0  0  0  0  0  0
    0.7018    1.2594    0.9251 H   0  0  0  0  0  0  0  0  0  0  0  0
    0.4908   -0.4532    1.2518 H   0  0  0  0  0  0  0  0  0  0  0  0
    2.8257    2.1127    0.2328 H   0  0  0  0  0  0  0  0  0  0  0  0
    5.1759    1.7434   -0.3865 H   0  0  0  0  0  0  0  0  0  0  0  0
    4.4800   -2.4804   -0.4726 H   0  0  0  0  0  0  0  0  0  0  0  0
    2.1228   -2.1038    0.1047 H   0  0  0  0  0  0  0  0  0  0  0  0
    6.4865   -1.3739   -1.4783 H   0  0  0  0  0  0  0  0  0  0  0  0
    6.2868   -1.7670    1.8792 H   0  0  0  0  0  0  0  0  0  0  0  0
    7.3328   -2.7998    0.8659 H   0  0  0  0  0  0  0  0  0  0  0  0
    8.0401   -1.8298    2.1848 H   0  0  0  0  0  0  0  0  0  0  0  0
   -0.2284    2.4784   -2.2756 H   0  0  0  0  0  0  0  0  0  0  0  0
   -1.8879    3.0814   -2.3797 H   0  0  0  0  0  0  0  0  0  0  0  0
   -0.6023    4.1226   -1.7429 H   0  0  0  0  0  0  0  0  0  0  0  0
   -5.5123    2.3092    1.8522 H   0  0  0  0  0  0  0  0  0  0  0  0
   -5.7712    3.9584    1.3054 H   0  0  0  0  0  0  0  0  0  0  0  0
   -6.0483    2.6234    0.1967 H   0  0  0  0  0  0  0  0  0  0  0  0
   -2.1127    3.8902    1.4810 H   0  0  0  0  0  0  0  0  0  0  0  0
   -3.6048    4.6120    2.0754 H   0  0  0  0  0  0  0  0  0  0  0  0
   -3.1553    2.9815    2.5768 H   0  0  0  0  0  0  0  0  0  0  0  0
   -4.4280    3.7369   -1.4916 H   0  0  0  0  0  0  0  0  0  0  0  0
   -4.4843    5.0284   -0.2953 H   0  0  0  0  0  0  0  0  0  0  0  0
   -2.9370    4.4582   -0.8784 H   0  0  0  0  0  0  0  0  0  0  0  0
 24 23  2  0
 23 26  1  0
 23 25  2  0
 23 22  1  6
 22 19  1  0
 19 18  1  0
 19 20  2  0
 18 17  2  0
 20 21  1  0
 17 16  1  0
 21 16  2  0
 16 15  1  0
 15 14  1  0
 14  4  1  0
 28 27  1  0
  4  5  2  0
  4  3  1  0
 27  3  1  0
  5  6  1  0
  3  2  2  0
 13 12  2  0
  6  7  1  0
  6  1  2  0
  2  1  1  0
  2 29  1  0
 12  7  1  0
 12 11  1  0
  7  8  2  0
 29 32  1  6
 31 29  1  0
 11 10  1  0
 29 30  1  0
  8  9  1  0
 10  9  2  0
  1 33  1  0
  5 34  1  0
  8 35  1  0
  9 36  1  0
 10 37  1  0
 11 38  1  0
 14 39  1  0
 14 40  1  0
 15 41  1  0
 15 42  1  0
 17 43  1  0
 18 44  1  0
 20 45  1  0
 21 46  1  0
 22 47  1  0
 26 48  1  0
 26 49  1  0
 26 50  1  0
 28 51  1  0
 28 52  1  0
 28 53  1  0
 30 54  1  0
 30 55  1  0
 30 56  1  0
 31 57  1  0
 31 58  1  0
 31 59  1  0
 32 60  1  0
 32 61  1  0
 32 62  1  0
M  END
