
     RDKit          3D

 70 75  0  0  0  0  0  0  0  0999 V2000
    1.9950    0.0482    0.1423 C   0  0  0  0  0  0  0  0  0  0  0  0
    1.9847    1.4413    0.2952 C   0  0  0  0  0  0  0  0  0  0  0  0
    0.7353    2.0116    0.3791 C   0  0  0  0  0  0  0  0  0  0  0  0
    4.0224    0.8675    0.2144 C   0  0  0  0  0  0  0  0  0  0  0  0
   -0.3607    1.2543    0.3161 N   0  0  0  0  0  0  0  0  0  0  0  0
    0.9414   -0.7270    0.0733 N   0  0  0  0  0  0  0  0  0  0  0  0
   -7.7482   -1.1263    0.1377 C   0  0  0  0  0  0  0  0  0  0  0  0
   -9.1793   -0.7915    0.5469 C   0  0  0  0  0  0  0  0  0  0  0  0
   -9.7307    0.3708   -0.1225 N   0  0  0  0  0  0  0  0  0  0  0  0
  -10.0893    0.1316   -1.5062 C   0  0  0  0  0  0  0  0  0  0  0  0
   -8.8329    1.4942    0.0634 C   0  0  0  0  0  0  0  0  0  0  0  0
   -7.3956    1.2125   -0.3536 C   0  0  0  0  0  0  0  0  0  0  0  0
   -6.8868    0.0263    0.3290 N   0  0  0  0  0  0  0  0  0  0  0  0
   -5.5054   -0.1879    0.2476 C   0  0  0  0  0  0  0  0  0  0  0  0
   -4.6073    0.8470    0.5319 C   0  0  0  0  0  0  0  0  0  0  0  0
   -3.2342    0.6763    0.4832 C   0  0  0  0  0  0  0  0  0  0  0  0
   -4.9444   -1.4254   -0.0842 C   0  0  0  0  0  0  0  0  0  0  0  0
   -3.5713   -1.6062   -0.1222 C   0  0  0  0  0  0  0  0  0  0  0  0
   -2.6844   -0.5649    0.1521 C   0  0  0  0  0  0  0  0  0  0  0  0
   -0.2207   -0.0605    0.1670 C   0  0  0  0  0  0  0  0  0  0  0  0
    3.2707    1.9246    0.3394 N   0  0  0  0  0  0  0  0  0  0  0  0
    3.3095   -0.3151    0.0823 N   0  0  0  0  0  0  0  0  0  0  0  0
    3.7648   -1.6845   -0.1463 C   0  0  2  0  0  0  0  0  0  0  0  0
    4.4794   -2.2826    1.0633 C   0  0  0  0  0  0  0  0  0  0  0  0
    4.8185   -3.7470    0.7996 C   0  0  0  0  0  0  0  0  0  0  0  0
    5.6304   -3.9126   -0.4799 C   0  0  0  0  0  0  0  0  0  0  0  0
    4.9072   -3.3043   -1.6762 C   0  0  0  0  0  0  0  0  0  0  0  0
    4.5653   -1.8359   -1.4391 C   0  0  0  0  0  0  0  0  0  0  0  0
    5.3780    0.8482    0.2093 N   0  0  0  0  0  0  0  0  0  0  0  0
    6.2658    1.9234    0.1857 C   0  0  0  0  0  0  0  0  0  0  0  0
    7.6217    1.6202    0.3443 C   0  0  0  0  0  0  0  0  0  0  0  0
    8.5764    2.6205    0.3015 C   0  0  0  0  0  0  0  0  0  0  0  0
    8.2021    3.9440    0.1024 C   0  0  0  0  0  0  0  0  0  0  0  0
    6.8572    4.2433   -0.0539 C   0  0  0  0  0  0  0  0  0  0  0  0
    5.8856    3.2512   -0.0142 C   0  0  0  0  0  0  0  0  0  0  0  0
    0.5911    3.0800    0.4983 H   0  0  0  0  0  0  0  0  0  0  0  0
   -1.1018   -1.8294   -0.0639 H   0  0  0  0  0  0  0  0  0  0  0  0
   -7.7254   -1.4865   -0.9033 H   0  0  0  0  0  0  0  0  0  0  0  0
   -9.8178   -1.6573    0.3583 H   0  0  0  0  0  0  0  0  0  0  0  0
   -9.1984   -0.6072    1.6263 H   0  0  0  0  0  0  0  0  0  0  0  0
  -10.8467   -0.6524   -1.5567 H   0  0  0  0  0  0  0  0  0  0  0  0
  -10.5265    1.0373   -1.9293 H   0  0  0  0  0  0  0  0  0  0  0  0
   -9.2635   -0.1695   -2.1656 H   0  0  0  0  0  0  0  0  0  0  0  0
   -9.2067    2.3559   -0.4939 H   0  0  0  0  0  0  0  0  0  0  0  0
   -8.8393    1.7687    1.1235 H   0  0  0  0  0  0  0  0  0  0  0  0
   -7.3250    1.0925   -1.4453 H   0  0  0  0  0  0  0  0  0  0  0  0
   -6.7936    2.0814   -0.0940 H   0  0  0  0  0  0  0  0  0  0  0  0
   -4.9776    1.8221    0.8212 H   0  0  0  0  0  0  0  0  0  0  0  0
   -2.5931    1.5123    0.7103 H   0  0  0  0  0  0  0  0  0  0  0  0
   -5.5682   -2.2740   -0.3285 H   0  0  0  0  0  0  0  0  0  0  0  0
   -3.1848   -2.5837   -0.3886 H   0  0  0  0  0  0  0  0  0  0  0  0
    2.8363   -2.2470   -0.2753 H   0  0  0  0  0  0  0  0  0  0  0  0
    5.4061   -1.7453    1.2923 H   0  0  0  0  0  0  0  0  0  0  0  0
    3.8418   -2.1907    1.9450 H   0  0  0  0  0  0  0  0  0  0  0  0
    5.3641   -4.1531    1.6534 H   0  0  0  0  0  0  0  0  0  0  0  0
    3.8911   -4.3242    0.7229 H   0  0  0  0  0  0  0  0  0  0  0  0
    6.6041   -3.4262   -0.3564 H   0  0  0  0  0  0  0  0  0  0  0  0
    5.8327   -4.9701   -0.6621 H   0  0  0  0  0  0  0  0  0  0  0  0
    5.5175   -3.3924   -2.5772 H   0  0  0  0  0  0  0  0  0  0  0  0
    3.9849   -3.8623   -1.8689 H   0  0  0  0  0  0  0  0  0  0  0  0
    3.9827   -1.4385   -2.2730 H   0  0  0  0  0  0  0  0  0  0  0  0
    5.4908   -1.2540   -1.4051 H   0  0  0  0  0  0  0  0  0  0  0  0
    5.8136   -0.0507    0.3301 H   0  0  0  0  0  0  0  0  0  0  0  0
    7.9298    0.5926    0.5015 H   0  0  0  0  0  0  0  0  0  0  0  0
    9.6196    2.3608    0.4259 H   0  0  0  0  0  0  0  0  0  0  0  0
    8.9478    4.7266    0.0700 H   0  0  0  0  0  0  0  0  0  0  0  0
    6.5466    5.2683   -0.2113 H   0  0  0  0  0  0  0  0  0  0  0  0
    4.8457    3.5093   -0.1341 H   0  0  0  0  0  0  0  0  0  0  0  0
   -1.3237   -0.8586    0.0934 N   0  0  0  0  0  0  0  0  0  0  0  0
   -7.4000   -1.9487    0.7655 H   0  0  0  0  0  0  0  0  0  0  0  0
 33 34  2  0
 33 32  1  0
 34 35  1  0
 32 31  2  0
 35 30  2  0
 31 30  1  0
 30 29  1  0
 29  4  1  0
  4 21  2  0
  4 22  1  0
 21  2  1  0
 22 23  1  0
 22  1  1  0
  2  3  2  0
  2  1  1  0
 23 24  1  0
 23 28  1  0
 24 25  1  0
 25 26  1  0
  3  5  1  0
  1  6  2  0
 28 27  1  0
 26 27  1  0
  5 20  2  0
  6 20  1  0
 20 69  1  0
 69 19  1  0
 18 19  2  0
 18 17  1  0
 19 16  1  0
 17 14  2  0
 16 15  2  0
 14 15  1  0
 14 13  1  0
  7 13  1  0
  7  8  1  0
 13 12  1  0
  8  9  1  0
 12 11  1  0
  9 11  1  0
  9 10  1  0
  3 36  1  0
 69 37  1  0
  7 70  1  0
  7 38  1  0
  8 39  1  0
  8 40  1  0
 10 41  1  0
 10 42  1  0
 10 43  1  0
 11 44  1  0
 11 45  1  0
 12 46  1  0
 12 47  1  0
 15 48  1  0
 16 49  1  0
 17 50  1  0
 18 51  1  0
 23 52  1  6
 24 53  1  0
 24 54  1  0
 25 55  1  0
 25 56  1  0
 26 57  1  0
 26 58  1  0
 27 59  1  0
 27 60  1  0
 28 61  1  0
 28 62  1  0
 29 63  1  0
 31 64  1  0
 32 65  1  0
 33 66  1  0
 34 67  1  0
 35 68  1  0
M  END
