
     RDKit          3D

 46 48  0  0  0  0  0  0  0  0999 V2000
   -2.0494   -1.2543    0.9994 C   0  0  0  0  0  0  0  0  0  0  0  0
   -3.1669   -0.4399    1.1117 C   0  0  0  0  0  0  0  0  0  0  0  0
   -3.6671    0.1739   -0.0254 C   0  0  0  0  0  0  0  0  0  0  0  0
   -3.0822   -0.0209   -1.2700 C   0  0  0  0  0  0  0  0  0  0  0  0
   -1.9842   -0.8557   -1.3746 C   0  0  0  0  0  0  0  0  0  0  0  0
   -1.4560   -1.4659   -0.2403 C   0  0  0  0  0  0  0  0  0  0  0  0
   -0.3440   -2.4592   -0.4004 C   0  0  0  0  0  0  0  0  0  0  0  0
   -0.5148   -3.4064   -1.1544 O   0  0  0  0  0  0  0  0  0  0  0  0
    0.7665   -2.2822    0.3408 N   0  0  0  0  0  0  0  0  0  0  0  0
    1.1681   -1.0231    0.9456 C   0  0  0  0  0  0  0  0  0  0  0  0
    2.3986   -0.4558    0.2419 C   0  0  2  0  0  0  0  0  0  0  0  0
    3.4509   -1.4528    0.2528 N   0  0  0  0  0  0  0  0  0  0  0  0
    3.0484   -2.6800   -0.4090 C   0  0  0  0  0  0  0  0  0  0  0  0
    1.8413   -3.2621    0.3028 C   0  0  0  0  0  0  0  0  0  0  0  0
   -5.1060    1.2015    0.0923 S   0  0  1  0  0  0  0  0  0  0  0  0
   -5.8921    1.0596   -1.1236 O   0  0  0  0  0  0  0  0  0  0  0  0
   -5.7402    0.9295    1.3743 O   0  0  0  0  0  0  0  0  0  0  0  0
   -4.4347    2.7099    0.0254 N   0  0  0  0  0  0  0  0  0  0  0  0
    2.8532    0.8185    0.9552 C   0  0  0  0  0  0  0  0  0  0  0  0
    4.0531    1.4514    0.3071 C   0  0  0  0  0  0  0  0  0  0  0  0
    3.9154    2.2057   -0.8579 C   0  0  0  0  0  0  0  0  0  0  0  0
    5.0230    2.7648   -1.4790 C   0  0  0  0  0  0  0  0  0  0  0  0
    6.2919    2.5782   -0.9438 C   0  0  0  0  0  0  0  0  0  0  0  0
    6.4421    1.8301    0.2153 C   0  0  0  0  0  0  0  0  0  0  0  0
    5.3302    1.2714    0.8335 C   0  0  0  0  0  0  0  0  0  0  0  0
   -1.6560   -1.7359    1.8854 H   0  0  0  0  0  0  0  0  0  0  0  0
   -3.6335   -0.2981    2.0766 H   0  0  0  0  0  0  0  0  0  0  0  0
   -3.4802    0.4589   -2.1540 H   0  0  0  0  0  0  0  0  0  0  0  0
   -1.5360   -1.0276   -2.3442 H   0  0  0  0  0  0  0  0  0  0  0  0
    0.3609   -0.2970    0.8916 H   0  0  0  0  0  0  0  0  0  0  0  0
    1.3969   -1.1926    2.0026 H   0  0  0  0  0  0  0  0  0  0  0  0
    2.0917   -0.1896   -0.7855 H   0  0  0  0  0  0  0  0  0  0  0  0
    4.2788   -1.0826   -0.1974 H   0  0  0  0  0  0  0  0  0  0  0  0
    2.7960   -2.5344   -1.4707 H   0  0  0  0  0  0  0  0  0  0  0  0
    3.8705   -3.3961   -0.3654 H   0  0  0  0  0  0  0  0  0  0  0  0
    2.1078   -3.5158    1.3325 H   0  0  0  0  0  0  0  0  0  0  0  0
    1.4982   -4.1665   -0.1912 H   0  0  0  0  0  0  0  0  0  0  0  0
   -4.0132    2.9904    0.9049 H   0  0  0  0  0  0  0  0  0  0  0  0
   -5.1164    3.4022   -0.2715 H   0  0  0  0  0  0  0  0  0  0  0  0
    2.0197    1.5259    0.9611 H   0  0  0  0  0  0  0  0  0  0  0  0
    3.0764    0.5772    1.9977 H   0  0  0  0  0  0  0  0  0  0  0  0
    2.9296    2.3623   -1.2809 H   0  0  0  0  0  0  0  0  0  0  0  0
    4.8957    3.3517   -2.3796 H   0  0  0  0  0  0  0  0  0  0  0  0
    7.1562    3.0172   -1.4252 H   0  0  0  0  0  0  0  0  0  0  0  0
    7.4257    1.6816    0.6422 H   0  0  0  0  0  0  0  0  0  0  0  0
    5.4553    0.6905    1.7396 H   0  0  0  0  0  0  0  0  0  0  0  0
 12 11  1  0
 12 13  1  0
 19 11  1  0
 19 20  1  0
 11 10  1  0
 13 14  1  0
 20 21  2  0
 20 25  1  0
 21 22  1  0
 10  9  1  0
 14  9  1  0
 25 24  2  0
 22 23  2  0
  9  7  1  0
 24 23  1  0
  7  8  2  0
  7  6  1  0
  5  6  1  0
  5  4  2  0
  6  1  2  0
  4  3  1  0
  1  2  1  0
  3  2  2  0
  3 15  1  0
 15 18  1  1
 15 17  2  0
 15 16  2  0
  1 26  1  0
  2 27  1  0
  4 28  1  0
  5 29  1  0
 10 30  1  0
 10 31  1  0
 11 32  1  6
 12 33  1  0
 13 34  1  0
 13 35  1  0
 14 36  1  0
 14 37  1  0
 18 38  1  0
 18 39  1  0
 19 40  1  0
 19 41  1  0
 21 42  1  0
 22 43  1  0
 23 44  1  0
 24 45  1  0
 25 46  1  0
M  END
