
     RDKit          3D

 84 86  0  0  0  0  0  0  0  0999 V2000
   -2.2298    3.9029   -5.8002 C   0  0  0  0  0  0  0  0  0  0  0  0
   -1.0300    3.1335   -5.2558 C   0  0  0  0  0  0  0  0  0  0  0  0
   -1.3390    1.6515   -5.0372 C   0  0  1  0  0  0  0  0  0  0  0  0
   -1.8735    1.0398   -6.3341 C   0  0  0  0  0  0  0  0  0  0  0  0
   -3.0789    1.8017   -6.8778 C   0  0  0  0  0  0  0  0  0  0  0  0
   -2.7570    3.2768   -7.0866 C   0  0  0  0  0  0  0  0  0  0  0  0
   -0.1086    0.9150   -4.5077 C   0  0  0  0  0  0  0  0  0  0  0  0
   -0.3982   -0.4933   -4.0056 C   0  0  0  0  0  0  0  0  0  0  0  0
    0.8057   -1.1869   -3.5670 N   0  0  0  0  0  0  0  0  0  0  0  0
    1.5422   -1.7637   -4.6802 C   0  0  0  0  0  0  0  0  0  0  0  0
    3.0178   -1.9892   -4.3814 C   0  0  0  0  0  0  0  0  0  0  0  0
    3.7649   -2.5592   -5.5818 C   0  0  0  0  0  0  0  0  0  0  0  0
    5.2384   -2.8113   -5.2948 C   0  0  0  0  0  0  0  0  0  0  0  0
    0.5173   -2.1525   -2.5309 C   0  0  0  0  0  0  0  0  0  0  0  0
    0.2273   -1.5072   -1.1999 C   0  0  0  0  0  0  0  0  0  0  0  0
   -0.6255   -2.1153   -0.2873 C   0  0  0  0  0  0  0  0  0  0  0  0
   -0.8529   -1.5385    0.9514 C   0  0  0  0  0  0  0  0  0  0  0  0
   -0.2445   -0.3361    1.3062 C   0  0  0  0  0  0  0  0  0  0  0  0
    0.6114    0.2914    0.3927 C   0  0  0  0  0  0  0  0  0  0  0  0
    0.8356   -0.3089   -0.8408 C   0  0  0  0  0  0  0  0  0  0  0  0
    1.3218    1.5624    0.6853 C   0  0  0  0  0  0  0  0  0  0  0  0
    2.4294    1.5867    1.5399 C   0  0  0  0  0  0  0  0  0  0  0  0
    3.0869    2.7991    1.7380 C   0  0  0  0  0  0  0  0  0  0  0  0
    2.6689    3.9626    1.1077 C   0  0  0  0  0  0  0  0  0  0  0  0
    1.5810    3.9261    0.2472 C   0  0  0  0  0  0  0  0  0  0  0  0
    0.9176    2.7262    0.0389 C   0  0  0  0  0  0  0  0  0  0  0  0
   -0.5915    0.3094    2.6057 C   0  0  0  0  0  0  0  0  0  0  0  0
   -1.1908   -0.0668    4.9326 C   0  0  1  0  0  0  0  0  0  0  0  0
   -0.7640    1.5116    2.7174 O   0  0  0  0  0  0  0  0  0  0  0  0
   -0.1222    0.6980    5.6996 C   0  0  0  0  0  0  0  0  0  0  0  0
    1.1036    0.2884    5.4244 O   0  0  0  0  0  0  0  0  0  0  0  0
   -0.3853    1.5510    6.5087 O   0  0  0  0  0  0  0  0  0  0  0  0
   -0.7512   -0.5369    3.6469 N   0  0  0  0  0  0  0  0  0  0  0  0
   -1.6851   -1.2394    5.7872 C   0  0  0  0  0  0  0  0  0  0  0  0
   -2.9207   -1.8901    5.1813 C   0  0  0  0  0  0  0  0  0  0  0  0
   -3.4636   -3.2567    6.2439 S   0  0  0  0  0  0  0  0  0  0  0  0
   -4.8643   -3.8585    5.2766 C   0  0  0  0  0  0  0  0  0  0  0  0
    2.9239    0.3422    2.2187 C   0  0  0  0  0  0  0  0  0  0  0  0
   -3.0274    3.9057   -5.0489 H   0  0  0  0  0  0  0  0  0  0  0  0
   -1.9596    4.9487   -5.9679 H   0  0  0  0  0  0  0  0  0  0  0  0
   -0.6915    3.5844   -4.3182 H   0  0  0  0  0  0  0  0  0  0  0  0
   -0.1943    3.2190   -5.9620 H   0  0  0  0  0  0  0  0  0  0  0  0
   -2.1319    1.5826   -4.2777 H   0  0  0  0  0  0  0  0  0  0  0  0
   -1.0708    1.0504   -7.0824 H   0  0  0  0  0  0  0  0  0  0  0  0
   -2.1415   -0.0091   -6.1859 H   0  0  0  0  0  0  0  0  0  0  0  0
   -3.9117    1.7113   -6.1710 H   0  0  0  0  0  0  0  0  0  0  0  0
   -3.4152    1.3478   -7.8133 H   0  0  0  0  0  0  0  0  0  0  0  0
   -3.6420    3.8152   -7.4356 H   0  0  0  0  0  0  0  0  0  0  0  0
   -2.0017    3.3756   -7.8748 H   0  0  0  0  0  0  0  0  0  0  0  0
    0.3240    1.4819   -3.6765 H   0  0  0  0  0  0  0  0  0  0  0  0
    0.6547    0.8922   -5.2938 H   0  0  0  0  0  0  0  0  0  0  0  0
   -0.9313   -1.0843   -4.7665 H   0  0  0  0  0  0  0  0  0  0  0  0
   -1.0833   -0.4128   -3.1571 H   0  0  0  0  0  0  0  0  0  0  0  0
    1.4738   -1.0731   -5.5245 H   0  0  0  0  0  0  0  0  0  0  0  0
    1.0799   -2.7059   -5.0214 H   0  0  0  0  0  0  0  0  0  0  0  0
    3.1407   -2.6687   -3.5321 H   0  0  0  0  0  0  0  0  0  0  0  0
    3.4663   -1.0370   -4.0828 H   0  0  0  0  0  0  0  0  0  0  0  0
    3.6713   -1.8701   -6.4268 H   0  0  0  0  0  0  0  0  0  0  0  0
    3.2879   -3.4923   -5.8966 H   0  0  0  0  0  0  0  0  0  0  0  0
    5.7561   -3.2001   -6.1724 H   0  0  0  0  0  0  0  0  0  0  0  0
    5.7456   -1.8923   -4.9948 H   0  0  0  0  0  0  0  0  0  0  0  0
    5.3667   -3.5359   -4.4885 H   0  0  0  0  0  0  0  0  0  0  0  0
   -0.3167   -2.8240   -2.7954 H   0  0  0  0  0  0  0  0  0  0  0  0
    1.3847   -2.8060   -2.4011 H   0  0  0  0  0  0  0  0  0  0  0  0
   -1.1272   -3.0401   -0.5463 H   0  0  0  0  0  0  0  0  0  0  0  0
   -1.5473   -2.0182    1.6302 H   0  0  0  0  0  0  0  0  0  0  0  0
    1.4985    0.1721   -1.5492 H   0  0  0  0  0  0  0  0  0  0  0  0
    3.9508    2.8293    2.3918 H   0  0  0  0  0  0  0  0  0  0  0  0
    3.1997    4.8904    1.2789 H   0  0  0  0  0  0  0  0  0  0  0  0
    1.2524    4.8233   -0.2612 H   0  0  0  0  0  0  0  0  0  0  0  0
    0.0686    2.6892   -0.6331 H   0  0  0  0  0  0  0  0  0  0  0  0
   -2.0178    0.6327    4.7911 H   0  0  0  0  0  0  0  0  0  0  0  0
    1.7491    0.7786    5.9566 H   0  0  0  0  0  0  0  0  0  0  0  0
   -0.4061   -1.4811    3.5727 H   0  0  0  0  0  0  0  0  0  0  0  0
   -0.8853   -1.9764    5.9047 H   0  0  0  0  0  0  0  0  0  0  0  0
   -1.9235   -0.8646    6.7843 H   0  0  0  0  0  0  0  0  0  0  0  0
   -3.7250   -1.1570    5.0919 H   0  0  0  0  0  0  0  0  0  0  0  0
   -2.7123   -2.2831    4.1846 H   0  0  0  0  0  0  0  0  0  0  0  0
   -5.2797   -4.7163    5.8020 H   0  0  0  0  0  0  0  0  0  0  0  0
   -5.6379   -3.0976    5.1847 H   0  0  0  0  0  0  0  0  0  0  0  0
   -4.5492   -4.1776    4.2842 H   0  0  0  0  0  0  0  0  0  0  0  0
    2.2867    0.0564    3.0568 H   0  0  0  0  0  0  0  0  0  0  0  0
    2.9540   -0.5082    1.5372 H   0  0  0  0  0  0  0  0  0  0  0  0
    3.9275    0.4882    2.6166 H   0  0  0  0  0  0  0  0  0  0  0  0
  1  2  1  0
  1  6  1  0
  1 39  1  0
  1 40  1  0
  2  3  1  0
  2 41  1  0
  2 42  1  0
  3  4  1  0
  3  7  1  0
  3 43  1  1
  4  5  1  0
  4 44  1  0
  4 45  1  0
  5  6  1  0
  5 46  1  0
  5 47  1  0
  6 48  1  0
  6 49  1  0
  7  8  1  0
  7 50  1  0
  7 51  1  0
  8  9  1  0
  8 52  1  0
  8 53  1  0
  9 10  1  0
  9 14  1  0
 10 11  1  0
 10 54  1  0
 10 55  1  0
 11 12  1  0
 11 56  1  0
 11 57  1  0
 12 13  1  0
 12 58  1  0
 12 59  1  0
 13 60  1  0
 13 61  1  0
 13 62  1  0
 14 15  1  0
 14 63  1  0
 14 64  1  0
 15 16  2  0
 15 20  1  0
 16 17  1  0
 16 65  1  0
 17 18  2  0
 17 66  1  0
 18 19  1  0
 18 27  1  0
 19 20  2  0
 19 21  1  0
 20 67  1  0
 21 22  2  0
 21 26  1  0
 22 23  1  0
 22 38  1  0
 23 24  2  0
 23 68  1  0
 24 25  1  0
 24 69  1  0
 25 26  2  0
 25 70  1  0
 26 71  1  0
 27 29  2  0
 27 33  1  0
 28 30  1  0
 28 33  1  0
 28 34  1  0
 28 72  1  6
 30 31  1  0
 30 32  2  0
 31 73  1  0
 33 74  1  0
 34 35  1  0
 34 75  1  0
 34 76  1  0
 35 36  1  0
 35 77  1  0
 35 78  1  0
 36 37  1  0
 37 79  1  0
 37 80  1  0
 37 81  1  0
 38 82  1  0
 38 83  1  0
 38 84  1  0
M  END
