
     RDKit          3D

 47 47  0  0  0  0  0  0  0  0999 V2000
    3.2950   -0.2891    0.4476 O   0  0  0  0  0  0  0  0  0  0  0  0
    2.1591   -1.3645    0.2232 P   0  0  1  0  0  0  0  0  0  0  0  0
    1.4050   -0.9774   -1.1367 O   0  0  0  0  0  0  0  0  0  0  0  0
    2.6284   -2.7618    0.3185 O   0  0  0  0  0  0  0  0  0  0  0  0
    1.0771   -0.9351    1.3239 O   0  0  0  0  0  0  0  0  0  0  0  0
    0.1271   -1.8936    1.8164 C   0  0  0  0  0  0  0  0  0  0  0  0
   -0.9559   -2.1891    0.8226 C   0  0  0  0  0  0  0  0  0  0  0  0
   -0.9598   -3.4239    0.1917 C   0  0  0  0  0  0  0  0  0  0  0  0
   -1.8659   -3.7864   -0.7039 N   0  0  0  0  0  0  0  0  0  0  0  0
   -2.8241   -2.9334   -1.0341 C   0  0  0  0  0  0  0  0  0  0  0  0
   -3.8407   -3.3699   -2.0457 C   0  0  0  0  0  0  0  0  0  0  0  0
   -2.8966   -1.6571   -0.4557 C   0  0  0  0  0  0  0  0  0  0  0  0
   -3.8603   -0.7795   -0.7873 O   0  0  0  0  0  0  0  0  0  0  0  0
   -1.9565   -1.2693    0.4960 C   0  0  0  0  0  0  0  0  0  0  0  0
   -2.0093    0.1093    1.0935 C   0  0  0  0  0  0  0  0  0  0  0  0
   -1.3827    1.0653    0.1892 N   0  0  0  0  0  0  0  0  0  0  0  0
   -1.1102    2.3403    0.8094 C   0  0  2  0  0  0  0  0  0  0  0  0
   -2.4025    3.1081    1.0226 C   0  0  0  0  0  0  0  0  0  0  0  0
   -2.2575    4.0496    1.9494 O   0  0  0  0  0  0  0  0  0  0  0  0
   -3.4263    2.9262    0.4168 O   0  0  0  0  0  0  0  0  0  0  0  0
   -0.1903    3.2000   -0.0706 C   0  0  0  0  0  0  0  0  0  0  0  0
    1.1632    2.5481   -0.3336 C   0  0  0  0  0  0  0  0  0  0  0  0
    2.1045    3.5111   -1.0361 C   0  0  0  0  0  0  0  0  0  0  0  0
    3.4268    2.9056   -1.4035 C   0  0  0  0  0  0  0  0  0  0  0  0
    3.7930    1.7818   -1.1230 O   0  0  0  0  0  0  0  0  0  0  0  0
    4.1871    3.7363   -2.0882 O   0  0  0  0  0  0  0  0  0  0  0  0
    3.3444    0.4962   -0.1504 H   0  0  0  0  0  0  0  0  0  0  0  0
    1.7944   -1.3635   -1.9331 H   0  0  0  0  0  0  0  0  0  0  0  0
    0.6379   -2.8179    2.0919 H   0  0  0  0  0  0  0  0  0  0  0  0
   -0.2724   -1.4589    2.7312 H   0  0  0  0  0  0  0  0  0  0  0  0
   -0.1907   -4.1526    0.4273 H   0  0  0  0  0  0  0  0  0  0  0  0
   -4.8454   -3.4210   -1.6174 H   0  0  0  0  0  0  0  0  0  0  0  0
   -3.8845   -2.6956   -2.9043 H   0  0  0  0  0  0  0  0  0  0  0  0
   -3.5920   -4.3615   -2.4157 H   0  0  0  0  0  0  0  0  0  0  0  0
   -4.5088   -1.1806   -1.3761 H   0  0  0  0  0  0  0  0  0  0  0  0
   -3.0476    0.3970    1.2615 H   0  0  0  0  0  0  0  0  0  0  0  0
   -1.5291    0.1046    2.0810 H   0  0  0  0  0  0  0  0  0  0  0  0
   -0.5057    0.6666   -0.1175 H   0  0  0  0  0  0  0  0  0  0  0  0
   -0.6239    2.2298    1.7938 H   0  0  0  0  0  0  0  0  0  0  0  0
   -3.0741    4.5651    2.0290 H   0  0  0  0  0  0  0  0  0  0  0  0
   -0.6889    3.4130   -1.0205 H   0  0  0  0  0  0  0  0  0  0  0  0
   -0.0322    4.1592    0.4274 H   0  0  0  0  0  0  0  0  0  0  0  0
    1.5980    2.2170    0.6137 H   0  0  0  0  0  0  0  0  0  0  0  0
    1.0417    1.6670   -0.9647 H   0  0  0  0  0  0  0  0  0  0  0  0
    1.6466    3.8947   -1.9528 H   0  0  0  0  0  0  0  0  0  0  0  0
    2.2994    4.3909   -0.4149 H   0  0  0  0  0  0  0  0  0  0  0  0
    5.0368    3.3226   -2.3053 H   0  0  0  0  0  0  0  0  0  0  0  0
  2  1  1  1
  2  3  1  0
  2  4  2  0
  2  5  1  0
  5  6  1  0
  6  7  1  0
  7  8  2  0
  7 14  1  0
  8  9  1  0
  9 10  2  0
 10 11  1  0
 10 12  1  0
 12 13  1  0
 12 14  2  0
 14 15  1  0
 15 16  1  0
 16 17  1  0
 17 18  1  0
 17 21  1  0
 18 19  1  0
 18 20  2  0
 21 22  1  0
 22 23  1  0
 23 24  1  0
 24 25  2  0
 24 26  1  0
  1 27  1  0
  3 28  1  0
  6 29  1  0
  6 30  1  0
  8 31  1  0
 11 32  1  0
 11 33  1  0
 11 34  1  0
 13 35  1  0
 15 36  1  0
 15 37  1  0
 16 38  1  0
 17 39  1  1
 19 40  1  0
 21 41  1  0
 21 42  1  0
 22 43  1  0
 22 44  1  0
 23 45  1  0
 23 46  1  0
 26 47  1  0
M  END
