
     RDKit          3D

 43 45  0  0  0  0  0  0  0  0999 V2000
    8.0944   -0.4587   -0.0754 C   0  0  0  0  0  0  0  0  0  0  0  0
   -2.3874   -2.1718    1.6150 C   0  0  0  0  0  0  0  0  0  0  0  0
    4.5408    1.6841    0.2204 O   0  0  0  0  0  0  0  0  0  0  0  0
   -6.8169    0.8397   -0.3299 C   0  0  0  0  0  0  0  0  0  0  0  0
   -6.4671   -0.5015   -0.3112 C   0  0  0  0  0  0  0  0  0  0  0  0
   -5.8196    1.8062   -0.2411 C   0  0  0  0  0  0  0  0  0  0  0  0
   -5.1345   -0.8777   -0.2038 C   0  0  0  0  0  0  0  0  0  0  0  0
   -4.4923    1.4327   -0.1355 C   0  0  0  0  0  0  0  0  0  0  0  0
    1.3414   -1.2045   -0.2365 C   0  0  0  0  0  0  0  0  0  0  0  0
    6.9634    0.5386   -0.0044 C   0  0  0  0  0  0  0  0  0  0  0  0
   -1.8260    0.6423    0.0712 N   0  0  0  0  0  0  0  0  0  0  0  0
    1.7819    1.1029    0.2835 N   0  0  0  0  0  0  0  0  0  0  0  0
    3.5514   -0.3740   -0.0949 N   0  0  0  0  0  0  0  0  0  0  0  0
   -0.9740   -1.9049   -0.4136 N   0  0  0  0  0  0  0  0  0  0  0  0
    5.7344   -0.1924   -0.0998 O   0  0  0  0  0  0  0  0  0  0  0  0
    4.5977    0.4956    0.0296 C   0  0  0  0  0  0  0  0  0  0  0  0
   -2.7011   -0.2882    0.0074 C   0  0  0  0  0  0  0  0  0  0  0  0
   -4.1233    0.0816   -0.1141 C   0  0  0  0  0  0  0  0  0  0  0  0
    0.4694    1.3301    0.3447 C   0  0  0  0  0  0  0  0  0  0  0  0
    2.1873   -0.1219   -0.0101 C   0  0  0  0  0  0  0  0  0  0  0  0
   -0.0297   -0.9706   -0.1557 C   0  0  0  0  0  0  0  0  0  0  0  0
   -0.4874    0.3231    0.1341 C   0  0  0  0  0  0  0  0  0  0  0  0
   -2.3021   -1.7460    0.1475 C   0  0  2  0  0  0  0  0  0  0  0  0
    8.0554   -1.1668    0.7521 H   0  0  0  0  0  0  0  0  0  0  0  0
    8.0828   -1.0145   -1.0130 H   0  0  0  0  0  0  0  0  0  0  0  0
    9.0434    0.0734   -0.0160 H   0  0  0  0  0  0  0  0  0  0  0  0
   -1.7310   -1.5635    2.2388 H   0  0  0  0  0  0  0  0  0  0  0  0
   -3.4055   -2.0663    1.9919 H   0  0  0  0  0  0  0  0  0  0  0  0
   -2.0951   -3.2167    1.7260 H   0  0  0  0  0  0  0  0  0  0  0  0
    0.7376    3.3273    0.5083 H   0  0  0  0  0  0  0  0  0  0  0  0
   -0.8902    2.8220    0.4794 H   0  0  0  0  0  0  0  0  0  0  0  0
   -7.2313   -1.2643   -0.3798 H   0  0  0  0  0  0  0  0  0  0  0  0
   -6.0794    2.8569   -0.2551 H   0  0  0  0  0  0  0  0  0  0  0  0
   -4.9030   -1.9341   -0.1938 H   0  0  0  0  0  0  0  0  0  0  0  0
    1.7287   -2.1869   -0.4748 H   0  0  0  0  0  0  0  0  0  0  0  0
    3.8008   -1.3323   -0.2880 H   0  0  0  0  0  0  0  0  0  0  0  0
   -0.6663   -2.8532   -0.5619 H   0  0  0  0  0  0  0  0  0  0  0  0
   -2.9631   -2.3799   -0.4432 H   0  0  0  0  0  0  0  0  0  0  0  0
   -3.7241    2.1909   -0.0687 H   0  0  0  0  0  0  0  0  0  0  0  0
    6.9953    1.0934    0.9351 H   0  0  0  0  0  0  0  0  0  0  0  0
    7.0289    1.2592   -0.8223 H   0  0  0  0  0  0  0  0  0  0  0  0
    0.0722    2.5880    0.6607 N   0  0  0  0  0  0  0  0  0  0  0  0
   -7.8556    1.1316   -0.4131 H   0  0  0  0  0  0  0  0  0  0  0  0
  2 23  1  0
 42 19  1  0
  4  5  2  0
  5  7  1  0
  6  4  1  0
  6  8  2  0
  8 18  1  0
  9 20  2  0
 10  1  1  0
 11 22  1  0
 12 20  1  0
 13 16  1  0
 14 21  1  0
 15 10  1  0
 15 16  1  0
 16  3  2  0
 17 11  2  0
 18  7  2  0
 18 17  1  0
 19 12  2  0
 20 13  1  0
 21  9  1  0
 22 19  1  0
 22 21  2  0
 23 14  1  0
 23 17  1  0
  1 24  1  0
  1 25  1  0
  1 26  1  0
  2 27  1  0
  2 28  1  0
  2 29  1  0
 42 30  1  0
 42 31  1  0
  4 43  1  0
  5 32  1  0
  6 33  1  0
  7 34  1  0
  9 35  1  0
 13 36  1  0
 14 37  1  0
 23 38  1  6
  8 39  1  0
 10 40  1  0
 10 41  1  0
M  END
