
     RDKit          3D

 61 65  0  0  0  0  0  0  0  0999 V2000
   -3.1447   -0.0095   -0.1098 C   0  0  0  0  0  0  0  0  0  0  0  0
   -2.7770    1.2497    0.1456 C   0  0  0  0  0  0  0  0  0  0  0  0
   -3.7598    2.3535    0.3943 C   0  0  0  0  0  0  0  0  0  0  0  0
   -3.8844    2.8548    1.5043 O   0  0  0  0  0  0  0  0  0  0  0  0
   -4.4161    2.7929   -0.6887 N   0  0  0  0  0  0  0  0  0  0  0  0
   -1.3520    1.7076    0.2694 C   0  0  0  0  0  0  0  0  0  0  0  0
   -0.3647    0.7151   -0.3212 C   0  0  2  0  0  0  0  0  0  0  0  0
   -0.7219   -0.6974    0.1630 C   0  0  1  0  0  0  0  0  0  0  0  0
   -2.1315   -1.1317   -0.3145 C   0  0  2  0  0  0  0  0  0  0  0  0
   -2.1294   -1.4959   -1.8090 C   0  0  0  0  0  0  0  0  0  0  0  0
   -2.5640   -2.3533    0.5257 C   0  0  0  0  0  0  0  0  0  0  0  0
   -4.0197   -2.7592    0.3493 C   0  0  0  0  0  0  0  0  0  0  0  0
   -4.9321   -1.5900    0.6708 C   0  0  2  0  0  0  0  0  0  0  0  0
   -6.2982   -1.8942    0.4785 O   0  0  0  0  0  0  0  0  0  0  0  0
   -4.5960   -0.4092   -0.2284 C   0  0  0  0  0  0  0  0  0  0  0  0
    0.3665   -1.7399   -0.1454 C   0  0  0  0  0  0  0  0  0  0  0  0
    1.7893   -1.3063    0.2241 C   0  0  0  0  0  0  0  0  0  0  0  0
    2.1053    0.0510   -0.3996 C   0  0  1  0  0  0  0  0  0  0  0  0
    2.1140   -0.0295   -1.9360 C   0  0  0  0  0  0  0  0  0  0  0  0
    1.0473    1.0367    0.1249 C   0  0  1  0  0  0  0  0  0  0  0  0
    1.6645    2.4113   -0.1236 C   0  0  0  0  0  0  0  0  0  0  0  0
    3.1141    2.0993    0.1196 C   0  0  0  0  0  0  0  0  0  0  0  0
    3.3702    0.7860    0.0389 C   0  0  0  0  0  0  0  0  0  0  0  0
    4.6860    0.1817    0.2666 C   0  0  0  0  0  0  0  0  0  0  0  0
    5.1032   -0.9912   -0.3680 C   0  0  0  0  0  0  0  0  0  0  0  0
    6.2911   -1.5551   -0.1919 N   0  0  0  0  0  0  0  0  0  0  0  0
    7.1446   -0.9753    0.6422 C   0  0  0  0  0  0  0  0  0  0  0  0
    6.8424    0.1883    1.3350 C   0  0  0  0  0  0  0  0  0  0  0  0
    5.5997    0.7649    1.1488 C   0  0  0  0  0  0  0  0  0  0  0  0
   -5.0763    3.5515   -0.6229 H   0  0  0  0  0  0  0  0  0  0  0  0
   -4.2864    2.3635   -1.5883 H   0  0  0  0  0  0  0  0  0  0  0  0
   -1.2392    2.6811   -0.2190 H   0  0  0  0  0  0  0  0  0  0  0  0
   -1.1200    1.8810    1.3279 H   0  0  0  0  0  0  0  0  0  0  0  0
   -0.4386    0.7722   -1.4130 H   0  0  0  0  0  0  0  0  0  0  0  0
   -0.7794   -0.6236    1.2597 H   0  0  0  0  0  0  0  0  0  0  0  0
   -1.7345   -0.6793   -2.4153 H   0  0  0  0  0  0  0  0  0  0  0  0
   -1.5240   -2.3811   -2.0057 H   0  0  0  0  0  0  0  0  0  0  0  0
   -3.1295   -1.7126   -2.1827 H   0  0  0  0  0  0  0  0  0  0  0  0
   -1.9203   -3.2026    0.2881 H   0  0  0  0  0  0  0  0  0  0  0  0
   -2.3903   -2.1251    1.5835 H   0  0  0  0  0  0  0  0  0  0  0  0
   -4.2122   -3.0968   -0.6741 H   0  0  0  0  0  0  0  0  0  0  0  0
   -4.2429   -3.6044    1.0080 H   0  0  0  0  0  0  0  0  0  0  0  0
   -4.7502   -1.2879    1.7145 H   0  0  0  0  0  0  0  0  0  0  0  0
   -6.5230   -2.6322    1.0539 H   0  0  0  0  0  0  0  0  0  0  0  0
   -5.2596    0.4222    0.0108 H   0  0  0  0  0  0  0  0  0  0  0  0
   -4.8204   -0.6918   -1.2637 H   0  0  0  0  0  0  0  0  0  0  0  0
    0.1367   -2.6647    0.3880 H   0  0  0  0  0  0  0  0  0  0  0  0
    0.3507   -2.0039   -1.2043 H   0  0  0  0  0  0  0  0  0  0  0  0
    1.8901   -1.2322    1.3119 H   0  0  0  0  0  0  0  0  0  0  0  0
    2.4854   -2.0840   -0.1008 H   0  0  0  0  0  0  0  0  0  0  0  0
    2.9037   -0.6934   -2.2903 H   0  0  0  0  0  0  0  0  0  0  0  0
    1.1781   -0.4070   -2.3466 H   0  0  0  0  0  0  0  0  0  0  0  0
    2.2936    0.9500   -2.3806 H   0  0  0  0  0  0  0  0  0  0  0  0
    1.0566    0.9124    1.2184 H   0  0  0  0  0  0  0  0  0  0  0  0
    1.4990    2.7712   -1.1473 H   0  0  0  0  0  0  0  0  0  0  0  0
    1.2782    3.1853    0.5430 H   0  0  0  0  0  0  0  0  0  0  0  0
    3.8569    2.8653    0.3087 H   0  0  0  0  0  0  0  0  0  0  0  0
    4.4483   -1.4976   -1.0671 H   0  0  0  0  0  0  0  0  0  0  0  0
    8.1077   -1.4571    0.7694 H   0  0  0  0  0  0  0  0  0  0  0  0
    7.5624    0.6238    2.0143 H   0  0  0  0  0  0  0  0  0  0  0  0
    5.3303    1.6602    1.6948 H   0  0  0  0  0  0  0  0  0  0  0  0
  5  3  1  0
  3  4  2  0
  3  2  1  0
  2  6  1  0
  2  1  2  0
 15  1  1  0
 15 13  1  0
  6  7  1  0
  1  9  1  0
 21 20  1  0
 21 22  1  0
  9 10  1  6
  7 20  1  0
  7  8  1  0
 14 13  1  0
 13 12  1  0
 18 19  1  6
  9  8  1  0
  9 11  1  0
 20 18  1  0
 22 23  2  0
  8 16  1  0
 12 11  1  0
 18 23  1  0
 18 17  1  0
 23 24  1  0
 16 17  1  0
 24 29  1  0
 24 25  2  0
 29 28  2  0
 25 26  1  0
 28 27  1  0
 26 27  2  0
  5 30  1  0
  5 31  1  0
  6 32  1  0
  6 33  1  0
  7 34  1  6
  8 35  1  1
 10 36  1  0
 10 37  1  0
 10 38  1  0
 11 39  1  0
 11 40  1  0
 12 41  1  0
 12 42  1  0
 13 43  1  1
 14 44  1  0
 15 45  1  0
 15 46  1  0
 16 47  1  0
 16 48  1  0
 17 49  1  0
 17 50  1  0
 19 51  1  0
 19 52  1  0
 19 53  1  0
 20 54  1  1
 21 55  1  0
 21 56  1  0
 22 57  1  0
 25 58  1  0
 27 59  1  0
 28 60  1  0
 29 61  1  0
M  END
