
     RDKit          3D

 42 43  0  0  0  0  0  0  0  0999 V2000
    5.2553    0.9726   -1.7038 C   0  0  0  0  0  0  0  0  0  0  0  0
    3.9734    0.9242   -0.8856 C   0  0  0  0  0  0  0  0  0  0  0  0
    3.8849   -0.3520   -0.0593 C   0  0  0  0  0  0  0  0  0  0  0  0
    1.2952   -0.2508    2.4445 N   0  0  0  0  0  0  0  0  0  0  0  0
    0.5866   -0.6225    1.3366 C   0  0  0  0  0  0  0  0  0  0  0  0
   -0.8818   -0.8788    1.2875 C   0  0  0  0  0  0  0  0  0  0  0  0
   -1.3710   -0.8118   -0.1746 C   0  0  1  0  0  0  0  0  0  0  0  0
   -1.4019    0.6473   -0.6882 C   0  0  0  0  0  0  0  0  0  0  0  0
   -2.4710    1.5549   -0.0894 C   0  0  0  0  0  0  0  0  0  0  0  0
   -2.2877    2.9990   -0.5333 C   0  0  0  0  0  0  0  0  0  0  0  0
   -0.4263   -1.6507   -1.0648 C   0  0  0  0  0  0  0  0  0  0  0  0
    1.0016   -1.1013   -1.1177 C   0  0  0  0  0  0  0  0  0  0  0  0
    1.4156   -0.7403    0.2600 C   0  0  0  0  0  0  0  0  0  0  0  0
    2.6675   -0.4330    0.7210 N   0  0  0  0  0  0  0  0  0  0  0  0
    2.5355   -0.1458    2.0356 C   0  0  0  0  0  0  0  0  0  0  0  0
   -3.3326    3.8486    0.0195 N   0  0  0  0  0  0  0  0  0  0  0  0
    6.1393    0.9396   -1.0648 H   0  0  0  0  0  0  0  0  0  0  0  0
    5.3154    0.1318   -2.3967 H   0  0  0  0  0  0  0  0  0  0  0  0
    5.3073    1.8890   -2.2911 H   0  0  0  0  0  0  0  0  0  0  0  0
    3.9197    1.7873   -0.2176 H   0  0  0  0  0  0  0  0  0  0  0  0
    3.1097    0.9895   -1.5523 H   0  0  0  0  0  0  0  0  0  0  0  0
    3.9415   -1.2297   -0.7071 H   0  0  0  0  0  0  0  0  0  0  0  0
    4.7258   -0.4141    0.6329 H   0  0  0  0  0  0  0  0  0  0  0  0
   -1.1000   -1.8669    1.7047 H   0  0  0  0  0  0  0  0  0  0  0  0
   -1.4105   -0.1610    1.9186 H   0  0  0  0  0  0  0  0  0  0  0  0
   -0.4197    1.0820   -0.4886 H   0  0  0  0  0  0  0  0  0  0  0  0
   -1.5150    0.6336   -1.7766 H   0  0  0  0  0  0  0  0  0  0  0  0
   -3.4715    1.2284   -0.3870 H   0  0  0  0  0  0  0  0  0  0  0  0
   -2.4394    1.5134    1.0037 H   0  0  0  0  0  0  0  0  0  0  0  0
   -1.2713    3.3258   -0.2684 H   0  0  0  0  0  0  0  0  0  0  0  0
   -2.3498    3.0488   -1.6243 H   0  0  0  0  0  0  0  0  0  0  0  0
   -0.3967   -2.6740   -0.6787 H   0  0  0  0  0  0  0  0  0  0  0  0
   -0.8239   -1.7060   -2.0779 H   0  0  0  0  0  0  0  0  0  0  0  0
    1.6599   -1.8564   -1.5561 H   0  0  0  0  0  0  0  0  0  0  0  0
    1.0501   -0.2332   -1.7833 H   0  0  0  0  0  0  0  0  0  0  0  0
    3.3843    0.1280    2.6455 H   0  0  0  0  0  0  0  0  0  0  0  0
   -3.2212    3.8991    1.0250 H   0  0  0  0  0  0  0  0  0  0  0  0
   -3.2061    4.7961   -0.3131 H   0  0  0  0  0  0  0  0  0  0  0  0
   -4.3606   -1.7558    0.6155 H   0  0  0  0  0  0  0  0  0  0  0  0
   -2.7769   -1.3671   -0.3389 C   0  0  0  0  0  0  0  0  0  0  0  0
   -3.2515   -1.6882   -1.4020 O   0  0  0  0  0  0  0  0  0  0  0  0
   -3.4640   -1.4325    0.7936 O   0  0  0  0  0  0  0  0  0  0  0  0
  1  2  1  0
  2  3  1  0
  3 14  1  0
 14 15  1  0
 14 13  1  0
 15  4  2  0
 12 13  1  0
 12 11  1  0
 13  5  2  0
 41 40  2  0
  4  5  1  0
  5  6  1  0
 40 42  1  0
  7 40  1  1
 11  7  1  0
  7  6  1  0
  7  8  1  0
  9  8  1  0
  9 10  1  0
 10 16  1  0
  1 17  1  0
  1 18  1  0
  1 19  1  0
  2 20  1  0
  2 21  1  0
  3 22  1  0
  3 23  1  0
  6 24  1  0
  6 25  1  0
  8 26  1  0
  8 27  1  0
  9 28  1  0
  9 29  1  0
 10 30  1  0
 10 31  1  0
 11 32  1  0
 11 33  1  0
 12 34  1  0
 12 35  1  0
 15 36  1  0
 16 37  1  0
 16 38  1  0
 42 39  1  0
M  END
