
     RDKit          3D

 47 50  0  0  0  0  0  0  0  0999 V2000
    0.0746   -1.0362    2.1942 O   0  0  0  0  0  0  0  0  0  0  0  0
   -0.2554   -0.0671    1.5300 C   0  0  0  0  0  0  0  0  0  0  0  0
    0.6142    1.0231    1.3536 N   0  0  0  0  0  0  0  0  0  0  0  0
    1.9197    0.9327    2.0112 C   0  0  0  0  0  0  0  0  0  0  0  0
    2.9283    0.1634    1.1965 C   0  0  0  0  0  0  0  0  0  0  0  0
    3.5773    0.7733    0.1280 C   0  0  0  0  0  0  0  0  0  0  0  0
    4.5058    0.0726   -0.6251 C   0  0  0  0  0  0  0  0  0  0  0  0
    5.2907    0.8610   -1.9418 Cl  0  0  0  0  0  0  0  0  0  0  0  0
    3.2339   -1.1589    1.5004 C   0  0  0  0  0  0  0  0  0  0  0  0
    4.1658   -1.8613    0.7539 C   0  0  0  0  0  0  0  0  0  0  0  0
    4.8031   -1.2495   -0.3141 C   0  0  0  0  0  0  0  0  0  0  0  0
    5.9568   -2.1338   -1.2375 Cl  0  0  0  0  0  0  0  0  0  0  0  0
   -1.4903    0.1314    0.8673 C   0  0  0  0  0  0  0  0  0  0  0  0
   -2.6301   -0.6487    0.7738 N   0  0  0  0  0  0  0  0  0  0  0  0
   -2.9289   -1.8315    1.5523 C   0  0  0  0  0  0  0  0  0  0  0  0
   -3.4697    0.0215   -0.0419 C   0  0  0  0  0  0  0  0  0  0  0  0
   -2.9675    1.1794   -0.4588 N   0  0  0  0  0  0  0  0  0  0  0  0
   -1.7561    1.2404    0.1098 C   0  0  0  0  0  0  0  0  0  0  0  0
   -0.8478    2.2486   -0.0325 N   0  0  0  0  0  0  0  0  0  0  0  0
   -1.1304    3.4186   -0.8480 C   0  0  0  0  0  0  0  0  0  0  0  0
    0.3665    2.1620    0.5947 C   0  0  0  0  0  0  0  0  0  0  0  0
    1.1905    3.0520    0.4848 O   0  0  0  0  0  0  0  0  0  0  0  0
   -4.7182   -0.4387   -0.3503 N   0  0  0  0  0  0  0  0  0  0  0  0
   -5.6509    0.5475   -0.8803 C   0  0  0  0  0  0  0  0  0  0  0  0
   -7.0545   -0.0245   -0.8145 C   0  0  0  0  0  0  0  0  0  0  0  0
   -7.1568   -1.2481   -1.5075 O   0  0  0  0  0  0  0  0  0  0  0  0
   -6.2592   -2.2018   -0.9875 C   0  0  0  0  0  0  0  0  0  0  0  0
   -4.8259   -1.7144   -1.0609 C   0  0  0  0  0  0  0  0  0  0  0  0
    2.2743    1.9424    2.1981 H   0  0  0  0  0  0  0  0  0  0  0  0
    1.7792    0.4579    2.9790 H   0  0  0  0  0  0  0  0  0  0  0  0
    3.3667    1.8046   -0.1208 H   0  0  0  0  0  0  0  0  0  0  0  0
    2.7434   -1.6521    2.3283 H   0  0  0  0  0  0  0  0  0  0  0  0
    4.3992   -2.8883    0.9992 H   0  0  0  0  0  0  0  0  0  0  0  0
   -2.4857   -1.7373    2.5385 H   0  0  0  0  0  0  0  0  0  0  0  0
   -4.0068   -1.9161    1.6650 H   0  0  0  0  0  0  0  0  0  0  0  0
   -2.5448   -2.7322    1.0765 H   0  0  0  0  0  0  0  0  0  0  0  0
   -1.1250    4.3224   -0.2422 H   0  0  0  0  0  0  0  0  0  0  0  0
   -0.3971    3.5179   -1.6452 H   0  0  0  0  0  0  0  0  0  0  0  0
   -2.1141    3.2979   -1.2890 H   0  0  0  0  0  0  0  0  0  0  0  0
   -5.6088    1.4531   -0.2762 H   0  0  0  0  0  0  0  0  0  0  0  0
   -5.3985    0.8192   -1.9131 H   0  0  0  0  0  0  0  0  0  0  0  0
   -4.5213   -1.5922   -2.1085 H   0  0  0  0  0  0  0  0  0  0  0  0
   -4.1743   -2.4653   -0.6166 H   0  0  0  0  0  0  0  0  0  0  0  0
   -7.3439   -0.1523    0.2380 H   0  0  0  0  0  0  0  0  0  0  0  0
   -7.7552    0.6730   -1.2752 H   0  0  0  0  0  0  0  0  0  0  0  0
   -6.5080   -2.4386    0.0565 H   0  0  0  0  0  0  0  0  0  0  0  0
   -6.3669   -3.1120   -1.5782 H   0  0  0  0  0  0  0  0  0  0  0  0
  1  2  2  0
  2  3  1  0
  2 13  1  0
  3  4  1  0
  3 21  1  0
  4  5  1  0
  5  6  2  0
  5  9  1  0
  6  7  1  0
  7  8  1  0
  7 11  2  0
  9 10  2  0
 10 11  1  0
 11 12  1  0
 13 14  1  0
 13 18  2  0
 14 15  1  0
 14 16  1  0
 16 17  2  0
 16 23  1  0
 17 18  1  0
 18 19  1  0
 19 20  1  0
 19 21  1  0
 21 22  2  0
 23 24  1  0
 23 28  1  0
 24 25  1  0
 25 26  1  0
 26 27  1  0
 27 28  1  0
  4 29  1  0
  4 30  1  0
  6 31  1  0
  9 32  1  0
 10 33  1  0
 15 34  1  0
 15 35  1  0
 15 36  1  0
 20 37  1  0
 20 38  1  0
 20 39  1  0
 24 40  1  0
 24 41  1  0
 28 42  1  0
 28 43  1  0
 25 44  1  0
 25 45  1  0
 27 46  1  0
 27 47  1  0
M  END
