
     RDKit          3D

 41 43  0  0  0  0  0  0  0  0999 V2000
    5.0831   -1.1565    1.3605 O   0  0  0  0  0  0  0  0  0  0  0  0
    5.4968   -1.2218    0.0165 C   0  0  0  0  0  0  0  0  0  0  0  0
    4.2992   -1.0386   -0.8945 C   0  0  0  0  0  0  0  0  0  0  0  0
    3.6706    0.2632   -0.7990 N   0  0  0  0  0  0  0  0  0  0  0  0
    4.1994    1.2919   -1.6611 C   0  0  0  0  0  0  0  0  0  0  0  0
    2.4427    0.4334   -0.2115 C   0  0  0  0  0  0  0  0  0  0  0  0
    1.6307    1.5376   -0.5184 C   0  0  0  0  0  0  0  0  0  0  0  0
    0.3841    1.7016    0.0685 C   0  0  0  0  0  0  0  0  0  0  0  0
    1.9341   -0.4804    0.7312 C   0  0  0  0  0  0  0  0  0  0  0  0
    0.6869   -0.3028    1.2978 C   0  0  0  0  0  0  0  0  0  0  0  0
   -0.1246    0.7837    0.9770 C   0  0  0  0  0  0  0  0  0  0  0  0
   -1.4802    0.9624    1.6547 C   0  0  2  0  0  0  0  0  0  0  0  0
   -2.2088   -0.2769    1.7957 N   0  0  0  0  0  0  0  0  0  0  0  0
   -2.6985   -0.8147    0.6331 C   0  0  0  0  0  0  0  0  0  0  0  0
   -2.8902   -2.1896    0.4664 C   0  0  0  0  0  0  0  0  0  0  0  0
   -3.4078   -2.6755   -0.7195 C   0  0  0  0  0  0  0  0  0  0  0  0
   -3.7488   -1.8146   -1.7622 C   0  0  0  0  0  0  0  0  0  0  0  0
   -3.5810   -0.4531   -1.5929 C   0  0  0  0  0  0  0  0  0  0  0  0
   -3.0582    0.0582   -0.4074 C   0  0  0  0  0  0  0  0  0  0  0  0
   -2.9891    1.5188   -0.1862 C   0  0  0  0  0  0  0  0  0  0  0  0
   -3.5277    2.3307   -0.9269 O   0  0  0  0  0  0  0  0  0  0  0  0
   -2.3388    1.8810    0.9424 N   0  0  0  0  0  0  0  0  0  0  0  0
    5.8555   -1.2800    1.9193 H   0  0  0  0  0  0  0  0  0  0  0  0
    6.2470   -0.4529   -0.2121 H   0  0  0  0  0  0  0  0  0  0  0  0
    5.9543   -2.1904   -0.2244 H   0  0  0  0  0  0  0  0  0  0  0  0
    4.6394   -1.1916   -1.9231 H   0  0  0  0  0  0  0  0  0  0  0  0
    3.5654   -1.8243   -0.7073 H   0  0  0  0  0  0  0  0  0  0  0  0
    3.6600    1.3770   -2.6120 H   0  0  0  0  0  0  0  0  0  0  0  0
    4.1794    2.2674   -1.1735 H   0  0  0  0  0  0  0  0  0  0  0  0
    5.2398    1.0692   -1.8896 H   0  0  0  0  0  0  0  0  0  0  0  0
    1.9540    2.2783   -1.2366 H   0  0  0  0  0  0  0  0  0  0  0  0
   -0.1957    2.5700   -0.2192 H   0  0  0  0  0  0  0  0  0  0  0  0
    2.5294   -1.3223    1.0537 H   0  0  0  0  0  0  0  0  0  0  0  0
    0.3538   -1.0428    2.0163 H   0  0  0  0  0  0  0  0  0  0  0  0
   -2.6212   -2.8697    1.2654 H   0  0  0  0  0  0  0  0  0  0  0  0
   -3.5404   -3.7434   -0.8381 H   0  0  0  0  0  0  0  0  0  0  0  0
   -4.1479   -2.2070   -2.6873 H   0  0  0  0  0  0  0  0  0  0  0  0
   -3.8603    0.2315   -2.3833 H   0  0  0  0  0  0  0  0  0  0  0  0
   -2.2722    2.8649    1.1551 H   0  0  0  0  0  0  0  0  0  0  0  0
   -1.3335    1.3699    2.6560 H   0  0  0  0  0  0  0  0  0  0  0  0
   -1.8480   -0.9244    2.4781 H   0  0  0  0  0  0  0  0  0  0  0  0
 17 18  1  0
 17 16  2  0
 18 19  2  0
 16 15  1  0
 21 20  2  0
 19 20  1  0
 19 14  1  0
 15 14  2  0
 20 22  1  0
 14 13  1  0
 22 12  1  0
 13 12  1  0
 12 11  1  0
 11  8  2  0
 11 10  1  0
  8  7  1  0
 10  9  2  0
  7  6  2  0
  9  6  1  0
  6  4  1  0
  4  5  1  0
  4  3  1  0
  3  2  1  0
  2  1  1  0
  1 23  1  0
  2 24  1  0
  2 25  1  0
  3 26  1  0
  3 27  1  0
  5 28  1  0
  5 29  1  0
  5 30  1  0
  7 31  1  0
  8 32  1  0
  9 33  1  0
 10 34  1  0
 15 35  1  0
 16 36  1  0
 17 37  1  0
 18 38  1  0
 22 39  1  0
 12 40  1  1
 13 41  1  0
M  END
