
     RDKit          3D

 63 67  0  0  0  0  0  0  0  0999 V2000
    2.3859   -0.5076   -0.0280 C   0  0  0  0  0  0  0  0  0  0  0  0
    2.5190    0.8675    0.2104 C   0  0  0  0  0  0  0  0  0  0  0  0
    1.3355    1.5591    0.3244 C   0  0  0  0  0  0  0  0  0  0  0  0
    4.4869    0.0916    0.0901 C   0  0  0  0  0  0  0  0  0  0  0  0
    0.1669    0.9249    0.2160 N   0  0  0  0  0  0  0  0  0  0  0  0
    1.2581   -1.1635   -0.1427 N   0  0  0  0  0  0  0  0  0  0  0  0
   -6.9120    1.4869   -0.4578 C   0  0  0  0  0  0  0  0  0  0  0  0
   -8.2804    1.9362    0.0387 C   0  0  0  0  0  0  0  0  0  0  0  0
   -9.2834    0.8874    0.0191 N   0  0  0  0  0  0  0  0  0  0  0  0
   -9.7596    0.5679   -1.3127 C   0  0  0  0  0  0  0  0  0  0  0  0
   -8.7804   -0.2636    0.7452 C   0  0  0  0  0  0  0  0  0  0  0  0
   -7.4211   -0.7596    0.2617 C   0  0  0  0  0  0  0  0  0  0  0  0
   -6.4557    0.3232    0.2959 N   0  0  0  0  0  0  0  0  0  0  0  0
   -5.1037   -0.0149    0.1632 C   0  0  0  0  0  0  0  0  0  0  0  0
   -4.1094    0.9538    0.3376 C   0  0  0  0  0  0  0  0  0  0  0  0
   -2.7593    0.6595    0.2458 C   0  0  0  0  0  0  0  0  0  0  0  0
   -4.6667   -1.3151   -0.1090 C   0  0  0  0  0  0  0  0  0  0  0  0
   -3.3177   -1.6199   -0.1856 C   0  0  0  0  0  0  0  0  0  0  0  0
   -2.3332   -0.6457   -0.0155 C   0  0  0  0  0  0  0  0  0  0  0  0
    0.1707   -0.3867   -0.0064 C   0  0  0  0  0  0  0  0  0  0  0  0
    3.8478    1.2116    0.2807 N   0  0  0  0  0  0  0  0  0  0  0  0
    3.6559   -1.0000   -0.1131 N   0  0  0  0  0  0  0  0  0  0  0  0
    3.9733   -2.4010   -0.4010 C   0  0  1  0  0  0  0  0  0  0  0  0
    4.7569   -2.5617   -1.6984 C   0  0  0  0  0  0  0  0  0  0  0  0
    4.6209   -3.0951    0.7899 C   0  0  0  0  0  0  0  0  0  0  0  0
    5.8323   -0.0679    0.0806 N   0  0  0  0  0  0  0  0  0  0  0  0
    6.8292    0.9013    0.1939 C   0  0  0  0  0  0  0  0  0  0  0  0
    8.1463    0.4375    0.2753 C   0  0  0  0  0  0  0  0  0  0  0  0
    9.2017    1.3265    0.3719 C   0  0  0  0  0  0  0  0  0  0  0  0
    8.9687    2.6966    0.3899 C   0  0  0  0  0  0  0  0  0  0  0  0
    7.6628    3.1550    0.3085 C   0  0  0  0  0  0  0  0  0  0  0  0
    6.5912    2.2761    0.2110 C   0  0  0  0  0  0  0  0  0  0  0  0
    1.3022    2.6280    0.5047 H   0  0  0  0  0  0  0  0  0  0  0  0
   -0.8835   -2.0497   -0.2832 H   0  0  0  0  0  0  0  0  0  0  0  0
   -6.9476    1.2622   -1.5347 H   0  0  0  0  0  0  0  0  0  0  0  0
   -6.2130    2.3121   -0.3330 H   0  0  0  0  0  0  0  0  0  0  0  0
   -8.1773    2.2961    1.0677 H   0  0  0  0  0  0  0  0  0  0  0  0
   -8.6245    2.7800   -0.5637 H   0  0  0  0  0  0  0  0  0  0  0  0
   -9.0010    0.1704   -2.0004 H   0  0  0  0  0  0  0  0  0  0  0  0
  -10.5592   -0.1715   -1.2456 H   0  0  0  0  0  0  0  0  0  0  0  0
  -10.1770    1.4640   -1.7744 H   0  0  0  0  0  0  0  0  0  0  0  0
   -8.6917    0.0090    1.8019 H   0  0  0  0  0  0  0  0  0  0  0  0
   -9.5046   -1.0787    0.6823 H   0  0  0  0  0  0  0  0  0  0  0  0
   -7.0951   -1.5601    0.9283 H   0  0  0  0  0  0  0  0  0  0  0  0
   -7.5108   -1.1966   -0.7459 H   0  0  0  0  0  0  0  0  0  0  0  0
   -4.3846    1.9742    0.5727 H   0  0  0  0  0  0  0  0  0  0  0  0
   -2.0388    1.4475    0.3891 H   0  0  0  0  0  0  0  0  0  0  0  0
   -5.3729   -2.1175   -0.2705 H   0  0  0  0  0  0  0  0  0  0  0  0
   -3.0289   -2.6438   -0.3955 H   0  0  0  0  0  0  0  0  0  0  0  0
    2.9958   -2.8592   -0.5556 H   0  0  0  0  0  0  0  0  0  0  0  0
    5.7893   -2.2192   -1.6286 H   0  0  0  0  0  0  0  0  0  0  0  0
    4.7900   -3.6182   -1.9616 H   0  0  0  0  0  0  0  0  0  0  0  0
    4.2756   -2.0262   -2.5157 H   0  0  0  0  0  0  0  0  0  0  0  0
    4.0078   -2.9889    1.6841 H   0  0  0  0  0  0  0  0  0  0  0  0
    4.7212   -4.1585    0.5755 H   0  0  0  0  0  0  0  0  0  0  0  0
    5.6193   -2.7196    1.0167 H   0  0  0  0  0  0  0  0  0  0  0  0
    6.1747   -1.0136    0.0493 H   0  0  0  0  0  0  0  0  0  0  0  0
    8.3432   -0.6287    0.2637 H   0  0  0  0  0  0  0  0  0  0  0  0
   10.2119    0.9431    0.4349 H   0  0  0  0  0  0  0  0  0  0  0  0
    9.7923    3.3933    0.4681 H   0  0  0  0  0  0  0  0  0  0  0  0
    7.4628    4.2189    0.3206 H   0  0  0  0  0  0  0  0  0  0  0  0
    5.5840    2.6562    0.1543 H   0  0  0  0  0  0  0  0  0  0  0  0
   -1.0083   -1.0633   -0.1156 N   0  0  0  0  0  0  0  0  0  0  0  0
 30 31  2  0
 30 29  1  0
 31 32  1  0
 29 28  2  0
 32 27  2  0
 28 27  1  0
 27 26  1  0
 26  4  1  0
  4 21  2  0
  4 22  1  0
 21  2  1  0
 22 23  1  0
 22  1  1  0
  2  3  2  0
  2  1  1  0
 23 25  1  0
 23 24  1  0
  3  5  1  0
  1  6  2  0
  5 20  2  0
  6 20  1  0
 20 63  1  0
 63 19  1  0
 18 19  2  0
 18 17  1  0
 19 16  1  0
 17 14  2  0
 16 15  2  0
 14 15  1  0
 14 13  1  0
 12 13  1  0
 12 11  1  0
 13  7  1  0
 11  9  1  0
  7  8  1  0
  9  8  1  0
  9 10  1  0
  3 33  1  0
 63 34  1  0
  7 35  1  0
  7 36  1  0
  8 37  1  0
  8 38  1  0
 10 39  1  0
 10 40  1  0
 10 41  1  0
 11 42  1  0
 11 43  1  0
 12 44  1  0
 12 45  1  0
 15 46  1  0
 16 47  1  0
 17 48  1  0
 18 49  1  0
 23 50  1  6
 24 51  1  0
 24 52  1  0
 24 53  1  0
 25 54  1  0
 25 55  1  0
 25 56  1  0
 26 57  1  0
 28 58  1  0
 29 59  1  0
 30 60  1  0
 31 61  1  0
 32 62  1  0
M  END
