
     RDKit          3D

 50 54  0  0  0  0  0  0  0  0999 V2000
    9.2941    1.0719    0.0538 C   0  0  0  0  0  0  0  0  0  0  0  0
    8.4137   -0.0295   -0.0648 O   0  0  0  0  0  0  0  0  0  0  0  0
    7.1007    0.1982    0.0476 C   0  0  0  0  0  0  0  0  0  0  0  0
    6.5255    1.4178    0.2774 C   0  0  0  0  0  0  0  0  0  0  0  0
    6.2769   -0.9664   -0.0945 C   0  0  0  0  0  0  0  0  0  0  0  0
    6.9511   -2.1022   -0.3206 O   0  0  0  0  0  0  0  0  0  0  0  0
    6.2090   -3.2925   -0.4998 C   0  0  0  0  0  0  0  0  0  0  0  0
    4.9178   -0.8565    0.0018 C   0  0  0  0  0  0  0  0  0  0  0  0
    4.3145    0.4030    0.2394 C   0  0  0  0  0  0  0  0  0  0  0  0
    5.1197    1.5538    0.3789 C   0  0  0  0  0  0  0  0  0  0  0  0
    4.6122    2.7871    0.6044 N   0  0  0  0  0  0  0  0  0  0  0  0
    3.3114    2.8991    0.6927 C   0  0  0  0  0  0  0  0  0  0  0  0
    2.4057    1.8347    0.5699 C   0  0  0  0  0  0  0  0  0  0  0  0
    2.9144    0.5787    0.3429 C   0  0  0  0  0  0  0  0  0  0  0  0
    2.1696   -0.5352    0.2040 O   0  0  0  0  0  0  0  0  0  0  0  0
    0.7951   -0.4370    0.2518 C   0  0  0  0  0  0  0  0  0  0  0  0
    0.1076   -0.2558   -0.9396 C   0  0  0  0  0  0  0  0  0  0  0  0
    0.1616   -0.5653    1.4849 C   0  0  0  0  0  0  0  0  0  0  0  0
   -1.2275   -0.5208    1.5705 C   0  0  0  0  0  0  0  0  0  0  0  0
   -1.8962   -0.3458    0.3839 C   0  0  0  0  0  0  0  0  0  0  0  0
   -3.2425   -0.2750    0.1638 O   0  0  0  0  0  0  0  0  0  0  0  0
   -1.2766   -0.2130   -0.8560 C   0  0  0  0  0  0  0  0  0  0  0  0
   -2.2425   -0.0523   -1.8268 N   0  0  0  0  0  0  0  0  0  0  0  0
   -3.3556   -0.1014   -1.1656 C   0  0  0  0  0  0  0  0  0  0  0  0
   -4.5876   -0.0161   -1.6926 N   0  0  0  0  0  0  0  0  0  0  0  0
   -5.8165   -0.0452   -1.0206 C   0  0  0  0  0  0  0  0  0  0  0  0
   -6.0245    0.6036    0.1946 C   0  0  0  0  0  0  0  0  0  0  0  0
   -7.2692    0.5585    0.8024 C   0  0  0  0  0  0  0  0  0  0  0  0
   -8.3138   -0.1122    0.1872 C   0  0  0  0  0  0  0  0  0  0  0  0
   -9.8703   -0.1579    0.9469 Cl  0  0  0  0  0  0  0  0  0  0  0  0
   -8.1283   -0.7397   -1.0343 C   0  0  0  0  0  0  0  0  0  0  0  0
   -6.8788   -0.7101   -1.6293 C   0  0  0  0  0  0  0  0  0  0  0  0
    9.1037    1.8258   -0.7140 H   0  0  0  0  0  0  0  0  0  0  0  0
    9.2233    1.5434    1.0373 H   0  0  0  0  0  0  0  0  0  0  0  0
   10.2985    0.6784   -0.0772 H   0  0  0  0  0  0  0  0  0  0  0  0
    7.1222    2.3134    0.3858 H   0  0  0  0  0  0  0  0  0  0  0  0
    5.6289   -3.5477    0.3909 H   0  0  0  0  0  0  0  0  0  0  0  0
    5.5319   -3.2228   -1.3552 H   0  0  0  0  0  0  0  0  0  0  0  0
    6.9326   -4.0817   -0.6863 H   0  0  0  0  0  0  0  0  0  0  0  0
    4.2894   -1.7293   -0.1033 H   0  0  0  0  0  0  0  0  0  0  0  0
    2.9191    3.8943    0.8736 H   0  0  0  0  0  0  0  0  0  0  0  0
    1.3452    2.0230    0.6582 H   0  0  0  0  0  0  0  0  0  0  0  0
    0.6292   -0.1586   -1.8828 H   0  0  0  0  0  0  0  0  0  0  0  0
    0.7534   -0.7094    2.3790 H   0  0  0  0  0  0  0  0  0  0  0  0
   -1.7372   -0.6242    2.5185 H   0  0  0  0  0  0  0  0  0  0  0  0
   -4.6125   -0.0730   -2.7000 H   0  0  0  0  0  0  0  0  0  0  0  0
   -5.2366    1.1673    0.6722 H   0  0  0  0  0  0  0  0  0  0  0  0
   -7.4202    1.0648    1.7459 H   0  0  0  0  0  0  0  0  0  0  0  0
   -8.9427   -1.2616   -1.5176 H   0  0  0  0  0  0  0  0  0  0  0  0
   -6.7288   -1.2159   -2.5749 H   0  0  0  0  0  0  0  0  0  0  0  0
  1  2  1  0
  1 33  1  0
  1 34  1  0
  1 35  1  0
  3  2  1  0
  4  3  2  0
  3  5  1  0
 10  4  1  0
  4 36  1  0
  8  5  2  0
  5  6  1  0
  6  7  1  0
  7 37  1  0
  7 38  1  0
  7 39  1  0
  9  8  1  0
  8 40  1  0
 14  9  1  0
 10  9  2  0
 11 10  1  0
 12 11  2  0
 12 13  1  0
 12 41  1  0
 13 14  2  0
 13 42  1  0
 14 15  1  0
 16 15  1  0
 17 16  2  0
 16 18  1  0
 22 17  1  0
 17 43  1  0
 19 18  2  0
 18 44  1  0
 20 19  1  0
 19 45  1  0
 22 20  2  0
 21 20  1  0
 24 21  1  0
 23 22  1  0
 23 24  2  0
 25 24  1  0
 26 25  1  0
 25 46  1  0
 27 26  2  0
 32 26  1  0
 28 27  1  0
 27 47  1  0
 29 28  2  0
 28 48  1  0
 30 29  1  0
 29 31  1  0
 31 32  2  0
 31 49  1  0
 32 50  1  0
M  END
