
     RDKit          3D

 37 36  0  0  0  0  0  0  0  0999 V2000
    4.7259    2.3446   -0.0391 N   0  0  0  0  0  0  0  0  0  0  0  0
    4.5159    0.9458    0.2378 C   0  0  2  0  0  0  0  0  0  0  0  0
    5.5503    0.0324   -0.4095 C   0  0  0  0  0  0  0  0  0  0  0  0
    6.3122    0.3708   -1.2799 O   0  0  0  0  0  0  0  0  0  0  0  0
    5.5140   -1.1967    0.0921 O   0  0  0  0  0  0  0  0  0  0  0  0
    3.1122    0.5103   -0.2041 C   0  0  0  0  0  0  0  0  0  0  0  0
    2.0191    1.2873    0.5307 C   0  0  0  0  0  0  0  0  0  0  0  0
    0.6565    0.8560    0.0452 C   0  0  0  0  0  0  0  0  0  0  0  0
    0.0855    1.3895   -0.8950 O   0  0  0  0  0  0  0  0  0  0  0  0
    0.1308   -0.2114    0.6777 N   0  0  0  0  0  0  0  0  0  0  0  0
   -1.1495   -0.7435    0.3053 C   0  0  2  0  0  0  0  0  0  0  0  0
   -2.2688    0.2470    0.6470 C   0  0  0  0  0  0  0  0  0  0  0  0
   -2.2047    0.9807    1.6174 O   0  0  0  0  0  0  0  0  0  0  0  0
   -1.4145   -2.0496    1.0448 C   0  0  0  0  0  0  0  0  0  0  0  0
   -0.1046   -3.2492    0.6273 S   0  0  0  0  0  0  0  0  0  0  0  0
   -3.3262    0.1922   -0.1712 N   0  0  0  0  0  0  0  0  0  0  0  0
   -4.4957    0.9980    0.0438 C   0  0  0  0  0  0  0  0  0  0  0  0
   -5.5913    0.5920   -0.9083 C   0  0  0  0  0  0  0  0  0  0  0  0
   -5.4837   -0.2645   -1.7481 O   0  0  0  0  0  0  0  0  0  0  0  0
   -6.6842    1.3054   -0.7037 O   0  0  0  0  0  0  0  0  0  0  0  0
    5.6177    2.6494    0.3286 H   0  0  0  0  0  0  0  0  0  0  0  0
    4.7578    2.5027   -1.0390 H   0  0  0  0  0  0  0  0  0  0  0  0
    4.5879    0.7959    1.3204 H   0  0  0  0  0  0  0  0  0  0  0  0
    6.1637   -1.7599   -0.3547 H   0  0  0  0  0  0  0  0  0  0  0  0
    3.0120    0.6600   -1.2835 H   0  0  0  0  0  0  0  0  0  0  0  0
    2.9859   -0.5578   -0.0198 H   0  0  0  0  0  0  0  0  0  0  0  0
    2.1178    1.1216    1.6066 H   0  0  0  0  0  0  0  0  0  0  0  0
    2.1346    2.3545    0.3492 H   0  0  0  0  0  0  0  0  0  0  0  0
    0.5750   -0.5554    1.5145 H   0  0  0  0  0  0  0  0  0  0  0  0
   -1.1596   -0.9429   -0.7709 H   0  0  0  0  0  0  0  0  0  0  0  0
   -1.4344   -1.8814    2.1223 H   0  0  0  0  0  0  0  0  0  0  0  0
   -2.3813   -2.4470    0.7408 H   0  0  0  0  0  0  0  0  0  0  0  0
   -0.6070   -4.2767    1.3199 H   0  0  0  0  0  0  0  0  0  0  0  0
   -3.3005   -0.3907   -0.9941 H   0  0  0  0  0  0  0  0  0  0  0  0
   -4.8615    0.8899    1.0684 H   0  0  0  0  0  0  0  0  0  0  0  0
   -4.2871    2.0632   -0.1022 H   0  0  0  0  0  0  0  0  0  0  0  0
   -7.3814    1.0427   -1.3240 H   0  0  0  0  0  0  0  0  0  0  0  0
  1  2  1  0
  1 21  1  0
  1 22  1  0
  2  3  1  0
  2  6  1  0
  2 23  1  1
  3  4  2  0
  3  5  1  0
  5 24  1  0
  6  7  1  0
  6 25  1  0
  6 26  1  0
  7  8  1  0
  7 27  1  0
  7 28  1  0
  8  9  2  0
  8 10  1  0
 10 11  1  0
 10 29  1  0
 11 12  1  0
 11 14  1  0
 11 30  1  6
 12 13  2  0
 12 16  1  0
 14 15  1  0
 14 31  1  0
 14 32  1  0
 15 33  1  0
 16 17  1  0
 16 34  1  0
 17 18  1  0
 17 35  1  0
 17 36  1  0
 18 19  2  0
 18 20  1  0
 20 37  1  0
M  END
