
     RDKit          3D

 33 33  0  0  0  0  0  0  0  0999 V2000
   -3.0097    1.0349    0.0260 C   0  0  0  0  0  0  0  0  0  0  0  0
   -1.8161    0.0903   -0.0026 C   0  0  0  0  0  0  0  0  0  0  0  0
   -0.4973    0.8520    0.0122 C   0  0  0  0  0  0  0  0  0  0  0  0
    0.7167   -0.0683   -0.0061 C   0  0  0  0  0  0  0  0  0  0  0  0
    2.0368    0.6913   -0.0083 C   0  0  0  0  0  0  0  0  0  0  0  0
    3.2486   -0.2322   -0.0169 C   0  0  0  0  0  0  0  0  0  0  0  0
    4.5532    0.5473   -0.0288 C   0  0  0  0  0  0  0  0  0  0  0  0
    5.7807   -0.3202   -0.0426 C   0  0  0  0  0  0  0  0  0  0  0  0
    5.7832   -1.5262   -0.0296 O   0  0  0  0  0  0  0  0  0  0  0  0
    6.8974    0.4032   -0.0716 O   0  0  0  0  0  0  0  0  0  0  0  0
   -4.2782    0.3329    0.0025 N   0  0  0  0  0  0  0  0  0  0  0  0
   -4.8998   -0.1886   -1.0964 C   0  0  0  0  0  0  0  0  0  0  0  0
   -6.0156   -0.8188   -0.6233 C   0  0  0  0  0  0  0  0  0  0  0  0
   -6.0847   -0.6983    0.7355 N   0  0  0  0  0  0  0  0  0  0  0  0
   -5.0254   -0.0067    1.0732 C   0  0  0  0  0  0  0  0  0  0  0  0
   -2.9870    1.6510    0.9258 H   0  0  0  0  0  0  0  0  0  0  0  0
   -2.9792    1.7138   -0.8271 H   0  0  0  0  0  0  0  0  0  0  0  0
   -1.8691   -0.5825    0.8586 H   0  0  0  0  0  0  0  0  0  0  0  0
   -1.8707   -0.5371   -0.8978 H   0  0  0  0  0  0  0  0  0  0  0  0
   -0.4547    1.5250   -0.8510 H   0  0  0  0  0  0  0  0  0  0  0  0
   -0.4543    1.4918    0.9004 H   0  0  0  0  0  0  0  0  0  0  0  0
    0.6804   -0.7350    0.8624 H   0  0  0  0  0  0  0  0  0  0  0  0
    0.6681   -0.7155   -0.8886 H   0  0  0  0  0  0  0  0  0  0  0  0
    2.0741    1.3512   -0.8821 H   0  0  0  0  0  0  0  0  0  0  0  0
    2.0820    1.3461    0.8689 H   0  0  0  0  0  0  0  0  0  0  0  0
    3.2133   -0.8849    0.8596 H   0  0  0  0  0  0  0  0  0  0  0  0
    3.1994   -0.8861   -0.8917 H   0  0  0  0  0  0  0  0  0  0  0  0
    4.5964    1.2103   -0.8992 H   0  0  0  0  0  0  0  0  0  0  0  0
    4.6148    1.2080    0.8422 H   0  0  0  0  0  0  0  0  0  0  0  0
    7.6695   -0.1819   -0.0793 H   0  0  0  0  0  0  0  0  0  0  0  0
   -4.5084   -0.0630   -2.0924 H   0  0  0  0  0  0  0  0  0  0  0  0
   -6.7692   -1.3438   -1.1900 H   0  0  0  0  0  0  0  0  0  0  0  0
   -4.7497    0.2832    2.0766 H   0  0  0  0  0  0  0  0  0  0  0  0
  2  1  1  0
  1 11  1  0
  1 16  1  0
  1 17  1  0
  3  2  1  0
  2 18  1  0
  2 19  1  0
  4  3  1  0
  3 20  1  0
  3 21  1  0
  5  4  1  0
  4 22  1  0
  4 23  1  0
  6  5  1  0
  5 24  1  0
  5 25  1  0
  7  6  1  0
  6 26  1  0
  6 27  1  0
  8  7  1  0
  7 28  1  0
  7 29  1  0
  9  8  2  0
 10  8  1  0
 10 30  1  0
 11 15  1  0
 11 12  1  0
 12 13  2  0
 12 31  1  0
 14 13  1  0
 13 32  1  0
 15 14  2  0
 15 33  1  0
M  END
