
     RDKit          3D

 21 22  0  0  0  0  0  0  0  0999 V2000
    3.0318    0.5376   -0.8334 O   0  0  0  0  0  0  0  0  0  0  0  0
    2.3440    1.2345   -0.1343 C   0  0  0  0  0  0  0  0  0  0  0  0
    2.8160    2.1991    0.6411 O   0  0  0  0  0  0  0  0  0  0  0  0
    0.8558    1.1574   -0.0578 C   0  0  0  0  0  0  0  0  0  0  0  0
    0.1640   -0.0311   -0.0092 C   0  0  0  0  0  0  0  0  0  0  0  0
    1.1014   -1.6648    0.1140 Br  0  0  0  0  0  0  0  0  0  0  0  0
    0.1382    2.3772   -0.0888 C   0  0  0  0  0  0  0  0  0  0  0  0
   -1.2232    2.3864   -0.0935 C   0  0  0  0  0  0  0  0  0  0  0  0
   -1.9511    1.1787   -0.0436 C   0  0  0  0  0  0  0  0  0  0  0  0
   -1.2591   -0.0633    0.0102 C   0  0  0  0  0  0  0  0  0  0  0  0
   -3.3648    1.1916   -0.0395 C   0  0  0  0  0  0  0  0  0  0  0  0
   -4.0754    0.0265    0.0178 C   0  0  0  0  0  0  0  0  0  0  0  0
   -3.3950   -1.2050    0.0745 C   0  0  0  0  0  0  0  0  0  0  0  0
   -2.0277   -1.2520    0.0721 C   0  0  0  0  0  0  0  0  0  0  0  0
    3.7756    2.2783    0.5259 H   0  0  0  0  0  0  0  0  0  0  0  0
    0.6807    3.3114   -0.1309 H   0  0  0  0  0  0  0  0  0  0  0  0
   -1.7609    3.3251   -0.1342 H   0  0  0  0  0  0  0  0  0  0  0  0
   -3.8749    2.1459   -0.0825 H   0  0  0  0  0  0  0  0  0  0  0  0
   -5.1569    0.0455    0.0214 H   0  0  0  0  0  0  0  0  0  0  0  0
   -3.9600   -2.1264    0.1212 H   0  0  0  0  0  0  0  0  0  0  0  0
   -1.5445   -2.2173    0.1168 H   0  0  0  0  0  0  0  0  0  0  0  0
  6  5  1  0
  1  2  2  0
  2  3  1  0
  2  4  1  0
  5  4  2  0
  5 10  1  0
 14 10  2  0
 14 13  1  0
  4  7  1  0
 10  9  1  0
 13 12  2  0
  7  8  2  0
  9  8  1  0
  9 11  2  0
 12 11  1  0
  3 15  1  0
  7 16  1  0
  8 17  1  0
 11 18  1  0
 12 19  1  0
 13 20  1  0
 14 21  1  0
M  END
