
     RDKit          3D

 22 23  0  0  0  0  0  0  0  0999 V2000
   -2.5732    0.8989    0.0366 C   0  0  0  0  0  0  0  0  0  0  0  0
   -3.0563   -0.4885   -0.3898 C   0  0  0  0  0  0  0  0  0  0  0  0
   -0.2747   -0.2216    0.0260 C   0  0  0  0  0  0  0  0  0  0  0  0
    2.3689   -1.6486   -0.0232 O   0  0  0  0  0  0  0  0  0  0  0  0
    3.3296    0.3758    0.0318 O   0  0  0  0  0  0  0  0  0  0  0  0
    1.0162    0.2740    0.0206 C   0  0  0  0  0  0  0  0  0  0  0  0
    0.9050    1.6229    0.0247 N   0  0  0  0  0  0  0  0  0  0  0  0
   -0.3467    2.0317    0.0260 N   0  0  0  0  0  0  0  0  0  0  0  0
   -1.0812    0.9276    0.0279 C   0  0  0  0  0  0  0  0  0  0  0  0
   -2.3093   -1.5932    0.3553 C   0  0  0  0  0  0  0  0  0  0  0  0
   -0.8187   -1.6114    0.0096 C   0  0  0  0  0  0  0  0  0  0  0  0
   -2.9785    1.6717   -0.6197 H   0  0  0  0  0  0  0  0  0  0  0  0
   -2.9429    1.1221    1.0422 H   0  0  0  0  0  0  0  0  0  0  0  0
   -4.1292   -0.5729   -0.2096 H   0  0  0  0  0  0  0  0  0  0  0  0
   -2.9093   -0.6130   -1.4673 H   0  0  0  0  0  0  0  0  0  0  0  0
    4.1567   -0.1290    0.0167 H   0  0  0  0  0  0  0  0  0  0  0  0
    1.6520    2.3001    0.0173 H   0  0  0  0  0  0  0  0  0  0  0  0
   -2.4325   -1.4460    1.4329 H   0  0  0  0  0  0  0  0  0  0  0  0
   -2.7454   -2.5661    0.1222 H   0  0  0  0  0  0  0  0  0  0  0  0
   -0.6748   -2.0461   -0.9843 H   0  0  0  0  0  0  0  0  0  0  0  0
   -0.2739   -2.2548    0.7019 H   0  0  0  0  0  0  0  0  0  0  0  0
    2.2867   -0.4446    0.0075 C   0  0  0  0  0  0  0  0  0  0  0  0
  8  7  1  0
  8  9  2  0
  7  6  1  0
  9  1  1  0
  9  3  1  0
  1  2  1  0
  6  3  2  0
  6 22  1  0
  4 22  2  0
  3 11  1  0
 22  5  1  0
  2 10  1  0
 11 10  1  0
  1 12  1  0
  1 13  1  0
  2 14  1  0
  2 15  1  0
  5 16  1  0
  7 17  1  0
 10 18  1  0
 10 19  1  0
 11 20  1  0
 11 21  1  0
M  END
