
     RDKit          3D

 43 43  0  0  0  0  0  0  0  0999 V2000
   -1.7908    2.1469   -1.3552 O   0  0  0  0  0  0  0  0  0  0  0  0
   -2.5279    1.8351   -0.4317 C   0  0  0  0  0  0  0  0  0  0  0  0
   -3.5738    2.6231   -0.0852 N   0  0  0  0  0  0  0  0  0  0  0  0
   -4.5179    2.1074    0.7666 O   0  0  0  0  0  0  0  0  0  0  0  0
   -4.0207    3.7586   -0.8553 C   0  0  0  0  0  0  0  0  0  0  0  0
   -2.3378    0.5764    0.3879 C   0  0  0  0  0  0  0  0  0  0  0  0
   -0.9849   -0.0954    0.1570 C   0  0  2  0  0  0  0  0  0  0  0  0
   -0.9825   -1.5145    0.7480 C   0  0  0  0  0  0  0  0  0  0  0  0
   -1.8049   -2.7562   -0.2697 P   0  0  1  0  0  0  0  0  0  0  0  0
   -1.4280   -4.0977    0.5354 O   0  0  0  0  0  0  0  0  0  0  0  0
   -3.4024   -2.5841   -0.1248 O   0  0  0  0  0  0  0  0  0  0  0  0
   -1.4531   -2.7404   -1.7106 O   0  0  0  0  0  0  0  0  0  0  0  0
    0.1450    0.7282    0.7850 C   0  0  0  0  0  0  0  0  0  0  0  0
    1.5367    0.3496    0.2937 C   0  0  0  0  0  0  0  0  0  0  0  0
    2.6326    1.1708    0.9754 C   0  0  0  0  0  0  0  0  0  0  0  0
    4.0023    0.8229    0.4644 C   0  0  0  0  0  0  0  0  0  0  0  0
    4.5184    1.4508   -0.6681 C   0  0  0  0  0  0  0  0  0  0  0  0
    5.7656    1.1057   -1.1711 C   0  0  0  0  0  0  0  0  0  0  0  0
    6.5204    0.1206   -0.5466 C   0  0  0  0  0  0  0  0  0  0  0  0
    6.0170   -0.5138    0.5818 C   0  0  0  0  0  0  0  0  0  0  0  0
    4.7687   -0.1642    1.0805 C   0  0  0  0  0  0  0  0  0  0  0  0
   -4.3723    2.5349    1.6217 H   0  0  0  0  0  0  0  0  0  0  0  0
   -4.7884    3.4806   -1.5806 H   0  0  0  0  0  0  0  0  0  0  0  0
   -4.4272    4.5124   -0.1825 H   0  0  0  0  0  0  0  0  0  0  0  0
   -3.1783    4.1926   -1.3842 H   0  0  0  0  0  0  0  0  0  0  0  0
   -2.4606    0.7908    1.4530 H   0  0  0  0  0  0  0  0  0  0  0  0
   -3.1582   -0.1005    0.1357 H   0  0  0  0  0  0  0  0  0  0  0  0
   -0.7990   -0.1634   -0.9183 H   0  0  0  0  0  0  0  0  0  0  0  0
    0.0453   -1.8701    0.8582 H   0  0  0  0  0  0  0  0  0  0  0  0
   -1.4091   -1.5148    1.7552 H   0  0  0  0  0  0  0  0  0  0  0  0
   -1.7069   -4.9135    0.0964 H   0  0  0  0  0  0  0  0  0  0  0  0
   -3.7446   -2.6336    0.7773 H   0  0  0  0  0  0  0  0  0  0  0  0
   -0.0131    1.7873    0.5692 H   0  0  0  0  0  0  0  0  0  0  0  0
    0.0953    0.6273    1.8754 H   0  0  0  0  0  0  0  0  0  0  0  0
    1.7340   -0.7126    0.4649 H   0  0  0  0  0  0  0  0  0  0  0  0
    1.5923    0.5012   -0.7888 H   0  0  0  0  0  0  0  0  0  0  0  0
    2.4382    2.2347    0.8117 H   0  0  0  0  0  0  0  0  0  0  0  0
    2.5840    1.0061    2.0553 H   0  0  0  0  0  0  0  0  0  0  0  0
    3.9357    2.2215   -1.1599 H   0  0  0  0  0  0  0  0  0  0  0  0
    6.1499    1.6089   -2.0494 H   0  0  0  0  0  0  0  0  0  0  0  0
    7.4950   -0.1476   -0.9336 H   0  0  0  0  0  0  0  0  0  0  0  0
    6.5997   -1.2799    1.0775 H   0  0  0  0  0  0  0  0  0  0  0  0
    4.3867   -0.6633    1.9641 H   0  0  0  0  0  0  0  0  0  0  0  0
 20 19  2  0
 20 21  1  0
 19 18  1  0
 21 16  2  0
 18 17  2  0
 16 17  1  0
 16 15  1  0
 15 14  1  0
  4  3  1  0
  5  3  1  0
 13 14  1  0
 13  7  1  0
  3  2  1  0
 12  9  2  0
  2  1  2  0
  2  6  1  0
  7  6  1  0
  7  8  1  0
  8  9  1  0
  9 11  1  6
  9 10  1  0
  4 22  1  0
  5 23  1  0
  5 24  1  0
  5 25  1  0
  6 26  1  0
  6 27  1  0
  7 28  1  6
  8 29  1  0
  8 30  1  0
 10 31  1  0
 11 32  1  0
 13 33  1  0
 13 34  1  0
 14 35  1  0
 14 36  1  0
 15 37  1  0
 15 38  1  0
 17 39  1  0
 18 40  1  0
 19 41  1  0
 20 42  1  0
 21 43  1  0
M  END
