
     RDKit          3D

 95 99  0  0  0  0  0  0  0  0999 V2000
    4.8818    0.4879    0.8441 C   0  0  2  0  0  0  0  0  0  0  0  0
    3.8543    0.6431   -0.1519 N   0  0  0  0  0  0  0  0  0  0  0  0
    7.7300    3.8287   -1.5479 O   0  0  0  0  0  0  0  0  0  0  0  0
    7.9668    2.4752   -1.0467 S   0  0  1  0  0  0  0  0  0  0  0  0
    6.1866    1.0930    0.4281 C   0  0  0  0  0  0  0  0  0  0  0  0
    2.2866   -2.2330    3.3024 N   0  0  0  0  0  0  0  0  0  0  0  0
    8.8420    2.3061    0.1128 O   0  0  0  0  0  0  0  0  0  0  0  0
    6.3979    1.7558   -0.7000 C   0  0  0  0  0  0  0  0  0  0  0  0
    0.3953    1.3392   -0.6767 N   0  0  0  0  0  0  0  0  0  0  0  0
    2.3869    1.8051    1.1224 O   0  0  0  0  0  0  0  0  0  0  0  0
    8.6034    1.4895   -2.3814 C   0  0  0  0  0  0  0  0  0  0  0  0
   -2.7791   -0.3874   -0.6688 N   0  0  0  0  0  0  0  0  0  0  0  0
   -0.3622   -0.4493   -1.8467 O   0  0  0  0  0  0  0  0  0  0  0  0
    5.0706   -0.9910    1.2333 C   0  0  0  0  0  0  0  0  0  0  0  0
   -6.2794   -0.8208   -1.4829 N   0  0  0  0  0  0  0  0  0  0  0  0
   -8.5189   -0.8602   -3.2263 O   0  0  0  0  0  0  0  0  0  0  0  0
    3.8342   -1.5921    1.8136 C   0  0  0  0  0  0  0  0  0  0  0  0
   -4.2656    0.1937    3.5644 N   0  0  0  0  0  0  0  0  0  0  0  0
   -4.5254    0.9943   -0.2555 O   0  0  0  0  0  0  0  0  0  0  0  0
    2.7475   -2.2106    1.1133 C   0  0  0  0  0  0  0  0  0  0  0  0
    1.7989   -2.6042    2.0837 C   0  0  0  0  0  0  0  0  0  0  0  0
    3.5016   -1.6327    3.1391 C   0  0  0  0  0  0  0  0  0  0  0  0
    2.4872   -2.4838   -0.2348 C   0  0  0  0  0  0  0  0  0  0  0  0
    1.3141   -3.1252   -0.5756 C   0  0  0  0  0  0  0  0  0  0  0  0
    0.3898   -3.5146    0.4067 C   0  0  0  0  0  0  0  0  0  0  0  0
    0.6176   -3.2628    1.7458 C   0  0  0  0  0  0  0  0  0  0  0  0
    2.6843    1.2681    0.0694 C   0  0  0  0  0  0  0  0  0  0  0  0
    1.7581    1.3423   -1.1436 C   0  0  2  0  0  0  0  0  0  0  0  0
    2.0973    2.6138   -1.9330 C   0  0  0  0  0  0  0  0  0  0  0  0
    1.2439    2.8493   -3.1781 C   0  0  1  0  0  0  0  0  0  0  0  0
    1.6112    4.1970   -3.7927 C   0  0  0  0  0  0  0  0  0  0  0  0
    1.3957    1.7322   -4.2058 C   0  0  0  0  0  0  0  0  0  0  0  0
   -1.7443    0.4168   -0.0826 C   0  0  1  0  0  0  0  0  0  0  0  0
   -1.3518   -0.0929    1.3272 C   0  0  0  0  0  0  0  0  0  0  0  0
   -2.5433   -0.2641    2.2060 C   0  0  0  0  0  0  0  0  0  0  0  0
   -7.5838    0.1949   -3.2695 C   0  0  0  0  0  0  0  0  0  0  0  0
   -8.5971   -1.4053   -1.9275 C   0  0  0  0  0  0  0  0  0  0  0  0
   -7.2469   -1.9031   -1.4502 C   0  0  0  0  0  0  0  0  0  0  0  0
   -6.2085   -0.2577   -2.8198 C   0  0  0  0  0  0  0  0  0  0  0  0
   -4.9928   -1.2467   -1.0070 C   0  0  0  0  0  0  0  0  0  0  0  0
   -3.3734   -1.4270    2.3095 C   0  0  0  0  0  0  0  0  0  0  0  0
   -4.4479   -1.0975    3.1656 C   0  0  0  0  0  0  0  0  0  0  0  0
   -3.1294    0.6884    2.9906 C   0  0  0  0  0  0  0  0  0  0  0  0
   -3.3170   -2.7132    1.7599 C   0  0  0  0  0  0  0  0  0  0  0  0
   -4.3156   -3.6178    2.0607 C   0  0  0  0  0  0  0  0  0  0  0  0
   -5.3799   -3.2653    2.9078 C   0  0  0  0  0  0  0  0  0  0  0  0
   -5.4594   -2.0069    3.4725 C   0  0  0  0  0  0  0  0  0  0  0  0
    4.5537    1.0238    1.7383 H   0  0  0  0  0  0  0  0  0  0  0  0
    3.9808    0.1631   -1.0299 H   0  0  0  0  0  0  0  0  0  0  0  0
    6.9954    0.9650    1.1404 H   0  0  0  0  0  0  0  0  0  0  0  0
    5.3984   -1.5522    0.3529 H   0  0  0  0  0  0  0  0  0  0  0  0
    5.8873   -1.0507    1.9566 H   0  0  0  0  0  0  0  0  0  0  0  0
    5.6464    1.9317   -1.4613 H   0  0  0  0  0  0  0  0  0  0  0  0
    9.5478    1.9352   -2.6924 H   0  0  0  0  0  0  0  0  0  0  0  0
    8.7642    0.4723   -2.0330 H   0  0  0  0  0  0  0  0  0  0  0  0
    7.8979    1.5004   -3.2092 H   0  0  0  0  0  0  0  0  0  0  0  0
    1.8375   -2.3927    4.1880 H   0  0  0  0  0  0  0  0  0  0  0  0
    4.0551   -1.2750    3.9938 H   0  0  0  0  0  0  0  0  0  0  0  0
    0.1804    1.9941    0.0602 H   0  0  0  0  0  0  0  0  0  0  0  0
    1.8908    0.4634   -1.7768 H   0  0  0  0  0  0  0  0  0  0  0  0
   -2.5078   -1.2992   -1.0027 H   0  0  0  0  0  0  0  0  0  0  0  0
   -2.1189    1.4381    0.0078 H   0  0  0  0  0  0  0  0  0  0  0  0
   -6.9299   -2.7589   -2.0706 H   0  0  0  0  0  0  0  0  0  0  0  0
   -7.3470   -2.2695   -0.4250 H   0  0  0  0  0  0  0  0  0  0  0  0
   -5.5397    0.6057   -2.8257 H   0  0  0  0  0  0  0  0  0  0  0  0
   -5.8022   -0.9877   -3.5417 H   0  0  0  0  0  0  0  0  0  0  0  0
   -5.1256   -1.8393   -0.0938 H   0  0  0  0  0  0  0  0  0  0  0  0
   -4.4741   -1.9084   -1.7219 H   0  0  0  0  0  0  0  0  0  0  0  0
   -7.5414    0.5535   -4.2990 H   0  0  0  0  0  0  0  0  0  0  0  0
   -7.9167    1.0287   -2.6350 H   0  0  0  0  0  0  0  0  0  0  0  0
   -8.9786   -0.6556   -1.2199 H   0  0  0  0  0  0  0  0  0  0  0  0
   -9.3099   -2.2302   -1.9598 H   0  0  0  0  0  0  0  0  0  0  0  0
   -4.8577    0.7017    4.1992 H   0  0  0  0  0  0  0  0  0  0  0  0
   -2.8198    1.7047    3.1798 H   0  0  0  0  0  0  0  0  0  0  0  0
    3.1966   -2.2047   -1.0048 H   0  0  0  0  0  0  0  0  0  0  0  0
   -0.0976   -3.5607    2.5028 H   0  0  0  0  0  0  0  0  0  0  0  0
    1.0983   -3.3326   -1.6151 H   0  0  0  0  0  0  0  0  0  0  0  0
   -0.5177   -4.0240    0.1073 H   0  0  0  0  0  0  0  0  0  0  0  0
    2.0006    3.4736   -1.2624 H   0  0  0  0  0  0  0  0  0  0  0  0
    3.1515    2.5706   -2.2270 H   0  0  0  0  0  0  0  0  0  0  0  0
    0.1946    2.8939   -2.8679 H   0  0  0  0  0  0  0  0  0  0  0  0
    2.6481    4.1998   -4.1375 H   0  0  0  0  0  0  0  0  0  0  0  0
    0.9780    4.4251   -4.6514 H   0  0  0  0  0  0  0  0  0  0  0  0
    1.4988    5.0100   -3.0730 H   0  0  0  0  0  0  0  0  0  0  0  0
    1.0127    0.7788   -3.8427 H   0  0  0  0  0  0  0  0  0  0  0  0
    0.8490    1.9741   -5.1189 H   0  0  0  0  0  0  0  0  0  0  0  0
    2.4448    1.5911   -4.4779 H   0  0  0  0  0  0  0  0  0  0  0  0
   -0.8160   -1.0412    1.2259 H   0  0  0  0  0  0  0  0  0  0  0  0
   -0.6443    0.6080    1.7749 H   0  0  0  0  0  0  0  0  0  0  0  0
   -2.5065   -2.9968    1.0993 H   0  0  0  0  0  0  0  0  0  0  0  0
   -6.2790   -1.7392    4.1277 H   0  0  0  0  0  0  0  0  0  0  0  0
   -4.2834   -4.6135    1.6373 H   0  0  0  0  0  0  0  0  0  0  0  0
   -6.1496   -3.9948    3.1247 H   0  0  0  0  0  0  0  0  0  0  0  0
   -0.5104    0.3930   -0.9783 C   0  0  0  0  0  0  0  0  0  0  0  0
   -4.0915   -0.0858   -0.6159 C   0  0  0  0  0  0  0  0  0  0  0  0
  1  2  1  0
  1  5  1  0
  1 14  1  0
  2 27  1  0
  3  4  2  0
  4  7  2  0
  4  8  1  1
  4 11  1  0
  5  8  2  0
  6 21  1  0
  6 22  1  0
  9 28  1  0
  9 94  1  0
 10 27  2  0
 12 33  1  0
 12 95  1  0
 13 94  2  0
 14 17  1  0
 15 38  1  0
 15 39  1  0
 15 40  1  0
 16 36  1  0
 16 37  1  0
 17 20  1  0
 17 22  2  0
 18 42  1  0
 18 43  1  0
 19 95  2  0
 20 21  2  0
 20 23  1  0
 21 26  1  0
 23 24  2  0
 24 25  1  0
 25 26  2  0
 27 28  1  0
 28 29  1  0
 29 30  1  0
 30 31  1  0
 30 32  1  0
 94 33  1  0
 33 34  1  0
 34 35  1  0
 35 41  1  0
 35 43  2  0
 36 39  1  0
 37 38  1  0
 40 95  1  0
 41 42  2  0
 41 44  1  0
 42 47  1  0
 44 45  2  0
 45 46  1  0
 46 47  2  0
  1 48  1  1
  2 49  1  0
  5 50  1  0
 14 51  1  0
 14 52  1  0
  8 53  1  0
 11 54  1  0
 11 55  1  0
 11 56  1  0
  6 57  1  0
 22 58  1  0
  9 59  1  0
 28 60  1  6
 12 61  1  0
 33 62  1  1
 38 63  1  0
 38 64  1  0
 39 65  1  0
 39 66  1  0
 40 67  1  0
 40 68  1  0
 36 69  1  0
 36 70  1  0
 37 71  1  0
 37 72  1  0
 18 73  1  0
 43 74  1  0
 23 75  1  0
 26 76  1  0
 24 77  1  0
 25 78  1  0
 29 79  1  0
 29 80  1  0
 30 81  1  1
 31 82  1  0
 31 83  1  0
 31 84  1  0
 32 85  1  0
 32 86  1  0
 32 87  1  0
 34 88  1  0
 34 89  1  0
 44 90  1  0
 47 91  1  0
 45 92  1  0
 46 93  1  0
M  END
