
     RDKit          3D

 41 43  0  0  0  0  0  0  0  0999 V2000
   -0.5167   -0.7996   -4.9988 C   0  0  0  0  0  0  0  0  0  0  0  0
   -1.2859   -1.0470   -6.1237 C   0  0  0  0  0  0  0  0  0  0  0  0
   -2.5145   -0.4191   -6.2491 C   0  0  0  0  0  0  0  0  0  0  0  0
   -2.9163    0.4363   -5.2315 C   0  0  0  0  0  0  0  0  0  0  0  0
   -2.1882    0.6800   -4.1537 N   0  0  0  0  0  0  0  0  0  0  0  0
   -1.0075    0.0754   -4.0318 C   0  0  0  0  0  0  0  0  0  0  0  0
   -0.2615    0.3904   -2.8105 C   0  0  0  0  0  0  0  0  0  0  0  0
    1.2820   -0.2966   -2.4866 S   0  0  0  0  0  0  0  0  0  0  0  0
   -0.6532    1.2381   -1.8060 C   0  0  0  0  0  0  0  0  0  0  0  0
    0.2905    1.3330   -0.7628 C   0  0  0  0  0  0  0  0  0  0  0  0
    1.3882    0.5560   -1.0019 C   0  0  0  0  0  0  0  0  0  0  0  0
    2.7362    0.2932    0.0745 S   0  0  2  0  0  0  0  0  0  0  0  0
    2.8535    1.4637    0.9186 O   0  0  0  0  0  0  0  0  0  0  0  0
    3.8479   -0.1652   -0.7364 O   0  0  0  0  0  0  0  0  0  0  0  0
    2.3028   -0.9800    1.0537 N   0  0  0  0  0  0  0  0  0  0  0  0
    2.3241   -2.3127    0.4494 C   0  0  0  0  0  0  0  0  0  0  0  0
    1.2617   -0.7054    1.9867 C   0  0  0  0  0  0  0  0  0  0  0  0
    1.5806   -0.1124    3.2033 C   0  0  0  0  0  0  0  0  0  0  0  0
    0.5865    0.1344    4.1326 C   0  0  0  0  0  0  0  0  0  0  0  0
   -0.0556   -1.0488    1.7072 C   0  0  0  0  0  0  0  0  0  0  0  0
   -1.0494   -0.7972    2.6399 C   0  0  0  0  0  0  0  0  0  0  0  0
   -0.7385   -0.1937    3.8546 C   0  0  0  0  0  0  0  0  0  0  0  0
   -1.7641    0.0633    4.9097 C   0  0  0  0  0  0  0  0  0  0  0  0
   -1.4974    0.0175    6.0985 O   0  0  0  0  0  0  0  0  0  0  0  0
   -2.9815    0.3721    4.4334 N   0  0  0  0  0  0  0  0  0  0  0  0
   -4.0400    0.4838    5.2776 O   0  0  0  0  0  0  0  0  0  0  0  0
    0.4447   -1.2850   -4.8875 H   0  0  0  0  0  0  0  0  0  0  0  0
   -0.9268   -1.7212   -6.8895 H   0  0  0  0  0  0  0  0  0  0  0  0
   -3.1498   -0.5838   -7.1079 H   0  0  0  0  0  0  0  0  0  0  0  0
   -3.8707    0.9468   -5.2925 H   0  0  0  0  0  0  0  0  0  0  0  0
   -1.5877    1.7780   -1.8265 H   0  0  0  0  0  0  0  0  0  0  0  0
    0.1657    1.9497    0.1152 H   0  0  0  0  0  0  0  0  0  0  0  0
    1.5702   -2.4551   -0.3290 H   0  0  0  0  0  0  0  0  0  0  0  0
    3.3065   -2.5149    0.0335 H   0  0  0  0  0  0  0  0  0  0  0  0
    2.1420   -3.0338    1.2420 H   0  0  0  0  0  0  0  0  0  0  0  0
    2.6083    0.1352    3.4286 H   0  0  0  0  0  0  0  0  0  0  0  0
    0.8457    0.5840    5.0815 H   0  0  0  0  0  0  0  0  0  0  0  0
   -0.3183   -1.5199    0.7691 H   0  0  0  0  0  0  0  0  0  0  0  0
   -2.0630   -1.0959    2.4066 H   0  0  0  0  0  0  0  0  0  0  0  0
   -3.1986    0.4638    3.4520 H   0  0  0  0  0  0  0  0  0  0  0  0
   -4.0739    1.4089    5.5565 H   0  0  0  0  0  0  0  0  0  0  0  0
  1  2  2  0
  1  6  1  0
  1 27  1  0
  2  3  1  0
  2 28  1  0
  3  4  2  0
  3 29  1  0
  4  5  1  0
  4 30  1  0
  5  6  2  0
  6  7  1  0
  7  8  1  0
  7  9  2  0
  8 11  1  0
  9 10  1  0
  9 31  1  0
 10 11  2  0
 10 32  1  0
 11 12  1  0
 12 13  2  0
 12 14  2  0
 12 15  1  1
 15 16  1  0
 15 17  1  0
 16 33  1  0
 16 34  1  0
 16 35  1  0
 17 18  2  0
 17 20  1  0
 18 19  1  0
 18 36  1  0
 19 22  2  0
 19 37  1  0
 20 21  2  0
 20 38  1  0
 21 22  1  0
 21 39  1  0
 22 23  1  0
 23 24  2  0
 23 25  1  0
 25 26  1  0
 25 40  1  0
 26 41  1  0
M  END
