
     RDKit          3D

 16 16  0  0  0  0  0  0  0  0999 V2000
    0.8715    0.0770    1.1979 C   0  0  0  0  0  0  0  0  0  0  0  0
   -0.5184   -0.0424    1.1987 C   0  0  0  0  0  0  0  0  0  0  0  0
   -1.1928   -0.2249   -0.0006 C   0  0  0  0  0  0  0  0  0  0  0  0
   -0.5017   -0.2880   -1.2027 C   0  0  0  0  0  0  0  0  0  0  0  0
    0.8879   -0.1679   -1.2076 C   0  0  0  0  0  0  0  0  0  0  0  0
    1.5585    0.0122   -0.0061 C   0  0  0  0  0  0  0  0  0  0  0  0
    1.5776    0.2587    2.3401 O   0  0  0  0  0  0  0  0  0  0  0  0
   -1.1361    0.0304    2.4052 O   0  0  0  0  0  0  0  0  0  0  0  0
   -1.1039   -0.4657   -2.4066 O   0  0  0  0  0  0  0  0  0  0  0  0
    1.6097   -0.2250   -2.3530 O   0  0  0  0  0  0  0  0  0  0  0  0
   -2.2747   -0.3171    0.0013 H   0  0  0  0  0  0  0  0  0  0  0  0
    2.6380    0.1057   -0.0080 H   0  0  0  0  0  0  0  0  0  0  0  0
    0.9848    0.2704    3.0998 H   0  0  0  0  0  0  0  0  0  0  0  0
   -2.0895   -0.0617    2.3073 H   0  0  0  0  0  0  0  0  0  0  0  0
   -2.0619   -0.4724   -2.3116 H   0  0  0  0  0  0  0  0  0  0  0  0
    1.0221   -0.3197   -3.1112 H   0  0  0  0  0  0  0  0  0  0  0  0
  1  2  2  0
  1  6  1  0
  1  7  1  0
  2  3  1  0
  2  8  1  0
  3  4  2  0
  3 11  1  0
  4  5  1  0
  4  9  1  0
  5  6  2  0
  5 10  1  0
  6 12  1  0
  7 13  1  0
  8 14  1  0
  9 15  1  0
 10 16  1  0
M  END
