
     RDKit          3D

 20 21  0  0  0  0  0  0  0  0999 V2000
    2.7157    0.3234   -0.0383 C   0  0  0  0  0  0  0  0  0  0  0  0
    1.4849    0.9534   -0.0200 C   0  0  0  0  0  0  0  0  0  0  0  0
    3.9893    0.8249   -0.1202 N   0  0  0  0  0  0  0  0  0  0  0  0
    2.4554   -0.9979   -0.0422 N   0  0  0  0  0  0  0  0  0  0  0  0
   -1.5650    1.2145   -0.0006 C   0  0  0  0  0  0  0  0  0  0  0  0
   -0.9116   -0.0174    0.0077 C   0  0  0  0  0  0  0  0  0  0  0  0
    0.5486   -0.1031   -0.0131 C   0  0  0  0  0  0  0  0  0  0  0  0
   -2.8832    1.3571    0.0160 N   0  0  0  0  0  0  0  0  0  0  0  0
   -3.6298    0.2600    0.0426 C   0  0  0  0  0  0  0  0  0  0  0  0
   -3.0892   -1.0181    0.0527 C   0  0  0  0  0  0  0  0  0  0  0  0
   -1.7134   -1.1581    0.0350 C   0  0  0  0  0  0  0  0  0  0  0  0
    1.1476   -1.2794   -0.0230 N   0  0  0  0  0  0  0  0  0  0  0  0
    1.3099    2.0163   -0.0064 H   0  0  0  0  0  0  0  0  0  0  0  0
    4.0584    1.7956    0.1405 H   0  0  0  0  0  0  0  0  0  0  0  0
    4.6988    0.2790    0.3452 H   0  0  0  0  0  0  0  0  0  0  0  0
    3.1270   -1.7485   -0.0625 H   0  0  0  0  0  0  0  0  0  0  0  0
   -1.2626   -2.1419    0.0420 H   0  0  0  0  0  0  0  0  0  0  0  0
   -4.7047    0.4019    0.0562 H   0  0  0  0  0  0  0  0  0  0  0  0
   -3.7376   -1.8831    0.0758 H   0  0  0  0  0  0  0  0  0  0  0  0
   -0.9902    2.1348   -0.0238 H   0  0  0  0  0  0  0  0  0  0  0  0
  1  2  2  0
  1  3  1  0
  1  4  1  0
  2  7  1  0
  4 12  1  0
  5  6  2  0
  5  8  1  0
  6  7  1  0
  6 11  1  0
  7 12  2  0
  8  9  2  0
  9 10  1  0
 10 11  2  0
  2 13  1  0
  3 14  1  0
  3 15  1  0
  4 16  1  0
  5 20  1  0
 11 17  1  0
  9 18  1  0
 10 19  1  0
M  END
