
     RDKit          3D

 47 47  0  0  0  0  0  0  0  0999 V2000
   -1.4487    1.2831    0.0731 N   0  0  0  0  0  0  0  0  0  0  0  0
   -4.8766   -0.0652    0.5875 N   0  0  0  0  0  0  0  0  0  0  0  0
    0.7754    2.4025    0.4107 C   0  0  0  0  0  0  0  0  0  0  0  0
   -0.6286    2.1186    0.9283 C   0  0  0  0  0  0  0  0  0  0  0  0
    3.4817   -0.1626    0.1419 C   0  0  0  0  0  0  0  0  0  0  0  0
   -2.8269    1.2606    0.5138 C   0  0  0  0  0  0  0  0  0  0  0  0
   -5.8518   -0.7158   -0.0648 C   0  0  0  0  0  0  0  0  0  0  0  0
    7.1853   -0.5685    0.5678 C   0  0  0  0  0  0  0  0  0  0  0  0
   -1.2941    1.5204   -1.3522 C   0  0  0  0  0  0  0  0  0  0  0  0
   -7.1786   -0.5837    0.6008 C   0  0  0  0  0  0  0  0  0  0  0  0
    5.8633   -0.7650   -0.0918 C   0  0  0  0  0  0  0  0  0  0  0  0
   -0.1532    0.6994   -1.9404 C   0  0  0  0  0  0  0  0  0  0  0  0
    1.2538    1.1275   -1.5547 C   0  0  0  0  0  0  0  0  0  0  0  0
   -3.4894   -0.0716    0.1825 C   0  0  0  0  0  0  0  0  0  0  0  0
    1.4755    1.2415   -0.1193 N   0  0  0  0  0  0  0  0  0  0  0  0
    4.8644   -0.1493    0.5593 N   0  0  0  0  0  0  0  0  0  0  0  0
    8.1963   -1.0988    0.0192 N   0  0  0  0  0  0  0  0  0  0  0  0
   -8.1506   -1.2237    0.1007 N   0  0  0  0  0  0  0  0  0  0  0  0
   -5.6889   -1.3488   -1.0964 O   0  0  0  0  0  0  0  0  0  0  0  0
    5.7264   -1.4147   -1.1167 O   0  0  0  0  0  0  0  0  0  0  0  0
    9.3457   -0.8641    0.6831 O   0  0  0  0  0  0  0  0  0  0  0  0
   -9.3056   -1.0426    0.7721 O   0  0  0  0  0  0  0  0  0  0  0  0
   -5.0971    0.3630    1.4735 H   0  0  0  0  0  0  0  0  0  0  0  0
    0.7479    3.2133   -0.3327 H   0  0  0  0  0  0  0  0  0  0  0  0
    1.3297    2.8045    1.2605 H   0  0  0  0  0  0  0  0  0  0  0  0
   -1.0921    3.1022    1.1147 H   0  0  0  0  0  0  0  0  0  0  0  0
   -0.5524    1.6260    1.9028 H   0  0  0  0  0  0  0  0  0  0  0  0
    3.0183    1.6200    1.2179 H   0  0  0  0  0  0  0  0  0  0  0  0
    3.4759    1.9117   -0.4555 H   0  0  0  0  0  0  0  0  0  0  0  0
    2.8957   -0.8236    0.7863 H   0  0  0  0  0  0  0  0  0  0  0  0
    3.4388   -0.5689   -0.8668 H   0  0  0  0  0  0  0  0  0  0  0  0
   -2.8462    1.3969    1.5990 H   0  0  0  0  0  0  0  0  0  0  0  0
   -3.4201    2.0853    0.0881 H   0  0  0  0  0  0  0  0  0  0  0  0
    7.2530    0.0187    1.4828 H   0  0  0  0  0  0  0  0  0  0  0  0
   -2.2131    1.2093   -1.8534 H   0  0  0  0  0  0  0  0  0  0  0  0
   -1.1767    2.5893   -1.5910 H   0  0  0  0  0  0  0  0  0  0  0  0
   -7.2807    0.0425    1.4862 H   0  0  0  0  0  0  0  0  0  0  0  0
   -0.3089   -0.3428   -1.6498 H   0  0  0  0  0  0  0  0  0  0  0  0
   -0.2164    0.7373   -3.0316 H   0  0  0  0  0  0  0  0  0  0  0  0
    1.9445    0.3907   -1.9683 H   0  0  0  0  0  0  0  0  0  0  0  0
    1.4937    2.0847   -2.0499 H   0  0  0  0  0  0  0  0  0  0  0  0
   -2.9433   -0.8788    0.6795 H   0  0  0  0  0  0  0  0  0  0  0  0
   -3.4461   -0.2682   -0.8884 H   0  0  0  0  0  0  0  0  0  0  0  0
    5.0803    0.3374    1.4155 H   0  0  0  0  0  0  0  0  0  0  0  0
   10.0268   -1.2979    0.1562 H   0  0  0  0  0  0  0  0  0  0  0  0
   -9.9482   -1.5927    0.3096 H   0  0  0  0  0  0  0  0  0  0  0  0
    2.8925    1.2442    0.1993 C   0  0  0  0  0  0  0  0  0  0  0  0
 21 17  1  0
 17  8  2  0
  8 11  1  0
 11 16  1  0
 11 20  2  0
 16  5  1  0
  5 47  1  0
 47 15  1  0
 15 13  1  0
 15  3  1  0
 13 12  1  0
 12  9  1  0
  3  4  1  0
  4  1  1  0
  9  1  1  0
  1  6  1  0
  6 14  1  0
 14  2  1  0
 19  7  2  0
  2  7  1  0
  7 10  1  0
 10 18  2  0
 18 22  1  0
  2 23  1  0
  3 24  1  0
  3 25  1  0
  4 26  1  0
  4 27  1  0
 47 28  1  0
 47 29  1  0
  5 30  1  0
  5 31  1  0
  6 32  1  0
  6 33  1  0
  8 34  1  0
  9 35  1  0
  9 36  1  0
 10 37  1  0
 12 38  1  0
 12 39  1  0
 13 40  1  0
 13 41  1  0
 14 42  1  0
 14 43  1  0
 16 44  1  0
 21 45  1  0
 22 46  1  0
M  END
