
     RDKit          3D

 47 50  0  0  0  0  0  0  0  0999 V2000
    2.8197    1.8165   -1.0650 C   0  0  0  0  0  0  0  0  0  0  0  0
    3.1117    2.8200   -1.9729 C   0  0  0  0  0  0  0  0  0  0  0  0
   -1.6414   -1.2702    1.7946 C   0  0  0  0  0  0  0  0  0  0  0  0
    2.2389    3.8982   -2.1826 C   0  0  0  0  0  0  0  0  0  0  0  0
    1.0454    4.0059   -1.4909 C   0  0  0  0  0  0  0  0  0  0  0  0
    0.7355    3.0049   -0.5724 C   0  0  0  0  0  0  0  0  0  0  0  0
   -0.3596    2.8510    0.2453 N   0  0  0  0  0  0  0  0  0  0  0  0
   -2.2335   -2.3532    1.1590 C   0  0  0  0  0  0  0  0  0  0  0  0
   -3.1877   -1.0172   -0.4068 C   0  0  0  0  0  0  0  0  0  0  0  0
    1.0752   -3.7136    0.2309 C   0  0  0  0  0  0  0  0  0  0  0  0
    1.1664   -1.3255    0.3574 C   0  0  0  0  0  0  0  0  0  0  0  0
    1.4708   -2.5733    0.9172 C   0  0  0  0  0  0  0  0  0  0  0  0
    0.3979   -3.6337   -0.9780 C   0  0  0  0  0  0  0  0  0  0  0  0
    0.4983   -1.2550   -0.8554 C   0  0  0  0  0  0  0  0  0  0  0  0
   -2.0882    2.2131    2.1801 O   0  0  0  0  0  0  0  0  0  0  0  0
   -1.1589    1.2139    1.8788 C   0  0  1  0  0  0  0  0  0  0  0  0
   -1.8297   -0.0023    1.2718 C   0  0  0  0  0  0  0  0  0  0  0  0
   -2.9961   -2.2393    0.0820 N   0  0  0  0  0  0  0  0  0  0  0  0
   -2.6297    0.1239    0.1421 C   0  0  0  0  0  0  0  0  0  0  0  0
   -0.1462    1.7496    0.9044 C   0  0  0  0  0  0  0  0  0  0  0  0
    1.0300    1.1476    0.5877 N   0  0  0  0  0  0  0  0  0  0  0  0
    1.6207    1.9353   -0.3737 C   0  0  0  0  0  0  0  0  0  0  0  0
    2.1930   -2.6857    2.2284 C   0  0  0  0  0  0  0  0  0  0  0  0
    0.1007   -2.4005   -1.5414 C   0  0  0  0  0  0  0  0  0  0  0  0
    3.4952    0.9848   -0.9126 H   0  0  0  0  0  0  0  0  0  0  0  0
    4.0344    2.7708   -2.5358 H   0  0  0  0  0  0  0  0  0  0  0  0
   -1.0336   -1.4288    2.6769 H   0  0  0  0  0  0  0  0  0  0  0  0
    2.5072    4.6600   -2.9026 H   0  0  0  0  0  0  0  0  0  0  0  0
    0.3718    4.8369   -1.6550 H   0  0  0  0  0  0  0  0  0  0  0  0
   -2.0801   -3.3545    1.5452 H   0  0  0  0  0  0  0  0  0  0  0  0
   -3.8169   -0.9417   -1.2868 H   0  0  0  0  0  0  0  0  0  0  0  0
    1.2972   -4.6871    0.6523 H   0  0  0  0  0  0  0  0  0  0  0  0
    0.1008   -4.5446   -1.4843 H   0  0  0  0  0  0  0  0  0  0  0  0
    0.2590   -0.2894   -1.2858 H   0  0  0  0  0  0  0  0  0  0  0  0
   -0.1590   -1.5962   -3.5250 H   0  0  0  0  0  0  0  0  0  0  0  0
   -0.7217   -3.2559   -3.3381 H   0  0  0  0  0  0  0  0  0  0  0  0
   -1.6601   -1.9237   -2.6754 H   0  0  0  0  0  0  0  0  0  0  0  0
   -1.9796    2.9213    1.5276 H   0  0  0  0  0  0  0  0  0  0  0  0
   -0.6479    0.9076    2.8006 H   0  0  0  0  0  0  0  0  0  0  0  0
   -2.8124    1.0867   -0.3180 H   0  0  0  0  0  0  0  0  0  0  0  0
    1.6392   -2.2120    3.0430 H   0  0  0  0  0  0  0  0  0  0  0  0
    2.3430   -3.7286    2.5029 H   0  0  0  0  0  0  0  0  0  0  0  0
    3.1754   -2.2096    2.1961 H   0  0  0  0  0  0  0  0  0  0  0  0
    1.5643   -0.0834    1.1196 C   0  0  0  0  0  0  0  0  0  0  0  0
   -0.6448   -2.2906   -2.8385 C   0  0  0  0  0  0  0  0  0  0  0  0
    1.2541   -0.1627    2.1635 H   0  0  0  0  0  0  0  0  0  0  0  0
    2.6522    0.0147    1.1538 H   0  0  0  0  0  0  0  0  0  0  0  0
  9 19  2  0
  9 18  1  0
 19 17  1  0
 18  8  2  0
 17 16  1  0
 17  3  2  0
 16 15  1  0
 16 20  1  0
  7 20  2  0
  7  6  1  0
  8  3  1  0
 20 21  1  0
  5  6  2  0
  5  4  1  0
  6 22  1  0
  4  2  2  0
 21 22  1  0
 21 44  1  0
 22  1  2  0
 45 24  1  0
 14 24  2  0
 14 11  1  0
 44 11  1  0
  2  1  1  0
 24 13  1  0
 11 12  2  0
 13 10  2  0
 12 10  1  0
 12 23  1  0
  1 25  1  0
  2 26  1  0
  3 27  1  0
  4 28  1  0
  5 29  1  0
  8 30  1  0
  9 31  1  0
 44 46  1  0
 44 47  1  0
 10 32  1  0
 13 33  1  0
 14 34  1  0
 45 35  1  0
 45 36  1  0
 45 37  1  0
 15 38  1  0
 16 39  1  1
 19 40  1  0
 23 41  1  0
 23 42  1  0
 23 43  1  0
M  END
