
     RDKit          3D

 33 34  0  0  0  0  0  0  0  0999 V2000
    4.0937    1.4849    2.0121 C   0  0  0  0  0  0  0  0  0  0  0  0
    4.6636    0.4679    1.0647 C   0  0  0  0  0  0  0  0  0  0  0  0
    5.9598   -0.0072    1.2377 C   0  0  0  0  0  0  0  0  0  0  0  0
    6.4977   -0.9344    0.3583 C   0  0  0  0  0  0  0  0  0  0  0  0
    5.7447   -1.4045   -0.7060 C   0  0  0  0  0  0  0  0  0  0  0  0
    4.4406   -0.9603   -0.9050 C   0  0  0  0  0  0  0  0  0  0  0  0
    3.6270   -1.4890   -2.0529 C   0  0  0  0  0  0  0  0  0  0  0  0
    3.9158   -0.0253   -0.0082 C   0  0  0  0  0  0  0  0  0  0  0  0
    2.5339    0.5121   -0.2368 C   0  0  0  0  0  0  0  0  0  0  0  0
    2.3387    1.5885   -0.7712 O   0  0  0  0  0  0  0  0  0  0  0  0
    1.5554   -0.3138    0.2070 N   0  0  0  0  0  0  0  0  0  0  0  0
    0.1674   -0.1628    0.1241 C   0  0  0  0  0  0  0  0  0  0  0  0
   -0.6085   -1.2361    0.5518 C   0  0  0  0  0  0  0  0  0  0  0  0
   -1.9884   -1.1662    0.5075 C   0  0  0  0  0  0  0  0  0  0  0  0
   -2.9898   -2.6522    1.0941 Br  0  0  0  0  0  0  0  0  0  0  0  0
   -2.6575   -0.0332    0.0391 C   0  0  0  0  0  0  0  0  0  0  0  0
   -3.9827    0.1063   -0.0346 O   0  0  0  0  0  0  0  0  0  0  0  0
   -1.8528    1.0265   -0.3813 C   0  0  0  0  0  0  0  0  0  0  0  0
   -2.6943    2.5832   -1.0213 Br  0  0  0  0  0  0  0  0  0  0  0  0
   -0.4694    0.9830   -0.3472 C   0  0  0  0  0  0  0  0  0  0  0  0
    3.9372    2.4451    1.5188 H   0  0  0  0  0  0  0  0  0  0  0  0
    3.1305    1.1703    2.4173 H   0  0  0  0  0  0  0  0  0  0  0  0
    4.7651    1.6514    2.8527 H   0  0  0  0  0  0  0  0  0  0  0  0
    6.5533    0.3593    2.0664 H   0  0  0  0  0  0  0  0  0  0  0  0
    7.5095   -1.2905    0.5029 H   0  0  0  0  0  0  0  0  0  0  0  0
    6.1727   -2.1244   -1.3929 H   0  0  0  0  0  0  0  0  0  0  0  0
    2.8458   -2.1702   -1.7110 H   0  0  0  0  0  0  0  0  0  0  0  0
    3.1363   -0.6909   -2.6111 H   0  0  0  0  0  0  0  0  0  0  0  0
    4.2543   -2.0400   -2.7514 H   0  0  0  0  0  0  0  0  0  0  0  0
    1.8679   -1.1693    0.6429 H   0  0  0  0  0  0  0  0  0  0  0  0
   -0.1278   -2.1325    0.9226 H   0  0  0  0  0  0  0  0  0  0  0  0
   -4.4539   -0.6695    0.2955 H   0  0  0  0  0  0  0  0  0  0  0  0
    0.0999    1.8337   -0.6835 H   0  0  0  0  0  0  0  0  0  0  0  0
  1  2  1  0
  2  3  2  0
  2  8  1  0
  3  4  1  0
  4  5  2  0
  5  6  1  0
  6  7  1  0
  6  8  2  0
  8  9  1  0
  9 10  2  0
  9 11  1  0
 11 12  1  0
 12 13  2  0
 12 20  1  0
 13 14  1  0
 14 15  1  0
 14 16  2  0
 16 17  1  0
 16 18  1  0
 18 19  1  0
 18 20  2  0
  1 21  1  0
  1 22  1  0
  1 23  1  0
  3 24  1  0
  4 25  1  0
  5 26  1  0
  7 27  1  0
  7 28  1  0
  7 29  1  0
 11 30  1  0
 13 31  1  0
 17 32  1  0
 20 33  1  0
M  END
