
     RDKit          3D

 43 45  0  0  0  0  0  0  0  0999 V2000
   -0.7809    1.8301    0.2983 C   0  0  0  0  0  0  0  0  0  0  0  0
   -4.8573   -0.5539   -0.7090 C   0  0  0  0  0  0  0  0  0  0  0  0
    2.4641    1.7697    0.6180 C   0  0  0  0  0  0  0  0  0  0  0  0
    4.0437   -0.4898    0.4102 C   0  0  0  0  0  0  0  0  0  0  0  0
   -2.8490    0.7448   -0.4166 C   0  0  0  0  0  0  0  0  0  0  0  0
    3.9020    0.3544   -0.7033 C   0  0  0  0  0  0  0  0  0  0  0  0
    3.1080    1.4874   -0.5788 C   0  0  0  0  0  0  0  0  0  0  0  0
   -4.0914   -0.8839    0.3562 C   0  0  0  0  0  0  0  0  0  0  0  0
    3.3870   -0.1837    1.6006 C   0  0  0  0  0  0  0  0  0  0  0  0
    2.5910    0.9427    1.7207 C   0  0  0  0  0  0  0  0  0  0  0  0
    4.8708   -1.7191    0.3634 C   0  0  0  0  0  0  0  0  0  0  0  0
    4.5054    0.0349   -2.0453 C   0  0  0  0  0  0  0  0  0  0  0  0
    6.2519   -1.6520    0.1884 C   0  0  0  0  0  0  0  0  0  0  0  0
    4.2723   -2.9655    0.5374 C   0  0  0  0  0  0  0  0  0  0  0  0
    3.6710   -0.9912   -2.8102 C   0  0  0  0  0  0  0  0  0  0  0  0
    7.0172   -2.8093    0.1799 C   0  0  0  0  0  0  0  0  0  0  0  0
    5.0374   -4.1238    0.5250 C   0  0  0  0  0  0  0  0  0  0  0  0
    6.4118   -4.0486    0.3444 C   0  0  0  0  0  0  0  0  0  0  0  0
    0.0756    2.8279   -0.1219 N   0  0  0  0  0  0  0  0  0  0  0  0
   -1.8341    1.6587   -0.5673 N   0  0  0  0  0  0  0  0  0  0  0  0
   -2.9548   -0.1430    0.5113 N   0  0  0  0  0  0  0  0  0  0  0  0
    1.1434    3.4898    2.0964 O   0  0  0  0  0  0  0  0  0  0  0  0
    2.0648    4.2654   -0.1051 O   0  0  0  0  0  0  0  0  0  0  0  0
   -0.5972    1.1992    1.3086 O   0  0  0  0  0  0  0  0  0  0  0  0
    1.4736    3.2247    0.7139 S   0  0  1  0  0  0  0  0  0  0  0  0
   -4.1432    0.7569   -1.5797 S   0  0  0  0  0  0  0  0  0  0  0  0
    2.9936    2.1442   -1.4325 H   0  0  0  0  0  0  0  0  0  0  0  0
   -4.3196   -1.6699    1.0617 H   0  0  0  0  0  0  0  0  0  0  0  0
    3.5086   -0.8364    2.4556 H   0  0  0  0  0  0  0  0  0  0  0  0
    2.0958    1.1640    2.6549 H   0  0  0  0  0  0  0  0  0  0  0  0
    4.5723    0.9533   -2.6310 H   0  0  0  0  0  0  0  0  0  0  0  0
    5.5253   -0.3329   -1.9381 H   0  0  0  0  0  0  0  0  0  0  0  0
    6.7344   -0.6893    0.0724 H   0  0  0  0  0  0  0  0  0  0  0  0
    3.1996   -3.0305    0.6726 H   0  0  0  0  0  0  0  0  0  0  0  0
    3.5729   -1.9219   -2.2507 H   0  0  0  0  0  0  0  0  0  0  0  0
    2.6680   -0.6112   -3.0069 H   0  0  0  0  0  0  0  0  0  0  0  0
    4.1357   -1.2258   -3.7679 H   0  0  0  0  0  0  0  0  0  0  0  0
    8.0894   -2.7417    0.0504 H   0  0  0  0  0  0  0  0  0  0  0  0
    4.5578   -5.0849    0.6573 H   0  0  0  0  0  0  0  0  0  0  0  0
    7.0102   -4.9503    0.3346 H   0  0  0  0  0  0  0  0  0  0  0  0
   -0.0399    3.2947   -1.0136 H   0  0  0  0  0  0  0  0  0  0  0  0
   -1.8842    2.2615   -1.3757 H   0  0  0  0  0  0  0  0  0  0  0  0
   -6.4516   -1.3186   -1.2569 Br  0  0  0  0  0  0  0  0  0  0  0  0
 17 14  2  0
 17 18  1  0
 14 11  1  0
  9 10  2  0
  9  4  1  0
 18 16  2  0
 10  3  1  0
 11  4  1  0
 11 13  2  0
 21  5  2  0
 21  8  1  0
 20  5  1  0
 20  1  1  0
  4  6  2  0
 19  1  1  0
 25 19  1  6
 16 13  1  0
 23 25  2  0
  5 26  1  0
  8  2  2  0
  3 25  1  0
  3  7  2  0
  1 24  2  0
 25 22  2  0
  6  7  1  0
  6 12  1  0
  2 26  1  0
  2 43  1  0
 12 15  1  0
  7 27  1  0
  8 28  1  0
  9 29  1  0
 10 30  1  0
 12 31  1  0
 12 32  1  0
 13 33  1  0
 14 34  1  0
 15 35  1  0
 15 36  1  0
 15 37  1  0
 16 38  1  0
 17 39  1  0
 18 40  1  0
 19 41  1  0
 20 42  1  0
M  END
