
     RDKit          3D

 49 51  0  0  0  0  0  0  0  0999 V2000
    4.6841    3.1724   -0.6163 C   0  0  0  0  0  0  0  0  0  0  0  0
    2.9706    1.8408   -0.2960 C   0  0  0  0  0  0  0  0  0  0  0  0
    2.0648    2.8798   -0.4018 C   0  0  0  0  0  0  0  0  0  0  0  0
    0.9018    1.1462   -0.0713 C   0  0  0  0  0  0  0  0  0  0  0  0
   -1.7859    1.1384    0.3091 C   0  0  0  0  0  0  0  0  0  0  0  0
   -2.9997    0.2520    0.5107 C   0  0  0  0  0  0  0  0  0  0  0  0
   -1.1054   -2.7686   -1.4232 N   0  0  0  0  0  0  0  0  0  0  0  0
   -2.0591   -2.2245   -1.8205 N   0  0  0  0  0  0  0  0  0  0  0  0
    2.7393   -0.6000    0.1359 C   0  0  2  0  0  0  0  0  0  0  0  0
    2.0140   -2.7902   -0.0467 C   0  0  2  0  0  0  0  0  0  0  0  0
    0.5792   -3.2521    0.1496 C   0  0  0  0  0  0  0  0  0  0  0  0
    2.6022   -1.1437    1.5568 C   0  0  1  0  0  0  0  0  0  0  0  0
    2.6046    4.1566   -0.6336 C   0  0  0  0  0  0  0  0  0  0  0  0
    2.7487   -2.6484    1.3002 C   0  0  2  0  0  0  0  0  0  0  0  0
   -5.4312    0.2180    0.7374 C   0  0  0  0  0  0  0  0  0  0  0  0
   -5.9722   -0.3154   -0.5835 C   0  0  0  0  0  0  0  0  0  0  0  0
    1.8493    5.2491   -0.7555 N   0  0  0  0  0  0  0  0  0  0  0  0
    3.9354    4.2633   -0.7350 N   0  0  0  0  0  0  0  0  0  0  0  0
    4.2913    1.9277   -0.3958 N   0  0  0  0  0  0  0  0  0  0  0  0
    0.7771    2.4247   -0.2636 N   0  0  0  0  0  0  0  0  0  0  0  0
   -4.1675    0.8980    0.5641 N   0  0  0  0  0  0  0  0  0  0  0  0
    2.2120    0.7195   -0.0749 N   0  0  0  0  0  0  0  0  0  0  0  0
   -0.0840   -3.2402   -1.1663 N   0  0  0  0  0  0  0  0  0  0  0  0
   -2.8846   -0.9610    0.6214 O   0  0  0  0  0  0  0  0  0  0  0  0
    2.0375   -1.5124   -0.6704 O   0  0  0  0  0  0  0  0  0  0  0  0
    4.1108   -2.9365    1.1823 O   0  0  0  0  0  0  0  0  0  0  0  0
    3.5606   -0.5616    2.3738 O   0  0  0  0  0  0  0  0  0  0  0  0
   -0.3914    0.0057    0.1417 S   0  0  0  0  0  0  0  0  0  0  0  0
   -7.5544   -1.1604   -0.2550 S   0  0  0  0  0  0  0  0  0  0  0  0
    5.7536    3.3259   -0.7114 H   0  0  0  0  0  0  0  0  0  0  0  0
   -1.8868    1.7545   -0.5849 H   0  0  0  0  0  0  0  0  0  0  0  0
   -1.6427    1.8031    1.1624 H   0  0  0  0  0  0  0  0  0  0  0  0
   -2.9252   -2.7744   -1.7942 H   0  0  0  0  0  0  0  0  0  0  0  0
    3.7985   -0.5460   -0.1389 H   0  0  0  0  0  0  0  0  0  0  0  0
    2.5226   -3.5141   -0.6902 H   0  0  0  0  0  0  0  0  0  0  0  0
    0.5713   -4.2985    0.4549 H   0  0  0  0  0  0  0  0  0  0  0  0
    0.0058   -2.6595    0.8611 H   0  0  0  0  0  0  0  0  0  0  0  0
    1.5832   -0.9546    1.9213 H   0  0  0  0  0  0  0  0  0  0  0  0
    2.2703   -3.2491    2.0836 H   0  0  0  0  0  0  0  0  0  0  0  0
   -6.1328    0.9292    1.1720 H   0  0  0  0  0  0  0  0  0  0  0  0
   -5.3066   -0.5948    1.4536 H   0  0  0  0  0  0  0  0  0  0  0  0
   -6.1333    0.5041   -1.2830 H   0  0  0  0  0  0  0  0  0  0  0  0
   -5.2676   -1.0192   -1.0256 H   0  0  0  0  0  0  0  0  0  0  0  0
    0.8480    5.1995   -0.6929 H   0  0  0  0  0  0  0  0  0  0  0  0
    2.2743    6.1450   -0.9203 H   0  0  0  0  0  0  0  0  0  0  0  0
   -4.1841    1.8958    0.4246 H   0  0  0  0  0  0  0  0  0  0  0  0
    4.2163   -3.8858    1.0628 H   0  0  0  0  0  0  0  0  0  0  0  0
    3.3420   -0.7476    3.2922 H   0  0  0  0  0  0  0  0  0  0  0  0
   -7.8658   -1.4373   -1.5250 H   0  0  0  0  0  0  0  0  0  0  0  0
 16 15  1  0
 16 29  1  0
 15 21  1  0
 24  6  2  0
 21  6  1  0
  6  5  1  0
  8  7  2  0
  7 23  2  0
 17 13  1  0
  5 28  1  0
 23 11  1  0
 20  3  1  0
 20  4  2  0
 13  3  2  0
 13 18  1  0
  3  2  1  0
 28  4  1  0
  4 22  1  0
 18  1  2  0
 25 10  1  0
 25  9  1  0
  2 22  1  0
  2 19  2  0
 22  9  1  0
  1 19  1  0
 11 10  1  0
 10 14  1  0
  9 12  1  0
 12 14  1  0
 12 27  1  0
 14 26  1  0
  1 30  1  0
  5 31  1  0
  5 32  1  0
  8 33  1  0
  9 34  1  6
 10 35  1  6
 11 36  1  0
 11 37  1  0
 12 38  1  1
 14 39  1  1
 15 40  1  0
 15 41  1  0
 16 42  1  0
 16 43  1  0
 17 44  1  0
 17 45  1  0
 21 46  1  0
 26 47  1  0
 27 48  1  0
 29 49  1  0
M  CHG  1   7   1
M  END
