
     RDKit          3D

 13 13  0  0  0  0  0  0  0  0999 V2000
    2.1533   -0.5792    0.0315 C   0  0  0  0  0  0  0  0  0  0  0  0
    0.6712   -0.5261    0.0246 C   0  0  0  0  0  0  0  0  0  0  0  0
   -0.2358   -1.5014    0.0949 C   0  0  0  0  0  0  0  0  0  0  0  0
   -1.6125   -0.9235    0.0498 C   0  0  0  0  0  0  0  0  0  0  0  0
   -1.5522    0.4048   -0.0495 C   0  0  0  0  0  0  0  0  0  0  0  0
   -0.1038    0.7664   -0.0727 C   0  0  0  0  0  0  0  0  0  0  0  0
    0.3756    1.8702   -0.1520 O   0  0  0  0  0  0  0  0  0  0  0  0
    2.5686   -0.1611   -0.8875 H   0  0  0  0  0  0  0  0  0  0  0  0
    2.5653    0.0024    0.8584 H   0  0  0  0  0  0  0  0  0  0  0  0
    2.5084   -1.6037    0.1281 H   0  0  0  0  0  0  0  0  0  0  0  0
   -0.0393   -2.5611    0.1732 H   0  0  0  0  0  0  0  0  0  0  0  0
   -2.5071   -1.5278    0.0941 H   0  0  0  0  0  0  0  0  0  0  0  0
   -2.3628    1.1146   -0.1050 H   0  0  0  0  0  0  0  0  0  0  0  0
  5  6  1  0
  5  4  2  0
  7  6  2  0
  6  2  1  0
  4  3  1  0
  2  3  2  0
  2  1  1  0
  1  8  1  0
  1  9  1  0
  1 10  1  0
  3 11  1  0
  4 12  1  0
  5 13  1  0
M  END
