
     RDKit          3D

 39 40  0  0  0  0  0  0  0  0999 V2000
   -1.7417   -0.7217    1.5848 C   0  0  0  0  0  0  0  0  0  0  0  0
   -3.0612   -0.3516    1.4159 C   0  0  0  0  0  0  0  0  0  0  0  0
   -3.4949    0.0663    0.1661 C   0  0  0  0  0  0  0  0  0  0  0  0
   -5.1767    0.5296   -0.0849 S   0  0  1  0  0  0  0  0  0  0  0  0
   -5.6421    0.0171   -1.3662 O   0  0  0  0  0  0  0  0  0  0  0  0
   -5.9250    0.1708    1.1133 O   0  0  0  0  0  0  0  0  0  0  0  0
   -5.0316    2.1639   -0.2873 N   0  0  0  0  0  0  0  0  0  0  0  0
   -2.6140    0.1087   -0.9063 C   0  0  0  0  0  0  0  0  0  0  0  0
   -1.2920   -0.2593   -0.7406 C   0  0  0  0  0  0  0  0  0  0  0  0
   -0.8416   -0.6812    0.5157 C   0  0  0  0  0  0  0  0  0  0  0  0
    0.4638   -1.0754    0.7820 N   0  0  0  0  0  0  0  0  0  0  0  0
    1.5383   -1.1321   -0.0521 C   0  0  0  0  0  0  0  0  0  0  0  0
    1.5336   -0.7793   -1.2118 O   0  0  0  0  0  0  0  0  0  0  0  0
    2.7794   -1.7321    0.6061 C   0  0  0  0  0  0  0  0  0  0  0  0
    3.9859   -1.4393   -0.0996 N   0  0  0  0  0  0  0  0  0  0  0  0
    4.4029   -2.3524   -1.1399 C   0  0  0  0  0  0  0  0  0  0  0  0
    4.4884   -0.1564   -0.0816 C   0  0  0  0  0  0  0  0  0  0  0  0
    3.9692    0.8330    0.7729 C   0  0  0  0  0  0  0  0  0  0  0  0
    4.5148    2.1066    0.8041 C   0  0  0  0  0  0  0  0  0  0  0  0
    5.5841    2.4536   -0.0103 C   0  0  0  0  0  0  0  0  0  0  0  0
    6.0960    1.4888   -0.8666 C   0  0  0  0  0  0  0  0  0  0  0  0
    5.5630    0.2100   -0.9106 C   0  0  0  0  0  0  0  0  0  0  0  0
   -1.4048   -1.0472    2.5613 H   0  0  0  0  0  0  0  0  0  0  0  0
   -3.7378   -0.3922    2.2581 H   0  0  0  0  0  0  0  0  0  0  0  0
   -5.8705    2.5612   -0.7010 H   0  0  0  0  0  0  0  0  0  0  0  0
   -4.8096    2.6467    0.5775 H   0  0  0  0  0  0  0  0  0  0  0  0
   -2.9472    0.4310   -1.8838 H   0  0  0  0  0  0  0  0  0  0  0  0
   -0.6266   -0.2173   -1.5860 H   0  0  0  0  0  0  0  0  0  0  0  0
    0.6299   -1.3720    1.7329 H   0  0  0  0  0  0  0  0  0  0  0  0
    2.8462   -1.4293    1.6552 H   0  0  0  0  0  0  0  0  0  0  0  0
    2.6377   -2.8154    0.6332 H   0  0  0  0  0  0  0  0  0  0  0  0
    4.1816   -1.9796   -2.1444 H   0  0  0  0  0  0  0  0  0  0  0  0
    5.4731   -2.5598   -1.0830 H   0  0  0  0  0  0  0  0  0  0  0  0
    3.8849   -3.2994   -1.0134 H   0  0  0  0  0  0  0  0  0  0  0  0
    3.1316    0.6317    1.4270 H   0  0  0  0  0  0  0  0  0  0  0  0
    4.0858    2.8372    1.4782 H   0  0  0  0  0  0  0  0  0  0  0  0
    6.0020    3.4509    0.0172 H   0  0  0  0  0  0  0  0  0  0  0  0
    6.9260    1.7283   -1.5198 H   0  0  0  0  0  0  0  0  0  0  0  0
    5.9964   -0.4999   -1.6005 H   0  0  0  0  0  0  0  0  0  0  0  0
 16 15  1  0
 14 15  1  0
 14 12  1  0
 15 17  1  0
 13 12  2  0
 12 11  1  0
 18 17  2  0
 18 19  1  0
 17 22  1  0
 11 10  1  0
 19 20  2  0
 22 21  2  0
 10  1  2  0
 10  9  1  0
  1  2  1  0
  9  8  2  0
 20 21  1  0
  2  3  2  0
  8  3  1  0
  3  4  1  0
  4  7  1  6
  6  4  2  0
  4  5  2  0
  1 23  1  0
  2 24  1  0
  7 25  1  0
  7 26  1  0
  8 27  1  0
  9 28  1  0
 11 29  1  0
 14 30  1  0
 14 31  1  0
 16 32  1  0
 16 33  1  0
 16 34  1  0
 18 35  1  0
 19 36  1  0
 20 37  1  0
 21 38  1  0
 22 39  1  0
M  END
