
     RDKit          3D

 42 43  0  0  0  0  0  0  0  0999 V2000
   -2.3248   -0.5972    1.0809 O   0  0  0  0  0  0  0  0  0  0  0  0
   -2.5939    0.2051   -0.0395 C   0  0  1  0  0  0  0  0  0  0  0  0
   -4.0558    0.6352   -0.1221 C   0  0  0  0  0  0  0  0  0  0  0  0
   -4.9210   -0.5171   -0.2493 N   0  0  0  0  0  0  0  0  0  0  0  0
   -6.3651   -0.2849   -0.1188 C   0  0  1  0  0  0  0  0  0  0  0  0
   -6.8892    0.7909   -1.0765 C   0  0  0  0  0  0  0  0  0  0  0  0
   -7.0456   -1.6163   -0.4335 C   0  0  0  0  0  0  0  0  0  0  0  0
   -1.6980    1.4321   -0.1029 C   0  0  0  0  0  0  0  0  0  0  0  0
   -0.3592    1.0009   -0.0589 O   0  0  0  0  0  0  0  0  0  0  0  0
    0.6202    1.9079   -0.1126 C   0  0  0  0  0  0  0  0  0  0  0  0
    0.4471    3.2670   -0.2890 C   0  0  0  0  0  0  0  0  0  0  0  0
    1.5555    4.1310   -0.3449 C   0  0  0  0  0  0  0  0  0  0  0  0
    2.8476    3.6823   -0.2280 C   0  0  0  0  0  0  0  0  0  0  0  0
    3.0167    2.3072   -0.0429 C   0  0  0  0  0  0  0  0  0  0  0  0
    1.9326    1.4098    0.0213 C   0  0  0  0  0  0  0  0  0  0  0  0
    4.1588    1.5882    0.1103 N   0  0  0  0  0  0  0  0  0  0  0  0
    3.8433    0.2619    0.2756 C   0  0  0  0  0  0  0  0  0  0  0  0
    2.4801    0.1137    0.2258 C   0  0  0  0  0  0  0  0  0  0  0  0
    4.8427   -0.7149    0.4669 C   0  0  0  0  0  0  0  0  0  0  0  0
   -6.6907    0.1026    1.3239 C   0  0  0  0  0  0  0  0  0  0  0  0
    1.5050   -1.6918    0.4419 I   0  0  0  0  0  0  0  0  0  0  0  0
    5.6758   -1.4959    0.6240 N   0  0  0  0  0  0  0  0  0  0  0  0
   -2.7093   -0.1806    1.8581 H   0  0  0  0  0  0  0  0  0  0  0  0
   -2.3593   -0.4161   -0.9115 H   0  0  0  0  0  0  0  0  0  0  0  0
   -4.3134    1.1785    0.7931 H   0  0  0  0  0  0  0  0  0  0  0  0
   -4.1671    1.3619   -0.9396 H   0  0  0  0  0  0  0  0  0  0  0  0
   -1.9023    1.9769   -1.0323 H   0  0  0  0  0  0  0  0  0  0  0  0
   -1.9083    2.1171    0.7302 H   0  0  0  0  0  0  0  0  0  0  0  0
   -4.7535   -0.9297   -1.1609 H   0  0  0  0  0  0  0  0  0  0  0  0
   -6.6349    0.5561   -2.1124 H   0  0  0  0  0  0  0  0  0  0  0  0
   -7.9755    0.8724   -1.0154 H   0  0  0  0  0  0  0  0  0  0  0  0
   -6.4815    1.7771   -0.8491 H   0  0  0  0  0  0  0  0  0  0  0  0
   -6.6887   -2.4058    0.2300 H   0  0  0  0  0  0  0  0  0  0  0  0
   -8.1264   -1.5410   -0.3146 H   0  0  0  0  0  0  0  0  0  0  0  0
   -6.8549   -1.9309   -1.4627 H   0  0  0  0  0  0  0  0  0  0  0  0
   -6.2759    1.0735    1.5986 H   0  0  0  0  0  0  0  0  0  0  0  0
   -7.7701    0.1702    1.4628 H   0  0  0  0  0  0  0  0  0  0  0  0
   -6.3039   -0.6409    2.0221 H   0  0  0  0  0  0  0  0  0  0  0  0
   -0.5405    3.6928   -0.3965 H   0  0  0  0  0  0  0  0  0  0  0  0
    1.3735    5.1880   -0.4858 H   0  0  0  0  0  0  0  0  0  0  0  0
    3.6889    4.3595   -0.2743 H   0  0  0  0  0  0  0  0  0  0  0  0
    5.0935    1.9579    0.1144 H   0  0  0  0  0  0  0  0  0  0  0  0
  1  2  1  0
  2  3  1  0
  2  8  1  0
  3  4  1  0
  5  4  1  1
  5  6  1  0
  5  7  1  0
  5 20  1  0
  8  9  1  0
  9 10  1  0
 10 11  2  0
 10 15  1  0
 11 12  1  0
 12 13  2  0
 13 14  1  0
 14 15  2  0
 14 16  1  0
 15 18  1  0
 16 17  1  0
 17 18  2  0
 17 19  1  0
 18 21  1  0
 19 22  3  0
  1 23  1  0
  2 24  1  6
  3 25  1  0
  3 26  1  0
  8 27  1  0
  8 28  1  0
  4 29  1  0
  6 30  1  0
  6 31  1  0
  6 32  1  0
  7 33  1  0
  7 34  1  0
  7 35  1  0
 20 36  1  0
 20 37  1  0
 20 38  1  0
 11 39  1  0
 12 40  1  0
 13 41  1  0
 16 42  1  0
M  END
