
     RDKit          3D

 30 31  0  0  0  0  0  0  0  0999 V2000
   -1.3973    0.2152   -3.0248 N   0  0  0  0  0  0  0  0  0  0  0  0
   -0.2205    0.1457   -3.6419 C   0  0  0  0  0  0  0  0  0  0  0  0
   -1.3763    0.2170   -1.6978 C   0  0  0  0  0  0  0  0  0  0  0  0
   -0.1677    0.1375   -0.9659 C   0  0  0  0  0  0  0  0  0  0  0  0
    0.9892    0.0626   -1.7252 C   0  0  0  0  0  0  0  0  0  0  0  0
    0.9704    0.0679   -3.0601 N   0  0  0  0  0  0  0  0  0  0  0  0
   -0.1828    0.1353    0.5127 C   0  0  0  0  0  0  0  0  0  0  0  0
    0.1214   -1.0160    1.2376 C   0  0  0  0  0  0  0  0  0  0  0  0
    0.1077   -1.0172    2.6241 C   0  0  0  0  0  0  0  0  0  0  0  0
   -0.2283    0.1457    3.2976 C   0  0  0  0  0  0  0  0  0  0  0  0
   -0.5460    1.3034    2.6056 C   0  0  0  0  0  0  0  0  0  0  0  0
   -0.5200    1.2894    1.2198 C   0  0  0  0  0  0  0  0  0  0  0  0
   -2.5667    0.3220   -1.0719 N   0  0  0  0  0  0  0  0  0  0  0  0
   -0.2421    0.1959   -4.9983 N   0  0  0  0  0  0  0  0  0  0  0  0
    2.3536   -0.0449   -1.1074 C   0  0  0  0  0  0  0  0  0  0  0  0
    2.9645   -1.4279   -1.3194 C   0  0  0  0  0  0  0  0  0  0  0  0
   -0.2545    0.1514    5.0295 Cl  0  0  0  0  0  0  0  0  0  0  0  0
    0.3722   -1.9300    0.7145 H   0  0  0  0  0  0  0  0  0  0  0  0
    0.3523   -1.9176    3.1699 H   0  0  0  0  0  0  0  0  0  0  0  0
   -0.8071    2.2086    3.1357 H   0  0  0  0  0  0  0  0  0  0  0  0
   -0.7593    2.1983    0.6828 H   0  0  0  0  0  0  0  0  0  0  0  0
   -3.3987    0.1942   -1.6198 H   0  0  0  0  0  0  0  0  0  0  0  0
   -2.6447    0.1085   -0.0938 H   0  0  0  0  0  0  0  0  0  0  0  0
   -1.1107   -0.0148   -5.4558 H   0  0  0  0  0  0  0  0  0  0  0  0
    0.5828   -0.1112   -5.4818 H   0  0  0  0  0  0  0  0  0  0  0  0
    2.3166    0.1862   -0.0435 H   0  0  0  0  0  0  0  0  0  0  0  0
    2.9953    0.7050   -1.5754 H   0  0  0  0  0  0  0  0  0  0  0  0
    3.9735   -1.4673   -0.9105 H   0  0  0  0  0  0  0  0  0  0  0  0
    2.3763   -2.2029   -0.8273 H   0  0  0  0  0  0  0  0  0  0  0  0
    3.0187   -1.6720   -2.3796 H   0  0  0  0  0  0  0  0  0  0  0  0
  1  2  2  0
  1  3  1  0
  2  6  1  0
  2 14  1  0
  3  4  2  0
  3 13  1  0
  4  5  1  0
  4  7  1  0
  5  6  2  0
  5 15  1  0
  7  8  2  0
  7 12  1  0
  8  9  1  0
  8 18  1  0
  9 10  2  0
  9 19  1  0
 10 11  1  0
 10 17  1  0
 11 12  2  0
 11 20  1  0
 12 21  1  0
 13 22  1  0
 13 23  1  0
 14 24  1  0
 14 25  1  0
 15 16  1  0
 15 26  1  0
 15 27  1  0
 16 28  1  0
 16 29  1  0
 16 30  1  0
M  END
