
     RDKit          3D

 27 28  0  0  0  0  0  0  0  0999 V2000
   -1.0940    0.8789   -0.5731 C   0  0  0  0  0  0  0  0  0  0  0  0
   -2.4796    0.8281   -0.6116 C   0  0  0  0  0  0  0  0  0  0  0  0
   -3.4042    2.2837   -1.3777 Br  0  0  0  0  0  0  0  0  0  0  0  0
   -3.2109   -0.2511   -0.1150 C   0  0  0  0  0  0  0  0  0  0  0  0
   -4.5407   -0.3565   -0.1222 O   0  0  0  0  0  0  0  0  0  0  0  0
   -2.4686   -1.3027    0.4293 C   0  0  0  0  0  0  0  0  0  0  0  0
   -3.3876   -2.7925    1.1130 Br  0  0  0  0  0  0  0  0  0  0  0  0
   -1.0901   -1.2748    0.4838 C   0  0  0  0  0  0  0  0  0  0  0  0
   -0.3868   -0.1811   -0.0173 C   0  0  0  0  0  0  0  0  0  0  0  0
    1.0098   -0.2376    0.0541 N   0  0  0  0  0  0  0  0  0  0  0  0
    1.8949    0.7759   -0.0894 C   0  0  0  0  0  0  0  0  0  0  0  0
    1.6014    1.9336   -0.3098 O   0  0  0  0  0  0  0  0  0  0  0  0
    3.3231    0.3348    0.0192 C   0  0  0  0  0  0  0  0  0  0  0  0
    3.7938   -0.6433   -0.8499 C   0  0  0  0  0  0  0  0  0  0  0  0
    5.1279   -1.0135   -0.8167 C   0  0  0  0  0  0  0  0  0  0  0  0
    5.6998   -2.2186   -1.9142 Cl  0  0  0  0  0  0  0  0  0  0  0  0
    6.0053   -0.4305    0.0822 C   0  0  0  0  0  0  0  0  0  0  0  0
    5.5371    0.5366    0.9570 C   0  0  0  0  0  0  0  0  0  0  0  0
    4.2068    0.9221    0.9193 C   0  0  0  0  0  0  0  0  0  0  0  0
    3.6556    2.1061    2.0488 Cl  0  0  0  0  0  0  0  0  0  0  0  0
   -0.5816    1.7348   -0.9801 H   0  0  0  0  0  0  0  0  0  0  0  0
   -4.9704    0.4251   -0.4927 H   0  0  0  0  0  0  0  0  0  0  0  0
   -0.5513   -2.1071    0.9186 H   0  0  0  0  0  0  0  0  0  0  0  0
    1.3890   -1.1301    0.3355 H   0  0  0  0  0  0  0  0  0  0  0  0
    3.1216   -1.1014   -1.5637 H   0  0  0  0  0  0  0  0  0  0  0  0
    7.0453   -0.7240    0.1120 H   0  0  0  0  0  0  0  0  0  0  0  0
    6.2136    0.9871    1.6698 H   0  0  0  0  0  0  0  0  0  0  0  0
  1  2  2  0
  1  9  1  0
  2  3  1  0
  2  4  1  0
  4  5  1  0
  4  6  2  0
  6  7  1  0
  6  8  1  0
  8  9  2  0
  9 10  1  0
 10 11  1  0
 11 12  2  0
 11 13  1  0
 13 14  2  0
 13 19  1  0
 14 15  1  0
 15 16  1  0
 15 17  2  0
 17 18  1  0
 18 19  2  0
 19 20  1  0
  1 21  1  0
  5 22  1  0
  8 23  1  0
 10 24  1  0
 14 25  1  0
 17 26  1  0
 18 27  1  0
M  END
