
     RDKit          3D

 31 30  0  0  0  0  0  0  0  0999 V2000
    4.5939   -1.2356   -0.4050 O   0  0  0  0  0  0  0  0  0  0  0  0
    4.4611   -0.0986   -0.0250 C   0  0  0  0  0  0  0  0  0  0  0  0
    5.4937    0.6932    0.2544 O   0  0  0  0  0  0  0  0  0  0  0  0
    3.1471    0.6001    0.1858 C   0  0  0  0  0  0  0  0  0  0  0  0
    1.9334   -0.2871   -0.0352 C   0  0  0  0  0  0  0  0  0  0  0  0
    0.6291    0.4698    0.1822 C   0  0  0  0  0  0  0  0  0  0  0  0
   -0.6021   -0.4025   -0.0251 C   0  0  0  0  0  0  0  0  0  0  0  0
   -1.9125    0.3410    0.2034 C   0  0  0  0  0  0  0  0  0  0  0  0
   -3.1321   -0.5486    0.0050 C   0  0  0  0  0  0  0  0  0  0  0  0
   -4.4702    0.1238    0.3009 C   0  0  2  0  0  0  0  0  0  0  0  0
   -5.6113   -0.8879    0.2012 C   0  0  0  0  0  0  0  0  0  0  0  0
   -4.6494    1.2892   -0.5593 N   0  0  0  0  0  0  0  0  0  0  0  0
    6.3237    0.2162    0.1074 H   0  0  0  0  0  0  0  0  0  0  0  0
    3.1398    1.0182    1.1973 H   0  0  0  0  0  0  0  0  0  0  0  0
    3.1187    1.4651   -0.4859 H   0  0  0  0  0  0  0  0  0  0  0  0
    1.9509   -0.6963   -1.0488 H   0  0  0  0  0  0  0  0  0  0  0  0
    1.9725   -1.1423    0.6451 H   0  0  0  0  0  0  0  0  0  0  0  0
    0.6132    0.8853    1.1957 H   0  0  0  0  0  0  0  0  0  0  0  0
    0.5878    1.3274   -0.4981 H   0  0  0  0  0  0  0  0  0  0  0  0
   -0.5889   -0.8133   -1.0407 H   0  0  0  0  0  0  0  0  0  0  0  0
   -0.5524   -1.2638    0.6505 H   0  0  0  0  0  0  0  0  0  0  0  0
   -1.9230    0.7481    1.2208 H   0  0  0  0  0  0  0  0  0  0  0  0
   -1.9689    1.2009   -0.4688 H   0  0  0  0  0  0  0  0  0  0  0  0
   -3.1463   -0.9321   -1.0233 H   0  0  0  0  0  0  0  0  0  0  0  0
   -3.0442   -1.4286    0.6506 H   0  0  0  0  0  0  0  0  0  0  0  0
   -4.4360    0.4949    1.3321 H   0  0  0  0  0  0  0  0  0  0  0  0
   -6.5715   -0.4228    0.4327 H   0  0  0  0  0  0  0  0  0  0  0  0
   -5.6757   -1.2998   -0.8094 H   0  0  0  0  0  0  0  0  0  0  0  0
   -5.4716   -1.7220    0.8912 H   0  0  0  0  0  0  0  0  0  0  0  0
   -4.7251    0.9782   -1.5222 H   0  0  0  0  0  0  0  0  0  0  0  0
   -5.5396    1.7245   -0.3480 H   0  0  0  0  0  0  0  0  0  0  0  0
 11 10  1  0
 12 10  1  0
 10  9  1  0
  9  8  1  0
  8  7  1  0
  7  6  1  0
  6  5  1  0
  5  4  1  0
  4  2  1  0
  1  2  2  0
  2  3  1  0
  3 13  1  0
  4 14  1  0
  4 15  1  0
  5 16  1  0
  5 17  1  0
  6 18  1  0
  6 19  1  0
  7 20  1  0
  7 21  1  0
  8 22  1  0
  8 23  1  0
  9 24  1  0
  9 25  1  0
 10 26  1  1
 11 27  1  0
 11 28  1  0
 11 29  1  0
 12 30  1  0
 12 31  1  0
M  END
