
     RDKit          3D

 56 59  0  0  0  0  0  0  0  0999 V2000
   -3.3424   -0.4357   -0.5798 C   0  0  0  0  0  0  0  0  0  0  0  0
    1.4282    0.9601    1.2233 C   0  0  0  0  0  0  0  0  0  0  0  0
    3.2928    1.7958   -0.0293 C   0  0  0  0  0  0  0  0  0  0  0  0
    6.2075    0.3536   -0.0387 C   0  0  0  0  0  0  0  0  0  0  0  0
   -8.2259    4.4042    0.3378 C   0  0  0  0  0  0  0  0  0  0  0  0
   -7.6347    2.1569   -0.0908 C   0  0  0  0  0  0  0  0  0  0  0  0
   -8.0069    0.8721   -0.5076 C   0  0  0  0  0  0  0  0  0  0  0  0
   -7.0330   -0.0961   -0.5503 C   0  0  0  0  0  0  0  0  0  0  0  0
   -5.7158    0.2103   -0.1817 C   0  0  0  0  0  0  0  0  0  0  0  0
   -5.4771    1.5139    0.2253 C   0  0  0  0  0  0  0  0  0  0  0  0
   -6.4072    2.4638    0.2692 N   0  0  0  0  0  0  0  0  0  0  0  0
   -4.6384   -0.7930   -0.2152 C   0  0  0  0  0  0  0  0  0  0  0  0
   -2.3140   -1.3713   -0.6129 C   0  0  0  0  0  0  0  0  0  0  0  0
   -0.9230   -0.9395   -0.9853 C   0  0  0  0  0  0  0  0  0  0  0  0
   -0.3277   -0.2195    0.1183 N   0  0  0  0  0  0  0  0  0  0  0  0
    0.8655    0.4133    0.0496 C   0  0  0  0  0  0  0  0  0  0  0  0
    2.6192    1.6410    1.1850 C   0  0  0  0  0  0  0  0  0  0  0  0
    2.7650    1.2526   -1.1944 C   0  0  0  0  0  0  0  0  0  0  0  0
    1.5674    0.5675   -1.1593 C   0  0  0  0  0  0  0  0  0  0  0  0
    5.1612    2.9788   -1.4223 O   0  0  0  0  0  0  0  0  0  0  0  0
    4.8056    3.6912    0.9601 O   0  0  0  0  0  0  0  0  0  0  0  0
    5.9584    1.5706    0.5314 N   0  0  0  0  0  0  0  0  0  0  0  0
    5.7721   -0.0135   -1.1966 N   0  0  0  0  0  0  0  0  0  0  0  0
    6.1642   -1.2656   -1.5240 N   0  0  0  0  0  0  0  0  0  0  0  0
    6.8902   -1.8424   -0.6326 C   0  0  0  0  0  0  0  0  0  0  0  0
    7.1631   -0.8436    0.7666 S   0  0  0  0  0  0  0  0  0  0  0  0
   -2.5847   -2.6876   -0.2773 C   0  0  0  0  0  0  0  0  0  0  0  0
   -3.8753   -3.0683    0.0846 C   0  0  0  0  0  0  0  0  0  0  0  0
   -4.8936   -2.1228    0.1172 C   0  0  0  0  0  0  0  0  0  0  0  0
   -4.1114   -4.4917    0.4380 C   0  0  0  0  0  0  0  0  0  0  0  0
   -5.3706   -4.7443    0.7621 O   0  0  0  0  0  0  0  0  0  0  0  0
   -3.2467   -5.3346    0.4307 O   0  0  0  0  0  0  0  0  0  0  0  0
   -3.1283    0.5872   -0.8674 H   0  0  0  0  0  0  0  0  0  0  0  0
    0.9082    0.8472    2.1665 H   0  0  0  0  0  0  0  0  0  0  0  0
    8.5489   -3.1814   -0.7396 H   0  0  0  0  0  0  0  0  0  0  0  0
    7.1375   -3.8395    0.0822 H   0  0  0  0  0  0  0  0  0  0  0  0
    7.1281   -3.6604   -1.6780 H   0  0  0  0  0  0  0  0  0  0  0  0
   -7.8631    4.4253    1.3661 H   0  0  0  0  0  0  0  0  0  0  0  0
   -7.4622    4.8342   -0.3111 H   0  0  0  0  0  0  0  0  0  0  0  0
   -9.1345    4.9961    0.2647 H   0  0  0  0  0  0  0  0  0  0  0  0
   -9.0269    0.6574   -0.7955 H   0  0  0  0  0  0  0  0  0  0  0  0
   -7.2909   -1.0919   -0.8884 H   0  0  0  0  0  0  0  0  0  0  0  0
   -4.4863    1.8126    0.5511 H   0  0  0  0  0  0  0  0  0  0  0  0
   -0.3218   -1.8105   -1.2702 H   0  0  0  0  0  0  0  0  0  0  0  0
   -0.9697   -0.2869   -1.8607 H   0  0  0  0  0  0  0  0  0  0  0  0
   -0.6765   -0.4354    1.0385 H   0  0  0  0  0  0  0  0  0  0  0  0
    3.0202    2.0508    2.1028 H   0  0  0  0  0  0  0  0  0  0  0  0
    3.2840    1.3568   -2.1363 H   0  0  0  0  0  0  0  0  0  0  0  0
    1.1851    0.1506   -2.0805 H   0  0  0  0  0  0  0  0  0  0  0  0
    6.2253    1.7222    1.4957 H   0  0  0  0  0  0  0  0  0  0  0  0
   -1.7908   -3.4228   -0.2988 H   0  0  0  0  0  0  0  0  0  0  0  0
   -5.8924   -2.4091    0.4176 H   0  0  0  0  0  0  0  0  0  0  0  0
   -5.4749   -5.6816    0.9833 H   0  0  0  0  0  0  0  0  0  0  0  0
    4.8077    2.6551   -0.0568 S   0  0  1  0  0  0  0  0  0  0  0  0
   -8.5849    3.0904   -0.0679 O   0  0  0  0  0  0  0  0  0  0  0  0
    7.4593   -3.2082   -0.7457 C   0  0  0  0  0  0  0  0  0  0  0  0
 32 30  2  0
 14 13  1  0
 14 15  1  0
 30 28  1  0
 30 31  1  0
 27 13  1  0
 27 28  2  0
 13  1  2  0
 28 29  1  0
 15 16  1  0
  1 12  1  0
 29 12  2  0
 12  9  1  0
 10  9  2  0
 10 11  1  0
  9  8  1  0
 11  6  2  0
 16  2  2  0
 16 19  1  0
  8  7  2  0
  6  7  1  0
  6 55  1  0
  2 17  1  0
 55  5  1  0
 19 18  2  0
 17  3  2  0
 18  3  1  0
  3 54  1  0
 56 25  1  0
 24 25  2  0
 24 23  1  0
 25 26  1  0
 23  4  2  0
 54 20  2  0
 54 22  1  1
 54 21  2  0
 26  4  1  0
  4 22  1  0
  1 33  1  0
  2 34  1  0
 56 35  1  0
 56 36  1  0
 56 37  1  0
  5 38  1  0
  5 39  1  0
  5 40  1  0
  7 41  1  0
  8 42  1  0
 10 43  1  0
 14 44  1  0
 14 45  1  0
 15 46  1  0
 17 47  1  0
 18 48  1  0
 19 49  1  0
 22 50  1  0
 27 51  1  0
 29 52  1  0
 31 53  1  0
M  END
