
     RDKit          3D

 56 60  0  0  0  0  0  0  0  0999 V2000
    2.5566   -3.8925   -1.1018 N   0  0  0  0  0  0  0  0  0  0  0  0
    3.7363   -3.3981   -0.7302 C   0  0  0  0  0  0  0  0  0  0  0  0
    3.9915   -2.2738   -0.0940 N   0  0  0  0  0  0  0  0  0  0  0  0
    2.8741   -1.6076    0.2134 C   0  0  0  0  0  0  0  0  0  0  0  0
    1.5662   -2.0085   -0.0693 C   0  0  0  0  0  0  0  0  0  0  0  0
    1.4459   -3.2120   -0.8039 C   0  0  0  0  0  0  0  0  0  0  0  0
   -9.0144    1.6845   -0.2269 C   0  0  0  0  0  0  0  0  0  0  0  0
    0.2821   -3.7052   -1.2256 N   0  0  0  0  0  0  0  0  0  0  0  0
   -4.7035    1.7997   -0.3294 C   0  0  0  0  0  0  0  0  0  0  0  0
   -1.5237   -1.9180    0.8528 C   0  0  0  0  0  0  0  0  0  0  0  0
   -3.3400    1.6845   -0.3178 C   0  0  0  0  0  0  0  0  0  0  0  0
   -2.8850   -1.8125    0.8561 C   0  0  0  0  0  0  0  0  0  0  0  0
   -4.9213   -0.4768    0.4464 C   0  0  0  0  0  0  0  0  0  0  0  0
   -1.3007    0.3493    0.0794 C   0  0  0  0  0  0  0  0  0  0  0  0
   -7.5290    1.9377   -0.3208 C   0  0  0  0  0  0  0  0  0  0  0  0
    6.2024    3.0402   -0.2979 C   0  0  0  0  0  0  0  0  0  0  0  0
    4.0193    3.3398   -1.2479 C   0  0  0  0  0  0  0  0  0  0  0  0
    5.6737    2.0513    0.7295 C   0  0  0  0  0  0  0  0  0  0  0  0
    3.3954    2.3649   -0.2588 C   0  0  0  0  0  0  0  0  0  0  0  0
    1.5135   -0.0368    0.9891 N   0  0  0  0  0  0  0  0  0  0  0  0
    5.1660    3.9952   -0.6453 N   0  0  0  0  0  0  0  0  0  0  0  0
   -5.5135    0.7040    0.0567 C   0  0  0  0  0  0  0  0  0  0  0  0
   -0.7059   -0.8307    0.4501 C   0  0  0  0  0  0  0  0  0  0  0  0
    0.7535   -0.9651    0.4545 C   0  0  0  0  0  0  0  0  0  0  0  0
   -3.5207   -0.6093    0.4612 C   0  0  0  0  0  0  0  0  0  0  0  0
   -2.7058    0.4865    0.0743 C   0  0  0  0  0  0  0  0  0  0  0  0
    4.4250    1.3387    0.2103 C   0  0  2  0  0  0  0  0  0  0  0  0
    2.7901   -0.4242    0.8463 N   0  0  0  0  0  0  0  0  0  0  0  0
    4.5965   -4.0027   -0.9986 H   0  0  0  0  0  0  0  0  0  0  0  0
   -9.3243    0.8801   -0.8939 H   0  0  0  0  0  0  0  0  0  0  0  0
   -9.3118    1.4291    0.7899 H   0  0  0  0  0  0  0  0  0  0  0  0
   -9.5530    2.5862   -0.5169 H   0  0  0  0  0  0  0  0  0  0  0  0
    0.2695   -4.5468   -1.7769 H   0  0  0  0  0  0  0  0  0  0  0  0
   -0.5834   -3.2096   -1.1050 H   0  0  0  0  0  0  0  0  0  0  0  0
   -5.1449    2.7361   -0.6403 H   0  0  0  0  0  0  0  0  0  0  0  0
   -1.0604   -2.8371    1.1913 H   0  0  0  0  0  0  0  0  0  0  0  0
   -2.7334    2.5299   -0.6187 H   0  0  0  0  0  0  0  0  0  0  0  0
   -3.4914   -2.6522    1.1726 H   0  0  0  0  0  0  0  0  0  0  0  0
   -5.5394   -1.3165    0.7425 H   0  0  0  0  0  0  0  0  0  0  0  0
   -0.6921    1.1894   -0.2343 H   0  0  0  0  0  0  0  0  0  0  0  0
   -7.2540    2.2165   -1.3433 H   0  0  0  0  0  0  0  0  0  0  0  0
   -7.2416    2.7640    0.3375 H   0  0  0  0  0  0  0  0  0  0  0  0
    7.0596    3.5796    0.1106 H   0  0  0  0  0  0  0  0  0  0  0  0
    6.5663    2.4766   -1.1736 H   0  0  0  0  0  0  0  0  0  0  0  0
    4.2855    2.7880   -2.1658 H   0  0  0  0  0  0  0  0  0  0  0  0
    3.2882    4.0986   -1.5343 H   0  0  0  0  0  0  0  0  0  0  0  0
    6.4515    1.3217    0.9693 H   0  0  0  0  0  0  0  0  0  0  0  0
    5.4334    2.5854    1.6549 H   0  0  0  0  0  0  0  0  0  0  0  0
    3.0143    2.9196    0.6053 H   0  0  0  0  0  0  0  0  0  0  0  0
    2.5404    1.8735   -0.7276 H   0  0  0  0  0  0  0  0  0  0  0  0
    4.6784   -0.2538    1.6445 H   0  0  0  0  0  0  0  0  0  0  0  0
    3.5301    0.9799    2.1483 H   0  0  0  0  0  0  0  0  0  0  0  0
    5.5419    4.6801   -1.2880 H   0  0  0  0  0  0  0  0  0  0  0  0
    4.7218    0.7285   -0.6526 H   0  0  0  0  0  0  0  0  0  0  0  0
    3.8858    0.4071    1.2907 C   0  0  0  0  0  0  0  0  0  0  0  0
   -6.8569    0.7438    0.0637 O   0  0  0  0  0  0  0  0  0  0  0  0
  1  6  2  0
  2  1  1  0
  2  3  2  0
  3  4  1  0
  4 28  1  0
  4  5  2  0
  5 24  1  0
  6  5  1  0
  6  8  1  0
 10 12  1  0
 10 23  2  0
 11  9  2  0
 12 25  2  0
 13 22  2  0
 14 26  2  0
 15  7  1  0
 15 56  1  0
 16 18  1  0
 17 21  1  0
 17 19  1  0
 18 27  1  0
 19 27  1  0
 55 28  1  0
 20 24  2  0
 21 16  1  0
 22  9  1  0
 22 56  1  0
 23 14  1  0
 24 23  1  0
 25 13  1  0
 25 26  1  0
 26 11  1  0
 27 55  1  0
 28 20  1  0
  2 29  1  0
  7 30  1  0
  7 31  1  0
  7 32  1  0
  8 33  1  0
  8 34  1  0
  9 35  1  0
 10 36  1  0
 11 37  1  0
 12 38  1  0
 13 39  1  0
 14 40  1  0
 15 41  1  0
 15 42  1  0
 16 43  1  0
 16 44  1  0
 17 45  1  0
 17 46  1  0
 18 47  1  0
 18 48  1  0
 19 49  1  0
 19 50  1  0
 55 51  1  0
 55 52  1  0
 21 53  1  0
 27 54  1  6
M  END
