
     RDKit          3D

172173  0  0  0  0  0  0  0  0999 V2000
   -3.1798    3.8282    0.2569 C   0  0  1  0  0  0  0  0  0  0  0  0
   -3.4739    4.3877   -1.1309 C   0  0  1  0  0  0  0  0  0  0  0  0
   -4.9823    4.3346   -1.3618 C   0  0  1  0  0  0  0  0  0  0  0  0
   -5.6929    5.0860   -0.2425 C   0  0  2  0  0  0  0  0  0  0  0  0
   -5.2809    4.5181    1.1206 C   0  0  1  0  0  0  0  0  0  0  0  0
   -1.7067    3.8692    0.5996 C   0  0  0  0  0  0  0  0  0  0  0  0
  -19.2098  -13.4519   -2.4072 C   0  0  0  0  0  0  0  0  0  0  0  0
  -18.6173  -12.0860   -2.7251 C   0  0  0  0  0  0  0  0  0  0  0  0
  -17.5163  -11.6788   -1.7536 C   0  0  0  0  0  0  0  0  0  0  0  0
  -16.9143  -10.3135   -2.0611 C   0  0  0  0  0  0  0  0  0  0  0  0
  -15.8180   -9.9035   -1.0860 C   0  0  0  0  0  0  0  0  0  0  0  0
  -15.2185   -8.5376   -1.3964 C   0  0  0  0  0  0  0  0  0  0  0  0
  -14.1244   -8.1204   -0.4218 C   0  0  0  0  0  0  0  0  0  0  0  0
  -13.5302   -6.7539   -0.7386 C   0  0  0  0  0  0  0  0  0  0  0  0
  -12.4368   -6.3263    0.2322 C   0  0  0  0  0  0  0  0  0  0  0  0
  -11.8517   -4.9580   -0.0942 C   0  0  0  0  0  0  0  0  0  0  0  0
  -10.7573   -4.5162    0.8693 C   0  0  0  0  0  0  0  0  0  0  0  0
  -10.1884   -3.1444    0.5303 C   0  0  0  0  0  0  0  0  0  0  0  0
   -8.5580   -1.3041    1.1204 C   0  0  0  0  0  0  0  0  0  0  0  0
   -7.4585   -0.7948    2.0481 C   0  0  1  0  0  0  0  0  0  0  0  0
   -6.3326   -1.6415    2.0363 O   0  0  0  0  0  0  0  0  0  0  0  0
   -7.1249    0.6810    1.7420 C   0  0  1  0  0  0  0  0  0  0  0  0
   -8.2413    1.4819    2.0511 O   0  0  0  0  0  0  0  0  0  0  0  0
   -5.8512    1.1815    2.4536 C   0  0  1  0  0  0  0  0  0  0  0  0
   -5.7977    3.2344    1.2395 O   0  0  0  0  0  0  0  0  0  0  0  0
   -7.0782    4.9940   -0.4616 O   0  0  0  0  0  0  0  0  0  0  0  0
   -5.2770    4.8711   -2.6261 O   0  0  0  0  0  0  0  0  0  0  0  0
   -3.8860    4.5448    1.2564 O   0  0  0  0  0  0  0  0  0  0  0  0
   -1.5060    3.1322    1.7825 O   0  0  0  0  0  0  0  0  0  0  0  0
   -2.9563    5.6948   -1.1961 O   0  0  0  0  0  0  0  0  0  0  0  0
   -2.5711    6.1676   -2.4714 C   0  0  0  0  0  0  0  0  0  0  0  0
   -1.4541    7.1562   -2.2909 C   0  0  0  0  0  0  0  0  0  0  0  0
   -0.2262    6.7423   -1.7758 C   0  0  0  0  0  0  0  0  0  0  0  0
    0.8049    7.6501   -1.5906 C   0  0  0  0  0  0  0  0  0  0  0  0
    0.6221    8.9898   -1.9178 C   0  0  0  0  0  0  0  0  0  0  0  0
   -0.5951    9.4111   -2.4321 C   0  0  0  0  0  0  0  0  0  0  0  0
   -1.6271    8.4968   -2.6135 C   0  0  0  0  0  0  0  0  0  0  0  0
   -4.6752    0.6879    1.7738 N   0  0  0  0  0  0  0  0  0  0  0  0
   -3.6052    0.1534    2.3912 C   0  0  0  0  0  0  0  0  0  0  0  0
   -3.5595   -0.0388    3.5978 O   0  0  0  0  0  0  0  0  0  0  0  0
   -2.4621   -0.2074    1.4665 C   0  0  0  0  0  0  0  0  0  0  0  0
   -1.1151   -0.2902    2.1696 C   0  0  0  0  0  0  0  0  0  0  0  0
    0.0410   -0.3507    1.1801 C   0  0  0  0  0  0  0  0  0  0  0  0
    1.4006   -0.4412    1.8606 C   0  0  0  0  0  0  0  0  0  0  0  0
    2.5658   -0.4517    0.8792 C   0  0  0  0  0  0  0  0  0  0  0  0
    3.9249   -0.5377    1.5623 C   0  0  0  0  0  0  0  0  0  0  0  0
    5.0934   -0.5397    0.5844 C   0  0  0  0  0  0  0  0  0  0  0  0
    6.4509   -0.6236    1.2711 C   0  0  0  0  0  0  0  0  0  0  0  0
    7.6220   -0.6245    0.2963 C   0  0  0  0  0  0  0  0  0  0  0  0
    8.9777   -0.7084    0.9864 C   0  0  0  0  0  0  0  0  0  0  0  0
   10.1512   -0.7094    0.0144 C   0  0  0  0  0  0  0  0  0  0  0  0
   11.5053   -0.7946    0.7077 C   0  0  0  0  0  0  0  0  0  0  0  0
   12.6809   -0.7961   -0.2617 C   0  0  0  0  0  0  0  0  0  0  0  0
   14.0334   -0.8834    0.4344 C   0  0  0  0  0  0  0  0  0  0  0  0
   15.2111   -0.8850   -0.5325 C   0  0  0  0  0  0  0  0  0  0  0  0
   16.5621   -0.9746    0.1662 C   0  0  0  0  0  0  0  0  0  0  0  0
   17.7415   -0.9766   -0.7986 C   0  0  0  0  0  0  0  0  0  0  0  0
   19.0913   -1.0675   -0.0977 C   0  0  0  0  0  0  0  0  0  0  0  0
   20.2721   -1.0701   -1.0607 C   0  0  0  0  0  0  0  0  0  0  0  0
   21.6210   -1.1609   -0.3581 C   0  0  0  0  0  0  0  0  0  0  0  0
   22.8027   -1.1642   -1.3200 C   0  0  0  0  0  0  0  0  0  0  0  0
   24.1514   -1.2523   -0.6165 C   0  0  0  0  0  0  0  0  0  0  0  0
   25.3330   -1.2562   -1.5784 C   0  0  0  0  0  0  0  0  0  0  0  0
   26.6832   -1.3390   -0.8765 C   0  0  0  0  0  0  0  0  0  0  0  0
   27.8543   -1.3416   -1.8495 C   0  0  0  0  0  0  0  0  0  0  0  0
   -3.4867    2.7748    0.2517 H   0  0  0  0  0  0  0  0  0  0  0  0
   -2.9788    3.7422   -1.8718 H   0  0  0  0  0  0  0  0  0  0  0  0
   -5.2781    3.2750   -1.3165 H   0  0  0  0  0  0  0  0  0  0  0  0
   -5.3611    6.1319   -0.2679 H   0  0  0  0  0  0  0  0  0  0  0  0
   -5.6569    5.1660    1.9251 H   0  0  0  0  0  0  0  0  0  0  0  0
   -1.1542    3.4371   -0.2453 H   0  0  0  0  0  0  0  0  0  0  0  0
   -1.3751    4.9085    0.7067 H   0  0  0  0  0  0  0  0  0  0  0  0
  -18.4482  -14.2325   -2.4543 H   0  0  0  0  0  0  0  0  0  0  0  0
  -19.6370  -13.4707   -1.4027 H   0  0  0  0  0  0  0  0  0  0  0  0
  -20.0017  -13.7209   -3.1074 H   0  0  0  0  0  0  0  0  0  0  0  0
  -18.2181  -12.0870   -3.7443 H   0  0  0  0  0  0  0  0  0  0  0  0
  -19.4093  -11.3307   -2.7119 H   0  0  0  0  0  0  0  0  0  0  0  0
  -17.9161  -11.6772   -0.7332 H   0  0  0  0  0  0  0  0  0  0  0  0
  -16.7245  -12.4364   -1.7656 H   0  0  0  0  0  0  0  0  0  0  0  0
  -16.5113  -10.3167   -3.0802 H   0  0  0  0  0  0  0  0  0  0  0  0
  -17.7079   -9.5579   -2.0531 H   0  0  0  0  0  0  0  0  0  0  0  0
  -16.2211   -9.8991   -0.0669 H   0  0  0  0  0  0  0  0  0  0  0  0
  -15.0240  -10.6585   -1.0930 H   0  0  0  0  0  0  0  0  0  0  0  0
  -14.8143   -8.5432   -2.4150 H   0  0  0  0  0  0  0  0  0  0  0  0
  -16.0140   -7.7840   -1.3923 H   0  0  0  0  0  0  0  0  0  0  0  0
  -14.5282   -8.1131    0.5970 H   0  0  0  0  0  0  0  0  0  0  0  0
  -13.3278   -8.8728   -0.4252 H   0  0  0  0  0  0  0  0  0  0  0  0
  -13.1268   -6.7628   -1.7576 H   0  0  0  0  0  0  0  0  0  0  0  0
  -14.3287   -6.0034   -0.7377 H   0  0  0  0  0  0  0  0  0  0  0  0
  -12.8388   -6.3156    1.2516 H   0  0  0  0  0  0  0  0  0  0  0  0
  -11.6359   -7.0742    0.2312 H   0  0  0  0  0  0  0  0  0  0  0  0
  -11.4520   -4.9705   -1.1145 H   0  0  0  0  0  0  0  0  0  0  0  0
  -12.6549   -4.2127   -0.0950 H   0  0  0  0  0  0  0  0  0  0  0  0
  -11.1542   -4.5030    1.8906 H   0  0  0  0  0  0  0  0  0  0  0  0
   -9.9496   -5.2565    0.8681 H   0  0  0  0  0  0  0  0  0  0  0  0
   -9.7968   -3.1595   -0.4932 H   0  0  0  0  0  0  0  0  0  0  0  0
  -10.9993   -2.4075    0.5305 H   0  0  0  0  0  0  0  0  0  0  0  0
   -9.4792   -2.6679    2.5057 H   0  0  0  0  0  0  0  0  0  0  0  0
   -8.2755   -3.4149    1.4754 H   0  0  0  0  0  0  0  0  0  0  0  0
   -8.1739   -1.3159    0.0920 H   0  0  0  0  0  0  0  0  0  0  0  0
   -9.3849   -0.5896    1.1244 H   0  0  0  0  0  0  0  0  0  0  0  0
   -7.8237   -0.8316    3.0843 H   0  0  0  0  0  0  0  0  0  0  0  0
   -5.9753   -1.6669    1.1422 H   0  0  0  0  0  0  0  0  0  0  0  0
   -6.9761    0.7944    0.6611 H   0  0  0  0  0  0  0  0  0  0  0  0
   -8.4871    1.3272    2.9702 H   0  0  0  0  0  0  0  0  0  0  0  0
   -5.8305    0.7983    3.4768 H   0  0  0  0  0  0  0  0  0  0  0  0
   -6.5997    3.1035    3.1443 H   0  0  0  0  0  0  0  0  0  0  0  0
   -4.8415    2.9533    3.0609 H   0  0  0  0  0  0  0  0  0  0  0  0
   -7.5153    5.7119    0.0057 H   0  0  0  0  0  0  0  0  0  0  0  0
   -6.2352    4.8979   -2.7215 H   0  0  0  0  0  0  0  0  0  0  0  0
   -0.5642    3.1230    1.9729 H   0  0  0  0  0  0  0  0  0  0  0  0
   -2.2314    5.3332   -3.0980 H   0  0  0  0  0  0  0  0  0  0  0  0
   -3.4092    6.6392   -2.9918 H   0  0  0  0  0  0  0  0  0  0  0  0
   -0.0706    5.6993   -1.5254 H   0  0  0  0  0  0  0  0  0  0  0  0
    1.7537    7.3136   -1.1928 H   0  0  0  0  0  0  0  0  0  0  0  0
    1.4263    9.6995   -1.7728 H   0  0  0  0  0  0  0  0  0  0  0  0
   -0.7466   10.4519   -2.6876 H   0  0  0  0  0  0  0  0  0  0  0  0
   -2.5778    8.8339   -3.0097 H   0  0  0  0  0  0  0  0  0  0  0  0
   -4.6047    0.8831    0.7878 H   0  0  0  0  0  0  0  0  0  0  0  0
   -2.6985   -1.1661    0.9920 H   0  0  0  0  0  0  0  0  0  0  0  0
   -2.4074    0.5232    0.6550 H   0  0  0  0  0  0  0  0  0  0  0  0
   -0.9844    0.5819    2.8139 H   0  0  0  0  0  0  0  0  0  0  0  0
   -1.0861   -1.1647    2.8245 H   0  0  0  0  0  0  0  0  0  0  0  0
   -0.0876   -1.2057    0.5068 H   0  0  0  0  0  0  0  0  0  0  0  0
    0.0117    0.5421    0.5451 H   0  0  0  0  0  0  0  0  0  0  0  0
    1.5168    0.4032    2.5495 H   0  0  0  0  0  0  0  0  0  0  0  0
    1.4388   -1.3438    2.4808 H   0  0  0  0  0  0  0  0  0  0  0  0
    2.4519   -1.2948    0.1886 H   0  0  0  0  0  0  0  0  0  0  0  0
    2.5261    0.4524    0.2610 H   0  0  0  0  0  0  0  0  0  0  0  0
    4.0357    0.3032    2.2562 H   0  0  0  0  0  0  0  0  0  0  0  0
    3.9656   -1.4435    2.1778 H   0  0  0  0  0  0  0  0  0  0  0  0
    4.9843   -1.3810   -0.1092 H   0  0  0  0  0  0  0  0  0  0  0  0
    5.0527    0.3661   -0.0313 H   0  0  0  0  0  0  0  0  0  0  0  0
    6.5588    0.2173    1.9653 H   0  0  0  0  0  0  0  0  0  0  0  0
    6.4911   -1.5295    1.8867 H   0  0  0  0  0  0  0  0  0  0  0  0
    7.5149   -1.4656   -0.3979 H   0  0  0  0  0  0  0  0  0  0  0  0
    7.5825    0.2815   -0.3191 H   0  0  0  0  0  0  0  0  0  0  0  0
    9.0841    0.1326    1.6809 H   0  0  0  0  0  0  0  0  0  0  0  0
    9.0164   -1.6143    1.6020 H   0  0  0  0  0  0  0  0  0  0  0  0
   10.0452   -1.5501   -0.6805 H   0  0  0  0  0  0  0  0  0  0  0  0
   10.1138    0.1969   -0.6006 H   0  0  0  0  0  0  0  0  0  0  0  0
   11.6107    0.0458    1.4029 H   0  0  0  0  0  0  0  0  0  0  0  0
   11.5418   -1.7010    1.3228 H   0  0  0  0  0  0  0  0  0  0  0  0
   12.5755   -1.6359   -0.9576 H   0  0  0  0  0  0  0  0  0  0  0  0
   12.6459    0.1109   -0.8760 H   0  0  0  0  0  0  0  0  0  0  0  0
   14.1382   -0.0439    1.1308 H   0  0  0  0  0  0  0  0  0  0  0  0
   14.0677   -1.7905    1.0486 H   0  0  0  0  0  0  0  0  0  0  0  0
   15.1062   -1.7240   -1.2296 H   0  0  0  0  0  0  0  0  0  0  0  0
   15.1783    0.0227   -1.1458 H   0  0  0  0  0  0  0  0  0  0  0  0
   16.6665   -0.1357    0.8635 H   0  0  0  0  0  0  0  0  0  0  0  0
   16.5942   -1.8823    0.7796 H   0  0  0  0  0  0  0  0  0  0  0  0
   17.6372   -1.8151   -1.4963 H   0  0  0  0  0  0  0  0  0  0  0  0
   17.7105   -0.0685   -1.4114 H   0  0  0  0  0  0  0  0  0  0  0  0
   19.1953   -0.2290    0.6001 H   0  0  0  0  0  0  0  0  0  0  0  0
   19.1217   -1.9755    0.5154 H   0  0  0  0  0  0  0  0  0  0  0  0
   20.1686   -1.9088   -1.7583 H   0  0  0  0  0  0  0  0  0  0  0  0
   20.2421   -0.1622   -1.6739 H   0  0  0  0  0  0  0  0  0  0  0  0
   21.7243   -0.3219    0.3392 H   0  0  0  0  0  0  0  0  0  0  0  0
   21.6506   -2.0685    0.2556 H   0  0  0  0  0  0  0  0  0  0  0  0
   22.7004   -2.0041   -2.0163 H   0  0  0  0  0  0  0  0  0  0  0  0
   22.7723   -0.2574   -1.9348 H   0  0  0  0  0  0  0  0  0  0  0  0
   24.2534   -0.4116    0.0790 H   0  0  0  0  0  0  0  0  0  0  0  0
   24.1817   -2.1585   -0.0008 H   0  0  0  0  0  0  0  0  0  0  0  0
   25.2330   -2.0985   -2.2723 H   0  0  0  0  0  0  0  0  0  0  0  0
   25.3012   -0.3514   -2.1963 H   0  0  0  0  0  0  0  0  0  0  0  0
   26.7826   -0.4970   -0.1841 H   0  0  0  0  0  0  0  0  0  0  0  0
   26.7156   -2.2426   -0.2594 H   0  0  0  0  0  0  0  0  0  0  0  0
   27.7981   -2.1939   -2.5290 H   0  0  0  0  0  0  0  0  0  0  0  0
   27.8608   -0.4354   -2.4582 H   0  0  0  0  0  0  0  0  0  0  0  0
   28.8112   -1.3960   -1.3291 H   0  0  0  0  0  0  0  0  0  0  0  0
   -5.7747    2.6998    2.5476 C   0  0  0  0  0  0  0  0  0  0  0  0
   -9.0901   -2.6852    1.4814 C   0  0  0  0  0  0  0  0  0  0  0  0
  7  8  1  0
 10  9  1  0
 10 11  1  0
  9  8  1  0
 12 11  1  0
 12 13  1  0
 13 14  1  0
 14 15  1  0
 15 16  1  0
 16 17  1  0
 17 18  1  0
 21 20  1  0
 18172  1  0
172 19  1  0
 20 19  1  0
 20 22  1  0
 22 23  1  0
 22 24  1  0
 47 48  1  0
 47 46  1  0
 45 46  1  0
 45 44  1  0
 26  4  1  0
 48 49  1  0
 27  3  1  0
 43 44  1  0
 43 42  1  0
 38 24  1  0
 38 39  1  0
 24171  1  0
 65 64  1  0
  3  4  1  0
  3  2  1  0
 49 50  1  0
 25171  1  0
 25  5  1  0
  4  5  1  0
 50 51  1  0
 41 42  1  0
 41 39  1  0
 39 40  2  0
 35 36  2  0
 35 34  1  0
 64 63  1  0
 36 37  1  0
  5 28  1  0
 34 33  2  0
  2 30  1  0
  2  1  1  0
 37 32  2  0
 51 52  1  0
 33 32  1  0
 30 31  1  0
 32 31  1  0
 63 62  1  0
  1 28  1  0
  1  6  1  0
 52 53  1  0
 62 61  1  0
  6 29  1  0
 53 54  1  0
 61 60  1  0
 54 55  1  0
 60 59  1  0
 59 58  1  0
 55 56  1  0
 56 57  1  0
 57 58  1  0
  1 66  1  6
  2 67  1  6
  3 68  1  6
  4 69  1  1
  5 70  1  1
  6 71  1  0
  6 72  1  0
  7 73  1  0
  7 74  1  0
  7 75  1  0
  8 76  1  0
  8 77  1  0
  9 78  1  0
  9 79  1  0
 10 80  1  0
 10 81  1  0
 11 82  1  0
 11 83  1  0
 12 84  1  0
 12 85  1  0
 13 86  1  0
 13 87  1  0
 14 88  1  0
 14 89  1  0
 15 90  1  0
 15 91  1  0
 16 92  1  0
 16 93  1  0
 17 94  1  0
 17 95  1  0
 18 96  1  0
 18 97  1  0
172 98  1  0
172 99  1  0
 19100  1  0
 19101  1  0
 20102  1  1
 21103  1  0
 22104  1  6
 23105  1  0
 24106  1  1
171107  1  0
171108  1  0
 26109  1  0
 27110  1  0
 29111  1  0
 31112  1  0
 31113  1  0
 33114  1  0
 34115  1  0
 35116  1  0
 36117  1  0
 37118  1  0
 38119  1  0
 41120  1  0
 41121  1  0
 42122  1  0
 42123  1  0
 43124  1  0
 43125  1  0
 44126  1  0
 44127  1  0
 45128  1  0
 45129  1  0
 46130  1  0
 46131  1  0
 47132  1  0
 47133  1  0
 48134  1  0
 48135  1  0
 49136  1  0
 49137  1  0
 50138  1  0
 50139  1  0
 51140  1  0
 51141  1  0
 52142  1  0
 52143  1  0
 53144  1  0
 53145  1  0
 54146  1  0
 54147  1  0
 55148  1  0
 55149  1  0
 56150  1  0
 56151  1  0
 57152  1  0
 57153  1  0
 58154  1  0
 58155  1  0
 59156  1  0
 59157  1  0
 60158  1  0
 60159  1  0
 61160  1  0
 61161  1  0
 62162  1  0
 62163  1  0
 63164  1  0
 63165  1  0
 64166  1  0
 64167  1  0
 65168  1  0
 65169  1  0
 65170  1  0
M  END
