
     RDKit          3D

 18 19  0  0  0  0  0  0  0  0999 V2000
    1.1597   -0.0256    0.4432 N   0  0  0  0  0  0  0  0  0  0  0  0
    0.0605   -0.0038    1.1454 C   0  0  0  0  0  0  0  0  0  0  0  0
   -1.0647    0.0214    0.3889 N   0  0  0  0  0  0  0  0  0  0  0  0
   -0.6655    0.0159   -0.9131 C   0  0  0  0  0  0  0  0  0  0  0  0
   -1.3683    0.0341   -2.1166 C   0  0  0  0  0  0  0  0  0  0  0  0
   -0.6122    0.0213   -3.2705 C   0  0  0  0  0  0  0  0  0  0  0  0
    0.7955   -0.0086   -3.2356 C   0  0  0  0  0  0  0  0  0  0  0  0
    1.4860   -0.0262   -2.0427 C   0  0  0  0  0  0  0  0  0  0  0  0
    0.7409   -0.0137   -0.8590 C   0  0  0  0  0  0  0  0  0  0  0  0
   -0.0375   -0.0056    2.6181 C   0  0  0  0  0  0  0  0  0  0  0  0
   -1.0984    0.0116    3.1913 O   0  0  0  0  0  0  0  0  0  0  0  0
    1.1450   -0.0269    3.1962 O   0  0  0  0  0  0  0  0  0  0  0  0
   -2.0130    0.0434    0.7331 H   0  0  0  0  0  0  0  0  0  0  0  0
   -2.4493    0.0567   -2.1474 H   0  0  0  0  0  0  0  0  0  0  0  0
   -1.1128    0.0350   -4.2297 H   0  0  0  0  0  0  0  0  0  0  0  0
    1.3426   -0.0179   -4.1691 H   0  0  0  0  0  0  0  0  0  0  0  0
    2.5675   -0.0481   -2.0169 H   0  0  0  0  0  0  0  0  0  0  0  0
    1.0434   -0.0275    4.1603 H   0  0  0  0  0  0  0  0  0  0  0  0
  1  2  2  0
  1  9  1  0
  2  3  1  0
  2 10  1  0
  3  4  1  0
  3 13  1  0
  4  5  1  0
  4  9  2  0
  5  6  2  0
  5 14  1  0
  6  7  1  0
  6 15  1  0
  7  8  2  0
  7 16  1  0
  8  9  1  0
  8 17  1  0
 10 11  2  0
 10 12  1  0
 12 18  1  0
M  END
