
     RDKit          3D

 45 46  0  0  0  0  0  0  0  0999 V2000
   -1.8969    4.2276    4.8438 C   0  0  0  0  0  0  0  0  0  0  0  0
    1.5577    5.4123    0.4698 C   0  0  0  0  0  0  0  0  0  0  0  0
    1.4623    4.2954   -1.7874 C   0  0  0  0  0  0  0  0  0  0  0  0
    1.4316    2.7459   -2.5094 S   0  0  0  0  0  0  0  0  0  0  0  0
    1.7192    1.9692   -1.0033 C   0  0  0  0  0  0  0  0  0  0  0  0
    1.8576    2.8733    0.0114 C   0  0  0  0  0  0  0  0  0  0  0  0
    2.1379    2.4868    1.4315 C   0  0  0  0  0  0  0  0  0  0  0  0
    1.6104    0.4813   -0.9043 C   0  0  0  0  0  0  0  0  0  0  0  0
    0.3440    0.0688   -0.1620 C   0  0  0  0  0  0  0  0  0  0  0  0
   -0.7362    0.8731   -0.6528 O   0  0  0  0  0  0  0  0  0  0  0  0
   -2.2771    0.5940   -0.4284 P   0  0  2  0  0  0  0  0  0  0  0  0
   -2.4559    0.1760    1.1132 O   0  0  0  0  0  0  0  0  0  0  0  0
   -2.6143   -0.8368   -1.0370 O   0  0  0  0  0  0  0  0  0  0  0  0
   -3.0807    1.7389   -0.8905 O   0  0  0  0  0  0  0  0  0  0  0  0
   -2.3672    1.0253    2.5097 P   0  0  1  0  0  0  0  0  0  0  0  0
   -3.4366    0.2476    3.3935 O   0  0  0  0  0  0  0  0  0  0  0  0
   -0.9842    1.0719    3.0238 O   0  0  0  0  0  0  0  0  0  0  0  0
   -3.1010    2.3717    2.2202 O   0  0  0  0  0  0  0  0  0  0  0  0
    0.1306    5.1987    3.9524 N   0  0  0  0  0  0  0  0  0  0  0  0
   -1.0244    4.6229    3.6972 C   0  0  0  0  0  0  0  0  0  0  0  0
   -1.4674    4.3317    2.4720 N   0  0  0  0  0  0  0  0  0  0  0  0
   -0.7137    4.6268    1.4036 C   0  0  0  0  0  0  0  0  0  0  0  0
   -1.2367    4.3888    0.1952 N   0  0  0  0  0  0  0  0  0  0  0  0
    0.5785    5.1797    1.5906 C   0  0  0  0  0  0  0  0  0  0  0  0
    0.9139    5.4405    2.8936 C   0  0  0  0  0  0  0  0  0  0  0  0
    1.6750    4.2217   -0.4421 C   0  0  0  0  0  0  0  0  0  0  0  0
   -2.9400    4.4807    4.6599 H   0  0  0  0  0  0  0  0  0  0  0  0
   -1.8428    3.1479    4.9974 H   0  0  0  0  0  0  0  0  0  0  0  0
   -1.5669    4.7124    5.7586 H   0  0  0  0  0  0  0  0  0  0  0  0
    1.2632    6.2833   -0.1222 H   0  0  0  0  0  0  0  0  0  0  0  0
    2.5260    5.6612    0.9131 H   0  0  0  0  0  0  0  0  0  0  0  0
    1.2955    5.1846   -2.3775 H   0  0  0  0  0  0  0  0  0  0  0  0
    1.6224    0.0307   -1.8980 H   0  0  0  0  0  0  0  0  0  0  0  0
    2.4612    0.0578   -0.3645 H   0  0  0  0  0  0  0  0  0  0  0  0
    2.7976    3.2076    1.9161 H   0  0  0  0  0  0  0  0  0  0  0  0
    1.2291    2.4223    2.0326 H   0  0  0  0  0  0  0  0  0  0  0  0
    2.6288    1.5145    1.4827 H   0  0  0  0  0  0  0  0  0  0  0  0
    0.1465   -0.9932   -0.3226 H   0  0  0  0  0  0  0  0  0  0  0  0
    0.4522    0.2418    0.9085 H   0  0  0  0  0  0  0  0  0  0  0  0
   -2.7030   -0.8434   -2.0001 H   0  0  0  0  0  0  0  0  0  0  0  0
   -3.1126   -0.5748    3.7851 H   0  0  0  0  0  0  0  0  0  0  0  0
   -2.5094    3.2296    2.3318 H   0  0  0  0  0  0  0  0  0  0  0  0
    1.8904    5.8620    3.1123 H   0  0  0  0  0  0  0  0  0  0  0  0
   -2.0835    3.8490    0.1054 H   0  0  0  0  0  0  0  0  0  0  0  0
   -0.6450    4.3992   -0.6196 H   0  0  0  0  0  0  0  0  0  0  0  0
  3  4  1  0
  4  5  1  0
  5  6  2  0
  6  7  1  0
  5  8  1  0
  8  9  1  0
  9 10  1  0
 11 10  1  1
 11 12  1  0
 11 13  1  0
 11 14  2  0
 15 12  1  6
 15 16  1  0
 15 17  2  0
 15 18  1  0
  1 20  1  0
 19 20  2  0
 20 21  1  0
 21 22  2  0
 22 23  1  0
  2 24  1  0
 22 24  1  0
 19 25  1  0
 24 25  2  0
  2 26  1  0
  3 26  2  0
  6 26  1  0
  1 27  1  0
  1 28  1  0
  1 29  1  0
  2 30  1  0
  2 31  1  0
  3 32  1  0
  8 33  1  0
  8 34  1  0
  7 35  1  0
  7 36  1  0
  7 37  1  0
  9 38  1  0
  9 39  1  0
 13 40  1  0
 16 41  1  0
 18 42  1  0
 25 43  1  0
 23 44  1  0
 23 45  1  0
M  END
