
     RDKit          3D

 22 24  0  0  0  0  0  0  0  0999 V2000
    0.3464   -1.8091   -0.2554 N   0  0  0  0  0  0  0  0  0  0  0  0
   -2.9076    0.4696    0.1065 N   0  0  0  0  0  0  0  0  0  0  0  0
   -0.8597   -2.3412   -0.4276 C   0  0  0  0  0  0  0  0  0  0  0  0
   -1.9242   -0.4548   -0.0575 C   0  0  0  0  0  0  0  0  0  0  0  0
   -2.2974    1.6514    0.3994 C   0  0  0  0  0  0  0  0  0  0  0  0
   -0.7414    0.2454    0.1505 C   0  0  0  0  0  0  0  0  0  0  0  0
    1.6581    0.0054    0.2207 N   0  0  0  0  0  0  0  0  0  0  0  0
    3.5815    0.8122    0.2199 C   0  0  0  0  0  0  0  0  0  0  0  0
    2.9659   -0.5847   -0.0085 C   0  0  0  0  0  0  0  0  0  0  0  0
    2.1505    1.3666    0.3748 C   0  0  0  0  0  0  0  0  0  0  0  0
    0.4470   -0.5048    0.0392 C   0  0  0  0  0  0  0  0  0  0  0  0
   -2.0396   -1.7508   -0.3512 N   0  0  0  0  0  0  0  0  0  0  0  0
   -0.9991    1.5625    0.4349 N   0  0  0  0  0  0  0  0  0  0  0  0
   -3.9018    0.3133    0.0402 H   0  0  0  0  0  0  0  0  0  0  0  0
   -0.8707   -3.4005   -0.6640 H   0  0  0  0  0  0  0  0  0  0  0  0
   -2.8679    2.5496    0.5796 H   0  0  0  0  0  0  0  0  0  0  0  0
    4.1939    0.8914    1.1151 H   0  0  0  0  0  0  0  0  0  0  0  0
    4.1381    1.2135   -0.6235 H   0  0  0  0  0  0  0  0  0  0  0  0
    3.2409   -1.3535    0.7155 H   0  0  0  0  0  0  0  0  0  0  0  0
    3.0900   -0.9898   -1.0151 H   0  0  0  0  0  0  0  0  0  0  0  0
    1.8268    2.0417   -0.4194 H   0  0  0  0  0  0  0  0  0  0  0  0
    1.9125    1.8187    1.3385 H   0  0  0  0  0  0  0  0  0  0  0  0
  8  9  1  0
  8 10  1  0
  9  7  1  0
 10  7  1  0
  7 11  1  0
 11  6  1  0
 11  1  2  0
 13  6  1  0
 13  5  2  0
  6  4  2  0
  1  3  1  0
  5  2  1  0
  4  2  1  0
  4 12  1  0
  3 12  2  0
  2 14  1  0
  3 15  1  0
  5 16  1  0
  8 17  1  0
  8 18  1  0
  9 19  1  0
  9 20  1  0
 10 21  1  0
 10 22  1  0
M  END
