
     RDKit          3D

 38 39  0  0  0  0  0  0  0  0999 V2000
    2.0253   -1.9583    0.0129 C   0  0  0  0  0  0  0  0  0  0  0  0
    2.9527    0.6409   -0.3493 C   0  0  0  0  0  0  0  0  0  0  0  0
    3.8500   -0.4069   -0.2140 C   0  0  0  0  0  0  0  0  0  0  0  0
    1.5799    0.3871   -0.3200 C   0  0  0  0  0  0  0  0  0  0  0  0
    2.3345   -4.2932    0.3520 C   0  0  0  0  0  0  0  0  0  0  0  0
   -1.3442   -0.4570   -0.2264 C   0  0  0  0  0  0  0  0  0  0  0  0
   -2.6490   -1.2291   -0.1073 C   0  0  0  0  0  0  0  0  0  0  0  0
   -3.8420   -0.3262   -0.0223 C   0  0  0  0  0  0  0  0  0  0  0  0
   -4.2629    0.1747    1.2065 C   0  0  0  0  0  0  0  0  0  0  0  0
   -5.3596    1.0213    1.2889 C   0  0  0  0  0  0  0  0  0  0  0  0
   -6.0512    1.3799    0.1388 C   0  0  0  0  0  0  0  0  0  0  0  0
   -5.6389    0.8850   -1.0914 C   0  0  0  0  0  0  0  0  0  0  0  0
   -4.5401    0.0393   -1.1687 C   0  0  0  0  0  0  0  0  0  0  0  0
    3.3879    2.0467   -0.5800 C   0  0  0  0  0  0  0  0  0  0  0  0
    3.3862   -1.7037   -0.0354 C   0  0  0  0  0  0  0  0  0  0  0  0
    1.1008   -0.8982   -0.1275 C   0  0  0  0  0  0  0  0  0  0  0  0
   -0.2500   -1.2423   -0.0547 N   0  0  0  0  0  0  0  0  0  0  0  0
    4.5525    2.3664    0.0125 N   0  0  0  0  0  0  0  0  0  0  0  0
    5.1332    3.5745   -0.2102 O   0  0  0  0  0  0  0  0  0  0  0  0
    1.4829   -3.1737    0.1842 O   0  0  0  0  0  0  0  0  0  0  0  0
   -1.3040    0.7335   -0.4669 O   0  0  0  0  0  0  0  0  0  0  0  0
    2.7326    2.8396   -1.2369 O   0  0  0  0  0  0  0  0  0  0  0  0
    4.9188   -0.2474   -0.2706 H   0  0  0  0  0  0  0  0  0  0  0  0
    0.8891    1.2058   -0.4350 H   0  0  0  0  0  0  0  0  0  0  0  0
    2.9709   -4.4486   -0.5217 H   0  0  0  0  0  0  0  0  0  0  0  0
    2.9622   -4.1913    1.2399 H   0  0  0  0  0  0  0  0  0  0  0  0
    1.6854   -5.1559    0.4738 H   0  0  0  0  0  0  0  0  0  0  0  0
   -2.7266   -1.8845   -0.9805 H   0  0  0  0  0  0  0  0  0  0  0  0
   -2.6020   -1.8897    0.7622 H   0  0  0  0  0  0  0  0  0  0  0  0
   -3.7317   -0.1031    2.1097 H   0  0  0  0  0  0  0  0  0  0  0  0
   -5.6756    1.3992    2.2527 H   0  0  0  0  0  0  0  0  0  0  0  0
   -6.9086    2.0373    0.2015 H   0  0  0  0  0  0  0  0  0  0  0  0
   -6.1744    1.1552   -1.9925 H   0  0  0  0  0  0  0  0  0  0  0  0
   -4.2263   -0.3449   -2.1322 H   0  0  0  0  0  0  0  0  0  0  0  0
    4.1049   -2.5062    0.0529 H   0  0  0  0  0  0  0  0  0  0  0  0
   -0.4311   -2.2158    0.1398 H   0  0  0  0  0  0  0  0  0  0  0  0
    5.0362    1.7645    0.6621 H   0  0  0  0  0  0  0  0  0  0  0  0
    4.7447    4.1908    0.4257 H   0  0  0  0  0  0  0  0  0  0  0  0
  5 20  1  0
 15  3  1  0
 15  1  2  0
  3  2  2  0
 20  1  1  0
  1 16  1  0
 18 19  1  0
 18 14  1  0
  2 14  1  0
  2  4  1  0
 16  4  2  0
 16 17  1  0
 14 22  2  0
 17  6  1  0
 21  6  2  0
  6  7  1  0
  7  8  1  0
  9  8  2  0
  9 10  1  0
  8 13  1  0
 10 11  2  0
 13 12  2  0
 11 12  1  0
  3 23  1  0
  4 24  1  0
  5 25  1  0
  5 26  1  0
  5 27  1  0
  7 28  1  0
  7 29  1  0
  9 30  1  0
 10 31  1  0
 11 32  1  0
 12 33  1  0
 13 34  1  0
 15 35  1  0
 17 36  1  0
 18 37  1  0
 19 38  1  0
M  END
