
     RDKit          3D

 69 73  0  0  0  0  0  0  0  0999 V2000
   -3.7206   -1.2929    0.4488 C   0  0  0  0  0  0  0  0  0  0  0  0
   -3.3850   -2.5967    0.0500 C   0  0  0  0  0  0  0  0  0  0  0  0
   -2.0437   -2.7933   -0.2086 C   0  0  0  0  0  0  0  0  0  0  0  0
   -5.4036    0.2471    0.9695 C   0  0  0  0  0  0  0  0  0  0  0  0
   -6.3116    1.8909    2.4523 C   0  0  0  0  0  0  0  0  0  0  0  0
   -5.4716    1.1693   -0.0697 C   0  0  0  0  0  0  0  0  0  0  0  0
   -5.4248    2.3269   -2.1799 C   0  0  0  0  0  0  0  0  0  0  0  0
    7.6706   -0.1672   -1.2404 C   0  0  0  0  0  0  0  0  0  0  0  0
    7.8086   -0.5632    1.2159 C   0  0  0  0  0  0  0  0  0  0  0  0
    9.3185   -0.4959    1.1263 C   0  0  0  0  0  0  0  0  0  0  0  0
   -1.5671   -0.6463    0.2816 C   0  0  0  0  0  0  0  0  0  0  0  0
   -2.8385   -0.3445    0.5731 N   0  0  0  0  0  0  0  0  0  0  0  0
   -1.1299   -1.8396   -0.1006 N   0  0  0  0  0  0  0  0  0  0  0  0
   -4.4052   -3.6681   -0.0900 C   0  0  1  0  0  0  0  0  0  0  0  0
   -5.3429   -3.3623   -0.9964 F   0  0  0  0  0  0  0  0  0  0  0  0
   -3.8534   -4.8242   -0.4756 F   0  0  0  0  0  0  0  0  0  0  0  0
   -5.0512   -3.9105    1.0597 F   0  0  0  0  0  0  0  0  0  0  0  0
   -4.9961   -1.0464    0.7427 O   0  0  0  0  0  0  0  0  0  0  0  0
   -5.9451    3.2766   -1.0950 C   0  0  0  0  0  0  0  0  0  0  0  0
   -5.8219    0.6018    2.2335 C   0  0  0  0  0  0  0  0  0  0  0  0
   -6.3822    2.8225    1.4283 C   0  0  0  0  0  0  0  0  0  0  0  0
   -5.9585    2.4495    0.1597 C   0  0  0  0  0  0  0  0  0  0  0  0
    9.8013   -0.9192   -0.2224 N   0  0  1  0  0  0  0  0  0  0  0  0
    9.1821   -0.0948   -1.3037 C   0  0  0  0  0  0  0  0  0  0  0  0
    7.1554    0.2792    0.1274 C   0  0  2  0  0  0  0  0  0  0  0  0
    5.7178    0.1785    0.2252 N   0  0  0  0  0  0  0  0  0  0  0  0
    2.8912   -0.4066   -0.0386 C   0  0  0  0  0  0  0  0  0  0  0  0
    3.4263    0.8720   -0.0461 C   0  0  0  0  0  0  0  0  0  0  0  0
    2.5665    1.9672    0.0591 C   0  0  0  0  0  0  0  0  0  0  0  0
    1.2059    1.7815    0.2034 C   0  0  0  0  0  0  0  0  0  0  0  0
    0.6606    0.4767    0.2240 C   0  0  0  0  0  0  0  0  0  0  0  0
    1.5227   -0.6046    0.0922 C   0  0  0  0  0  0  0  0  0  0  0  0
    0.7742    4.1157    0.3625 C   0  0  0  0  0  0  0  0  0  0  0  0
    4.8849    1.1502   -0.1905 C   0  0  0  0  0  0  0  0  0  0  0  0
    5.2882    2.2147   -0.6413 O   0  0  0  0  0  0  0  0  0  0  0  0
   -5.1084    1.0146   -1.4874 C   0  0  0  0  0  0  0  0  0  0  0  0
   -4.6465    0.0262   -2.0105 O   0  0  0  0  0  0  0  0  0  0  0  0
   -1.6758   -3.7623   -0.5230 H   0  0  0  0  0  0  0  0  0  0  0  0
   -6.6379    2.1631    3.4473 H   0  0  0  0  0  0  0  0  0  0  0  0
   -6.1641    2.1475   -2.9631 H   0  0  0  0  0  0  0  0  0  0  0  0
   -4.5275    2.7015   -2.6755 H   0  0  0  0  0  0  0  0  0  0  0  0
    7.2716    0.4725   -2.0283 H   0  0  0  0  0  0  0  0  0  0  0  0
    7.3337   -1.1866   -1.4502 H   0  0  0  0  0  0  0  0  0  0  0  0
    7.4822   -1.6052    1.1366 H   0  0  0  0  0  0  0  0  0  0  0  0
    7.5171   -0.2083    2.2052 H   0  0  0  0  0  0  0  0  0  0  0  0
    9.6859    0.5183    1.2841 H   0  0  0  0  0  0  0  0  0  0  0  0
    9.7875   -1.1499    1.8581 H   0  0  0  0  0  0  0  0  0  0  0  0
   -5.2984    4.1469   -0.9721 H   0  0  0  0  0  0  0  0  0  0  0  0
   -6.9427    3.6549   -1.3219 H   0  0  0  0  0  0  0  0  0  0  0  0
   -5.7743   -0.1127    3.0446 H   0  0  0  0  0  0  0  0  0  0  0  0
   -6.7636    3.8173    1.6188 H   0  0  0  0  0  0  0  0  0  0  0  0
    9.5070   -1.8876   -0.3673 H   0  0  0  0  0  0  0  0  0  0  0  0
    9.5626   -0.4671   -2.2526 H   0  0  0  0  0  0  0  0  0  0  0  0
    9.5415    0.9257   -1.1635 H   0  0  0  0  0  0  0  0  0  0  0  0
    7.4348    1.3251    0.2832 H   0  0  0  0  0  0  0  0  0  0  0  0
    5.3367   -0.6568    0.6399 H   0  0  0  0  0  0  0  0  0  0  0  0
    3.5174   -1.2809   -0.1602 H   0  0  0  0  0  0  0  0  0  0  0  0
    2.9826    2.9650    0.0316 H   0  0  0  0  0  0  0  0  0  0  0  0
    1.1290   -1.6074    0.0853 H   0  0  0  0  0  0  0  0  0  0  0  0
   -0.1032    4.7413    0.5004 H   0  0  0  0  0  0  0  0  0  0  0  0
    1.4659    4.2835    1.1911 H   0  0  0  0  0  0  0  0  0  0  0  0
    1.2656    4.3927   -0.5731 H   0  0  0  0  0  0  0  0  0  0  0  0
   -0.7143    0.3967    0.4011 N   0  0  0  0  0  0  0  0  0  0  0  0
    0.3109    2.7785    0.3322 O   0  0  0  0  0  0  0  0  0  0  0  0
   11.2806   -0.8960   -0.2969 C   0  0  0  0  0  0  0  0  0  0  0  0
   11.6811   -1.5579    0.4651 H   0  0  0  0  0  0  0  0  0  0  0  0
   11.5885   -1.2349   -1.2811 H   0  0  0  0  0  0  0  0  0  0  0  0
   11.6265    0.1198   -0.1280 H   0  0  0  0  0  0  0  0  0  0  0  0
   -1.1719    1.2649    0.6396 H   0  0  0  0  0  0  0  0  0  0  0  0
  7 19  1  0
  7 36  1  0
 19 22  1  0
 36 37  2  0
 36  6  1  0
 22  6  2  0
 22 21  1  0
  6  4  1  0
 21  5  2  0
 14 17  1  1
  4 18  1  0
  4 20  2  0
  5 20  1  0
 18  1  1  0
 14 16  1  0
 14 15  1  0
 14  2  1  0
  1  2  2  0
  1 12  1  0
  2  3  1  0
 12 11  2  0
  9 10  1  0
  9 25  1  0
 10 23  1  0
  3 13  2  0
 32 27  2  0
 32 31  1  0
 27 28  1  0
 11 13  1  0
 11 63  1  0
 23 65  1  0
 23 24  1  0
 26 25  1  0
 26 34  1  0
 63 31  1  0
 25  8  1  0
 31 30  2  0
 28 34  1  0
 28 29  2  0
 34 35  2  0
  8 24  1  0
 30 29  1  0
 30 64  1  0
 64 33  1  0
  3 38  1  0
  5 39  1  0
  7 40  1  0
  7 41  1  0
  8 42  1  0
  8 43  1  0
  9 44  1  0
  9 45  1  0
 65 66  1  0
 65 67  1  0
 65 68  1  0
 10 46  1  0
 10 47  1  0
 63 69  1  0
 19 48  1  0
 19 49  1  0
 20 50  1  0
 21 51  1  0
 23 52  1  6
 24 53  1  0
 24 54  1  0
 25 55  1  1
 26 56  1  0
 27 57  1  0
 29 58  1  0
 32 59  1  0
 33 60  1  0
 33 61  1  0
 33 62  1  0
M  CHG  1  23   1
M  END
