
     RDKit          3D

 60 61  0  0  0  0  0  0  0  0999 V2000
   -2.0810    0.4682    2.4328 O   0  0  0  0  0  0  0  0  0  0  0  0
   -1.3275    1.4312    1.7408 C   0  0  0  0  0  0  0  0  0  0  0  0
   -0.2402    0.7047    0.9535 C   0  0  2  0  0  0  0  0  0  0  0  0
   -0.7823   -0.1255   -0.0893 N   0  0  0  0  0  0  0  0  0  0  0  0
   -1.1456    0.3526   -1.2860 C   0  0  0  0  0  0  0  0  0  0  0  0
   -1.7471   -0.6972   -2.2271 C   0  0  2  0  0  0  0  0  0  0  0  0
   -1.8343   -0.2104   -3.5880 N   0  0  0  0  0  0  0  0  0  0  0  0
   -0.4435    0.1084   -4.4255 S   0  0  1  0  0  0  0  0  0  0  0  0
   -0.5578   -1.0341   -5.8088 C   0  0  0  0  0  0  0  0  0  0  0  0
    0.6286   -0.8679   -6.7048 C   0  0  0  0  0  0  0  0  0  0  0  0
    0.5895    0.0362   -7.7626 C   0  0  0  0  0  0  0  0  0  0  0  0
    1.6951    0.2022   -8.5843 C   0  0  0  0  0  0  0  0  0  0  0  0
    2.8532   -0.5279   -8.3497 C   0  0  0  0  0  0  0  0  0  0  0  0
    2.9000   -1.4277   -7.2928 C   0  0  0  0  0  0  0  0  0  0  0  0
    1.7938   -1.5934   -6.4716 C   0  0  0  0  0  0  0  0  0  0  0  0
   -0.4957    1.4604   -4.9610 O   0  0  0  0  0  0  0  0  0  0  0  0
    0.6899   -0.2956   -3.6029 O   0  0  0  0  0  0  0  0  0  0  0  0
   -3.1409   -1.0948   -1.7610 C   0  0  0  0  0  0  0  0  0  0  0  0
   -3.9342    0.0649   -1.7332 O   0  0  0  0  0  0  0  0  0  0  0  0
   -1.0301    1.5209   -1.6151 O   0  0  0  0  0  0  0  0  0  0  0  0
    0.5867   -0.1788    1.8889 C   0  0  0  0  0  0  0  0  0  0  0  0
    0.5429   -1.3968    1.8286 O   0  0  0  0  0  0  0  0  0  0  0  0
    1.3368    0.4993    2.7688 N   0  0  0  0  0  0  0  0  0  0  0  0
    2.1447   -0.1244    3.7858 C   0  0  0  0  0  0  0  0  0  0  0  0
    1.5088   -0.1490    5.1556 C   0  0  0  0  0  0  0  0  0  0  0  0
    2.3249   -0.2003    6.2818 C   0  0  0  0  0  0  0  0  0  0  0  0
    1.7816   -0.2663    7.5548 C   0  0  0  0  0  0  0  0  0  0  0  0
    0.3995   -0.2934    7.7317 C   0  0  0  0  0  0  0  0  0  0  0  0
   -0.4170   -0.2374    6.6052 C   0  0  0  0  0  0  0  0  0  0  0  0
    0.1290   -0.1597    5.3334 C   0  0  0  0  0  0  0  0  0  0  0  0
   -0.2068   -0.4008    9.0880 C   0  0  0  0  0  0  0  0  0  0  0  0
   -1.2714   -1.0559    9.3553 N   0  0  0  0  0  0  0  0  0  0  0  0
    0.4892    0.2228   10.0808 N   0  0  0  0  0  0  0  0  0  0  0  0
   -2.7533    0.9225    2.9492 H   0  0  0  0  0  0  0  0  0  0  0  0
   -0.8582    2.1549    2.4183 H   0  0  0  0  0  0  0  0  0  0  0  0
   -1.9395    2.0069    1.0379 H   0  0  0  0  0  0  0  0  0  0  0  0
    0.4113    1.4615    0.5072 H   0  0  0  0  0  0  0  0  0  0  0  0
   -0.8654   -1.1118    0.1081 H   0  0  0  0  0  0  0  0  0  0  0  0
   -1.1327   -1.6002   -2.2090 H   0  0  0  0  0  0  0  0  0  0  0  0
   -2.5333    0.5114   -3.7295 H   0  0  0  0  0  0  0  0  0  0  0  0
   -1.4978   -0.8156   -6.3164 H   0  0  0  0  0  0  0  0  0  0  0  0
   -0.6209   -2.0346   -5.3789 H   0  0  0  0  0  0  0  0  0  0  0  0
   -0.3125    0.6049   -7.9525 H   0  0  0  0  0  0  0  0  0  0  0  0
    1.6529    0.9024   -9.4082 H   0  0  0  0  0  0  0  0  0  0  0  0
    3.7152   -0.3989   -8.9912 H   0  0  0  0  0  0  0  0  0  0  0  0
    3.7984   -2.0021   -7.1076 H   0  0  0  0  0  0  0  0  0  0  0  0
    1.8326   -2.3005   -5.6525 H   0  0  0  0  0  0  0  0  0  0  0  0
   -3.0628   -1.5640   -0.7732 H   0  0  0  0  0  0  0  0  0  0  0  0
   -3.5336   -1.8510   -2.4492 H   0  0  0  0  0  0  0  0  0  0  0  0
   -4.8497   -0.1924   -1.5916 H   0  0  0  0  0  0  0  0  0  0  0  0
    1.3325    1.5067    2.7403 H   0  0  0  0  0  0  0  0  0  0  0  0
    2.3680   -1.1448    3.4711 H   0  0  0  0  0  0  0  0  0  0  0  0
    3.0998    0.4000    3.8370 H   0  0  0  0  0  0  0  0  0  0  0  0
    3.4023   -0.1892    6.1658 H   0  0  0  0  0  0  0  0  0  0  0  0
    2.4431   -0.3126    8.4102 H   0  0  0  0  0  0  0  0  0  0  0  0
   -1.4946   -0.2345    6.7164 H   0  0  0  0  0  0  0  0  0  0  0  0
   -0.5364   -0.0987    4.4815 H   0  0  0  0  0  0  0  0  0  0  0  0
   -1.6044   -1.5469    8.5339 H   0  0  0  0  0  0  0  0  0  0  0  0
    0.0355    0.2661   10.9795 H   0  0  0  0  0  0  0  0  0  0  0  0
    1.0176    1.0467    9.8465 H   0  0  0  0  0  0  0  0  0  0  0  0
  1  2  1  0
  1 34  1  0
  2  3  1  0
  2 35  1  0
  2 36  1  0
  3  4  1  0
  3 21  1  0
  3 37  1  6
  4  5  1  0
  4 38  1  0
  5  6  1  0
  5 20  2  0
  6  7  1  0
  6 18  1  0
  6 39  1  6
  8  7  1  1
  7 40  1  0
  8  9  1  0
  8 16  2  0
  8 17  2  0
  9 10  1  0
  9 41  1  0
  9 42  1  0
 10 11  2  0
 10 15  1  0
 11 12  1  0
 11 43  1  0
 12 13  2  0
 12 44  1  0
 13 14  1  0
 13 45  1  0
 14 15  2  0
 14 46  1  0
 15 47  1  0
 18 19  1  0
 18 48  1  0
 18 49  1  0
 19 50  1  0
 21 22  2  0
 21 23  1  0
 23 24  1  0
 23 51  1  0
 24 25  1  0
 24 52  1  0
 24 53  1  0
 25 26  2  0
 25 30  1  0
 26 27  1  0
 26 54  1  0
 27 28  2  0
 27 55  1  0
 28 29  1  0
 28 31  1  0
 29 30  2  0
 29 56  1  0
 30 57  1  0
 31 32  2  0
 31 33  1  0
 32 58  1  0
 33 59  1  0
 33 60  1  0
M  END
