
     RDKit          3D

 58 61  0  0  0  0  0  0  0  0999 V2000
    1.8918    5.1414    0.0241 S   0  0  1  0  0  0  0  0  0  0  0  0
    0.5407    1.5770   -0.7397 C   0  0  1  0  0  0  0  0  0  0  0  0
    1.8851    1.3639   -0.0662 C   0  0  1  0  0  0  0  0  0  0  0  0
    1.6176    3.6382   -0.5750 N   0  0  0  0  0  0  0  0  0  0  0  0
   -0.5512    0.6835   -0.1909 C   0  0  0  0  0  0  0  0  0  0  0  0
   -6.7161   -1.3729    0.5005 N   0  0  0  0  0  0  0  0  0  0  0  0
    2.5794    0.0825   -0.4775 C   0  0  0  0  0  0  0  0  0  0  0  0
    0.2730    3.0631   -0.4783 C   0  0  0  0  0  0  0  0  0  0  0  0
    2.6665    2.6146   -0.4814 C   0  0  0  0  0  0  0  0  0  0  0  0
   -7.2568   -2.4240   -0.2452 C   0  0  0  0  0  0  0  0  0  0  0  0
   -5.4350   -0.8701    0.1258 C   0  0  0  0  0  0  0  0  0  0  0  0
   -1.7147    0.7620   -0.8869 N   0  0  0  0  0  0  0  0  0  0  0  0
   -5.3541    0.3620   -0.5029 C   0  0  0  0  0  0  0  0  0  0  0  0
    3.4971   -0.3396    0.4286 N   0  0  0  0  0  0  0  0  0  0  0  0
   -2.9312    0.1728   -0.5300 C   0  0  0  0  0  0  0  0  0  0  0  0
   -4.1078    0.8622   -0.8074 C   0  0  0  0  0  0  0  0  0  0  0  0
    6.0391   -2.7063    1.5160 C   0  0  0  0  0  0  0  0  0  0  0  0
    5.1547   -1.6530    1.4972 C   0  0  0  0  0  0  0  0  0  0  0  0
    3.2164    5.5423   -0.4221 O   0  0  0  0  0  0  0  0  0  0  0  0
    0.7335    5.9481   -0.3265 O   0  0  0  0  0  0  0  0  0  0  0  0
   -7.3604   -0.7864    1.5490 C   0  0  0  0  0  0  0  0  0  0  0  0
    4.3612   -1.4322    0.3697 C   0  0  0  0  0  0  0  0  0  0  0  0
   -0.3927   -0.0121    0.7913 O   0  0  0  0  0  0  0  0  0  0  0  0
    2.3451   -0.4739   -1.5321 O   0  0  0  0  0  0  0  0  0  0  0  0
   -8.5576   -2.8539    0.1944 C   0  0  0  0  0  0  0  0  0  0  0  0
    6.1670   -3.5646    0.4368 C   0  0  0  0  0  0  0  0  0  0  0  0
   -6.6335   -2.8977   -1.1872 O   0  0  0  0  0  0  0  0  0  0  0  0
   -4.2866   -1.5895    0.4111 C   0  0  0  0  0  0  0  0  0  0  0  0
   -3.0436   -1.0760    0.0779 C   0  0  0  0  0  0  0  0  0  0  0  0
   -8.5864   -1.1984    1.9473 C   0  0  0  0  0  0  0  0  0  0  0  0
   -9.1918   -2.2659    1.2410 C   0  0  0  0  0  0  0  0  0  0  0  0
    5.3797   -3.3438   -0.6795 C   0  0  0  0  0  0  0  0  0  0  0  0
    1.9333    4.9778    1.7961 C   0  0  0  0  0  0  0  0  0  0  0  0
   -4.0177    2.0608   -1.4002 F   0  0  0  0  0  0  0  0  0  0  0  0
    4.4796   -2.2900   -0.7252 C   0  0  0  0  0  0  0  0  0  0  0  0
    7.2884   -4.8698    0.5052 Cl  0  0  0  0  0  0  0  0  0  0  0  0
    2.7244    4.2882    2.0826 H   0  0  0  0  0  0  0  0  0  0  0  0
    2.1370    5.9602    2.2190 H   0  0  0  0  0  0  0  0  0  0  0  0
    0.9718    4.6169    2.1544 H   0  0  0  0  0  0  0  0  0  0  0  0
    0.6353    1.4170   -1.8182 H   0  0  0  0  0  0  0  0  0  0  0  0
    1.7473    1.3805    1.0189 H   0  0  0  0  0  0  0  0  0  0  0  0
   -0.3949    3.5065   -1.2143 H   0  0  0  0  0  0  0  0  0  0  0  0
   -0.1658    3.2040    0.5159 H   0  0  0  0  0  0  0  0  0  0  0  0
    3.4385    2.8664    0.2464 H   0  0  0  0  0  0  0  0  0  0  0  0
    3.1513    2.4867   -1.4508 H   0  0  0  0  0  0  0  0  0  0  0  0
   -1.7329    1.3847   -1.6807 H   0  0  0  0  0  0  0  0  0  0  0  0
   -6.8271    0.0159    2.0384 H   0  0  0  0  0  0  0  0  0  0  0  0
    3.5551    0.1999    1.2796 H   0  0  0  0  0  0  0  0  0  0  0  0
   -9.0154   -3.6658   -0.3542 H   0  0  0  0  0  0  0  0  0  0  0  0
   -6.2424    0.9334   -0.7402 H   0  0  0  0  0  0  0  0  0  0  0  0
   -4.3533   -2.5528    0.8979 H   0  0  0  0  0  0  0  0  0  0  0  0
   -2.1602   -1.6564    0.2913 H   0  0  0  0  0  0  0  0  0  0  0  0
    5.0867   -1.0070    2.3643 H   0  0  0  0  0  0  0  0  0  0  0  0
   -9.0743   -0.7188    2.7816 H   0  0  0  0  0  0  0  0  0  0  0  0
    3.8858   -2.1531   -1.6125 H   0  0  0  0  0  0  0  0  0  0  0  0
  -10.1720   -2.6153    1.5391 H   0  0  0  0  0  0  0  0  0  0  0  0
    5.4675   -4.0023   -1.5329 H   0  0  0  0  0  0  0  0  0  0  0  0
    6.7884   -2.9060    2.6005 F   0  0  0  0  0  0  0  0  0  0  0  0
  1  4  1  0
  1 19  2  0
  1 20  2  0
  1 33  1  1
  2  3  1  0
  2  5  1  0
  2  8  1  0
  3  7  1  0
  3  9  1  0
  4  8  1  0
  4  9  1  0
  5 12  1  0
  5 23  2  0
  6 10  1  0
  6 11  1  0
  6 21  1  0
  7 14  1  0
  7 24  2  0
 10 25  1  0
 10 27  2  0
 11 13  2  0
 11 28  1  0
 12 15  1  0
 13 16  1  0
 14 22  1  0
 15 16  2  0
 15 29  1  0
 16 34  1  0
 17 18  2  0
 17 26  1  0
 17 58  1  0
 18 22  1  0
 21 30  2  0
 22 35  2  0
 25 31  2  0
 26 32  2  0
 26 36  1  0
 28 29  2  0
 30 31  1  0
 32 35  1  0
 33 37  1  0
 33 38  1  0
 33 39  1  0
  2 40  1  6
  3 41  1  1
  8 42  1  0
  8 43  1  0
  9 44  1  0
  9 45  1  0
 12 46  1  0
 21 47  1  0
 14 48  1  0
 25 49  1  0
 13 50  1  0
 28 51  1  0
 29 52  1  0
 18 53  1  0
 30 54  1  0
 35 55  1  0
 31 56  1  0
 32 57  1  0
M  END
