
     RDKit          3D

110111  0  0  0  0  0  0  0  0999 V2000
    8.1089   -1.6139    1.8424 C   0  0  2  0  0  0  0  0  0  0  0  0
    7.0312   -2.6828    2.0155 C   0  0  1  0  0  0  0  0  0  0  0  0
    7.0955   -3.6711    0.8585 C   0  0  2  0  0  0  0  0  0  0  0  0
    6.9817   -2.9239   -0.4733 C   0  0  1  0  0  0  0  0  0  0  0  0
    7.9605   -0.9744    0.4683 C   0  0  1  0  0  0  0  0  0  0  0  0
    1.5972   -0.8998   -1.2268 C   0  0  2  0  0  0  0  0  0  0  0  0
    0.3592   -1.7319   -0.8903 C   0  0  0  0  0  0  0  0  0  0  0  0
    4.4382    1.4091   -1.1304 C   0  0  0  0  0  0  0  0  0  0  0  0
   -5.2828    0.0735    0.4514 C   0  0  0  0  0  0  0  0  0  0  0  0
   -6.5468   -0.7553    0.2572 C   0  0  0  0  0  0  0  0  0  0  0  0
   -7.8082    0.0895    0.3806 C   0  0  0  0  0  0  0  0  0  0  0  0
   -9.0868   -0.7205    0.2101 C   0  0  0  0  0  0  0  0  0  0  0  0
  -10.3510    0.1222    0.3228 C   0  0  0  0  0  0  0  0  0  0  0  0
  -14.1659   -0.6845    0.1001 C   0  0  0  0  0  0  0  0  0  0  0  0
  -15.4132    0.1510    0.1698 C   0  0  0  0  0  0  0  0  0  0  0  0
  -15.9660    0.5082    1.3989 C   0  0  0  0  0  0  0  0  0  0  0  0
  -17.0989    1.3078    1.4674 C   0  0  0  0  0  0  0  0  0  0  0  0
    9.4017   -2.1568    1.9581 O   0  0  0  0  0  0  0  0  0  0  0  0
    9.0448    0.0417    0.1806 C   0  0  0  0  0  0  0  0  0  0  0  0
    4.1380   -0.9785   -1.6718 C   0  0  1  0  0  0  0  0  0  0  0  0
    2.8878   -1.7468   -1.1901 C   0  0  2  0  0  0  0  0  0  0  0  0
   -2.1597   -1.7767   -0.6636 C   0  0  0  0  0  0  0  0  0  0  0  0
   -3.4291   -0.9633   -0.7896 C   0  0  0  0  0  0  0  0  0  0  0  0
  -11.6278   -0.6924    0.1611 C   0  0  0  0  0  0  0  0  0  0  0  0
  -12.8935    0.1491    0.2586 C   0  0  0  0  0  0  0  0  0  0  0  0
   -0.9295   -0.9234   -0.9735 C   0  0  0  0  0  0  0  0  0  0  0  0
    4.4800    0.1116   -0.7912 N   0  0  0  0  0  0  0  0  0  0  0  0
    7.2490   -3.3118    3.2560 O   0  0  0  0  0  0  0  0  0  0  0  0
    9.2846    8.3781    1.5431 C   0  0  0  0  0  0  0  0  0  0  0  0
    8.8422    7.3688    0.4927 C   0  0  0  0  0  0  0  0  0  0  0  0
    7.8480    6.3478    1.0324 C   0  0  0  0  0  0  0  0  0  0  0  0
    7.4060    5.3302   -0.0114 C   0  0  0  0  0  0  0  0  0  0  0  0
    6.3749    4.3376    0.5107 C   0  0  0  0  0  0  0  0  0  0  0  0
    5.9531    3.3239   -0.5441 C   0  0  0  0  0  0  0  0  0  0  0  0
    4.8661    2.3742   -0.0478 C   0  0  0  0  0  0  0  0  0  0  0  0
    4.1029    1.8009   -2.2410 O   0  0  0  0  0  0  0  0  0  0  0  0
    5.7030   -2.3877   -0.5665 O   0  0  0  0  0  0  0  0  0  0  0  0
    7.9827   -1.9471   -0.5634 O   0  0  0  0  0  0  0  0  0  0  0  0
    6.0722   -4.6186    1.0336 O   0  0  0  0  0  0  0  0  0  0  0  0
    2.7285   -2.9218   -1.9519 O   0  0  0  0  0  0  0  0  0  0  0  0
    1.6831    0.2375   -0.3982 O   0  0  0  0  0  0  0  0  0  0  0  0
   -3.8186   -0.5451   -1.8741 O   0  0  0  0  0  0  0  0  0  0  0  0
   -4.0645   -0.7004    0.3629 N   0  0  0  0  0  0  0  0  0  0  0  0
  -17.7007    1.7673    0.3024 C   0  0  0  0  0  0  0  0  0  0  0  0
  -17.1590    1.4204   -0.9282 C   0  0  0  0  0  0  0  0  0  0  0  0
  -16.0251    0.6205   -0.9904 C   0  0  0  0  0  0  0  0  0  0  0  0
    7.9430   -0.8288    2.5961 H   0  0  0  0  0  0  0  0  0  0  0  0
    6.0525   -2.1810    2.0007 H   0  0  0  0  0  0  0  0  0  0  0  0
    8.0815   -4.1533    0.8689 H   0  0  0  0  0  0  0  0  0  0  0  0
    7.1768   -3.6109   -1.3090 H   0  0  0  0  0  0  0  0  0  0  0  0
    7.0044   -0.4348    0.4655 H   0  0  0  0  0  0  0  0  0  0  0  0
    1.4822   -0.5056   -2.2455 H   0  0  0  0  0  0  0  0  0  0  0  0
    0.2910   -2.5796   -1.5744 H   0  0  0  0  0  0  0  0  0  0  0  0
    0.4689   -2.1567    0.1157 H   0  0  0  0  0  0  0  0  0  0  0  0
   -5.2459    0.8771   -0.2862 H   0  0  0  0  0  0  0  0  0  0  0  0
   -5.2986    0.5488    1.4338 H   0  0  0  0  0  0  0  0  0  0  0  0
   -6.5176   -1.2341   -0.7260 H   0  0  0  0  0  0  0  0  0  0  0  0
   -6.5674   -1.5610    0.9978 H   0  0  0  0  0  0  0  0  0  0  0  0
   -7.8210    0.5858    1.3574 H   0  0  0  0  0  0  0  0  0  0  0  0
   -7.7841    0.8911   -0.3660 H   0  0  0  0  0  0  0  0  0  0  0  0
   -9.0718   -1.2226   -0.7636 H   0  0  0  0  0  0  0  0  0  0  0  0
   -9.1134   -1.5177    0.9613 H   0  0  0  0  0  0  0  0  0  0  0  0
  -10.3642    0.6302    1.2937 H   0  0  0  0  0  0  0  0  0  0  0  0
  -10.3273    0.9149   -0.4333 H   0  0  0  0  0  0  0  0  0  0  0  0
  -14.1891   -1.4518    0.8796 H   0  0  0  0  0  0  0  0  0  0  0  0
  -14.1315   -1.2145   -0.8561 H   0  0  0  0  0  0  0  0  0  0  0  0
  -15.5069    0.1526    2.3145 H   0  0  0  0  0  0  0  0  0  0  0  0
  -17.5162    1.5670    2.4323 H   0  0  0  0  0  0  0  0  0  0  0  0
    9.3907    1.3880   -1.1647 H   0  0  0  0  0  0  0  0  0  0  0  0
    9.4353   -2.6721    2.7716 H   0  0  0  0  0  0  0  0  0  0  0  0
    9.0996    0.7242    1.0387 H   0  0  0  0  0  0  0  0  0  0  0  0
   10.0176   -0.4572    0.1017 H   0  0  0  0  0  0  0  0  0  0  0  0
    5.1707   -2.6794   -2.5475 H   0  0  0  0  0  0  0  0  0  0  0  0
    6.1714   -1.2542   -2.2429 H   0  0  0  0  0  0  0  0  0  0  0  0
    3.9197   -0.5485   -2.6531 H   0  0  0  0  0  0  0  0  0  0  0  0
    3.0513   -2.0833   -0.1592 H   0  0  0  0  0  0  0  0  0  0  0  0
   -2.0655   -2.2119    0.3344 H   0  0  0  0  0  0  0  0  0  0  0  0
   -2.2189   -2.6083   -1.3706 H   0  0  0  0  0  0  0  0  0  0  0  0
  -11.6103   -1.2077   -0.8059 H   0  0  0  0  0  0  0  0  0  0  0  0
  -11.6556   -1.4794    0.9230 H   0  0  0  0  0  0  0  0  0  0  0  0
  -12.8753    0.9309   -0.5078 H   0  0  0  0  0  0  0  0  0  0  0  0
  -12.9181    0.6671    1.2232 H   0  0  0  0  0  0  0  0  0  0  0  0
   -0.8927   -0.0821   -0.2778 H   0  0  0  0  0  0  0  0  0  0  0  0
   -1.0274   -0.4981   -1.9763 H   0  0  0  0  0  0  0  0  0  0  0  0
    4.7494   -0.1301    0.1476 H   0  0  0  0  0  0  0  0  0  0  0  0
    6.6850   -4.0914    3.3039 H   0  0  0  0  0  0  0  0  0  0  0  0
    9.7892    7.8854    2.3762 H   0  0  0  0  0  0  0  0  0  0  0  0
    9.9746    9.1135    1.1274 H   0  0  0  0  0  0  0  0  0  0  0  0
    8.4295    8.9205    1.9514 H   0  0  0  0  0  0  0  0  0  0  0  0
    8.3926    7.8968   -0.3542 H   0  0  0  0  0  0  0  0  0  0  0  0
    9.7172    6.8464    0.0938 H   0  0  0  0  0  0  0  0  0  0  0  0
    8.2918    5.8234    1.8860 H   0  0  0  0  0  0  0  0  0  0  0  0
    6.9688    6.8719    1.4236 H   0  0  0  0  0  0  0  0  0  0  0  0
    6.9902    5.8582   -0.8765 H   0  0  0  0  0  0  0  0  0  0  0  0
    8.2816    4.7856   -0.3819 H   0  0  0  0  0  0  0  0  0  0  0  0
    6.7802    3.8123    1.3823 H   0  0  0  0  0  0  0  0  0  0  0  0
    5.4938    4.8830    0.8666 H   0  0  0  0  0  0  0  0  0  0  0  0
    5.5914    3.8505   -1.4303 H   0  0  0  0  0  0  0  0  0  0  0  0
    6.8245    2.7399   -0.8566 H   0  0  0  0  0  0  0  0  0  0  0  0
    3.9846    2.9474    0.2556 H   0  0  0  0  0  0  0  0  0  0  0  0
    5.2133    1.8447    0.8435 H   0  0  0  0  0  0  0  0  0  0  0  0
    6.2953   -5.4111    0.5365 H   0  0  0  0  0  0  0  0  0  0  0  0
    2.5246   -2.6754   -2.8614 H   0  0  0  0  0  0  0  0  0  0  0  0
    1.7891   -0.0595    0.5123 H   0  0  0  0  0  0  0  0  0  0  0  0
   -3.7037   -1.1010    1.2123 H   0  0  0  0  0  0  0  0  0  0  0  0
  -18.5862    2.3876    0.3537 H   0  0  0  0  0  0  0  0  0  0  0  0
  -17.6223    1.7680   -1.8430 H   0  0  0  0  0  0  0  0  0  0  0  0
  -15.6116    0.3532   -1.9561 H   0  0  0  0  0  0  0  0  0  0  0  0
    8.7142    0.7240   -1.0062 O   0  0  0  0  0  0  0  0  0  0  0  0
    5.3618   -1.8691   -1.8364 C   0  0  0  0  0  0  0  0  0  0  0  0
 17 44  1  0
 17 16  2  0
 44 45  2  0
 16 15  1  0
 25 24  1  0
 25 14  1  0
 45 46  1  0
 15 46  2  0
 15 14  1  0
 24 13  1  0
 13 12  1  0
 12 11  1  0
 11 10  1  0
 10  9  1  0
  9 43  1  0
 43 23  1  0
 23 42  2  0
 23 22  1  0
 41  6  1  0
 22 26  1  0
 26  7  1  0
  6  7  1  0
  6 21  1  0
 30 29  1  0
 30 31  1  0
 21 40  1  0
 21 20  1  0
 39  3  1  0
 28  2  1  0
 32 31  1  0
 32 33  1  0
 34 33  1  0
 34 35  1  0
  2  3  1  0
  2  1  1  0
 27 20  1  0
 27  8  1  0
  3  4  1  0
 20110  1  0
 37  4  1  0
 37110  1  0
 35  8  1  0
  4 38  1  0
  8 36  2  0
  1 18  1  0
  1  5  1  0
  5 38  1  0
  5 19  1  0
 19109  1  0
  1 47  1  1
  2 48  1  1
  3 49  1  6
  4 50  1  6
  5 51  1  1
  6 52  1  6
  7 53  1  0
  7 54  1  0
  9 55  1  0
  9 56  1  0
 10 57  1  0
 10 58  1  0
 11 59  1  0
 11 60  1  0
 12 61  1  0
 12 62  1  0
 13 63  1  0
 13 64  1  0
 14 65  1  0
 14 66  1  0
 16 67  1  0
 17 68  1  0
109 69  1  0
 18 70  1  0
 19 71  1  0
 19 72  1  0
110 73  1  0
110 74  1  0
 20 75  1  6
 21 76  1  1
 22 77  1  0
 22 78  1  0
 24 79  1  0
 24 80  1  0
 25 81  1  0
 25 82  1  0
 26 83  1  0
 26 84  1  0
 27 85  1  0
 28 86  1  0
 29 87  1  0
 29 88  1  0
 29 89  1  0
 30 90  1  0
 30 91  1  0
 31 92  1  0
 31 93  1  0
 32 94  1  0
 32 95  1  0
 33 96  1  0
 33 97  1  0
 34 98  1  0
 34 99  1  0
 35100  1  0
 35101  1  0
 39102  1  0
 40103  1  0
 41104  1  0
 43105  1  0
 44106  1  0
 45107  1  0
 46108  1  0
M  END
