
     RDKit          3D

 65 69  0  0  0  0  0  0  0  0999 V2000
    7.3052    0.5747    0.3831 C   0  0  0  0  0  0  0  0  0  0  0  0
    7.5720   -0.5544    1.3724 C   0  0  2  0  0  0  0  0  0  0  0  0
    9.0466   -0.8063    1.6334 C   0  0  0  0  0  0  0  0  0  0  0  0
    6.8293   -1.7483    0.7371 C   0  0  0  0  0  0  0  0  0  0  0  0
    5.9491   -1.1362   -0.3637 C   0  0  0  0  0  0  0  0  0  0  0  0
    5.9671    0.2935   -0.0944 N   0  0  0  0  0  0  0  0  0  0  0  0
    5.5596    1.1305   -1.1946 C   0  0  0  0  0  0  0  0  0  0  0  0
    4.1513    0.8563   -1.6724 C   0  0  0  0  0  0  0  0  0  0  0  0
    3.2571    1.0444   -0.5892 O   0  0  0  0  0  0  0  0  0  0  0  0
    1.9563    0.7573   -0.7659 C   0  0  0  0  0  0  0  0  0  0  0  0
    1.3969    0.3465   -1.9749 C   0  0  0  0  0  0  0  0  0  0  0  0
    0.0402    0.0589   -2.0394 C   0  0  0  0  0  0  0  0  0  0  0  0
    1.1350    0.8784    0.3573 C   0  0  0  0  0  0  0  0  0  0  0  0
   -0.2132    0.5861    0.2725 C   0  0  0  0  0  0  0  0  0  0  0  0
   -0.7860    0.1693   -0.9283 C   0  0  0  0  0  0  0  0  0  0  0  0
   -2.2618   -0.1312   -1.0727 C   0  0  2  0  0  0  0  0  0  0  0  0
   -2.9439    1.0092   -1.6010 O   0  0  0  0  0  0  0  0  0  0  0  0
   -3.2522    1.9825   -0.7230 C   0  0  0  0  0  0  0  0  0  0  0  0
   -3.3474    3.2777   -1.2027 C   0  0  0  0  0  0  0  0  0  0  0  0
   -3.7107    4.3045   -0.3353 C   0  0  0  0  0  0  0  0  0  0  0  0
   -3.7875    5.5478   -0.8439 O   0  0  0  0  0  0  0  0  0  0  0  0
   -3.9684    4.0226    1.0047 C   0  0  0  0  0  0  0  0  0  0  0  0
   -3.8751    2.7172    1.4581 C   0  0  0  0  0  0  0  0  0  0  0  0
   -3.5173    1.6658    0.6164 C   0  0  0  0  0  0  0  0  0  0  0  0
   -3.4756    0.2609    1.0299 C   0  0  0  0  0  0  0  0  0  0  0  0
   -4.0404   -0.0836    2.3740 C   0  0  0  0  0  0  0  0  0  0  0  0
   -2.9128   -0.6318    0.1943 C   0  0  0  0  0  0  0  0  0  0  0  0
   -2.8664   -2.0896    0.4179 C   0  0  0  0  0  0  0  0  0  0  0  0
   -1.6677   -2.8035    0.3338 C   0  0  0  0  0  0  0  0  0  0  0  0
   -1.6269   -4.1755    0.5150 C   0  0  0  0  0  0  0  0  0  0  0  0
   -2.7989   -4.8802    0.7799 C   0  0  0  0  0  0  0  0  0  0  0  0
   -2.7093   -6.2139    0.9496 O   0  0  0  0  0  0  0  0  0  0  0  0
   -4.0059   -4.1899    0.8527 C   0  0  0  0  0  0  0  0  0  0  0  0
   -4.0309   -2.8165    0.6683 C   0  0  0  0  0  0  0  0  0  0  0  0
    7.3608    1.5672    0.8376 H   0  0  0  0  0  0  0  0  0  0  0  0
    8.0510    0.5448   -0.4340 H   0  0  0  0  0  0  0  0  0  0  0  0
    7.0857   -0.2973    2.3178 H   0  0  0  0  0  0  0  0  0  0  0  0
    9.5640   -1.0853    0.7127 H   0  0  0  0  0  0  0  0  0  0  0  0
    9.5393    0.0803    2.0366 H   0  0  0  0  0  0  0  0  0  0  0  0
    9.1903   -1.6152    2.3513 H   0  0  0  0  0  0  0  0  0  0  0  0
    7.5304   -2.4665    0.3079 H   0  0  0  0  0  0  0  0  0  0  0  0
    6.2373   -2.2860    1.4780 H   0  0  0  0  0  0  0  0  0  0  0  0
    6.3725   -1.3642   -1.3557 H   0  0  0  0  0  0  0  0  0  0  0  0
    4.9296   -1.5272   -0.3537 H   0  0  0  0  0  0  0  0  0  0  0  0
    5.6407    2.1773   -0.8875 H   0  0  0  0  0  0  0  0  0  0  0  0
    6.2173    1.0121   -2.0744 H   0  0  0  0  0  0  0  0  0  0  0  0
    3.9162    1.5413   -2.4944 H   0  0  0  0  0  0  0  0  0  0  0  0
    4.0676   -0.1631   -2.0642 H   0  0  0  0  0  0  0  0  0  0  0  0
    1.9968    0.2408   -2.8685 H   0  0  0  0  0  0  0  0  0  0  0  0
   -0.3738   -0.2685   -2.9862 H   0  0  0  0  0  0  0  0  0  0  0  0
    1.5658    1.1943    1.2993 H   0  0  0  0  0  0  0  0  0  0  0  0
   -0.8225    0.6679    1.1638 H   0  0  0  0  0  0  0  0  0  0  0  0
   -2.3806   -0.8869   -1.8523 H   0  0  0  0  0  0  0  0  0  0  0  0
   -3.1393    3.4866   -2.2450 H   0  0  0  0  0  0  0  0  0  0  0  0
   -4.0347    6.1765   -0.1564 H   0  0  0  0  0  0  0  0  0  0  0  0
   -4.2476    4.8143    1.6900 H   0  0  0  0  0  0  0  0  0  0  0  0
   -4.0941    2.5231    2.4995 H   0  0  0  0  0  0  0  0  0  0  0  0
   -3.5593    0.5105    3.1539 H   0  0  0  0  0  0  0  0  0  0  0  0
   -5.1094    0.1314    2.4286 H   0  0  0  0  0  0  0  0  0  0  0  0
   -3.8933   -1.1292    2.6291 H   0  0  0  0  0  0  0  0  0  0  0  0
   -0.7393   -2.2822    0.1376 H   0  0  0  0  0  0  0  0  0  0  0  0
   -0.6834   -4.7039    0.4563 H   0  0  0  0  0  0  0  0  0  0  0  0
   -3.5767   -6.5869    1.1419 H   0  0  0  0  0  0  0  0  0  0  0  0
   -4.9305   -4.7223    1.0454 H   0  0  0  0  0  0  0  0  0  0  0  0
   -4.9834   -2.3026    0.7061 H   0  0  0  0  0  0  0  0  0  0  0  0
  3  2  1  0
  2  4  1  0
  2  1  1  0
  4  5  1  0
  1  6  1  0
  5  6  1  0
  6  7  1  0
  7  8  1  0
  8  9  1  0
  9 10  1  0
 10 13  1  0
 10 11  2  0
 13 14  2  0
 11 12  1  0
 14 15  1  0
 12 15  2  0
 15 16  1  0
 21 20  1  0
 20 22  2  0
 20 19  1  0
 22 23  1  0
 30 29  2  0
 30 31  1  0
 29 28  1  0
 19 18  2  0
 23 24  2  0
 24 18  1  0
 24 25  1  0
 18 17  1  0
 16 17  1  0
 16 27  1  0
 31 32  1  0
 31 33  2  0
 28 27  1  0
 28 34  2  0
 25 27  2  0
 25 26  1  0
 33 34  1  0
  1 35  1  0
  1 36  1  0
  2 37  1  1
  3 38  1  0
  3 39  1  0
  3 40  1  0
  4 41  1  0
  4 42  1  0
  5 43  1  0
  5 44  1  0
  7 45  1  0
  7 46  1  0
  8 47  1  0
  8 48  1  0
 11 49  1  0
 12 50  1  0
 13 51  1  0
 14 52  1  0
 16 53  1  6
 19 54  1  0
 21 55  1  0
 22 56  1  0
 23 57  1  0
 26 58  1  0
 26 59  1  0
 26 60  1  0
 29 61  1  0
 30 62  1  0
 32 63  1  0
 33 64  1  0
 34 65  1  0
M  END
