
     RDKit          3D

 74 77  0  0  0  0  0  0  0  0999 V2000
   -5.2041    5.6998    0.2296 C   0  0  0  0  0  0  0  0  0  0  0  0
   -4.2943    3.5635    0.2993 C   0  0  0  0  0  0  0  0  0  0  0  0
   -3.1373    2.7243   -0.1976 C   0  0  0  0  0  0  0  0  0  0  0  0
   -2.3069    0.4226    0.0709 C   0  0  1  0  0  0  0  0  0  0  0  0
   -0.9110    0.8248    0.5810 C   0  0  0  0  0  0  0  0  0  0  0  0
    0.1276   -0.2956    0.5948 C   0  0  0  0  0  0  0  0  0  0  0  0
    1.7193    0.8096    2.0129 C   0  0  0  0  0  0  0  0  0  0  0  0
    2.4488   -0.8259    0.4079 C   0  0  0  0  0  0  0  0  0  0  0  0
    3.8762   -0.3159    0.2645 C   0  0  0  0  0  0  0  0  0  0  0  0
    4.7923   -1.4234   -0.2373 C   0  0  0  0  0  0  0  0  0  0  0  0
    6.2134   -0.9991   -0.3750 C   0  0  0  0  0  0  0  0  0  0  0  0
    8.3884   -1.2159   -0.6601 C   0  0  0  0  0  0  0  0  0  0  0  0
    9.7067   -1.6142   -0.8443 C   0  0  0  0  0  0  0  0  0  0  0  0
   10.6571   -0.6084   -0.9103 C   0  0  0  0  0  0  0  0  0  0  0  0
   10.3023    0.7437   -0.7965 C   0  0  0  0  0  0  0  0  0  0  0  0
    8.9857    1.1305   -0.6125 C   0  0  0  0  0  0  0  0  0  0  0  0
    8.0142    0.1333   -0.5429 C   0  0  0  0  0  0  0  0  0  0  0  0
   -2.2498    0.1194   -1.4262 C   0  0  0  0  0  0  0  0  0  0  0  0
   -3.6302   -0.0760   -2.0196 C   0  0  0  0  0  0  0  0  0  0  0  0
   -4.3477   -1.1768   -1.2974 C   0  0  0  0  0  0  0  0  0  0  0  0
   -3.9707   -1.5419   -0.0033 C   0  0  0  0  0  0  0  0  0  0  0  0
   -4.5685   -2.6788    0.5493 C   0  0  0  0  0  0  0  0  0  0  0  0
   -5.5524   -3.3960   -0.1086 C   0  0  0  0  0  0  0  0  0  0  0  0
   -5.9414   -2.9655   -1.3619 C   0  0  0  0  0  0  0  0  0  0  0  0
   -5.3456   -1.8847   -1.9681 C   0  0  0  0  0  0  0  0  0  0  0  0
   -2.9318   -0.7815    0.8215 C   0  0  2  0  0  0  0  0  0  0  0  0
   -3.4961   -0.5240    2.2545 C   0  0  1  0  0  0  0  0  0  0  0  0
   -2.5376    0.1568    3.2283 C   0  0  0  0  0  0  0  0  0  0  0  0
   -4.8711    0.1423    2.3305 C   0  0  0  0  0  0  0  0  0  0  0  0
   -6.9066   -3.6363   -2.0160 F   0  0  0  0  0  0  0  0  0  0  0  0
    1.4841    0.2180    0.7110 N   0  0  0  0  0  0  0  0  0  0  0  0
    7.2119   -1.9072   -0.5472 N   0  0  0  0  0  0  0  0  0  0  0  0
    6.6531    0.2298   -0.3662 N   0  0  0  0  0  0  0  0  0  0  0  0
   -4.1644    4.8547   -0.2004 O   0  0  0  0  0  0  0  0  0  0  0  0
   -2.2858    3.1262   -0.9451 O   0  0  0  0  0  0  0  0  0  0  0  0
   -3.2328    1.5104    0.3161 O   0  0  0  0  0  0  0  0  0  0  0  0
   -6.1850    5.3504   -0.1121 H   0  0  0  0  0  0  0  0  0  0  0  0
   -5.2372    5.7869    1.3217 H   0  0  0  0  0  0  0  0  0  0  0  0
   -5.0232    6.6879   -0.1904 H   0  0  0  0  0  0  0  0  0  0  0  0
   -5.2335    3.0866   -0.0205 H   0  0  0  0  0  0  0  0  0  0  0  0
   -4.2991    3.5421    1.3996 H   0  0  0  0  0  0  0  0  0  0  0  0
   -0.5262    1.6090   -0.0729 H   0  0  0  0  0  0  0  0  0  0  0  0
   -1.0020    1.2651    1.5717 H   0  0  0  0  0  0  0  0  0  0  0  0
   -0.0847   -1.0210    1.3983 H   0  0  0  0  0  0  0  0  0  0  0  0
    0.0742   -0.8555   -0.3420 H   0  0  0  0  0  0  0  0  0  0  0  0
    1.6431    0.0779    2.8336 H   0  0  0  0  0  0  0  0  0  0  0  0
    2.7071    1.2658    2.0607 H   0  0  0  0  0  0  0  0  0  0  0  0
    0.9999    1.6033    2.2088 H   0  0  0  0  0  0  0  0  0  0  0  0
    2.1514   -1.2828   -0.5408 H   0  0  0  0  0  0  0  0  0  0  0  0
    2.4248   -1.6342    1.1610 H   0  0  0  0  0  0  0  0  0  0  0  0
    3.8896    0.5264   -0.4303 H   0  0  0  0  0  0  0  0  0  0  0  0
    4.2579    0.0529    1.2183 H   0  0  0  0  0  0  0  0  0  0  0  0
    4.7480   -2.2843    0.4369 H   0  0  0  0  0  0  0  0  0  0  0  0
    4.4422   -1.7881   -1.2092 H   0  0  0  0  0  0  0  0  0  0  0  0
    9.9821   -2.6569   -0.9341 H   0  0  0  0  0  0  0  0  0  0  0  0
   11.6971   -0.8716   -1.0530 H   0  0  0  0  0  0  0  0  0  0  0  0
   11.0764    1.4976   -0.8538 H   0  0  0  0  0  0  0  0  0  0  0  0
    8.7151    2.1752   -0.5247 H   0  0  0  0  0  0  0  0  0  0  0  0
   -1.7011    0.8953   -1.9579 H   0  0  0  0  0  0  0  0  0  0  0  0
   -4.2145    0.8488   -1.9976 H   0  0  0  0  0  0  0  0  0  0  0  0
   -4.2640   -3.0290    1.5267 H   0  0  0  0  0  0  0  0  0  0  0  0
   -6.0016   -4.2702    0.3439 H   0  0  0  0  0  0  0  0  0  0  0  0
   -5.6341   -1.5966   -2.9721 H   0  0  0  0  0  0  0  0  0  0  0  0
   -2.1068   -1.4874    0.9669 H   0  0  0  0  0  0  0  0  0  0  0  0
   -3.6317   -1.5300    2.6594 H   0  0  0  0  0  0  0  0  0  0  0  0
   -2.4488    1.2284    3.0478 H   0  0  0  0  0  0  0  0  0  0  0  0
   -2.9151    0.0367    4.2454 H   0  0  0  0  0  0  0  0  0  0  0  0
   -1.5384   -0.2809    3.2039 H   0  0  0  0  0  0  0  0  0  0  0  0
   -4.8225    1.2166    2.1673 H   0  0  0  0  0  0  0  0  0  0  0  0
   -5.5772   -0.2751    1.6128 H   0  0  0  0  0  0  0  0  0  0  0  0
   -5.2896   -0.0173    3.3261 H   0  0  0  0  0  0  0  0  0  0  0  0
    7.0997   -2.9083   -0.5763 H   0  0  0  0  0  0  0  0  0  0  0  0
   -1.6820   -0.8056   -1.5584 H   0  0  0  0  0  0  0  0  0  0  0  0
   -3.5367   -0.3379   -3.0752 H   0  0  0  0  0  0  0  0  0  0  0  0
 14 15  1  0
 14 13  2  0
 15 16  2  0
 13 12  1  0
 16 17  1  0
 34  2  1  0
 34  1  1  0
  2  3  1  0
 12 17  2  0
 12 32  1  0
 17 33  1  0
 29 27  1  0
  3 36  1  0
  3 35  2  0
 32 11  1  0
 33 11  2  0
  4 36  1  6
 11 10  1  0
 27 28  1  0
 27 26  1  0
 18  4  1  0
 18 19  1  0
  4 26  1  0
  4  5  1  0
 26 21  1  0
 10  9  1  0
  5  6  1  0
 19 20  1  0
  6 31  1  0
  9  8  1  0
 21 20  2  0
 21 22  1  0
 20 25  1  0
  8 31  1  0
 31  7  1  0
 22 23  2  0
 25 24  2  0
 23 24  1  0
 24 30  1  0
  1 37  1  0
  1 38  1  0
  1 39  1  0
  2 40  1  0
  2 41  1  0
  5 42  1  0
  5 43  1  0
  6 44  1  0
  6 45  1  0
  7 46  1  0
  7 47  1  0
  7 48  1  0
  8 49  1  0
  8 50  1  0
  9 51  1  0
  9 52  1  0
 10 53  1  0
 10 54  1  0
 13 55  1  0
 14 56  1  0
 15 57  1  0
 16 58  1  0
 18 59  1  0
 19 60  1  0
 22 61  1  0
 23 62  1  0
 25 63  1  0
 26 64  1  1
 27 65  1  1
 28 66  1  0
 28 67  1  0
 28 68  1  0
 29 69  1  0
 29 70  1  0
 29 71  1  0
 32 72  1  0
 18 73  1  0
 19 74  1  0
M  END
