
     RDKit          3D

 57 57  0  0  0  0  0  0  0  0999 V2000
   -4.3195    4.0793    0.1993 C   0  0  0  0  0  0  0  0  0  0  0  0
   -3.6828    2.8633    0.8116 C   0  0  0  0  0  0  0  0  0  0  0  0
   -4.1799    1.5483    0.2352 C   0  0  0  0  0  0  0  0  0  0  0  0
   -3.4955    0.3562    0.9056 C   0  0  0  0  0  0  0  0  0  0  0  0
   -3.9757   -0.9488    0.3527 C   0  0  0  0  0  0  0  0  0  0  0  0
   -3.2592   -1.8517   -0.3160 C   0  0  0  0  0  0  0  0  0  0  0  0
   -1.7987   -1.7731   -0.6388 C   0  0  0  0  0  0  0  0  0  0  0  0
   -0.9509   -2.7072    0.2196 C   0  0  1  0  0  0  0  0  0  0  0  0
   -1.2765   -4.2013    0.1089 C   0  0  2  0  0  0  0  0  0  0  0  0
   -0.0644   -4.8599    0.7575 C   0  0  0  0  0  0  0  0  0  0  0  0
    1.0948   -3.9703    0.3765 C   0  0  0  0  0  0  0  0  0  0  0  0
    0.5514   -2.6286   -0.1020 C   0  0  2  0  0  0  0  0  0  0  0  0
    1.2532   -1.4653    0.5166 C   0  0  0  0  0  0  0  0  0  0  0  0
    1.7932   -0.4657   -0.1712 C   0  0  0  0  0  0  0  0  0  0  0  0
    2.4979    0.7240    0.4189 C   0  0  2  0  0  0  0  0  0  0  0  0
    3.8514    0.9289   -0.2629 C   0  0  0  0  0  0  0  0  0  0  0  0
    4.5863    2.1867    0.1835 C   0  0  0  0  0  0  0  0  0  0  0  0
    5.8744    2.4149   -0.5967 C   0  0  0  0  0  0  0  0  0  0  0  0
    6.6330    3.6619   -0.1584 C   0  0  0  0  0  0  0  0  0  0  0  0
    7.9059    3.8918   -0.9608 C   0  0  0  0  0  0  0  0  0  0  0  0
   -3.8368    5.2040    0.7210 O   0  0  0  0  0  0  0  0  0  0  0  0
   -5.1661    4.0664   -0.6596 O   0  0  0  0  0  0  0  0  0  0  0  0
   -1.3637   -4.5254   -1.2612 O   0  0  0  0  0  0  0  0  0  0  0  0
    2.2645   -4.2527    0.4575 O   0  0  0  0  0  0  0  0  0  0  0  0
    2.6061    0.6618    1.8218 O   0  0  0  0  0  0  0  0  0  0  0  0
   -3.8540    2.8984    1.8926 H   0  0  0  0  0  0  0  0  0  0  0  0
   -2.5982    2.9480    0.6883 H   0  0  0  0  0  0  0  0  0  0  0  0
   -3.9880    1.5143   -0.8398 H   0  0  0  0  0  0  0  0  0  0  0  0
   -5.2624    1.4675    0.3619 H   0  0  0  0  0  0  0  0  0  0  0  0
   -3.7011    0.3882    1.9811 H   0  0  0  0  0  0  0  0  0  0  0  0
   -2.4126    0.4542    0.8022 H   0  0  0  0  0  0  0  0  0  0  0  0
   -5.0317   -1.1551    0.5080 H   0  0  0  0  0  0  0  0  0  0  0  0
   -3.7695   -2.7478   -0.6573 H   0  0  0  0  0  0  0  0  0  0  0  0
   -1.4254   -0.7559   -0.5048 H   0  0  0  0  0  0  0  0  0  0  0  0
   -1.6440   -2.0148   -1.6938 H   0  0  0  0  0  0  0  0  0  0  0  0
   -1.0917   -2.4301    1.2718 H   0  0  0  0  0  0  0  0  0  0  0  0
   -2.2037   -4.4532    0.6363 H   0  0  0  0  0  0  0  0  0  0  0  0
   -0.1588   -4.8187    1.8489 H   0  0  0  0  0  0  0  0  0  0  0  0
    0.0924   -5.9060    0.4882 H   0  0  0  0  0  0  0  0  0  0  0  0
    0.6841   -2.6034   -1.1917 H   0  0  0  0  0  0  0  0  0  0  0  0
    1.2760   -1.4517    1.6031 H   0  0  0  0  0  0  0  0  0  0  0  0
    1.7452   -0.4805   -1.2575 H   0  0  0  0  0  0  0  0  0  0  0  0
    1.8866    1.6122    0.2141 H   0  0  0  0  0  0  0  0  0  0  0  0
    3.6832    0.9743   -1.3436 H   0  0  0  0  0  0  0  0  0  0  0  0
    4.4805    0.0462   -0.0937 H   0  0  0  0  0  0  0  0  0  0  0  0
    4.8138    2.1283    1.2515 H   0  0  0  0  0  0  0  0  0  0  0  0
    3.9284    3.0539    0.0582 H   0  0  0  0  0  0  0  0  0  0  0  0
    5.6422    2.4895   -1.6649 H   0  0  0  0  0  0  0  0  0  0  0  0
    6.5253    1.5402   -0.4905 H   0  0  0  0  0  0  0  0  0  0  0  0
    6.8803    3.5805    0.9047 H   0  0  0  0  0  0  0  0  0  0  0  0
    5.9783    4.5342   -0.2502 H   0  0  0  0  0  0  0  0  0  0  0  0
    8.4369    4.7831   -0.6241 H   0  0  0  0  0  0  0  0  0  0  0  0
    8.5886    3.0455   -0.8671 H   0  0  0  0  0  0  0  0  0  0  0  0
    7.6858    4.0200   -2.0223 H   0  0  0  0  0  0  0  0  0  0  0  0
   -4.2687    5.9689    0.3131 H   0  0  0  0  0  0  0  0  0  0  0  0
   -1.4887   -5.4759   -1.3432 H   0  0  0  0  0  0  0  0  0  0  0  0
    3.2031   -0.0615    2.0448 H   0  0  0  0  0  0  0  0  0  0  0  0
  1  2  1  0
  1 21  1  0
  1 22  2  0
  2  3  1  0
  2 26  1  0
  2 27  1  0
  3  4  1  0
  3 28  1  0
  3 29  1  0
  4  5  1  0
  4 30  1  0
  4 31  1  0
  5  6  2  0
  5 32  1  0
  6  7  1  0
  6 33  1  0
  7  8  1  0
  7 34  1  0
  7 35  1  0
  8  9  1  0
  8 12  1  0
  8 36  1  1
  9 10  1  0
  9 23  1  0
  9 37  1  1
 10 11  1  0
 10 38  1  0
 10 39  1  0
 11 12  1  0
 11 24  2  0
 12 13  1  0
 12 40  1  6
 13 14  2  0
 13 41  1  0
 14 15  1  0
 14 42  1  0
 15 16  1  0
 15 25  1  0
 15 43  1  1
 16 17  1  0
 16 44  1  0
 16 45  1  0
 17 18  1  0
 17 46  1  0
 17 47  1  0
 18 19  1  0
 18 48  1  0
 18 49  1  0
 19 20  1  0
 19 50  1  0
 19 51  1  0
 20 52  1  0
 20 53  1  0
 20 54  1  0
 21 55  1  0
 23 56  1  0
 25 57  1  0
M  END
