
     RDKit          3D

 62 66  0  0  0  0  0  0  0  0999 V2000
    8.6281   -3.1198   -1.1949 C   0  0  0  0  0  0  0  0  0  0  0  0
    8.5183   -2.4331    0.0763 N   0  0  0  0  0  0  0  0  0  0  0  0
    7.5275   -3.0039    0.9668 C   0  0  0  0  0  0  0  0  0  0  0  0
    6.0852   -2.7117    0.5669 C   0  0  0  0  0  0  0  0  0  0  0  0
    8.2699   -1.0100   -0.0496 C   0  0  0  0  0  0  0  0  0  0  0  0
    6.8473   -0.6633   -0.4735 C   0  0  0  0  0  0  0  0  0  0  0  0
    5.8754   -1.2821    0.4231 N   0  0  0  0  0  0  0  0  0  0  0  0
    4.5510   -0.8468    0.3005 C   0  0  0  0  0  0  0  0  0  0  0  0
    4.2447    0.5182    0.2618 C   0  0  0  0  0  0  0  0  0  0  0  0
    2.9450    0.9876    0.1653 C   0  0  0  0  0  0  0  0  0  0  0  0
    3.4662   -1.7290    0.2409 C   0  0  0  0  0  0  0  0  0  0  0  0
    2.1639   -1.2661    0.1587 C   0  0  0  0  0  0  0  0  0  0  0  0
    1.8702    0.0967    0.1134 C   0  0  0  0  0  0  0  0  0  0  0  0
    0.5262    0.4512    0.0195 N   0  0  0  0  0  0  0  0  0  0  0  0
   -0.0856    1.6646   -0.0375 C   0  0  0  0  0  0  0  0  0  0  0  0
    0.6213    2.7784   -0.0099 N   0  0  0  0  0  0  0  0  0  0  0  0
   -0.1221    3.8831   -0.0749 C   0  0  0  0  0  0  0  0  0  0  0  0
   -1.5204    3.9343   -0.1646 C   0  0  0  0  0  0  0  0  0  0  0  0
   -1.9007    5.3099   -0.2126 C   0  0  0  0  0  0  0  0  0  0  0  0
   -0.7408    6.0204   -0.1514 C   0  0  0  0  0  0  0  0  0  0  0  0
    0.3291    5.1553   -0.0677 N   0  0  0  0  0  0  0  0  0  0  0  0
   -2.1257    2.6759   -0.1823 C   0  0  0  0  0  0  0  0  0  0  0  0
   -3.4610    2.6238   -0.2658 O   0  0  0  0  0  0  0  0  0  0  0  0
   -4.0797    1.3891   -0.2832 C   0  0  0  0  0  0  0  0  0  0  0  0
   -4.4479    0.7838    0.9030 C   0  0  0  0  0  0  0  0  0  0  0  0
   -5.1251   -0.4273    0.8942 C   0  0  0  0  0  0  0  0  0  0  0  0
   -5.4368   -1.0417   -0.3204 C   0  0  0  0  0  0  0  0  0  0  0  0
   -6.1067   -2.2610   -0.4420 N   0  0  0  0  0  0  0  0  0  0  0  0
   -6.6673   -3.0365    0.5222 C   0  0  0  0  0  0  0  0  0  0  0  0
   -7.3130   -4.2600   -0.0182 C   0  0  0  0  0  0  0  0  0  0  0  0
   -7.9007   -5.1428    0.7813 C   0  0  0  0  0  0  0  0  0  0  0  0
   -6.6502   -2.7680    1.7119 O   0  0  0  0  0  0  0  0  0  0  0  0
   -5.0576   -0.4130   -1.5093 C   0  0  0  0  0  0  0  0  0  0  0  0
   -4.3811    0.7928   -1.4951 C   0  0  0  0  0  0  0  0  0  0  0  0
   -1.4317    1.5726   -0.1216 N   0  0  0  0  0  0  0  0  0  0  0  0
    9.4466   -2.6861   -1.7722 H   0  0  0  0  0  0  0  0  0  0  0  0
    8.8682   -4.1700   -1.0217 H   0  0  0  0  0  0  0  0  0  0  0  0
    7.7307   -3.0889   -1.8266 H   0  0  0  0  0  0  0  0  0  0  0  0
    7.6699   -4.0849    1.0290 H   0  0  0  0  0  0  0  0  0  0  0  0
    7.6989   -2.6000    1.9703 H   0  0  0  0  0  0  0  0  0  0  0  0
    5.8238   -3.2578   -0.3532 H   0  0  0  0  0  0  0  0  0  0  0  0
    5.4350   -3.0943    1.3559 H   0  0  0  0  0  0  0  0  0  0  0  0
    8.4702   -0.5398    0.9191 H   0  0  0  0  0  0  0  0  0  0  0  0
    8.9710   -0.5791   -0.7678 H   0  0  0  0  0  0  0  0  0  0  0  0
    6.7458    0.4201   -0.4474 H   0  0  0  0  0  0  0  0  0  0  0  0
    6.6686   -0.9735   -1.5141 H   0  0  0  0  0  0  0  0  0  0  0  0
    5.0346    1.2552    0.3251 H   0  0  0  0  0  0  0  0  0  0  0  0
    2.7752    2.0516    0.1413 H   0  0  0  0  0  0  0  0  0  0  0  0
    3.6155   -2.7995    0.2516 H   0  0  0  0  0  0  0  0  0  0  0  0
    1.3588   -1.9909    0.1175 H   0  0  0  0  0  0  0  0  0  0  0  0
   -0.1219   -0.3202   -0.0125 H   0  0  0  0  0  0  0  0  0  0  0  0
   -2.8952    5.7185   -0.2836 H   0  0  0  0  0  0  0  0  0  0  0  0
   -0.5798    7.0852   -0.1599 H   0  0  0  0  0  0  0  0  0  0  0  0
    1.2970    5.4289   -0.0116 H   0  0  0  0  0  0  0  0  0  0  0  0
   -4.2130    1.2527    1.8500 H   0  0  0  0  0  0  0  0  0  0  0  0
   -5.3959   -0.8795    1.8331 H   0  0  0  0  0  0  0  0  0  0  0  0
   -6.2035   -2.5942   -1.3896 H   0  0  0  0  0  0  0  0  0  0  0  0
   -7.2939   -4.4213   -1.0906 H   0  0  0  0  0  0  0  0  0  0  0  0
   -7.9338   -5.0085    1.8547 H   0  0  0  0  0  0  0  0  0  0  0  0
   -8.3682   -6.0318    0.3822 H   0  0  0  0  0  0  0  0  0  0  0  0
   -5.2927   -0.8733   -2.4611 H   0  0  0  0  0  0  0  0  0  0  0  0
   -4.0997    1.2650   -2.4273 H   0  0  0  0  0  0  0  0  0  0  0  0
 31 30  2  0
 30 29  1  0
  1  2  1  0
 29 32  2  0
 29 28  1  0
 28 27  1  0
  2  5  1  0
  2  3  1  0
  5  6  1  0
  6  7  1  0
  3  4  1  0
 27 33  2  0
 27 26  1  0
  4  7  1  0
 33 34  1  0
  7  8  1  0
 26 25  2  0
 11  8  1  0
 11 12  2  0
  8  9  2  0
 12 13  1  0
 34 24  2  0
  9 10  1  0
 25 24  1  0
 13 10  2  0
 13 14  1  0
 24 23  1  0
 14 15  1  0
 35 15  1  0
 35 22  2  0
 15 16  2  0
 23 22  1  0
 22 18  1  0
 16 17  1  0
 18 17  2  0
 18 19  1  0
 17 21  1  0
 19 20  2  0
 21 20  1  0
  1 36  1  0
  1 37  1  0
  1 38  1  0
  3 39  1  0
  3 40  1  0
  4 41  1  0
  4 42  1  0
  5 43  1  0
  5 44  1  0
  6 45  1  0
  6 46  1  0
  9 47  1  0
 10 48  1  0
 11 49  1  0
 12 50  1  0
 14 51  1  0
 19 52  1  0
 20 53  1  0
 21 54  1  0
 25 55  1  0
 26 56  1  0
 28 57  1  0
 30 58  1  0
 31 59  1  0
 31 60  1  0
 33 61  1  0
 34 62  1  0
M  END
