
     RDKit          3D

 48 50  0  0  0  0  0  0  0  0999 V2000
   -3.3308   -1.7079    0.2000 O   0  0  0  0  0  0  0  0  0  0  0  0
   -4.7140   -1.8990    0.3212 C   0  0  0  0  0  0  0  0  0  0  0  0
   -4.9705   -3.3862    0.2882 C   0  0  0  0  0  0  0  0  0  0  0  0
   -4.1220   -4.2311    0.2095 O   0  0  0  0  0  0  0  0  0  0  0  0
   -6.2713   -3.6246    0.3627 O   0  0  0  0  0  0  0  0  0  0  0  0
   -2.8489   -0.4546    0.2207 C   0  0  0  0  0  0  0  0  0  0  0  0
   -1.4662   -0.3168    0.0515 C   0  0  0  0  0  0  0  0  0  0  0  0
   -0.5706   -1.5132   -0.0355 C   0  0  0  0  0  0  0  0  0  0  0  0
    0.2320   -1.5154   -1.1177 N   0  0  0  0  0  0  0  0  0  0  0  0
    1.3134   -2.4440   -1.3246 C   0  0  0  0  0  0  0  0  0  0  0  0
    2.6697   -1.7983   -1.1634 C   0  0  0  0  0  0  0  0  0  0  0  0
    2.8792   -0.8195   -0.2021 C   0  0  0  0  0  0  0  0  0  0  0  0
    4.1349   -0.2488   -0.0722 C   0  0  0  0  0  0  0  0  0  0  0  0
    4.3285    0.7933    0.9271 N   0  0  0  0  0  0  0  0  0  0  0  0
    3.3608    1.1846    1.5370 O   0  0  0  0  0  0  0  0  0  0  0  0
    5.4471    1.2173    1.0952 O   0  0  0  0  0  0  0  0  0  0  0  0
    5.2049   -0.6315   -0.8675 C   0  0  0  0  0  0  0  0  0  0  0  0
    4.9900   -1.6126   -1.8203 C   0  0  0  0  0  0  0  0  0  0  0  0
    3.7348   -2.1865   -1.9698 C   0  0  0  0  0  0  0  0  0  0  0  0
   -0.5493   -2.3695    0.8316 O   0  0  0  0  0  0  0  0  0  0  0  0
   -0.9016    0.9485    0.0324 C   0  0  0  0  0  0  0  0  0  0  0  0
   -1.6647    2.1031    0.2030 C   0  0  0  0  0  0  0  0  0  0  0  0
   -1.0296    3.4353    0.2177 C   0  0  0  0  0  0  0  0  0  0  0  0
    0.2420    3.6143    0.7675 C   0  0  0  0  0  0  0  0  0  0  0  0
    0.8405    4.8654    0.7836 C   0  0  0  0  0  0  0  0  0  0  0  0
    0.1773    5.9650    0.2550 C   0  0  0  0  0  0  0  0  0  0  0  0
   -1.0881    5.8008   -0.2930 C   0  0  0  0  0  0  0  0  0  0  0  0
   -1.6842    4.5484   -0.3136 C   0  0  0  0  0  0  0  0  0  0  0  0
   -3.0370    1.9426    0.3668 C   0  0  0  0  0  0  0  0  0  0  0  0
   -3.6291    0.6877    0.3676 C   0  0  0  0  0  0  0  0  0  0  0  0
   -5.1049   -1.4940    1.2627 H   0  0  0  0  0  0  0  0  0  0  0  0
   -5.2690   -1.4218   -0.4956 H   0  0  0  0  0  0  0  0  0  0  0  0
   -6.4395   -4.5791    0.3482 H   0  0  0  0  0  0  0  0  0  0  0  0
    0.1038   -0.7957   -1.8119 H   0  0  0  0  0  0  0  0  0  0  0  0
    1.2071   -3.2626   -0.6123 H   0  0  0  0  0  0  0  0  0  0  0  0
    1.2336   -2.8813   -2.3208 H   0  0  0  0  0  0  0  0  0  0  0  0
    2.0713   -0.5071    0.4438 H   0  0  0  0  0  0  0  0  0  0  0  0
    6.1786   -0.1764   -0.7630 H   0  0  0  0  0  0  0  0  0  0  0  0
    5.8049   -1.9228   -2.4596 H   0  0  0  0  0  0  0  0  0  0  0  0
    3.5828   -2.9430   -2.7299 H   0  0  0  0  0  0  0  0  0  0  0  0
    0.1673    1.0415   -0.1198 H   0  0  0  0  0  0  0  0  0  0  0  0
    0.7644    2.7743    1.2091 H   0  0  0  0  0  0  0  0  0  0  0  0
    1.8233    4.9834    1.2213 H   0  0  0  0  0  0  0  0  0  0  0  0
    0.6417    6.9423    0.2725 H   0  0  0  0  0  0  0  0  0  0  0  0
   -1.6117    6.6496   -0.7136 H   0  0  0  0  0  0  0  0  0  0  0  0
   -2.6618    4.4351   -0.7658 H   0  0  0  0  0  0  0  0  0  0  0  0
   -3.6710    2.8072    0.5148 H   0  0  0  0  0  0  0  0  0  0  0  0
   -4.7007    0.6238    0.4950 H   0  0  0  0  0  0  0  0  0  0  0  0
 16 14  2  0
 14 15  1  0
 14 13  1  0
 17 13  1  0
 17 18  2  0
 13 12  2  0
 18 19  1  0
 12 11  1  0
 19 11  2  0
 11 10  1  0
 10  9  1  0
 20  8  2  0
  9  8  1  0
  8  7  1  0
 25 24  2  0
 25 26  1  0
 24 23  1  0
 26 27  2  0
 21  7  1  0
 21 22  2  0
  7  6  2  0
 23 22  1  0
 23 28  2  0
 27 28  1  0
 22 29  1  0
  4  3  2  0
  6  1  1  0
  6 30  1  0
  1  2  1  0
 29 30  2  0
  3  2  1  0
  3  5  1  0
  2 31  1  0
  2 32  1  0
  5 33  1  0
  9 34  1  0
 10 35  1  0
 10 36  1  0
 12 37  1  0
 17 38  1  0
 18 39  1  0
 19 40  1  0
 21 41  1  0
 24 42  1  0
 25 43  1  0
 26 44  1  0
 27 45  1  0
 28 46  1  0
 29 47  1  0
 30 48  1  0
M  CHG  2  14   1  15  -1
M  END
