
     RDKit          3D

 46 49  0  0  0  0  0  0  0  0999 V2000
    2.1635   -1.5535   -0.2961 O   0  0  0  0  0  0  0  0  0  0  0  0
    2.3038   -0.3581   -0.0853 C   0  0  0  0  0  0  0  0  0  0  0  0
    3.6529    0.2280    0.0402 C   0  0  0  0  0  0  0  0  0  0  0  0
    3.8371    1.5167    0.2251 N   0  0  0  0  0  0  0  0  0  0  0  0
    5.1390    1.7192    0.2932 N   0  0  0  0  0  0  0  0  0  0  0  0
    5.8500    0.5713    0.1544 C   0  0  0  0  0  0  0  0  0  0  0  0
    7.2276    0.3310    0.1635 C   0  0  0  0  0  0  0  0  0  0  0  0
    7.6248   -0.9750   -0.0043 C   0  0  0  0  0  0  0  0  0  0  0  0
    6.6906   -2.0185   -0.1765 C   0  0  0  0  0  0  0  0  0  0  0  0
    5.3365   -1.7755   -0.1855 C   0  0  0  0  0  0  0  0  0  0  0  0
    4.9024   -0.4524   -0.0169 C   0  0  0  0  0  0  0  0  0  0  0  0
    1.2959    0.5305    0.0508 N   0  0  0  0  0  0  0  0  0  0  0  0
   -0.0861    0.3108    0.0072 C   0  0  0  0  0  0  0  0  0  0  0  0
   -0.9103    1.3878    0.3434 C   0  0  0  0  0  0  0  0  0  0  0  0
   -2.2846    1.2780    0.3192 C   0  0  0  0  0  0  0  0  0  0  0  0
   -0.6961   -0.8858   -0.3544 C   0  0  0  0  0  0  0  0  0  0  0  0
   -2.0819   -0.9960   -0.3610 C   0  0  0  0  0  0  0  0  0  0  0  0
   -2.9156    0.0749   -0.0309 C   0  0  0  0  0  0  0  0  0  0  0  0
   -4.3079   -0.0039   -0.0763 N   0  0  0  0  0  0  0  0  0  0  0  0
   -4.9065   -1.2156   -0.5972 C   0  0  0  0  0  0  0  0  0  0  0  0
   -6.3706   -0.9806   -0.9221 C   0  0  0  0  0  0  0  0  0  0  0  0
   -5.0430    0.5071    1.0721 C   0  0  0  0  0  0  0  0  0  0  0  0
   -6.5011    0.7219    0.7204 C   0  0  0  0  0  0  0  0  0  0  0  0
   -7.0969   -0.5056    0.2364 N   0  0  0  0  0  0  0  0  0  0  0  0
   -8.5033   -0.3385   -0.0482 C   0  0  0  0  0  0  0  0  0  0  0  0
    1.5757    1.4817    0.2478 H   0  0  0  0  0  0  0  0  0  0  0  0
    5.4925    2.6541    0.4245 H   0  0  0  0  0  0  0  0  0  0  0  0
    7.9438    1.1307    0.2950 H   0  0  0  0  0  0  0  0  0  0  0  0
    8.6811   -1.2100   -0.0045 H   0  0  0  0  0  0  0  0  0  0  0  0
    7.0532   -3.0298   -0.3048 H   0  0  0  0  0  0  0  0  0  0  0  0
    4.6273   -2.5796   -0.3177 H   0  0  0  0  0  0  0  0  0  0  0  0
   -0.4677    2.3375    0.6218 H   0  0  0  0  0  0  0  0  0  0  0  0
   -0.1118   -1.7505   -0.6236 H   0  0  0  0  0  0  0  0  0  0  0  0
   -2.8683    2.1560    0.5623 H   0  0  0  0  0  0  0  0  0  0  0  0
   -2.4964   -1.9575   -0.6297 H   0  0  0  0  0  0  0  0  0  0  0  0
   -4.4002   -1.5071   -1.5180 H   0  0  0  0  0  0  0  0  0  0  0  0
   -4.8149   -2.0540    0.1108 H   0  0  0  0  0  0  0  0  0  0  0  0
   -4.9724   -0.1910    1.9198 H   0  0  0  0  0  0  0  0  0  0  0  0
   -4.6238    1.4567    1.3972 H   0  0  0  0  0  0  0  0  0  0  0  0
   -6.4379   -0.2692   -1.7643 H   0  0  0  0  0  0  0  0  0  0  0  0
   -6.8089   -1.9227   -1.2596 H   0  0  0  0  0  0  0  0  0  0  0  0
   -7.0338    1.0508    1.6158 H   0  0  0  0  0  0  0  0  0  0  0  0
   -6.5794    1.5340   -0.0240 H   0  0  0  0  0  0  0  0  0  0  0  0
   -8.9372   -1.2863   -0.3705 H   0  0  0  0  0  0  0  0  0  0  0  0
   -9.0317   -0.0184    0.8512 H   0  0  0  0  0  0  0  0  0  0  0  0
   -8.6997    0.4067   -0.8351 H   0  0  0  0  0  0  0  0  0  0  0  0
  1  2  2  0
  2  3  1  0
  2 12  1  0
  3  4  2  0
  3 11  1  0
  4  5  1  0
  5  6  1  0
  6  7  1  0
  6 11  2  0
  7  8  2  0
  8  9  1  0
  9 10  2  0
 10 11  1  0
 12 13  1  0
 13 14  2  0
 13 16  1  0
 14 15  1  0
 15 18  2  0
 16 17  2  0
 17 18  1  0
 18 19  1  0
 19 20  1  0
 19 22  1  0
 20 21  1  0
 21 24  1  0
 22 23  1  0
 23 24  1  0
 24 25  1  0
 12 26  1  0
  5 27  1  0
  7 28  1  0
  8 29  1  0
  9 30  1  0
 10 31  1  0
 14 32  1  0
 16 33  1  0
 15 34  1  0
 17 35  1  0
 20 36  1  0
 20 37  1  0
 22 38  1  0
 22 39  1  0
 21 40  1  0
 21 41  1  0
 23 42  1  0
 23 43  1  0
 25 44  1  0
 25 45  1  0
 25 46  1  0
M  END
