
     RDKit          3D

 40 41  0  0  0  0  0  0  0  0999 V2000
   -3.6460    2.3480    0.0936 O   0  0  0  0  0  0  0  0  0  0  0  0
   -3.2207    1.3094   -0.7653 C   0  0  0  0  0  0  0  0  0  0  0  0
   -3.3894   -0.0131   -0.0221 C   0  0  2  0  0  0  0  0  0  0  0  0
   -3.0557   -1.1905   -0.9331 C   0  0  0  0  0  0  0  0  0  0  0  0
   -1.5579   -1.2896   -1.2120 C   0  0  0  0  0  0  0  0  0  0  0  0
   -4.7347   -0.1617    0.3875 O   0  0  0  0  0  0  0  0  0  0  0  0
   -2.4744   -0.0889    1.2084 C   0  0  0  0  0  0  0  0  0  0  0  0
   -1.1143   -0.1042    0.8504 O   0  0  0  0  0  0  0  0  0  0  0  0
   -0.7671   -1.2421    0.0900 C   0  0  2  0  0  0  0  0  0  0  0  0
    0.7380   -1.2512   -0.1176 C   0  0  1  0  0  0  0  0  0  0  0  0
    1.0997   -0.1131   -0.8712 O   0  0  0  0  0  0  0  0  0  0  0  0
    2.4600   -0.1131   -1.2290 C   0  0  0  0  0  0  0  0  0  0  0  0
    1.5285   -1.3179    1.1836 C   0  0  0  0  0  0  0  0  0  0  0  0
    3.0275   -1.2350    0.9056 C   0  0  0  0  0  0  0  0  0  0  0  0
    3.3755   -0.0558    0.0022 C   0  0  1  0  0  0  0  0  0  0  0  0
    4.7190   -0.2170   -0.4078 O   0  0  0  0  0  0  0  0  0  0  0  0
    3.2216    1.2637    0.7539 C   0  0  0  0  0  0  0  0  0  0  0  0
    3.6554    2.3039   -0.0992 O   0  0  0  0  0  0  0  0  0  0  0  0
   -3.7111    3.1598   -0.4165 H   0  0  0  0  0  0  0  0  0  0  0  0
   -3.8294    1.2755   -1.6784 H   0  0  0  0  0  0  0  0  0  0  0  0
   -2.1787    1.4491   -1.0723 H   0  0  0  0  0  0  0  0  0  0  0  0
   -3.3901   -2.1077   -0.4374 H   0  0  0  0  0  0  0  0  0  0  0  0
   -3.6173   -1.1192   -1.8686 H   0  0  0  0  0  0  0  0  0  0  0  0
   -5.0231    0.6775    0.7653 H   0  0  0  0  0  0  0  0  0  0  0  0
   -2.6224    0.7712    1.8656 H   0  0  0  0  0  0  0  0  0  0  0  0
   -2.7379   -0.9912    1.7814 H   0  0  0  0  0  0  0  0  0  0  0  0
   -1.3439   -2.2296   -1.7254 H   0  0  0  0  0  0  0  0  0  0  0  0
   -1.2347   -0.4880   -1.8786 H   0  0  0  0  0  0  0  0  0  0  0  0
   -1.0088   -2.1534    0.6631 H   0  0  0  0  0  0  0  0  0  0  0  0
    0.9674   -2.1615   -0.6975 H   0  0  0  0  0  0  0  0  0  0  0  0
    1.2154   -0.5172    1.8561 H   0  0  0  0  0  0  0  0  0  0  0  0
    1.3027   -2.2593    1.6897 H   0  0  0  0  0  0  0  0  0  0  0  0
    2.7119   -1.0155   -1.8068 H   0  0  0  0  0  0  0  0  0  0  0  0
    2.6188    0.7484   -1.8820 H   0  0  0  0  0  0  0  0  0  0  0  0
    3.5893   -1.1754    1.8418 H   0  0  0  0  0  0  0  0  0  0  0  0
    3.3519   -2.1529    0.4044 H   0  0  0  0  0  0  0  0  0  0  0  0
    5.0165    0.6216   -0.7799 H   0  0  0  0  0  0  0  0  0  0  0  0
    2.1817    1.4122    1.0639 H   0  0  0  0  0  0  0  0  0  0  0  0
    3.8315    1.2184    1.6657 H   0  0  0  0  0  0  0  0  0  0  0  0
    3.7526    3.1057    0.4213 H   0  0  0  0  0  0  0  0  0  0  0  0
  1  2  1  0
  2  3  1  0
  3  4  1  0
  3  6  1  1
  3  7  1  0
  4  5  1  0
  5  9  1  0
  7  8  1  0
  8  9  1  0
  9 10  1  0
 10 11  1  0
 10 13  1  0
 11 12  1  0
 12 15  1  0
 13 14  1  0
 14 15  1  0
 15 16  1  6
 15 17  1  0
 17 18  1  0
  1 19  1  0
  2 20  1  0
  2 21  1  0
  4 22  1  0
  4 23  1  0
  6 24  1  0
  7 25  1  0
  7 26  1  0
  5 27  1  0
  5 28  1  0
  9 29  1  1
 10 30  1  6
 13 31  1  0
 13 32  1  0
 12 33  1  0
 12 34  1  0
 14 35  1  0
 14 36  1  0
 16 37  1  0
 17 38  1  0
 17 39  1  0
 18 40  1  0
M  END
