
     RDKit          3D

 44 46  0  0  0  0  0  0  0  0999 V2000
    1.4853    2.2185    0.4225 C   0  0  0  0  0  0  0  0  0  0  0  0
    2.1956    1.0844   -2.0025 C   0  0  0  0  0  0  0  0  0  0  0  0
   -3.2754    1.7935   -0.5809 C   0  0  0  0  0  0  0  0  0  0  0  0
   -5.4475   -1.3269   -0.5273 C   0  0  0  0  0  0  0  0  0  0  0  0
   -5.2022   -1.7918    0.7481 C   0  0  0  0  0  0  0  0  0  0  0  0
   -3.7411    0.0251    1.1847 C   0  0  0  0  0  0  0  0  0  0  0  0
    5.4615   -1.5240    1.0602 C   0  0  0  0  0  0  0  0  0  0  0  0
    5.0042   -2.3995    0.0546 C   0  0  0  0  0  0  0  0  0  0  0  0
    4.6740   -1.5740   -1.0023 C   0  0  0  0  0  0  0  0  0  0  0  0
    4.1003   -1.8512   -2.2217 N   0  0  0  0  0  0  0  0  0  0  0  0
    4.9497   -0.3137   -0.6045 N   0  0  0  0  0  0  0  0  0  0  0  0
    4.6060    0.9112   -1.2871 C   0  0  0  0  0  0  0  0  0  0  0  0
    3.1724    1.3051   -1.0396 C   0  0  0  0  0  0  0  0  0  0  0  0
    2.8024    1.8723    0.1779 C   0  0  0  0  0  0  0  0  0  0  0  0
    0.5028    1.9746   -0.5353 C   0  0  0  0  0  0  0  0  0  0  0  0
    0.8699    1.4100   -1.7532 C   0  0  0  0  0  0  0  0  0  0  0  0
   -0.9045    2.3739   -0.2261 C   0  0  0  0  0  0  0  0  0  0  0  0
   -1.1438    3.3443    0.4774 O   0  0  0  0  0  0  0  0  0  0  0  0
   -1.8560    1.5901   -0.7634 N   0  0  0  0  0  0  0  0  0  0  0  0
   -3.9517    0.5407   -0.0927 C   0  0  0  0  0  0  0  0  0  0  0  0
   -4.8120   -0.1621   -0.9302 C   0  0  0  0  0  0  0  0  0  0  0  0
   -4.3570   -1.1363    1.6222 C   0  0  0  0  0  0  0  0  0  0  0  0
   -2.6926    0.8503    2.2852 Cl  0  0  0  0  0  0  0  0  0  0  0  0
    5.4233   -0.2708    0.6586 N   0  0  0  0  0  0  0  0  0  0  0  0
    1.2150    2.6718    1.3670 H   0  0  0  0  0  0  0  0  0  0  0  0
    2.4681    0.6596   -2.9602 H   0  0  0  0  0  0  0  0  0  0  0  0
   -3.4154    2.6123    0.1234 H   0  0  0  0  0  0  0  0  0  0  0  0
   -3.7348    2.0982   -1.5238 H   0  0  0  0  0  0  0  0  0  0  0  0
   -6.1160   -1.8570   -1.1920 H   0  0  0  0  0  0  0  0  0  0  0  0
    6.7957   -2.5794    2.3639 H   0  0  0  0  0  0  0  0  0  0  0  0
    6.2819   -1.0021    2.9643 H   0  0  0  0  0  0  0  0  0  0  0  0
    5.1748   -2.3746    3.0044 H   0  0  0  0  0  0  0  0  0  0  0  0
    4.9387   -3.4751    0.0874 H   0  0  0  0  0  0  0  0  0  0  0  0
    4.1342   -2.8314   -2.4553 H   0  0  0  0  0  0  0  0  0  0  0  0
    4.4487   -1.3042   -2.9954 H   0  0  0  0  0  0  0  0  0  0  0  0
    5.2891    1.6811   -0.9297 H   0  0  0  0  0  0  0  0  0  0  0  0
    4.7922    0.7960   -2.3557 H   0  0  0  0  0  0  0  0  0  0  0  0
    3.5528    2.0473    0.9391 H   0  0  0  0  0  0  0  0  0  0  0  0
    0.1356    1.2419   -2.5314 H   0  0  0  0  0  0  0  0  0  0  0  0
   -1.5785    0.7705   -1.2792 H   0  0  0  0  0  0  0  0  0  0  0  0
   -4.9912    0.2141   -1.9294 H   0  0  0  0  0  0  0  0  0  0  0  0
   -4.1870   -1.5208    2.6186 H   0  0  0  0  0  0  0  0  0  0  0  0
   -5.8016   -2.9154    1.1629 F   0  0  0  0  0  0  0  0  0  0  0  0
    5.9553   -1.8864    2.4189 C   0  0  0  0  0  0  0  0  0  0  0  0
 44  7  1  0
 24  7  2  0
 24 11  1  0
  7  8  1  0
 12 11  1  0
 12 13  1  0
 11  9  1  0
 13 14  1  0
 13  2  2  0
  8  9  2  0
 14  1  2  0
  9 10  1  0
  2 16  1  0
  1 15  1  0
 16 15  2  0
 15 17  1  0
 17 19  1  0
 17 18  2  0
 19  3  1  0
  3 20  1  0
 23  6  1  0
 20  6  2  0
 20 21  1  0
  6 22  1  0
 21  4  2  0
 22  5  2  0
  4  5  1  0
  5 43  1  0
  1 25  1  0
  2 26  1  0
  3 27  1  0
  3 28  1  0
  4 29  1  0
 44 30  1  0
 44 31  1  0
 44 32  1  0
  8 33  1  0
 10 34  1  0
 10 35  1  0
 12 36  1  0
 12 37  1  0
 14 38  1  0
 16 39  1  0
 19 40  1  0
 21 41  1  0
 22 42  1  0
M  END
