
     RDKit          3D

 33 34  0  0  0  0  0  0  0  0999 V2000
   -4.2501    0.1133   -1.1528 C   0  0  0  0  0  0  0  0  0  0  0  0
   -4.7455   -0.8552    0.9924 C   0  0  0  0  0  0  0  0  0  0  0  0
    1.5106    0.3261    0.9177 C   0  0  0  0  0  0  0  0  0  0  0  0
    1.9728   -1.4908   -0.5979 C   0  0  0  0  0  0  0  0  0  0  0  0
   -5.5530    0.5723   -1.2512 C   0  0  0  0  0  0  0  0  0  0  0  0
   -6.0585   -0.4146    0.8975 C   0  0  0  0  0  0  0  0  0  0  0  0
    2.8551    0.6581    0.9182 C   0  0  0  0  0  0  0  0  0  0  0  0
    3.3149   -1.1673   -0.5924 C   0  0  0  0  0  0  0  0  0  0  0  0
   -3.8397   -0.5926   -0.0268 C   0  0  0  0  0  0  0  0  0  0  0  0
    1.0588   -0.7405    0.1449 C   0  0  0  0  0  0  0  0  0  0  0  0
   -6.4352    0.2996   -0.2215 C   0  0  0  0  0  0  0  0  0  0  0  0
    3.7492   -0.0851    0.1627 C   0  0  0  0  0  0  0  0  0  0  0  0
   -1.3942   -0.3786    0.0560 C   0  0  0  0  0  0  0  0  0  0  0  0
    6.1456   -0.9433    0.8713 N   0  0  0  0  0  0  0  0  0  0  0  0
   -2.5283   -1.1051    0.0743 N   0  0  0  0  0  0  0  0  0  0  0  0
   -0.2772   -1.1488    0.1230 N   0  0  0  0  0  0  0  0  0  0  0  0
    5.9379    0.3199   -1.2526 O   0  0  0  0  0  0  0  0  0  0  0  0
    5.6190    1.5971    0.8706 O   0  0  0  0  0  0  0  0  0  0  0  0
   -7.6992    0.7406   -0.3158 F   0  0  0  0  0  0  0  0  0  0  0  0
   -1.3817    1.2856   -0.0586 S   0  0  0  0  0  0  0  0  0  0  0  0
    5.4572    0.3575    0.1217 S   0  0  1  0  0  0  0  0  0  0  0  0
   -3.5534    0.3029   -1.9567 H   0  0  0  0  0  0  0  0  0  0  0  0
   -4.4286   -1.4055    1.8690 H   0  0  0  0  0  0  0  0  0  0  0  0
    0.8241    0.8924    1.5266 H   0  0  0  0  0  0  0  0  0  0  0  0
    1.6278   -2.3275   -1.1920 H   0  0  0  0  0  0  0  0  0  0  0  0
   -5.8794    1.1227   -2.1235 H   0  0  0  0  0  0  0  0  0  0  0  0
   -6.7692   -0.6185    1.6874 H   0  0  0  0  0  0  0  0  0  0  0  0
    3.1937    1.4896    1.5204 H   0  0  0  0  0  0  0  0  0  0  0  0
    4.0070   -1.7544   -1.1808 H   0  0  0  0  0  0  0  0  0  0  0  0
    5.9793   -0.9526    1.8724 H   0  0  0  0  0  0  0  0  0  0  0  0
    7.1419   -0.9954    0.6798 H   0  0  0  0  0  0  0  0  0  0  0  0
   -2.4574   -2.0945    0.2681 H   0  0  0  0  0  0  0  0  0  0  0  0
   -0.4046   -2.1404   -0.0289 H   0  0  0  0  0  0  0  0  0  0  0  0
 20 13  2  0
  1  5  2  0
  1  9  1  0
 15 13  1  0
 15  9  1  0
 13 16  1  0
  5 11  1  0
  9  2  2  0
 16 10  1  0
 11 19  1  0
 11  6  2  0
 10  3  2  0
 10  4  1  0
  2  6  1  0
  3  7  1  0
  4  8  2  0
  7 12  2  0
  8 12  1  0
 12 21  1  0
 21 14  1  1
 18 21  2  0
 21 17  2  0
  1 22  1  0
  2 23  1  0
  3 24  1  0
  4 25  1  0
  5 26  1  0
  6 27  1  0
  7 28  1  0
  8 29  1  0
 14 30  1  0
 14 31  1  0
 15 32  1  0
 16 33  1  0
M  END
