
     RDKit          3D

 54 58  0  0  0  0  0  0  0  0999 V2000
   -7.0187    0.8858    2.6131 C   0  0  0  0  0  0  0  0  0  0  0  0
   -6.3243   -0.3117    2.7328 C   0  0  0  0  0  0  0  0  0  0  0  0
    3.2373    1.1759    2.5161 C   0  0  0  0  0  0  0  0  0  0  0  0
   -0.0829   -2.2430   -0.4496 C   0  0  0  0  0  0  0  0  0  0  0  0
    3.7400    0.5033    1.4137 C   0  0  0  0  0  0  0  0  0  0  0  0
   -6.8183    1.6942    1.5044 C   0  0  0  0  0  0  0  0  0  0  0  0
   -5.4149   -0.6853    1.7551 C   0  0  0  0  0  0  0  0  0  0  0  0
    0.9433   -3.0507    0.0061 C   0  0  0  0  0  0  0  0  0  0  0  0
    2.5814    2.3911    2.3675 C   0  0  0  0  0  0  0  0  0  0  0  0
    1.5390   -0.7352   -1.3815 C   0  0  0  0  0  0  0  0  0  0  0  0
    2.9292    2.2498   -0.0205 C   0  0  0  0  0  0  0  0  0  0  0  0
    0.2127   -1.0883   -1.1682 C   0  0  0  0  0  0  0  0  0  0  0  0
    3.5922    1.0400    0.1383 C   0  0  0  0  0  0  0  0  0  0  0  0
    2.5794   -1.5218   -0.9036 C   0  0  0  0  0  0  0  0  0  0  0  0
   -5.9155    1.3203    0.5173 C   0  0  0  0  0  0  0  0  0  0  0  0
   -5.2023    0.1252    0.6471 C   0  0  0  0  0  0  0  0  0  0  0  0
    2.2679   -2.7039   -0.2216 C   0  0  0  0  0  0  0  0  0  0  0  0
    2.4367    2.9125    1.0931 C   0  0  0  0  0  0  0  0  0  0  0  0
    4.9772   -1.9510   -1.1377 C   0  0  0  0  0  0  0  0  0  0  0  0
   -0.8395   -0.1668   -1.6985 C   0  0  0  0  0  0  0  0  0  0  0  0
    4.6431   -3.4189   -1.0705 C   0  0  0  0  0  0  0  0  0  0  0  0
   -5.1033    1.5230   -1.6582 C   0  0  0  0  0  0  0  0  0  0  0  0
   -3.8909    0.7426   -1.1928 C   0  0  2  0  0  0  0  0  0  0  0  0
   -3.1841    0.0604   -2.3513 C   0  0  0  0  0  0  0  0  0  0  0  0
    3.9136   -1.0925   -1.0418 N   0  0  0  0  0  0  0  0  0  0  0  0
   -2.0452   -0.7145   -1.9273 N   0  0  0  0  0  0  0  0  0  0  0  0
    6.1209   -1.5645   -1.2703 O   0  0  0  0  0  0  0  0  0  0  0  0
   -0.5963    1.0117   -1.9158 O   0  0  0  0  0  0  0  0  0  0  0  0
   -5.7504    2.1324   -0.5551 O   0  0  0  0  0  0  0  0  0  0  0  0
   -4.2988   -0.2695   -0.2817 O   0  0  0  0  0  0  0  0  0  0  0  0
    3.5676   -3.7323    0.3455 S   0  0  0  0  0  0  0  0  0  0  0  0
    1.6070    4.4204    0.8783 Cl  0  0  0  0  0  0  0  0  0  0  0  0
   -7.7240    1.1882    3.3755 H   0  0  0  0  0  0  0  0  0  0  0  0
   -6.4796   -0.9527    3.5902 H   0  0  0  0  0  0  0  0  0  0  0  0
   -7.3616    2.6246    1.3937 H   0  0  0  0  0  0  0  0  0  0  0  0
   -4.8601   -1.6115    1.8405 H   0  0  0  0  0  0  0  0  0  0  0  0
    4.2418   -0.4467    1.5524 H   0  0  0  0  0  0  0  0  0  0  0  0
    2.1898    2.9159    3.2281 H   0  0  0  0  0  0  0  0  0  0  0  0
   -1.1022   -2.5276   -0.2246 H   0  0  0  0  0  0  0  0  0  0  0  0
    0.7149   -3.9617    0.5435 H   0  0  0  0  0  0  0  0  0  0  0  0
    1.7472    0.1709   -1.9316 H   0  0  0  0  0  0  0  0  0  0  0  0
    2.7939    2.6698   -1.0095 H   0  0  0  0  0  0  0  0  0  0  0  0
    4.1541   -3.7550   -1.9876 H   0  0  0  0  0  0  0  0  0  0  0  0
    5.5592   -3.9889   -0.9339 H   0  0  0  0  0  0  0  0  0  0  0  0
   -2.1810   -1.7016   -1.7905 H   0  0  0  0  0  0  0  0  0  0  0  0
   -4.8076    2.3242   -2.3343 H   0  0  0  0  0  0  0  0  0  0  0  0
   -5.7987    0.8614   -2.1885 H   0  0  0  0  0  0  0  0  0  0  0  0
   -3.1968    1.4256   -0.6864 H   0  0  0  0  0  0  0  0  0  0  0  0
   -3.8740   -0.6086   -2.8667 H   0  0  0  0  0  0  0  0  0  0  0  0
   -2.8719    0.8192   -3.0693 H   0  0  0  0  0  0  0  0  0  0  0  0
    4.1671    0.3433   -1.0670 C   0  0  0  0  0  0  0  0  0  0  0  0
    3.3554    0.7548    3.5055 H   0  0  0  0  0  0  0  0  0  0  0  0
    3.7851    0.7881   -1.9883 H   0  0  0  0  0  0  0  0  0  0  0  0
    5.2463    0.4784   -1.0922 H   0  0  0  0  0  0  0  0  0  0  0  0
  1  2  2  0
  1  6  1  0
  2  7  1  0
  3  5  2  0
  3  9  1  0
  4  8  2  0
  4 12  1  0
  5 13  1  0
  6 15  2  0
  7 16  2  0
  8 17  1  0
  9 18  2  0
 10 12  2  0
 10 14  1  0
 11 13  2  0
 11 18  1  0
 12 20  1  0
 13 51  1  0
 14 17  2  0
 14 25  1  0
 15 16  1  0
 15 29  1  0
 16 30  1  0
 17 31  1  0
 18 32  1  0
 19 21  1  0
 19 25  1  0
 19 27  2  0
 20 26  1  0
 20 28  2  0
 21 31  1  0
 22 23  1  0
 22 29  1  0
 23 24  1  0
 23 30  1  0
 51 25  1  0
 24 26  1  0
  1 33  1  0
  2 34  1  0
  6 35  1  0
  7 36  1  0
  3 52  1  0
  5 37  1  0
  9 38  1  0
  4 39  1  0
  8 40  1  0
 10 41  1  0
 11 42  1  0
 51 53  1  0
 51 54  1  0
 21 43  1  0
 21 44  1  0
 26 45  1  0
 22 46  1  0
 22 47  1  0
 23 48  1  1
 24 49  1  0
 24 50  1  0
M  END
