
     RDKit          3D

 35 35  0  0  0  0  0  0  0  0999 V2000
   -0.7316    0.1821   -0.1788 C   0  0  0  0  0  0  0  0  0  0  0  0
   -1.6412   -0.0522   -1.2088 C   0  0  0  0  0  0  0  0  0  0  0  0
   -1.2074   -0.1645   -2.5164 C   0  0  0  0  0  0  0  0  0  0  0  0
    0.1465   -0.0212   -2.7936 C   0  0  0  0  0  0  0  0  0  0  0  0
    1.0659    0.2214   -1.7873 C   0  0  0  0  0  0  0  0  0  0  0  0
    0.6195    0.3224   -0.4777 C   0  0  0  0  0  0  0  0  0  0  0  0
   -1.2635    0.3251    1.2155 C   0  0  0  0  0  0  0  0  0  0  0  0
   -2.4010    0.7302    1.4116 O   0  0  0  0  0  0  0  0  0  0  0  0
   -0.4240   -0.0061    2.2042 N   0  0  0  0  0  0  0  0  0  0  0  0
   -0.7854    0.1012    3.6039 C   0  0  0  0  0  0  0  0  0  0  0  0
    0.4326   -0.1144    4.4869 C   0  0  0  0  0  0  0  0  0  0  0  0
    0.0953    0.0292    5.9641 C   0  0  0  0  0  0  0  0  0  0  0  0
    1.3055   -0.1880    6.8596 C   0  0  0  0  0  0  0  0  0  0  0  0
    0.9445   -0.0472    8.2625 N   0  0  0  0  0  0  0  0  0  0  0  0
    0.6968   -0.1481   -4.4743 S   0  0  1  0  0  0  0  0  0  0  0  0
    2.1440   -0.3046   -4.4548 O   0  0  0  0  0  0  0  0  0  0  0  0
   -0.1019   -1.1461   -5.1690 O   0  0  0  0  0  0  0  0  0  0  0  0
    0.2155    1.3138   -5.0699 N   0  0  0  0  0  0  0  0  0  0  0  0
   -2.6950   -0.1535   -0.9887 H   0  0  0  0  0  0  0  0  0  0  0  0
   -1.9214   -0.3568   -3.3060 H   0  0  0  0  0  0  0  0  0  0  0  0
    2.1184    0.3378   -2.0044 H   0  0  0  0  0  0  0  0  0  0  0  0
    1.3444    0.5366    0.2967 H   0  0  0  0  0  0  0  0  0  0  0  0
    0.4357   -0.4815    1.9814 H   0  0  0  0  0  0  0  0  0  0  0  0
   -1.5629   -0.6280    3.8533 H   0  0  0  0  0  0  0  0  0  0  0  0
   -1.2067    1.0915    3.7886 H   0  0  0  0  0  0  0  0  0  0  0  0
    1.2105    0.6052    4.2139 H   0  0  0  0  0  0  0  0  0  0  0  0
    0.8454   -1.1113    4.3006 H   0  0  0  0  0  0  0  0  0  0  0  0
   -0.6880   -0.6829    6.2403 H   0  0  0  0  0  0  0  0  0  0  0  0
   -0.3131    1.0292    6.1473 H   0  0  0  0  0  0  0  0  0  0  0  0
    2.1086    0.4933    6.5415 H   0  0  0  0  0  0  0  0  0  0  0  0
    1.6868   -1.2010    6.7046 H   0  0  0  0  0  0  0  0  0  0  0  0
    1.7520   -0.2409    8.8407 H   0  0  0  0  0  0  0  0  0  0  0  0
    0.7027    0.9185    8.4486 H   0  0  0  0  0  0  0  0  0  0  0  0
    0.1370    1.2959   -6.0824 H   0  0  0  0  0  0  0  0  0  0  0  0
    0.8162    2.0774   -4.7756 H   0  0  0  0  0  0  0  0  0  0  0  0
  1  2  2  0
  1  6  1  0
  1  7  1  0
  2  3  1  0
  2 19  1  0
  3  4  2  0
  3 20  1  0
  4  5  1  0
  4 15  1  0
  5  6  2  0
  5 21  1  0
  6 22  1  0
  7  8  2  0
  7  9  1  0
  9 10  1  0
  9 23  1  0
 10 11  1  0
 10 24  1  0
 10 25  1  0
 11 12  1  0
 11 26  1  0
 11 27  1  0
 12 13  1  0
 12 28  1  0
 12 29  1  0
 13 14  1  0
 13 30  1  0
 13 31  1  0
 14 32  1  0
 14 33  1  0
 15 16  2  0
 15 17  2  0
 15 18  1  6
 18 34  1  0
 18 35  1  0
M  END
