
     RDKit          3D

 31 32  0  0  0  0  0  0  0  0999 V2000
   -0.8440    0.4397    0.3524 C   0  0  0  0  0  0  0  0  0  0  0  0
   -3.3805   -0.6549    0.2158 C   0  0  0  0  0  0  0  0  0  0  0  0
   -1.6577    0.7155   -0.7425 C   0  0  0  0  0  0  0  0  0  0  0  0
    3.8249    0.6622   -0.1981 C   0  0  0  0  0  0  0  0  0  0  0  0
    2.8622    0.9957    0.9277 C   0  0  0  0  0  0  0  0  0  0  0  0
    1.6557   -1.0549    0.4869 C   0  0  0  0  0  0  0  0  0  0  0  0
    2.6424   -1.3594   -0.6295 C   0  0  0  0  0  0  0  0  0  0  0  0
    0.4786    1.1374    0.4529 C   0  0  0  0  0  0  0  0  0  0  0  0
   -1.3174   -0.3684    1.3799 C   0  0  0  0  0  0  0  0  0  0  0  0
   -2.5919   -0.9136    1.3164 C   0  0  0  0  0  0  0  0  0  0  0  0
   -2.9115    0.1499   -0.8098 C   0  0  0  0  0  0  0  0  0  0  0  0
   -3.6979    0.3789   -1.8651 F   0  0  0  0  0  0  0  0  0  0  0  0
   -4.6075   -1.1725    0.1248 F   0  0  0  0  0  0  0  0  0  0  0  0
    3.9379   -0.7738   -0.3576 N   0  0  0  0  0  0  0  0  0  0  0  0
    1.5662    0.3810    0.6950 N   0  0  0  0  0  0  0  0  0  0  0  0
    0.5116    2.3566    0.3500 O   0  0  0  0  0  0  0  0  0  0  0  0
   -1.3188    1.3535   -1.5489 H   0  0  0  0  0  0  0  0  0  0  0  0
    5.8814   -0.7081   -1.1133 H   0  0  0  0  0  0  0  0  0  0  0  0
    5.0127   -2.2104   -1.4254 H   0  0  0  0  0  0  0  0  0  0  0  0
    4.6394   -0.7621   -2.3742 H   0  0  0  0  0  0  0  0  0  0  0  0
    3.4861    1.1562   -1.1259 H   0  0  0  0  0  0  0  0  0  0  0  0
    4.8071    1.0740    0.0455 H   0  0  0  0  0  0  0  0  0  0  0  0
    3.2585    0.6116    1.8726 H   0  0  0  0  0  0  0  0  0  0  0  0
    2.7485    2.0715    1.0241 H   0  0  0  0  0  0  0  0  0  0  0  0
    0.6861   -1.4665    0.2212 H   0  0  0  0  0  0  0  0  0  0  0  0
    1.9803   -1.5341    1.4148 H   0  0  0  0  0  0  0  0  0  0  0  0
    2.7475   -2.4436   -0.7116 H   0  0  0  0  0  0  0  0  0  0  0  0
    2.2199   -1.0009   -1.5854 H   0  0  0  0  0  0  0  0  0  0  0  0
   -0.6996   -0.5754    2.2440 H   0  0  0  0  0  0  0  0  0  0  0  0
   -2.9715   -1.5344    2.1171 H   0  0  0  0  0  0  0  0  0  0  0  0
    4.9071   -1.1261   -1.3701 C   0  0  0  0  0  0  0  0  0  0  0  0
 16  8  2  0
  9 10  1  0
  9  1  2  0
  8  1  1  0
  8 15  1  0
 10  2  2  0
  4  5  1  0
  4 14  1  0
  1  3  1  0
  2 13  1  0
  2 11  1  0
  5 15  1  0
  3 11  2  0
 15  6  1  0
 11 12  1  0
  7 14  1  0
  7  6  1  0
 14 31  1  0
  3 17  1  0
 31 18  1  0
 31 19  1  0
 31 20  1  0
  4 21  1  0
  4 22  1  0
  5 23  1  0
  5 24  1  0
  6 25  1  0
  6 26  1  0
  7 27  1  0
  7 28  1  0
  9 29  1  0
 10 30  1  0
M  END
