
     RDKit          3D

 25 27  0  0  0  0  0  0  0  0999 V2000
    0.5510   -1.7871   -1.5887 O   0  0  0  0  0  0  0  0  0  0  0  0
    0.8523   -1.5456   -0.1880 S   0  0  1  0  0  0  0  0  0  0  0  0
    1.7751   -2.4429    0.4825 O   0  0  0  0  0  0  0  0  0  0  0  0
    1.3368    0.1314    0.0025 C   0  0  0  0  0  0  0  0  0  0  0  0
    2.6898    0.4287    0.0706 C   0  0  0  0  0  0  0  0  0  0  0  0
    3.0818    1.7539    0.1412 C   0  0  0  0  0  0  0  0  0  0  0  0
    2.1165    2.7541    0.1521 C   0  0  0  0  0  0  0  0  0  0  0  0
    0.7698    2.4394    0.0973 C   0  0  0  0  0  0  0  0  0  0  0  0
    0.3397    1.1131    0.0097 C   0  0  0  0  0  0  0  0  0  0  0  0
   -1.0840    0.7534   -0.0142 C   0  0  0  0  0  0  0  0  0  0  0  0
   -2.0715    1.6749   -0.3719 C   0  0  0  0  0  0  0  0  0  0  0  0
   -3.4142    1.3511   -0.3157 C   0  0  0  0  0  0  0  0  0  0  0  0
   -3.8004    0.0810    0.0981 C   0  0  0  0  0  0  0  0  0  0  0  0
   -2.8439   -0.8626    0.4256 C   0  0  0  0  0  0  0  0  0  0  0  0
   -1.4937   -0.5345    0.3640 C   0  0  0  0  0  0  0  0  0  0  0  0
   -0.5268   -1.4784    0.7302 N   0  0  0  0  0  0  0  0  0  0  0  0
    3.4301   -0.3599    0.0705 H   0  0  0  0  0  0  0  0  0  0  0  0
    4.1323    2.0034    0.1965 H   0  0  0  0  0  0  0  0  0  0  0  0
    2.4148    3.7917    0.2199 H   0  0  0  0  0  0  0  0  0  0  0  0
    0.0450    3.2401    0.1454 H   0  0  0  0  0  0  0  0  0  0  0  0
   -1.7854    2.6617   -0.7098 H   0  0  0  0  0  0  0  0  0  0  0  0
   -4.1579    2.0843   -0.5966 H   0  0  0  0  0  0  0  0  0  0  0  0
   -4.8485   -0.1820    0.1489 H   0  0  0  0  0  0  0  0  0  0  0  0
   -3.1387   -1.8595    0.7281 H   0  0  0  0  0  0  0  0  0  0  0  0
   -0.8636   -2.3863    1.0356 H   0  0  0  0  0  0  0  0  0  0  0  0
  1  2  2  0
 13 14  2  0
 13 12  1  0
 14 15  1  0
 12 11  2  0
 15 16  1  0
 15 10  2  0
  2 16  1  1
 11 10  1  0
 10  9  1  0
  2  4  1  0
  2  3  2  0
  9  4  2  0
  9  8  1  0
  4  5  1  0
  8  7  2  0
  5  6  2  0
  7  6  1  0
  5 17  1  0
  6 18  1  0
  7 19  1  0
  8 20  1  0
 11 21  1  0
 12 22  1  0
 13 23  1  0
 14 24  1  0
 16 25  1  0
M  END
