
     RDKit          3D

 20 20  0  0  0  0  0  0  0  0999 V2000
   -1.4531   -1.6305    0.1094 C   0  0  0  0  0  0  0  0  0  0  0  0
   -2.3854    1.1431   -0.1871 C   0  0  0  0  0  0  0  0  0  0  0  0
   -0.9289    0.7929   -0.0851 C   0  0  0  0  0  0  0  0  0  0  0  0
   -0.0228    1.8431   -0.1530 C   0  0  0  0  0  0  0  0  0  0  0  0
    1.3386    1.6010   -0.1221 C   0  0  0  0  0  0  0  0  0  0  0  0
    1.7790    0.2914   -0.0269 C   0  0  0  0  0  0  0  0  0  0  0  0
    0.8985   -0.7721    0.0403 C   0  0  0  0  0  0  0  0  0  0  0  0
   -0.4674   -0.5199    0.0161 C   0  0  0  0  0  0  0  0  0  0  0  0
    3.2114    0.0209    0.0032 N   0  0  0  0  0  0  0  0  0  0  0  0
   -2.9464    1.2616   -1.2427 O   0  0  0  0  0  0  0  0  0  0  0  0
   -2.9029    1.4104    0.9939 O   0  0  0  0  0  0  0  0  0  0  0  0
    3.5680   -1.1300    0.0707 O   0  0  0  0  0  0  0  0  0  0  0  0
    3.9636    0.9639   -0.0424 O   0  0  0  0  0  0  0  0  0  0  0  0
   -2.6433   -1.4412    0.1477 O   0  0  0  0  0  0  0  0  0  0  0  0
   -0.8869   -2.8201    0.1493 O   0  0  0  0  0  0  0  0  0  0  0  0
   -0.3738    2.8630   -0.2336 H   0  0  0  0  0  0  0  0  0  0  0  0
    2.0315    2.4276   -0.1737 H   0  0  0  0  0  0  0  0  0  0  0  0
    1.2643   -1.7847    0.1191 H   0  0  0  0  0  0  0  0  0  0  0  0
   -3.8331    1.6746    0.9056 H   0  0  0  0  0  0  0  0  0  0  0  0
   -1.5578   -3.5160    0.2234 H   0  0  0  0  0  0  0  0  0  0  0  0
 10  2  2  0
 12  9  1  0
  4  5  1  0
  4  3  2  0
  5  6  2  0
 14  1  2  0
  2  3  1  0
  2 11  1  0
  3  8  1  0
  6  9  1  0
  6  7  1  0
  9 13  2  0
  8  7  2  0
  8  1  1  0
  1 15  1  0
  4 16  1  0
  5 17  1  0
  7 18  1  0
 11 19  1  0
 15 20  1  0
M  CHG  2   9   1  12  -1
M  END
