
     RDKit          3D

 68 67  0  0  0  0  0  0  0  0999 V2000
   -7.5583   -3.0158    0.2157 P   0  0  1  0  0  0  0  0  0  0  0  0
   -6.5415   -3.4089    1.2091 O   0  0  0  0  0  0  0  0  0  0  0  0
   -8.8976   -2.5744    0.9698 O   0  0  0  0  0  0  0  0  0  0  0  0
   -7.1773   -1.8355   -0.7835 O   0  0  0  0  0  0  0  0  0  0  0  0
   -6.7694   -0.5620   -0.2667 C   0  0  0  0  0  0  0  0  0  0  0  0
   -6.1739    0.2608   -1.4082 C   0  0  1  0  0  0  0  0  0  0  0  0
   -4.9359   -0.4353   -1.9792 C   0  0  0  0  0  0  0  0  0  0  0  0
   -7.2025    0.4457   -2.5278 C   0  0  0  0  0  0  0  0  0  0  0  0
   -5.7928    1.6745   -0.8833 C   0  0  1  0  0  0  0  0  0  0  0  0
   -6.8959    2.3796   -0.3828 O   0  0  0  0  0  0  0  0  0  0  0  0
   -4.7071    1.6406    0.1932 C   0  0  0  0  0  0  0  0  0  0  0  0
   -5.0166    1.5346    1.3752 O   0  0  0  0  0  0  0  0  0  0  0  0
   -3.4459    1.7432   -0.2268 N   0  0  0  0  0  0  0  0  0  0  0  0
   -2.3099    1.6593    0.6700 C   0  0  0  0  0  0  0  0  0  0  0  0
   -1.0272    1.9000   -0.1090 C   0  0  0  0  0  0  0  0  0  0  0  0
    0.1979    1.7130    0.7600 C   0  0  0  0  0  0  0  0  0  0  0  0
    0.2803    0.8042    1.5733 O   0  0  0  0  0  0  0  0  0  0  0  0
    1.1821    2.6053    0.5567 N   0  0  0  0  0  0  0  0  0  0  0  0
    2.4703    2.5212    1.2009 C   0  0  0  0  0  0  0  0  0  0  0  0
    3.4200    1.6248    0.4108 C   0  0  0  0  0  0  0  0  0  0  0  0
    5.0201    1.5692    1.2654 S   0  0  0  0  0  0  0  0  0  0  0  0
    5.9901    0.6149    0.1260 C   0  0  0  0  0  0  0  0  0  0  0  0
    5.5487    0.2163   -0.9200 O   0  0  0  0  0  0  0  0  0  0  0  0
    7.3878    0.3555    0.6246 C   0  0  0  0  0  0  0  0  0  0  0  0
    8.3391   -0.1500   -0.4504 C   0  0  0  0  0  0  0  0  0  0  0  0
    9.7295   -0.4301    0.1066 C   0  0  0  0  0  0  0  0  0  0  0  0
   10.6950   -0.9399   -0.9559 C   0  0  0  0  0  0  0  0  0  0  0  0
   12.0848   -1.2473   -0.4126 C   0  0  0  0  0  0  0  0  0  0  0  0
   13.0425   -1.7679   -1.4776 C   0  0  0  0  0  0  0  0  0  0  0  0
   14.4283   -2.0823   -0.9310 C   0  0  0  0  0  0  0  0  0  0  0  0
   -9.6440   -2.3481    0.3988 H   0  0  0  0  0  0  0  0  0  0  0  0
   -7.6402   -0.0555    0.1579 H   0  0  0  0  0  0  0  0  0  0  0  0
   -6.0351   -0.7081    0.5292 H   0  0  0  0  0  0  0  0  0  0  0  0
   -5.2121   -1.3637   -2.4774 H   0  0  0  0  0  0  0  0  0  0  0  0
   -4.4475    0.1970   -2.7244 H   0  0  0  0  0  0  0  0  0  0  0  0
   -4.1999   -0.6784   -1.2115 H   0  0  0  0  0  0  0  0  0  0  0  0
   -8.1113    0.9320   -2.1731 H   0  0  0  0  0  0  0  0  0  0  0  0
   -6.7842    1.0611   -3.3272 H   0  0  0  0  0  0  0  0  0  0  0  0
   -7.4819   -0.5109   -2.9678 H   0  0  0  0  0  0  0  0  0  0  0  0
   -5.4187    2.2316   -1.7507 H   0  0  0  0  0  0  0  0  0  0  0  0
   -6.9519    2.2077    0.5660 H   0  0  0  0  0  0  0  0  0  0  0  0
   -3.2729    1.8603   -1.2125 H   0  0  0  0  0  0  0  0  0  0  0  0
   -2.4114    2.4045    1.4617 H   0  0  0  0  0  0  0  0  0  0  0  0
   -2.2829    0.6781    1.1465 H   0  0  0  0  0  0  0  0  0  0  0  0
   -0.9524    1.1780   -0.9291 H   0  0  0  0  0  0  0  0  0  0  0  0
   -1.0415    2.8932   -0.5627 H   0  0  0  0  0  0  0  0  0  0  0  0
    1.0604    3.3104   -0.1518 H   0  0  0  0  0  0  0  0  0  0  0  0
    2.8766    3.5296    1.2771 H   0  0  0  0  0  0  0  0  0  0  0  0
    2.3399    2.1450    2.2152 H   0  0  0  0  0  0  0  0  0  0  0  0
    3.0179    0.6151    0.3347 H   0  0  0  0  0  0  0  0  0  0  0  0
    3.5684    2.0208   -0.5933 H   0  0  0  0  0  0  0  0  0  0  0  0
    7.7738    1.2672    1.0901 H   0  0  0  0  0  0  0  0  0  0  0  0
    7.3047   -0.3763    1.4364 H   0  0  0  0  0  0  0  0  0  0  0  0
    7.9392   -1.0627   -0.8985 H   0  0  0  0  0  0  0  0  0  0  0  0
    8.4102    0.5867   -1.2552 H   0  0  0  0  0  0  0  0  0  0  0  0
   10.1336    0.4814    0.5599 H   0  0  0  0  0  0  0  0  0  0  0  0
    9.6558   -1.1655    0.9151 H   0  0  0  0  0  0  0  0  0  0  0  0
   10.2805   -1.8429   -1.4173 H   0  0  0  0  0  0  0  0  0  0  0  0
   10.7753   -0.1992   -1.7590 H   0  0  0  0  0  0  0  0  0  0  0  0
   12.5054   -0.3446    0.0442 H   0  0  0  0  0  0  0  0  0  0  0  0
   12.0041   -1.9850    0.3936 H   0  0  0  0  0  0  0  0  0  0  0  0
   12.6186   -2.6677   -1.9344 H   0  0  0  0  0  0  0  0  0  0  0  0
   13.1244   -1.0307   -2.2824 H   0  0  0  0  0  0  0  0  0  0  0  0
   14.3784   -2.8346   -0.1418 H   0  0  0  0  0  0  0  0  0  0  0  0
   15.0883   -2.4647   -1.7106 H   0  0  0  0  0  0  0  0  0  0  0  0
   14.8986   -1.1930   -0.5075 H   0  0  0  0  0  0  0  0  0  0  0  0
   -7.9537   -4.0878   -0.8963 O   0  0  0  0  0  0  0  0  0  0  0  0
   -8.0244   -4.9910   -0.5598 H   0  0  0  0  0  0  0  0  0  0  0  0
  1  2  2  0
  1  3  1  1
  1  4  1  0
  4  5  1  0
  6  5  1  1
  6  7  1  0
  6  8  1  0
  6  9  1  0
  9 10  1  0
  9 11  1  0
 11 12  2  0
 11 13  1  0
 13 14  1  0
 14 15  1  0
 15 16  1  0
 16 17  2  0
 16 18  1  0
 18 19  1  0
 19 20  1  0
 20 21  1  0
 21 22  1  0
 22 23  2  0
 22 24  1  0
 24 25  1  0
 25 26  1  0
 26 27  1  0
 27 28  1  0
 28 29  1  0
 29 30  1  0
  3 31  1  0
  5 32  1  0
  5 33  1  0
  7 34  1  0
  7 35  1  0
  7 36  1  0
  8 37  1  0
  8 38  1  0
  8 39  1  0
  9 40  1  6
 10 41  1  0
 13 42  1  0
 14 43  1  0
 14 44  1  0
 15 45  1  0
 15 46  1  0
 18 47  1  0
 19 48  1  0
 19 49  1  0
 20 50  1  0
 20 51  1  0
 24 52  1  0
 24 53  1  0
 25 54  1  0
 25 55  1  0
 26 56  1  0
 26 57  1  0
 27 58  1  0
 27 59  1  0
 28 60  1  0
 28 61  1  0
 29 62  1  0
 29 63  1  0
 30 64  1  0
 30 65  1  0
 30 66  1  0
  1 67  1  0
 67 68  1  0
M  END
