
     RDKit          3D

 42 43  0  0  0  0  0  0  0  0999 V2000
    0.6170   -0.9998   -2.5182 C   0  0  0  0  0  0  0  0  0  0  0  0
    0.3585   -0.1554   -1.2615 C   0  0  2  0  0  0  0  0  0  0  0  0
    0.9858    1.1609   -1.3031 N   0  0  0  0  0  0  0  0  0  0  0  0
    0.8356   -0.8893    0.0029 C   0  0  1  0  0  0  0  0  0  0  0  0
    2.2422   -0.8477    0.0877 O   0  0  0  0  0  0  0  0  0  0  0  0
    0.1614   -0.3281    1.2650 C   0  0  1  0  0  0  0  0  0  0  0  0
   -1.2662   -0.5913    1.1772 N   0  0  0  0  0  0  0  0  0  0  0  0
    0.8118   -0.8741    2.5512 C   0  0  0  0  0  0  0  0  0  0  0  0
    0.0771   -0.3545   -3.7617 C   0  0  0  0  0  0  0  0  0  0  0  0
    0.8911    0.4160   -4.5892 C   0  0  0  0  0  0  0  0  0  0  0  0
    0.3753    1.0481   -5.7138 C   0  0  0  0  0  0  0  0  0  0  0  0
   -0.9702    0.9193   -6.0301 C   0  0  0  0  0  0  0  0  0  0  0  0
   -1.7933    0.1514   -5.2152 C   0  0  0  0  0  0  0  0  0  0  0  0
   -1.2719   -0.4777   -4.0935 C   0  0  0  0  0  0  0  0  0  0  0  0
    0.1902   -0.2815    3.7832 C   0  0  0  0  0  0  0  0  0  0  0  0
   -0.8377   -0.9326    4.4627 C   0  0  0  0  0  0  0  0  0  0  0  0
   -1.4375   -0.3565    5.5761 C   0  0  0  0  0  0  0  0  0  0  0  0
   -1.0203    0.8883    6.0271 C   0  0  0  0  0  0  0  0  0  0  0  0
    0.0028    1.5498    5.3582 C   0  0  0  0  0  0  0  0  0  0  0  0
    0.5991    0.9685    4.2480 C   0  0  0  0  0  0  0  0  0  0  0  0
    1.6934   -1.1683   -2.6209 H   0  0  0  0  0  0  0  0  0  0  0  0
    0.1583   -1.9831   -2.3818 H   0  0  0  0  0  0  0  0  0  0  0  0
   -0.7191   -0.0131   -1.1590 H   0  0  0  0  0  0  0  0  0  0  0  0
    1.8090    1.1571   -1.8930 H   0  0  0  0  0  0  0  0  0  0  0  0
    0.3601    1.8430   -1.7066 H   0  0  0  0  0  0  0  0  0  0  0  0
    0.5686   -1.9504   -0.0791 H   0  0  0  0  0  0  0  0  0  0  0  0
    2.4879    0.0864    0.0742 H   0  0  0  0  0  0  0  0  0  0  0  0
    0.2929    0.7611    1.2550 H   0  0  0  0  0  0  0  0  0  0  0  0
   -1.4393   -1.5808    1.3181 H   0  0  0  0  0  0  0  0  0  0  0  0
   -1.7545   -0.1156    1.9254 H   0  0  0  0  0  0  0  0  0  0  0  0
    0.7052   -1.9640    2.5673 H   0  0  0  0  0  0  0  0  0  0  0  0
    1.8815   -0.6602    2.5434 H   0  0  0  0  0  0  0  0  0  0  0  0
    1.9461    0.5145   -4.3599 H   0  0  0  0  0  0  0  0  0  0  0  0
    1.0265    1.6407   -6.3437 H   0  0  0  0  0  0  0  0  0  0  0  0
   -1.3740    1.4082   -6.9072 H   0  0  0  0  0  0  0  0  0  0  0  0
   -2.8428    0.0391   -5.4563 H   0  0  0  0  0  0  0  0  0  0  0  0
   -1.9216   -1.0805   -3.4685 H   0  0  0  0  0  0  0  0  0  0  0  0
   -1.1657   -1.9090    4.1248 H   0  0  0  0  0  0  0  0  0  0  0  0
   -2.2301   -0.8836    6.0920 H   0  0  0  0  0  0  0  0  0  0  0  0
   -1.4855    1.3389    6.8944 H   0  0  0  0  0  0  0  0  0  0  0  0
    0.3381    2.5198    5.7030 H   0  0  0  0  0  0  0  0  0  0  0  0
    1.3976    1.4930    3.7347 H   0  0  0  0  0  0  0  0  0  0  0  0
  1  2  1  0
  1  9  1  0
  1 21  1  0
  1 22  1  0
  2  3  1  0
  2  4  1  0
  2 23  1  1
  3 24  1  0
  3 25  1  0
  4  5  1  0
  4  6  1  0
  4 26  1  6
  5 27  1  0
  6  7  1  0
  6  8  1  0
  6 28  1  1
  7 29  1  0
  7 30  1  0
  8 15  1  0
  8 31  1  0
  8 32  1  0
  9 10  2  0
  9 14  1  0
 10 11  1  0
 10 33  1  0
 11 12  2  0
 11 34  1  0
 12 13  1  0
 12 35  1  0
 13 14  2  0
 13 36  1  0
 14 37  1  0
 15 16  2  0
 15 20  1  0
 16 17  1  0
 16 38  1  0
 17 18  2  0
 17 39  1  0
 18 19  1  0
 18 40  1  0
 19 20  2  0
 19 41  1  0
 20 42  1  0
M  END
