
     RDKit          3D

 33 35  0  0  0  0  0  0  0  0999 V2000
    9.8709  -13.9455   13.8751 C   0  0  0  0  0  0  0  0  0  0  0  0
    8.7075  -13.7384   14.6451 C   0  0  0  0  0  0  0  0  0  0  0  0
    8.6423  -12.4676   15.3257 C   0  0  0  0  0  0  0  0  0  0  0  0
    9.6131  -11.5875   15.2161 N   0  0  0  0  0  0  0  0  0  0  0  0
   10.6755  -11.9089   14.4489 C   0  0  0  0  0  0  0  0  0  0  0  0
   10.8576  -13.0282   13.7785 N   0  0  0  0  0  0  0  0  0  0  0  0
    7.5899  -12.1397   16.0801 N   0  0  0  0  0  0  0  0  0  0  0  0
    9.9888  -15.1697   13.1814 C   0  0  0  0  0  0  0  0  0  0  0  0
    9.0016  -16.1158   13.2537 C   0  0  0  0  0  0  0  0  0  0  0  0
    7.8310  -15.9124   14.0176 C   0  0  0  0  0  0  0  0  0  0  0  0
    7.7073  -14.7193   14.7004 C   0  0  0  0  0  0  0  0  0  0  0  0
   11.6560  -10.9811   14.4057 N   0  0  0  0  0  0  0  0  0  0  0  0
    5.4845  -18.6948   13.0127 C   0  0  0  0  0  0  0  0  0  0  0  0
    4.7360  -18.9005   14.1704 C   0  0  0  0  0  0  0  0  0  0  0  0
    5.0273  -18.1085   15.2782 C   0  0  0  0  0  0  0  0  0  0  0  0
    6.0292  -17.1509   15.2341 C   0  0  0  0  0  0  0  0  0  0  0  0
    6.7767  -16.9427   14.0741 C   0  0  0  0  0  0  0  0  0  0  0  0
    6.4844  -17.7368   12.9631 C   0  0  0  0  0  0  0  0  0  0  0  0
   10.8810  -15.3487   12.5949 H   0  0  0  0  0  0  0  0  0  0  0  0
    6.8022  -14.5406   15.2680 H   0  0  0  0  0  0  0  0  0  0  0  0
    6.8487  -12.7831   16.2889 H   0  0  0  0  0  0  0  0  0  0  0  0
    7.5963  -11.2670   16.5805 H   0  0  0  0  0  0  0  0  0  0  0  0
   12.3783  -11.0792   13.7140 H   0  0  0  0  0  0  0  0  0  0  0  0
   11.4579  -10.0516   14.7318 H   0  0  0  0  0  0  0  0  0  0  0  0
    9.1328  -17.0510   12.7229 H   0  0  0  0  0  0  0  0  0  0  0  0
    4.4664  -18.2436   16.1958 H   0  0  0  0  0  0  0  0  0  0  0  0
    6.2403  -16.5704   16.1242 H   0  0  0  0  0  0  0  0  0  0  0  0
    7.0271  -17.5931   12.0366 H   0  0  0  0  0  0  0  0  0  0  0  0
    5.2752  -19.2867   12.1290 H   0  0  0  0  0  0  0  0  0  0  0  0
    2.9442  -19.7545   15.0090 H   0  0  0  0  0  0  0  0  0  0  0  0
    3.1349  -20.0290   13.2768 H   0  0  0  0  0  0  0  0  0  0  0  0
    4.1028  -20.9391   14.4240 H   0  0  0  0  0  0  0  0  0  0  0  0
    3.6711  -19.9564   14.2231 C   0  0  0  0  0  0  0  0  0  0  0  0
  1  2  1  0
  1  6  2  0
  1  8  1  0
  2  3  2  0
  2 11  1  0
  3  4  1  0
  3  7  1  0
  4  5  2  0
  5  6  1  0
  5 12  1  0
  8  9  2  0
  9 10  1  0
 10 11  2  0
 10 17  1  0
 15 16  1  0
 15 14  2  0
 16 17  2  0
 18 13  2  0
 18 17  1  0
 13 14  1  0
 14 33  1  0
  8 19  1  0
 11 20  1  0
  7 21  1  0
  7 22  1  0
 12 23  1  0
 12 24  1  0
  9 25  1  0
 15 26  1  0
 16 27  1  0
 18 28  1  0
 13 29  1  0
 33 30  1  0
 33 31  1  0
 33 32  1  0
M  END
