
     RDKit          3D

 42 45  0  0  0  0  0  0  0  0999 V2000
    3.7114   -2.2672    0.8067 C   0  0  0  0  0  0  0  0  0  0  0  0
    2.4991   -3.7841   -0.3766 C   0  0  0  0  0  0  0  0  0  0  0  0
    2.0386   -2.8086   -1.2493 C   0  0  0  0  0  0  0  0  0  0  0  0
    2.4516   -1.5016   -1.0609 C   0  0  0  0  0  0  0  0  0  0  0  0
   -3.1965   -1.2956    0.5344 C   0  0  0  0  0  0  0  0  0  0  0  0
   -4.5587   -1.5055    0.5133 C   0  0  0  0  0  0  0  0  0  0  0  0
   -7.6559    0.2261   -0.2635 C   0  0  0  0  0  0  0  0  0  0  0  0
   -5.4275   -0.4866    0.1180 C   0  0  0  0  0  0  0  0  0  0  0  0
   -4.8871    0.7372   -0.2540 C   0  0  0  0  0  0  0  0  0  0  0  0
   -3.5106    0.9484   -0.2333 C   0  0  0  0  0  0  0  0  0  0  0  0
   -2.6415   -0.0638    0.1629 C   0  0  0  0  0  0  0  0  0  0  0  0
   -0.4075    1.0726   -0.0227 C   0  0  0  0  0  0  0  0  0  0  0  0
    0.0253    3.1919   -0.6465 C   0  0  0  0  0  0  0  0  0  0  0  0
    1.3788    2.9978   -0.4826 C   0  0  0  0  0  0  0  0  0  0  0  0
    1.7734    1.7264   -0.0484 C   0  0  0  0  0  0  0  0  0  0  0  0
    3.1753    1.4025    0.1782 C   0  0  0  0  0  0  0  0  0  0  0  0
    4.1759    2.3120    0.4656 C   0  0  0  0  0  0  0  0  0  0  0  0
    3.8277    0.1419    0.2386 C   0  0  0  0  0  0  0  0  0  0  0  0
    3.3089   -1.2083   -0.0045 C   0  0  0  0  0  0  0  0  0  0  0  0
   -0.8824    2.2459   -0.4281 N   0  0  0  0  0  0  0  0  0  0  0  0
    0.8798    0.7798    0.1853 N   0  0  0  0  0  0  0  0  0  0  0  0
    5.2845    1.6020    0.6763 N   0  0  0  0  0  0  0  0  0  0  0  0
    5.1056    0.2951    0.5393 N   0  0  0  0  0  0  0  0  0  0  0  0
    3.3213   -3.5231    0.6322 N   0  0  0  0  0  0  0  0  0  0  0  0
    4.3770   -2.0796    1.6424 H   0  0  0  0  0  0  0  0  0  0  0  0
    2.1933   -4.8171   -0.5004 H   0  0  0  0  0  0  0  0  0  0  0  0
    1.3786   -3.0722   -2.0642 H   0  0  0  0  0  0  0  0  0  0  0  0
    2.1239   -0.7242   -1.7371 H   0  0  0  0  0  0  0  0  0  0  0  0
   -2.5479   -2.1058    0.8478 H   0  0  0  0  0  0  0  0  0  0  0  0
   -4.9579   -2.4679    0.8085 H   0  0  0  0  0  0  0  0  0  0  0  0
   -7.4965    0.5427   -1.2980 H   0  0  0  0  0  0  0  0  0  0  0  0
   -8.6507   -0.2053   -0.1809 H   0  0  0  0  0  0  0  0  0  0  0  0
   -7.6003    1.1062    0.3835 H   0  0  0  0  0  0  0  0  0  0  0  0
   -5.5159    1.5591   -0.5695 H   0  0  0  0  0  0  0  0  0  0  0  0
   -3.1273    1.9104   -0.5304 H   0  0  0  0  0  0  0  0  0  0  0  0
   -0.3549    4.1513   -0.9789 H   0  0  0  0  0  0  0  0  0  0  0  0
    2.0885    3.7838   -0.6929 H   0  0  0  0  0  0  0  0  0  0  0  0
    4.1595    3.3857    0.5575 H   0  0  0  0  0  0  0  0  0  0  0  0
   -0.7710   -0.7956    0.5288 H   0  0  0  0  0  0  0  0  0  0  0  0
    6.1975    1.9610    0.9078 H   0  0  0  0  0  0  0  0  0  0  0  0
   -1.2518    0.0363    0.2222 N   0  0  0  0  0  0  0  0  0  0  0  0
   -6.7460   -0.7789    0.1303 O   0  0  0  0  0  0  0  0  0  0  0  0
 22 17  1  0
 22 23  1  0
 17 16  2  0
 23 18  2  0
 14 13  2  0
 14 15  1  0
 13 20  1  0
 16 18  1  0
 16 15  1  0
  1 24  2  0
  1 19  1  0
 18 19  1  0
 15 21  2  0
 20 12  2  0
 21 12  1  0
 12 41  1  0
 24  2  1  0
 19  4  2  0
 41 11  1  0
 11  5  2  0
 11 10  1  0
  2  3  2  0
  5  6  1  0
 10  9  2  0
  4  3  1  0
  7 42  1  0
  6  8  2  0
  9  8  1  0
  8 42  1  0
  1 25  1  0
  2 26  1  0
  3 27  1  0
  4 28  1  0
  5 29  1  0
  6 30  1  0
  7 31  1  0
  7 32  1  0
  7 33  1  0
  9 34  1  0
 10 35  1  0
 13 36  1  0
 14 37  1  0
 17 38  1  0
 41 39  1  0
 22 40  1  0
M  END
