
     RDKit          3D

 87 91  0  0  0  0  0  0  0  0999 V2000
   -5.7697   -0.5470    2.2289 C   0  0  0  0  0  0  0  0  0  0  0  0
   -7.1366   -1.8486    3.8424 C   0  0  0  0  0  0  0  0  0  0  0  0
   -4.0718   -1.2697    0.5101 C   0  0  0  0  0  0  0  0  0  0  0  0
   -2.6976   -0.7517    0.9408 C   0  0  2  0  0  0  0  0  0  0  0  0
   -1.5790   -1.3737    0.0966 C   0  0  1  0  0  0  0  0  0  0  0  0
    0.4182   -0.3133   -1.6597 O   0  0  0  0  0  0  0  0  0  0  0  0
    2.9206    0.0258   -0.7044 C   0  0  1  0  0  0  0  0  0  0  0  0
    4.5532    1.5154   -1.5427 C   0  0  2  0  0  0  0  0  0  0  0  0
    6.0475    2.6478   -0.2562 C   0  0  0  0  0  0  0  0  0  0  0  0
    5.2833    0.4809   -0.6592 C   0  0  1  0  0  0  0  0  0  0  0  0
    6.6700    3.5913    0.1590 O   0  0  0  0  0  0  0  0  0  0  0  0
    5.2067    2.7546   -1.2934 O   0  0  0  0  0  0  0  0  0  0  0  0
    6.0636    1.3606    0.1897 N   0  0  0  0  0  0  0  0  0  0  0  0
    6.8684    0.8855    1.2379 C   0  0  0  0  0  0  0  0  0  0  0  0
    7.3890   -0.4051    1.1664 C   0  0  0  0  0  0  0  0  0  0  0  0
    8.1666   -0.9046    2.2013 C   0  0  0  0  0  0  0  0  0  0  0  0
    8.4395   -0.1264    3.3164 C   0  0  0  0  0  0  0  0  0  0  0  0
    7.9120    1.1559    3.3908 C   0  0  0  0  0  0  0  0  0  0  0  0
    7.1233    1.6620    2.3687 C   0  0  0  0  0  0  0  0  0  0  0  0
    3.0997    1.4886   -1.0950 C   0  0  0  0  0  0  0  0  0  0  0  0
    4.1933   -0.3106    0.0717 C   0  0  0  0  0  0  0  0  0  0  0  0
    1.7963   -0.2221    0.1229 O   0  0  0  0  0  0  0  0  0  0  0  0
   -0.3152   -0.7705    0.4521 N   0  0  0  0  0  0  0  0  0  0  0  0
   -1.4981   -2.9069    0.2137 C   0  0  0  0  0  0  0  0  0  0  0  0
   -0.3969   -3.4580   -0.6461 C   0  0  0  0  0  0  0  0  0  0  0  0
   -0.6234   -3.7331   -1.9923 C   0  0  0  0  0  0  0  0  0  0  0  0
    0.4080   -4.1659   -2.8127 C   0  0  0  0  0  0  0  0  0  0  0  0
    1.6888   -4.3230   -2.2979 C   0  0  0  0  0  0  0  0  0  0  0  0
    1.9258   -4.0559   -0.9563 C   0  0  0  0  0  0  0  0  0  0  0  0
    0.8877   -3.6316   -0.1372 C   0  0  0  0  0  0  0  0  0  0  0  0
   -2.4697   -0.8973    2.3248 O   0  0  0  0  0  0  0  0  0  0  0  0
   -5.1747   -0.4057    0.9038 N   0  0  0  0  0  0  0  0  0  0  0  0
   -6.6237   -1.8022    2.4066 C   0  0  1  0  0  0  0  0  0  0  0  0
   -7.7709   -1.8675    1.4076 C   0  0  0  0  0  0  0  0  0  0  0  0
   -5.8128    0.5727   -0.2496 S   0  0  1  0  0  0  0  0  0  0  0  0
   -6.1533   -0.1979   -1.4403 O   0  0  0  0  0  0  0  0  0  0  0  0
   -6.8538    1.3708    0.3816 O   0  0  0  0  0  0  0  0  0  0  0  0
   -4.4573    1.6122   -0.6828 C   0  0  0  0  0  0  0  0  0  0  0  0
   -3.7005    1.3378   -1.8095 C   0  0  0  0  0  0  0  0  0  0  0  0
   -2.5468    2.0627   -2.0661 C   0  0  0  0  0  0  0  0  0  0  0  0
   -4.0809    2.6330    0.1885 C   0  0  0  0  0  0  0  0  0  0  0  0
   -2.9408    3.3616   -0.0669 C   0  0  0  0  0  0  0  0  0  0  0  0
   -2.1526    3.0710   -1.1886 C   0  0  0  0  0  0  0  0  0  0  0  0
   -1.0449    3.8038   -1.3390 O   0  0  0  0  0  0  0  0  0  0  0  0
   -0.1721    3.4963   -2.4121 C   0  0  0  0  0  0  0  0  0  0  0  0
   -4.9546   -0.5472    2.9552 H   0  0  0  0  0  0  0  0  0  0  0  0
   -6.3694    0.3372    2.4428 H   0  0  0  0  0  0  0  0  0  0  0  0
   -7.8220   -1.0214    4.0422 H   0  0  0  0  0  0  0  0  0  0  0  0
   -7.6767   -2.7766    4.0329 H   0  0  0  0  0  0  0  0  0  0  0  0
   -6.3198   -1.7865    4.5637 H   0  0  0  0  0  0  0  0  0  0  0  0
   -4.0861   -1.4101   -0.5726 H   0  0  0  0  0  0  0  0  0  0  0  0
   -4.2527   -2.2687    0.9188 H   0  0  0  0  0  0  0  0  0  0  0  0
   -2.6582    0.3240    0.7535 H   0  0  0  0  0  0  0  0  0  0  0  0
   -1.7813   -1.1122   -0.9440 H   0  0  0  0  0  0  0  0  0  0  0  0
    2.8648   -0.5953   -1.6028 H   0  0  0  0  0  0  0  0  0  0  0  0
    4.6509    1.2892   -2.6040 H   0  0  0  0  0  0  0  0  0  0  0  0
    5.9309   -0.1664   -1.2535 H   0  0  0  0  0  0  0  0  0  0  0  0
    7.2006   -1.0318    0.3049 H   0  0  0  0  0  0  0  0  0  0  0  0
    8.5622   -1.9089    2.1258 H   0  0  0  0  0  0  0  0  0  0  0  0
    9.0478   -0.5163    4.1215 H   0  0  0  0  0  0  0  0  0  0  0  0
    8.1033    1.7719    4.2599 H   0  0  0  0  0  0  0  0  0  0  0  0
    6.7058    2.6526    2.4664 H   0  0  0  0  0  0  0  0  0  0  0  0
    2.4145    1.8194   -1.8733 H   0  0  0  0  0  0  0  0  0  0  0  0
    2.9609    2.1231   -0.2143 H   0  0  0  0  0  0  0  0  0  0  0  0
    4.0981    0.0398    1.1019 H   0  0  0  0  0  0  0  0  0  0  0  0
    4.3945   -1.3808    0.0974 H   0  0  0  0  0  0  0  0  0  0  0  0
    0.0063   -0.9181    1.3975 H   0  0  0  0  0  0  0  0  0  0  0  0
   -1.3274   -3.1897    1.2569 H   0  0  0  0  0  0  0  0  0  0  0  0
   -2.4558   -3.3446   -0.0796 H   0  0  0  0  0  0  0  0  0  0  0  0
   -1.6181   -3.6018   -2.4036 H   0  0  0  0  0  0  0  0  0  0  0  0
    0.2128   -4.3791   -3.8561 H   0  0  0  0  0  0  0  0  0  0  0  0
    2.4961   -4.6567   -2.9374 H   0  0  0  0  0  0  0  0  0  0  0  0
    2.9197   -4.1803   -0.5452 H   0  0  0  0  0  0  0  0  0  0  0  0
    1.0792   -3.4302    0.9104 H   0  0  0  0  0  0  0  0  0  0  0  0
   -2.6106   -1.8162    2.5780 H   0  0  0  0  0  0  0  0  0  0  0  0
   -5.9837   -2.6789    2.2550 H   0  0  0  0  0  0  0  0  0  0  0  0
   -8.3862   -2.7510    1.5822 H   0  0  0  0  0  0  0  0  0  0  0  0
   -8.4158   -0.9904    1.4920 H   0  0  0  0  0  0  0  0  0  0  0  0
   -7.4143   -1.9221    0.3788 H   0  0  0  0  0  0  0  0  0  0  0  0
   -3.9896    0.5558   -2.4985 H   0  0  0  0  0  0  0  0  0  0  0  0
   -1.9726    1.8231   -2.9497 H   0  0  0  0  0  0  0  0  0  0  0  0
   -4.6654    2.8575    1.0714 H   0  0  0  0  0  0  0  0  0  0  0  0
   -2.6395    4.1540    0.6059 H   0  0  0  0  0  0  0  0  0  0  0  0
    0.6864    4.1542   -2.3087 H   0  0  0  0  0  0  0  0  0  0  0  0
    0.1648    2.4577   -2.3690 H   0  0  0  0  0  0  0  0  0  0  0  0
   -0.6420    3.6771   -3.3817 H   0  0  0  0  0  0  0  0  0  0  0  0
    0.6113   -0.4359   -0.4705 C   0  0  0  0  0  0  0  0  0  0  0  0
 20  7  1  0
 20  8  1  0
 34 33  1  0
  2 33  1  0
  7 21  1  0
  7 22  1  0
  8 10  1  0
  8 12  1  0
 33  1  1  0
 21 10  1  0
 10 13  1  0
  6 87  2  0
 22 87  1  0
 12  9  1  0
  1 32  1  0
 87 23  1  0
 13  9  1  0
 13 14  1  0
 37 35  2  0
  9 11  2  0
 35 32  1  1
 32  3  1  0
 23  5  1  0
 15 14  2  0
 15 16  1  0
  4  5  1  0
  4  3  1  0
  4 31  1  0
 41 42  2  0
 41 38  1  0
 14 19  1  0
 35 38  1  0
 35 36  2  0
  5 24  1  0
 42 43  1  0
 38 39  2  0
 16 17  2  0
 19 18  2  0
 45 44  1  0
 26 27  2  0
 26 25  1  0
 24 25  1  0
 43 44  1  0
 43 40  2  0
 27 28  1  0
 25 30  2  0
 17 18  1  0
 28 29  2  0
 39 40  1  0
 30 29  1  0
  1 46  1  0
  1 47  1  0
  2 48  1  0
  2 49  1  0
  2 50  1  0
  3 51  1  0
  3 52  1  0
  4 53  1  1
  5 54  1  6
  7 55  1  6
  8 56  1  6
 10 57  1  6
 15 58  1  0
 16 59  1  0
 17 60  1  0
 18 61  1  0
 19 62  1  0
 20 63  1  0
 20 64  1  0
 21 65  1  0
 21 66  1  0
 23 67  1  0
 24 68  1  0
 24 69  1  0
 26 70  1  0
 27 71  1  0
 28 72  1  0
 29 73  1  0
 30 74  1  0
 31 75  1  0
 33 76  1  6
 34 77  1  0
 34 78  1  0
 34 79  1  0
 39 80  1  0
 40 81  1  0
 41 82  1  0
 42 83  1  0
 45 84  1  0
 45 85  1  0
 45 86  1  0
M  END
