
     RDKit          3D

 54 57  0  0  0  0  0  0  0  0999 V2000
   -1.0459   -0.7919    0.3466 C   0  0  0  0  0  0  0  0  0  0  0  0
    0.1764   -1.4284    0.1572 C   0  0  0  0  0  0  0  0  0  0  0  0
    0.1911   -2.8183    0.0709 C   0  0  0  0  0  0  0  0  0  0  0  0
   -0.9761   -3.5570    0.1579 C   0  0  0  0  0  0  0  0  0  0  0  0
   -2.2413   -1.5010    0.4287 C   0  0  0  0  0  0  0  0  0  0  0  0
   -2.1670   -2.8853    0.3215 C   0  0  0  0  0  0  0  0  0  0  0  0
    1.4174   -0.6332    0.1048 C   0  0  0  0  0  0  0  0  0  0  0  0
    1.8672    0.0646    1.1700 C   0  0  0  0  0  0  0  0  0  0  0  0
    3.0722    0.8067    1.0966 C   0  0  0  0  0  0  0  0  0  0  0  0
    3.8093    0.8214   -0.1057 C   0  0  0  0  0  0  0  0  0  0  0  0
    2.1382   -0.5945   -1.1600 C   0  0  0  0  0  0  0  0  0  0  0  0
    5.0147    1.5147   -0.1289 C   0  0  0  0  0  0  0  0  0  0  0  0
    5.4351    2.1795    1.0313 C   0  0  0  0  0  0  0  0  0  0  0  0
    3.5921    1.5122    2.1848 C   0  0  0  0  0  0  0  0  0  0  0  0
    1.7407   -1.1788   -2.1562 O   0  0  0  0  0  0  0  0  0  0  0  0
    3.3070    0.1566   -1.1993 N   0  0  0  0  0  0  0  0  0  0  0  0
    5.1076   -0.8990   -2.5341 C   0  0  0  0  0  0  0  0  0  0  0  0
    4.7181    2.1802    2.1749 N   0  0  0  0  0  0  0  0  0  0  0  0
    6.5923    2.8606    1.0724 N   0  0  0  0  0  0  0  0  0  0  0  0
    7.5273    2.9465   -0.0164 C   0  0  0  0  0  0  0  0  0  0  0  0
    1.6894   -3.6627   -0.0903 Cl  0  0  0  0  0  0  0  0  0  0  0  0
   -3.3020   -3.5938    0.4017 F   0  0  0  0  0  0  0  0  0  0  0  0
   -3.4804   -0.9039    0.6508 N   0  0  0  0  0  0  0  0  0  0  0  0
   -3.8993    0.2643    0.0626 C   0  0  0  0  0  0  0  0  0  0  0  0
   -3.2128    0.9061   -0.7094 O   0  0  0  0  0  0  0  0  0  0  0  0
   -5.1623    0.6151    0.4476 N   0  0  0  0  0  0  0  0  0  0  0  0
   -5.8773    1.7465    0.0414 C   0  0  0  0  0  0  0  0  0  0  0  0
   -5.7167    2.3518   -1.2057 C   0  0  0  0  0  0  0  0  0  0  0  0
   -6.4948    3.4514   -1.5412 C   0  0  0  0  0  0  0  0  0  0  0  0
   -7.4428    3.9563   -0.6623 C   0  0  0  0  0  0  0  0  0  0  0  0
   -7.6109    3.3432    0.5721 C   0  0  0  0  0  0  0  0  0  0  0  0
   -6.8331    2.2521    0.9243 C   0  0  0  0  0  0  0  0  0  0  0  0
   -1.0552    0.2840    0.4359 H   0  0  0  0  0  0  0  0  0  0  0  0
   -0.9675   -4.6369    0.0975 H   0  0  0  0  0  0  0  0  0  0  0  0
    1.3232    0.0444    2.1080 H   0  0  0  0  0  0  0  0  0  0  0  0
    5.6360    1.5432   -1.0098 H   0  0  0  0  0  0  0  0  0  0  0  0
    3.0331    1.5138    3.1166 H   0  0  0  0  0  0  0  0  0  0  0  0
    3.3190    0.0474   -3.2677 H   0  0  0  0  0  0  0  0  0  0  0  0
    4.4665    1.1717   -2.5980 H   0  0  0  0  0  0  0  0  0  0  0  0
    5.8328   -0.8039   -1.7264 H   0  0  0  0  0  0  0  0  0  0  0  0
    4.6622   -1.8918   -2.4766 H   0  0  0  0  0  0  0  0  0  0  0  0
    5.6463   -0.8270   -3.4786 H   0  0  0  0  0  0  0  0  0  0  0  0
    6.8265    3.2951    1.9490 H   0  0  0  0  0  0  0  0  0  0  0  0
    7.0981    3.4440   -0.8895 H   0  0  0  0  0  0  0  0  0  0  0  0
    8.3851    3.5269    0.3104 H   0  0  0  0  0  0  0  0  0  0  0  0
    7.8851    1.9621   -0.3287 H   0  0  0  0  0  0  0  0  0  0  0  0
   -4.1660   -1.4621    1.1358 H   0  0  0  0  0  0  0  0  0  0  0  0
   -5.5733    0.1026    1.2135 H   0  0  0  0  0  0  0  0  0  0  0  0
   -5.0046    1.9697   -1.9198 H   0  0  0  0  0  0  0  0  0  0  0  0
   -6.3598    3.9096   -2.5125 H   0  0  0  0  0  0  0  0  0  0  0  0
   -8.0448    4.8123   -0.9369 H   0  0  0  0  0  0  0  0  0  0  0  0
   -8.3462    3.7185    1.2718 H   0  0  0  0  0  0  0  0  0  0  0  0
   -6.9654    1.7890    1.8952 H   0  0  0  0  0  0  0  0  0  0  0  0
    4.0392    0.1793   -2.4661 C   0  0  0  0  0  0  0  0  0  0  0  0
 19 20  1  0
 19 13  1  0
 18 13  2  0
 18 14  1  0
 13 12  1  0
 14  9  2  0
 12 10  2  0
  9 10  1  0
  9  8  1  0
 10 16  1  0
  8  7  2  0
 31 32  2  0
 31 30  1  0
 16 54  1  0
 16 11  1  0
 32 27  1  0
  7 11  1  0
  7  2  1  0
 54 17  1  0
 30 29  2  0
 11 15  2  0
 25 24  2  0
  2  1  2  0
  2  3  1  0
  1  5  1  0
 21  3  1  0
 27 26  1  0
 27 28  2  0
 24 26  1  0
 24 23  1  0
  3  4  2  0
 29 28  1  0
  5 23  1  0
  5  6  2  0
  4  6  1  0
  6 22  1  0
  1 33  1  0
  4 34  1  0
  8 35  1  0
 12 36  1  0
 14 37  1  0
 54 38  1  0
 54 39  1  0
 17 40  1  0
 17 41  1  0
 17 42  1  0
 19 43  1  0
 20 44  1  0
 20 45  1  0
 20 46  1  0
 23 47  1  0
 26 48  1  0
 28 49  1  0
 29 50  1  0
 30 51  1  0
 31 52  1  0
 32 53  1  0
M  END
