
     RDKit          3D

 39 39  0  0  0  0  0  0  0  0999 V2000
    0.8964   -1.3539    3.1082 N   0  0  0  0  0  0  0  0  0  0  0  0
    0.9965   -0.1663    2.2808 C   0  0  1  0  0  0  0  0  0  0  0  0
    1.7544   -0.5203    0.9929 C   0  0  0  0  0  0  0  0  0  0  0  0
    2.1840    0.6730    0.1441 C   0  0  0  0  0  0  0  0  0  0  0  0
    2.9095    0.3065   -1.1657 C   0  0  0  0  0  0  0  0  0  0  0  0
    2.0292    0.4524   -2.4081 C   0  0  0  0  0  0  0  0  0  0  0  0
    0.8969   -0.5735   -2.4911 C   0  0  0  0  0  0  0  0  0  0  0  0
   -0.3447   -0.1171   -3.2754 C   0  0  0  0  0  0  0  0  0  0  0  0
   -1.6412   -0.5063   -2.5616 C   0  0  0  0  0  0  0  0  0  0  0  0
   -1.8343    0.2776   -1.2645 C   0  0  0  0  0  0  0  0  0  0  0  0
   -2.8326   -0.3427   -0.2925 C   0  0  0  0  0  0  0  0  0  0  0  0
   -2.6433    0.1339    1.1464 C   0  0  0  0  0  0  0  0  0  0  0  0
   -1.3638   -0.2806    1.6838 N   0  0  0  0  0  0  0  0  0  0  0  0
   -0.3241    0.5328    1.9306 C   0  0  0  0  0  0  0  0  0  0  0  0
   -0.3894    1.7541    1.8548 O   0  0  0  0  0  0  0  0  0  0  0  0
    0.5563   -2.1539    2.5896 H   0  0  0  0  0  0  0  0  0  0  0  0
    0.2739   -1.2127    3.8927 H   0  0  0  0  0  0  0  0  0  0  0  0
    1.5814    0.5785    2.8299 H   0  0  0  0  0  0  0  0  0  0  0  0
    2.6442   -1.0824    1.2916 H   0  0  0  0  0  0  0  0  0  0  0  0
    1.1433   -1.2141    0.4055 H   0  0  0  0  0  0  0  0  0  0  0  0
    1.3228    1.3017   -0.0971 H   0  0  0  0  0  0  0  0  0  0  0  0
    2.8354    1.2998    0.7593 H   0  0  0  0  0  0  0  0  0  0  0  0
    3.7772    0.9597   -1.2843 H   0  0  0  0  0  0  0  0  0  0  0  0
    3.3126   -0.7106   -1.1060 H   0  0  0  0  0  0  0  0  0  0  0  0
    1.6019    1.4610   -2.3989 H   0  0  0  0  0  0  0  0  0  0  0  0
    2.6474    0.4004   -3.3090 H   0  0  0  0  0  0  0  0  0  0  0  0
    1.2803   -1.5089   -2.9078 H   0  0  0  0  0  0  0  0  0  0  0  0
    0.5846   -0.8290   -1.4772 H   0  0  0  0  0  0  0  0  0  0  0  0
   -0.3274    0.9708   -3.3998 H   0  0  0  0  0  0  0  0  0  0  0  0
   -0.3352   -0.5317   -4.2861 H   0  0  0  0  0  0  0  0  0  0  0  0
   -2.5000   -0.3583   -3.2224 H   0  0  0  0  0  0  0  0  0  0  0  0
   -1.6123   -1.5787   -2.3386 H   0  0  0  0  0  0  0  0  0  0  0  0
   -0.8671    0.3603   -0.7615 H   0  0  0  0  0  0  0  0  0  0  0  0
   -2.1311    1.3050   -1.4959 H   0  0  0  0  0  0  0  0  0  0  0  0
   -3.8590   -0.1257   -0.6009 H   0  0  0  0  0  0  0  0  0  0  0  0
   -2.7370   -1.4336   -0.3111 H   0  0  0  0  0  0  0  0  0  0  0  0
   -2.7020    1.2198    1.2062 H   0  0  0  0  0  0  0  0  0  0  0  0
   -3.4389   -0.2677    1.7777 H   0  0  0  0  0  0  0  0  0  0  0  0
   -1.2187   -1.2730    1.7808 H   0  0  0  0  0  0  0  0  0  0  0  0
  1  2  1  0
  1 16  1  0
  1 17  1  0
  2  3  1  0
  2 14  1  0
  2 18  1  1
  3  4  1  0
  3 19  1  0
  3 20  1  0
  4  5  1  0
  4 21  1  0
  4 22  1  0
  5  6  1  0
  5 23  1  0
  5 24  1  0
  6  7  1  0
  6 25  1  0
  6 26  1  0
  7  8  1  0
  7 27  1  0
  7 28  1  0
  8  9  1  0
  8 29  1  0
  8 30  1  0
  9 10  1  0
  9 31  1  0
  9 32  1  0
 10 11  1  0
 10 33  1  0
 10 34  1  0
 11 12  1  0
 11 35  1  0
 11 36  1  0
 12 13  1  0
 12 37  1  0
 12 38  1  0
 13 14  1  0
 13 39  1  0
 14 15  2  0
M  END
