
     RDKit          3D

 75 78  0  0  0  0  0  0  0  0999 V2000
   -8.5943   -2.5066   -0.8132 C   0  0  0  0  0  0  0  0  0  0  0  0
   -9.7004   -0.6156    1.1603 N   0  0  0  0  0  0  0  0  0  0  0  0
   -7.9777   -2.7742    0.1878 O   0  0  0  0  0  0  0  0  0  0  0  0
   -5.5352    1.3464    3.2834 Cl  0  0  0  0  0  0  0  0  0  0  0  0
   -9.9976   -2.0194   -0.8302 C   0  0  0  0  0  0  0  0  0  0  0  0
    9.7816   -0.5809   -1.0654 N   0  0  0  0  0  0  0  0  0  0  0  0
   -8.0977   -2.6524   -2.0353 O   0  0  0  0  0  0  0  0  0  0  0  0
   -6.3334    1.5882   -2.0111 Cl  0  0  0  0  0  0  0  0  0  0  0  0
  -10.8652   -2.5076   -1.8090 C   0  0  0  0  0  0  0  0  0  0  0  0
   -4.8723    2.0443    0.4998 O   0  0  0  0  0  0  0  0  0  0  0  0
    5.7180    1.4595   -3.3145 Cl  0  0  0  0  0  0  0  0  0  0  0  0
  -12.2224   -2.2436   -1.7627 C   0  0  0  0  0  0  0  0  0  0  0  0
    4.9379    2.0819   -0.5431 O   0  0  0  0  0  0  0  0  0  0  0  0
    6.2935    1.5597    2.0134 Cl  0  0  0  0  0  0  0  0  0  0  0  0
  -12.7264   -1.4654   -0.7282 C   0  0  0  0  0  0  0  0  0  0  0  0
    7.9411   -2.7241    1.9215 O   0  0  0  0  0  0  0  0  0  0  0  0
  -11.8747   -0.9302    0.2207 C   0  0  0  0  0  0  0  0  0  0  0  0
    7.9585   -2.7452   -0.3079 O   0  0  0  0  0  0  0  0  0  0  0  0
  -10.5026   -1.1885    0.1850 C   0  0  0  0  0  0  0  0  0  0  0  0
   -8.4968    0.0355    0.9551 C   0  0  0  0  0  0  0  0  0  0  0  0
   -7.6994    0.3188    2.0647 C   0  0  0  0  0  0  0  0  0  0  0  0
   -6.5011    0.9856    1.8989 C   0  0  0  0  0  0  0  0  0  0  0  0
   -8.0723    0.4508   -0.3069 C   0  0  0  0  0  0  0  0  0  0  0  0
   -6.8526    1.0889   -0.4416 C   0  0  0  0  0  0  0  0  0  0  0  0
   -6.0382    1.3851    0.6471 C   0  0  0  0  0  0  0  0  0  0  0  0
   -3.7222    1.2081    0.3184 C   0  0  0  0  0  0  0  0  0  0  0  0
   -2.4972    2.0880    0.2143 C   0  0  0  0  0  0  0  0  0  0  0  0
   -1.2306    1.2552    0.0561 C   0  0  0  0  0  0  0  0  0  0  0  0
    0.0288    2.1055   -0.0498 C   0  0  0  0  0  0  0  0  0  0  0  0
    1.2918    1.2656   -0.1876 C   0  0  0  0  0  0  0  0  0  0  0  0
    2.5566    2.1090   -0.2992 C   0  0  0  0  0  0  0  0  0  0  0  0
    3.7849    1.2374   -0.4282 C   0  0  0  0  0  0  0  0  0  0  0  0
    6.1094    1.4260   -0.6595 C   0  0  0  0  0  0  0  0  0  0  0  0
    6.6249    1.0597   -1.9008 C   0  0  0  0  0  0  0  0  0  0  0  0
    7.8270    0.3923   -2.0339 C   0  0  0  0  0  0  0  0  0  0  0  0
    6.8748    1.0962    0.4549 C   0  0  0  0  0  0  0  0  0  0  0  0
    8.0956    0.4543    0.3548 C   0  0  0  0  0  0  0  0  0  0  0  0
    8.5727    0.0725   -0.8989 C   0  0  0  0  0  0  0  0  0  0  0  0
   10.5111   -1.2198   -0.0748 C   0  0  0  0  0  0  0  0  0  0  0  0
   11.8882   -0.9945   -0.0145 C   0  0  0  0  0  0  0  0  0  0  0  0
   12.6677   -1.5975    0.9556 C   0  0  0  0  0  0  0  0  0  0  0  0
   12.0846   -2.4135    1.9169 C   0  0  0  0  0  0  0  0  0  0  0  0
   10.7213   -2.6446    1.8681 C   0  0  0  0  0  0  0  0  0  0  0  0
    9.9267   -2.0861    0.8654 C   0  0  0  0  0  0  0  0  0  0  0  0
    8.5163   -2.5355    0.7402 C   0  0  0  0  0  0  0  0  0  0  0  0
  -10.1651   -0.3969    2.0276 H   0  0  0  0  0  0  0  0  0  0  0  0
   10.3013   -0.3243   -1.8899 H   0  0  0  0  0  0  0  0  0  0  0  0
   -7.2101   -3.0386   -1.9865 H   0  0  0  0  0  0  0  0  0  0  0  0
  -10.4786   -3.1355   -2.6005 H   0  0  0  0  0  0  0  0  0  0  0  0
  -12.8798   -2.6473   -2.5204 H   0  0  0  0  0  0  0  0  0  0  0  0
  -13.7858   -1.2522   -0.6719 H   0  0  0  0  0  0  0  0  0  0  0  0
    7.0496   -3.0845    1.7993 H   0  0  0  0  0  0  0  0  0  0  0  0
  -12.2686   -0.2895    1.0002 H   0  0  0  0  0  0  0  0  0  0  0  0
   -8.0154    0.0117    3.0530 H   0  0  0  0  0  0  0  0  0  0  0  0
   -8.6869    0.2962   -1.1832 H   0  0  0  0  0  0  0  0  0  0  0  0
   -3.6250    0.5199    1.1646 H   0  0  0  0  0  0  0  0  0  0  0  0
   -3.8404    0.6045   -0.5880 H   0  0  0  0  0  0  0  0  0  0  0  0
   -2.6043    2.7661   -0.6378 H   0  0  0  0  0  0  0  0  0  0  0  0
   -2.4194    2.7098    1.1111 H   0  0  0  0  0  0  0  0  0  0  0  0
   -1.1335    0.5721    0.9067 H   0  0  0  0  0  0  0  0  0  0  0  0
   -1.3156    0.6223   -0.8339 H   0  0  0  0  0  0  0  0  0  0  0  0
   -0.0580    2.7801   -0.9083 H   0  0  0  0  0  0  0  0  0  0  0  0
    0.1120    2.7464    0.8345 H   0  0  0  0  0  0  0  0  0  0  0  0
    1.3752    0.5938    0.6734 H   0  0  0  0  0  0  0  0  0  0  0  0
    1.2030    0.6209   -1.0687 H   0  0  0  0  0  0  0  0  0  0  0  0
    2.4837    2.7694   -1.1684 H   0  0  0  0  0  0  0  0  0  0  0  0
    2.6533    2.7494    0.5828 H   0  0  0  0  0  0  0  0  0  0  0  0
    3.7067    0.5948   -1.3114 H   0  0  0  0  0  0  0  0  0  0  0  0
    3.8862    0.5863    0.4470 H   0  0  0  0  0  0  0  0  0  0  0  0
    8.1834    0.1097   -3.0156 H   0  0  0  0  0  0  0  0  0  0  0  0
    8.6713    0.2696    1.2515 H   0  0  0  0  0  0  0  0  0  0  0  0
   12.3435   -0.3257   -0.7348 H   0  0  0  0  0  0  0  0  0  0  0  0
   13.7330   -1.4081    0.9745 H   0  0  0  0  0  0  0  0  0  0  0  0
   12.6855   -2.8710    2.6904 H   0  0  0  0  0  0  0  0  0  0  0  0
   10.2718   -3.3018    2.6003 H   0  0  0  0  0  0  0  0  0  0  0  0
  3  1  2  0
  5  1  1  0
  1  7  1  0
 19  2  1  0
  2 20  1  0
  2 46  1  0
 22  4  1  0
  9  5  2  0
  5 19  1  0
 38  6  1  0
  6 39  1  0
  6 47  1  0
  7 48  1  0
 24  8  1  0
 12  9  1  0
  9 49  1  0
 25 10  1  0
 10 26  1  0
 11 34  1  0
 12 15  2  0
 12 50  1  0
 32 13  1  0
 13 33  1  0
 14 36  1  0
 15 17  1  0
 15 51  1  0
 45 16  1  0
 16 52  1  0
 17 19  2  0
 17 53  1  0
 18 45  2  0
 20 21  2  0
 20 23  1  0
 21 22  1  0
 21 54  1  0
 22 25  2  0
 23 24  2  0
 23 55  1  0
 24 25  1  0
 26 27  1  0
 26 56  1  0
 26 57  1  0
 27 28  1  0
 27 58  1  0
 27 59  1  0
 28 29  1  0
 28 60  1  0
 28 61  1  0
 29 30  1  0
 29 62  1  0
 29 63  1  0
 30 31  1  0
 30 64  1  0
 30 65  1  0
 31 32  1  0
 31 66  1  0
 31 67  1  0
 32 68  1  0
 32 69  1  0
 33 34  2  0
 33 36  1  0
 34 35  1  0
 35 38  2  0
 35 70  1  0
 36 37  2  0
 37 38  1  0
 37 71  1  0
 40 39  2  0
 39 44  1  0
 40 41  1  0
 40 72  1  0
 41 42  2  0
 41 73  1  0
 42 43  1  0
 42 74  1  0
 44 43  2  0
 43 75  1  0
 44 45  1  0
M  END
