
     RDKit          3D

 52 53  0  0  0  0  0  0  0  0999 V2000
    0.1833    1.0743   -4.3433 C   0  0  0  0  0  0  0  0  0  0  0  0
   -0.4030    1.3037   -5.7070 C   0  0  0  0  0  0  0  0  0  0  0  0
   -0.8984   -0.0097   -6.3289 C   0  0  2  0  0  0  0  0  0  0  0  0
    0.1973   -0.8393   -6.5329 O   0  0  0  0  0  0  0  0  0  0  0  0
   -0.1156   -2.2158   -6.6196 C   0  0  0  0  0  0  0  0  0  0  0  0
    1.1618   -2.9914   -6.8416 C   0  0  0  0  0  0  0  0  0  0  0  0
   -1.6116    0.2743   -7.6449 C   0  0  0  0  0  0  0  0  0  0  0  0
   -2.8048    0.8169   -7.4405 O   0  0  0  0  0  0  0  0  0  0  0  0
   -1.1471    0.0592   -8.7336 O   0  0  0  0  0  0  0  0  0  0  0  0
    1.5356    0.7842   -4.1667 C   0  0  0  0  0  0  0  0  0  0  0  0
    2.0620    0.5489   -2.9095 C   0  0  0  0  0  0  0  0  0  0  0  0
    1.2383    0.5869   -1.7829 C   0  0  0  0  0  0  0  0  0  0  0  0
   -0.1151    0.8708   -1.9411 C   0  0  0  0  0  0  0  0  0  0  0  0
   -0.6222    1.1106   -3.2132 C   0  0  0  0  0  0  0  0  0  0  0  0
    1.8318    0.3458   -0.5948 O   0  0  0  0  0  0  0  0  0  0  0  0
    1.0326    0.3538    0.5740 C   0  0  0  0  0  0  0  0  0  0  0  0
    1.9323    0.0631    1.7644 C   0  0  0  0  0  0  0  0  0  0  0  0
    1.1192    0.0412    3.0287 C   0  0  0  0  0  0  0  0  0  0  0  0
    0.6243   -1.1568    3.5376 C   0  0  0  0  0  0  0  0  0  0  0  0
   -0.1690   -1.1828    4.6747 C   0  0  0  0  0  0  0  0  0  0  0  0
   -0.4764    0.0119    5.3037 C   0  0  0  0  0  0  0  0  0  0  0  0
   -0.0011    1.2202    4.8211 C   0  0  0  0  0  0  0  0  0  0  0  0
    0.7942    1.2258    3.6850 C   0  0  0  0  0  0  0  0  0  0  0  0
   -1.3256    0.0155    6.4005 O   0  0  0  0  0  0  0  0  0  0  0  0
   -0.7310   -0.3119    7.8806 S   0  0  1  0  0  0  0  0  0  0  0  0
    0.0736    1.2004    8.3212 C   0  0  0  0  0  0  0  0  0  0  0  0
   -1.9186   -0.4997    8.6802 O   0  0  0  0  0  0  0  0  0  0  0  0
    0.2497   -1.3707    7.7763 O   0  0  0  0  0  0  0  0  0  0  0  0
    0.3369    1.7524   -6.3750 H   0  0  0  0  0  0  0  0  0  0  0  0
   -1.2367    2.0046   -5.6394 H   0  0  0  0  0  0  0  0  0  0  0  0
   -1.6262   -0.4649   -5.6398 H   0  0  0  0  0  0  0  0  0  0  0  0
   -0.8185   -2.4097   -7.4391 H   0  0  0  0  0  0  0  0  0  0  0  0
   -0.6037   -2.5466   -5.6938 H   0  0  0  0  0  0  0  0  0  0  0  0
    0.9402   -4.0571   -6.8927 H   0  0  0  0  0  0  0  0  0  0  0  0
    1.6445   -2.7044   -7.7762 H   0  0  0  0  0  0  0  0  0  0  0  0
    1.8668   -2.8336   -6.0250 H   0  0  0  0  0  0  0  0  0  0  0  0
   -3.2275    1.0288   -8.2866 H   0  0  0  0  0  0  0  0  0  0  0  0
    2.1945    0.7496   -5.0250 H   0  0  0  0  0  0  0  0  0  0  0  0
    3.1168    0.3333   -2.7907 H   0  0  0  0  0  0  0  0  0  0  0  0
   -0.7885    0.9152   -1.0963 H   0  0  0  0  0  0  0  0  0  0  0  0
   -1.6781    1.3342   -3.3150 H   0  0  0  0  0  0  0  0  0  0  0  0
    0.5475    1.3283    0.7026 H   0  0  0  0  0  0  0  0  0  0  0  0
    0.2414   -0.4019    0.5048 H   0  0  0  0  0  0  0  0  0  0  0  0
    2.4298   -0.8985    1.6216 H   0  0  0  0  0  0  0  0  0  0  0  0
    2.7088    0.8289    1.8288 H   0  0  0  0  0  0  0  0  0  0  0  0
    0.8614   -2.0895    3.0408 H   0  0  0  0  0  0  0  0  0  0  0  0
   -0.5552   -2.1202    5.0517 H   0  0  0  0  0  0  0  0  0  0  0  0
   -0.2586    2.1489    5.3145 H   0  0  0  0  0  0  0  0  0  0  0  0
    1.1642    2.1711    3.3066 H   0  0  0  0  0  0  0  0  0  0  0  0
    0.4519    1.0787    9.3349 H   0  0  0  0  0  0  0  0  0  0  0  0
    0.9038    1.3859    7.6435 H   0  0  0  0  0  0  0  0  0  0  0  0
   -0.6470    2.0131    8.2845 H   0  0  0  0  0  0  0  0  0  0  0  0
  1  2  1  0
  1 10  2  0
  1 14  1  0
  2  3  1  0
  2 29  1  0
  2 30  1  0
  3  4  1  0
  3  7  1  0
  3 31  1  1
  4  5  1  0
  5  6  1  0
  5 32  1  0
  5 33  1  0
  6 34  1  0
  6 35  1  0
  6 36  1  0
  7  8  1  0
  7  9  2  0
  8 37  1  0
 10 11  1  0
 10 38  1  0
 11 12  2  0
 11 39  1  0
 12 13  1  0
 12 15  1  0
 13 14  2  0
 13 40  1  0
 14 41  1  0
 15 16  1  0
 16 17  1  0
 16 42  1  0
 16 43  1  0
 17 18  1  0
 17 44  1  0
 17 45  1  0
 18 19  2  0
 18 23  1  0
 19 20  1  0
 19 46  1  0
 20 21  2  0
 20 47  1  0
 21 22  1  0
 21 24  1  0
 22 23  2  0
 22 48  1  0
 23 49  1  0
 25 24  1  6
 25 26  1  0
 25 27  2  0
 25 28  2  0
 26 50  1  0
 26 51  1  0
 26 52  1  0
M  END
