
     RDKit          3D

 15 15  0  0  0  0  0  0  0  0999 V2000
    0.8434   -2.5968   -0.0181 O   0  0  0  0  0  0  0  0  0  0  0  0
    0.4556   -1.3077   -0.0266 C   0  0  0  0  0  0  0  0  0  0  0  0
   -0.9076   -1.0564    0.1186 C   0  0  0  0  0  0  0  0  0  0  0  0
   -1.3514    0.2601    0.1172 C   0  0  0  0  0  0  0  0  0  0  0  0
   -2.6534    0.5731    0.2548 O   0  0  0  0  0  0  0  0  0  0  0  0
    1.3654   -0.2678   -0.1725 C   0  0  0  0  0  0  0  0  0  0  0  0
    0.8944    1.0436   -0.1709 C   0  0  0  0  0  0  0  0  0  0  0  0
    1.8088    2.0216   -0.3121 O   0  0  0  0  0  0  0  0  0  0  0  0
   -0.4592    1.3209   -0.0268 C   0  0  0  0  0  0  0  0  0  0  0  0
    1.8009   -2.6615   -0.1078 H   0  0  0  0  0  0  0  0  0  0  0  0
   -1.6014   -1.8818    0.2299 H   0  0  0  0  0  0  0  0  0  0  0  0
   -3.1837   -0.2258    0.3508 H   0  0  0  0  0  0  0  0  0  0  0  0
    2.4259   -0.4601   -0.2860 H   0  0  0  0  0  0  0  0  0  0  0  0
    1.3801    2.8846   -0.3008 H   0  0  0  0  0  0  0  0  0  0  0  0
   -0.8250    2.3415   -0.0229 H   0  0  0  0  0  0  0  0  0  0  0  0
  8  7  1  0
  9  7  2  0
  9  4  1  0
  7  6  1  0
  5  4  1  0
  4  3  2  0
  6  2  2  0
  3  2  1  0
  2  1  1  0
  1 10  1  0
  3 11  1  0
  5 12  1  0
  6 13  1  0
  8 14  1  0
  9 15  1  0
M  END
