
     RDKit          3D

 35 37  0  0  0  0  0  0  0  0999 V2000
    1.4907    0.0105   -1.2919 N   0  0  0  0  0  0  0  0  0  0  0  0
    1.8558    0.1625   -2.5815 C   0  0  0  0  0  0  0  0  0  0  0  0
    1.0454    0.2070   -3.6337 N   0  0  0  0  0  0  0  0  0  0  0  0
   -0.2321    0.0762   -3.2973 C   0  0  0  0  0  0  0  0  0  0  0  0
   -0.7453   -0.0926   -2.0143 C   0  0  0  0  0  0  0  0  0  0  0  0
    0.2171   -0.1172   -0.9971 C   0  0  0  0  0  0  0  0  0  0  0  0
   -0.1779   -0.2684    0.2510 O   0  0  0  0  0  0  0  0  0  0  0  0
    0.7992   -0.2514    1.2964 C   0  0  0  0  0  0  0  0  0  0  0  0
   -2.1161   -0.1884   -2.0421 N   0  0  0  0  0  0  0  0  0  0  0  0
   -2.4168   -0.0805   -3.3009 C   0  0  0  0  0  0  0  0  0  0  0  0
   -1.3235    0.0804   -4.1051 N   0  0  0  0  0  0  0  0  0  0  0  0
    3.1867    0.2407   -2.8097 N   0  0  0  0  0  0  0  0  0  0  0  0
    0.0838   -0.4168    2.6228 C   0  0  1  0  0  0  0  0  0  0  0  0
    1.1218   -0.4750    3.7458 C   0  0  0  0  0  0  0  0  0  0  0  0
    0.4668   -0.6285    5.1149 C   0  0  0  0  0  0  0  0  0  0  0  0
   -0.5457    0.4825    5.3718 C   0  0  0  0  0  0  0  0  0  0  0  0
   -1.5848    0.5403    4.2580 C   0  0  0  0  0  0  0  0  0  0  0  0
   -0.9276    0.6987    2.8903 C   0  0  0  0  0  0  0  0  0  0  0  0
    1.5199   -1.0595    1.1430 H   0  0  0  0  0  0  0  0  0  0  0  0
    1.3511    0.6937    1.2720 H   0  0  0  0  0  0  0  0  0  0  0  0
   -3.4142   -0.1093   -3.7119 H   0  0  0  0  0  0  0  0  0  0  0  0
   -1.3321    0.1801   -5.1084 H   0  0  0  0  0  0  0  0  0  0  0  0
    3.7847    0.4552   -2.0306 H   0  0  0  0  0  0  0  0  0  0  0  0
    3.4919    0.5743   -3.7078 H   0  0  0  0  0  0  0  0  0  0  0  0
   -0.4523   -1.3751    2.6104 H   0  0  0  0  0  0  0  0  0  0  0  0
    1.8181   -1.2999    3.5697 H   0  0  0  0  0  0  0  0  0  0  0  0
    1.7193    0.4442    3.7317 H   0  0  0  0  0  0  0  0  0  0  0  0
   -0.0374   -1.5997    5.1664 H   0  0  0  0  0  0  0  0  0  0  0  0
    1.2324   -0.6344    5.8942 H   0  0  0  0  0  0  0  0  0  0  0  0
   -1.0313    0.3399    6.3402 H   0  0  0  0  0  0  0  0  0  0  0  0
   -0.0209    1.4429    5.4240 H   0  0  0  0  0  0  0  0  0  0  0  0
   -2.1809   -0.3789    4.2683 H   0  0  0  0  0  0  0  0  0  0  0  0
   -2.2839    1.3623    4.4300 H   0  0  0  0  0  0  0  0  0  0  0  0
   -0.4113    1.6658    2.8469 H   0  0  0  0  0  0  0  0  0  0  0  0
   -1.6938    0.7179    2.1126 H   0  0  0  0  0  0  0  0  0  0  0  0
  1  2  2  0
  1  6  1  0
  2  3  1  0
  2 12  1  0
  3  4  2  0
  4  5  1  0
  4 11  1  0
  5  6  2  0
  5  9  1  0
  6  7  1  0
  7  8  1  0
  8 13  1  0
  8 19  1  0
  8 20  1  0
  9 10  2  0
 10 11  1  0
 10 21  1  0
 11 22  1  0
 12 23  1  0
 12 24  1  0
 13 14  1  0
 13 18  1  0
 13 25  1  6
 14 15  1  0
 14 26  1  0
 14 27  1  0
 15 16  1  0
 15 28  1  0
 15 29  1  0
 16 17  1  0
 16 30  1  0
 16 31  1  0
 17 18  1  0
 17 32  1  0
 17 33  1  0
 18 34  1  0
 18 35  1  0
M  END
