
     RDKit          3D

148149  0  0  0  0  0  0  0  0999 V2000
    0.0656   -1.4680   -1.1109 C   0  0  0  0  0  0  0  0  0  0  0  0
    0.3432   -1.2493   -2.2703 O   0  0  0  0  0  0  0  0  0  0  0  0
   -4.4290    0.6887    1.0270 C   0  0  0  0  0  0  0  0  0  0  0  0
   -4.7151    1.8539    0.9334 O   0  0  0  0  0  0  0  0  0  0  0  0
    0.3552    1.2935    2.0042 C   0  0  2  0  0  0  0  0  0  0  0  0
    3.9527    2.1959   -1.9972 C   0  0  2  0  0  0  0  0  0  0  0  0
   -1.6959    0.0955   -1.2132 C   0  0  0  0  0  0  0  0  0  0  0  0
   -0.9621   -0.9001   -0.5063 O   0  0  0  0  0  0  0  0  0  0  0  0
    0.8204   -2.3928   -0.2015 C   0  0  0  0  0  0  0  0  0  0  0  0
   -5.2700   -0.3545    1.7209 C   0  0  0  0  0  0  0  0  0  0  0  0
    0.7097    0.5119    3.2673 C   0  0  2  0  0  0  0  0  0  0  0  0
   -0.0760    0.9139    4.3633 O   0  0  0  0  0  0  0  0  0  0  0  0
    3.6966    3.5601   -2.6472 C   0  0  2  0  0  0  0  0  0  0  0  0
    3.7372    4.6127   -1.7153 O   0  0  0  0  0  0  0  0  0  0  0  0
   -2.4340    0.9834   -0.2373 C   0  0  1  0  0  0  0  0  0  0  0  0
   -3.3300    0.1508    0.5054 O   0  0  0  0  0  0  0  0  0  0  0  0
    2.0457   -3.0122   -0.8534 C   0  0  0  0  0  0  0  0  0  0  0  0
   -6.3399    0.2550    2.5680 C   0  0  0  0  0  0  0  0  0  0  0  0
    2.1652    0.7789    3.6298 C   0  0  1  0  0  0  0  0  0  0  0  0
    2.5971   -0.0141    4.7077 O   0  0  0  0  0  0  0  0  0  0  0  0
    2.3289    3.5685   -3.3169 C   0  0  1  0  0  0  0  0  0  0  0  0
    2.0980    4.7650   -4.0228 O   0  0  0  0  0  0  0  0  0  0  0  0
   -1.5368    1.7946    0.6835 C   0  0  0  0  0  0  0  0  0  0  0  0
   -0.9285    0.9529    1.6393 O   0  0  0  0  0  0  0  0  0  0  0  0
    2.8203   -3.9016    0.1177 C   0  0  0  0  0  0  0  0  0  0  0  0
   -7.6484    0.2411    2.3288 C   0  0  0  0  0  0  0  0  0  0  0  0
    3.0801    0.4906    2.4415 C   0  0  1  0  0  0  0  0  0  0  0  0
    3.1183   -0.8783    2.1284 O   0  0  0  0  0  0  0  0  0  0  0  0
    2.2432    2.4147   -4.3121 C   0  0  1  0  0  0  0  0  0  0  0  0
    3.1370    2.5870   -5.3852 O   0  0  0  0  0  0  0  0  0  0  0  0
    4.0254   -4.5049   -0.5362 C   0  0  0  0  0  0  0  0  0  0  0  0
   -8.3629   -0.3728    1.1609 C   0  0  0  0  0  0  0  0  0  0  0  0
    2.5689    1.2685    1.2358 C   0  0  1  0  0  0  0  0  0  0  0  0
    2.5678    1.1126   -3.5918 C   0  0  1  0  0  0  0  0  0  0  0  0
    5.2730   -4.0428   -0.4847 C   0  0  0  0  0  0  0  0  0  0  0  0
   -9.2875   -1.4655    1.6149 C   0  0  0  0  0  0  0  0  0  0  0  0
    3.3837    1.0280   -0.0171 C   0  0  0  0  0  0  0  0  0  0  0  0
    1.2235    0.9480    0.9577 O   0  0  0  0  0  0  0  0  0  0  0  0
    2.5798   -0.0772   -4.5399 C   0  0  0  0  0  0  0  0  0  0  0  0
    3.8296    1.1736   -2.9452 O   0  0  0  0  0  0  0  0  0  0  0  0
    5.7641   -2.8406    0.2710 C   0  0  0  0  0  0  0  0  0  0  0  0
  -10.6187   -1.4590    1.5869 C   0  0  0  0  0  0  0  0  0  0  0  0
    6.6941   -3.2621    1.3726 C   0  0  0  0  0  0  0  0  0  0  0  0
  -11.5149   -0.3725    1.0656 C   0  0  0  0  0  0  0  0  0  0  0  0
    8.0240   -3.1916    1.3781 C   0  0  0  0  0  0  0  0  0  0  0  0
  -12.1529   -0.7911   -0.2281 C   0  0  0  0  0  0  0  0  0  0  0  0
    8.9100   -2.6357    0.3012 C   0  0  0  0  0  0  0  0  0  0  0  0
  -13.4452   -1.0163   -0.4574 C   0  0  0  0  0  0  0  0  0  0  0  0
    9.7236   -1.4830    0.8131 C   0  0  0  0  0  0  0  0  0  0  0  0
  -14.5836   -0.8698    0.5116 C   0  0  0  0  0  0  0  0  0  0  0  0
   11.0479   -1.4191    0.9377 C   0  0  0  0  0  0  0  0  0  0  0  0
  -15.4229    0.3226    0.1503 C   0  0  0  0  0  0  0  0  0  0  0  0
   12.0533   -2.4708    0.5647 C   0  0  0  0  0  0  0  0  0  0  0  0
  -16.6458    0.3204   -0.3768 C   0  0  0  0  0  0  0  0  0  0  0  0
   12.7905   -2.0676   -0.6807 C   0  0  0  0  0  0  0  0  0  0  0  0
  -17.4987   -0.8731   -0.6985 C   0  0  0  0  0  0  0  0  0  0  0  0
   14.0672   -1.7030   -0.7825 C   0  0  0  0  0  0  0  0  0  0  0  0
  -18.6753   -0.9427    0.2331 C   0  0  0  0  0  0  0  0  0  0  0  0
   15.0911   -1.6476    0.3149 C   0  0  0  0  0  0  0  0  0  0  0  0
  -19.9577   -0.7429   -0.0669 C   0  0  0  0  0  0  0  0  0  0  0  0
   16.1029   -2.7441    0.1375 C   0  0  0  0  0  0  0  0  0  0  0  0
  -20.5526   -0.4409   -1.4068 C   0  0  0  0  0  0  0  0  0  0  0  0
   17.3695   -2.6180   -0.2552 C   0  0  0  0  0  0  0  0  0  0  0  0
  -21.5478   -1.5160   -1.8401 C   0  0  0  0  0  0  0  0  0  0  0  0
   18.1083   -1.3559   -0.5742 C   0  0  0  0  0  0  0  0  0  0  0  0
   19.2849   -1.1318    0.3746 C   0  0  0  0  0  0  0  0  0  0  0  0
    0.4400    2.3792    2.2089 H   0  0  0  0  0  0  0  0  0  0  0  0
    4.9937    2.1357   -1.6468 H   0  0  0  0  0  0  0  0  0  0  0  0
   -1.0316    0.7253   -1.8076 H   0  0  0  0  0  0  0  0  0  0  0  0
   -2.4022   -0.3827   -1.8966 H   0  0  0  0  0  0  0  0  0  0  0  0
    1.1122   -1.8237    0.6854 H   0  0  0  0  0  0  0  0  0  0  0  0
    0.1327   -3.1696    0.1483 H   0  0  0  0  0  0  0  0  0  0  0  0
   -5.6822   -1.0093    0.9484 H   0  0  0  0  0  0  0  0  0  0  0  0
   -4.6141   -0.9866    2.3255 H   0  0  0  0  0  0  0  0  0  0  0  0
    0.5819   -0.5589    3.0544 H   0  0  0  0  0  0  0  0  0  0  0  0
   -0.9724    0.5881    4.2357 H   0  0  0  0  0  0  0  0  0  0  0  0
    4.4618    3.6926   -3.4221 H   0  0  0  0  0  0  0  0  0  0  0  0
    4.6537    4.8669   -1.5734 H   0  0  0  0  0  0  0  0  0  0  0  0
   -2.9954    1.6964   -0.8500 H   0  0  0  0  0  0  0  0  0  0  0  0
    1.7535   -3.5944   -1.7315 H   0  0  0  0  0  0  0  0  0  0  0  0
    2.7138   -2.2248   -1.2111 H   0  0  0  0  0  0  0  0  0  0  0  0
   -5.9952    0.7510    3.4693 H   0  0  0  0  0  0  0  0  0  0  0  0
    2.2650    1.8501    3.8672 H   0  0  0  0  0  0  0  0  0  0  0  0
    1.9716    0.0875    5.4332 H   0  0  0  0  0  0  0  0  0  0  0  0
    1.5544    3.4113   -2.5523 H   0  0  0  0  0  0  0  0  0  0  0  0
    2.3155    5.5036   -3.4436 H   0  0  0  0  0  0  0  0  0  0  0  0
   -0.8009    2.3076    0.0559 H   0  0  0  0  0  0  0  0  0  0  0  0
   -2.1237    2.5672    1.1897 H   0  0  0  0  0  0  0  0  0  0  0  0
    3.0973   -3.3153    0.9950 H   0  0  0  0  0  0  0  0  0  0  0  0
    2.1676   -4.7037    0.4755 H   0  0  0  0  0  0  0  0  0  0  0  0
   -8.2968    0.7202    3.0568 H   0  0  0  0  0  0  0  0  0  0  0  0
    4.0849    0.8702    2.6796 H   0  0  0  0  0  0  0  0  0  0  0  0
    3.3144   -1.3660    2.9355 H   0  0  0  0  0  0  0  0  0  0  0  0
    1.2054    2.3453   -4.6736 H   0  0  0  0  0  0  0  0  0  0  0  0
    3.0082    3.4750   -5.7357 H   0  0  0  0  0  0  0  0  0  0  0  0
    3.8394   -5.3843   -1.1464 H   0  0  0  0  0  0  0  0  0  0  0  0
   -8.9166    0.4086    0.6358 H   0  0  0  0  0  0  0  0  0  0  0  0
   -7.6550   -0.7838    0.4376 H   0  0  0  0  0  0  0  0  0  0  0  0
    2.6630    2.3364    1.4933 H   0  0  0  0  0  0  0  0  0  0  0  0
    1.7714    0.9568   -2.8515 H   0  0  0  0  0  0  0  0  0  0  0  0
    1.9627   -1.4301   -3.3008 H   0  0  0  0  0  0  0  0  0  0  0  0
    6.0404   -4.5820   -1.0331 H   0  0  0  0  0  0  0  0  0  0  0  0
   -8.7937   -2.3431    2.0218 H   0  0  0  0  0  0  0  0  0  0  0  0
    4.4516    1.0522    0.2376 H   0  0  0  0  0  0  0  0  0  0  0  0
    3.1635    0.0382   -0.4305 H   0  0  0  0  0  0  0  0  0  0  0  0
    1.6584   -0.0365   -5.1374 H   0  0  0  0  0  0  0  0  0  0  0  0
    3.4142    0.0161   -5.2370 H   0  0  0  0  0  0  0  0  0  0  0  0
    6.2691   -2.1675   -0.4263 H   0  0  0  0  0  0  0  0  0  0  0  0
    4.9305   -2.2778    0.6955 H   0  0  0  0  0  0  0  0  0  0  0  0
  -11.1363   -2.3407    1.9532 H   0  0  0  0  0  0  0  0  0  0  0  0
    6.2087   -3.7077    2.2360 H   0  0  0  0  0  0  0  0  0  0  0  0
  -12.2752   -0.1462    1.8164 H   0  0  0  0  0  0  0  0  0  0  0  0
  -10.9544    0.5512    0.9048 H   0  0  0  0  0  0  0  0  0  0  0  0
    8.5480   -3.5665    2.2528 H   0  0  0  0  0  0  0  0  0  0  0  0
  -11.4594   -0.9361   -1.0515 H   0  0  0  0  0  0  0  0  0  0  0  0
    9.5589   -3.4303   -0.0751 H   0  0  0  0  0  0  0  0  0  0  0  0
    8.3157   -2.2998   -0.5519 H   0  0  0  0  0  0  0  0  0  0  0  0
  -13.7375   -1.3119   -1.4608 H   0  0  0  0  0  0  0  0  0  0  0  0
    9.1455   -0.6170    1.1230 H   0  0  0  0  0  0  0  0  0  0  0  0
  -15.1823   -1.7832    0.5030 H   0  0  0  0  0  0  0  0  0  0  0  0
  -14.2126   -0.7521    1.5320 H   0  0  0  0  0  0  0  0  0  0  0  0
   11.4753   -0.4970    1.3207 H   0  0  0  0  0  0  0  0  0  0  0  0
  -14.9473    1.2840    0.3221 H   0  0  0  0  0  0  0  0  0  0  0  0
   12.7474   -2.6149    1.3957 H   0  0  0  0  0  0  0  0  0  0  0  0
   11.5662   -3.4339    0.3965 H   0  0  0  0  0  0  0  0  0  0  0  0
  -17.1082    1.2810   -0.5851 H   0  0  0  0  0  0  0  0  0  0  0  0
   12.1866   -2.0573   -1.5836 H   0  0  0  0  0  0  0  0  0  0  0  0
  -17.8310   -0.8047   -1.7365 H   0  0  0  0  0  0  0  0  0  0  0  0
  -16.9192   -1.7957   -0.6193 H   0  0  0  0  0  0  0  0  0  0  0  0
   14.4407   -1.4382   -1.7675 H   0  0  0  0  0  0  0  0  0  0  0  0
  -18.4229   -1.1560    1.2680 H   0  0  0  0  0  0  0  0  0  0  0  0
   15.5748   -0.6682    0.3044 H   0  0  0  0  0  0  0  0  0  0  0  0
   14.6171   -1.7480    1.2938 H   0  0  0  0  0  0  0  0  0  0  0  0
  -20.6779   -0.8211    0.7440 H   0  0  0  0  0  0  0  0  0  0  0  0
   15.7270   -3.7452    0.3285 H   0  0  0  0  0  0  0  0  0  0  0  0
  -21.0726    0.5209   -1.3544 H   0  0  0  0  0  0  0  0  0  0  0  0
  -19.7787   -0.3285   -2.1680 H   0  0  0  0  0  0  0  0  0  0  0  0
   17.9581   -3.5282   -0.3443 H   0  0  0  0  0  0  0  0  0  0  0  0
  -21.0564   -2.4834   -1.9493 H   0  0  0  0  0  0  0  0  0  0  0  0
  -22.3482   -1.6318   -1.1074 H   0  0  0  0  0  0  0  0  0  0  0  0
  -22.0077   -1.2633   -2.7959 H   0  0  0  0  0  0  0  0  0  0  0  0
   18.4880   -1.4173   -1.5990 H   0  0  0  0  0  0  0  0  0  0  0  0
   17.4431   -0.4913   -0.5478 H   0  0  0  0  0  0  0  0  0  0  0  0
   18.9409   -1.0156    1.4029 H   0  0  0  0  0  0  0  0  0  0  0  0
   19.9772   -1.9745    0.3493 H   0  0  0  0  0  0  0  0  0  0  0  0
   19.8425   -0.2349    0.1033 H   0  0  0  0  0  0  0  0  0  0  0  0
    3.0743    2.0554   -0.9322 O   0  0  0  0  0  0  0  0  0  0  0  0
    2.7253   -1.3099   -3.8850 O   0  0  0  0  0  0  0  0  0  0  0  0
  1  2  2  0
  1  8  1  0
  1  9  1  0
  3  4  2  0
  3 10  1  0
  3 16  1  0
  5 11  1  0
  5 24  1  0
  5 38  1  0
  6 13  1  0
  6147  1  0
  6 40  1  0
  7  8  1  0
  7 15  1  0
  9 17  1  0
 10 18  1  0
 11 12  1  0
 11 19  1  0
 13 14  1  0
 13 21  1  0
 15 16  1  0
 15 23  1  0
 17 25  1  0
 18 26  2  0
 19 20  1  0
 19 27  1  0
 21 22  1  0
 21 29  1  0
 23 24  1  0
 25 31  1  0
 26 32  1  0
 27 28  1  0
 27 33  1  0
 29 30  1  0
 29 34  1  0
 31 35  2  0
 32 36  1  0
 33 37  1  0
 33 38  1  0
147 37  1  0
 34 39  1  0
 34 40  1  0
148 39  1  0
 35 41  1  0
 36 42  2  0
 41 43  1  0
 42 44  1  0
 43 45  2  0
 44 46  1  0
 45 47  1  0
 46 48  2  0
 47 49  1  0
 48 50  1  0
 49 51  2  0
 50 52  1  0
 51 53  1  0
 52 54  2  0
 53 55  1  0
 54 56  1  0
 55 57  2  0
 56 58  1  0
 57 59  1  0
 58 60  2  0
 59 61  1  0
 60 62  1  0
 61 63  2  0
 62 64  1  0
 63 65  1  0
 65 66  1  0
  5 67  1  1
  6 68  1  1
  7 69  1  0
  7 70  1  0
  9 71  1  0
  9 72  1  0
 10 73  1  0
 10 74  1  0
 11 75  1  6
 12 76  1  0
 13 77  1  6
 14 78  1  0
 15 79  1  6
 17 80  1  0
 17 81  1  0
 18 82  1  0
 19 83  1  1
 20 84  1  0
 21 85  1  1
 22 86  1  0
 23 87  1  0
 23 88  1  0
 25 89  1  0
 25 90  1  0
 26 91  1  0
 27 92  1  1
 28 93  1  0
 29 94  1  6
 30 95  1  0
 31 96  1  0
 32 97  1  0
 32 98  1  0
 33 99  1  1
 34100  1  1
148101  1  0
 35102  1  0
 36103  1  0
 37104  1  0
 37105  1  0
 39106  1  0
 39107  1  0
 41108  1  0
 41109  1  0
 42110  1  0
 43111  1  0
 44112  1  0
 44113  1  0
 45114  1  0
 46115  1  0
 47116  1  0
 47117  1  0
 48118  1  0
 49119  1  0
 50120  1  0
 50121  1  0
 51122  1  0
 52123  1  0
 53124  1  0
 53125  1  0
 54126  1  0
 55127  1  0
 56128  1  0
 56129  1  0
 57130  1  0
 58131  1  0
 59132  1  0
 59133  1  0
 60134  1  0
 61135  1  0
 62136  1  0
 62137  1  0
 63138  1  0
 64139  1  0
 64140  1  0
 64141  1  0
 65142  1  0
 65143  1  0
 66144  1  0
 66145  1  0
 66146  1  0
M  END
