
     RDKit          3D

117122  0  0  0  0  0  0  0  0999 V2000
    3.6985   -2.4088    2.4311 C   0  0  0  0  0  0  0  0  0  0  0  0
    3.3123    3.9467   -1.8129 C   0  0  0  0  0  0  0  0  0  0  0  0
    5.7408   -5.8121   -0.1088 C   0  0  0  0  0  0  0  0  0  0  0  0
    3.4985   -5.4521   -1.2212 C   0  0  0  0  0  0  0  0  0  0  0  0
    6.9266    4.7817    0.8970 C   0  0  0  0  0  0  0  0  0  0  0  0
    6.4775    2.3983    1.5521 C   0  0  0  0  0  0  0  0  0  0  0  0
  -13.6203    1.1066    0.0052 N   0  0  0  0  0  0  0  0  0  0  0  0
   -4.2934    2.5676   -0.0361 O   0  0  0  0  0  0  0  0  0  0  0  0
  -12.8405   -1.2385    0.2208 O   0  0  0  0  0  0  0  0  0  0  0  0
  -12.8593   -0.2491   -2.0728 O   0  0  0  0  0  0  0  0  0  0  0  0
    5.4003   -2.7042   -1.5453 C   0  0  0  0  0  0  0  0  0  0  0  0
    5.7727    2.1561   -2.7811 C   0  0  0  0  0  0  0  0  0  0  0  0
    4.7899   -2.6726   -0.2389 C   0  0  0  0  0  0  0  0  0  0  0  0
    6.1660    2.7655   -1.4616 C   0  0  0  0  0  0  0  0  0  0  0  0
    2.3991   -6.5178    3.6074 C   0  0  0  0  0  0  0  0  0  0  0  0
    2.0520    4.7700    2.3321 C   0  0  0  0  0  0  0  0  0  0  0  0
    2.6704   -7.5045    2.6699 C   0  0  0  0  0  0  0  0  0  0  0  0
    3.0780    4.7823    3.2664 C   0  0  0  0  0  0  0  0  0  0  0  0
    2.7436   -5.1862    3.3825 C   0  0  0  0  0  0  0  0  0  0  0  0
   -9.2935    1.2226    1.1069 C   0  0  0  0  0  0  0  0  0  0  0  0
   -9.0307    1.5373   -1.2551 C   0  0  0  0  0  0  0  0  0  0  0  0
    2.2841    4.4157    1.0036 C   0  0  0  0  0  0  0  0  0  0  0  0
  -10.5604    0.7050    0.9082 C   0  0  0  0  0  0  0  0  0  0  0  0
  -10.2991    1.0203   -1.4743 C   0  0  0  0  0  0  0  0  0  0  0  0
    3.3025   -7.1684    1.4701 C   0  0  0  0  0  0  0  0  0  0  0  0
    4.3748    4.4305    2.8819 C   0  0  0  0  0  0  0  0  0  0  0  0
   -0.1329    0.6299    0.4735 C   0  0  0  0  0  0  0  0  0  0  0  0
    0.7504    0.1110   -0.6540 C   0  0  0  0  0  0  0  0  0  0  0  0
   -1.6161    0.3931    0.2245 C   0  0  0  0  0  0  0  0  0  0  0  0
    2.2305    0.3468   -0.3931 C   0  0  0  0  0  0  0  0  0  0  0  0
    7.7077   -1.0963   -3.7459 C   0  0  0  0  0  0  0  0  0  0  0  0
   -2.4792    0.9266    1.3622 C   0  0  0  0  0  0  0  0  0  0  0  0
    3.1241   -0.1563   -1.5139 C   0  0  0  0  0  0  0  0  0  0  0  0
    6.4736   -1.9845   -3.6473 C   0  0  0  0  0  0  0  0  0  0  0  0
    7.2921    0.3668   -3.7794 C   0  0  0  0  0  0  0  0  0  0  0  0
   -6.1069    1.0234    0.2632 C   0  0  0  0  0  0  0  0  0  0  0  0
   -7.1217    2.1656    0.2569 C   0  0  0  0  0  0  0  0  0  0  0  0
   -3.8946    0.7007    1.1666 N   0  0  0  0  0  0  0  0  0  0  0  0
    4.5171    0.1084   -1.1981 N   0  0  0  0  0  0  0  0  0  0  0  0
   -4.6846    1.5132    0.4480 C   0  0  0  0  0  0  0  0  0  0  0  0
    5.7386   -1.6828   -2.3680 C   0  0  0  0  0  0  0  0  0  0  0  0
    6.1470    0.6900   -2.8643 C   0  0  0  0  0  0  0  0  0  0  0  0
    4.3602   -3.7525    0.4537 C   0  0  0  0  0  0  0  0  0  0  0  0
    5.4832   -0.2523   -2.1545 C   0  0  0  0  0  0  0  0  0  0  0  0
    5.4040    3.3487   -0.5262 C   0  0  0  0  0  0  0  0  0  0  0  0
   -8.5117    1.6457    0.0315 C   0  0  0  0  0  0  0  0  0  0  0  0
  -11.0548    0.6092   -0.3875 C   0  0  0  0  0  0  0  0  0  0  0  0
    3.3738   -4.8731    2.1860 C   0  0  0  0  0  0  0  0  0  0  0  0
    3.5804    4.0785    0.6406 C   0  0  0  0  0  0  0  0  0  0  0  0
    3.6478   -5.8559    1.2365 C   0  0  0  0  0  0  0  0  0  0  0  0
    4.6157    4.0753    1.5734 C   0  0  0  0  0  0  0  0  0  0  0  0
    4.0575    3.7076   -0.6035 N   0  0  0  0  0  0  0  0  0  0  0  0
    4.3312   -5.2260    0.0453 C   0  0  2  0  0  0  0  0  0  0  0  0
    5.8939    3.6507    0.8952 C   0  0  2  0  0  0  0  0  0  0  0  0
  -12.6635   -0.0766   -0.6389 S   0  0  1  0  0  0  0  0  0  0  0  0
    3.8177   -3.6509    1.7230 N   0  0  0  0  0  0  0  0  0  0  0  0
    3.3388   -2.5852    3.4406 H   0  0  0  0  0  0  0  0  0  0  0  0
    4.6667   -1.9098    2.5039 H   0  0  0  0  0  0  0  0  0  0  0  0
    3.0008   -1.7277    1.9359 H   0  0  0  0  0  0  0  0  0  0  0  0
    2.7768    3.0646   -2.1729 H   0  0  0  0  0  0  0  0  0  0  0  0
    2.5785    4.7329   -1.6391 H   0  0  0  0  0  0  0  0  0  0  0  0
    3.9791    4.2929   -2.6012 H   0  0  0  0  0  0  0  0  0  0  0  0
    5.6777   -6.8864   -0.2901 H   0  0  0  0  0  0  0  0  0  0  0  0
    6.2810   -5.3720   -0.9469 H   0  0  0  0  0  0  0  0  0  0  0  0
    6.3342   -5.6574    0.7927 H   0  0  0  0  0  0  0  0  0  0  0  0
    3.4104   -6.5204   -1.4262 H   0  0  0  0  0  0  0  0  0  0  0  0
    2.4929   -5.0474   -1.1055 H   0  0  0  0  0  0  0  0  0  0  0  0
    3.9522   -4.9828   -2.0927 H   0  0  0  0  0  0  0  0  0  0  0  0
    7.8329    4.4735    0.3728 H   0  0  0  0  0  0  0  0  0  0  0  0
    6.5394    5.6767    0.4091 H   0  0  0  0  0  0  0  0  0  0  0  0
    7.2053    5.0466    1.9186 H   0  0  0  0  0  0  0  0  0  0  0  0
    6.7515    2.5985    2.5893 H   0  0  0  0  0  0  0  0  0  0  0  0
    5.7619    1.5752    1.5419 H   0  0  0  0  0  0  0  0  0  0  0  0
    7.3752    2.0690    1.0278 H   0  0  0  0  0  0  0  0  0  0  0  0
  -14.5522    0.7584    0.2108 H   0  0  0  0  0  0  0  0  0  0  0  0
  -13.6771    1.9304   -0.5849 H   0  0  0  0  0  0  0  0  0  0  0  0
    5.6565   -3.6864   -1.9261 H   0  0  0  0  0  0  0  0  0  0  0  0
    4.7039    2.2595   -2.9680 H   0  0  0  0  0  0  0  0  0  0  0  0
    6.2679    2.6836   -3.6025 H   0  0  0  0  0  0  0  0  0  0  0  0
    4.6717   -1.6959    0.2107 H   0  0  0  0  0  0  0  0  0  0  0  0
    7.2039    2.6069   -1.1864 H   0  0  0  0  0  0  0  0  0  0  0  0
    1.9062   -6.7815    4.5345 H   0  0  0  0  0  0  0  0  0  0  0  0
    1.0470    5.0327    2.6368 H   0  0  0  0  0  0  0  0  0  0  0  0
    2.3921   -8.5311    2.8671 H   0  0  0  0  0  0  0  0  0  0  0  0
    2.8725    5.0568    4.2925 H   0  0  0  0  0  0  0  0  0  0  0  0
    2.5166   -4.4345    4.1267 H   0  0  0  0  0  0  0  0  0  0  0  0
   -8.9066    1.3039    2.1152 H   0  0  0  0  0  0  0  0  0  0  0  0
   -8.4410    1.8630   -2.1032 H   0  0  0  0  0  0  0  0  0  0  0  0
    1.4682    4.3956    0.2932 H   0  0  0  0  0  0  0  0  0  0  0  0
  -11.1527    0.3876    1.7563 H   0  0  0  0  0  0  0  0  0  0  0  0
  -10.6831    0.9441   -2.4821 H   0  0  0  0  0  0  0  0  0  0  0  0
    3.5127   -7.9350    0.7330 H   0  0  0  0  0  0  0  0  0  0  0  0
    5.1780    4.4358    3.6094 H   0  0  0  0  0  0  0  0  0  0  0  0
    0.1621    0.1500    1.4133 H   0  0  0  0  0  0  0  0  0  0  0  0
    0.0484    1.7019    0.6127 H   0  0  0  0  0  0  0  0  0  0  0  0
    0.5711   -0.9601   -0.7963 H   0  0  0  0  0  0  0  0  0  0  0  0
    0.4608    0.5962   -1.5923 H   0  0  0  0  0  0  0  0  0  0  0  0
   -1.9155    0.8743   -0.7112 H   0  0  0  0  0  0  0  0  0  0  0  0
   -1.8016   -0.6781    0.0993 H   0  0  0  0  0  0  0  0  0  0  0  0
    2.4042    1.4189   -0.2404 H   0  0  0  0  0  0  0  0  0  0  0  0
    2.5246   -0.1417    0.5414 H   0  0  0  0  0  0  0  0  0  0  0  0
    8.3505   -1.2827   -2.8807 H   0  0  0  0  0  0  0  0  0  0  0  0
    8.2943   -1.3411   -4.6339 H   0  0  0  0  0  0  0  0  0  0  0  0
   -2.1963    0.4457    2.3001 H   0  0  0  0  0  0  0  0  0  0  0  0
   -2.3065    1.9961    1.4927 H   0  0  0  0  0  0  0  0  0  0  0  0
    2.9847   -1.2333   -1.6396 H   0  0  0  0  0  0  0  0  0  0  0  0
    2.8214    0.3154   -2.4618 H   0  0  0  0  0  0  0  0  0  0  0  0
    5.8258   -1.7931   -4.5117 H   0  0  0  0  0  0  0  0  0  0  0  0
    6.7529   -3.0389   -3.6899 H   0  0  0  0  0  0  0  0  0  0  0  0
    8.1466    1.0098   -3.5372 H   0  0  0  0  0  0  0  0  0  0  0  0
    7.0051    0.6487   -4.8009 H   0  0  0  0  0  0  0  0  0  0  0  0
   -6.3646    0.2921    1.0328 H   0  0  0  0  0  0  0  0  0  0  0  0
   -6.1490    0.4898   -0.6920 H   0  0  0  0  0  0  0  0  0  0  0  0
   -7.0785    2.6997    1.2088 H   0  0  0  0  0  0  0  0  0  0  0  0
   -6.8647    2.8813   -0.5244 H   0  0  0  0  0  0  0  0  0  0  0  0
   -4.2788   -0.1666    1.5033 H   0  0  0  0  0  0  0  0  0  0  0  0
    4.6379    1.0650   -0.9019 H   0  0  0  0  0  0  0  0  0  0  0  0
 56  1  1  0
  1 57  1  0
  1 58  1  0
  1 59  1  0
  2 52  1  0
  2 60  1  0
  2 61  1  0
  2 62  1  0
 53  3  1  6
  3 63  1  0
  3 64  1  0
  3 65  1  0
 53  4  1  0
  4 66  1  0
  4 67  1  0
  4 68  1  0
 54  5  1  6
  5 69  1  0
  5 70  1  0
  5 71  1  0
  6 54  1  0
  6 72  1  0
  6 73  1  0
  6 74  1  0
 55  7  1  1
  7 75  1  0
  7 76  1  0
  8 40  2  0
 55  9  2  0
 10 55  2  0
 13 11  1  0
 11 41  2  0
 11 77  1  0
 42 12  1  0
 12 14  1  0
 12 78  1  0
 12 79  1  0
 43 13  2  0
 13 80  1  0
 14 45  2  0
 14 81  1  0
 17 15  2  0
 15 19  1  0
 15 82  1  0
 22 16  2  0
 18 16  1  0
 16 83  1  0
 17 25  1  0
 17 84  1  0
 26 18  2  0
 18 85  1  0
 19 48  2  0
 19 86  1  0
 20 46  2  0
 20 23  1  0
 20 87  1  0
 46 21  1  0
 21 24  2  0
 21 88  1  0
 49 22  1  0
 22 89  1  0
 23 47  2  0
 23 90  1  0
 47 24  1  0
 24 91  1  0
 25 50  2  0
 25 92  1  0
 51 26  1  0
 26 93  1  0
 29 27  1  0
 27 28  1  0
 27 94  1  0
 27 95  1  0
 28 30  1  0
 28 96  1  0
 28 97  1  0
 29 32  1  0
 29 98  1  0
 29 99  1  0
 33 30  1  0
 30100  1  0
 30101  1  0
 34 31  1  0
 31 35  1  0
 31102  1  0
 31103  1  0
 38 32  1  0
 32104  1  0
 32105  1  0
 33 39  1  0
 33106  1  0
 33107  1  0
 34 41  1  0
 34108  1  0
 34109  1  0
 35 42  1  0
 35110  1  0
 35111  1  0
 37 36  1  0
 36 40  1  0
 36112  1  0
 36113  1  0
 37 46  1  0
 37114  1  0
 37115  1  0
 40 38  1  0
 38116  1  0
 44 39  1  0
 39117  1  0
 41 44  1  0
 44 42  2  0
 53 43  1  0
 56 43  1  0
 45 54  1  0
 45 52  1  0
 47 55  1  0
 50 48  1  0
 48 56  1  0
 52 49  1  0
 51 49  2  0
 50 53  1  0
 54 51  1  0
M  END
