
     RDKit          3D

 21 22  0  0  0  0  0  0  0  0999 V2000
   -1.3655   -0.9218    0.0156 C   0  0  0  0  0  0  0  0  0  0  0  0
   -2.7250   -1.2926   -0.0018 C   0  0  0  0  0  0  0  0  0  0  0  0
   -3.7070   -0.3361    0.0147 C   0  0  0  0  0  0  0  0  0  0  0  0
   -3.3754    1.0305    0.0491 C   0  0  0  0  0  0  0  0  0  0  0  0
   -2.0620    1.4215    0.0663 C   0  0  0  0  0  0  0  0  0  0  0  0
   -1.0375    0.4529    0.0499 C   0  0  0  0  0  0  0  0  0  0  0  0
    0.3427    0.8020    0.0668 C   0  0  0  0  0  0  0  0  0  0  0  0
    0.8237   -1.5589    0.0140 C   0  0  0  0  0  0  0  0  0  0  0  0
   -0.4272   -1.9086   -0.0018 N   0  0  0  0  0  0  0  0  0  0  0  0
    1.2866   -0.2212    0.0487 C   0  0  0  0  0  0  0  0  0  0  0  0
    3.5229   -0.9063    0.0425 O   0  0  0  0  0  0  0  0  0  0  0  0
    3.1033    1.2813    0.0954 O   0  0  0  0  0  0  0  0  0  0  0  0
    0.6553    2.0780    0.0981 O   0  0  0  0  0  0  0  0  0  0  0  0
   -2.9702   -2.3464   -0.0288 H   0  0  0  0  0  0  0  0  0  0  0  0
   -4.7479   -0.6320    0.0008 H   0  0  0  0  0  0  0  0  0  0  0  0
   -4.1608    1.7738    0.0617 H   0  0  0  0  0  0  0  0  0  0  0  0
   -1.8141    2.4738    0.0926 H   0  0  0  0  0  0  0  0  0  0  0  0
    1.5479   -2.3656   -0.0006 H   0  0  0  0  0  0  0  0  0  0  0  0
    4.4460   -0.6100    0.0521 H   0  0  0  0  0  0  0  0  0  0  0  0
    1.6396    2.1526    0.1062 H   0  0  0  0  0  0  0  0  0  0  0  0
    2.7065    0.1251    0.0648 C   0  0  0  0  0  0  0  0  0  0  0  0
 12 21  2  0
 11 21  1  0
 21 10  1  0
 10  8  1  0
 10  7  2  0
  8  9  2  0
 13  7  1  0
  7  6  1  0
  9  1  1  0
  6  1  1  0
  6  5  2  0
  1  2  2  0
  5  4  1  0
  2  3  1  0
  4  3  2  0
  2 14  1  0
  3 15  1  0
  4 16  1  0
  5 17  1  0
  8 18  1  0
 11 19  1  0
 13 20  1  0
M  END
