
     RDKit          3D

 24 25  0  0  0  0  0  0  0  0999 V2000
   -0.9778   -1.2907    0.0145 N   0  0  0  0  0  0  0  0  0  0  0  0
   -2.3129   -1.1541    0.0073 C   0  0  0  0  0  0  0  0  0  0  0  0
   -2.9679    0.0069    0.0184 N   0  0  0  0  0  0  0  0  0  0  0  0
   -2.1950    1.0861    0.0382 C   0  0  0  0  0  0  0  0  0  0  0  0
   -0.8509    1.0539    0.0467 N   0  0  0  0  0  0  0  0  0  0  0  0
   -0.2983   -0.1591    0.0349 C   0  0  0  0  0  0  0  0  0  0  0  0
   -3.0374   -2.2721   -0.0080 N   0  0  0  0  0  0  0  0  0  0  0  0
   -2.7790    2.2826    0.0558 N   0  0  0  0  0  0  0  0  0  0  0  0
    1.1713   -0.2252    0.0467 C   0  0  0  0  0  0  0  0  0  0  0  0
    1.9667    0.9405    0.0667 C   0  0  0  0  0  0  0  0  0  0  0  0
    3.3603    0.8157    0.0782 C   0  0  0  0  0  0  0  0  0  0  0  0
    3.9559   -0.4294    0.0701 C   0  0  0  0  0  0  0  0  0  0  0  0
    3.1803   -1.5876    0.0504 C   0  0  0  0  0  0  0  0  0  0  0  0
    1.8061   -1.4729    0.0385 C   0  0  0  0  0  0  0  0  0  0  0  0
    1.4581    2.1720    0.0756 O   0  0  0  0  0  0  0  0  0  0  0  0
   -2.5886   -3.1701   -0.0485 H   0  0  0  0  0  0  0  0  0  0  0  0
   -4.0405   -2.2284   -0.0414 H   0  0  0  0  0  0  0  0  0  0  0  0
   -3.7805    2.3582    0.0222 H   0  0  0  0  0  0  0  0  0  0  0  0
   -2.2305    3.1245    0.0433 H   0  0  0  0  0  0  0  0  0  0  0  0
    3.9649    1.7138    0.0939 H   0  0  0  0  0  0  0  0  0  0  0  0
    5.0361   -0.5003    0.0787 H   0  0  0  0  0  0  0  0  0  0  0  0
    3.6474   -2.5630    0.0439 H   0  0  0  0  0  0  0  0  0  0  0  0
    1.1882   -2.3604    0.0228 H   0  0  0  0  0  0  0  0  0  0  0  0
    0.4679    2.0830    0.0664 H   0  0  0  0  0  0  0  0  0  0  0  0
  1  2  2  0
  1  6  1  0
  2  3  1  0
  2  7  1  0
  3  4  2  0
  4  5  1  0
  4  8  1  0
  5  6  2  0
  6  9  1  0
  9 10  2  0
  9 14  1  0
 10 11  1  0
 10 15  1  0
 11 12  2  0
 12 13  1  0
 13 14  2  0
  7 16  1  0
  7 17  1  0
  8 18  1  0
  8 19  1  0
 11 20  1  0
 12 21  1  0
 13 22  1  0
 14 23  1  0
 15 24  1  0
M  END
