
     RDKit          3D

 42 42  0  0  0  0  0  0  0  0999 V2000
    0.5278   -0.4776    0.1859 N   0  0  0  0  0  0  0  0  0  0  0  0
    5.0589   -0.0947   -0.9904 C   0  0  0  0  0  0  0  0  0  0  0  0
    2.9115   -0.4317    0.0621 C   0  0  0  0  0  0  0  0  0  0  0  0
    4.3596    1.3475    0.7823 C   0  0  0  0  0  0  0  0  0  0  0  0
    5.3121    0.9796   -0.1532 C   0  0  0  0  0  0  0  0  0  0  0  0
   -1.8270    0.0427    0.3196 C   0  0  0  0  0  0  0  0  0  0  0  0
   -3.0795   -0.3949    0.5046 N   0  0  0  0  0  0  0  0  0  0  0  0
   -4.2707    0.4389    0.4054 C   0  0  2  0  0  0  0  0  0  0  0  0
   -4.9575    0.6416    1.8327 B   0  0  0  0  0  0  0  0  0  0  0  0
   -6.1367    1.3006    1.9857 O   0  0  0  0  0  0  0  0  0  0  0  0
   -4.3957    0.1816    2.9795 O   0  0  0  0  0  0  0  0  0  0  0  0
   -5.2443   -0.1204   -0.6407 C   0  0  0  0  0  0  0  0  0  0  0  0
   -4.6690   -0.3106   -2.0455 C   0  0  1  0  0  0  0  0  0  0  0  0
   -5.7258   -0.9352   -2.9519 C   0  0  0  0  0  0  0  0  0  0  0  0
   -4.1520    0.9949   -2.6410 C   0  0  0  0  0  0  0  0  0  0  0  0
   -0.7750   -1.0543    0.3670 C   0  0  0  0  0  0  0  0  0  0  0  0
    1.6433   -1.2117    0.2441 C   0  0  0  0  0  0  0  0  0  0  0  0
    1.6545   -2.4141    0.4490 O   0  0  0  0  0  0  0  0  0  0  0  0
    3.8708   -0.7987   -0.8772 C   0  0  0  0  0  0  0  0  0  0  0  0
    3.5859   -2.1095   -1.9656 Cl  0  0  0  0  0  0  0  0  0  0  0  0
    4.6630    2.6878    1.8301 Cl  0  0  0  0  0  0  0  0  0  0  0  0
    3.1645    0.6563    0.8909 C   0  0  0  0  0  0  0  0  0  0  0  0
    0.5688    0.5033   -0.0500 H   0  0  0  0  0  0  0  0  0  0  0  0
    6.2443    1.5205   -0.2380 H   0  0  0  0  0  0  0  0  0  0  0  0
   -3.2208   -1.3905    0.6020 H   0  0  0  0  0  0  0  0  0  0  0  0
   -3.9361    1.4272    0.0755 H   0  0  0  0  0  0  0  0  0  0  0  0
   -6.5130    1.6234    1.1624 H   0  0  0  0  0  0  0  0  0  0  0  0
   -3.5646   -0.2776    2.8214 H   0  0  0  0  0  0  0  0  0  0  0  0
   -5.6441   -1.0783   -0.2890 H   0  0  0  0  0  0  0  0  0  0  0  0
   -6.1037    0.5561   -0.7086 H   0  0  0  0  0  0  0  0  0  0  0  0
   -3.8300   -1.0125   -1.9821 H   0  0  0  0  0  0  0  0  0  0  0  0
   -6.5890   -0.2743   -3.0624 H   0  0  0  0  0  0  0  0  0  0  0  0
   -5.3259   -1.1267   -3.9490 H   0  0  0  0  0  0  0  0  0  0  0  0
   -6.0845   -1.8850   -2.5505 H   0  0  0  0  0  0  0  0  0  0  0  0
   -4.9394    1.7525   -2.6668 H   0  0  0  0  0  0  0  0  0  0  0  0
   -3.3140    1.4043   -2.0768 H   0  0  0  0  0  0  0  0  0  0  0  0
   -3.8069    0.8438   -3.6653 H   0  0  0  0  0  0  0  0  0  0  0  0
   -0.9912   -1.7921   -0.4125 H   0  0  0  0  0  0  0  0  0  0  0  0
   -0.8373   -1.5812    1.3231 H   0  0  0  0  0  0  0  0  0  0  0  0
    2.4331    0.9510    1.6320 H   0  0  0  0  0  0  0  0  0  0  0  0
    5.7930   -0.3798   -1.7312 H   0  0  0  0  0  0  0  0  0  0  0  0
   -1.5247    1.2115    0.1311 O   0  0  0  0  0  0  0  0  0  0  0  0
 15 13  1  0
 13 14  1  0
 13 12  1  0
 18 17  2  0
 12  8  1  0
 21  4  1  0
  5  4  1  0
  5  2  2  0
  4 22  2  0
  2 19  1  0
 22  3  1  0
 19 20  1  0
 19  3  2  0
  3 17  1  0
 17  1  1  0
  8  7  1  0
  8  9  1  0
  7  6  1  0
 11  9  1  0
  1 16  1  0
 16  6  1  0
  6 42  2  0
  9 10  1  0
  1 23  1  0
  2 41  1  0
  5 24  1  0
  7 25  1  0
  8 26  1  6
 10 27  1  0
 11 28  1  0
 12 29  1  0
 12 30  1  0
 13 31  1  1
 14 32  1  0
 14 33  1  0
 14 34  1  0
 15 35  1  0
 15 36  1  0
 15 37  1  0
 16 38  1  0
 16 39  1  0
 22 40  1  0
M  END
