
     RDKit          3D

 42 45  0  0  0  0  0  0  0  0999 V2000
    2.0611    2.2105   -0.3382 C   0  0  0  0  0  0  0  0  0  0  0  0
    1.5416    0.9245   -0.2539 C   0  0  0  0  0  0  0  0  0  0  0  0
    0.1811    1.1197   -0.1842 N   0  0  0  0  0  0  0  0  0  0  0  0
   -0.1816    2.4070   -0.2183 N   0  0  0  0  0  0  0  0  0  0  0  0
    0.9601    3.0680   -0.3110 C   0  0  0  0  0  0  0  0  0  0  0  0
    2.1036   -0.2827   -0.2283 N   0  0  0  0  0  0  0  0  0  0  0  0
    1.2801   -1.3102   -0.1314 C   0  0  0  0  0  0  0  0  0  0  0  0
   -0.1184   -1.1822   -0.0759 C   0  0  0  0  0  0  0  0  0  0  0  0
   -0.6921    0.0768   -0.1059 C   0  0  0  0  0  0  0  0  0  0  0  0
   -1.9916    0.3706   -0.0844 N   0  0  0  0  0  0  0  0  0  0  0  0
    1.9053   -2.6539   -0.1374 C   0  0  0  0  0  0  0  0  0  0  0  0
   -3.0123   -0.6406    0.0951 C   0  0  0  0  0  0  0  0  0  0  0  0
   -4.3625   -0.0524   -0.1972 C   0  0  0  0  0  0  0  0  0  0  0  0
   -5.2342    0.1846    0.8437 C   0  0  0  0  0  0  0  0  0  0  0  0
   -6.4616    0.7221    0.6406 N   0  0  0  0  0  0  0  0  0  0  0  0
   -6.8371    1.0381   -0.6201 C   0  0  0  0  0  0  0  0  0  0  0  0
   -5.9957    0.8224   -1.6894 C   0  0  0  0  0  0  0  0  0  0  0  0
   -4.7408    0.2732   -1.4948 C   0  0  0  0  0  0  0  0  0  0  0  0
    1.5731   -3.6507    0.7916 C   0  0  0  0  0  0  0  0  0  0  0  0
    2.2220   -4.8815    0.6927 C   0  0  0  0  0  0  0  0  0  0  0  0
    3.1649   -5.1344   -0.2910 C   0  0  0  0  0  0  0  0  0  0  0  0
    3.4963   -4.1387   -1.1994 C   0  0  0  0  0  0  0  0  0  0  0  0
    2.8741   -2.9054   -1.1104 C   0  0  0  0  0  0  0  0  0  0  0  0
    3.8594    2.6442   -0.4592 Br  0  0  0  0  0  0  0  0  0  0  0  0
    0.5834   -3.4447    1.9053 C   0  0  0  0  0  0  0  0  0  0  0  0
   -7.2421    0.9260    1.6218 O   0  0  0  0  0  0  0  0  0  0  0  0
    0.9616    4.1463   -0.3560 H   0  0  0  0  0  0  0  0  0  0  0  0
   -0.7481   -2.0562   -0.0270 H   0  0  0  0  0  0  0  0  0  0  0  0
   -2.2436    1.3415    0.0356 H   0  0  0  0  0  0  0  0  0  0  0  0
   -2.8251   -1.4641   -0.5972 H   0  0  0  0  0  0  0  0  0  0  0  0
   -2.9840   -1.0524    1.1081 H   0  0  0  0  0  0  0  0  0  0  0  0
   -4.9944   -0.0409    1.8729 H   0  0  0  0  0  0  0  0  0  0  0  0
   -7.8247    1.4626   -0.7195 H   0  0  0  0  0  0  0  0  0  0  0  0
   -6.3441    1.0881   -2.6771 H   0  0  0  0  0  0  0  0  0  0  0  0
   -4.0752    0.0963   -2.3287 H   0  0  0  0  0  0  0  0  0  0  0  0
    1.9876   -5.6554    1.4138 H   0  0  0  0  0  0  0  0  0  0  0  0
    3.6454   -6.1030   -0.3408 H   0  0  0  0  0  0  0  0  0  0  0  0
    4.2351   -4.3181   -1.9694 H   0  0  0  0  0  0  0  0  0  0  0  0
    3.1296   -2.1222   -1.8123 H   0  0  0  0  0  0  0  0  0  0  0  0
   -0.4411   -3.6307    1.5762 H   0  0  0  0  0  0  0  0  0  0  0  0
    0.7863   -4.1348    2.7233 H   0  0  0  0  0  0  0  0  0  0  0  0
    0.6145   -2.4326    2.3064 H   0  0  0  0  0  0  0  0  0  0  0  0
 26 15  1  0
 15 16  1  0
 15 14  2  0
 16 17  2  0
 14 13  1  0
 17 18  1  0
 13 18  2  0
 13 12  1  0
  4  5  2  0
  4  3  1  0
 10 12  1  0
 10  9  1  0
  5  1  1  0
  3  9  1  0
  3  2  1  0
  9  8  2  0
  1  2  2  0
  1 24  1  0
  2  6  1  0
  8  7  1  0
  7  6  2  0
  7 11  1  0
 23 22  2  0
 23 11  1  0
 22 21  1  0
 11 19  2  0
 21 20  2  0
 19 20  1  0
 19 25  1  0
  5 27  1  0
  8 28  1  0
 10 29  1  0
 12 30  1  0
 12 31  1  0
 14 32  1  0
 16 33  1  0
 17 34  1  0
 18 35  1  0
 20 36  1  0
 21 37  1  0
 22 38  1  0
 23 39  1  0
 25 40  1  0
 25 41  1  0
 25 42  1  0
M  CHG  2  15   1  26  -1
M  END
