
     RDKit          3D

 54 56  0  0  0  0  0  0  0  0999 V2000
   -0.3538   -0.9333   -8.4952 O   0  0  0  0  0  0  0  0  0  0  0  0
   -0.8247   -0.6825   -9.7539 N   0  0  0  0  0  0  0  0  0  0  0  0
   -0.3116    0.4580  -10.1164 C   0  0  0  0  0  0  0  0  0  0  0  0
   -0.6058    1.0491  -11.4485 C   0  0  0  0  0  0  0  0  0  0  0  0
    0.5158    0.9863   -9.0902 C   0  0  0  0  0  0  0  0  0  0  0  0
    0.4467    0.0635   -8.1021 C   0  0  0  0  0  0  0  0  0  0  0  0
    1.0495   -0.0195   -6.7487 C   0  0  0  0  0  0  0  0  0  0  0  0
    0.0170    0.0048   -5.6187 C   0  0  0  0  0  0  0  0  0  0  0  0
    0.6768   -0.0426   -4.2468 C   0  0  0  0  0  0  0  0  0  0  0  0
   -0.3322   -0.0244   -3.1062 C   0  0  0  0  0  0  0  0  0  0  0  0
    0.3229   -0.0838   -1.7320 C   0  0  0  0  0  0  0  0  0  0  0  0
   -0.6950   -0.0552   -0.5981 C   0  0  0  0  0  0  0  0  0  0  0  0
   -0.0239   -0.1436    0.7558 C   0  0  0  0  0  0  0  0  0  0  0  0
   -1.0354   -0.0916    1.7546 O   0  0  0  0  0  0  0  0  0  0  0  0
   -0.6884   -0.1172    3.0481 C   0  0  0  0  0  0  0  0  0  0  0  0
   -1.7330   -0.0179    3.9710 C   0  0  0  0  0  0  0  0  0  0  0  0
   -1.4720   -0.0340    5.3262 C   0  0  0  0  0  0  0  0  0  0  0  0
   -0.1628   -0.1494    5.7994 C   0  0  0  0  0  0  0  0  0  0  0  0
    0.8718   -0.2488    4.8733 C   0  0  0  0  0  0  0  0  0  0  0  0
    0.6233   -0.2347    3.5113 C   0  0  0  0  0  0  0  0  0  0  0  0
    0.1393   -0.1659    7.2310 C   0  0  0  0  0  0  0  0  0  0  0  0
    1.2909   -0.2828    7.7467 N   0  0  0  0  0  0  0  0  0  0  0  0
    1.1317   -0.2069    9.1949 C   0  0  1  0  0  0  0  0  0  0  0  0
    1.8825    0.9845    9.7679 C   0  0  0  0  0  0  0  0  0  0  0  0
   -0.3959   -0.1249    9.3952 C   0  0  0  0  0  0  0  0  0  0  0  0
   -0.9130   -0.0446    8.0600 O   0  0  0  0  0  0  0  0  0  0  0  0
   -1.0527    2.0373  -11.3397 H   0  0  0  0  0  0  0  0  0  0  0  0
    0.3117    1.1697  -12.0244 H   0  0  0  0  0  0  0  0  0  0  0  0
   -1.2895    0.4210  -12.0160 H   0  0  0  0  0  0  0  0  0  0  0  0
    1.0722    1.9084   -9.0968 H   0  0  0  0  0  0  0  0  0  0  0  0
    1.7385    0.8197   -6.6392 H   0  0  0  0  0  0  0  0  0  0  0  0
    1.6520   -0.9300   -6.6737 H   0  0  0  0  0  0  0  0  0  0  0  0
   -0.6667   -0.8421   -5.7234 H   0  0  0  0  0  0  0  0  0  0  0  0
   -0.5929    0.9093   -5.7031 H   0  0  0  0  0  0  0  0  0  0  0  0
    1.3613    0.8059   -4.1416 H   0  0  0  0  0  0  0  0  0  0  0  0
    1.2955   -0.9436   -4.1720 H   0  0  0  0  0  0  0  0  0  0  0  0
   -1.0204   -0.8691   -3.2167 H   0  0  0  0  0  0  0  0  0  0  0  0
   -0.9466    0.8796   -3.1778 H   0  0  0  0  0  0  0  0  0  0  0  0
    1.0168    0.7563   -1.6227 H   0  0  0  0  0  0  0  0  0  0  0  0
    0.9302   -0.9924   -1.6593 H   0  0  0  0  0  0  0  0  0  0  0  0
   -1.3947   -0.8882   -0.7122 H   0  0  0  0  0  0  0  0  0  0  0  0
   -1.2823    0.8659   -0.6552 H   0  0  0  0  0  0  0  0  0  0  0  0
    0.6820    0.6844    0.8888 H   0  0  0  0  0  0  0  0  0  0  0  0
    0.5434   -1.0780    0.8370 H   0  0  0  0  0  0  0  0  0  0  0  0
   -2.7511    0.0736    3.6140 H   0  0  0  0  0  0  0  0  0  0  0  0
   -2.3023    0.0449    6.0143 H   0  0  0  0  0  0  0  0  0  0  0  0
    1.8922   -0.3392    5.2216 H   0  0  0  0  0  0  0  0  0  0  0  0
    1.4583   -0.3146    2.8299 H   0  0  0  0  0  0  0  0  0  0  0  0
    1.5296   -1.1197    9.6467 H   0  0  0  0  0  0  0  0  0  0  0  0
    2.9477    0.9170    9.5468 H   0  0  0  0  0  0  0  0  0  0  0  0
    1.5059    1.9211    9.3534 H   0  0  0  0  0  0  0  0  0  0  0  0
    1.7664    1.0233   10.8518 H   0  0  0  0  0  0  0  0  0  0  0  0
   -0.8123   -1.0086    9.8802 H   0  0  0  0  0  0  0  0  0  0  0  0
   -0.7126    0.7610    9.9486 H   0  0  0  0  0  0  0  0  0  0  0  0
  1  2  1  0
  1  6  1  0
  2  3  2  0
  3  4  1  0
  3  5  1  0
  4 27  1  0
  4 28  1  0
  4 29  1  0
  5  6  2  0
  5 30  1  0
  6  7  1  0
  7  8  1  0
  7 31  1  0
  7 32  1  0
  8  9  1  0
  8 33  1  0
  8 34  1  0
  9 10  1  0
  9 35  1  0
  9 36  1  0
 10 11  1  0
 10 37  1  0
 10 38  1  0
 11 12  1  0
 11 39  1  0
 11 40  1  0
 12 13  1  0
 12 41  1  0
 12 42  1  0
 13 14  1  0
 13 43  1  0
 13 44  1  0
 14 15  1  0
 15 16  2  0
 15 20  1  0
 16 17  1  0
 16 45  1  0
 17 18  2  0
 17 46  1  0
 18 19  1  0
 18 21  1  0
 19 20  2  0
 19 47  1  0
 20 48  1  0
 21 22  2  0
 21 26  1  0
 22 23  1  0
 23 24  1  0
 23 25  1  0
 23 49  1  1
 24 50  1  0
 24 51  1  0
 24 52  1  0
 25 26  1  0
 25 53  1  0
 25 54  1  0
M  END
