
     RDKit          3D

 35 36  0  0  0  0  0  0  0  0999 V2000
    4.4624   -1.2880    0.2561 O   0  0  0  0  0  0  0  0  0  0  0  0
    3.8125   -0.2791    0.1595 C   0  0  0  0  0  0  0  0  0  0  0  0
    4.2426    0.9115    0.5589 O   0  0  0  0  0  0  0  0  0  0  0  0
    2.3985   -0.2168   -0.3890 C   0  0  1  0  0  0  0  0  0  0  0  0
    2.1675   -1.3797   -1.2163 N   0  0  0  0  0  0  0  0  0  0  0  0
    1.4463   -0.0194    0.8115 C   0  0  0  0  0  0  0  0  0  0  0  0
   -0.0376    0.1788    0.4742 C   0  0  1  0  0  0  0  0  0  0  0  0
   -0.8585    0.4604    1.7427 C   0  0  0  0  0  0  0  0  0  0  0  0
   -0.1555    1.3542   -0.4969 C   0  0  0  0  0  0  0  0  0  0  0  0
   -0.4271    0.9937   -1.7387 O   0  0  0  0  0  0  0  0  0  0  0  0
    0.0552    2.4950   -0.1653 O   0  0  0  0  0  0  0  0  0  0  0  0
   -0.6027   -0.9865   -0.0850 O   0  0  0  0  0  0  0  0  0  0  0  0
   -1.7891   -1.3620    0.6131 C   0  0  1  0  0  0  0  0  0  0  0  0
   -2.2096   -0.1010    1.3606 C   0  0  2  0  0  0  0  0  0  0  0  0
   -2.8394   -1.8981   -0.3413 C   0  0  0  0  0  0  0  0  0  0  0  0
   -3.5075   -0.7889   -1.1419 C   0  0  0  0  0  0  0  0  0  0  0  0
   -3.9336    0.3251   -0.2054 C   0  0  0  0  0  0  0  0  0  0  0  0
   -2.8298    0.8409    0.5147 O   0  0  0  0  0  0  0  0  0  0  0  0
    5.1239    0.8330    0.9546 H   0  0  0  0  0  0  0  0  0  0  0  0
    2.3492    0.6690   -1.0307 H   0  0  0  0  0  0  0  0  0  0  0  0
    2.1413   -2.2137   -0.6421 H   0  0  0  0  0  0  0  0  0  0  0  0
    1.2530   -1.3123   -1.6414 H   0  0  0  0  0  0  0  0  0  0  0  0
    1.5193   -0.8874    1.4737 H   0  0  0  0  0  0  0  0  0  0  0  0
    1.7677    0.8477    1.3923 H   0  0  0  0  0  0  0  0  0  0  0  0
   -0.4504   -0.1036    2.5847 H   0  0  0  0  0  0  0  0  0  0  0  0
   -0.8782    1.5116    2.0251 H   0  0  0  0  0  0  0  0  0  0  0  0
   -0.4447    1.7791   -2.3066 H   0  0  0  0  0  0  0  0  0  0  0  0
   -1.5468   -2.1368    1.3524 H   0  0  0  0  0  0  0  0  0  0  0  0
   -2.8451   -0.3405    2.2235 H   0  0  0  0  0  0  0  0  0  0  0  0
   -2.3990   -2.6572   -0.9916 H   0  0  0  0  0  0  0  0  0  0  0  0
   -3.5924   -2.4110    0.2644 H   0  0  0  0  0  0  0  0  0  0  0  0
   -2.8298   -0.3931   -1.9004 H   0  0  0  0  0  0  0  0  0  0  0  0
   -4.3841   -1.1766   -1.6649 H   0  0  0  0  0  0  0  0  0  0  0  0
   -4.3650    1.1630   -0.7547 H   0  0  0  0  0  0  0  0  0  0  0  0
   -4.7015   -0.0450    0.4893 H   0  0  0  0  0  0  0  0  0  0  0  0
  1  2  2  0
  2  3  1  0
  2  4  1  0
  4  5  1  0
  4  6  1  0
  6  7  1  0
  7  8  1  0
  7  9  1  6
  7 12  1  0
  8 14  1  0
  9 10  1  0
  9 11  2  0
 12 13  1  0
 13 14  1  0
 13 15  1  0
 14 18  1  0
 15 16  1  0
 16 17  1  0
 17 18  1  0
  3 19  1  0
  4 20  1  6
  5 21  1  0
  5 22  1  0
  6 23  1  0
  6 24  1  0
  8 25  1  0
  8 26  1  0
 10 27  1  0
 13 28  1  1
 14 29  1  1
 15 30  1  0
 15 31  1  0
 16 32  1  0
 16 33  1  0
 17 34  1  0
 17 35  1  0
M  END
