
     RDKit          3D

 59 62  0  0  0  0  0  0  0  0999 V2000
   -2.1494    2.1301    0.8247 C   0  0  0  0  0  0  0  0  0  0  0  0
   -1.5209    0.7828    0.8502 C   0  0  0  0  0  0  0  0  0  0  0  0
   -0.1881    0.5777    0.5900 N   0  0  0  0  0  0  0  0  0  0  0  0
    0.7424    1.6213    0.3596 C   0  0  0  0  0  0  0  0  0  0  0  0
    1.7090    1.9113    1.3133 C   0  0  0  0  0  0  0  0  0  0  0  0
    2.6244    2.9249    1.0798 C   0  0  0  0  0  0  0  0  0  0  0  0
    2.5876    3.6730   -0.0950 C   0  0  0  0  0  0  0  0  0  0  0  0
    3.6118    4.7414   -0.3570 C   0  0  0  0  0  0  0  0  0  0  0  0
    4.8816    4.1722   -0.9882 C   0  0  0  0  0  0  0  0  0  0  0  0
    1.6050    3.3742   -1.0355 C   0  0  0  0  0  0  0  0  0  0  0  0
    0.6903    2.3547   -0.8174 C   0  0  0  0  0  0  0  0  0  0  0  0
   -2.0796   -0.4357    1.1617 C   0  0  0  0  0  0  0  0  0  0  0  0
   -3.5146   -0.6846    1.5043 C   0  0  0  0  0  0  0  0  0  0  0  0
   -4.4260   -0.2386    0.4625 N   0  0  0  0  0  0  0  0  0  0  0  0
   -5.7960   -0.1918    0.9320 C   0  0  0  0  0  0  0  0  0  0  0  0
   -6.7013    0.5469   -0.0356 C   0  0  0  0  0  0  0  0  0  0  0  0
   -6.7876   -0.2819   -1.6452 S   0  0  0  0  0  0  0  0  0  0  0  0
   -5.0000   -0.3865   -1.9270 C   0  0  0  0  0  0  0  0  0  0  0  0
   -4.2767   -1.0148   -0.7515 C   0  0  0  0  0  0  0  0  0  0  0  0
   -1.0457   -1.3989    1.0951 C   0  0  0  0  0  0  0  0  0  0  0  0
    0.1199   -0.7573    0.7461 C   0  0  0  0  0  0  0  0  0  0  0  0
    1.4426   -1.3374    0.5300 C   0  0  0  0  0  0  0  0  0  0  0  0
    1.8537   -2.4109    1.3281 C   0  0  0  0  0  0  0  0  0  0  0  0
    3.0760   -3.0262    1.1380 C   0  0  0  0  0  0  0  0  0  0  0  0
    2.3181   -0.9087   -0.4684 C   0  0  0  0  0  0  0  0  0  0  0  0
    3.5524   -1.5128   -0.6590 C   0  0  0  0  0  0  0  0  0  0  0  0
    3.9477   -2.5797    0.1422 C   0  0  0  0  0  0  0  0  0  0  0  0
    5.4862   -3.4202   -0.0082 S   0  0  0  0  0  0  0  0  0  0  0  0
    6.3123   -2.5608   -1.3582 C   0  0  0  0  0  0  0  0  0  0  0  0
   -2.2502    2.5268   -0.1875 H   0  0  0  0  0  0  0  0  0  0  0  0
   -3.1522    2.0660    1.2396 H   0  0  0  0  0  0  0  0  0  0  0  0
   -1.5806    2.8593    1.4046 H   0  0  0  0  0  0  0  0  0  0  0  0
    1.7430    1.3445    2.2350 H   0  0  0  0  0  0  0  0  0  0  0  0
   -0.0565    2.1235   -1.5666 H   0  0  0  0  0  0  0  0  0  0  0  0
    3.3749    3.1438    1.8306 H   0  0  0  0  0  0  0  0  0  0  0  0
    3.1878    5.5044   -1.0135 H   0  0  0  0  0  0  0  0  0  0  0  0
    3.8672    5.2417    0.5801 H   0  0  0  0  0  0  0  0  0  0  0  0
    1.5560    3.9432   -1.9565 H   0  0  0  0  0  0  0  0  0  0  0  0
    5.3364    3.4195   -0.3430 H   0  0  0  0  0  0  0  0  0  0  0  0
    4.6677    3.7031   -1.9493 H   0  0  0  0  0  0  0  0  0  0  0  0
    5.6182    4.9585   -1.1569 H   0  0  0  0  0  0  0  0  0  0  0  0
   -3.6455   -1.7554    1.7365 H   0  0  0  0  0  0  0  0  0  0  0  0
   -3.7817   -0.1466    2.4196 H   0  0  0  0  0  0  0  0  0  0  0  0
   -1.1550   -2.4629    1.2466 H   0  0  0  0  0  0  0  0  0  0  0  0
   -6.2104   -1.1964    1.1233 H   0  0  0  0  0  0  0  0  0  0  0  0
   -5.8096    0.3448    1.8850 H   0  0  0  0  0  0  0  0  0  0  0  0
   -3.2134   -1.0646   -0.9971 H   0  0  0  0  0  0  0  0  0  0  0  0
   -4.6256   -2.0537   -0.6185 H   0  0  0  0  0  0  0  0  0  0  0  0
   -7.7186    0.5876    0.3540 H   0  0  0  0  0  0  0  0  0  0  0  0
   -6.3481    1.5710   -0.1723 H   0  0  0  0  0  0  0  0  0  0  0  0
   -4.8577   -0.9910   -2.8230 H   0  0  0  0  0  0  0  0  0  0  0  0
   -4.6026    0.6113   -2.1222 H   0  0  0  0  0  0  0  0  0  0  0  0
    1.2081   -2.7663    2.1215 H   0  0  0  0  0  0  0  0  0  0  0  0
    2.0431   -0.0987   -1.1300 H   0  0  0  0  0  0  0  0  0  0  0  0
    3.3569   -3.8538    1.7787 H   0  0  0  0  0  0  0  0  0  0  0  0
    4.1902   -1.1379   -1.4476 H   0  0  0  0  0  0  0  0  0  0  0  0
    5.7655   -2.6576   -2.2944 H   0  0  0  0  0  0  0  0  0  0  0  0
    6.4729   -1.5091   -1.1275 H   0  0  0  0  0  0  0  0  0  0  0  0
    7.2809   -3.0434   -1.4722 H   0  0  0  0  0  0  0  0  0  0  0  0
  1  2  1  0
  2  3  1  0
  2 12  2  0
  3  4  1  0
  3 21  1  0
  4  5  2  0
  4 11  1  0
  5  6  1  0
  6  7  2  0
  7  8  1  0
  7 10  1  0
  8  9  1  0
 10 11  2  0
 12 13  1  0
 12 20  1  0
 13 14  1  0
 14 15  1  0
 14 19  1  0
 15 16  1  0
 16 17  1  0
 17 18  1  0
 18 19  1  0
 20 21  2  0
 21 22  1  0
 22 23  2  0
 22 25  1  0
 23 24  1  0
 24 27  2  0
 25 26  2  0
 26 27  1  0
 27 28  1  0
 28 29  1  0
  1 30  1  0
  1 31  1  0
  1 32  1  0
  5 33  1  0
 11 34  1  0
  6 35  1  0
  8 36  1  0
  8 37  1  0
 10 38  1  0
  9 39  1  0
  9 40  1  0
  9 41  1  0
 13 42  1  0
 13 43  1  0
 20 44  1  0
 15 45  1  0
 15 46  1  0
 19 47  1  0
 19 48  1  0
 16 49  1  0
 16 50  1  0
 18 51  1  0
 18 52  1  0
 23 53  1  0
 25 54  1  0
 24 55  1  0
 26 56  1  0
 29 57  1  0
 29 58  1  0
 29 59  1  0
M  END
