
     RDKit          3D

 17 16  0  0  0  0  0  0  0  0999 V2000
    1.3509    1.6278   -0.6773 O   0  0  0  0  0  0  0  0  0  0  0  0
    1.9445    0.7529   -0.1044 C   0  0  0  0  0  0  0  0  0  0  0  0
    3.0737    0.9269    0.5587 O   0  0  0  0  0  0  0  0  0  0  0  0
    1.5024   -0.6831   -0.0724 C   0  0  0  0  0  0  0  0  0  0  0  0
    2.4912   -1.5881   -0.0231 N   0  0  0  0  0  0  0  0  0  0  0  0
    0.1814   -1.0358   -0.0775 C   0  0  0  0  0  0  0  0  0  0  0  0
   -0.9418   -0.1685   -0.0127 C   0  0  0  0  0  0  0  0  0  0  0  0
   -2.2299   -0.5977    0.0024 C   0  0  0  0  0  0  0  0  0  0  0  0
   -3.2965    0.3658    0.0844 C   0  0  0  0  0  0  0  0  0  0  0  0
   -4.4880    0.1065    0.1083 O   0  0  0  0  0  0  0  0  0  0  0  0
    3.3610    1.8513    0.4991 H   0  0  0  0  0  0  0  0  0  0  0  0
    3.4558   -1.3368   -0.1480 H   0  0  0  0  0  0  0  0  0  0  0  0
   -0.0277   -2.1015   -0.0773 H   0  0  0  0  0  0  0  0  0  0  0  0
   -0.7788    0.9021    0.0364 H   0  0  0  0  0  0  0  0  0  0  0  0
   -2.4758   -1.6536   -0.0456 H   0  0  0  0  0  0  0  0  0  0  0  0
   -2.9539    1.4179    0.1264 H   0  0  0  0  0  0  0  0  0  0  0  0
    2.2757   -2.5706   -0.0532 H   0  0  0  0  0  0  0  0  0  0  0  0
  5  4  1  0
  1  2  2  0
  4  2  1  0
  4  6  2  0
  2  3  1  0
  6  7  1  0
  7  8  2  0
  8  9  1  0
 10  9  2  0
  3 11  1  0
  5 12  1  0
  6 13  1  0
  7 14  1  0
  8 15  1  0
  9 16  1  0
  5 17  1  0
M  END
