
     RDKit          3D

 14 14  0  0  0  0  0  0  0  0999 V2000
    0.5395    0.5252   -0.1340 N   0  0  0  0  0  0  0  0  0  0  0  0
   -1.7365    0.4077   -0.0228 C   0  0  0  0  0  0  0  0  0  0  0  0
    0.9285   -1.7352    0.0726 O   0  0  0  0  0  0  0  0  0  0  0  0
    0.2030   -0.7683    0.0414 C   0  0  0  0  0  0  0  0  0  0  0  0
   -1.1302   -0.8725    0.1806 O   0  0  0  0  0  0  0  0  0  0  0  0
   -0.5832    1.3967    0.1181 C   0  0  0  0  0  0  0  0  0  0  0  0
    1.8961    1.0026   -0.1085 C   0  0  0  0  0  0  0  0  0  0  0  0
   -2.5208    0.5515    0.7166 H   0  0  0  0  0  0  0  0  0  0  0  0
   -2.1754    0.4371   -1.0215 H   0  0  0  0  0  0  0  0  0  0  0  0
   -0.5263    1.8404    1.1176 H   0  0  0  0  0  0  0  0  0  0  0  0
   -0.6408    2.2039   -0.6120 H   0  0  0  0  0  0  0  0  0  0  0  0
    2.1776    1.3640    0.8835 H   0  0  0  0  0  0  0  0  0  0  0  0
    2.5729    0.2015   -0.3936 H   0  0  0  0  0  0  0  0  0  0  0  0
    2.0133    1.8195   -0.8194 H   0  0  0  0  0  0  0  0  0  0  0  0
  1  4  1  0
  1  6  1  0
  1  7  1  0
  2  5  1  0
  2  6  1  0
  2  8  1  0
  2  9  1  0
  3  4  2  0
  4  5  1  0
  6 10  1  0
  6 11  1  0
  7 12  1  0
  7 13  1  0
  7 14  1  0
M  END
