
     RDKit          3D

 62 66  0  0  0  0  0  0  0  0999 V2000
   -2.1784   -0.1207   -1.4773 C   0  0  2  0  0  0  0  0  0  0  0  0
   -1.8136    1.1192   -0.6381 C   0  0  1  0  0  0  0  0  0  0  0  0
   -2.5411    1.1414    0.5705 O   0  0  0  0  0  0  0  0  0  0  0  0
   -3.8927    1.2494    0.4875 C   0  0  0  0  0  0  0  0  0  0  0  0
   -4.5522    1.8282    1.5666 C   0  0  0  0  0  0  0  0  0  0  0  0
   -5.9282    1.9538    1.5837 C   0  0  0  0  0  0  0  0  0  0  0  0
   -6.6756    1.5043    0.4962 C   0  0  0  0  0  0  0  0  0  0  0  0
   -8.0164    1.6523    0.5460 O   0  0  0  0  0  0  0  0  0  0  0  0
   -6.0272    0.9230   -0.5833 C   0  0  0  0  0  0  0  0  0  0  0  0
   -4.6383    0.7867   -0.5936 C   0  0  0  0  0  0  0  0  0  0  0  0
   -3.9152    0.0197   -2.0019 S   0  0  0  0  0  0  0  0  0  0  0  0
   -1.8441   -1.4205   -0.8009 C   0  0  0  0  0  0  0  0  0  0  0  0
   -2.6690   -2.0166    0.1466 C   0  0  0  0  0  0  0  0  0  0  0  0
   -2.2884   -3.1783    0.8004 C   0  0  0  0  0  0  0  0  0  0  0  0
   -1.0630   -3.7746    0.5144 C   0  0  0  0  0  0  0  0  0  0  0  0
   -0.6439   -4.9042    1.1195 O   0  0  0  0  0  0  0  0  0  0  0  0
   -0.2316   -3.1967   -0.4409 C   0  0  0  0  0  0  0  0  0  0  0  0
   -0.6264   -2.0357   -1.0827 C   0  0  0  0  0  0  0  0  0  0  0  0
   -0.3498    1.1431   -0.3052 C   0  0  0  0  0  0  0  0  0  0  0  0
    0.5341    1.7939   -1.1622 C   0  0  0  0  0  0  0  0  0  0  0  0
    1.8966    1.7843   -0.9303 C   0  0  0  0  0  0  0  0  0  0  0  0
    2.4126    1.1188    0.1832 C   0  0  0  0  0  0  0  0  0  0  0  0
    1.5374    0.4675    1.0498 C   0  0  0  0  0  0  0  0  0  0  0  0
    0.1720    0.4808    0.7977 C   0  0  0  0  0  0  0  0  0  0  0  0
    3.7477    1.1619    0.3393 O   0  0  0  0  0  0  0  0  0  0  0  0
    4.3350    0.4450    1.4087 C   0  0  0  0  0  0  0  0  0  0  0  0
    5.8393    0.6556    1.3816 C   0  0  2  0  0  0  0  0  0  0  0  0
    6.1883    2.1125    1.6742 C   0  0  0  0  0  0  0  0  0  0  0  0
    6.4283    0.2207    0.1311 N   0  0  0  0  0  0  0  0  0  0  0  0
    7.8866    0.2970    0.1181 C   0  0  0  0  0  0  0  0  0  0  0  0
    8.3419   -0.6798   -0.9804 C   0  0  0  0  0  0  0  0  0  0  0  0
    7.0482   -1.3483   -1.4630 C   0  0  0  0  0  0  0  0  0  0  0  0
    6.0915   -1.1239   -0.3034 C   0  0  0  0  0  0  0  0  0  0  0  0
   -1.6143   -0.0458   -2.4098 H   0  0  0  0  0  0  0  0  0  0  0  0
   -2.0572    2.0060   -1.2375 H   0  0  0  0  0  0  0  0  0  0  0  0
   -3.9693    2.1841    2.4071 H   0  0  0  0  0  0  0  0  0  0  0  0
   -6.4222    2.4059    2.4338 H   0  0  0  0  0  0  0  0  0  0  0  0
   -8.4248    1.2963   -0.2508 H   0  0  0  0  0  0  0  0  0  0  0  0
   -6.6026    0.5589   -1.4283 H   0  0  0  0  0  0  0  0  0  0  0  0
   -3.6356   -1.5904    0.3843 H   0  0  0  0  0  0  0  0  0  0  0  0
   -2.9543   -3.6232    1.5314 H   0  0  0  0  0  0  0  0  0  0  0  0
   -1.2980   -5.2024    1.7615 H   0  0  0  0  0  0  0  0  0  0  0  0
    0.7205   -3.6548   -0.6781 H   0  0  0  0  0  0  0  0  0  0  0  0
    0.0376   -1.5939   -1.8163 H   0  0  0  0  0  0  0  0  0  0  0  0
    0.1545    2.3198   -2.0309 H   0  0  0  0  0  0  0  0  0  0  0  0
    2.5697    2.2978   -1.6055 H   0  0  0  0  0  0  0  0  0  0  0  0
    1.8953   -0.0575    1.9246 H   0  0  0  0  0  0  0  0  0  0  0  0
   -0.4810   -0.0468    1.4804 H   0  0  0  0  0  0  0  0  0  0  0  0
    4.0847   -0.6193    1.3380 H   0  0  0  0  0  0  0  0  0  0  0  0
    3.9540    0.8002    2.3734 H   0  0  0  0  0  0  0  0  0  0  0  0
    6.2204    0.0453    2.2240 H   0  0  0  0  0  0  0  0  0  0  0  0
    5.9063    2.7615    0.8447 H   0  0  0  0  0  0  0  0  0  0  0  0
    5.6660    2.4540    2.5684 H   0  0  0  0  0  0  0  0  0  0  0  0
    7.2548    2.2418    1.8547 H   0  0  0  0  0  0  0  0  0  0  0  0
    8.2199    1.3189   -0.0720 H   0  0  0  0  0  0  0  0  0  0  0  0
    8.3135   -0.0029    1.0888 H   0  0  0  0  0  0  0  0  0  0  0  0
    8.8661   -0.1733   -1.7903 H   0  0  0  0  0  0  0  0  0  0  0  0
    9.0297   -1.4180   -0.5675 H   0  0  0  0  0  0  0  0  0  0  0  0
    6.6673   -0.8494   -2.3557 H   0  0  0  0  0  0  0  0  0  0  0  0
    7.1754   -2.4036   -1.7035 H   0  0  0  0  0  0  0  0  0  0  0  0
    6.2577   -1.8785    0.4854 H   0  0  0  0  0  0  0  0  0  0  0  0
    5.0473   -1.1973   -0.6118 H   0  0  0  0  0  0  0  0  0  0  0  0
  1  2  1  0
  1 11  1  0
  1 12  1  0
  1 34  1  6
  2  3  1  0
  2 19  1  0
  2 35  1  6
  3  4  1  0
  4  5  2  0
  4 10  1  0
  5  6  1  0
  5 36  1  0
  6  7  2  0
  6 37  1  0
  7  8  1  0
  7  9  1  0
  8 38  1  0
  9 10  2  0
  9 39  1  0
 10 11  1  0
 12 13  2  0
 12 18  1  0
 13 14  1  0
 13 40  1  0
 14 15  2  0
 14 41  1  0
 15 16  1  0
 15 17  1  0
 16 42  1  0
 17 18  2  0
 17 43  1  0
 18 44  1  0
 19 20  2  0
 19 24  1  0
 20 21  1  0
 20 45  1  0
 21 22  2  0
 21 46  1  0
 22 23  1  0
 22 25  1  0
 23 24  2  0
 23 47  1  0
 24 48  1  0
 25 26  1  0
 26 27  1  0
 26 49  1  0
 26 50  1  0
 27 28  1  0
 27 29  1  0
 27 51  1  1
 28 52  1  0
 28 53  1  0
 28 54  1  0
 29 30  1  0
 29 33  1  0
 30 31  1  0
 30 55  1  0
 30 56  1  0
 31 32  1  0
 31 57  1  0
 31 58  1  0
 32 33  1  0
 32 59  1  0
 32 60  1  0
 33 61  1  0
 33 62  1  0
M  END
