
     RDKit          3D

 21 20  0  0  0  0  0  0  0  0999 V2000
   -4.2943    0.5898   -0.0452 N   0  0  0  0  0  0  0  0  0  0  0  0
   -3.3029    0.0054   -0.0263 C   0  0  0  0  0  0  0  0  0  0  0  0
   -2.0410   -0.7170   -0.0092 C   0  0  0  0  0  0  0  0  0  0  0  0
   -0.8328    0.2238    0.0042 C   0  0  0  0  0  0  0  0  0  0  0  0
    0.4746   -0.5566    0.0160 C   0  0  0  0  0  0  0  0  0  0  0  0
    1.6968    0.3525    0.0329 C   0  0  0  0  0  0  0  0  0  0  0  0
    3.0137   -0.4145    0.0349 C   0  0  0  0  0  0  0  0  0  0  0  0
    4.2270    0.5050    0.0560 C   0  0  0  0  0  0  0  0  0  0  0  0
   -2.0353   -1.3651    0.8699 H   0  0  0  0  0  0  0  0  0  0  0  0
   -2.0137   -1.3680   -0.8856 H   0  0  0  0  0  0  0  0  0  0  0  0
   -0.8704    0.8744   -0.8729 H   0  0  0  0  0  0  0  0  0  0  0  0
   -0.8881    0.8716    0.8825 H   0  0  0  0  0  0  0  0  0  0  0  0
    0.4978   -1.2154    0.8908 H   0  0  0  0  0  0  0  0  0  0  0  0
    0.5172   -1.2104   -0.8617 H   0  0  0  0  0  0  0  0  0  0  0  0
    1.6667    1.0181   -0.8370 H   0  0  0  0  0  0  0  0  0  0  0  0
    1.6539    1.0023    0.9140 H   0  0  0  0  0  0  0  0  0  0  0  0
    3.0428   -1.0819    0.9018 H   0  0  0  0  0  0  0  0  0  0  0  0
    3.0567   -1.0612   -0.8471 H   0  0  0  0  0  0  0  0  0  0  0  0
    4.2365    1.1633   -0.8146 H   0  0  0  0  0  0  0  0  0  0  0  0
    4.2252    1.1361    0.9471 H   0  0  0  0  0  0  0  0  0  0  0  0
    5.1602   -0.0594    0.0538 H   0  0  0  0  0  0  0  0  0  0  0  0
  1  2  3  0
  2  3  1  0
  3  4  1  0
  4  5  1  0
  5  6  1  0
  6  7  1  0
  7  8  1  0
  3  9  1  0
  3 10  1  0
  4 11  1  0
  4 12  1  0
  5 13  1  0
  5 14  1  0
  6 15  1  0
  6 16  1  0
  7 17  1  0
  7 18  1  0
  8 19  1  0
  8 20  1  0
  8 21  1  0
M  END
