
     RDKit          3D

 50 54  0  0  0  0  0  0  0  0999 V2000
    0.9812    1.9247    0.0175 C   0  0  0  0  0  0  0  0  0  0  0  0
    0.6605    0.5837    0.2176 C   0  0  0  0  0  0  0  0  0  0  0  0
   -0.6902    0.5711    0.5222 N   0  0  0  0  0  0  0  0  0  0  0  0
   -1.2256    1.7889    0.5559 N   0  0  0  0  0  0  0  0  0  0  0  0
   -0.2268    2.5989    0.2416 C   0  0  0  0  0  0  0  0  0  0  0  0
    1.3966   -0.5298    0.1963 N   0  0  0  0  0  0  0  0  0  0  0  0
    0.7941   -1.6574    0.4947 C   0  0  0  0  0  0  0  0  0  0  0  0
   -0.5837   -1.7242    0.8023 C   0  0  0  0  0  0  0  0  0  0  0  0
   -1.3423   -0.5807    0.8027 C   0  0  0  0  0  0  0  0  0  0  0  0
   -2.6670   -0.5667    1.1354 N   0  0  0  0  0  0  0  0  0  0  0  0
    1.5829   -2.9308    0.4209 C   0  0  1  0  0  0  0  0  0  0  0  0
    2.2761    2.4710   -0.3288 C   0  0  0  0  0  0  0  0  0  0  0  0
    1.5063   -3.4989   -1.0138 C   0  0  0  0  0  0  0  0  0  0  0  0
    2.2422   -4.7333   -1.1920 N   0  0  0  0  0  0  0  0  0  0  0  0
    3.6294   -4.6174   -0.7670 C   0  0  0  0  0  0  0  0  0  0  0  0
    3.7908   -4.0946    0.6573 C   0  0  0  0  0  0  0  0  0  0  0  0
    3.0464   -2.7748    0.8318 C   0  0  0  0  0  0  0  0  0  0  0  0
    3.4877    1.7865   -0.5586 C   0  0  0  0  0  0  0  0  0  0  0  0
    4.4659    2.6219   -0.8576 N   0  0  0  0  0  0  0  0  0  0  0  0
    3.9210    3.8316   -0.8281 N   0  0  0  0  0  0  0  0  0  0  0  0
    2.6145    3.7982   -0.5164 C   0  0  0  0  0  0  0  0  0  0  0  0
    4.7248    4.9982   -1.1020 C   0  0  0  0  0  0  0  0  0  0  0  0
   -3.7428    0.0982    0.5685 C   0  0  0  0  0  0  0  0  0  0  0  0
   -3.7946    1.6287   -0.2376 S   0  0  0  0  0  0  0  0  0  0  0  0
   -5.4234    1.5396   -0.5421 N   0  0  0  0  0  0  0  0  0  0  0  0
   -5.9331    0.4459   -0.0430 C   0  0  0  0  0  0  0  0  0  0  0  0
   -5.0097   -0.4185    0.5978 C   0  0  0  0  0  0  0  0  0  0  0  0
   -7.3899    0.1487   -0.1781 C   0  0  0  0  0  0  0  0  0  0  0  0
   -0.4059    3.6628    0.1920 H   0  0  0  0  0  0  0  0  0  0  0  0
   -1.0504   -2.6753    1.0171 H   0  0  0  0  0  0  0  0  0  0  0  0
   -2.9539   -1.4458    1.5445 H   0  0  0  0  0  0  0  0  0  0  0  0
    1.1063   -3.6617    1.0851 H   0  0  0  0  0  0  0  0  0  0  0  0
    0.4641   -3.6675   -1.2955 H   0  0  0  0  0  0  0  0  0  0  0  0
    1.9064   -2.7485   -1.7048 H   0  0  0  0  0  0  0  0  0  0  0  0
    1.7926   -5.4669   -0.6561 H   0  0  0  0  0  0  0  0  0  0  0  0
    4.1085   -5.5923   -0.8775 H   0  0  0  0  0  0  0  0  0  0  0  0
    4.1387   -3.9376   -1.4592 H   0  0  0  0  0  0  0  0  0  0  0  0
    3.4041   -4.8372    1.3636 H   0  0  0  0  0  0  0  0  0  0  0  0
    4.8508   -3.9625    0.8882 H   0  0  0  0  0  0  0  0  0  0  0  0
    3.5152   -2.0043    0.2137 H   0  0  0  0  0  0  0  0  0  0  0  0
    3.1134   -2.4299    1.8664 H   0  0  0  0  0  0  0  0  0  0  0  0
    3.6632    0.7228   -0.5131 H   0  0  0  0  0  0  0  0  0  0  0  0
    2.0259    4.6992   -0.4482 H   0  0  0  0  0  0  0  0  0  0  0  0
    5.1733    4.9247   -2.0907 H   0  0  0  0  0  0  0  0  0  0  0  0
    4.0908    5.8793   -1.0675 H   0  0  0  0  0  0  0  0  0  0  0  0
    5.5133    5.1014   -0.3588 H   0  0  0  0  0  0  0  0  0  0  0  0
   -5.2665   -1.3714    1.0394 H   0  0  0  0  0  0  0  0  0  0  0  0
   -7.5476   -0.7264   -0.8105 H   0  0  0  0  0  0  0  0  0  0  0  0
   -7.8343   -0.0712    0.7930 H   0  0  0  0  0  0  0  0  0  0  0  0
   -7.9197    0.9903   -0.6194 H   0  0  0  0  0  0  0  0  0  0  0  0
  5  1  1  0
  1  2  2  0
  1 12  1  0
  3  2  1  0
  2  6  1  0
  4  3  1  0
  3  9  1  0
  4  5  2  0
  5 29  1  0
  6  7  2  0
  8  7  1  0
  7 11  1  0
  9  8  2  0
  8 30  1  0
 10  9  1  0
 23 10  1  0
 10 31  1  0
 17 11  1  0
 11 13  1  0
 11 32  1  1
 12 18  1  0
 12 21  2  0
 13 14  1  0
 13 33  1  0
 13 34  1  0
 15 14  1  0
 14 35  1  0
 16 15  1  0
 15 36  1  0
 15 37  1  0
 17 16  1  0
 16 38  1  0
 16 39  1  0
 17 40  1  0
 17 41  1  0
 18 19  2  0
 18 42  1  0
 19 20  1  0
 21 20  1  0
 20 22  1  0
 21 43  1  0
 22 44  1  0
 22 45  1  0
 22 46  1  0
 27 23  2  0
 23 24  1  0
 25 24  1  0
 26 25  2  0
 28 26  1  0
 26 27  1  0
 27 47  1  0
 28 48  1  0
 28 49  1  0
 28 50  1  0
M  END
