
     RDKit          3D

 44 47  0  0  0  0  0  0  0  0999 V2000
   -3.7191   -0.2252    2.2879 C   0  0  0  0  0  0  0  0  0  0  0  0
   -3.5747    0.3950    0.8981 C   0  0  2  0  0  0  0  0  0  0  0  0
   -1.6882    1.2347   -0.4140 C   0  0  0  0  0  0  0  0  0  0  0  0
   -0.2464    1.1215   -0.7214 C   0  0  0  0  0  0  0  0  0  0  0  0
    0.3733    1.7314   -1.7767 C   0  0  0  0  0  0  0  0  0  0  0  0
    4.4056   -0.0248   -1.6487 C   0  0  0  0  0  0  0  0  0  0  0  0
    5.7058   -0.4862   -1.4454 C   0  0  0  0  0  0  0  0  0  0  0  0
    3.5489    0.1846   -0.5712 C   0  0  0  0  0  0  0  0  0  0  0  0
    2.1930    0.6674   -0.8049 C   0  0  0  0  0  0  0  0  0  0  0  0
    1.7568    1.4681   -1.8295 C   0  0  0  0  0  0  0  0  0  0  0  0
    0.8830    0.2307    0.2240 S   0  0  0  0  0  0  0  0  0  0  0  0
   -2.3775    2.0631   -0.9877 O   0  0  0  0  0  0  0  0  0  0  0  0
   -3.0312    0.5665    3.2908 N   0  0  0  0  0  0  0  0  0  0  0  0
    4.6369   -0.4232    2.8426 C   0  0  0  0  0  0  0  0  0  0  0  0
    3.6037   -0.0066    2.0526 C   0  0  0  0  0  0  0  0  0  0  0  0
    4.0660   -0.0877    0.7039 C   0  0  0  0  0  0  0  0  0  0  0  0
   -4.4520   -0.3248   -0.1023 C   0  0  0  0  0  0  0  0  0  0  0  0
   -2.1752    0.3966    0.5223 N   0  0  0  0  0  0  0  0  0  0  0  0
   -5.7541    0.1192   -0.3139 C   0  0  0  0  0  0  0  0  0  0  0  0
   -6.6011   -0.5522   -1.1848 C   0  0  0  0  0  0  0  0  0  0  0  0
   -6.1528   -1.6807   -1.8591 C   0  0  0  0  0  0  0  0  0  0  0  0
    6.2200   -0.7623   -0.2559 N   0  0  0  0  0  0  0  0  0  0  0  0
   -4.8556   -2.1309   -1.6535 C   0  0  0  0  0  0  0  0  0  0  0  0
   -4.0110   -1.4562   -0.7811 C   0  0  0  0  0  0  0  0  0  0  0  0
    5.4026   -0.5585    0.7627 C   0  0  0  0  0  0  0  0  0  0  0  0
    5.7112   -0.7575    2.0715 N   0  0  0  0  0  0  0  0  0  0  0  0
   -4.7829   -0.2435    2.5297 H   0  0  0  0  0  0  0  0  0  0  0  0
   -3.3989   -1.2773    2.2404 H   0  0  0  0  0  0  0  0  0  0  0  0
   -3.9010    1.4350    0.9669 H   0  0  0  0  0  0  0  0  0  0  0  0
   -0.1502    2.3492   -2.4917 H   0  0  0  0  0  0  0  0  0  0  0  0
    6.3513   -0.6457   -2.3011 H   0  0  0  0  0  0  0  0  0  0  0  0
    2.4139    1.8716   -2.5868 H   0  0  0  0  0  0  0  0  0  0  0  0
   -3.2700    0.2193    4.2103 H   0  0  0  0  0  0  0  0  0  0  0  0
   -2.0301    0.4454    3.2069 H   0  0  0  0  0  0  0  0  0  0  0  0
    4.6873   -0.5046    3.9161 H   0  0  0  0  0  0  0  0  0  0  0  0
    2.6460    0.3289    2.4140 H   0  0  0  0  0  0  0  0  0  0  0  0
   -1.6087   -0.3723    0.8466 H   0  0  0  0  0  0  0  0  0  0  0  0
   -6.1075    1.0031    0.2050 H   0  0  0  0  0  0  0  0  0  0  0  0
   -7.6085   -0.1893   -1.3431 H   0  0  0  0  0  0  0  0  0  0  0  0
   -6.8090   -2.2028   -2.5431 H   0  0  0  0  0  0  0  0  0  0  0  0
   -4.4962   -3.0084   -2.1757 H   0  0  0  0  0  0  0  0  0  0  0  0
   -2.9994   -1.8173   -0.6415 H   0  0  0  0  0  0  0  0  0  0  0  0
    6.6006   -1.0805    2.4163 H   0  0  0  0  0  0  0  0  0  0  0  0
    4.0663    0.1453   -2.6610 H   0  0  0  0  0  0  0  0  0  0  0  0
  1  2  1  0
  1 13  1  0
  2 17  1  0
  2 18  1  0
  3  4  1  0
  3 12  2  0
  3 18  1  0
  4  5  2  0
  4 11  1  0
  5 10  1  0
  6  7  2  0
  6  8  1  0
  7 22  1  0
  8  9  1  0
  8 16  2  0
  9 10  2  0
  9 11  1  0
 14 15  2  0
 14 26  1  0
 15 16  1  0
 16 25  1  0
 17 19  2  0
 17 24  1  0
 19 20  1  0
 20 21  2  0
 21 23  1  0
 22 25  2  0
 23 24  2  0
 25 26  1  0
  1 27  1  0
  1 28  1  0
  2 29  1  1
  5 30  1  0
  6 44  1  0
  7 31  1  0
 10 32  1  0
 13 33  1  0
 13 34  1  0
 14 35  1  0
 15 36  1  0
 18 37  1  0
 19 38  1  0
 20 39  1  0
 21 40  1  0
 23 41  1  0
 24 42  1  0
 26 43  1  0
M  END
