
     RDKit          3D

 79 83  0  0  0  0  0  0  0  0999 V2000
    6.4909   -1.9512    1.0788 O   0  0  0  0  0  0  0  0  0  0  0  0
    6.1169   -1.0586    0.3433 C   0  0  0  0  0  0  0  0  0  0  0  0
    7.0482   -0.0226   -0.2464 C   0  0  0  0  0  0  0  0  0  0  0  0
    8.5137   -0.2839    0.0691 C   0  0  0  0  0  0  0  0  0  0  0  0
    9.3500    0.8460   -0.2833 N   0  0  0  0  0  0  0  0  0  0  0  0
   10.6536    0.7661    0.3538 C   0  0  0  0  0  0  0  0  0  0  0  0
   11.4570    2.0491    0.1550 C   0  0  2  0  0  0  0  0  0  0  0  0
   10.8305    3.2265    0.8963 C   0  0  0  0  0  0  0  0  0  0  0  0
   11.6091    2.3192   -1.3433 C   0  0  0  0  0  0  0  0  0  0  0  0
   10.2582    2.2885   -2.0479 C   0  0  0  0  0  0  0  0  0  0  0  0
    9.4976    1.0124   -1.7191 C   0  0  0  0  0  0  0  0  0  0  0  0
    4.8161   -0.8698   -0.0262 N   0  0  0  0  0  0  0  0  0  0  0  0
    3.6608   -1.5174    0.4020 C   0  0  0  0  0  0  0  0  0  0  0  0
    2.4570   -0.9510    0.0667 C   0  0  0  0  0  0  0  0  0  0  0  0
    1.2294   -1.5357    0.4635 C   0  0  0  0  0  0  0  0  0  0  0  0
    0.0913   -0.9309    0.1221 N   0  0  0  0  0  0  0  0  0  0  0  0
    3.6898   -2.7345    1.1509 C   0  0  0  0  0  0  0  0  0  0  0  0
    2.5249   -3.3148    1.5436 C   0  0  0  0  0  0  0  0  0  0  0  0
    1.2643   -2.7444    1.2269 C   0  0  0  0  0  0  0  0  0  0  0  0
    0.0557   -3.3005    1.6243 C   0  0  0  0  0  0  0  0  0  0  0  0
   -1.1350   -2.6747    1.2794 C   0  0  0  0  0  0  0  0  0  0  0  0
   -2.4114   -3.1707    1.6524 C   0  0  0  0  0  0  0  0  0  0  0  0
   -3.5570   -2.5249    1.3084 C   0  0  0  0  0  0  0  0  0  0  0  0
   -1.0638   -1.4694    0.5134 C   0  0  0  0  0  0  0  0  0  0  0  0
   -2.2718   -0.8159    0.1673 C   0  0  0  0  0  0  0  0  0  0  0  0
   -3.4912   -1.3130    0.5531 C   0  0  0  0  0  0  0  0  0  0  0  0
   -4.6239   -0.5981    0.1738 N   0  0  0  0  0  0  0  0  0  0  0  0
   -5.9302   -0.7664    0.5309 C   0  0  0  0  0  0  0  0  0  0  0  0
   -6.3308   -1.6771    1.2294 O   0  0  0  0  0  0  0  0  0  0  0  0
   -6.8346    0.3151   -0.0203 C   0  0  0  0  0  0  0  0  0  0  0  0
   -8.3094    0.0175    0.2008 C   0  0  0  0  0  0  0  0  0  0  0  0
   -9.1598    1.1567   -0.0895 N   0  0  0  0  0  0  0  0  0  0  0  0
  -10.5078    0.9137    0.3966 C   0  0  0  0  0  0  0  0  0  0  0  0
  -11.4208    2.1219    0.2215 C   0  0  2  0  0  0  0  0  0  0  0  0
  -12.8187    1.8128    0.7387 C   0  0  0  0  0  0  0  0  0  0  0  0
  -11.4373    2.5417   -1.2446 C   0  0  0  0  0  0  0  0  0  0  0  0
  -10.0189    2.7393   -1.7581 C   0  0  0  0  0  0  0  0  0  0  0  0
   -9.1710    1.5037   -1.5014 C   0  0  0  0  0  0  0  0  0  0  0  0
    6.8697    0.0278   -1.3239 H   0  0  0  0  0  0  0  0  0  0  0  0
    6.7669    0.9574    0.1529 H   0  0  0  0  0  0  0  0  0  0  0  0
    8.6139   -0.4500    1.1434 H   0  0  0  0  0  0  0  0  0  0  0  0
    8.8458   -1.2143   -0.4209 H   0  0  0  0  0  0  0  0  0  0  0  0
   10.5092    0.5859    1.4225 H   0  0  0  0  0  0  0  0  0  0  0  0
   11.2360   -0.0902   -0.0334 H   0  0  0  0  0  0  0  0  0  0  0  0
   12.4519    1.8727    0.5770 H   0  0  0  0  0  0  0  0  0  0  0  0
   10.7708    3.0261    1.9680 H   0  0  0  0  0  0  0  0  0  0  0  0
   11.4252    4.1325    0.7653 H   0  0  0  0  0  0  0  0  0  0  0  0
    9.8197    3.4339    0.5461 H   0  0  0  0  0  0  0  0  0  0  0  0
   12.1075    3.2775   -1.5111 H   0  0  0  0  0  0  0  0  0  0  0  0
   12.2566    1.5516   -1.7804 H   0  0  0  0  0  0  0  0  0  0  0  0
    9.6540    3.1499   -1.7515 H   0  0  0  0  0  0  0  0  0  0  0  0
   10.3912    2.3587   -3.1298 H   0  0  0  0  0  0  0  0  0  0  0  0
   10.0219    0.1465   -2.1642 H   0  0  0  0  0  0  0  0  0  0  0  0
    8.5129    1.0560   -2.1881 H   0  0  0  0  0  0  0  0  0  0  0  0
    4.6489   -0.0705   -0.6200 H   0  0  0  0  0  0  0  0  0  0  0  0
    2.4185   -0.0308   -0.5051 H   0  0  0  0  0  0  0  0  0  0  0  0
    4.6294   -3.1959    1.4031 H   0  0  0  0  0  0  0  0  0  0  0  0
    2.5528   -4.2360    2.1126 H   0  0  0  0  0  0  0  0  0  0  0  0
    0.0422   -4.2154    2.2064 H   0  0  0  0  0  0  0  0  0  0  0  0
   -2.4675   -4.0871    2.2271 H   0  0  0  0  0  0  0  0  0  0  0  0
   -4.5092   -2.9302    1.6047 H   0  0  0  0  0  0  0  0  0  0  0  0
   -2.2051    0.1000   -0.4085 H   0  0  0  0  0  0  0  0  0  0  0  0
   -4.4334    0.2103   -0.4006 H   0  0  0  0  0  0  0  0  0  0  0  0
   -6.5757    1.2599    0.4697 H   0  0  0  0  0  0  0  0  0  0  0  0
   -6.6036    0.4520   -1.0799 H   0  0  0  0  0  0  0  0  0  0  0  0
   -8.6019   -0.8705   -0.3849 H   0  0  0  0  0  0  0  0  0  0  0  0
   -8.4582   -0.2455    1.2499 H   0  0  0  0  0  0  0  0  0  0  0  0
  -10.9689    0.0469   -0.1146 H   0  0  0  0  0  0  0  0  0  0  0  0
  -10.4493    0.6523    1.4571 H   0  0  0  0  0  0  0  0  0  0  0  0
  -11.0011    2.9461    0.8115 H   0  0  0  0  0  0  0  0  0  0  0  0
  -12.8033    1.5263    1.7918 H   0  0  0  0  0  0  0  0  0  0  0  0
  -13.4757    2.6780    0.6400 H   0  0  0  0  0  0  0  0  0  0  0  0
  -13.2688    0.9908    0.1771 H   0  0  0  0  0  0  0  0  0  0  0  0
  -11.9335    1.7601   -1.8332 H   0  0  0  0  0  0  0  0  0  0  0  0
  -12.0282    3.4524   -1.3744 H   0  0  0  0  0  0  0  0  0  0  0  0
  -10.0195    2.9597   -2.8278 H   0  0  0  0  0  0  0  0  0  0  0  0
   -9.5608    3.5971   -1.2564 H   0  0  0  0  0  0  0  0  0  0  0  0
   -8.1500    1.6973   -1.8347 H   0  0  0  0  0  0  0  0  0  0  0  0
   -9.5494    0.6640   -2.1138 H   0  0  0  0  0  0  0  0  0  0  0  0
  1  2  2  0
 12  2  1  0
  2  3  1  0
  3  4  1  0
  3 39  1  0
  3 40  1  0
  4  5  1  0
  4 41  1  0
  4 42  1  0
  5  6  1  0
  5 11  1  0
  6  7  1  0
  6 43  1  0
  6 44  1  0
  8  7  1  0
  7  9  1  0
  7 45  1  1
  8 46  1  0
  8 47  1  0
  8 48  1  0
 10  9  1  0
  9 49  1  0
  9 50  1  0
 11 10  1  0
 10 51  1  0
 10 52  1  0
 11 53  1  0
 11 54  1  0
 13 12  1  0
 12 55  1  0
 17 13  1  0
 14 13  2  0
 15 14  1  0
 14 56  1  0
 19 15  2  0
 16 15  1  0
 24 16  2  0
 18 17  2  0
 17 57  1  0
 19 18  1  0
 18 58  1  0
 20 19  1  0
 21 20  2  0
 20 59  1  0
 22 21  1  0
 21 24  1  0
 23 22  2  0
 22 60  1  0
 23 26  1  0
 23 61  1  0
 25 24  1  0
 26 25  2  0
 25 62  1  0
 27 26  1  0
 27 28  1  0
 27 63  1  0
 30 28  1  0
 28 29  2  0
 30 31  1  0
 30 64  1  0
 30 65  1  0
 32 31  1  0
 31 66  1  0
 31 67  1  0
 33 32  1  0
 32 38  1  0
 34 33  1  0
 33 68  1  0
 33 69  1  0
 35 34  1  0
 34 36  1  0
 34 70  1  1
 35 71  1  0
 35 72  1  0
 35 73  1  0
 36 37  1  0
 36 74  1  0
 36 75  1  0
 37 38  1  0
 37 76  1  0
 37 77  1  0
 38 78  1  0
 38 79  1  0
M  END
