
     RDKit          3D

 46 49  0  0  0  0  0  0  0  0999 V2000
    1.0231    4.1625    2.8096 C   0  0  0  0  0  0  0  0  0  0  0  0
    0.9643    3.1223    1.8133 N   0  0  0  0  0  0  0  0  0  0  0  0
    1.8623    3.0649    0.8103 C   0  0  0  0  0  0  0  0  0  0  0  0
    2.8191    3.8293    0.7346 O   0  0  0  0  0  0  0  0  0  0  0  0
    1.6830    2.0439   -0.1048 N   0  0  0  0  0  0  0  0  0  0  0  0
    0.4444    1.4042   -0.0522 N   0  0  0  0  0  0  0  0  0  0  0  0
    2.3132    2.1976   -1.4216 C   0  0  2  0  0  0  0  0  0  0  0  0
    1.6644    3.2914   -2.2610 C   0  0  0  0  0  0  0  0  0  0  0  0
    2.2953    0.8637   -2.1666 C   0  0  0  0  0  0  0  0  0  0  0  0
    2.6224   -0.2955   -1.2749 C   0  0  0  0  0  0  0  0  0  0  0  0
    3.8154   -1.0101   -1.4348 C   0  0  0  0  0  0  0  0  0  0  0  0
    4.0400   -2.0659   -0.5859 C   0  0  0  0  0  0  0  0  0  0  0  0
    5.1117   -2.8845   -0.5263 O   0  0  0  0  0  0  0  0  0  0  0  0
    4.7828   -3.9078    0.4077 C   0  0  0  0  0  0  0  0  0  0  0  0
    3.6155   -3.4799    1.0951 O   0  0  0  0  0  0  0  0  0  0  0  0
    3.1275   -2.4280    0.3931 C   0  0  0  0  0  0  0  0  0  0  0  0
    1.9478   -1.7552    0.5636 C   0  0  0  0  0  0  0  0  0  0  0  0
    1.7057   -0.6659   -0.2918 C   0  0  0  0  0  0  0  0  0  0  0  0
    0.4681    0.1229   -0.1237 C   0  0  0  0  0  0  0  0  0  0  0  0
   -0.8179   -0.5835   -0.0217 C   0  0  0  0  0  0  0  0  0  0  0  0
   -1.9112    0.0144    0.6056 C   0  0  0  0  0  0  0  0  0  0  0  0
   -3.1236   -0.6377    0.6893 C   0  0  0  0  0  0  0  0  0  0  0  0
   -4.5492    0.2163    1.5936 Br  0  0  0  0  0  0  0  0  0  0  0  0
   -3.3221   -1.9161    0.1340 C   0  0  0  0  0  0  0  0  0  0  0  0
   -4.4916   -2.6006    0.2371 N   0  0  0  0  0  0  0  0  0  0  0  0
   -2.2146   -2.4952   -0.5069 C   0  0  0  0  0  0  0  0  0  0  0  0
   -0.9982   -1.8526   -0.5764 C   0  0  0  0  0  0  0  0  0  0  0  0
    0.2246    3.9908    3.5262 H   0  0  0  0  0  0  0  0  0  0  0  0
    1.9693    4.1465    3.3499 H   0  0  0  0  0  0  0  0  0  0  0  0
    0.8916    5.1600    2.3849 H   0  0  0  0  0  0  0  0  0  0  0  0
    0.1316    2.5619    1.7487 H   0  0  0  0  0  0  0  0  0  0  0  0
    3.3530    2.4588   -1.2248 H   0  0  0  0  0  0  0  0  0  0  0  0
    1.7244    4.2607   -1.7677 H   0  0  0  0  0  0  0  0  0  0  0  0
    2.1693    3.3788   -3.2241 H   0  0  0  0  0  0  0  0  0  0  0  0
    0.6145    3.0640   -2.4530 H   0  0  0  0  0  0  0  0  0  0  0  0
    1.3141    0.7118   -2.6269 H   0  0  0  0  0  0  0  0  0  0  0  0
    3.0103    0.9259   -2.9880 H   0  0  0  0  0  0  0  0  0  0  0  0
    4.5313   -0.7341   -2.1981 H   0  0  0  0  0  0  0  0  0  0  0  0
    4.5813   -4.8423   -0.1258 H   0  0  0  0  0  0  0  0  0  0  0  0
    1.2404   -2.0382    1.3318 H   0  0  0  0  0  0  0  0  0  0  0  0
   -1.7991    0.9989    1.0396 H   0  0  0  0  0  0  0  0  0  0  0  0
   -5.3497   -2.0940    0.3786 H   0  0  0  0  0  0  0  0  0  0  0  0
   -4.5974   -3.4076   -0.3551 H   0  0  0  0  0  0  0  0  0  0  0  0
   -2.3307   -3.4722   -0.9599 H   0  0  0  0  0  0  0  0  0  0  0  0
   -0.1832   -2.3412   -1.0937 H   0  0  0  0  0  0  0  0  0  0  0  0
    5.6022   -4.0380    1.1141 H   0  0  0  0  0  0  0  0  0  0  0  0
 25 24  1  0
 23 22  1  0
 24 22  1  0
 24 26  2  0
 22 21  2  0
 26 27  1  0
 21 20  1  0
 27 20  2  0
 20 19  1  0
  2  1  1  0
  2  3  1  0
 19  6  2  0
 19 18  1  0
  6  5  1  0
 17 18  2  0
 17 16  1  0
 18 10  1  0
  3  5  1  0
  3  4  2  0
  5  7  1  0
 15 16  1  0
 15 14  1  0
 16 12  2  0
 10  9  1  0
 10 11  2  0
  7  9  1  0
  7  8  1  0
 14 13  1  0
 12 11  1  0
 12 13  1  0
  1 28  1  0
  1 29  1  0
  1 30  1  0
  2 31  1  0
  7 32  1  1
  8 33  1  0
  8 34  1  0
  8 35  1  0
  9 36  1  0
  9 37  1  0
 11 38  1  0
 14 39  1  0
 17 40  1  0
 21 41  1  0
 25 42  1  0
 25 43  1  0
 26 44  1  0
 27 45  1  0
 14 46  1  0
M  END
