
     RDKit          3D

 22 24  0  0  0  0  0  0  0  0999 V2000
   -4.7936   -1.5873   -0.0221 O   0  0  0  0  0  0  0  0  0  0  0  0
   -3.9366   -0.7417   -0.0141 C   0  0  0  0  0  0  0  0  0  0  0  0
   -2.5780   -1.0273    0.0093 N   0  0  0  0  0  0  0  0  0  0  0  0
   -1.8678    0.0429    0.0171 C   0  0  0  0  0  0  0  0  0  0  0  0
   -2.6452    1.5975   -0.0010 S   0  0  0  0  0  0  0  0  0  0  0  0
   -4.2374    0.7539   -0.0268 C   0  0  0  0  0  0  0  0  0  0  0  0
   -0.4233    0.0019    0.0385 C   0  0  0  0  0  0  0  0  0  0  0  0
    0.4178   -1.5204    0.0629 S   0  0  0  0  0  0  0  0  0  0  0  0
    1.9034   -0.6417    0.0733 C   0  0  0  0  0  0  0  0  0  0  0  0
    3.1981   -1.1386    0.0922 C   0  0  0  0  0  0  0  0  0  0  0  0
    1.6296    0.7414    0.0577 C   0  0  0  0  0  0  0  0  0  0  0  0
    0.3071    1.0641    0.0388 N   0  0  0  0  0  0  0  0  0  0  0  0
    2.6944    1.6480    0.0611 C   0  0  0  0  0  0  0  0  0  0  0  0
    3.9804    1.1676    0.0792 C   0  0  0  0  0  0  0  0  0  0  0  0
    4.2381   -0.2192    0.0947 C   0  0  0  0  0  0  0  0  0  0  0  0
    5.4887   -0.6988    0.1112 O   0  0  0  0  0  0  0  0  0  0  0  0
   -4.7957    1.0227   -0.9239 H   0  0  0  0  0  0  0  0  0  0  0  0
   -4.8307    1.0310    0.8450 H   0  0  0  0  0  0  0  0  0  0  0  0
    3.4007   -2.2015    0.1034 H   0  0  0  0  0  0  0  0  0  0  0  0
    2.5015    2.7123    0.0495 H   0  0  0  0  0  0  0  0  0  0  0  0
    4.8110    1.8631    0.0815 H   0  0  0  0  0  0  0  0  0  0  0  0
    6.1329    0.0188    0.1064 H   0  0  0  0  0  0  0  0  0  0  0  0
  1  2  2  0
  2  3  1  0
  2  6  1  0
  3  4  2  0
  4  5  1  0
  4  7  1  0
  5  6  1  0
  6 17  1  0
  6 18  1  0
  7  8  1  0
  7 12  2  0
  8  9  1  0
  9 10  2  0
  9 11  1  0
 10 15  1  0
 10 19  1  0
 11 12  1  0
 11 13  2  0
 13 14  1  0
 13 20  1  0
 14 15  2  0
 14 21  1  0
 15 16  1  0
 16 22  1  0
M  END
