
     RDKit          3D

 45 44  0  0  0  0  0  0  0  0999 V2000
   -0.0951    0.5274    0.0094 C   0  0  0  0  0  0  0  0  0  0  0  0
   -0.2530   -0.3117    1.2685 C   0  0  0  0  0  0  0  0  0  0  0  0
   -0.2535   -0.3053   -1.2539 C   0  0  0  0  0  0  0  0  0  0  0  0
   -0.0717    0.5203   -2.4310 N   0  0  0  0  0  0  0  0  0  0  0  0
   -0.1396   -0.1335   -3.7285 C   0  0  1  0  0  0  0  0  0  0  0  0
    0.0479    0.9320   -4.8132 C   0  0  0  0  0  0  0  0  0  0  0  0
    0.9154   -1.2427   -3.8460 C   0  0  0  0  0  0  0  0  0  0  0  0
   -1.4880   -0.8316   -3.9893 C   0  0  0  0  0  0  0  0  0  0  0  0
   -0.0899    0.5109    2.4503 N   0  0  0  0  0  0  0  0  0  0  0  0
   -0.1388   -0.1551    3.7422 C   0  0  2  0  0  0  0  0  0  0  0  0
   -0.0009    0.9067    4.8377 C   0  0  0  0  0  0  0  0  0  0  0  0
    0.9587   -1.2228    3.8563 C   0  0  0  0  0  0  0  0  0  0  0  0
   -1.4608   -0.9067    3.9906 C   0  0  0  0  0  0  0  0  0  0  0  0
    1.2374    1.5668    4.7591 O   0  0  0  0  0  0  0  0  0  0  0  0
    2.1890   -0.7635    3.3626 O   0  0  0  0  0  0  0  0  0  0  0  0
   -2.5405   -0.0067    3.8991 O   0  0  0  0  0  0  0  0  0  0  0  0
    1.3195    1.5260   -4.7336 O   0  0  0  0  0  0  0  0  0  0  0  0
    2.1616   -0.8370   -3.3446 O   0  0  0  0  0  0  0  0  0  0  0  0
   -2.5311    0.1122   -3.9154 O   0  0  0  0  0  0  0  0  0  0  0  0
   -0.8395    1.3329    0.0112 H   0  0  0  0  0  0  0  0  0  0  0  0
    0.8880    1.0052    0.0112 H   0  0  0  0  0  0  0  0  0  0  0  0
    0.5151   -1.0885    1.2646 H   0  0  0  0  0  0  0  0  0  0  0  0
   -1.2203   -0.8363    1.2271 H   0  0  0  0  0  0  0  0  0  0  0  0
    0.5055   -1.0911   -1.2485 H   0  0  0  0  0  0  0  0  0  0  0  0
   -1.2275   -0.8178   -1.2202 H   0  0  0  0  0  0  0  0  0  0  0  0
   -0.7552    1.2686   -2.4116 H   0  0  0  0  0  0  0  0  0  0  0  0
   -0.1066    0.4496   -5.7894 H   0  0  0  0  0  0  0  0  0  0  0  0
   -0.7448    1.6835   -4.7060 H   0  0  0  0  0  0  0  0  0  0  0  0
    0.5531   -2.1298   -3.3071 H   0  0  0  0  0  0  0  0  0  0  0  0
    0.9782   -1.5365   -4.9035 H   0  0  0  0  0  0  0  0  0  0  0  0
   -1.4594   -1.3237   -4.9721 H   0  0  0  0  0  0  0  0  0  0  0  0
   -1.6230   -1.6281   -3.2476 H   0  0  0  0  0  0  0  0  0  0  0  0
   -0.7930    1.2408    2.4371 H   0  0  0  0  0  0  0  0  0  0  0  0
   -0.1252    0.4046    5.8081 H   0  0  0  0  0  0  0  0  0  0  0  0
   -0.8324    1.6168    4.7425 H   0  0  0  0  0  0  0  0  0  0  0  0
    1.0296   -1.5214    4.9120 H   0  0  0  0  0  0  0  0  0  0  0  0
    0.6327   -2.1193    3.3095 H   0  0  0  0  0  0  0  0  0  0  0  0
   -1.5561   -1.7119    3.2517 H   0  0  0  0  0  0  0  0  0  0  0  0
   -1.4237   -1.3918    4.9766 H   0  0  0  0  0  0  0  0  0  0  0  0
    1.2384    2.2516    5.4335 H   0  0  0  0  0  0  0  0  0  0  0  0
    2.7939   -1.5104    3.3686 H   0  0  0  0  0  0  0  0  0  0  0  0
   -3.3560   -0.5094    3.9755 H   0  0  0  0  0  0  0  0  0  0  0  0
    1.3450    2.2340   -5.3831 H   0  0  0  0  0  0  0  0  0  0  0  0
    2.7200   -1.6183   -3.3048 H   0  0  0  0  0  0  0  0  0  0  0  0
   -3.3665   -0.3601   -3.9673 H   0  0  0  0  0  0  0  0  0  0  0  0
  1  2  1  0
  1  3  1  0
  1 20  1  0
  1 21  1  0
  2  9  1  0
  2 22  1  0
  2 23  1  0
  3  4  1  0
  3 24  1  0
  3 25  1  0
  5  4  1  1
  4 26  1  0
  5  6  1  0
  5  7  1  0
  5  8  1  0
  6 17  1  0
  6 27  1  0
  6 28  1  0
  7 18  1  0
  7 29  1  0
  7 30  1  0
  8 19  1  0
  8 31  1  0
  8 32  1  0
 10  9  1  6
  9 33  1  0
 10 11  1  0
 10 12  1  0
 10 13  1  0
 11 14  1  0
 11 34  1  0
 11 35  1  0
 12 15  1  0
 12 36  1  0
 12 37  1  0
 13 16  1  0
 13 38  1  0
 13 39  1  0
 14 40  1  0
 15 41  1  0
 16 42  1  0
 17 43  1  0
 18 44  1  0
 19 45  1  0
M  END
