
     RDKit          3D

 50 53  0  0  0  0  0  0  0  0999 V2000
    0.7738   -0.0433   -0.4098 C   0  0  0  0  0  0  0  0  0  0  0  0
    1.2015   -0.9750   -1.0755 O   0  0  0  0  0  0  0  0  0  0  0  0
   -0.6995    0.1638   -0.1508 C   0  0  0  0  0  0  0  0  0  0  0  0
   -1.5430   -0.9493   -0.7569 C   0  0  0  0  0  0  0  0  0  0  0  0
   -2.9497   -0.7519   -0.4784 N   0  0  0  0  0  0  0  0  0  0  0  0
   -3.7984    0.0025   -1.2735 C   0  0  0  0  0  0  0  0  0  0  0  0
   -3.5961   -1.2568    0.6394 C   0  0  0  0  0  0  0  0  0  0  0  0
   -3.4816    0.5656   -2.2906 O   0  0  0  0  0  0  0  0  0  0  0  0
   -3.0812   -1.9265    1.4986 O   0  0  0  0  0  0  0  0  0  0  0  0
   -5.1242   -0.0417   -0.6132 C   0  0  0  0  0  0  0  0  0  0  0  0
   -6.3228    0.5305   -0.9810 C   0  0  0  0  0  0  0  0  0  0  0  0
   -7.4153    0.3119   -0.1431 C   0  0  0  0  0  0  0  0  0  0  0  0
   -7.2937   -0.4530    1.0134 C   0  0  0  0  0  0  0  0  0  0  0  0
   -6.0751   -1.0255    1.3747 C   0  0  0  0  0  0  0  0  0  0  0  0
   -5.0028   -0.8017    0.5384 C   0  0  0  0  0  0  0  0  0  0  0  0
    1.6097    0.8597    0.1356 N   0  0  0  0  0  0  0  0  0  0  0  0
    1.2387    2.0110    0.9283 C   0  0  0  0  0  0  0  0  0  0  0  0
    3.0462    0.7034   -0.0152 C   0  0  1  0  0  0  0  0  0  0  0  0
    3.6285    1.9042    0.7486 C   0  0  0  0  0  0  0  0  0  0  0  0
    2.4744    2.8789    0.7836 C   0  0  1  0  0  0  0  0  0  0  0  0
    3.5148   -0.6032    0.6224 C   0  0  0  0  0  0  0  0  0  0  0  0
    2.9271   -1.0583    1.5941 O   0  0  0  0  0  0  0  0  0  0  0  0
    2.4113    3.5779   -0.3888 F   0  0  0  0  0  0  0  0  0  0  0  0
    2.5774    3.8058    1.7664 F   0  0  0  0  0  0  0  0  0  0  0  0
    4.6134   -1.1629    0.1107 N   0  0  0  0  0  0  0  0  0  0  0  0
    5.1669   -2.3903    0.6789 C   0  0  0  0  0  0  0  0  0  0  0  0
    5.4031   -0.6695   -1.0169 C   0  0  0  0  0  0  0  0  0  0  0  0
    6.6993   -1.4626   -0.9037 C   0  0  0  0  0  0  0  0  0  0  0  0
    6.2357   -2.7966   -0.3283 C   0  0  0  0  0  0  0  0  0  0  0  0
   -0.8700    0.2202    0.9283 H   0  0  0  0  0  0  0  0  0  0  0  0
   -1.0082    1.1311   -0.5587 H   0  0  0  0  0  0  0  0  0  0  0  0
   -1.4151   -0.9945   -1.8367 H   0  0  0  0  0  0  0  0  0  0  0  0
   -1.2555   -1.9192   -0.3559 H   0  0  0  0  0  0  0  0  0  0  0  0
   -6.4174    1.1253   -1.8798 H   0  0  0  0  0  0  0  0  0  0  0  0
   -8.3747    0.7438   -0.3942 H   0  0  0  0  0  0  0  0  0  0  0  0
   -8.1611   -0.6042    1.6417 H   0  0  0  0  0  0  0  0  0  0  0  0
   -5.9820   -1.6198    2.2739 H   0  0  0  0  0  0  0  0  0  0  0  0
    0.3454    2.5091    0.5516 H   0  0  0  0  0  0  0  0  0  0  0  0
    1.0793    1.7571    1.9806 H   0  0  0  0  0  0  0  0  0  0  0  0
    3.3108    0.7512   -1.0736 H   0  0  0  0  0  0  0  0  0  0  0  0
    3.8786    1.6302    1.7752 H   0  0  0  0  0  0  0  0  0  0  0  0
    4.5191    2.3157    0.2760 H   0  0  0  0  0  0  0  0  0  0  0  0
    5.5982   -2.1911    1.6638 H   0  0  0  0  0  0  0  0  0  0  0  0
    4.3924   -3.1473    0.8024 H   0  0  0  0  0  0  0  0  0  0  0  0
    4.8996   -0.8794   -1.9650 H   0  0  0  0  0  0  0  0  0  0  0  0
    5.5741    0.4053   -0.9532 H   0  0  0  0  0  0  0  0  0  0  0  0
    7.2042   -1.5575   -1.8641 H   0  0  0  0  0  0  0  0  0  0  0  0
    7.3826   -0.9663   -0.2116 H   0  0  0  0  0  0  0  0  0  0  0  0
    7.0384   -3.3693    0.1339 H   0  0  0  0  0  0  0  0  0  0  0  0
    5.7963   -3.4134   -1.1155 H   0  0  0  0  0  0  0  0  0  0  0  0
  1  3  1  0
  2  1  2  0
  3 30  1  0
  3 31  1  0
  4  3  1  0
  4  5  1  0
  4 32  1  0
  4 33  1  0
  5  6  1  0
  5  7  1  0
  6 10  1  0
  7 15  1  0
  8  6  2  0
  9  7  2  0
 10 15  2  0
 10 11  1  0
 11 12  2  0
 11 34  1  0
 12 13  1  0
 12 35  1  0
 13 36  1  0
 14 13  2  0
 14 37  1  0
 15 14  1  0
 16 17  1  0
 17 38  1  0
 17 39  1  0
 18 16  1  0
 18 19  1  0
 18 40  1  6
 19 20  1  0
 19 41  1  0
 19 42  1  0
 20 17  1  0
 20 23  1  6
 21 18  1  0
 21 22  2  0
 24 20  1  0
 25 26  1  0
 25 27  1  0
 26 29  1  0
 27 28  1  0
 28 29  1  0
 26 43  1  0
 26 44  1  0
 27 45  1  0
 27 46  1  0
 28 47  1  0
 28 48  1  0
 29 49  1  0
 29 50  1  0
  1 16  1  0
 21 25  1  0
M  END
