
     RDKit          3D

 40 40  0  0  0  0  0  0  0  0999 V2000
   -5.2007    0.8873   -0.0774 C   0  0  0  0  0  0  0  0  0  0  0  0
   -5.9805    1.8277   -0.1213 O   0  0  0  0  0  0  0  0  0  0  0  0
   -3.7792    1.0700   -0.3019 C   0  0  0  0  0  0  0  0  0  0  0  0
   -2.8825    0.0557   -0.2311 C   0  0  0  0  0  0  0  0  0  0  0  0
   -3.3126   -1.3655   -0.0265 C   0  0  0  0  0  0  0  0  0  0  0  0
   -4.7784   -1.5551   -0.3905 C   0  0  0  0  0  0  0  0  0  0  0  0
   -5.6578   -0.5069    0.2691 C   0  0  0  0  0  0  0  0  0  0  0  0
   -1.5473    0.3624   -0.3867 N   0  0  0  0  0  0  0  0  0  0  0  0
   -0.4355   -0.4073   -0.1392 C   0  0  0  0  0  0  0  0  0  0  0  0
   -0.4860   -1.5194    0.3407 O   0  0  0  0  0  0  0  0  0  0  0  0
    0.8575    0.2631   -0.5411 C   0  0  0  0  0  0  0  0  0  0  0  0
    2.0846   -0.3259    0.1369 C   0  0  0  0  0  0  0  0  0  0  0  0
    3.3740    0.3257   -0.3468 C   0  0  0  0  0  0  0  0  0  0  0  0
    4.6116   -0.2533    0.3260 C   0  0  0  0  0  0  0  0  0  0  0  0
    5.9138    0.3587   -0.1736 C   0  0  0  0  0  0  0  0  0  0  0  0
    7.1488   -0.2306    0.4968 C   0  0  0  0  0  0  0  0  0  0  0  0
    8.4490    0.3728   -0.0156 C   0  0  0  0  0  0  0  0  0  0  0  0
   -3.4368    2.0840   -0.4828 H   0  0  0  0  0  0  0  0  0  0  0  0
   -2.6967   -2.0343   -0.6249 H   0  0  0  0  0  0  0  0  0  0  0  0
   -3.1401   -1.6453    1.0171 H   0  0  0  0  0  0  0  0  0  0  0  0
   -4.8918   -1.4957   -1.4763 H   0  0  0  0  0  0  0  0  0  0  0  0
   -5.0953   -2.5553   -0.0946 H   0  0  0  0  0  0  0  0  0  0  0  0
   -5.6047   -0.6089    1.3598 H   0  0  0  0  0  0  0  0  0  0  0  0
   -6.7061   -0.6253   -0.0082 H   0  0  0  0  0  0  0  0  0  0  0  0
   -1.3604    1.3184   -0.6547 H   0  0  0  0  0  0  0  0  0  0  0  0
    0.9460    0.1621   -1.6294 H   0  0  0  0  0  0  0  0  0  0  0  0
    0.7973    1.3387   -0.3513 H   0  0  0  0  0  0  0  0  0  0  0  0
    1.9991   -0.2055    1.2207 H   0  0  0  0  0  0  0  0  0  0  0  0
    2.1326   -1.4008   -0.0517 H   0  0  0  0  0  0  0  0  0  0  0  0
    3.4582    0.2013   -1.4320 H   0  0  0  0  0  0  0  0  0  0  0  0
    3.3324    1.4059   -0.1680 H   0  0  0  0  0  0  0  0  0  0  0  0
    4.5355   -0.1125    1.4099 H   0  0  0  0  0  0  0  0  0  0  0  0
    4.6365   -1.3368    0.1642 H   0  0  0  0  0  0  0  0  0  0  0  0
    5.9884    0.2174   -1.2577 H   0  0  0  0  0  0  0  0  0  0  0  0
    5.8944    1.4422   -0.0117 H   0  0  0  0  0  0  0  0  0  0  0  0
    7.0773   -0.0839    1.5790 H   0  0  0  0  0  0  0  0  0  0  0  0
    7.1614   -1.3137    0.3399 H   0  0  0  0  0  0  0  0  0  0  0  0
    8.5600    0.2144   -1.0899 H   0  0  0  0  0  0  0  0  0  0  0  0
    8.4821    1.4495    0.1611 H   0  0  0  0  0  0  0  0  0  0  0  0
    9.3172   -0.0690    0.4749 H   0  0  0  0  0  0  0  0  0  0  0  0
  1  2  2  0
  1  3  1  0
  1  7  1  0
  3  4  2  0
  4  5  1  0
  4  8  1  0
  5  6  1  0
  6  7  1  0
  8  9  1  0
  9 10  2  0
  9 11  1  0
 11 12  1  0
 12 13  1  0
 13 14  1  0
 14 15  1  0
 15 16  1  0
 16 17  1  0
  3 18  1  0
  5 19  1  0
  5 20  1  0
  6 21  1  0
  6 22  1  0
  7 23  1  0
  7 24  1  0
  8 25  1  0
 11 26  1  0
 11 27  1  0
 12 28  1  0
 12 29  1  0
 13 30  1  0
 13 31  1  0
 14 32  1  0
 14 33  1  0
 15 34  1  0
 15 35  1  0
 16 36  1  0
 16 37  1  0
 17 38  1  0
 17 39  1  0
 17 40  1  0
M  END
