
     RDKit          3D

 60 63  0  0  0  0  0  0  0  0999 V2000
   -2.3715    1.7190    0.0717 C   0  0  0  0  0  0  0  0  0  0  0  0
   -1.0294    2.2915   -0.0526 C   0  0  0  0  0  0  0  0  0  0  0  0
    3.0818    1.1592   -0.1509 C   0  0  1  0  0  0  0  0  0  0  0  0
    5.7731    0.5698    1.1420 C   0  0  0  0  0  0  0  0  0  0  0  0
    6.2582   -0.7649   -0.7612 C   0  0  0  0  0  0  0  0  0  0  0  0
    0.7736    3.5487    0.0725 C   0  0  0  0  0  0  0  0  0  0  0  0
   -0.5431    3.5132    0.4599 C   0  0  0  0  0  0  0  0  0  0  0  0
   -7.2252    0.6787    0.8612 C   0  0  0  0  0  0  0  0  0  0  0  0
   -4.9234    0.5812    0.3222 C   0  0  0  0  0  0  0  0  0  0  0  0
   -3.8362   -0.2064   -0.1148 C   0  0  0  0  0  0  0  0  0  0  0  0
   -4.1315   -1.4922   -0.3855 O   0  0  0  0  0  0  0  0  0  0  0  0
   -3.0994   -2.3866   -0.7638 C   0  0  2  0  0  0  0  0  0  0  0  0
   -3.7077   -3.6879   -1.2653 C   0  0  0  0  0  0  0  0  0  0  0  0
   -2.5302   -4.6694   -1.2355 C   0  0  0  0  0  0  0  0  0  0  0  0
   -1.5452   -4.1170   -0.1739 C   0  0  0  0  0  0  0  0  0  0  0  0
   -2.1956   -2.8435    0.3796 C   0  0  0  0  0  0  0  0  0  0  0  0
   -2.5853    0.3684   -0.2363 C   0  0  0  0  0  0  0  0  0  0  0  0
   -3.4446    2.4814    0.5020 C   0  0  0  0  0  0  0  0  0  0  0  0
   -4.7115    1.9157    0.6254 C   0  0  0  0  0  0  0  0  0  0  0  0
   -0.0706    1.6477   -0.7013 N   0  0  0  0  0  0  0  0  0  0  0  0
    1.0059    2.4190   -0.6216 N   0  0  0  0  0  0  0  0  0  0  0  0
    2.2649    1.9678   -1.1611 C   0  0  0  0  0  0  0  0  0  0  0  0
    2.3499    0.0952    0.3938 O   0  0  0  0  0  0  0  0  0  0  0  0
    4.3779    0.7121   -0.8241 C   0  0  0  0  0  0  0  0  0  0  0  0
    5.2020   -0.1339    0.0087 N   0  0  0  0  0  0  0  0  0  0  0  0
    6.6032   -0.3808    1.9832 C   0  0  0  0  0  0  0  0  0  0  0  0
    7.6216   -0.9970    1.2271 O   0  0  0  0  0  0  0  0  0  0  0  0
    7.0743   -1.6860    0.1248 C   0  0  0  0  0  0  0  0  0  0  0  0
    3.3117    1.8177    0.6928 H   0  0  0  0  0  0  0  0  0  0  0  0
    4.9797    0.9761    1.7726 H   0  0  0  0  0  0  0  0  0  0  0  0
    5.8165   -1.3552   -1.5682 H   0  0  0  0  0  0  0  0  0  0  0  0
    6.9259   -0.0221   -1.2322 H   0  0  0  0  0  0  0  0  0  0  0  0
    1.5458    4.2833    0.2360 H   0  0  0  0  0  0  0  0  0  0  0  0
   -1.0713    4.2575    1.0323 H   0  0  0  0  0  0  0  0  0  0  0  0
   -8.0655   -0.0112    0.8671 H   0  0  0  0  0  0  0  0  0  0  0  0
   -7.0811    1.0659    1.8735 H   0  0  0  0  0  0  0  0  0  0  0  0
   -7.4625    1.5142    0.1970 H   0  0  0  0  0  0  0  0  0  0  0  0
   -2.4944   -1.9414   -1.5651 H   0  0  0  0  0  0  0  0  0  0  0  0
   -4.4910   -4.0053   -0.5710 H   0  0  0  0  0  0  0  0  0  0  0  0
   -4.1594   -3.5922   -2.2535 H   0  0  0  0  0  0  0  0  0  0  0  0
   -2.8631   -5.6803   -1.0021 H   0  0  0  0  0  0  0  0  0  0  0  0
   -2.0468   -4.7152   -2.2122 H   0  0  0  0  0  0  0  0  0  0  0  0
   -1.3443   -4.8376    0.6184 H   0  0  0  0  0  0  0  0  0  0  0  0
   -0.5855   -3.8813   -0.6356 H   0  0  0  0  0  0  0  0  0  0  0  0
   -1.4628   -2.0979    0.6889 H   0  0  0  0  0  0  0  0  0  0  0  0
   -2.8203   -3.0713    1.2480 H   0  0  0  0  0  0  0  0  0  0  0  0
   -1.7386   -0.2205   -0.5611 H   0  0  0  0  0  0  0  0  0  0  0  0
   -3.3165    3.5293    0.7413 H   0  0  0  0  0  0  0  0  0  0  0  0
   -5.5279    2.5405    0.9624 H   0  0  0  0  0  0  0  0  0  0  0  0
    2.8331    2.8404   -1.4852 H   0  0  0  0  0  0  0  0  0  0  0  0
    2.0479    1.3703   -2.0487 H   0  0  0  0  0  0  0  0  0  0  0  0
    2.1326   -0.5271   -0.3087 H   0  0  0  0  0  0  0  0  0  0  0  0
    4.1225    0.1479   -1.7282 H   0  0  0  0  0  0  0  0  0  0  0  0
    4.9211    1.6102   -1.1669 H   0  0  0  0  0  0  0  0  0  0  0  0
    7.0835    0.1642    2.7971 H   0  0  0  0  0  0  0  0  0  0  0  0
    5.9429   -1.1396    2.4270 H   0  0  0  0  0  0  0  0  0  0  0  0
    6.4398   -2.5159    0.4680 H   0  0  0  0  0  0  0  0  0  0  0  0
    7.9048   -2.1107   -0.4411 H   0  0  0  0  0  0  0  0  0  0  0  0
   -6.1057   -0.0557    0.4115 O   0  0  0  0  0  0  0  0  0  0  0  0
    6.3956    1.4227    0.8181 H   0  0  0  0  0  0  0  0  0  0  0  0
 14 15  1  0
 14 13  1  0
 27 28  1  0
 27 26  1  0
 15 16  1  0
  3 23  1  0
  3 22  1  0
  3 24  1  0
  5 25  1  0
  5 28  1  0
 25 24  1  0
 25  4  1  0
 22 21  1  0
 26  4  1  0
 16 12  1  0
 13 12  1  0
 21 20  1  0
 21  6  1  0
 12 11  1  0
 20  2  2  0
  6  7  2  0
  2  7  1  0
  2  1  1  0
 11 10  1  0
 17  1  2  0
 17 10  1  0
  1 18  1  0
 10  9  2  0
 18 19  2  0
  9 59  1  0
  9 19  1  0
 59  8  1  0
  3 29  1  1
  4 60  1  0
  4 30  1  0
  5 31  1  0
  5 32  1  0
  6 33  1  0
  7 34  1  0
  8 35  1  0
  8 36  1  0
  8 37  1  0
 12 38  1  6
 13 39  1  0
 13 40  1  0
 14 41  1  0
 14 42  1  0
 15 43  1  0
 15 44  1  0
 16 45  1  0
 16 46  1  0
 17 47  1  0
 18 48  1  0
 19 49  1  0
 22 50  1  0
 22 51  1  0
 23 52  1  0
 24 53  1  0
 24 54  1  0
 26 55  1  0
 26 56  1  0
 28 57  1  0
 28 58  1  0
M  END
