
     RDKit          3D

 47 47  0  0  0  0  0  0  0  0999 V2000
   -4.3965   -3.7403    1.1540 O   0  0  0  0  0  0  0  0  0  0  0  0
   -3.7586   -2.9955    0.4574 C   0  0  0  0  0  0  0  0  0  0  0  0
   -2.7074   -3.3417   -0.2564 O   0  0  0  0  0  0  0  0  0  0  0  0
   -4.0597   -1.5184    0.3424 C   0  0  0  0  0  0  0  0  0  0  0  0
   -3.0369   -0.7736    0.3922 N   0  0  0  0  0  0  0  0  0  0  0  0
   -5.4654   -1.0819    0.2811 C   0  0  0  0  0  0  0  0  0  0  0  0
   -6.4501   -1.8889   -0.1147 C   0  0  0  0  0  0  0  0  0  0  0  0
   -5.7096    0.3491    0.6367 C   0  0  0  0  0  0  0  0  0  0  0  0
   -4.5855    1.3991   -0.3273 S   0  0  0  0  0  0  0  0  0  0  0  0
   -3.0728    0.6549    0.3644 C   0  0  2  0  0  0  0  0  0  0  0  0
   -1.8568    1.1455   -0.4432 C   0  0  1  0  0  0  0  0  0  0  0  0
   -1.7830    2.6640   -0.3229 C   0  0  0  0  0  0  0  0  0  0  0  0
   -1.4284    3.2331    0.6749 O   0  0  0  0  0  0  0  0  0  0  0  0
   -0.6734    0.5471    0.1089 N   0  0  0  0  0  0  0  0  0  0  0  0
    0.5498    0.8896   -0.3440 C   0  0  0  0  0  0  0  0  0  0  0  0
    0.6968    1.8089   -1.1354 O   0  0  0  0  0  0  0  0  0  0  0  0
    1.6879    0.0634    0.2078 C   0  0  0  0  0  0  0  0  0  0  0  0
    3.0669    0.5497   -0.2061 C   0  0  0  0  0  0  0  0  0  0  0  0
    4.1674   -0.3172    0.3929 C   0  0  0  0  0  0  0  0  0  0  0  0
    5.5580    0.1674    0.0080 C   0  0  0  0  0  0  0  0  0  0  0  0
    6.6728   -0.7366    0.5531 C   0  0  1  0  0  0  0  0  0  0  0  0
    6.5906   -2.0514   -0.0356 N   0  0  0  0  0  0  0  0  0  0  0  0
    8.0201   -0.0596    0.3402 C   0  0  0  0  0  0  0  0  0  0  0  0
    8.8336   -0.3951   -0.4846 O   0  0  0  0  0  0  0  0  0  0  0  0
    8.2023    0.9653    1.1664 O   0  0  0  0  0  0  0  0  0  0  0  0
   -2.2268    3.2639   -1.4140 O   0  0  0  0  0  0  0  0  0  0  0  0
   -2.5106   -4.2824   -0.1253 H   0  0  0  0  0  0  0  0  0  0  0  0
   -2.9535    0.9981    1.3989 H   0  0  0  0  0  0  0  0  0  0  0  0
   -6.2983   -2.9227   -0.3891 H   0  0  0  0  0  0  0  0  0  0  0  0
   -7.4654   -1.5207   -0.1825 H   0  0  0  0  0  0  0  0  0  0  0  0
   -6.7268    0.6525    0.3950 H   0  0  0  0  0  0  0  0  0  0  0  0
   -5.5445    0.5320    1.7006 H   0  0  0  0  0  0  0  0  0  0  0  0
   -1.9953    0.8638   -1.4924 H   0  0  0  0  0  0  0  0  0  0  0  0
   -0.7955   -0.3051    0.6361 H   0  0  0  0  0  0  0  0  0  0  0  0
   -2.2326    4.2257   -1.2900 H   0  0  0  0  0  0  0  0  0  0  0  0
    1.6040    0.0446    1.2988 H   0  0  0  0  0  0  0  0  0  0  0  0
    1.5420   -0.9732   -0.1142 H   0  0  0  0  0  0  0  0  0  0  0  0
    3.1524    0.5443   -1.2958 H   0  0  0  0  0  0  0  0  0  0  0  0
    3.2040    1.5872    0.1102 H   0  0  0  0  0  0  0  0  0  0  0  0
    4.0786   -0.3188    1.4848 H   0  0  0  0  0  0  0  0  0  0  0  0
    4.0390   -1.3536    0.0722 H   0  0  0  0  0  0  0  0  0  0  0  0
    5.6473    0.2168   -1.0830 H   0  0  0  0  0  0  0  0  0  0  0  0
    5.6979    1.1873    0.3738 H   0  0  0  0  0  0  0  0  0  0  0  0
    6.5288   -0.8346    1.6345 H   0  0  0  0  0  0  0  0  0  0  0  0
    6.7896   -2.0014   -1.0272 H   0  0  0  0  0  0  0  0  0  0  0  0
    7.2894   -2.6646    0.3637 H   0  0  0  0  0  0  0  0  0  0  0  0
    9.0577    1.3853    0.9910 H   0  0  0  0  0  0  0  0  0  0  0  0
  1  2  2  0
  2  3  1  0
  2  4  1  0
  4  5  2  0
  4  6  1  0
  5 10  1  0
  6  7  2  0
  6  8  1  0
  8  9  1  0
  9 10  1  0
 10 11  1  0
 11 12  1  0
 11 14  1  0
 12 13  2  0
 12 26  1  0
 14 15  1  0
 15 16  2  0
 15 17  1  0
 17 18  1  0
 18 19  1  0
 19 20  1  0
 20 21  1  0
 21 22  1  0
 21 23  1  0
 23 24  2  0
 23 25  1  0
  3 27  1  0
 10 28  1  1
  7 29  1  0
  7 30  1  0
  8 31  1  0
  8 32  1  0
 11 33  1  6
 14 34  1  0
 26 35  1  0
 17 36  1  0
 17 37  1  0
 18 38  1  0
 18 39  1  0
 19 40  1  0
 19 41  1  0
 20 42  1  0
 20 43  1  0
 21 44  1  1
 22 45  1  0
 22 46  1  0
 25 47  1  0
M  END
