
     RDKit          3D

 25 25  0  0  0  0  0  0  0  0999 V2000
   -0.4232    1.1517    0.0134 C   0  0  0  0  0  0  0  0  0  0  0  0
   -1.2011    2.1239    0.3127 N   0  0  0  0  0  0  0  0  0  0  0  0
    0.9729    1.2458    0.5750 C   0  0  2  0  0  0  0  0  0  0  0  0
   -0.6965    0.1459   -0.8602 N   0  0  0  0  0  0  0  0  0  0  0  0
   -2.4313    2.0091   -0.3203 O   0  0  0  0  0  0  0  0  0  0  0  0
    1.8464    1.8453   -0.3515 O   0  0  0  0  0  0  0  0  0  0  0  0
    1.5069   -0.1395    0.9316 C   0  0  1  0  0  0  0  0  0  0  0  0
    0.8243   -0.6444    2.0526 O   0  0  0  0  0  0  0  0  0  0  0  0
    1.3053   -1.1495   -0.2019 C   0  0  2  0  0  0  0  0  0  0  0  0
    2.1238   -0.8560   -1.3073 O   0  0  0  0  0  0  0  0  0  0  0  0
   -0.1342   -1.1879   -0.7092 C   0  0  1  0  0  0  0  0  0  0  0  0
   -1.0471   -2.0812    0.1249 C   0  0  0  0  0  0  0  0  0  0  0  0
   -2.2591   -2.2225   -0.5877 O   0  0  0  0  0  0  0  0  0  0  0  0
    0.9170    1.8420    1.4954 H   0  0  0  0  0  0  0  0  0  0  0  0
   -1.6417    0.1363   -1.2148 H   0  0  0  0  0  0  0  0  0  0  0  0
   -2.9419    2.7404    0.0384 H   0  0  0  0  0  0  0  0  0  0  0  0
    1.5783    2.7637   -0.4573 H   0  0  0  0  0  0  0  0  0  0  0  0
    2.5844   -0.0513    1.1364 H   0  0  0  0  0  0  0  0  0  0  0  0
    0.9866   -0.0631    2.8028 H   0  0  0  0  0  0  0  0  0  0  0  0
    1.5435   -2.1449    0.2005 H   0  0  0  0  0  0  0  0  0  0  0  0
    3.0260   -0.7258   -0.9988 H   0  0  0  0  0  0  0  0  0  0  0  0
   -0.0902   -1.6375   -1.7071 H   0  0  0  0  0  0  0  0  0  0  0  0
   -0.5579   -3.0527    0.2762 H   0  0  0  0  0  0  0  0  0  0  0  0
   -1.2146   -1.6392    1.1097 H   0  0  0  0  0  0  0  0  0  0  0  0
   -2.9448   -2.4861    0.0312 H   0  0  0  0  0  0  0  0  0  0  0  0
  1  2  2  0
  1  3  1  0
  1  4  1  0
  2  5  1  0
  3  6  1  0
  3  7  1  0
  3 14  1  1
  4 11  1  0
  4 15  1  0
  5 16  1  0
  6 17  1  0
  7  8  1  0
  7  9  1  0
  7 18  1  1
  8 19  1  0
  9 10  1  0
  9 11  1  0
  9 20  1  1
 10 21  1  0
 11 12  1  0
 11 22  1  6
 12 13  1  0
 12 23  1  0
 12 24  1  0
 13 25  1  0
M  END
