
     RDKit          3D

 48 49  0  0  0  0  0  0  0  0999 V2000
    2.4429   -0.7332    0.2888 C   0  0  0  0  0  0  0  0  0  0  0  0
    3.5176   -0.9061    1.1835 C   0  0  0  0  0  0  0  0  0  0  0  0
    3.3964   -0.5880    2.4548 N   0  0  0  0  0  0  0  0  0  0  0  0
    2.2458   -0.0994    2.9232 C   0  0  0  0  0  0  0  0  0  0  0  0
    1.2342   -0.2115    0.7646 C   0  0  0  0  0  0  0  0  0  0  0  0
    0.1059   -0.0165   -0.1418 C   0  0  0  0  0  0  0  0  0  0  0  0
    0.2178   -0.2682   -1.3826 N   0  0  0  0  0  0  0  0  0  0  0  0
   -0.8901   -0.1507   -2.3086 C   0  0  1  0  0  0  0  0  0  0  0  0
   -2.1779    0.4074   -1.7046 C   0  0  0  0  0  0  0  0  0  0  0  0
   -0.4374    0.6318   -3.5394 C   0  0  0  0  0  0  0  0  0  0  0  0
   -1.1454   -1.9313   -2.7595 P   0  0  1  0  0  0  0  0  0  0  0  0
   -1.4187   -2.8125   -1.6026 O   0  0  0  0  0  0  0  0  0  0  0  0
   -2.2945   -1.8359   -3.8702 O   0  0  0  0  0  0  0  0  0  0  0  0
    0.1972   -2.3935   -3.5063 O   0  0  0  0  0  0  0  0  0  0  0  0
    2.6287   -1.0803   -0.9798 O   0  0  0  0  0  0  0  0  0  0  0  0
    4.8212   -1.4530    0.6932 C   0  0  0  0  0  0  0  0  0  0  0  0
    1.1353    0.1079    2.1315 C   0  0  0  0  0  0  0  0  0  0  0  0
   -0.1522    0.6493    2.6890 C   0  0  0  0  0  0  0  0  0  0  0  0
   -0.0229    0.8149    4.0938 O   0  0  0  0  0  0  0  0  0  0  0  0
   -1.1750    1.5769    4.9027 P   0  0  1  0  0  0  0  0  0  0  0  0
   -2.5595    1.2190    4.5462 O   0  0  0  0  0  0  0  0  0  0  0  0
   -0.6465    1.2093    6.3580 O   0  0  0  0  0  0  0  0  0  0  0  0
   -0.9447    3.1395    4.6728 O   0  0  0  0  0  0  0  0  0  0  0  0
   -1.3653    1.0400   -4.4996 C   0  0  0  0  0  0  0  0  0  0  0  0
   -0.9644    1.7385   -5.6283 C   0  0  0  0  0  0  0  0  0  0  0  0
    0.3752    2.0413   -5.8283 C   0  0  0  0  0  0  0  0  0  0  0  0
    1.3064    1.6405   -4.8833 C   0  0  0  0  0  0  0  0  0  0  0  0
    0.9054    0.9423   -3.7515 C   0  0  0  0  0  0  0  0  0  0  0  0
    2.2286    0.1306    3.9798 H   0  0  0  0  0  0  0  0  0  0  0  0
   -0.8241    0.3533    0.2845 H   0  0  0  0  0  0  0  0  0  0  0  0
   -2.0184    1.4266   -1.3493 H   0  0  0  0  0  0  0  0  0  0  0  0
   -2.9842    0.4363   -2.4320 H   0  0  0  0  0  0  0  0  0  0  0  0
   -2.5291   -0.1994   -0.8699 H   0  0  0  0  0  0  0  0  0  0  0  0
   -2.7634   -2.6675   -4.0296 H   0  0  0  0  0  0  0  0  0  0  0  0
    0.4187   -1.9170   -4.3175 H   0  0  0  0  0  0  0  0  0  0  0  0
    1.7807   -0.8997   -1.4653 H   0  0  0  0  0  0  0  0  0  0  0  0
    4.7079   -2.4617    0.2918 H   0  0  0  0  0  0  0  0  0  0  0  0
    5.2384   -0.8379   -0.1058 H   0  0  0  0  0  0  0  0  0  0  0  0
    5.5387   -1.4881    1.5098 H   0  0  0  0  0  0  0  0  0  0  0  0
   -0.3928    1.6043    2.2097 H   0  0  0  0  0  0  0  0  0  0  0  0
   -0.9733   -0.0418    2.4789 H   0  0  0  0  0  0  0  0  0  0  0  0
   -1.2284    1.4949    7.0752 H   0  0  0  0  0  0  0  0  0  0  0  0
   -0.0795    3.4814    4.9364 H   0  0  0  0  0  0  0  0  0  0  0  0
   -2.4169    0.8218   -4.3802 H   0  0  0  0  0  0  0  0  0  0  0  0
   -1.7066    2.0452   -6.3537 H   0  0  0  0  0  0  0  0  0  0  0  0
    0.6878    2.5861   -6.7094 H   0  0  0  0  0  0  0  0  0  0  0  0
    2.3548    1.8711   -5.0198 H   0  0  0  0  0  0  0  0  0  0  0  0
    1.6571    0.6598   -3.0295 H   0  0  0  0  0  0  0  0  0  0  0  0
  1  2  2  0
  1  5  1  0
  1 15  1  0
  2  3  1  0
  2 16  1  0
  3  4  2  0
  4 17  1  0
  4 29  1  0
  5  6  1  0
  5 17  2  0
  6  7  2  0
  6 30  1  0
  8  7  1  1
  8  9  1  0
  8 10  1  0
  8 11  1  0
  9 31  1  0
  9 32  1  0
  9 33  1  0
 10 24  2  0
 10 28  1  0
 11 12  2  0
 11 13  1  6
 11 14  1  0
 13 34  1  0
 14 35  1  0
 15 36  1  0
 16 37  1  0
 16 38  1  0
 16 39  1  0
 17 18  1  0
 18 19  1  0
 18 40  1  0
 18 41  1  0
 20 19  1  6
 20 21  2  0
 20 22  1  0
 20 23  1  0
 22 42  1  0
 23 43  1  0
 24 25  1  0
 24 44  1  0
 25 26  2  0
 25 45  1  0
 26 27  1  0
 26 46  1  0
 27 28  2  0
 27 47  1  0
 28 48  1  0
M  END
