
     RDKit          3D

 73 75  0  0  0  0  0  0  0  0999 V2000
    1.7074    0.6793    3.8879 C   0  0  0  0  0  0  0  0  0  0  0  0
    0.8072    1.2777    2.8162 C   0  0  0  0  0  0  0  0  0  0  0  0
   -0.0141    0.2174    2.0963 C   0  0  0  0  0  0  0  0  0  0  0  0
   -0.9065    0.8005    1.0089 C   0  0  0  0  0  0  0  0  0  0  0  0
   -1.7563   -0.2741    0.3026 C   0  0  2  0  0  0  0  0  0  0  0  0
   -0.9626   -1.2715   -0.3633 N   0  0  0  0  0  0  0  0  0  0  0  0
   -0.7584   -2.4992    0.1542 C   0  0  0  0  0  0  0  0  0  0  0  0
   -1.1371   -2.8688    1.2442 O   0  0  0  0  0  0  0  0  0  0  0  0
   -0.0680   -3.2535   -0.7106 O   0  0  0  0  0  0  0  0  0  0  0  0
    0.4430   -4.5222   -0.2934 C   0  0  2  0  0  0  0  0  0  0  0  0
    1.9560   -4.4757   -0.5367 C   0  0  0  0  0  0  0  0  0  0  0  0
    2.6035   -3.3603    0.1884 C   0  0  0  0  0  0  0  0  0  0  0  0
    3.2754   -3.3878    1.2858 N   0  0  0  0  0  0  0  0  0  0  0  0
    3.6518   -2.1019    1.5569 N   0  0  0  0  0  0  0  0  0  0  0  0
    3.1870   -1.3719    0.6030 C   0  0  0  0  0  0  0  0  0  0  0  0
    2.5154   -2.1078   -0.2936 O   0  0  0  0  0  0  0  0  0  0  0  0
    3.2925    0.0666    0.4271 C   0  0  0  0  0  0  0  0  0  0  0  0
    4.1430    0.7941    1.2581 C   0  0  0  0  0  0  0  0  0  0  0  0
    4.2357    2.1656    1.1249 C   0  0  0  0  0  0  0  0  0  0  0  0
    3.4790    2.8238    0.1598 C   0  0  0  0  0  0  0  0  0  0  0  0
    2.6358    2.1030   -0.6745 C   0  0  0  0  0  0  0  0  0  0  0  0
    2.5423    0.7274   -0.5412 C   0  0  0  0  0  0  0  0  0  0  0  0
    3.6243    4.3063    0.0055 C   0  0  1  0  0  0  0  0  0  0  0  0
    4.7436    4.6192   -0.6638 F   0  0  0  0  0  0  0  0  0  0  0  0
    2.6051    4.8538   -0.6612 F   0  0  0  0  0  0  0  0  0  0  0  0
    3.6994    4.9251    1.1896 F   0  0  0  0  0  0  0  0  0  0  0  0
   -0.2835   -5.6590   -1.0352 C   0  0  1  0  0  0  0  0  0  0  0  0
   -0.0839   -5.5791   -2.5495 C   0  0  0  0  0  0  0  0  0  0  0  0
    0.2466   -6.9986   -0.5155 C   0  0  0  0  0  0  0  0  0  0  0  0
   -1.7815   -5.5809   -0.7223 C   0  0  0  0  0  0  0  0  0  0  0  0
   -4.1778    1.0881    1.0265 O   0  0  0  0  0  0  0  0  0  0  0  0
   -4.5046    1.9040   -1.0610 N   0  0  0  0  0  0  0  0  0  0  0  0
   -5.6089    2.6131   -0.7240 N   0  0  0  0  0  0  0  0  0  0  0  0
   -5.5269    3.9133   -0.0843 C   0  0  0  0  0  0  0  0  0  0  0  0
   -7.0082    4.1371    0.1993 C   0  0  0  0  0  0  0  0  0  0  0  0
   -7.5770    2.8172    0.2231 O   0  0  0  0  0  0  0  0  0  0  0  0
   -6.7569    1.9520   -0.3703 C   0  0  0  0  0  0  0  0  0  0  0  0
   -7.0219    0.7965   -0.5605 O   0  0  0  0  0  0  0  0  0  0  0  0
   -2.6569    0.3977   -0.7061 C   0  0  0  0  0  0  0  0  0  0  0  0
   -2.4666    0.3674   -1.8939 O   0  0  0  0  0  0  0  0  0  0  0  0
    2.3000    1.4468    4.3863 H   0  0  0  0  0  0  0  0  0  0  0  0
    1.1232    0.1621    4.6515 H   0  0  0  0  0  0  0  0  0  0  0  0
    2.4023   -0.0458    3.4596 H   0  0  0  0  0  0  0  0  0  0  0  0
    0.1371    2.0152    3.2682 H   0  0  0  0  0  0  0  0  0  0  0  0
    1.4161    1.8225    2.0890 H   0  0  0  0  0  0  0  0  0  0  0  0
    0.6657   -0.5165    1.6570 H   0  0  0  0  0  0  0  0  0  0  0  0
   -0.6262   -0.3280    2.8207 H   0  0  0  0  0  0  0  0  0  0  0  0
   -1.5687    1.5481    1.4516 H   0  0  0  0  0  0  0  0  0  0  0  0
   -0.2944    1.3233    0.2667 H   0  0  0  0  0  0  0  0  0  0  0  0
   -2.3793   -0.7665    1.0520 H   0  0  0  0  0  0  0  0  0  0  0  0
   -0.6059   -1.0698   -1.2850 H   0  0  0  0  0  0  0  0  0  0  0  0
    0.2680   -4.6518    0.7782 H   0  0  0  0  0  0  0  0  0  0  0  0
    2.4088   -5.4004   -0.1823 H   0  0  0  0  0  0  0  0  0  0  0  0
    2.1785   -4.3870   -1.6021 H   0  0  0  0  0  0  0  0  0  0  0  0
    4.7319    0.2878    2.0107 H   0  0  0  0  0  0  0  0  0  0  0  0
    4.9011    2.7116    1.7803 H   0  0  0  0  0  0  0  0  0  0  0  0
    2.0416    2.5948   -1.4321 H   0  0  0  0  0  0  0  0  0  0  0  0
    1.8767    0.1821   -1.1961 H   0  0  0  0  0  0  0  0  0  0  0  0
    0.9554   -5.7376   -2.8430 H   0  0  0  0  0  0  0  0  0  0  0  0
   -0.6744   -6.3560   -3.0382 H   0  0  0  0  0  0  0  0  0  0  0  0
   -0.4067   -4.6189   -2.9545 H   0  0  0  0  0  0  0  0  0  0  0  0
    0.1374   -7.0793    0.5684 H   0  0  0  0  0  0  0  0  0  0  0  0
   -0.3142   -7.8186   -0.9665 H   0  0  0  0  0  0  0  0  0  0  0  0
    1.2974   -7.1571   -0.7603 H   0  0  0  0  0  0  0  0  0  0  0  0
   -2.2466   -4.6874   -1.1415 H   0  0  0  0  0  0  0  0  0  0  0  0
   -2.2919   -6.4442   -1.1529 H   0  0  0  0  0  0  0  0  0  0  0  0
   -1.9691   -5.5887    0.3527 H   0  0  0  0  0  0  0  0  0  0  0  0
   -4.2206    1.9146   -2.0300 H   0  0  0  0  0  0  0  0  0  0  0  0
   -4.9217    3.8773    0.8243 H   0  0  0  0  0  0  0  0  0  0  0  0
   -5.1187    4.6659   -0.7555 H   0  0  0  0  0  0  0  0  0  0  0  0
   -7.1956    4.6155    1.1567 H   0  0  0  0  0  0  0  0  0  0  0  0
   -7.4909    4.7094   -0.5931 H   0  0  0  0  0  0  0  0  0  0  0  0
   -3.8575    1.1664   -0.1387 C   0  0  0  0  0  0  0  0  0  0  0  0
  1  2  1  0
  1 41  1  0
  1 42  1  0
  1 43  1  0
  2  3  1  0
  2 44  1  0
  2 45  1  0
  3  4  1  0
  3 46  1  0
  3 47  1  0
  4  5  1  0
  4 48  1  0
  4 49  1  0
  5  6  1  0
  5 39  1  0
  5 50  1  1
  6  7  1  0
  6 51  1  0
  7  8  2  0
  7  9  1  0
  9 10  1  0
 10 11  1  0
 10 27  1  0
 10 52  1  1
 11 12  1  0
 11 53  1  0
 11 54  1  0
 12 13  2  0
 12 16  1  0
 13 14  1  0
 14 15  2  0
 15 16  1  0
 15 17  1  0
 17 18  2  0
 17 22  1  0
 18 19  1  0
 18 55  1  0
 19 20  2  0
 19 56  1  0
 20 21  1  0
 20 23  1  0
 21 22  2  0
 21 57  1  0
 22 58  1  0
 23 24  1  6
 23 25  1  0
 23 26  1  0
 27 28  1  6
 27 29  1  0
 27 30  1  0
 28 59  1  0
 28 60  1  0
 28 61  1  0
 29 62  1  0
 29 63  1  0
 29 64  1  0
 30 65  1  0
 30 66  1  0
 30 67  1  0
 73 31  2  0
 73 32  1  0
 73 39  1  0
 32 33  1  0
 32 68  1  0
 33 34  1  0
 33 37  1  0
 34 35  1  0
 34 69  1  0
 34 70  1  0
 35 36  1  0
 35 71  1  0
 35 72  1  0
 36 37  1  0
 37 38  2  0
 39 40  2  0
M  END
