
     RDKit          3D

 39 40  0  0  0  0  0  0  0  0999 V2000
   -1.2061   -1.7897    0.6222 C   0  0  0  0  0  0  0  0  0  0  0  0
    3.2679    1.9620    1.2047 N   0  0  0  0  0  0  0  0  0  0  0  0
    1.3345    2.6919   -0.1614 O   0  0  0  0  0  0  0  0  0  0  0  0
    2.4717    1.7888   -0.2225 S   0  0  1  0  0  0  0  0  0  0  0  0
   -1.6131   -3.0993    0.5854 C   0  0  0  0  0  0  0  0  0  0  0  0
   -3.7740    0.9693    0.4666 N   0  0  0  0  0  0  0  0  0  0  0  0
    3.4608    1.9286   -1.2788 O   0  0  0  0  0  0  0  0  0  0  0  0
   -0.7769   -4.1234    0.1001 C   0  0  0  0  0  0  0  0  0  0  0  0
   -4.5752    1.5695   -1.5469 O   0  0  0  0  0  0  0  0  0  0  0  0
    0.4783   -3.8329   -0.3534 C   0  0  0  0  0  0  0  0  0  0  0  0
    0.9463   -2.5001   -0.3344 C   0  0  0  0  0  0  0  0  0  0  0  0
    0.1031   -1.4670    0.1589 C   0  0  0  0  0  0  0  0  0  0  0  0
    0.6014   -0.1443    0.1700 C   0  0  0  0  0  0  0  0  0  0  0  0
    1.8624    0.1238   -0.2896 C   0  0  0  0  0  0  0  0  0  0  0  0
    2.7005   -0.8928   -0.7910 C   0  0  0  0  0  0  0  0  0  0  0  0
    2.2416   -2.1783   -0.8026 C   0  0  0  0  0  0  0  0  0  0  0  0
    4.4513    1.1528    1.4627 C   0  0  0  0  0  0  0  0  0  0  0  0
   -2.1538   -0.7307    1.1118 C   0  0  0  0  0  0  0  0  0  0  0  0
   -2.8566   -0.0252   -0.0451 C   0  0  0  0  0  0  0  0  0  0  0  0
   -4.5689    1.7008   -0.3291 C   0  0  0  0  0  0  0  0  0  0  0  0
   -5.4523    2.7017    0.3725 C   0  0  0  0  0  0  0  0  0  0  0  0
    2.6272    2.0149    1.9890 H   0  0  0  0  0  0  0  0  0  0  0  0
   -2.6041   -3.3557    0.9399 H   0  0  0  0  0  0  0  0  0  0  0  0
   -3.8012    1.1270    1.4606 H   0  0  0  0  0  0  0  0  0  0  0  0
   -1.1372   -5.1436    0.0913 H   0  0  0  0  0  0  0  0  0  0  0  0
    1.1262   -4.6152   -0.7286 H   0  0  0  0  0  0  0  0  0  0  0  0
   -0.0155    0.6610    0.5452 H   0  0  0  0  0  0  0  0  0  0  0  0
    3.6872   -0.6626   -1.1679 H   0  0  0  0  0  0  0  0  0  0  0  0
    2.8731   -2.9716   -1.1830 H   0  0  0  0  0  0  0  0  0  0  0  0
    5.1640    1.2644    0.6500 H   0  0  0  0  0  0  0  0  0  0  0  0
    4.9164    1.5289    2.3705 H   0  0  0  0  0  0  0  0  0  0  0  0
    4.2298    0.0921    1.6032 H   0  0  0  0  0  0  0  0  0  0  0  0
   -2.9070   -1.2002    1.7481 H   0  0  0  0  0  0  0  0  0  0  0  0
   -1.6367    0.0019    1.7372 H   0  0  0  0  0  0  0  0  0  0  0  0
   -3.3971   -0.7622   -0.6440 H   0  0  0  0  0  0  0  0  0  0  0  0
   -2.1262    0.4459   -0.7089 H   0  0  0  0  0  0  0  0  0  0  0  0
   -5.1937    3.7070    0.0396 H   0  0  0  0  0  0  0  0  0  0  0  0
   -6.4916    2.5263    0.0967 H   0  0  0  0  0  0  0  0  0  0  0  0
   -5.3718    2.6692    1.4573 H   0  0  0  0  0  0  0  0  0  0  0  0
  1  5  2  0
  1 12  1  0
  1 18  1  0
  4  2  1  1
  2 17  1  0
  3  4  2  0
  4  7  2  0
  4 14  1  0
  5  8  1  0
  6 19  1  0
  6 20  1  0
  8 10  2  0
  9 20  2  0
 10 11  1  0
 11 12  2  0
 11 16  1  0
 12 13  1  0
 13 14  2  0
 14 15  1  0
 15 16  2  0
 18 19  1  0
 20 21  1  0
  2 22  1  0
  5 23  1  0
  6 24  1  0
  8 25  1  0
 10 26  1  0
 13 27  1  0
 15 28  1  0
 16 29  1  0
 17 30  1  0
 17 31  1  0
 17 32  1  0
 18 33  1  0
 18 34  1  0
 19 35  1  0
 19 36  1  0
 21 37  1  0
 21 38  1  0
 21 39  1  0
M  END
