
     RDKit          3D

 20 20  0  0  0  0  0  0  0  0999 V2000
   -2.5997   -0.5173   -0.8692 N   0  0  0  0  0  0  0  0  0  0  0  0
   -3.6134    0.2053   -0.4717 N   0  0  0  0  0  0  0  0  0  0  0  0
   -3.3657    0.9594    0.5529 N   0  0  0  0  0  0  0  0  0  0  0  0
   -2.1317    0.7397    0.8699 N   0  0  0  0  0  0  0  0  0  0  0  0
   -1.6662   -0.1685   -0.0068 C   0  0  0  0  0  0  0  0  0  0  0  0
   -0.2841   -0.7135    0.0031 C   0  0  0  0  0  0  0  0  0  0  0  0
    0.7521    0.4026   -0.0574 C   0  0  0  0  0  0  0  0  0  0  0  0
    2.1580   -0.1267   -0.0796 C   0  0  0  0  0  0  0  0  0  0  0  0
    2.4773   -1.2635   -0.3551 O   0  0  0  0  0  0  0  0  0  0  0  0
    3.1003    0.8037    0.2512 N   0  0  0  0  0  0  0  0  0  0  0  0
    4.4404    0.4730    0.0729 N   0  0  0  0  0  0  0  0  0  0  0  0
   -4.5188    0.1832   -0.9223 H   0  0  0  0  0  0  0  0  0  0  0  0
   -0.1411   -1.3041    0.9107 H   0  0  0  0  0  0  0  0  0  0  0  0
   -0.1713   -1.3910   -0.8418 H   0  0  0  0  0  0  0  0  0  0  0  0
    0.6174    1.0001   -0.9649 H   0  0  0  0  0  0  0  0  0  0  0  0
    0.6324    1.0911    0.7812 H   0  0  0  0  0  0  0  0  0  0  0  0
    2.9127    1.7931    0.3207 H   0  0  0  0  0  0  0  0  0  0  0  0
    4.5117   -0.5421   -0.0675 H   0  0  0  0  0  0  0  0  0  0  0  0
    4.8488    0.9337   -0.7447 H   0  0  0  0  0  0  0  0  0  0  0  0
    4.9936    0.7184    0.8961 H   0  0  0  0  0  0  0  0  0  0  0  0
  9  8  2  0
  7  8  1  0
  7  6  1  0
  8 10  1  0
 10 11  1  0
  1  2  1  0
  1  5  2  0
  2  3  1  0
  5  6  1  0
  5  4  1  0
  3  4  2  0
  2 12  1  0
  6 13  1  0
  6 14  1  0
  7 15  1  0
  7 16  1  0
 10 17  1  0
 11 18  1  0
 11 19  1  0
 11 20  1  0
M  CHG  1  11   1
M  END
