
     RDKit          3D

 56 57  0  0  0  0  0  0  0  0999 V2000
    0.0393    1.3777    9.8887 N   0  0  0  0  0  0  0  0  0  0  0  0
   -1.6044   -0.2001    9.6285 N   0  0  0  0  0  0  0  0  0  0  0  0
   -0.5615    0.3838    9.1754 C   0  0  0  0  0  0  0  0  0  0  0  0
    0.1181    0.0295    7.8977 C   0  0  0  0  0  0  0  0  0  0  0  0
   -0.6367   -0.3824    6.7990 C   0  0  0  0  0  0  0  0  0  0  0  0
   -0.0205   -0.7281    5.6096 C   0  0  0  0  0  0  0  0  0  0  0  0
    1.3671   -0.6802    5.4873 C   0  0  0  0  0  0  0  0  0  0  0  0
    2.1179   -0.2741    6.5830 C   0  0  0  0  0  0  0  0  0  0  0  0
    1.5032    0.0817    7.7760 C   0  0  0  0  0  0  0  0  0  0  0  0
    2.0413   -1.0671    4.1947 C   0  0  0  0  0  0  0  0  0  0  0  0
    1.5851   -0.2844    3.0680 N   0  0  0  0  0  0  0  0  0  0  0  0
    0.7507   -0.7366    2.1237 C   0  0  0  0  0  0  0  0  0  0  0  0
    0.3008   -1.8725    2.0894 O   0  0  0  0  0  0  0  0  0  0  0  0
    0.3860    0.2987    1.0719 C   0  0  0  0  0  0  0  0  0  0  0  0
   -0.3646   -0.3294    0.0211 N   0  0  0  0  0  0  0  0  0  0  0  0
   -0.7641    0.3302   -1.0713 C   0  0  0  0  0  0  0  0  0  0  0  0
   -0.5100    1.5044   -1.2796 O   0  0  0  0  0  0  0  0  0  0  0  0
   -1.5910   -0.5091   -2.0519 C   0  0  1  0  0  0  0  0  0  0  0  0
   -2.9785   -0.7825   -1.4880 C   0  0  0  0  0  0  0  0  0  0  0  0
   -3.5953    0.4550   -1.2365 O   0  0  0  0  0  0  0  0  0  0  0  0
   -1.7312    0.1488   -3.3336 N   0  0  0  0  0  0  0  0  0  0  0  0
   -0.3974    0.3574   -4.2894 S   0  0  1  0  0  0  0  0  0  0  0  0
   -0.3420    1.7419   -4.7347 O   0  0  0  0  0  0  0  0  0  0  0  0
    0.7534   -0.2340   -3.6188 O   0  0  0  0  0  0  0  0  0  0  0  0
   -0.7797   -0.6649   -5.7175 C   0  0  0  0  0  0  0  0  0  0  0  0
    0.3423   -0.5965   -6.7046 C   0  0  0  0  0  0  0  0  0  0  0  0
    0.3506    0.3828   -7.6942 C   0  0  0  0  0  0  0  0  0  0  0  0
    1.4024    0.4605   -8.5958 C   0  0  0  0  0  0  0  0  0  0  0  0
    2.4605   -0.4351   -8.5102 C   0  0  0  0  0  0  0  0  0  0  0  0
    2.4601   -1.4114   -7.5225 C   0  0  0  0  0  0  0  0  0  0  0  0
    1.4076   -1.4890   -6.6216 C   0  0  0  0  0  0  0  0  0  0  0  0
   -0.4715    1.7234   10.6858 H   0  0  0  0  0  0  0  0  0  0  0  0
    0.5519    2.0842    9.3876 H   0  0  0  0  0  0  0  0  0  0  0  0
   -1.8640   -0.9819    9.0385 H   0  0  0  0  0  0  0  0  0  0  0  0
   -1.7171   -0.4156    6.8645 H   0  0  0  0  0  0  0  0  0  0  0  0
   -0.6297   -1.0415    4.7705 H   0  0  0  0  0  0  0  0  0  0  0  0
    3.1981   -0.2336    6.5098 H   0  0  0  0  0  0  0  0  0  0  0  0
    2.1138    0.3854    8.6165 H   0  0  0  0  0  0  0  0  0  0  0  0
    3.1209   -0.9449    4.2892 H   0  0  0  0  0  0  0  0  0  0  0  0
    1.8584   -2.1189    3.9760 H   0  0  0  0  0  0  0  0  0  0  0  0
    1.8905    0.6754    3.0230 H   0  0  0  0  0  0  0  0  0  0  0  0
   -0.1933    1.0939    1.5524 H   0  0  0  0  0  0  0  0  0  0  0  0
    1.2961    0.7628    0.6824 H   0  0  0  0  0  0  0  0  0  0  0  0
   -0.5871   -1.3068    0.1441 H   0  0  0  0  0  0  0  0  0  0  0  0
   -1.1114   -1.4796   -2.1992 H   0  0  0  0  0  0  0  0  0  0  0  0
   -3.5345   -1.3839   -2.2153 H   0  0  0  0  0  0  0  0  0  0  0  0
   -2.8793   -1.3848   -0.5780 H   0  0  0  0  0  0  0  0  0  0  0  0
   -4.5044    0.2952   -0.9670 H   0  0  0  0  0  0  0  0  0  0  0  0
   -2.3193    0.9752   -3.3223 H   0  0  0  0  0  0  0  0  0  0  0  0
   -0.9431   -1.6748   -5.3396 H   0  0  0  0  0  0  0  0  0  0  0  0
   -1.7202   -0.2920   -6.1246 H   0  0  0  0  0  0  0  0  0  0  0  0
   -0.4737    1.0812   -7.7689 H   0  0  0  0  0  0  0  0  0  0  0  0
    1.3963    1.2214   -9.3651 H   0  0  0  0  0  0  0  0  0  0  0  0
    3.2808   -0.3747   -9.2134 H   0  0  0  0  0  0  0  0  0  0  0  0
    3.2809   -2.1129   -7.4521 H   0  0  0  0  0  0  0  0  0  0  0  0
    1.4110   -2.2555   -5.8568 H   0  0  0  0  0  0  0  0  0  0  0  0
  1  3  1  0
  1 32  1  0
  1 33  1  0
  2  3  2  0
  2 34  1  0
  3  4  1  0
  4  5  2  0
  4  9  1  0
  5  6  1  0
  5 35  1  0
  6  7  2  0
  6 36  1  0
  7  8  1  0
  7 10  1  0
  8  9  2  0
  8 37  1  0
  9 38  1  0
 10 11  1  0
 10 39  1  0
 10 40  1  0
 11 12  1  0
 11 41  1  0
 12 13  2  0
 12 14  1  0
 14 15  1  0
 14 42  1  0
 14 43  1  0
 15 16  1  0
 15 44  1  0
 16 17  2  0
 16 18  1  0
 18 19  1  0
 18 21  1  0
 18 45  1  6
 19 20  1  0
 19 46  1  0
 19 47  1  0
 20 48  1  0
 22 21  1  1
 21 49  1  0
 22 23  2  0
 22 24  2  0
 22 25  1  0
 25 26  1  0
 25 50  1  0
 25 51  1  0
 26 27  2  0
 26 31  1  0
 27 28  1  0
 27 52  1  0
 28 29  2  0
 28 53  1  0
 29 30  1  0
 29 54  1  0
 30 31  2  0
 30 55  1  0
 31 56  1  0
M  END
