
     RDKit          3D

 39 42  0  0  0  0  0  0  0  0999 V2000
    4.1484   -0.2467    1.3629 Cl  0  0  0  0  0  0  0  0  0  0  0  0
    3.5343    0.9776    0.3047 C   0  0  0  0  0  0  0  0  0  0  0  0
    4.1797    2.2026    0.2404 C   0  0  0  0  0  0  0  0  0  0  0  0
    3.6817    3.1927   -0.5907 C   0  0  0  0  0  0  0  0  0  0  0  0
    2.5548    2.9466   -1.3639 C   0  0  0  0  0  0  0  0  0  0  0  0
    1.9251    1.7149   -1.3100 C   0  0  0  0  0  0  0  0  0  0  0  0
    2.4020    0.7161   -0.4656 C   0  0  0  0  0  0  0  0  0  0  0  0
    1.8057   -0.5544   -0.4082 N   0  0  0  0  0  0  0  0  0  0  0  0
    0.4959   -0.8019   -0.2528 C   0  0  0  0  0  0  0  0  0  0  0  0
   -0.3207    0.2172   -0.1201 N   0  0  0  0  0  0  0  0  0  0  0  0
    0.0271   -2.1716   -0.2274 C   0  0  0  0  0  0  0  0  0  0  0  0
    0.8341   -3.3096   -0.3692 C   0  0  0  0  0  0  0  0  0  0  0  0
    0.2782   -4.5662   -0.3196 C   0  0  0  0  0  0  0  0  0  0  0  0
   -1.1011   -4.7168   -0.1291 C   0  0  0  0  0  0  0  0  0  0  0  0
   -1.9167   -3.6184    0.0051 C   0  0  0  0  0  0  0  0  0  0  0  0
   -1.3533   -2.3386   -0.0451 C   0  0  0  0  0  0  0  0  0  0  0  0
   -2.1356   -1.2304    0.0777 N   0  0  0  0  0  0  0  0  0  0  0  0
   -1.6270    0.0024    0.0337 C   0  0  0  0  0  0  0  0  0  0  0  0
   -2.5434    1.1043    0.1588 C   0  0  0  0  0  0  0  0  0  0  0  0
   -2.0546    2.4235    0.1202 C   0  0  0  0  0  0  0  0  0  0  0  0
   -2.8970    3.5004    0.2296 C   0  0  0  0  0  0  0  0  0  0  0  0
   -4.2760    3.2673    0.3830 C   0  0  0  0  0  0  0  0  0  0  0  0
   -4.7881    1.9961    0.4226 C   0  0  0  0  0  0  0  0  0  0  0  0
   -3.9518    0.8448    0.3118 C   0  0  0  0  0  0  0  0  0  0  0  0
   -4.4381   -0.3337    0.3457 O   0  0  0  0  0  0  0  0  0  0  0  0
    5.0600    2.3795    0.8428 H   0  0  0  0  0  0  0  0  0  0  0  0
    4.1780    4.1526   -0.6341 H   0  0  0  0  0  0  0  0  0  0  0  0
    2.1687    3.7115   -2.0236 H   0  0  0  0  0  0  0  0  0  0  0  0
    1.0614    1.5246   -1.9300 H   0  0  0  0  0  0  0  0  0  0  0  0
    1.9015   -3.2271   -0.5243 H   0  0  0  0  0  0  0  0  0  0  0  0
    0.9075   -5.4379   -0.4309 H   0  0  0  0  0  0  0  0  0  0  0  0
   -1.5313   -5.7085   -0.0891 H   0  0  0  0  0  0  0  0  0  0  0  0
   -2.9836   -3.7297    0.1463 H   0  0  0  0  0  0  0  0  0  0  0  0
   -0.9890    2.5743    0.0019 H   0  0  0  0  0  0  0  0  0  0  0  0
   -2.5113    4.5102    0.1977 H   0  0  0  0  0  0  0  0  0  0  0  0
   -4.9510    4.1104    0.4713 H   0  0  0  0  0  0  0  0  0  0  0  0
   -5.8542    1.8392    0.5385 H   0  0  0  0  0  0  0  0  0  0  0  0
   -3.1956   -1.2179    0.2002 H   0  0  0  0  0  0  0  0  0  0  0  0
    2.4400   -1.3373   -0.4009 H   0  0  0  0  0  0  0  0  0  0  0  0
  1  2  1  0
  2  3  2  0
  2  7  1  0
  3  4  1  0
  3 26  1  0
  4  5  2  0
  4 27  1  0
  5  6  1  0
  5 28  1  0
  6  7  2  0
  6 29  1  0
  7  8  1  0
  8  9  1  0
  9 10  2  0
  9 11  1  0
 10 18  1  0
 11 12  1  0
 11 16  2  0
 12 13  2  0
 12 30  1  0
 13 14  1  0
 13 31  1  0
 14 15  2  0
 14 32  1  0
 15 16  1  0
 15 33  1  0
 16 17  1  0
 17 18  1  0
 17 38  1  0
 18 19  2  0
 19 20  1  0
 19 24  1  0
 20 21  2  0
 20 34  1  0
 21 22  1  0
 21 35  1  0
 22 23  2  0
 22 36  1  0
 23 24  1  0
 23 37  1  0
 24 25  2  0
  8 39  1  0
M  END
