
     RDKit          3D

 55 56  0  0  0  0  0  0  0  0999 V2000
   -4.6910   -1.0516   -0.8800 C   0  0  0  0  0  0  0  0  0  0  0  0
    4.8648    1.2292    0.0010 C   0  0  0  0  0  0  0  0  0  0  0  0
   -7.7373   -0.3960    0.0536 C   0  0  0  0  0  0  0  0  0  0  0  0
    8.0085    0.4109   -0.3175 C   0  0  0  0  0  0  0  0  0  0  0  0
    8.2352   -0.2705    0.8670 C   0  0  0  0  0  0  0  0  0  0  0  0
   -7.9911    0.9691    0.0398 C   0  0  0  0  0  0  0  0  0  0  0  0
   -8.3336    1.5780    1.2342 C   0  0  0  0  0  0  0  0  0  0  0  0
    8.7362   -1.5597    0.7872 C   0  0  0  0  0  0  0  0  0  0  0  0
    8.2685   -0.1567   -1.5572 C   0  0  0  0  0  0  0  0  0  0  0  0
   -7.8293   -1.1504    1.2114 C   0  0  0  0  0  0  0  0  0  0  0  0
   -8.1841   -0.5132    2.3913 C   0  0  0  0  0  0  0  0  0  0  0  0
    8.7620   -1.4502   -1.6047 C   0  0  0  0  0  0  0  0  0  0  0  0
    2.5179    0.5732    0.1053 C   0  0  0  0  0  0  0  0  0  0  0  0
   -2.3160   -0.7459   -0.4265 C   0  0  0  0  0  0  0  0  0  0  0  0
   -8.4344    0.8499    2.4118 C   0  0  0  0  0  0  0  0  0  0  0  0
    9.0007   -2.1580   -0.4353 C   0  0  0  0  0  0  0  0  0  0  0  0
    1.3147    0.5615   -0.8230 C   0  0  0  0  0  0  0  0  0  0  0  0
   -1.1232   -0.0595   -1.0706 C   0  0  0  0  0  0  0  0  0  0  0  0
    0.1107   -0.1133   -0.1803 C   0  0  0  0  0  0  0  0  0  0  0  0
   -3.4980   -0.5706   -1.2490 N   0  0  0  0  0  0  0  0  0  0  0  0
    3.6386    1.2333   -0.5363 N   0  0  0  0  0  0  0  0  0  0  0  0
    5.8068    1.9507   -0.7325 N   0  0  0  0  0  0  0  0  0  0  0  0
   -5.7293   -0.7246   -1.7517 N   0  0  0  0  0  0  0  0  0  0  0  0
    7.4682    2.5553    1.0968 O   0  0  0  0  0  0  0  0  0  0  0  0
    8.0196    2.8241   -1.3369 O   0  0  0  0  0  0  0  0  0  0  0  0
   -7.3840   -2.6085   -1.3058 O   0  0  0  0  0  0  0  0  0  0  0  0
   -4.8960   -1.7154    0.1200 O   0  0  0  0  0  0  0  0  0  0  0  0
    5.1763    0.6529    1.0270 O   0  0  0  0  0  0  0  0  0  0  0  0
   -8.0386   -0.5308   -2.5510 O   0  0  0  0  0  0  0  0  0  0  0  0
   -7.3039   -1.1742   -1.4770 S   0  0  1  0  0  0  0  0  0  0  0  0
    7.3949    2.0713   -0.2649 S   0  0  1  0  0  0  0  0  0  0  0  0
   -8.6494    3.2771    1.2546 Cl  0  0  0  0  0  0  0  0  0  0  0  0
    9.0333   -2.4378    2.2467 Cl  0  0  0  0  0  0  0  0  0  0  0  0
    8.0312    0.1830    1.8259 H   0  0  0  0  0  0  0  0  0  0  0  0
   -7.9256    1.5504   -0.8701 H   0  0  0  0  0  0  0  0  0  0  0  0
    8.0926    0.3882   -2.4746 H   0  0  0  0  0  0  0  0  0  0  0  0
   -7.6336   -2.2123    1.2047 H   0  0  0  0  0  0  0  0  0  0  0  0
   -8.2650   -1.0842    3.3059 H   0  0  0  0  0  0  0  0  0  0  0  0
    8.9685   -1.9124   -2.5599 H   0  0  0  0  0  0  0  0  0  0  0  0
    2.2582    1.0804    1.0397 H   0  0  0  0  0  0  0  0  0  0  0  0
    2.8001   -0.4497    0.3616 H   0  0  0  0  0  0  0  0  0  0  0  0
   -2.1064   -1.8102   -0.2936 H   0  0  0  0  0  0  0  0  0  0  0  0
   -2.4910   -0.3254    0.5677 H   0  0  0  0  0  0  0  0  0  0  0  0
   -8.7077    1.3409    3.3356 H   0  0  0  0  0  0  0  0  0  0  0  0
    9.3902   -3.1660   -0.4779 H   0  0  0  0  0  0  0  0  0  0  0  0
    1.0531    1.5899   -1.0931 H   0  0  0  0  0  0  0  0  0  0  0  0
    1.5755    0.0471   -1.7525 H   0  0  0  0  0  0  0  0  0  0  0  0
   -0.9051   -0.5280   -2.0352 H   0  0  0  0  0  0  0  0  0  0  0  0
   -1.3749    0.9858   -1.2757 H   0  0  0  0  0  0  0  0  0  0  0  0
    0.3557   -1.1546    0.0502 H   0  0  0  0  0  0  0  0  0  0  0  0
   -0.1131    0.3708    0.7757 H   0  0  0  0  0  0  0  0  0  0  0  0
   -3.4130   -0.0289   -2.0945 H   0  0  0  0  0  0  0  0  0  0  0  0
    3.4474    1.8110   -1.3393 H   0  0  0  0  0  0  0  0  0  0  0  0
    5.5962    2.3128   -1.6551 H   0  0  0  0  0  0  0  0  0  0  0  0
   -5.5970   -0.0582   -2.5031 H   0  0  0  0  0  0  0  0  0  0  0  0
 26 30  2  0
 11 10  2  0
 11 15  1  0
 10  3  1  0
 15  7  2  0
  3 30  1  0
  3  6  2  0
 30 29  2  0
 30 23  1  6
  7  6  1  0
  7 32  1  0
 23  1  1  0
  1 27  2  0
  1 20  1  0
 20 14  1  0
 14 18  1  0
 17 13  1  0
 17 19  1  0
 18 19  1  0
 13 21  1  0
 21  2  1  0
  2 28  2  0
  2 22  1  0
 31 22  1  6
 31  4  1  0
 31 24  2  0
 31 25  2  0
  4  9  1  0
  4  5  2  0
  9 12  2  0
 12 16  1  0
  5  8  1  0
  8 16  2  0
  8 33  1  0
  5 34  1  0
  6 35  1  0
  9 36  1  0
 10 37  1  0
 11 38  1  0
 12 39  1  0
 13 40  1  0
 13 41  1  0
 14 42  1  0
 14 43  1  0
 15 44  1  0
 16 45  1  0
 17 46  1  0
 17 47  1  0
 18 48  1  0
 18 49  1  0
 19 50  1  0
 19 51  1  0
 20 52  1  0
 21 53  1  0
 22 54  1  0
 23 55  1  0
M  END
