
     RDKit          3D

 24 25  0  0  0  0  0  0  0  0999 V2000
   -1.1938   -1.4359    0.3599 C   0  0  0  0  0  0  0  0  0  0  0  0
   -3.4824    0.0601   -0.4403 C   0  0  0  0  0  0  0  0  0  0  0  0
   -3.5329   -1.3145   -0.2963 C   0  0  0  0  0  0  0  0  0  0  0  0
   -2.4056   -2.0513    0.0996 C   0  0  0  0  0  0  0  0  0  0  0  0
   -2.2697    0.7002   -0.1842 C   0  0  0  0  0  0  0  0  0  0  0  0
    1.9851    0.0041   -0.4706 C   0  0  0  0  0  0  0  0  0  0  0  0
   -0.1455    0.8636    0.3795 N   0  0  0  0  0  0  0  0  0  0  0  0
   -1.1510   -0.0538    0.2074 C   0  0  0  0  0  0  0  0  0  0  0  0
   -0.6806    2.0767    0.0886 C   0  0  0  0  0  0  0  0  0  0  0  0
   -1.9378    2.0338   -0.2465 N   0  0  0  0  0  0  0  0  0  0  0  0
    3.4106   -0.3309   -0.1316 C   0  0  0  0  0  0  0  0  0  0  0  0
    3.9238   -0.1416    0.9427 O   0  0  0  0  0  0  0  0  0  0  0  0
   -0.3287   -2.0103    0.6664 H   0  0  0  0  0  0  0  0  0  0  0  0
   -4.3550    0.6244   -0.7438 H   0  0  0  0  0  0  0  0  0  0  0  0
   -4.4597   -1.8375   -0.4932 H   0  0  0  0  0  0  0  0  0  0  0  0
   -2.4866   -3.1254    0.2024 H   0  0  0  0  0  0  0  0  0  0  0  0
    1.4951   -0.9004   -0.8416 H   0  0  0  0  0  0  0  0  0  0  0  0
    1.2477   -0.1028    1.5665 H   0  0  0  0  0  0  0  0  0  0  0  0
    1.6891    1.5147    1.0492 H   0  0  0  0  0  0  0  0  0  0  0  0
   -0.0826    2.9755    0.1487 H   0  0  0  0  0  0  0  0  0  0  0  0
    4.0488   -0.8651   -1.1646 O   0  0  0  0  0  0  0  0  0  0  0  0
    1.9807    0.7127   -1.3035 H   0  0  0  0  0  0  0  0  0  0  0  0
    4.9632   -1.0738   -0.9202 H   0  0  0  0  0  0  0  0  0  0  0  0
    1.2316    0.5834    0.7191 C   0  0  0  0  0  0  0  0  0  0  0  0
  1  4  2  0
  1  8  1  0
  1 13  1  0
  2  3  2  0
  2  5  1  0
  2 14  1  0
  3  4  1  0
  3 15  1  0
  4 16  1  0
  5  8  2  0
  5 10  1  0
  6 24  1  0
  6 11  1  0
  6 17  1  0
 24  7  1  0
 24 18  1  0
 24 19  1  0
  7  8  1  0
  7  9  1  0
  9 10  2  0
  9 20  1  0
 11 12  2  0
 11 21  1  0
  6 22  1  0
 21 23  1  0
M  END
