
     RDKit          3D

 31 33  0  0  0  0  0  0  0  0999 V2000
    0.2064    1.4001   -0.7425 C   0  0  0  0  0  0  0  0  0  0  0  0
   -1.2569    1.7162   -0.5759 C   0  0  0  0  0  0  0  0  0  0  0  0
   -1.7128    2.8178   -0.7990 O   0  0  0  0  0  0  0  0  0  0  0  0
   -2.0987    0.5736   -0.1784 C   0  0  0  0  0  0  0  0  0  0  0  0
   -3.4854    0.7193   -0.0857 C   0  0  0  0  0  0  0  0  0  0  0  0
   -4.2881   -0.3643    0.2162 C   0  0  0  0  0  0  0  0  0  0  0  0
   -5.6227   -0.1754    0.2893 O   0  0  0  0  0  0  0  0  0  0  0  0
   -3.6920   -1.6118    0.4280 C   0  0  0  0  0  0  0  0  0  0  0  0
   -2.3218   -1.7650    0.3504 C   0  0  0  0  0  0  0  0  0  0  0  0
   -1.5116   -0.6741    0.0490 C   0  0  0  0  0  0  0  0  0  0  0  0
   -0.1801   -0.8808   -0.0196 O   0  0  0  0  0  0  0  0  0  0  0  0
    0.6403    0.2683    0.1762 C   0  0  1  0  0  0  0  0  0  0  0  0
    2.0670   -0.1381   -0.0638 C   0  0  0  0  0  0  0  0  0  0  0  0
    3.0243    0.1343    0.9039 C   0  0  0  0  0  0  0  0  0  0  0  0
    4.3614   -0.1916    0.6851 C   0  0  0  0  0  0  0  0  0  0  0  0
    5.3234    0.0605    1.5940 O   0  0  0  0  0  0  0  0  0  0  0  0
    4.7343   -0.8049   -0.5076 C   0  0  0  0  0  0  0  0  0  0  0  0
    3.7702   -1.0791   -1.4657 C   0  0  0  0  0  0  0  0  0  0  0  0
    2.4390   -0.7490   -1.2576 C   0  0  0  0  0  0  0  0  0  0  0  0
    0.3714    1.1243   -1.7909 H   0  0  0  0  0  0  0  0  0  0  0  0
    0.8054    2.2900   -0.5461 H   0  0  0  0  0  0  0  0  0  0  0  0
   -3.9308    1.6901   -0.2652 H   0  0  0  0  0  0  0  0  0  0  0  0
   -6.0677   -0.9977    0.5205 H   0  0  0  0  0  0  0  0  0  0  0  0
   -4.3046   -2.4743    0.6653 H   0  0  0  0  0  0  0  0  0  0  0  0
   -1.8747   -2.7344    0.5290 H   0  0  0  0  0  0  0  0  0  0  0  0
    0.5263    0.5985    1.2171 H   0  0  0  0  0  0  0  0  0  0  0  0
    2.7262    0.6032    1.8360 H   0  0  0  0  0  0  0  0  0  0  0  0
    4.9508    0.4960    2.3690 H   0  0  0  0  0  0  0  0  0  0  0  0
    5.7718   -1.0614   -0.6813 H   0  0  0  0  0  0  0  0  0  0  0  0
    4.0671   -1.5564   -2.3907 H   0  0  0  0  0  0  0  0  0  0  0  0
    1.7029   -0.9635   -2.0217 H   0  0  0  0  0  0  0  0  0  0  0  0
  3  2  2  0
  2  1  1  0
  2  4  1  0
  1 12  1  0
  5  4  1  0
  5  6  2  0
  4 10  2  0
 11 10  1  0
 11 12  1  0
  7  6  1  0
  6  8  1  0
 10  9  1  0
 16 15  1  0
  8  9  2  0
 14 15  2  0
 14 13  1  0
 12 13  1  0
 15 17  1  0
 13 19  2  0
 17 18  2  0
 19 18  1  0
  1 20  1  0
  1 21  1  0
  5 22  1  0
  7 23  1  0
  8 24  1  0
  9 25  1  0
 12 26  1  1
 14 27  1  0
 16 28  1  0
 17 29  1  0
 18 30  1  0
 19 31  1  0
M  END
