
     RDKit          3D

 70 75  0  0  0  0  0  0  0  0999 V2000
   11.8054   -1.6246    2.2501 C   0  0  0  0  0  0  0  0  0  0  0  0
   11.0172   -0.9149    1.2608 N   0  0  0  0  0  0  0  0  0  0  0  0
   10.9348    0.4936    1.5522 C   0  0  0  0  0  0  0  0  0  0  0  0
   10.1539    1.2250    0.4769 C   0  0  0  0  0  0  0  0  0  0  0  0
    8.8221    0.6678    0.3501 N   0  0  0  0  0  0  0  0  0  0  0  0
    8.8994   -0.7449    0.0486 C   0  0  0  0  0  0  0  0  0  0  0  0
    9.6921   -1.4720    1.1316 C   0  0  0  0  0  0  0  0  0  0  0  0
    7.9950    1.3805   -0.5918 C   0  0  0  0  0  0  0  0  0  0  0  0
    6.5336    1.1089   -0.4028 C   0  0  0  0  0  0  0  0  0  0  0  0
    6.0214    0.8813    0.8418 C   0  0  0  0  0  0  0  0  0  0  0  0
    4.6646    0.6780    0.9811 C   0  0  0  0  0  0  0  0  0  0  0  0
    3.8409    0.7249   -0.1516 C   0  0  0  0  0  0  0  0  0  0  0  0
    4.4494    0.9839   -1.3768 C   0  0  0  0  0  0  0  0  0  0  0  0
    5.7497    1.1630   -1.5031 N   0  0  0  0  0  0  0  0  0  0  0  0
    2.4330    0.5401   -0.0625 C   0  0  0  0  0  0  0  0  0  0  0  0
    1.2356    0.4048    0.0148 C   0  0  0  0  0  0  0  0  0  0  0  0
   -0.1539    0.1136    0.0653 C   0  0  0  0  0  0  0  0  0  0  0  0
   -0.7391   -0.3224    1.2646 C   0  0  0  0  0  0  0  0  0  0  0  0
   -2.0910   -0.5945    1.3159 C   0  0  0  0  0  0  0  0  0  0  0  0
   -2.8959   -0.4293    0.1962 C   0  0  0  0  0  0  0  0  0  0  0  0
   -2.3107   -0.0103   -1.0017 C   0  0  0  0  0  0  0  0  0  0  0  0
   -0.9576    0.2589   -1.0787 C   0  0  0  0  0  0  0  0  0  0  0  0
   -4.3430   -0.7102    0.2786 C   0  0  0  0  0  0  0  0  0  0  0  0
   -4.8066   -1.9388    0.7535 C   0  0  0  0  0  0  0  0  0  0  0  0
   -6.1573   -2.2334    0.7432 C   0  0  0  0  0  0  0  0  0  0  0  0
   -7.0166   -1.2798    0.2029 C   0  0  0  0  0  0  0  0  0  0  0  0
   -6.6045   -0.0916   -0.2149 N   0  0  0  0  0  0  0  0  0  0  0  0
   -5.3209    0.1953   -0.1527 C   0  0  0  0  0  0  0  0  0  0  0  0
   -4.9755    1.5009   -0.5663 N   0  0  0  0  0  0  0  0  0  0  0  0
   -4.1510    2.3728    0.1058 C   0  0  0  0  0  0  0  0  0  0  0  0
   -4.0222    3.5282   -0.4802 N   0  0  0  0  0  0  0  0  0  0  0  0
   -4.8010    3.4405   -1.6249 C   0  0  0  0  0  0  0  0  0  0  0  0
   -5.4192    2.1772   -1.6994 C   0  0  0  0  0  0  0  0  0  0  0  0
   -6.2399    1.8124   -2.7627 C   0  0  0  0  0  0  0  0  0  0  0  0
   -6.4175    2.7589   -3.7550 C   0  0  0  0  0  0  0  0  0  0  0  0
   -5.8180    4.0350   -3.6811 C   0  0  0  0  0  0  0  0  0  0  0  0
   -5.0000    4.3837   -2.6234 C   0  0  0  0  0  0  0  0  0  0  0  0
   -6.6041   -3.5533    1.2519 C   0  0  0  0  0  0  0  0  0  0  0  0
   -5.8672   -4.5314    1.2144 O   0  0  0  0  0  0  0  0  0  0  0  0
   -7.8869   -3.5682    1.6869 N   0  0  0  0  0  0  0  0  0  0  0  0
   -8.3736   -4.6780    2.2810 O   0  0  0  0  0  0  0  0  0  0  0  0
   11.9172   -2.6717    2.1510 H   0  0  0  0  0  0  0  0  0  0  0  0
   12.8003   -1.1847    2.2921 H   0  0  0  0  0  0  0  0  0  0  0  0
   11.3690   -1.6111    3.2674 H   0  0  0  0  0  0  0  0  0  0  0  0
   10.4628    0.6790    2.5228 H   0  0  0  0  0  0  0  0  0  0  0  0
   11.9363    0.9063    1.5951 H   0  0  0  0  0  0  0  0  0  0  0  0
   10.0591    2.2979    0.7444 H   0  0  0  0  0  0  0  0  0  0  0  0
   10.7161    1.1783   -0.4796 H   0  0  0  0  0  0  0  0  0  0  0  0
    7.8976   -1.1564    0.0101 H   0  0  0  0  0  0  0  0  0  0  0  0
    9.3657   -0.9266   -0.9384 H   0  0  0  0  0  0  0  0  0  0  0  0
    9.7823   -2.5329    0.8455 H   0  0  0  0  0  0  0  0  0  0  0  0
    9.1256   -1.4215    2.0952 H   0  0  0  0  0  0  0  0  0  0  0  0
    8.1520    2.4450   -0.4403 H   0  0  0  0  0  0  0  0  0  0  0  0
    8.2610    1.1899   -1.6402 H   0  0  0  0  0  0  0  0  0  0  0  0
    6.6939    0.8388    1.7044 H   0  0  0  0  0  0  0  0  0  0  0  0
    4.2312    0.4825    1.9640 H   0  0  0  0  0  0  0  0  0  0  0  0
    3.8518    1.0558   -2.2736 H   0  0  0  0  0  0  0  0  0  0  0  0
   -0.1269   -0.4675    2.1616 H   0  0  0  0  0  0  0  0  0  0  0  0
   -2.5311   -0.9204    2.2501 H   0  0  0  0  0  0  0  0  0  0  0  0
   -2.9138    0.1037   -1.8958 H   0  0  0  0  0  0  0  0  0  0  0  0
   -0.5199    0.5881   -2.0037 H   0  0  0  0  0  0  0  0  0  0  0  0
   -4.0940   -2.6814    1.1015 H   0  0  0  0  0  0  0  0  0  0  0  0
   -8.0723   -1.4784    0.1008 H   0  0  0  0  0  0  0  0  0  0  0  0
   -3.6995    2.0915    1.0405 H   0  0  0  0  0  0  0  0  0  0  0  0
   -6.7168    0.8437   -2.8146 H   0  0  0  0  0  0  0  0  0  0  0  0
   -7.0566    2.5310   -4.6053 H   0  0  0  0  0  0  0  0  0  0  0  0
   -5.9990    4.7530   -4.4710 H   0  0  0  0  0  0  0  0  0  0  0  0
   -4.5294    5.3551   -2.5712 H   0  0  0  0  0  0  0  0  0  0  0  0
   -8.3603   -2.7400    1.9354 H   0  0  0  0  0  0  0  0  0  0  0  0
   -8.9257   -5.0944    1.6115 H   0  0  0  0  0  0  0  0  0  0  0  0
 41 40  1  0
 40 38  1  0
 39 38  2  0
 38 25  1  0
 25 26  1  0
 25 24  2  0
 26 27  2  0
 24 23  1  0
 27 28  1  0
 23 28  2  0
 23 20  1  0
 28 29  1  0
 21 20  2  0
 21 22  1  0
 29 30  1  0
 29 33  1  0
 20 19  1  0
 30 31  2  0
 22 17  2  0
 33 34  2  0
 33 32  1  0
 34 35  1  0
 31 32  1  0
 19 18  2  0
 32 37  2  0
 35 36  2  0
 17 18  1  0
 17 16  1  0
 37 36  1  0
 16 15  3  0
 15 12  1  0
 11 12  1  0
 11 10  2  0
 12 13  2  0
 10  9  1  0
 13 14  1  0
  9 14  2  0
  9  8  1  0
  4  3  1  0
  4  5  1  0
  8  5  1  0
  3  2  1  0
  5  6  1  0
  2  1  1  0
  2  7  1  0
  6  7  1  0
  1 42  1  0
  1 43  1  0
  1 44  1  0
  3 45  1  0
  3 46  1  0
  4 47  1  0
  4 48  1  0
  6 49  1  0
  6 50  1  0
  7 51  1  0
  7 52  1  0
  8 53  1  0
  8 54  1  0
 10 55  1  0
 11 56  1  0
 13 57  1  0
 18 58  1  0
 19 59  1  0
 21 60  1  0
 22 61  1  0
 24 62  1  0
 26 63  1  0
 30 64  1  0
 34 65  1  0
 35 66  1  0
 36 67  1  0
 37 68  1  0
 40 69  1  0
 41 70  1  0
M  END
