
     RDKit          3D

 42 44  0  0  0  0  0  0  0  0999 V2000
   -4.5060   -0.7056   -0.0407 C   0  0  2  0  0  0  0  0  0  0  0  0
   -4.6250   -0.9301   -1.4057 O   0  0  0  0  0  0  0  0  0  0  0  0
    4.2298   -0.2051    0.2714 C   0  0  0  0  0  0  0  0  0  0  0  0
   -4.2672    0.7882    0.2045 C   0  0  2  0  0  0  0  0  0  0  0  0
   -5.2970    1.5796   -0.4440 N   0  0  0  0  0  0  0  0  0  0  0  0
    4.8589    0.9095    0.8227 C   0  0  0  0  0  0  0  0  0  0  0  0
   -2.8799    1.2188   -0.2896 C   0  0  1  0  0  0  0  0  0  0  0  0
   -2.6028    2.5556    0.0580 O   0  0  0  0  0  0  0  0  0  0  0  0
    6.0863    1.3462    0.3423 C   0  0  0  0  0  0  0  0  0  0  0  0
   -1.8641    0.3169    0.3750 C   0  0  2  0  0  0  0  0  0  0  0  0
   -0.5559    0.5922   -0.0750 O   0  0  0  0  0  0  0  0  0  0  0  0
    6.7058    0.6726   -0.7029 C   0  0  0  0  0  0  0  0  0  0  0  0
   -2.1931   -1.1395    0.0636 C   0  0  2  0  0  0  0  0  0  0  0  0
   -3.4757   -1.4758    0.5388 O   0  0  0  0  0  0  0  0  0  0  0  0
    6.0887   -0.4393   -1.2610 C   0  0  0  0  0  0  0  0  0  0  0  0
   -1.1425   -2.0081    0.7353 C   0  0  0  0  0  0  0  0  0  0  0  0
    0.1332   -1.5857    0.2930 O   0  0  0  0  0  0  0  0  0  0  0  0
    4.8609   -0.8718   -0.7765 C   0  0  0  0  0  0  0  0  0  0  0  0
    0.3823   -0.2333    0.5622 C   0  0  1  0  0  0  0  0  0  0  0  0
   -5.4119   -1.0201    0.4922 H   0  0  0  0  0  0  0  0  0  0  0  0
   -4.2696    0.9079    1.2998 H   0  0  0  0  0  0  0  0  0  0  0  0
   -6.2123    1.2544   -0.1554 H   0  0  0  0  0  0  0  0  0  0  0  0
   -5.2423    2.5327   -0.1071 H   0  0  0  0  0  0  0  0  0  0  0  0
    4.3840    1.4421    1.6395 H   0  0  0  0  0  0  0  0  0  0  0  0
   -2.8263    1.0813   -1.3779 H   0  0  0  0  0  0  0  0  0  0  0  0
   -2.9594    3.1311   -0.6243 H   0  0  0  0  0  0  0  0  0  0  0  0
    1.9052    1.1982    0.2124 H   0  0  0  0  0  0  0  0  0  0  0  0
    1.8090   -0.0467   -1.0250 H   0  0  0  0  0  0  0  0  0  0  0  0
    6.5615    2.2115    0.7867 H   0  0  0  0  0  0  0  0  0  0  0  0
   -1.9199    0.4618    1.4684 H   0  0  0  0  0  0  0  0  0  0  0  0
    2.7545   -1.7154    0.5861 H   0  0  0  0  0  0  0  0  0  0  0  0
    2.8009   -0.4867    1.8379 H   0  0  0  0  0  0  0  0  0  0  0  0
    7.6639    1.0094   -1.0773 H   0  0  0  0  0  0  0  0  0  0  0  0
   -2.1232   -1.2896   -1.0223 H   0  0  0  0  0  0  0  0  0  0  0  0
    6.5653   -0.9742   -2.0728 H   0  0  0  0  0  0  0  0  0  0  0  0
   -1.2272   -1.9248    1.8283 H   0  0  0  0  0  0  0  0  0  0  0  0
   -1.2520   -3.0590    0.4645 H   0  0  0  0  0  0  0  0  0  0  0  0
    4.3865   -1.7412   -1.2173 H   0  0  0  0  0  0  0  0  0  0  0  0
    0.3184   -0.0677    1.6536 H   0  0  0  0  0  0  0  0  0  0  0  0
   -4.9531   -1.8248   -1.5475 H   0  0  0  0  0  0  0  0  0  0  0  0
    1.7606    0.1268    0.0541 C   0  0  0  0  0  0  0  0  0  0  0  0
    2.8769   -0.6449    0.7585 C   0  0  0  0  0  0  0  0  0  0  0  0
  1  2  1  0
  1  4  1  0
  1 14  1  0
  3  6  2  0
  3 42  1  0
  3 18  1  0
  4  5  1  0
  4  7  1  0
  6  9  1  0
  7  8  1  0
  7 10  1  0
 41 42  1  0
 41 19  1  0
  9 12  2  0
 10 11  1  0
 10 13  1  0
 11 19  1  0
 12 15  1  0
 13 14  1  0
 13 16  1  0
 15 18  2  0
 16 17  1  0
 17 19  1  0
  1 20  1  1
  4 21  1  1
  5 22  1  0
  5 23  1  0
  6 24  1  0
  7 25  1  6
  8 26  1  0
 41 27  1  0
 41 28  1  0
  9 29  1  0
 10 30  1  1
 42 31  1  0
 42 32  1  0
 12 33  1  0
 13 34  1  6
 15 35  1  0
 16 36  1  0
 16 37  1  0
 18 38  1  0
 19 39  1  1
  2 40  1  0
M  END
