
     RDKit          3D

 32 32  0  0  0  0  0  0  0  0999 V2000
    2.8613    1.7189   -0.3154 C   0  0  0  0  0  0  0  0  0  0  0  0
    1.1535   -0.0101   -0.1151 N   0  0  0  0  0  0  0  0  0  0  0  0
    2.0894    2.4579   -0.8651 O   0  0  0  0  0  0  0  0  0  0  0  0
    0.2282    0.5143    0.7161 C   0  0  0  0  0  0  0  0  0  0  0  0
    0.4860    1.1306    1.7288 O   0  0  0  0  0  0  0  0  0  0  0  0
   -2.0907    0.7375    1.0898 C   0  0  0  0  0  0  0  0  0  0  0  0
   -1.0060    0.2444    0.2909 O   0  0  0  0  0  0  0  0  0  0  0  0
   -3.3564    0.2431    0.4595 C   0  0  0  0  0  0  0  0  0  0  0  0
   -3.8280   -1.0369    0.7379 C   0  0  0  0  0  0  0  0  0  0  0  0
   -4.9865   -1.5071    0.1360 C   0  0  0  0  0  0  0  0  0  0  0  0
   -5.6860   -0.6994   -0.7522 C   0  0  0  0  0  0  0  0  0  0  0  0
   -5.2225    0.5786   -1.0349 C   0  0  0  0  0  0  0  0  0  0  0  0
   -4.0617    1.0451   -0.4322 C   0  0  0  0  0  0  0  0  0  0  0  0
    2.5451    0.2778    0.0727 C   0  0  1  0  0  0  0  0  0  0  0  0
    3.3900   -0.6923   -0.7460 C   0  0  0  0  0  0  0  0  0  0  0  0
    3.2749   -2.1093   -0.2435 C   0  0  0  0  0  0  0  0  0  0  0  0
    3.6474   -2.9827   -1.1681 O   0  0  0  0  0  0  0  0  0  0  0  0
    2.9273   -2.4183    0.8671 O   0  0  0  0  0  0  0  0  0  0  0  0
    4.0956    2.0491    0.0309 O   0  0  0  0  0  0  0  0  0  0  0  0
    0.8523   -0.3642   -1.0106 H   0  0  0  0  0  0  0  0  0  0  0  0
   -1.9968    0.3730    2.1144 H   0  0  0  0  0  0  0  0  0  0  0  0
   -2.0692    1.8288    1.1134 H   0  0  0  0  0  0  0  0  0  0  0  0
   -3.2907   -1.6693    1.4348 H   0  0  0  0  0  0  0  0  0  0  0  0
   -5.3443   -2.5032    0.3620 H   0  0  0  0  0  0  0  0  0  0  0  0
   -6.5918   -1.0638   -1.2191 H   0  0  0  0  0  0  0  0  0  0  0  0
   -5.7638    1.2130   -1.7245 H   0  0  0  0  0  0  0  0  0  0  0  0
   -3.7052    2.0442   -0.6536 H   0  0  0  0  0  0  0  0  0  0  0  0
    2.8003    0.1573    1.1287 H   0  0  0  0  0  0  0  0  0  0  0  0
    3.1276   -0.6419   -1.8054 H   0  0  0  0  0  0  0  0  0  0  0  0
    4.4465   -0.4183   -0.6836 H   0  0  0  0  0  0  0  0  0  0  0  0
    3.6161   -3.8823   -0.8085 H   0  0  0  0  0  0  0  0  0  0  0  0
    4.2911    2.9599   -0.2369 H   0  0  0  0  0  0  0  0  0  0  0  0
  3  1  2  0
  1 14  1  0
  1 19  1  0
 14  2  1  0
  2  4  1  0
  2 20  1  0
  5  4  2  0
  4  7  1  0
  7  6  1  0
  6  8  1  0
  6 21  1  0
  6 22  1  0
 13  8  2  0
  8  9  1  0
  9 10  2  0
  9 23  1  0
 11 10  1  0
 10 24  1  0
 12 11  2  0
 11 25  1  0
 13 12  1  0
 12 26  1  0
 13 27  1  0
 15 14  1  0
 14 28  1  1
 16 15  1  0
 15 29  1  0
 15 30  1  0
 18 16  2  0
 16 17  1  0
 17 31  1  0
 19 32  1  0
M  END
