
     RDKit          3D

 49 50  0  0  0  0  0  0  0  0999 V2000
   -2.7427   -1.6358    0.6811 C   0  0  0  0  0  0  0  0  0  0  0  0
   -3.3059   -3.0207    0.3747 C   0  0  0  0  0  0  0  0  0  0  0  0
   -4.8217   -3.0558    0.5334 C   0  0  0  0  0  0  0  0  0  0  0  0
   -5.4878   -1.9788   -0.3164 C   0  0  0  0  0  0  0  0  0  0  0  0
   -4.9181   -0.5980   -0.0078 C   0  0  0  0  0  0  0  0  0  0  0  0
   -3.3983   -0.5502   -0.1743 C   0  0  1  0  0  0  0  0  0  0  0  0
   -2.8735    0.8501    0.1360 C   0  0  0  0  0  0  0  0  0  0  0  0
   -1.3670    1.0332   -0.0791 C   0  0  1  0  0  0  0  0  0  0  0  0
   -0.8789    0.6872   -1.4037 N   0  0  0  0  0  0  0  0  0  0  0  0
   -0.9456    2.4759    0.2438 C   0  0  2  0  0  0  0  0  0  0  0  0
   -1.5898    3.4049   -0.5803 O   0  0  0  0  0  0  0  0  0  0  0  0
    0.5647    2.6248    0.0669 C   0  0  0  0  0  0  0  0  0  0  0  0
    1.0255    3.3163   -0.8227 O   0  0  0  0  0  0  0  0  0  0  0  0
    1.3050    1.9446    0.9615 N   0  0  0  0  0  0  0  0  0  0  0  0
    2.6660    1.8657    0.8522 N   0  0  0  0  0  0  0  0  0  0  0  0
    3.2039    0.6395    0.4492 C   0  0  0  0  0  0  0  0  0  0  0  0
    2.5010   -0.2344   -0.3779 C   0  0  0  0  0  0  0  0  0  0  0  0
    3.0905   -1.4220   -0.7898 C   0  0  0  0  0  0  0  0  0  0  0  0
    4.3799   -1.7791   -0.4075 C   0  0  0  0  0  0  0  0  0  0  0  0
    5.0717   -0.8880    0.4116 C   0  0  0  0  0  0  0  0  0  0  0  0
    4.4995    0.2983    0.8397 C   0  0  0  0  0  0  0  0  0  0  0  0
    4.9922   -3.0824   -0.8346 C   0  0  0  0  0  0  0  0  0  0  0  0
   -1.6586   -1.6456    0.5341 H   0  0  0  0  0  0  0  0  0  0  0  0
   -2.9042   -1.4017    1.7411 H   0  0  0  0  0  0  0  0  0  0  0  0
   -3.0429   -3.2973   -0.6523 H   0  0  0  0  0  0  0  0  0  0  0  0
   -2.8394   -3.7666    1.0231 H   0  0  0  0  0  0  0  0  0  0  0  0
   -5.2082   -4.0428    0.2670 H   0  0  0  0  0  0  0  0  0  0  0  0
   -5.0784   -2.8957    1.5867 H   0  0  0  0  0  0  0  0  0  0  0  0
   -5.3325   -2.2049   -1.3774 H   0  0  0  0  0  0  0  0  0  0  0  0
   -6.5689   -1.9838   -0.1553 H   0  0  0  0  0  0  0  0  0  0  0  0
   -5.1739   -0.3209    1.0223 H   0  0  0  0  0  0  0  0  0  0  0  0
   -5.3819    0.1548   -0.6525 H   0  0  0  0  0  0  0  0  0  0  0  0
   -3.1825   -0.7734   -1.2286 H   0  0  0  0  0  0  0  0  0  0  0  0
   -3.1131    1.0987    1.1769 H   0  0  0  0  0  0  0  0  0  0  0  0
   -3.4126    1.5712   -0.4864 H   0  0  0  0  0  0  0  0  0  0  0  0
   -0.8449    0.3839    0.6317 H   0  0  0  0  0  0  0  0  0  0  0  0
   -1.0394   -0.2946   -1.5885 H   0  0  0  0  0  0  0  0  0  0  0  0
   -1.4005    1.1936   -2.1106 H   0  0  0  0  0  0  0  0  0  0  0  0
   -1.2053    2.6846    1.2899 H   0  0  0  0  0  0  0  0  0  0  0  0
   -0.9296    3.7234   -1.2129 H   0  0  0  0  0  0  0  0  0  0  0  0
    0.8477    1.3814    1.6677 H   0  0  0  0  0  0  0  0  0  0  0  0
    3.1372    2.2954    1.6352 H   0  0  0  0  0  0  0  0  0  0  0  0
    1.5012    0.0099   -0.7185 H   0  0  0  0  0  0  0  0  0  0  0  0
    2.5233   -2.0840   -1.4340 H   0  0  0  0  0  0  0  0  0  0  0  0
    6.0794   -1.1255    0.7330 H   0  0  0  0  0  0  0  0  0  0  0  0
    5.0621    0.9630    1.4850 H   0  0  0  0  0  0  0  0  0  0  0  0
    4.9188   -3.8337   -0.0455 H   0  0  0  0  0  0  0  0  0  0  0  0
    4.4924   -3.4872   -1.7142 H   0  0  0  0  0  0  0  0  0  0  0  0
    6.0503   -2.9716   -1.0733 H   0  0  0  0  0  0  0  0  0  0  0  0
  1  2  1  0
  1  6  1  0
  1 23  1  0
  1 24  1  0
  2  3  1  0
  2 25  1  0
  2 26  1  0
  3  4  1  0
  3 27  1  0
  3 28  1  0
  4  5  1  0
  4 29  1  0
  4 30  1  0
  5  6  1  0
  5 31  1  0
  5 32  1  0
  6  7  1  0
  6 33  1  6
  7  8  1  0
  7 34  1  0
  7 35  1  0
  8  9  1  0
  8 10  1  0
  8 36  1  1
  9 37  1  0
  9 38  1  0
 10 11  1  0
 10 12  1  0
 10 39  1  1
 11 40  1  0
 12 13  2  0
 12 14  1  0
 14 15  1  0
 14 41  1  0
 15 16  1  0
 15 42  1  0
 16 17  2  0
 16 21  1  0
 17 18  1  0
 17 43  1  0
 18 19  2  0
 18 44  1  0
 19 20  1  0
 19 22  1  0
 20 21  2  0
 20 45  1  0
 21 46  1  0
 22 47  1  0
 22 48  1  0
 22 49  1  0
M  END
