
     RDKit          3D

 55 58  0  0  0  0  0  0  0  0999 V2000
   -6.5893    1.3770   -0.6089 N   0  0  0  0  0  0  0  0  0  0  0  0
   -7.9056    0.9780   -0.5670 C   0  0  0  0  0  0  0  0  0  0  0  0
   -8.8056    1.7247   -0.9073 O   0  0  0  0  0  0  0  0  0  0  0  0
   -8.0724   -0.3881   -0.0862 C   0  0  0  0  0  0  0  0  0  0  0  0
   -9.3448   -0.9555    0.0246 C   0  0  0  0  0  0  0  0  0  0  0  0
   -9.4845   -2.2469    0.4837 C   0  0  0  0  0  0  0  0  0  0  0  0
   -8.3500   -2.9867    0.8359 C   0  0  0  0  0  0  0  0  0  0  0  0
   -7.0905   -2.4379    0.7293 C   0  0  0  0  0  0  0  0  0  0  0  0
   -6.9311   -1.1249    0.2661 C   0  0  0  0  0  0  0  0  0  0  0  0
   -5.6589   -0.6066    0.1763 N   0  0  0  0  0  0  0  0  0  0  0  0
   -5.5281    0.5980   -0.2458 C   0  0  0  0  0  0  0  0  0  0  0  0
   -4.1869    1.2524   -0.3624 C   0  0  0  0  0  0  0  0  0  0  0  0
   -3.0383    0.3084   -0.0698 C   0  0  0  0  0  0  0  0  0  0  0  0
   -1.6910    0.9823   -0.2132 C   0  0  0  0  0  0  0  0  0  0  0  0
   -1.5442    2.0773   -0.7200 O   0  0  0  0  0  0  0  0  0  0  0  0
   -0.6662    0.2233    0.2666 N   0  0  0  0  0  0  0  0  0  0  0  0
    0.7018    0.4748    0.2606 C   0  0  0  0  0  0  0  0  0  0  0  0
    1.2905    1.6572   -0.1967 C   0  0  0  0  0  0  0  0  0  0  0  0
    2.6657    1.8036   -0.1445 C   0  0  0  0  0  0  0  0  0  0  0  0
    1.5283   -0.5353    0.7625 C   0  0  0  0  0  0  0  0  0  0  0  0
    2.8992   -0.3795    0.7974 C   0  0  0  0  0  0  0  0  0  0  0  0
    3.4946    0.7942    0.3362 C   0  0  0  0  0  0  0  0  0  0  0  0
    4.9631    1.0356    0.3698 C   0  0  0  0  0  0  0  0  0  0  0  0
    5.4251    2.1645    0.3683 O   0  0  0  0  0  0  0  0  0  0  0  0
    5.7346   -0.0818    0.3956 N   0  0  0  0  0  0  0  0  0  0  0  0
    7.1374   -0.0907    0.4400 C   0  0  0  0  0  0  0  0  0  0  0  0
    7.8563    0.7228    1.3043 C   0  0  0  0  0  0  0  0  0  0  0  0
    9.2445    0.6752    1.3292 C   0  0  0  0  0  0  0  0  0  0  0  0
    9.9170   -0.2040    0.4978 C   0  0  0  0  0  0  0  0  0  0  0  0
    9.2118   -1.0390   -0.3613 C   0  0  0  0  0  0  0  0  0  0  0  0
    7.8236   -0.9829   -0.4021 C   0  0  0  0  0  0  0  0  0  0  0  0
    7.0511   -1.7426   -1.2011 O   0  0  0  0  0  0  0  0  0  0  0  0
    7.6735   -2.7013   -2.0344 C   0  0  0  0  0  0  0  0  0  0  0  0
   -6.4081    2.3178   -0.9363 H   0  0  0  0  0  0  0  0  0  0  0  0
  -10.2157   -0.3749   -0.2494 H   0  0  0  0  0  0  0  0  0  0  0  0
  -10.4675   -2.6886    0.5742 H   0  0  0  0  0  0  0  0  0  0  0  0
   -8.4637   -4.0009    1.1961 H   0  0  0  0  0  0  0  0  0  0  0  0
   -6.2094   -3.0059    0.9988 H   0  0  0  0  0  0  0  0  0  0  0  0
   -4.0944    1.6733   -1.3668 H   0  0  0  0  0  0  0  0  0  0  0  0
   -4.1682    2.1054    0.3231 H   0  0  0  0  0  0  0  0  0  0  0  0
   -3.1312   -0.1139    0.9329 H   0  0  0  0  0  0  0  0  0  0  0  0
   -3.0625   -0.5444   -0.7546 H   0  0  0  0  0  0  0  0  0  0  0  0
   -0.9307   -0.6655    0.6659 H   0  0  0  0  0  0  0  0  0  0  0  0
    0.6932    2.4634   -0.5877 H   0  0  0  0  0  0  0  0  0  0  0  0
    3.0990    2.7295   -0.4983 H   0  0  0  0  0  0  0  0  0  0  0  0
    1.0905   -1.4529    1.1358 H   0  0  0  0  0  0  0  0  0  0  0  0
    3.4902   -1.1838    1.2171 H   0  0  0  0  0  0  0  0  0  0  0  0
    5.2911   -0.9614    0.1809 H   0  0  0  0  0  0  0  0  0  0  0  0
    7.3321    1.3897    1.9739 H   0  0  0  0  0  0  0  0  0  0  0  0
    9.7915    1.3172    2.0063 H   0  0  0  0  0  0  0  0  0  0  0  0
   10.9978   -0.2541    0.5135 H   0  0  0  0  0  0  0  0  0  0  0  0
    9.7585   -1.7208   -0.9982 H   0  0  0  0  0  0  0  0  0  0  0  0
    6.8753   -3.2093   -2.5693 H   0  0  0  0  0  0  0  0  0  0  0  0
    8.3428   -2.2336   -2.7604 H   0  0  0  0  0  0  0  0  0  0  0  0
    8.2367   -3.4379   -1.4566 H   0  0  0  0  0  0  0  0  0  0  0  0
 33 32  1  0
 30 29  2  0
 30 31  1  0
 29 28  1  0
 32 31  1  0
 31 26  2  0
 28 27  2  0
 26 27  1  0
 26 25  1  0
 25 23  1  0
 23 24  2  0
 23 22  1  0
 19 22  1  0
 19 18  2  0
 22 21  2  0
 18 17  1  0
 21 20  1  0
 17 20  2  0
 17 16  1  0
 16 14  1  0
 14 13  1  0
 14 15  2  0
 13 12  1  0
 12 11  1  0
 11  1  1  0
 11 10  2  0
  1  2  1  0
 10  9  1  0
  2  3  2  0
  2  4  1  0
  9  4  2  0
  9  8  1  0
  4  5  1  0
  8  7  2  0
  5  6  2  0
  7  6  1  0
  1 34  1  0
  5 35  1  0
  6 36  1  0
  7 37  1  0
  8 38  1  0
 12 39  1  0
 12 40  1  0
 13 41  1  0
 13 42  1  0
 16 43  1  0
 18 44  1  0
 19 45  1  0
 20 46  1  0
 21 47  1  0
 25 48  1  0
 27 49  1  0
 28 50  1  0
 29 51  1  0
 30 52  1  0
 33 53  1  0
 33 54  1  0
 33 55  1  0
M  END
