
     RDKit          3D

 13 13  0  0  0  0  0  0  0  0999 V2000
    1.1808    0.0604    1.1600 C   0  0  0  0  0  0  0  0  0  0  0  0
    1.1043    0.1472    2.5425 C   0  0  0  0  0  0  0  0  0  0  0  0
   -0.1341    0.1530    3.1795 C   0  0  0  0  0  0  0  0  0  0  0  0
   -0.2648    0.2358    4.5150 O   0  0  0  0  0  0  0  0  0  0  0  0
   -1.2973    0.0709    2.4164 C   0  0  0  0  0  0  0  0  0  0  0  0
   -1.2223   -0.0162    1.0359 C   0  0  0  0  0  0  0  0  0  0  0  0
    0.0175   -0.0205    0.4102 C   0  0  0  0  0  0  0  0  0  0  0  0
    0.1299   -0.1500   -1.6862 I   0  0  0  0  0  0  0  0  0  0  0  0
    2.1541    0.0578    0.6882 H   0  0  0  0  0  0  0  0  0  0  0  0
    2.0191    0.2119    3.1202 H   0  0  0  0  0  0  0  0  0  0  0  0
    0.5987    0.3108    4.9366 H   0  0  0  0  0  0  0  0  0  0  0  0
   -2.2645    0.0762    2.9030 H   0  0  0  0  0  0  0  0  0  0  0  0
   -2.1374   -0.0797    0.4627 H   0  0  0  0  0  0  0  0  0  0  0  0
  1  2  2  0
  1  7  1  0
  1  9  1  0
  2  3  1  0
  2 10  1  0
  3  4  1  0
  3  5  2  0
  4 11  1  0
  5  6  1  0
  5 12  1  0
  6  7  2  0
  6 13  1  0
  7  8  1  0
M  END
