
     RDKit          3D

 36 36  0  0  0  0  0  0  0  0999 V2000
   -1.4246   -0.5743   -1.3942 C   0  0  0  0  0  0  0  0  0  0  0  0
   -2.2067   -1.4259   -0.4008 C   0  0  0  0  0  0  0  0  0  0  0  0
   -3.4899   -0.7250    0.0458 C   0  0  1  0  0  0  0  0  0  0  0  0
   -4.2295   -1.5268    1.1071 C   0  0  0  0  0  0  0  0  0  0  0  0
   -3.1744    0.6912    0.5270 C   0  0  0  0  0  0  0  0  0  0  0  0
   -2.3570    1.4592   -0.5047 C   0  0  0  0  0  0  0  0  0  0  0  0
   -1.1382    0.7422   -0.8443 N   0  0  0  0  0  0  0  0  0  0  0  0
    0.0056    1.0436   -0.1511 C   0  0  0  0  0  0  0  0  0  0  0  0
    0.0656    1.9927    0.6260 O   0  0  0  0  0  0  0  0  0  0  0  0
    1.0861    0.2446   -0.3720 N   0  0  0  0  0  0  0  0  0  0  0  0
    2.3852    0.5952    0.1640 C   0  0  0  0  0  0  0  0  0  0  0  0
    3.3575   -0.5637    0.0119 C   0  0  0  0  0  0  0  0  0  0  0  0
    4.7488   -0.2122    0.5238 C   0  0  0  0  0  0  0  0  0  0  0  0
    5.7325   -1.3663    0.3947 C   0  0  0  0  0  0  0  0  0  0  0  0
   -0.5194   -1.0883   -1.7104 H   0  0  0  0  0  0  0  0  0  0  0  0
   -2.4429   -2.3900   -0.8595 H   0  0  0  0  0  0  0  0  0  0  0  0
   -3.6216   -1.6410    2.0075 H   0  0  0  0  0  0  0  0  0  0  0  0
   -5.1592   -1.0338    1.3965 H   0  0  0  0  0  0  0  0  0  0  0  0
   -4.4814   -2.5258    0.7470 H   0  0  0  0  0  0  0  0  0  0  0  0
   -4.1008    1.2324    0.7386 H   0  0  0  0  0  0  0  0  0  0  0  0
   -2.9393    1.5756   -1.4242 H   0  0  0  0  0  0  0  0  0  0  0  0
    1.1069   -0.3153   -1.2080 H   0  0  0  0  0  0  0  0  0  0  0  0
    2.7941    1.4851   -0.3299 H   0  0  0  0  0  0  0  0  0  0  0  0
    2.2787    0.8433    1.2205 H   0  0  0  0  0  0  0  0  0  0  0  0
    2.9731   -1.4343    0.5524 H   0  0  0  0  0  0  0  0  0  0  0  0
    3.4240   -0.8555   -1.0422 H   0  0  0  0  0  0  0  0  0  0  0  0
    5.1272    0.6559   -0.0241 H   0  0  0  0  0  0  0  0  0  0  0  0
    4.6820    0.0953    1.5715 H   0  0  0  0  0  0  0  0  0  0  0  0
    5.3929   -2.2397    0.9545 H   0  0  0  0  0  0  0  0  0  0  0  0
    5.8517   -1.6701   -0.6468 H   0  0  0  0  0  0  0  0  0  0  0  0
    6.7175   -1.0936    0.7744 H   0  0  0  0  0  0  0  0  0  0  0  0
   -2.0149   -0.4327   -2.3045 H   0  0  0  0  0  0  0  0  0  0  0  0
   -1.5754   -1.6351    0.4704 H   0  0  0  0  0  0  0  0  0  0  0  0
   -4.1420   -0.6400   -0.8334 H   0  0  0  0  0  0  0  0  0  0  0  0
   -2.6129    0.6438    1.4668 H   0  0  0  0  0  0  0  0  0  0  0  0
   -2.1127    2.4577   -0.1528 H   0  0  0  0  0  0  0  0  0  0  0  0
 14 13  1  0
  9  8  2  0
 11 12  1  0
 11 10  1  0
 13 12  1  0
  8 10  1  0
  8  7  1  0
  6  5  1  0
  6  7  1  0
  5  3  1  0
  7  1  1  0
  3  4  1  0
  3  2  1  0
  1  2  1  0
  1 15  1  0
  2 16  1  0
  4 17  1  0
  4 18  1  0
  4 19  1  0
  5 20  1  0
  6 21  1  0
 10 22  1  0
 11 23  1  0
 11 24  1  0
 12 25  1  0
 12 26  1  0
 13 27  1  0
 13 28  1  0
 14 29  1  0
 14 30  1  0
 14 31  1  0
  1 32  1  0
  2 33  1  0
  3 34  1  6
  5 35  1  0
  6 36  1  0
M  END
