
     RDKit          3D

 32 31  0  0  0  0  0  0  0  0999 V2000
    6.1815    0.3320   -0.0306 N   0  0  0  0  0  0  0  0  0  0  0  0
    4.9764   -0.4830    0.0363 C   0  0  0  0  0  0  0  0  0  0  0  0
    3.7282    0.3840   -0.0262 C   0  0  0  0  0  0  0  0  0  0  0  0
    2.4431   -0.4298    0.0511 C   0  0  0  0  0  0  0  0  0  0  0  0
    1.1972    0.4383   -0.0275 C   0  0  0  0  0  0  0  0  0  0  0  0
   -0.0133   -0.3545    0.0720 N   0  0  0  0  0  0  0  0  0  0  0  0
   -1.2213    0.4403   -0.0400 C   0  0  0  0  0  0  0  0  0  0  0  0
   -2.4702   -0.4210    0.0638 C   0  0  0  0  0  0  0  0  0  0  0  0
   -3.7523    0.3893   -0.0721 C   0  0  0  0  0  0  0  0  0  0  0  0
   -5.0036   -0.4672    0.0445 C   0  0  0  0  0  0  0  0  0  0  0  0
   -6.2063    0.3411   -0.1001 N   0  0  0  0  0  0  0  0  0  0  0  0
    6.2506    0.8890    0.8128 H   0  0  0  0  0  0  0  0  0  0  0  0
    6.9968   -0.2676   -0.0255 H   0  0  0  0  0  0  0  0  0  0  0  0
    4.9772   -1.1660   -0.8179 H   0  0  0  0  0  0  0  0  0  0  0  0
    4.9246   -1.1161    0.9343 H   0  0  0  0  0  0  0  0  0  0  0  0
    3.7496    1.1069    0.7974 H   0  0  0  0  0  0  0  0  0  0  0  0
    3.7457    0.9686   -0.9514 H   0  0  0  0  0  0  0  0  0  0  0  0
    2.4271   -1.1611   -0.7650 H   0  0  0  0  0  0  0  0  0  0  0  0
    2.4214   -1.0047    0.9823 H   0  0  0  0  0  0  0  0  0  0  0  0
    1.2051    1.1561    0.7999 H   0  0  0  0  0  0  0  0  0  0  0  0
    1.2323    1.0400   -0.9515 H   0  0  0  0  0  0  0  0  0  0  0  0
   -0.0103   -1.0424   -0.6732 H   0  0  0  0  0  0  0  0  0  0  0  0
   -1.2232    1.1757    0.7718 H   0  0  0  0  0  0  0  0  0  0  0  0
   -1.2571    1.0226   -0.9764 H   0  0  0  0  0  0  0  0  0  0  0  0
   -2.4450   -1.1923   -0.7145 H   0  0  0  0  0  0  0  0  0  0  0  0
   -2.4619   -0.9491    1.0225 H   0  0  0  0  0  0  0  0  0  0  0  0
   -3.7740    1.1670    0.7001 H   0  0  0  0  0  0  0  0  0  0  0  0
   -3.7649    0.9100   -1.0352 H   0  0  0  0  0  0  0  0  0  0  0  0
   -4.9980   -1.2159   -0.7527 H   0  0  0  0  0  0  0  0  0  0  0  0
   -4.9631   -1.0275    0.9904 H   0  0  0  0  0  0  0  0  0  0  0  0
   -7.0221   -0.2567   -0.0640 H   0  0  0  0  0  0  0  0  0  0  0  0
   -6.2890    0.9595    0.6979 H   0  0  0  0  0  0  0  0  0  0  0  0
  2  1  1  0
  2  3  1  0
  3  4  1  0
  4  5  1  0
  5  6  1  0
  6  7  1  0
  7  8  1  0
  9  8  1  0
  9 10  1  0
 10 11  1  0
  1 12  1  0
  1 13  1  0
  2 14  1  0
  2 15  1  0
  3 16  1  0
  3 17  1  0
  4 18  1  0
  4 19  1  0
  5 20  1  0
  5 21  1  0
  6 22  1  0
  7 23  1  0
  7 24  1  0
  8 25  1  0
  8 26  1  0
  9 27  1  0
  9 28  1  0
 10 29  1  0
 10 30  1  0
 11 31  1  0
 11 32  1  0
M  END
