
     RDKit          3D

 25 24  0  0  0  0  0  0  0  0999 V2000
    0.2497    1.7649   -2.1353 C   0  0  0  0  0  0  0  0  0  0  0  0
    0.2772    0.3099   -2.0719 N   0  0  0  0  0  0  0  0  0  0  0  0
    1.2226   -0.3054   -1.3006 N   0  0  0  0  0  0  0  0  0  0  0  0
    1.1350   -0.4094    0.0628 C   0  0  0  0  0  0  0  0  0  0  0  0
    2.0339   -0.8806    0.7194 O   0  0  0  0  0  0  0  0  0  0  0  0
   -0.0260    0.0418    0.4882 O   0  0  0  0  0  0  0  0  0  0  0  0
   -0.4078    0.0548    1.8962 C   0  0  1  0  0  0  0  0  0  0  0  0
   -1.7853    0.7028    1.8654 C   0  0  0  0  0  0  0  0  0  0  0  0
   -0.5084   -1.3660    2.4333 C   0  0  0  0  0  0  0  0  0  0  0  0
    0.5529    0.9109    2.7101 C   0  0  0  0  0  0  0  0  0  0  0  0
   -0.8124   -0.3929   -2.3385 C   0  0  0  0  0  0  0  0  0  0  0  0
   -1.7492   -1.0253   -2.5853 N   0  0  0  0  0  0  0  0  0  0  0  0
    1.2398    2.1208   -2.4093 H   0  0  0  0  0  0  0  0  0  0  0  0
   -0.4518    2.0700   -2.9076 H   0  0  0  0  0  0  0  0  0  0  0  0
   -0.0493    2.2054   -1.1840 H   0  0  0  0  0  0  0  0  0  0  0  0
    2.0773   -0.5842   -1.7596 H   0  0  0  0  0  0  0  0  0  0  0  0
   -2.1875    0.7565    2.8767 H   0  0  0  0  0  0  0  0  0  0  0  0
   -1.7365    1.7183    1.4697 H   0  0  0  0  0  0  0  0  0  0  0  0
   -2.4824    0.1267    1.2554 H   0  0  0  0  0  0  0  0  0  0  0  0
   -1.1718   -1.9718    1.8143 H   0  0  0  0  0  0  0  0  0  0  0  0
    0.4596   -1.8592    2.4950 H   0  0  0  0  0  0  0  0  0  0  0  0
   -0.9289   -1.3363    3.4390 H   0  0  0  0  0  0  0  0  0  0  0  0
    0.7084    1.8824    2.2382 H   0  0  0  0  0  0  0  0  0  0  0  0
    0.1183    1.0908    3.6939 H   0  0  0  0  0  0  0  0  0  0  0  0
    1.5197    0.4352    2.8566 H   0  0  0  0  0  0  0  0  0  0  0  0
  1  2  1  0
  1 13  1  0
  1 14  1  0
  1 15  1  0
  2  3  1  0
  2 11  1  0
  3  4  1  0
  3 16  1  0
  4  5  2  0
  4  6  1  0
  7  6  1  6
  7  8  1  0
  7  9  1  0
  7 10  1  0
  8 17  1  0
  8 18  1  0
  8 19  1  0
  9 20  1  0
  9 21  1  0
  9 22  1  0
 10 23  1  0
 10 24  1  0
 10 25  1  0
 11 12  3  0
M  END
