
     RDKit          3D

 24 25  0  0  0  0  0  0  0  0999 V2000
   -2.2447    1.2364    0.1115 C   0  0  0  0  0  0  0  0  0  0  0  0
    1.1978   -0.3338   -0.1428 C   0  0  0  0  0  0  0  0  0  0  0  0
    1.2850   -1.7202   -0.2992 C   0  0  0  0  0  0  0  0  0  0  0  0
    0.4514    1.7737    0.1813 N   0  0  0  0  0  0  0  0  0  0  0  0
    2.3066    0.5237   -0.0812 C   0  0  0  0  0  0  0  0  0  0  0  0
   -1.2489    0.1772    0.1095 N   0  0  0  0  0  0  0  0  0  0  0  0
    1.4003   -2.8651   -0.4262 N   0  0  0  0  0  0  0  0  0  0  0  0
    3.6185    0.2474   -0.2478 N   0  0  0  0  0  0  0  0  0  0  0  0
    1.8113    1.7406    0.1186 N   0  0  0  0  0  0  0  0  0  0  0  0
    0.0665    0.5282    0.0373 C   0  0  0  0  0  0  0  0  0  0  0  0
   -3.5789    0.4875    0.1431 C   0  0  0  0  0  0  0  0  0  0  0  0
   -3.2606   -0.9476   -0.3205 C   0  0  0  0  0  0  0  0  0  0  0  0
   -1.7675   -0.9493   -0.6503 C   0  0  0  0  0  0  0  0  0  0  0  0
   -2.1078    1.8928    0.9713 H   0  0  0  0  0  0  0  0  0  0  0  0
   -2.1620    1.8589   -0.7887 H   0  0  0  0  0  0  0  0  0  0  0  0
    3.9001   -0.7069   -0.0908 H   0  0  0  0  0  0  0  0  0  0  0  0
    4.2814    0.9173    0.1088 H   0  0  0  0  0  0  0  0  0  0  0  0
    2.3300    2.6001    0.2020 H   0  0  0  0  0  0  0  0  0  0  0  0
   -3.9927    0.4804    1.1511 H   0  0  0  0  0  0  0  0  0  0  0  0
   -4.3104    0.9749   -0.4993 H   0  0  0  0  0  0  0  0  0  0  0  0
   -3.4728   -1.6614    0.4753 H   0  0  0  0  0  0  0  0  0  0  0  0
   -3.8494   -1.2467   -1.1865 H   0  0  0  0  0  0  0  0  0  0  0  0
   -1.6004   -0.8156   -1.7271 H   0  0  0  0  0  0  0  0  0  0  0  0
   -1.2907   -1.8828   -0.3541 H   0  0  0  0  0  0  0  0  0  0  0  0
  8  5  1  0
  7  3  3  0
  3  2  1  0
  5  2  2  0
  5  9  1  0
  2 10  1  0
  9  4  1  0
 10  4  2  0
 10  6  1  0
 13  6  1  0
 13 12  1  0
  6  1  1  0
 12 11  1  0
  1 11  1  0
  1 14  1  0
  1 15  1  0
  8 16  1  0
  8 17  1  0
  9 18  1  0
 11 19  1  0
 11 20  1  0
 12 21  1  0
 12 22  1  0
 13 23  1  0
 13 24  1  0
M  END
