
     RDKit          3D

 13 13  0  0  0  0  0  0  0  0999 V2000
   -0.5062    0.6587    0.1567 C   0  0  0  0  0  0  0  0  0  0  0  0
   -0.4852   -0.7330    0.0932 C   0  0  0  0  0  0  0  0  0  0  0  0
    0.6891   -1.4430   -0.0192 C   0  0  0  0  0  0  0  0  0  0  0  0
    1.8983   -0.7576   -0.0721 C   0  0  0  0  0  0  0  0  0  0  0  0
    1.9019    0.6271   -0.0101 C   0  0  0  0  0  0  0  0  0  0  0  0
    0.7090    1.3311    0.1026 C   0  0  0  0  0  0  0  0  0  0  0  0
   -1.6587   -1.3857    0.1469 F   0  0  0  0  0  0  0  0  0  0  0  0
   -1.7016    1.2641    0.2671 O   0  0  0  0  0  0  0  0  0  0  0  0
    0.6570   -2.5240   -0.0650 H   0  0  0  0  0  0  0  0  0  0  0  0
    2.8239   -1.3092   -0.1618 H   0  0  0  0  0  0  0  0  0  0  0  0
    2.8350    1.1730   -0.0500 H   0  0  0  0  0  0  0  0  0  0  0  0
    0.7221    2.4140    0.1491 H   0  0  0  0  0  0  0  0  0  0  0  0
   -1.5870    2.2206    0.2966 H   0  0  0  0  0  0  0  0  0  0  0  0
  1  2  2  0
  1  6  1  0
  1  8  1  0
  2  3  1  0
  2  7  1  0
  3  4  2  0
  4  5  1  0
  5  6  2  0
  3  9  1  0
  4 10  1  0
  5 11  1  0
  6 12  1  0
  8 13  1  0
M  END
