
     RDKit          3D

 72 75  0  0  0  0  0  0  0  0999 V2000
   31.5217   61.6776    4.6081 O   0  0  0  0  0  0  0  0  0  0  0  0
   32.1568   61.5437    5.6403 C   0  0  0  0  0  0  0  0  0  0  0  0
   33.2036   60.7047    5.7607 N   0  0  0  0  0  0  0  0  0  0  0  0
   33.7420   59.9245    4.6760 C   0  0  2  0  0  0  0  0  0  0  0  0
   33.4161   58.4407    4.8448 C   0  0  0  0  0  0  0  0  0  0  0  0
   34.2086   57.5897    4.5172 O   0  0  0  0  0  0  0  0  0  0  0  0
   32.0590   58.1148    5.3982 C   0  0  0  0  0  0  0  0  0  0  0  0
   35.2329   60.1719    4.5137 C   0  0  0  0  0  0  0  0  0  0  0  0
   35.5388   61.6068    4.1777 C   0  0  0  0  0  0  0  0  0  0  0  0
   34.7505   62.3959    3.7215 O   0  0  0  0  0  0  0  0  0  0  0  0
   36.8113   61.9019    4.4162 O   0  0  0  0  0  0  0  0  0  0  0  0
   31.8311   62.3690    6.8850 C   0  0  1  0  0  0  0  0  0  0  0  0
   31.6860   61.4953    8.0964 C   0  0  0  0  0  0  0  0  0  0  0  0
   32.9877   61.1898    9.1914 S   0  0  0  0  0  0  0  0  0  0  0  0
   30.5864   60.7732    8.4540 C   0  0  0  0  0  0  0  0  0  0  0  0
   30.7907   59.9717    9.6104 C   0  0  0  0  0  0  0  0  0  0  0  0
   32.0487   60.0909   10.1127 C   0  0  0  0  0  0  0  0  0  0  0  0
   32.8531   63.5150    7.0115 C   0  0  0  0  0  0  0  0  0  0  0  0
   32.3130   64.7668    7.6978 C   0  0  0  0  0  0  0  0  0  0  0  0
   31.8986   64.6027    9.1538 C   0  0  0  0  0  0  0  0  0  0  0  0
   31.4312   65.9123    9.7832 C   0  0  0  0  0  0  0  0  0  0  0  0
   32.4457   66.9462    9.8000 N   0  0  0  0  0  0  0  0  0  0  0  0
   33.4576   66.9573   10.6830 C   0  0  0  0  0  0  0  0  0  0  0  0
   33.5499   66.1291   11.5826 O   0  0  0  0  0  0  0  0  0  0  0  0
   34.4709   68.0417   10.5330 C   0  0  0  0  0  0  0  0  0  0  0  0
   34.6695   68.7587    9.3570 C   0  0  0  0  0  0  0  0  0  0  0  0
   35.6336   69.7491    9.2551 C   0  0  0  0  0  0  0  0  0  0  0  0
   35.2937   68.3357   11.6212 C   0  0  0  0  0  0  0  0  0  0  0  0
   36.2519   69.3222   11.5408 C   0  0  0  0  0  0  0  0  0  0  0  0
   36.4388   70.0500   10.3570 C   0  0  0  0  0  0  0  0  0  0  0  0
   37.4301   71.0166   10.3733 N   0  0  0  0  0  0  0  0  0  0  0  0
   37.8174   71.9117    9.4212 C   0  0  0  0  0  0  0  0  0  0  0  0
   37.2433   71.9781    8.2547 N   0  0  0  0  0  0  0  0  0  0  0  0
   38.9012   72.7920    9.7708 C   0  0  0  0  0  0  0  0  0  0  0  0
   39.3528   73.6807    8.9529 N   0  0  0  0  0  0  0  0  0  0  0  0
   38.7690   73.7701    7.7246 C   0  0  0  0  0  0  0  0  0  0  0  0
   37.7054   72.9077    7.3817 C   0  0  0  0  0  0  0  0  0  0  0  0
   39.2296   74.7237    6.7998 C   0  0  0  0  0  0  0  0  0  0  0  0
   38.6432   74.8156    5.5625 C   0  0  0  0  0  0  0  0  0  0  0  0
   37.5819   73.9578    5.2180 C   0  0  0  0  0  0  0  0  0  0  0  0
   37.1179   73.0202    6.1066 C   0  0  0  0  0  0  0  0  0  0  0  0
   33.6455   60.6035    6.6625 H   0  0  0  0  0  0  0  0  0  0  0  0
   33.2194   60.2380    3.7664 H   0  0  0  0  0  0  0  0  0  0  0  0
   31.2857   58.7245    4.9301 H   0  0  0  0  0  0  0  0  0  0  0  0
   31.8301   57.0613    5.2537 H   0  0  0  0  0  0  0  0  0  0  0  0
   32.0262   58.3343    6.4675 H   0  0  0  0  0  0  0  0  0  0  0  0
   35.6303   59.5530    3.7046 H   0  0  0  0  0  0  0  0  0  0  0  0
   35.7786   59.8770    5.4130 H   0  0  0  0  0  0  0  0  0  0  0  0
   36.9945   62.8163    4.1526 H   0  0  0  0  0  0  0  0  0  0  0  0
   30.8498   62.8079    6.6845 H   0  0  0  0  0  0  0  0  0  0  0  0
   29.6557   60.8129    7.9041 H   0  0  0  0  0  0  0  0  0  0  0  0
   30.0324   59.3387   10.0482 H   0  0  0  0  0  0  0  0  0  0  0  0
   32.4715   59.6114   10.9817 H   0  0  0  0  0  0  0  0  0  0  0  0
   33.1729   63.8044    6.0076 H   0  0  0  0  0  0  0  0  0  0  0  0
   33.7606   63.1652    7.5147 H   0  0  0  0  0  0  0  0  0  0  0  0
   31.4613   65.1404    7.1187 H   0  0  0  0  0  0  0  0  0  0  0  0
   33.0896   65.5336    7.6278 H   0  0  0  0  0  0  0  0  0  0  0  0
   32.7231   64.1910    9.7405 H   0  0  0  0  0  0  0  0  0  0  0  0
   31.0754   63.8884    9.2386 H   0  0  0  0  0  0  0  0  0  0  0  0
   31.0829   65.7300   10.8010 H   0  0  0  0  0  0  0  0  0  0  0  0
   30.5834   66.3085    9.2234 H   0  0  0  0  0  0  0  0  0  0  0  0
   32.3604   67.6909    9.1304 H   0  0  0  0  0  0  0  0  0  0  0  0
   34.0881   68.5479    8.4681 H   0  0  0  0  0  0  0  0  0  0  0  0
   35.7573   70.2772    8.3245 H   0  0  0  0  0  0  0  0  0  0  0  0
   35.1783   67.7892   12.5476 H   0  0  0  0  0  0  0  0  0  0  0  0
   36.8699   69.5373   12.4050 H   0  0  0  0  0  0  0  0  0  0  0  0
   37.9404   71.0753   11.2418 H   0  0  0  0  0  0  0  0  0  0  0  0
   39.3616   72.7180   10.7519 H   0  0  0  0  0  0  0  0  0  0  0  0
   40.0477   75.3732    7.0842 H   0  0  0  0  0  0  0  0  0  0  0  0
   38.9960   75.5463    4.8472 H   0  0  0  0  0  0  0  0  0  0  0  0
   37.1289   74.0394    4.2387 H   0  0  0  0  0  0  0  0  0  0  0  0
   36.3020   72.3575    5.8474 H   0  0  0  0  0  0  0  0  0  0  0  0
  1  2  2  0
  2  3  1  0
  2 12  1  0
  3  4  1  0
  3 42  1  0
  4  5  1  0
  4  8  1  0
  4 43  1  6
  5  6  2  0
  5  7  1  0
  7 44  1  0
  7 45  1  0
  7 46  1  0
  8  9  1  0
  8 47  1  0
  8 48  1  0
  9 10  2  0
  9 11  1  0
 11 49  1  0
 12 13  1  0
 12 18  1  0
 12 50  1  6
 13 14  1  0
 13 15  2  0
 14 17  1  0
 15 16  1  0
 15 51  1  0
 16 17  2  0
 16 52  1  0
 17 53  1  0
 18 19  1  0
 18 54  1  0
 18 55  1  0
 19 20  1  0
 19 56  1  0
 19 57  1  0
 20 21  1  0
 20 58  1  0
 20 59  1  0
 21 22  1  0
 21 60  1  0
 21 61  1  0
 22 23  1  0
 22 62  1  0
 23 24  2  0
 23 25  1  0
 25 26  2  0
 25 28  1  0
 26 27  1  0
 26 63  1  0
 27 30  2  0
 27 64  1  0
 28 29  2  0
 28 65  1  0
 29 30  1  0
 29 66  1  0
 30 31  1  0
 31 32  1  0
 31 67  1  0
 32 33  2  0
 32 34  1  0
 33 37  1  0
 34 35  2  0
 34 68  1  0
 35 36  1  0
 36 37  2  0
 36 38  1  0
 37 41  1  0
 38 39  2  0
 38 69  1  0
 39 40  1  0
 39 70  1  0
 40 41  2  0
 40 71  1  0
 41 72  1  0
M  END
