
     RDKit          3D

 18 18  0  0  0  0  0  0  0  0999 V2000
    1.5768   -1.3089   -0.5231 O   0  0  0  0  0  0  0  0  0  0  0  0
    1.3780   -0.2241    0.0609 C   0  0  0  0  0  0  0  0  0  0  0  0
    0.0138    0.1496    0.6630 C   0  0  2  0  0  0  0  0  0  0  0  0
    2.3909    0.6930    0.1781 N   0  0  0  0  0  0  0  0  0  0  0  0
   -0.9172   -0.9743    0.7738 N   0  0  0  0  0  0  0  0  0  0  0  0
   -2.1623   -0.6182    0.1001 C   0  0  0  0  0  0  0  0  0  0  0  0
   -2.0270    0.7707   -0.5437 C   0  0  0  0  0  0  0  0  0  0  0  0
   -0.6372    1.2733   -0.1767 C   0  0  0  0  0  0  0  0  0  0  0  0
   -0.5155   -1.8069    0.3770 H   0  0  0  0  0  0  0  0  0  0  0  0
    0.1853    0.5128    1.7190 H   0  0  0  0  0  0  0  0  0  0  0  0
   -2.4516   -1.3817   -0.6716 H   0  0  0  0  0  0  0  0  0  0  0  0
   -2.9681   -0.6037    0.8849 H   0  0  0  0  0  0  0  0  0  0  0  0
   -0.6938    2.2125    0.4253 H   0  0  0  0  0  0  0  0  0  0  0  0
   -0.0382    1.4900   -1.0947 H   0  0  0  0  0  0  0  0  0  0  0  0
   -2.1464    0.7023   -1.6526 H   0  0  0  0  0  0  0  0  0  0  0  0
   -2.8176    1.4589   -0.1576 H   0  0  0  0  0  0  0  0  0  0  0  0
    3.2875    0.4825   -0.1833 H   0  0  0  0  0  0  0  0  0  0  0  0
    2.2541    1.5448    0.6555 H   0  0  0  0  0  0  0  0  0  0  0  0
  5  3  1  0
  5  6  1  0
  3  8  1  0
  3  2  1  0
  8  7  1  0
  7  6  1  0
  2  1  2  0
  2  4  1  0
  5  9  1  0
  3 10  1  1
  6 11  1  0
  6 12  1  0
  8 13  1  0
  8 14  1  0
  7 15  1  0
  7 16  1  0
  4 17  1  0
  4 18  1  0
M  END
