
     RDKit          3D

  4  3  0  0  0  0  0  0  0  0999 V2000
   -0.0002    0.0001    0.0508 O   0  0  0  0  0  0  0  0  0  0  0  0
   -0.0009   -0.9476   -0.2068 H   0  0  0  0  0  0  0  0  0  0  0  0
    0.8208    0.4732   -0.2077 H   0  0  0  0  0  0  0  0  0  0  0  0
   -0.8207    0.4743   -0.2073 H   0  0  0  0  0  0  0  0  0  0  0  0
  1  2  1  0
  1  3  1  0
  1  4  1  0
M  CHG  1   1   1
M  END
