
     RDKit          3D

 65 67  0  0  0  0  0  0  0  0999 V2000
    8.1181    1.0835   -1.6848 C   0  0  0  0  0  0  0  0  0  0  0  0
    7.2264    0.2767   -0.7747 C   0  0  0  0  0  0  0  0  0  0  0  0
    7.5600   -0.8246   -0.3588 O   0  0  0  0  0  0  0  0  0  0  0  0
    6.0580    0.8655   -0.4585 N   0  0  0  0  0  0  0  0  0  0  0  0
    5.0513    0.2687    0.3839 C   0  0  1  0  0  0  0  0  0  0  0  0
    4.8950    1.0200    1.7396 C   0  0  1  0  0  0  0  0  0  0  0  0
    3.8873    0.2839    2.6233 C   0  0  0  0  0  0  0  0  0  0  0  0
    6.2562    1.0134    2.4392 C   0  0  0  0  0  0  0  0  0  0  0  0
    4.4348    2.4649    1.5469 C   0  0  0  0  0  0  0  0  0  0  0  0
    3.7537    0.2240   -0.4195 C   0  0  0  0  0  0  0  0  0  0  0  0
    3.4461    1.1618   -1.1440 O   0  0  0  0  0  0  0  0  0  0  0  0
    2.9583   -0.8542   -0.3185 N   0  0  0  0  0  0  0  0  0  0  0  0
    3.2194   -2.1359    0.3211 C   0  0  0  0  0  0  0  0  0  0  0  0
    2.3771   -3.0977   -0.5088 C   0  0  2  0  0  0  0  0  0  0  0  0
    2.9589   -3.3798   -1.7546 O   0  0  0  0  0  0  0  0  0  0  0  0
    1.1419   -2.2598   -0.8069 C   0  0  1  0  0  0  0  0  0  0  0  0
    0.3350   -2.2513    0.3249 F   0  0  0  0  0  0  0  0  0  0  0  0
    1.7103   -0.8625   -1.0539 C   0  0  1  0  0  0  0  0  0  0  0  0
    0.7579    0.2299   -0.5702 C   0  0  0  0  0  0  0  0  0  0  0  0
    0.8267    0.7057    0.5468 O   0  0  0  0  0  0  0  0  0  0  0  0
   -0.1620    0.5835   -1.4823 N   0  0  0  0  0  0  0  0  0  0  0  0
   -1.1532    1.6032   -1.2576 C   0  0  0  0  0  0  0  0  0  0  0  0
   -2.5089    1.0955   -0.8273 C   0  0  0  0  0  0  0  0  0  0  0  0
   -2.7114   -0.1802   -0.3151 C   0  0  0  0  0  0  0  0  0  0  0  0
   -3.9747   -0.5920    0.0834 C   0  0  0  0  0  0  0  0  0  0  0  0
   -3.6033    1.9522   -0.9193 C   0  0  0  0  0  0  0  0  0  0  0  0
   -4.8632    1.5501   -0.5119 C   0  0  0  0  0  0  0  0  0  0  0  0
   -5.0724    0.2630   -0.0119 C   0  0  0  0  0  0  0  0  0  0  0  0
   -6.4077   -0.1702    0.4005 C   0  0  0  0  0  0  0  0  0  0  0  0
   -6.6438   -1.0785    1.8500 S   0  0  0  0  0  0  0  0  0  0  0  0
   -8.3258   -1.1170    1.5335 C   0  0  0  0  0  0  0  0  0  0  0  0
   -8.6884   -0.5104    0.4514 N   0  0  0  0  0  0  0  0  0  0  0  0
   -7.6190    0.0324   -0.2078 C   0  0  0  0  0  0  0  0  0  0  0  0
   -7.8496    0.7478   -1.4977 C   0  0  0  0  0  0  0  0  0  0  0  0
    8.3315    0.5103   -2.5868 H   0  0  0  0  0  0  0  0  0  0  0  0
    7.6923    2.0414   -1.9763 H   0  0  0  0  0  0  0  0  0  0  0  0
    9.0690    1.2675   -1.1851 H   0  0  0  0  0  0  0  0  0  0  0  0
    5.8363    1.7509   -0.8844 H   0  0  0  0  0  0  0  0  0  0  0  0
    5.3993   -0.7377    0.6179 H   0  0  0  0  0  0  0  0  0  0  0  0
    4.1931   -0.7492    2.8024 H   0  0  0  0  0  0  0  0  0  0  0  0
    3.8180    0.7750    3.5952 H   0  0  0  0  0  0  0  0  0  0  0  0
    2.8863    0.2765    2.1906 H   0  0  0  0  0  0  0  0  0  0  0  0
    7.0066    1.5728    1.8799 H   0  0  0  0  0  0  0  0  0  0  0  0
    6.1688    1.4752    3.4246 H   0  0  0  0  0  0  0  0  0  0  0  0
    6.6278   -0.0038    2.5807 H   0  0  0  0  0  0  0  0  0  0  0  0
    3.4226    2.5250    1.1481 H   0  0  0  0  0  0  0  0  0  0  0  0
    4.4385    2.9794    2.5097 H   0  0  0  0  0  0  0  0  0  0  0  0
    5.0980    3.0254    0.8853 H   0  0  0  0  0  0  0  0  0  0  0  0
    4.2754   -2.4033    0.2994 H   0  0  0  0  0  0  0  0  0  0  0  0
    2.8925   -2.1423    1.3630 H   0  0  0  0  0  0  0  0  0  0  0  0
    2.1265   -4.0054    0.0509 H   0  0  0  0  0  0  0  0  0  0  0  0
    3.7981   -3.8279   -1.6079 H   0  0  0  0  0  0  0  0  0  0  0  0
    0.5501   -2.6319   -1.6432 H   0  0  0  0  0  0  0  0  0  0  0  0
    1.8955   -0.7414   -2.1258 H   0  0  0  0  0  0  0  0  0  0  0  0
   -0.1368    0.1549   -2.3942 H   0  0  0  0  0  0  0  0  0  0  0  0
   -0.7718    2.2978   -0.5073 H   0  0  0  0  0  0  0  0  0  0  0  0
   -1.2600    2.1766   -2.1796 H   0  0  0  0  0  0  0  0  0  0  0  0
   -1.8868   -0.8748   -0.2295 H   0  0  0  0  0  0  0  0  0  0  0  0
   -4.1046   -1.6004    0.4580 H   0  0  0  0  0  0  0  0  0  0  0  0
   -3.4699    2.9549   -1.3091 H   0  0  0  0  0  0  0  0  0  0  0  0
   -5.6872    2.2489   -0.5697 H   0  0  0  0  0  0  0  0  0  0  0  0
   -9.0088   -1.6184    2.2055 H   0  0  0  0  0  0  0  0  0  0  0  0
   -8.1214    1.7925   -1.3329 H   0  0  0  0  0  0  0  0  0  0  0  0
   -6.9633    0.7350   -2.1296 H   0  0  0  0  0  0  0  0  0  0  0  0
   -8.6676    0.2808   -2.0449 H   0  0  0  0  0  0  0  0  0  0  0  0
 32 31  2  0
 32 33  1  0
 31 30  1  0
 34 33  1  0
 33 29  2  0
 30 29  1  0
 29 28  1  0
 28 25  1  0
 28 27  2  0
 25 24  2  0
 27 26  1  0
 24 23  1  0
 26 23  2  0
 23 22  1  0
 22 21  1  0
 21 19  1  0
 17 16  1  0
 16 18  1  0
 16 14  1  0
 19 20  2  0
 19 18  1  0
 18 12  1  0
 14 15  1  0
 14 13  1  0
 12 13  1  0
 12 10  1  0
 11 10  2  0
 10  5  1  0
  6  7  1  1
  5  6  1  0
  5  4  1  0
  8  6  1  0
  6  9  1  0
  4  2  1  0
  2  3  2  0
  2  1  1  0
  1 35  1  0
  1 36  1  0
  1 37  1  0
  4 38  1  0
  5 39  1  1
  7 40  1  0
  7 41  1  0
  7 42  1  0
  8 43  1  0
  8 44  1  0
  8 45  1  0
  9 46  1  0
  9 47  1  0
  9 48  1  0
 13 49  1  0
 13 50  1  0
 14 51  1  1
 15 52  1  0
 16 53  1  6
 18 54  1  6
 21 55  1  0
 22 56  1  0
 22 57  1  0
 24 58  1  0
 25 59  1  0
 26 60  1  0
 27 61  1  0
 31 62  1  0
 34 63  1  0
 34 64  1  0
 34 65  1  0
M  END
