
     RDKit          3D

 22 23  0  0  0  0  0  0  0  0999 V2000
   -3.4663   -0.9549    0.0560 O   0  0  0  0  0  0  0  0  0  0  0  0
   -2.1139   -1.3325    0.0530 C   0  0  0  0  0  0  0  0  0  0  0  0
   -1.2432   -0.1054    0.0217 C   0  0  0  0  0  0  0  0  0  0  0  0
    0.1424   -0.2735    0.0031 C   0  0  0  0  0  0  0  0  0  0  0  0
    0.6251   -1.5419    0.0052 O   0  0  0  0  0  0  0  0  0  0  0  0
    1.9935   -1.6508   -0.3545 C   0  0  0  0  0  0  0  0  0  0  0  0
    2.7996   -0.5915    0.3560 C   0  0  0  0  0  0  0  0  0  0  0  0
    2.3415    0.6988   -0.0156 O   0  0  0  0  0  0  0  0  0  0  0  0
    0.9925    0.8342   -0.0171 C   0  0  0  0  0  0  0  0  0  0  0  0
    0.4555    2.1155   -0.0379 C   0  0  0  0  0  0  0  0  0  0  0  0
   -0.9182    2.2852   -0.0304 C   0  0  0  0  0  0  0  0  0  0  0  0
   -1.7636    1.1825    0.0097 C   0  0  0  0  0  0  0  0  0  0  0  0
   -3.9972   -1.7558    0.0847 H   0  0  0  0  0  0  0  0  0  0  0  0
   -1.8640   -1.9284    0.9415 H   0  0  0  0  0  0  0  0  0  0  0  0
   -1.8765   -1.9648   -0.8133 H   0  0  0  0  0  0  0  0  0  0  0  0
    2.3253   -2.6457   -0.0616 H   0  0  0  0  0  0  0  0  0  0  0  0
    2.1068   -1.5527   -1.4395 H   0  0  0  0  0  0  0  0  0  0  0  0
    2.7261   -0.7202    1.4414 H   0  0  0  0  0  0  0  0  0  0  0  0
    3.8495   -0.6559    0.0734 H   0  0  0  0  0  0  0  0  0  0  0  0
    1.1240    2.9671   -0.0576 H   0  0  0  0  0  0  0  0  0  0  0  0
   -1.3337    3.2842   -0.0453 H   0  0  0  0  0  0  0  0  0  0  0  0
   -2.8338    1.3301    0.0229 H   0  0  0  0  0  0  0  0  0  0  0  0
  7  6  1  0
  7  8  1  0
  6  5  1  0
  8  9  1  0
  5  4  1  0
  9  4  1  0
  9 10  2  0
  4  3  2  0
 10 11  1  0
  3  2  1  0
  3 12  1  0
  2  1  1  0
 11 12  2  0
  1 13  1  0
  2 14  1  0
  2 15  1  0
  6 16  1  0
  6 17  1  0
  7 18  1  0
  7 19  1  0
 10 20  1  0
 11 21  1  0
 12 22  1  0
M  END
