
     RDKit          3D

 41 44  0  0  0  0  0  0  0  0999 V2000
    1.0144   -2.1454    0.1972 O   0  0  0  0  0  0  0  0  0  0  0  0
    1.7419   -1.1746    0.2303 C   0  0  0  0  0  0  0  0  0  0  0  0
    3.1949   -1.2734    0.0127 C   0  0  0  0  0  0  0  0  0  0  0  0
    3.9884   -0.1101    0.0126 C   0  0  0  0  0  0  0  0  0  0  0  0
    3.7756   -2.5040   -0.1910 C   0  0  0  0  0  0  0  0  0  0  0  0
    5.1601   -2.6113   -0.3968 C   0  0  0  0  0  0  0  0  0  0  0  0
    5.9481   -1.4899   -0.4033 C   0  0  0  0  0  0  0  0  0  0  0  0
    5.3822   -0.2118   -0.2030 C   0  0  0  0  0  0  0  0  0  0  0  0
    6.1577    0.9680   -0.2102 C   0  0  0  0  0  0  0  0  0  0  0  0
    5.5704    2.1908   -0.0141 C   0  0  0  0  0  0  0  0  0  0  0  0
    4.1867    2.2860    0.2038 C   0  0  0  0  0  0  0  0  0  0  0  0
    3.4042    1.1545    0.2201 C   0  0  0  0  0  0  0  0  0  0  0  0
    1.9559    1.2662    0.4610 C   0  0  0  0  0  0  0  0  0  0  0  0
    1.4084    2.3350    0.6372 O   0  0  0  0  0  0  0  0  0  0  0  0
    1.2233    0.0874    0.4876 N   0  0  0  0  0  0  0  0  0  0  0  0
   -0.2104    0.1905    0.7507 C   0  0  0  0  0  0  0  0  0  0  0  0
   -1.0149    0.4272   -0.5211 C   0  0  0  0  0  0  0  0  0  0  0  0
   -2.4146    0.5583   -0.1694 N   0  0  0  0  0  0  0  0  0  0  0  0
   -3.2999    0.6356   -1.3082 C   0  0  0  0  0  0  0  0  0  0  0  0
   -4.7094    0.4494   -0.8591 C   0  0  0  0  0  0  0  0  0  0  0  0
   -5.0705   -0.5152    0.5242 S   0  0  0  0  0  0  0  0  0  0  0  0
   -5.7568    0.9272   -1.4382 N   0  0  0  0  0  0  0  0  0  0  0  0
   -6.9127    0.5566   -0.8414 N   0  0  0  0  0  0  0  0  0  0  0  0
   -6.7368   -0.1987    0.1938 C   0  0  0  0  0  0  0  0  0  0  0  0
   -7.8392   -0.7404    1.0289 C   0  0  0  0  0  0  0  0  0  0  0  0
    3.1650   -3.3968   -0.1900 H   0  0  0  0  0  0  0  0  0  0  0  0
    5.6003   -3.5866   -0.5517 H   0  0  0  0  0  0  0  0  0  0  0  0
    7.0160   -1.5735   -0.5616 H   0  0  0  0  0  0  0  0  0  0  0  0
    7.2257    0.8942   -0.3729 H   0  0  0  0  0  0  0  0  0  0  0  0
    6.1707    3.0899   -0.0251 H   0  0  0  0  0  0  0  0  0  0  0  0
    3.7382    3.2572    0.3624 H   0  0  0  0  0  0  0  0  0  0  0  0
   -0.5411   -0.7260    1.2318 H   0  0  0  0  0  0  0  0  0  0  0  0
   -0.3670    1.0045    1.4560 H   0  0  0  0  0  0  0  0  0  0  0  0
   -0.6215    1.3014   -1.0571 H   0  0  0  0  0  0  0  0  0  0  0  0
   -0.9061   -0.4316   -1.1873 H   0  0  0  0  0  0  0  0  0  0  0  0
   -2.5386    1.3822    0.4078 H   0  0  0  0  0  0  0  0  0  0  0  0
   -3.2317    1.5645   -1.8885 H   0  0  0  0  0  0  0  0  0  0  0  0
   -3.0519   -0.1797   -1.9949 H   0  0  0  0  0  0  0  0  0  0  0  0
   -7.7272   -0.4427    2.0711 H   0  0  0  0  0  0  0  0  0  0  0  0
   -8.7932   -0.3696    0.6613 H   0  0  0  0  0  0  0  0  0  0  0  0
   -7.8543   -1.8298    0.9969 H   0  0  0  0  0  0  0  0  0  0  0  0
 25 24  1  0
 21 24  1  0
 21 20  1  0
 24 23  2  0
 20 19  1  0
 20 22  2  0
 23 22  1  0
 18 19  1  0
 18 17  1  0
 14 13  2  0
 16 17  1  0
 16 15  1  0
 13 15  1  0
 13 12  1  0
 15  2  1  0
 11 12  2  0
 11 10  1  0
 12  4  1  0
  2  1  2  0
  2  3  1  0
 10  9  2  0
  4  3  2  0
  4  8  1  0
  3  5  1  0
  9  8  1  0
  8  7  2  0
  5  6  2  0
  7  6  1  0
  5 26  1  0
  6 27  1  0
  7 28  1  0
  9 29  1  0
 10 30  1  0
 11 31  1  0
 16 32  1  0
 16 33  1  0
 17 34  1  0
 17 35  1  0
 18 36  1  0
 19 37  1  0
 19 38  1  0
 25 39  1  0
 25 40  1  0
 25 41  1  0
M  END
