
     RDKit          3D

 54 55  0  0  0  0  0  0  0  0999 V2000
    3.8051   -1.1462    0.7628 C   0  0  0  0  0  0  0  0  0  0  0  0
    4.8855   -0.3138    0.9818 C   0  0  0  0  0  0  0  0  0  0  0  0
    4.8558    0.9927    0.5118 C   0  0  0  0  0  0  0  0  0  0  0  0
    3.7224    1.4301   -0.1694 C   0  0  0  0  0  0  0  0  0  0  0  0
    2.6503    0.5787   -0.3714 C   0  0  0  0  0  0  0  0  0  0  0  0
    2.6654   -0.7404    0.0853 C   0  0  0  0  0  0  0  0  0  0  0  0
    0.2360   -1.2172    0.2320 C   0  0  0  0  0  0  0  0  0  0  0  0
    1.5132   -1.6395   -0.1302 C   0  0  0  0  0  0  0  0  0  0  0  0
   -0.8515   -2.0462    0.0145 C   0  0  0  0  0  0  0  0  0  0  0  0
   -0.7000   -3.2934   -0.5660 C   0  0  0  0  0  0  0  0  0  0  0  0
    0.5725   -3.7120   -0.9295 C   0  0  0  0  0  0  0  0  0  0  0  0
    1.6722   -2.8964   -0.7137 C   0  0  0  0  0  0  0  0  0  0  0  0
    6.0306    1.9015    0.7620 C   0  0  1  0  0  0  0  0  0  0  0  0
    6.8122    2.1415   -0.5144 C   0  0  0  0  0  0  0  0  0  0  0  0
    7.9572    2.7675   -0.2719 O   0  0  0  0  0  0  0  0  0  0  0  0
    5.6152    3.2370    1.3970 C   0  0  0  0  0  0  0  0  0  0  0  0
    6.4563    1.8215   -1.6196 O   0  0  0  0  0  0  0  0  0  0  0  0
    3.8615   -2.3953    1.2523 F   0  0  0  0  0  0  0  0  0  0  0  0
   -2.1003   -1.6534    0.4421 O   0  0  0  0  0  0  0  0  0  0  0  0
   -2.8276   -0.8646   -0.3912 C   0  0  0  0  0  0  0  0  0  0  0  0
   -2.4238   -0.4894   -1.4686 O   0  0  0  0  0  0  0  0  0  0  0  0
   -4.0127   -0.5757    0.1515 N   0  0  0  0  0  0  0  0  0  0  0  0
   -5.0084    0.2101   -0.5506 C   0  0  0  0  0  0  0  0  0  0  0  0
   -6.2229    0.4383    0.3336 C   0  0  0  0  0  0  0  0  0  0  0  0
   -7.2946    1.2571   -0.3737 C   0  0  0  0  0  0  0  0  0  0  0  0
   -8.5265    1.4888    0.4917 C   0  0  0  0  0  0  0  0  0  0  0  0
   -9.6037    2.3088   -0.2076 C   0  0  0  0  0  0  0  0  0  0  0  0
  -10.8314    2.5322    0.6644 C   0  0  0  0  0  0  0  0  0  0  0  0
    5.7445   -0.6889    1.5250 H   0  0  0  0  0  0  0  0  0  0  0  0
    3.6671    2.4418   -0.5498 H   0  0  0  0  0  0  0  0  0  0  0  0
    1.7820    0.9351   -0.9112 H   0  0  0  0  0  0  0  0  0  0  0  0
   -1.5604   -3.9306   -0.7253 H   0  0  0  0  0  0  0  0  0  0  0  0
    0.7055   -4.6820   -1.3897 H   0  0  0  0  0  0  0  0  0  0  0  0
    2.6526   -3.2338   -1.0219 H   0  0  0  0  0  0  0  0  0  0  0  0
    6.7096    1.4000    1.4586 H   0  0  0  0  0  0  0  0  0  0  0  0
    8.4289    2.9277   -1.1030 H   0  0  0  0  0  0  0  0  0  0  0  0
    5.0171    3.8415    0.7152 H   0  0  0  0  0  0  0  0  0  0  0  0
    5.0218    3.0471    2.2900 H   0  0  0  0  0  0  0  0  0  0  0  0
    6.4857    3.8204    1.6914 H   0  0  0  0  0  0  0  0  0  0  0  0
   -4.2597   -0.9916    1.0357 H   0  0  0  0  0  0  0  0  0  0  0  0
   -4.5797    1.1718   -0.8431 H   0  0  0  0  0  0  0  0  0  0  0  0
   -5.3122   -0.2990   -1.4702 H   0  0  0  0  0  0  0  0  0  0  0  0
   -6.6420   -0.5274    0.6349 H   0  0  0  0  0  0  0  0  0  0  0  0
   -5.9173    0.9492    1.2517 H   0  0  0  0  0  0  0  0  0  0  0  0
   -6.8754    2.2227   -0.6762 H   0  0  0  0  0  0  0  0  0  0  0  0
   -7.5892    0.7491   -1.2981 H   0  0  0  0  0  0  0  0  0  0  0  0
   -8.9452    0.5227    0.7947 H   0  0  0  0  0  0  0  0  0  0  0  0
   -8.2318    1.9946    1.4175 H   0  0  0  0  0  0  0  0  0  0  0  0
   -9.1846    3.2746   -0.5068 H   0  0  0  0  0  0  0  0  0  0  0  0
   -9.8951    1.8051   -1.1343 H   0  0  0  0  0  0  0  0  0  0  0  0
  -11.2867    1.5830    0.9538 H   0  0  0  0  0  0  0  0  0  0  0  0
  -10.5703    3.0638    1.5816 H   0  0  0  0  0  0  0  0  0  0  0  0
  -11.5911    3.1197    0.1479 H   0  0  0  0  0  0  0  0  0  0  0  0
    0.0926   -0.2521    0.7030 H   0  0  0  0  0  0  0  0  0  0  0  0
 27 28  1  0
 27 26  1  0
 25 26  1  0
 25 24  1  0
 23 24  1  0
 23 22  1  0
 21 20  2  0
 22 20  1  0
 20 19  1  0
 16 13  1  0
 19  9  1  0
 18  1  1  0
  2  1  2  0
  2  3  1  0
 13  3  1  0
 13 14  1  0
  1  6  1  0
  7  9  2  0
  7  8  1  0
  3  4  2  0
  9 10  1  0
 17 14  2  0
  6  8  1  0
  6  5  2  0
 14 15  1  0
  4  5  1  0
  8 12  2  0
 10 11  2  0
 12 11  1  0
  2 29  1  0
  4 30  1  0
  5 31  1  0
  7 54  1  0
 10 32  1  0
 11 33  1  0
 12 34  1  0
 13 35  1  1
 15 36  1  0
 16 37  1  0
 16 38  1  0
 16 39  1  0
 22 40  1  0
 23 41  1  0
 23 42  1  0
 24 43  1  0
 24 44  1  0
 25 45  1  0
 25 46  1  0
 26 47  1  0
 26 48  1  0
 27 49  1  0
 27 50  1  0
 28 51  1  0
 28 52  1  0
 28 53  1  0
M  END
