
     RDKit          3D

 40 40  0  0  0  0  0  0  0  0999 V2000
   -3.9171   -0.1416   -0.3313 C   0  0  1  0  0  0  0  0  0  0  0  0
   -2.3517   -1.0590    1.4411 N   0  0  0  0  0  0  0  0  0  0  0  0
   -4.5701   -1.3561   -0.6008 O   0  0  0  0  0  0  0  0  0  0  0  0
    4.7247    0.2018   -0.1582 C   0  0  0  0  0  0  0  0  0  0  0  0
    8.9452   -0.1662    0.7243 O   0  0  0  0  0  0  0  0  0  0  0  0
    8.5041    0.8271    0.2025 C   0  0  0  0  0  0  0  0  0  0  0  0
    7.0615    1.0521   -0.1546 C   0  0  0  0  0  0  0  0  0  0  0  0
    6.1523   -0.0959    0.2519 C   0  0  0  0  0  0  0  0  0  0  0  0
   -4.6976    0.7296    0.6373 C   0  0  0  0  0  0  0  0  0  0  0  0
   -2.4746   -0.3448    0.1862 C   0  0  1  0  0  0  0  0  0  0  0  0
   -1.6344   -1.0512   -0.8851 C   0  0  0  0  0  0  0  0  0  0  0  0
   -0.1619   -0.9983   -0.5980 C   0  0  0  0  0  0  0  0  0  0  0  0
    2.5973   -0.8596   -0.0509 C   0  0  0  0  0  0  0  0  0  0  0  0
    0.6031    0.0858   -1.0080 C   0  0  0  0  0  0  0  0  0  0  0  0
    0.4874   -2.0155    0.1006 C   0  0  0  0  0  0  0  0  0  0  0  0
    1.9663    0.1697   -0.7438 C   0  0  0  0  0  0  0  0  0  0  0  0
    1.8429   -1.9560    0.3704 C   0  0  0  0  0  0  0  0  0  0  0  0
   -3.8464    0.3843   -1.2884 H   0  0  0  0  0  0  0  0  0  0  0  0
   -2.8341   -0.5971    2.1999 H   0  0  0  0  0  0  0  0  0  0  0  0
   -2.7099   -2.0031    1.3746 H   0  0  0  0  0  0  0  0  0  0  0  0
   -4.6538   -1.8536    0.2204 H   0  0  0  0  0  0  0  0  0  0  0  0
    4.3788    1.1311    0.3107 H   0  0  0  0  0  0  0  0  0  0  0  0
    4.6665    0.3414   -1.2442 H   0  0  0  0  0  0  0  0  0  0  0  0
    9.2598    1.8685   -0.1309 O   0  0  0  0  0  0  0  0  0  0  0  0
    6.7361    1.9884    0.3094 H   0  0  0  0  0  0  0  0  0  0  0  0
    7.0056    1.2271   -1.2340 H   0  0  0  0  0  0  0  0  0  0  0  0
    6.2001   -0.2469    1.3323 H   0  0  0  0  0  0  0  0  0  0  0  0
    6.4816   -1.0228   -0.2222 H   0  0  0  0  0  0  0  0  0  0  0  0
   -6.4946    1.1324   -0.0455 Br  0  0  0  0  0  0  0  0  0  0  0  0
   -4.8436    0.2471    1.6048 H   0  0  0  0  0  0  0  0  0  0  0  0
   -4.1996    1.6857    0.7943 H   0  0  0  0  0  0  0  0  0  0  0  0
   -2.0527    0.6561    0.3351 H   0  0  0  0  0  0  0  0  0  0  0  0
   -1.9638   -2.0903   -0.9735 H   0  0  0  0  0  0  0  0  0  0  0  0
   -1.8343   -0.5828   -1.8522 H   0  0  0  0  0  0  0  0  0  0  0  0
    0.1319    0.8953   -1.5543 H   0  0  0  0  0  0  0  0  0  0  0  0
   -0.0749   -2.8780    0.4365 H   0  0  0  0  0  0  0  0  0  0  0  0
    2.5112    1.0365   -1.0923 H   0  0  0  0  0  0  0  0  0  0  0  0
    2.3286   -2.7614    0.9079 H   0  0  0  0  0  0  0  0  0  0  0  0
   10.1839    1.6950    0.1024 H   0  0  0  0  0  0  0  0  0  0  0  0
    3.9138   -0.8861    0.2468 O   0  0  0  0  0  0  0  0  0  0  0  0
  1  3  1  0
  1 18  1  6
  2 10  1  0
  2 19  1  0
  2 20  1  0
  3 21  1  0
  4 22  1  0
  4 23  1  0
  6  5  2  0
  6 24  1  0
  7  6  1  0
  7 25  1  0
  7 26  1  0
  8  4  1  0
  8  7  1  0
  8 27  1  0
  8 28  1  0
  9  1  1  0
  9 29  1  0
  9 30  1  0
  9 31  1  0
 10  1  1  0
 10 11  1  0
 10 32  1  1
 11 33  1  0
 11 34  1  0
 12 11  1  0
 12 15  2  0
 40  4  1  0
 40 13  1  0
 13 17  2  0
 14 12  1  0
 14 35  1  0
 15 36  1  0
 16 13  1  0
 16 14  2  0
 16 37  1  0
 17 15  1  0
 17 38  1  0
 24 39  1  0
M  END
