
     RDKit          3D

 27 28  0  0  0  0  0  0  0  0999 V2000
    4.5451    0.9779   -0.5703 C   0  0  0  0  0  0  0  0  0  0  0  0
   -4.2537   -0.4140   -0.3112 C   0  0  0  0  0  0  0  0  0  0  0  0
   -3.9601    0.8264    0.2427 C   0  0  0  0  0  0  0  0  0  0  0  0
   -3.2060   -1.2304   -0.7148 C   0  0  0  0  0  0  0  0  0  0  0  0
    2.2313   -1.7639    0.6458 C   0  0  0  0  0  0  0  0  0  0  0  0
    3.3831   -1.0995    0.2519 C   0  0  0  0  0  0  0  0  0  0  0  0
   -2.6468    1.2331    0.4071 C   0  0  0  0  0  0  0  0  0  0  0  0
   -1.8861   -0.8284   -0.5701 C   0  0  0  0  0  0  0  0  0  0  0  0
    0.9938   -1.1378    0.6223 C   0  0  0  0  0  0  0  0  0  0  0  0
    2.0652    0.8454   -0.2179 C   0  0  0  0  0  0  0  0  0  0  0  0
    3.3071    0.2259   -0.1752 C   0  0  0  0  0  0  0  0  0  0  0  0
   -1.5866    0.4109    0.0052 C   0  0  0  0  0  0  0  0  0  0  0  0
    0.8970    0.1824    0.1754 C   0  0  0  0  0  0  0  0  0  0  0  0
   -0.2954    0.8880    0.1523 N   0  0  0  0  0  0  0  0  0  0  0  0
    5.0591    1.3701    0.3097 H   0  0  0  0  0  0  0  0  0  0  0  0
    5.2515    0.3360   -1.0961 H   0  0  0  0  0  0  0  0  0  0  0  0
    4.3124    1.8251   -1.2146 H   0  0  0  0  0  0  0  0  0  0  0  0
   -4.7602    1.4833    0.5599 H   0  0  0  0  0  0  0  0  0  0  0  0
   -3.4138   -2.1930   -1.1644 H   0  0  0  0  0  0  0  0  0  0  0  0
    2.2945   -2.7883    0.9910 H   0  0  0  0  0  0  0  0  0  0  0  0
    4.3394   -1.6074    0.2832 H   0  0  0  0  0  0  0  0  0  0  0  0
   -2.4319    2.1978    0.8522 H   0  0  0  0  0  0  0  0  0  0  0  0
   -1.0954   -1.4753   -0.9246 H   0  0  0  0  0  0  0  0  0  0  0  0
    0.1201   -1.6714    0.9706 H   0  0  0  0  0  0  0  0  0  0  0  0
    1.9948    1.8702   -0.5681 H   0  0  0  0  0  0  0  0  0  0  0  0
   -0.2056    1.8907    0.1860 H   0  0  0  0  0  0  0  0  0  0  0  0
   -5.2795   -0.7355   -0.4310 H   0  0  0  0  0  0  0  0  0  0  0  0
  2  3  2  0
  2  4  1  0
  3  7  1  0
  4  8  2  0
  7 12  2  0
  8 12  1  0
 12 14  1  0
 14 13  1  0
 13 10  2  0
 13  9  1  0
 10 11  1  0
  9  5  2  0
 11  1  1  0
 11  6  2  0
  5  6  1  0
  1 15  1  0
  1 16  1  0
  1 17  1  0
  2 27  1  0
  3 18  1  0
  4 19  1  0
  5 20  1  0
  6 21  1  0
  7 22  1  0
  8 23  1  0
  9 24  1  0
 10 25  1  0
 14 26  1  0
M  END
