
     RDKit          3D

 46 48  0  0  0  0  0  0  0  0999 V2000
    6.5864   -0.9757    0.7439 C   0  0  1  0  0  0  0  0  0  0  0  0
   -6.3863   -2.7865    0.4151 C   0  0  0  0  0  0  0  0  0  0  0  0
   -6.4263   -1.6735   -0.6139 C   0  0  0  0  0  0  0  0  0  0  0  0
    1.8815    0.8640    0.1581 C   0  0  0  0  0  0  0  0  0  0  0  0
    2.5467   -0.1623   -0.5069 C   0  0  0  0  0  0  0  0  0  0  0  0
    3.8578   -0.4875   -0.1812 C   0  0  0  0  0  0  0  0  0  0  0  0
   -0.3988    0.5732   -0.7671 C   0  0  0  0  0  0  0  0  0  0  0  0
   -1.6844    1.3100   -0.9526 C   0  0  0  0  0  0  0  0  0  0  0  0
   -2.8556    0.5632   -1.0308 C   0  0  0  0  0  0  0  0  0  0  0  0
   -4.0871    1.1807   -1.2158 C   0  0  0  0  0  0  0  0  0  0  0  0
   -4.1294    2.5651   -1.3406 C   0  0  0  0  0  0  0  0  0  0  0  0
   -2.9640    3.3178   -1.2876 C   0  0  0  0  0  0  0  0  0  0  0  0
   -1.7414    2.6970   -1.0898 C   0  0  0  0  0  0  0  0  0  0  0  0
   -5.3462    0.3574   -1.3125 C   0  0  0  0  0  0  0  0  0  0  0  0
    7.7494   -0.9100    1.3722 F   0  0  0  0  0  0  0  0  0  0  0  0
    6.8170   -0.8560   -0.5654 F   0  0  0  0  0  0  0  0  0  0  0  0
    6.0726   -2.1903    0.9462 F   0  0  0  0  0  0  0  0  0  0  0  0
    5.8175    0.0023    1.2277 O   0  0  0  0  0  0  0  0  0  0  0  0
    4.5143    0.2164    0.8143 C   0  0  0  0  0  0  0  0  0  0  0  0
    3.8660    1.2439    1.4833 C   0  0  0  0  0  0  0  0  0  0  0  0
    2.5627    1.5613    1.1574 C   0  0  0  0  0  0  0  0  0  0  0  0
   -0.2622   -0.5744   -1.1536 O   0  0  0  0  0  0  0  0  0  0  0  0
   -5.3853   -0.7029   -0.3305 N   0  0  0  0  0  0  0  0  0  0  0  0
   -5.5376   -0.1918    1.0199 C   0  0  0  0  0  0  0  0  0  0  0  0
   -5.5217   -1.3372    2.0120 C   0  0  0  0  0  0  0  0  0  0  0  0
   -6.5263   -2.2860    1.7267 O   0  0  0  0  0  0  0  0  0  0  0  0
   -5.4413   -3.3396    0.3161 H   0  0  0  0  0  0  0  0  0  0  0  0
   -6.2639   -2.1003   -1.6069 H   0  0  0  0  0  0  0  0  0  0  0  0
   -7.4287   -1.2118   -0.6185 H   0  0  0  0  0  0  0  0  0  0  0  0
    2.0670   -0.7217   -1.2930 H   0  0  0  0  0  0  0  0  0  0  0  0
    4.3203   -1.2889   -0.7386 H   0  0  0  0  0  0  0  0  0  0  0  0
   -2.8165   -0.5135   -0.9262 H   0  0  0  0  0  0  0  0  0  0  0  0
   -5.0820    3.0619   -1.4831 H   0  0  0  0  0  0  0  0  0  0  0  0
   -3.0089    4.3929   -1.3987 H   0  0  0  0  0  0  0  0  0  0  0  0
   -0.8434    3.3019   -1.0697 H   0  0  0  0  0  0  0  0  0  0  0  0
   -6.2223    1.0234   -1.2416 H   0  0  0  0  0  0  0  0  0  0  0  0
   -5.3898   -0.1007   -2.3059 H   0  0  0  0  0  0  0  0  0  0  0  0
    4.3790    1.7950    2.2606 H   0  0  0  0  0  0  0  0  0  0  0  0
    2.0696    2.3646    1.6911 H   0  0  0  0  0  0  0  0  0  0  0  0
   -4.7146    0.4883    1.2520 H   0  0  0  0  0  0  0  0  0  0  0  0
   -6.4729    0.3852    1.1262 H   0  0  0  0  0  0  0  0  0  0  0  0
   -4.5305   -1.8129    1.9985 H   0  0  0  0  0  0  0  0  0  0  0  0
   -5.7019   -0.9632    3.0209 H   0  0  0  0  0  0  0  0  0  0  0  0
    0.5771    1.2743   -0.1344 N   0  0  0  0  0  0  0  0  0  0  0  0
   -7.2046   -3.4873    0.2437 H   0  0  0  0  0  0  0  0  0  0  0  0
    0.3085    2.1518    0.2837 H   0  0  0  0  0  0  0  0  0  0  0  0
  1 17  1  6
 18  1  1  0
 18 19  1  0
  1 16  1  0
  1 15  1  0
 19 20  2  0
 19  6  1  0
 20 21  1  0
  6  5  2  0
 21  4  2  0
  5  4  1  0
  4 44  1  0
 22  7  2  0
 44  7  1  0
  7  8  1  0
  9  8  2  0
  9 10  1  0
  8 13  1  0
 14 10  1  0
 14 23  1  0
 10 11  2  0
 13 12  2  0
 23  3  1  0
 23 24  1  0
 11 12  1  0
  3  2  1  0
 24 25  1  0
  2 26  1  0
 25 26  1  0
  2 45  1  0
  2 27  1  0
  3 28  1  0
  3 29  1  0
  5 30  1  0
  6 31  1  0
  9 32  1  0
 11 33  1  0
 12 34  1  0
 13 35  1  0
 14 36  1  0
 14 37  1  0
 20 38  1  0
 21 39  1  0
 44 46  1  0
 24 40  1  0
 24 41  1  0
 25 42  1  0
 25 43  1  0
M  END
