
     RDKit          3D

130130  0  0  0  0  0  0  0  0999 V2000
   -4.0587    3.6361    0.7358 C   0  0  0  0  0  0  0  0  0  0  0  0
   -3.5341    2.2632    0.3419 C   0  0  2  0  0  0  0  0  0  0  0  0
   -2.1193    2.3272    0.0558 N   0  0  0  0  0  0  0  0  0  0  0  0
   -4.2754    1.6588   -0.8726 C   0  0  2  0  0  0  0  0  0  0  0  0
   -5.6661    1.7505   -0.7125 O   0  0  0  0  0  0  0  0  0  0  0  0
   -3.8007    0.2591   -1.1520 C   0  0  0  0  0  0  0  0  0  0  0  0
   -4.5867   -0.7762   -1.4300 C   0  0  0  0  0  0  0  0  0  0  0  0
   -4.0988   -2.1571   -1.7341 C   0  0  0  0  0  0  0  0  0  0  0  0
   -4.7573   -3.2293   -0.8670 C   0  0  0  0  0  0  0  0  0  0  0  0
   -4.3205   -4.6374   -1.2510 C   0  0  0  0  0  0  0  0  0  0  0  0
   -5.0115   -5.7304   -0.4459 C   0  0  0  0  0  0  0  0  0  0  0  0
   -4.5761   -7.1325   -0.8539 C   0  0  0  0  0  0  0  0  0  0  0  0
   -5.2831   -8.2388   -0.0812 C   0  0  0  0  0  0  0  0  0  0  0  0
   -4.8439   -9.6357   -0.5024 C   0  0  0  0  0  0  0  0  0  0  0  0
   -5.5599  -10.7499    0.2504 C   0  0  0  0  0  0  0  0  0  0  0  0
   -5.1177  -12.1434   -0.1787 C   0  0  0  0  0  0  0  0  0  0  0  0
   -5.8365  -13.2623    0.5642 C   0  0  0  0  0  0  0  0  0  0  0  0
   -5.3919  -14.6537    0.1309 C   0  0  0  0  0  0  0  0  0  0  0  0
   -6.1119  -15.7761    0.8679 C   0  0  0  0  0  0  0  0  0  0  0  0
   -5.6590  -17.1606    0.4252 C   0  0  0  0  0  0  0  0  0  0  0  0
   -3.7367    5.8392   -0.0840 C   0  0  1  0  0  0  0  0  0  0  0  0
   -3.8896    4.5027   -0.3705 O   0  0  0  0  0  0  0  0  0  0  0  0
   -3.2177    6.5438   -1.3354 C   0  0  2  0  0  0  0  0  0  0  0  0
   -1.9356    6.0922   -1.6939 O   0  0  0  0  0  0  0  0  0  0  0  0
   -3.1235    8.0356   -1.0496 C   0  0  1  0  0  0  0  0  0  0  0  0
   -2.7868    8.7767   -2.1976 O   0  0  0  0  0  0  0  0  0  0  0  0
   -4.4588    8.5662   -0.5400 C   0  0  2  0  0  0  0  0  0  0  0  0
   -4.3521    9.9043   -0.1232 O   0  0  0  0  0  0  0  0  0  0  0  0
   -4.9270    7.7286    0.6526 C   0  0  1  0  0  0  0  0  0  0  0  0
   -6.3044    8.1412    1.1254 C   0  0  0  0  0  0  0  0  0  0  0  0
   -4.9855    6.3681    0.2773 O   0  0  0  0  0  0  0  0  0  0  0  0
   -1.1461    1.9909    0.9273 C   0  0  0  0  0  0  0  0  0  0  0  0
   -1.3772    1.5665    2.0493 O   0  0  0  0  0  0  0  0  0  0  0  0
    0.2569    2.1543    0.3811 C   0  0  0  0  0  0  0  0  0  0  0  0
    1.3430    2.1510    1.4443 C   0  0  0  0  0  0  0  0  0  0  0  0
    2.7310    2.3060    0.8348 C   0  0  0  0  0  0  0  0  0  0  0  0
    3.8431    2.2941    1.8753 C   0  0  0  0  0  0  0  0  0  0  0  0
    5.2301    2.4818    1.2733 C   0  0  0  0  0  0  0  0  0  0  0  0
    6.3410    2.4400    2.3147 C   0  0  0  0  0  0  0  0  0  0  0  0
    7.7299    2.6808    1.7206 C   0  0  0  0  0  0  0  0  0  0  0  0
    8.8001    2.6454    2.7665 C   0  0  0  0  0  0  0  0  0  0  0  0
    9.8211    1.7937    2.8554 C   0  0  0  0  0  0  0  0  0  0  0  0
   10.1866    0.7006    1.8996 C   0  0  0  0  0  0  0  0  0  0  0  0
   11.5428    0.9551    1.2388 C   0  0  0  0  0  0  0  0  0  0  0  0
   11.9478   -0.1408    0.2617 C   0  0  0  0  0  0  0  0  0  0  0  0
   13.3092    0.1064   -0.3760 C   0  0  0  0  0  0  0  0  0  0  0  0
   13.7040   -0.9557   -1.3940 C   0  0  0  0  0  0  0  0  0  0  0  0
   15.0685   -0.7036   -2.0231 C   0  0  0  0  0  0  0  0  0  0  0  0
   15.4576   -1.7452   -3.0646 C   0  0  0  0  0  0  0  0  0  0  0  0
   16.8233   -1.4796   -3.6832 C   0  0  0  0  0  0  0  0  0  0  0  0
   -4.0379   10.4256   -0.8694 H   0  0  0  0  0  0  0  0  0  0  0  0
   -3.6720    1.5991    1.1990 H   0  0  0  0  0  0  0  0  0  0  0  0
   -1.8752    8.5799   -2.4350 H   0  0  0  0  0  0  0  0  0  0  0  0
   -2.0192    5.2241   -2.0986 H   0  0  0  0  0  0  0  0  0  0  0  0
   -4.0410    2.2782   -1.7476 H   0  0  0  0  0  0  0  0  0  0  0  0
   -2.7240    0.1155   -1.1409 H   0  0  0  0  0  0  0  0  0  0  0  0
   -4.7592   -7.2672   -1.9258 H   0  0  0  0  0  0  0  0  0  0  0  0
   -3.4930   -7.2294   -0.7185 H   0  0  0  0  0  0  0  0  0  0  0  0
   -5.1072    3.5809    1.0382 H   0  0  0  0  0  0  0  0  0  0  0  0
   -5.1025   -8.1095    0.9917 H   0  0  0  0  0  0  0  0  0  0  0  0
   -3.4840    3.9925    1.5993 H   0  0  0  0  0  0  0  0  0  0  0  0
   -6.3658   -8.1422   -0.2196 H   0  0  0  0  0  0  0  0  0  0  0  0
   -3.0195    5.9860    0.7466 H   0  0  0  0  0  0  0  0  0  0  0  0
   -5.0146   -9.7578   -1.5778 H   0  0  0  0  0  0  0  0  0  0  0  0
   -3.7626   -9.7350   -0.3556 H   0  0  0  0  0  0  0  0  0  0  0  0
   17.0766   -2.2267   -4.4364 H   0  0  0  0  0  0  0  0  0  0  0  0
   -3.9442    6.3804   -2.1457 H   0  0  0  0  0  0  0  0  0  0  0  0
   -5.3906  -10.6310    1.3264 H   0  0  0  0  0  0  0  0  0  0  0  0
   -6.6411  -10.6512    0.1019 H   0  0  0  0  0  0  0  0  0  0  0  0
   -2.3745    8.1860   -0.2547 H   0  0  0  0  0  0  0  0  0  0  0  0
   -5.2832  -12.2588   -1.2557 H   0  0  0  0  0  0  0  0  0  0  0  0
   -4.0370  -12.2429   -0.0273 H   0  0  0  0  0  0  0  0  0  0  0  0
   -5.2029    8.4605   -1.3462 H   0  0  0  0  0  0  0  0  0  0  0  0
   -5.6722  -13.1486    1.6416 H   0  0  0  0  0  0  0  0  0  0  0  0
   -5.6657   -0.6432   -1.4629 H   0  0  0  0  0  0  0  0  0  0  0  0
   -6.9171  -13.1633    0.4116 H   0  0  0  0  0  0  0  0  0  0  0  0
   -7.4850    7.7056    2.5924 H   0  0  0  0  0  0  0  0  0  0  0  0
   -4.2070    7.8623    1.4770 H   0  0  0  0  0  0  0  0  0  0  0  0
   -4.3175   -2.3825   -2.7846 H   0  0  0  0  0  0  0  0  0  0  0  0
   -5.5539  -14.7658   -0.9471 H   0  0  0  0  0  0  0  0  0  0  0  0
   -3.0111   -2.2062   -1.6275 H   0  0  0  0  0  0  0  0  0  0  0  0
   -4.3115  -14.7534    0.2852 H   0  0  0  0  0  0  0  0  0  0  0  0
   -4.5250   -3.0441    0.1863 H   0  0  0  0  0  0  0  0  0  0  0  0
   -5.9500  -15.6642    1.9446 H   0  0  0  0  0  0  0  0  0  0  0  0
   -5.8458   -3.1488   -0.9596 H   0  0  0  0  0  0  0  0  0  0  0  0
   -7.1908  -15.6760    0.7128 H   0  0  0  0  0  0  0  0  0  0  0  0
   -4.5207   -4.7943   -2.3168 H   0  0  0  0  0  0  0  0  0  0  0  0
   -6.1872  -17.9484    0.9636 H   0  0  0  0  0  0  0  0  0  0  0  0
   -3.2351   -4.7270   -1.1311 H   0  0  0  0  0  0  0  0  0  0  0  0
   -5.8386  -17.3109   -0.6409 H   0  0  0  0  0  0  0  0  0  0  0  0
   -4.5906  -17.2997    0.6002 H   0  0  0  0  0  0  0  0  0  0  0  0
   -4.8133   -5.5838    0.6214 H   0  0  0  0  0  0  0  0  0  0  0  0
   -6.0965   -5.6380   -0.5686 H   0  0  0  0  0  0  0  0  0  0  0  0
   -7.0218    7.9824    0.3081 H   0  0  0  0  0  0  0  0  0  0  0  0
   -6.2904    9.2151    1.3374 H   0  0  0  0  0  0  0  0  0  0  0  0
    0.4298    1.3403   -0.3318 H   0  0  0  0  0  0  0  0  0  0  0  0
    0.3115    3.0747   -0.2083 H   0  0  0  0  0  0  0  0  0  0  0  0
    1.1683    2.9633    2.1559 H   0  0  0  0  0  0  0  0  0  0  0  0
    1.2980    1.2227    2.0192 H   0  0  0  0  0  0  0  0  0  0  0  0
    2.9017    1.5018    0.1106 H   0  0  0  0  0  0  0  0  0  0  0  0
    2.7766    3.2405    0.2645 H   0  0  0  0  0  0  0  0  0  0  0  0
    3.6608    3.0844    2.6116 H   0  0  0  0  0  0  0  0  0  0  0  0
    3.8111    1.3499    2.4305 H   0  0  0  0  0  0  0  0  0  0  0  0
    5.4082    1.7062    0.5205 H   0  0  0  0  0  0  0  0  0  0  0  0
    5.2662    3.4376    0.7385 H   0  0  0  0  0  0  0  0  0  0  0  0
    6.1444    3.1906    3.0875 H   0  0  0  0  0  0  0  0  0  0  0  0
    6.3301    1.4701    2.8221 H   0  0  0  0  0  0  0  0  0  0  0  0
    7.9237    1.9466    0.9364 H   0  0  0  0  0  0  0  0  0  0  0  0
    7.7354    3.6618    1.2319 H   0  0  0  0  0  0  0  0  0  0  0  0
    8.7030    3.3958    3.5472 H   0  0  0  0  0  0  0  0  0  0  0  0
   10.4987    1.9074    3.6982 H   0  0  0  0  0  0  0  0  0  0  0  0
   10.2340   -0.2508    2.4412 H   0  0  0  0  0  0  0  0  0  0  0  0
    9.4234    0.5769    1.1276 H   0  0  0  0  0  0  0  0  0  0  0  0
   11.5112    1.9156    0.7143 H   0  0  0  0  0  0  0  0  0  0  0  0
   12.3100    1.0562    2.0140 H   0  0  0  0  0  0  0  0  0  0  0  0
   11.9564   -1.1074    0.7778 H   0  0  0  0  0  0  0  0  0  0  0  0
   11.1883   -0.2224   -0.5237 H   0  0  0  0  0  0  0  0  0  0  0  0
   13.3069    1.0886   -0.8621 H   0  0  0  0  0  0  0  0  0  0  0  0
   -1.8424    2.7296   -0.8255 H   0  0  0  0  0  0  0  0  0  0  0  0
   14.0723    0.1599    0.4085 H   0  0  0  0  0  0  0  0  0  0  0  0
   13.7013   -1.9410   -0.9143 H   0  0  0  0  0  0  0  0  0  0  0  0
   12.9445   -1.0010   -2.1825 H   0  0  0  0  0  0  0  0  0  0  0  0
   -5.9327    1.1482   -0.0080 H   0  0  0  0  0  0  0  0  0  0  0  0
   15.0753    0.2899   -2.4859 H   0  0  0  0  0  0  0  0  0  0  0  0
   15.8315   -0.6748   -1.2370 H   0  0  0  0  0  0  0  0  0  0  0  0
   15.4496   -2.7385   -2.6046 H   0  0  0  0  0  0  0  0  0  0  0  0
   14.6978   -1.7707   -3.8520 H   0  0  0  0  0  0  0  0  0  0  0  0
   16.8516   -0.5009   -4.1665 H   0  0  0  0  0  0  0  0  0  0  0  0
   17.6091   -1.4939   -2.9258 H   0  0  0  0  0  0  0  0  0  0  0  0
   -6.6367    7.3903    2.2684 O   0  0  0  0  0  0  0  0  0  0  0  0
 61  1  1  0
  2  1  1  0
  1 59  1  0
  1 22  1  0
  4  2  1  0
  2 52  1  1
  2  3  1  0
  3 32  1  0
  3119  1  0
  5  4  1  0
  6  4  1  0
  4 55  1  6
123  5  1  0
 56  6  1  0
  6  7  2  0
  8  7  1  0
  7 75  1  0
 81  8  1  0
  9  8  1  0
  8 79  1  0
 83  9  1  0
 10  9  1  0
  9 85  1  0
 89 10  1  0
 11 10  1  0
 10 87  1  0
 92 11  1  0
 11 12  1  0
 11 93  1  0
 57 12  1  0
 12 13  1  0
 12 58  1  0
 62 13  1  0
 14 13  1  0
 13 60  1  0
 65 14  1  0
 64 14  1  0
 14 15  1  0
 16 15  1  0
 15 68  1  0
 15 69  1  0
 71 16  1  0
 72 16  1  0
 16 17  1  0
 18 17  1  0
 17 76  1  0
 17 74  1  0
 80 18  1  0
 82 18  1  0
 18 19  1  0
 84 19  1  0
 19 20  1  0
 19 86  1  0
 90 20  1  0
 20 91  1  0
 20 88  1  0
 22 21  1  0
 31 21  1  0
 21 63  1  1
 21 23  1  0
 23 67  1  6
 23 24  1  0
 23 25  1  0
 54 24  1  0
 27 25  1  0
 25 70  1  1
 25 26  1  0
 53 26  1  0
 29 27  1  0
 27 73  1  6
 27 28  1  0
 28 51  1  0
 77130  1  0
130 30  1  0
 31 29  1  0
 30 29  1  0
 29 78  1  1
 94 30  1  0
 30 95  1  0
 33 32  2  0
 32 34  1  0
 35 34  1  0
 34 96  1  0
 34 97  1  0
 99 35  1  0
 98 35  1  0
 35 36  1  0
 37 36  1  0
 36100  1  0
 36101  1  0
103 37  1  0
102 37  1  0
 37 38  1  0
 39 38  1  0
 38104  1  0
 38105  1  0
106 39  1  0
107 39  1  0
 39 40  1  0
 41 40  1  0
 40109  1  0
 40108  1  0
110 41  1  0
 41 42  2  0
111 42  1  0
 42 43  1  0
 43112  1  0
 43113  1  0
 43 44  1  0
114 44  1  0
 44115  1  0
 44 45  1  0
117 45  1  0
 45116  1  0
 45 46  1  0
118 46  1  0
 46120  1  0
 46 47  1  0
 47122  1  0
 47121  1  0
 47 48  1  0
124 48  1  0
 48125  1  0
 48 49  1  0
127 49  1  0
 49126  1  0
 49 50  1  0
129 50  1  0
 50 66  1  0
 50128  1  0
M  END
