
     RDKit          3D

 22 23  0  0  0  0  0  0  0  0999 V2000
   -0.6644    1.1208   -0.3508 C   0  0  0  0  0  0  0  0  0  0  0  0
   -2.0482    1.1309   -0.3489 C   0  0  0  0  0  0  0  0  0  0  0  0
   -2.7780   -0.0212   -0.0329 C   0  0  0  0  0  0  0  0  0  0  0  0
   -4.1547   -0.0290   -0.0949 N   0  0  0  0  0  0  0  0  0  0  0  0
   -2.0614   -1.1780    0.2948 C   0  0  0  0  0  0  0  0  0  0  0  0
   -0.6776   -1.1792    0.3135 C   0  0  0  0  0  0  0  0  0  0  0  0
    0.0361   -0.0324   -0.0152 C   0  0  0  0  0  0  0  0  0  0  0  0
    1.4479   -0.0379   -0.0054 N   0  0  0  0  0  0  0  0  0  0  0  0
    2.2407   -1.0542   -0.4633 C   0  0  0  0  0  0  0  0  0  0  0  0
    3.5503   -0.6915   -0.2871 C   0  0  0  0  0  0  0  0  0  0  0  0
    3.5515    0.5998    0.3019 C   0  0  0  0  0  0  0  0  0  0  0  0
    2.2426    0.9724    0.4621 C   0  0  0  0  0  0  0  0  0  0  0  0
   -0.1317    2.0218   -0.6280 H   0  0  0  0  0  0  0  0  0  0  0  0
   -2.5709    2.0418   -0.6146 H   0  0  0  0  0  0  0  0  0  0  0  0
   -4.6025    0.8635    0.0389 H   0  0  0  0  0  0  0  0  0  0  0  0
   -4.6110   -0.7559    0.4331 H   0  0  0  0  0  0  0  0  0  0  0  0
   -2.5942   -2.0841    0.5568 H   0  0  0  0  0  0  0  0  0  0  0  0
   -0.1558   -2.0828    0.6031 H   0  0  0  0  0  0  0  0  0  0  0  0
    1.8117   -1.9411   -0.9001 H   0  0  0  0  0  0  0  0  0  0  0  0
    4.4104   -1.2841   -0.5563 H   0  0  0  0  0  0  0  0  0  0  0  0
    4.4127    1.1858    0.5822 H   0  0  0  0  0  0  0  0  0  0  0  0
    1.8145    1.8623    0.8936 H   0  0  0  0  0  0  0  0  0  0  0  0
  2  1  2  0
  1  7  1  0
  1 13  1  0
  2  3  1  0
  2 14  1  0
  4  3  1  0
  3  5  2  0
  4 15  1  0
  4 16  1  0
  5  6  1  0
  5 17  1  0
  7  6  2  0
  6 18  1  0
  7  8  1  0
 12  8  1  0
  8  9  1  0
 10  9  2  0
  9 19  1  0
 11 10  1  0
 10 20  1  0
 12 11  2  0
 11 21  1  0
 12 22  1  0
M  END
