
     RDKit          3D

 51 53  0  0  0  0  0  0  0  0999 V2000
   -3.0622    2.9470    0.6243 C   0  0  0  0  0  0  0  0  0  0  0  0
   -2.1510   -3.0448   -0.6672 C   0  0  0  0  0  0  0  0  0  0  0  0
   -1.3609    1.1377    1.8845 C   0  0  0  0  0  0  0  0  0  0  0  0
    0.4315   -1.8555   -1.3413 C   0  0  0  0  0  0  0  0  0  0  0  0
    4.4542    0.9793   -0.1986 C   0  0  0  0  0  0  0  0  0  0  0  0
    4.4105   -0.3449   -0.3285 C   0  0  0  0  0  0  0  0  0  0  0  0
    2.1416    0.9263    0.8066 C   0  0  0  0  0  0  0  0  0  0  0  0
   -2.1784    1.4007   -2.3137 C   0  0  0  0  0  0  0  0  0  0  0  0
   -3.3649    1.6026   -1.3874 C   0  0  0  0  0  0  0  0  0  0  0  0
   -1.4382    0.1404   -1.9095 C   0  0  0  0  0  0  0  0  0  0  0  0
   -2.2619   -1.7300    1.4575 C   0  0  0  0  0  0  0  0  0  0  0  0
   -2.9850   -0.4940    0.9469 C   0  0  0  0  0  0  0  0  0  0  0  0
    0.8236   -1.1939    0.9905 C   0  0  0  0  0  0  0  0  0  0  0  0
   -2.8283    1.7915   -0.0003 C   0  0  0  0  0  0  0  0  0  0  0  0
    2.0459   -0.4004    0.6405 C   0  0  0  0  0  0  0  0  0  0  0  0
    3.3274    1.7067    0.4167 C   0  0  0  0  0  0  0  0  0  0  0  0
    3.2537   -1.1338    0.1493 C   0  0  0  0  0  0  0  0  0  0  0  0
   -1.3272   -2.3203    0.4024 C   0  0  2  0  0  0  0  0  0  0  0  0
   -0.9344    0.1241   -0.4499 C   0  0  1  0  0  0  0  0  0  0  0  0
   -2.0066    0.6397    0.5862 C   0  0  1  0  0  0  0  0  0  0  0  0
   -0.2875   -1.2744   -0.1133 C   0  0  2  0  0  0  0  0  0  0  0  0
   -3.6758    3.7050    0.1514 H   0  0  0  0  0  0  0  0  0  0  0  0
   -2.6711    3.2036    1.5972 H   0  0  0  0  0  0  0  0  0  0  0  0
   -2.7935   -2.3839   -1.2461 H   0  0  0  0  0  0  0  0  0  0  0  0
   -1.5267   -3.5977   -1.3668 H   0  0  0  0  0  0  0  0  0  0  0  0
   -2.8019   -3.7720   -0.1779 H   0  0  0  0  0  0  0  0  0  0  0  0
   -0.8066    0.3761    2.4193 H   0  0  0  0  0  0  0  0  0  0  0  0
   -0.6852    1.9743    1.7026 H   0  0  0  0  0  0  0  0  0  0  0  0
   -2.1288    1.4794    2.5795 H   0  0  0  0  0  0  0  0  0  0  0  0
    0.9271   -2.7891   -1.0698 H   0  0  0  0  0  0  0  0  0  0  0  0
   -0.2397   -2.0802   -2.1654 H   0  0  0  0  0  0  0  0  0  0  0  0
    1.1922   -1.1746   -1.7306 H   0  0  0  0  0  0  0  0  0  0  0  0
    5.2342   -0.9019   -0.7571 H   0  0  0  0  0  0  0  0  0  0  0  0
    1.3285    1.4958    1.2391 H   0  0  0  0  0  0  0  0  0  0  0  0
   -2.5039    1.3162   -3.3535 H   0  0  0  0  0  0  0  0  0  0  0  0
   -1.5180    2.2724   -2.2572 H   0  0  0  0  0  0  0  0  0  0  0  0
   -3.9636    2.4657   -1.6835 H   0  0  0  0  0  0  0  0  0  0  0  0
   -4.0174    0.7255   -1.4484 H   0  0  0  0  0  0  0  0  0  0  0  0
   -2.0978   -0.7074   -2.1088 H   0  0  0  0  0  0  0  0  0  0  0  0
   -0.5830    0.0165   -2.5735 H   0  0  0  0  0  0  0  0  0  0  0  0
   -1.7072   -1.4908    2.3680 H   0  0  0  0  0  0  0  0  0  0  0  0
   -2.9934   -2.4881    1.7499 H   0  0  0  0  0  0  0  0  0  0  0  0
   -3.5976   -0.7636    0.0827 H   0  0  0  0  0  0  0  0  0  0  0  0
   -3.6818   -0.1259    1.7052 H   0  0  0  0  0  0  0  0  0  0  0  0
    1.1366   -2.2192    1.1918 H   0  0  0  0  0  0  0  0  0  0  0  0
    0.4312   -0.8193    1.9315 H   0  0  0  0  0  0  0  0  0  0  0  0
   -0.7419   -3.1077    0.8916 H   0  0  0  0  0  0  0  0  0  0  0  0
   -0.1243    0.8643   -0.4293 H   0  0  0  0  0  0  0  0  0  0  0  0
    5.3086    1.5579   -0.5267 H   0  0  0  0  0  0  0  0  0  0  0  0
    3.3720    2.9096    0.5848 O   0  0  0  0  0  0  0  0  0  0  0  0
    3.3146   -2.3450    0.1682 O   0  0  0  0  0  0  0  0  0  0  0  0
  1 14  2  0
  2 18  1  0
 20  3  1  1
 21  4  1  6
 50 16  2  0
 51 17  2  0
  5  6  2  0
  5 16  1  0
  6 17  1  0
  7 15  2  0
  7 16  1  0
  8  9  1  0
  8 10  1  0
  9 14  1  0
 10 19  1  0
 11 12  1  0
 11 18  1  0
 12 20  1  0
 13 15  1  0
 13 21  1  0
 14 20  1  0
 15 17  1  0
 18 21  1  0
 19 20  1  0
 19 21  1  0
  1 22  1  0
  1 23  1  0
  2 24  1  0
  2 25  1  0
  2 26  1  0
  3 27  1  0
  3 28  1  0
  3 29  1  0
  4 30  1  0
  4 31  1  0
  4 32  1  0
  5 49  1  0
  6 33  1  0
  7 34  1  0
  8 35  1  0
  8 36  1  0
  9 37  1  0
  9 38  1  0
 10 39  1  0
 10 40  1  0
 11 41  1  0
 11 42  1  0
 12 43  1  0
 12 44  1  0
 13 45  1  0
 13 46  1  0
 18 47  1  1
 19 48  1  6
M  END
