
     RDKit          3D

 60 59  0  0  0  0  0  0  0  0999 V2000
  -13.9759    0.9206    0.0464 C   0  0  0  0  0  0  0  0  0  0  0  0
  -12.7309    0.2294   -0.4919 C   0  0  0  0  0  0  0  0  0  0  0  0
  -11.4448    0.7386    0.1472 C   0  0  0  0  0  0  0  0  0  0  0  0
  -10.1944    0.0471   -0.3811 C   0  0  0  0  0  0  0  0  0  0  0  0
   -8.9077    0.5502    0.2609 C   0  0  0  0  0  0  0  0  0  0  0  0
   -7.6608   -0.1465   -0.2688 C   0  0  0  0  0  0  0  0  0  0  0  0
   -6.3693    0.3523    0.3673 C   0  0  0  0  0  0  0  0  0  0  0  0
   -5.1288   -0.3479   -0.1724 C   0  0  0  0  0  0  0  0  0  0  0  0
   -3.8289    0.1501    0.4468 C   0  0  0  0  0  0  0  0  0  0  0  0
   -2.5977   -0.5503   -0.1137 C   0  0  0  0  0  0  0  0  0  0  0  0
   -1.2870   -0.0430    0.4735 C   0  0  0  0  0  0  0  0  0  0  0  0
   -0.0684   -0.7384   -0.1198 C   0  0  0  0  0  0  0  0  0  0  0  0
    1.2495   -0.2062    0.4303 C   0  0  0  0  0  0  0  0  0  0  0  0
    2.4295   -0.9074   -0.2055 C   0  0  0  0  0  0  0  0  0  0  0  0
    3.6419   -0.3138    0.2877 O   0  0  0  0  0  0  0  0  0  0  0  0
    5.0684   -0.9278   -0.1169 P   0  0  1  0  0  0  0  0  0  0  0  0
    5.1872   -1.3951   -1.5195 O   0  0  0  0  0  0  0  0  0  0  0  0
    6.1865    0.3943    0.3761 C   0  0  0  0  0  0  0  0  0  0  0  0
    7.6454    0.0457    0.0926 C   0  0  0  0  0  0  0  0  0  0  0  0
    8.5488    1.2068    0.4709 C   0  0  0  0  0  0  0  0  0  0  0  0
    9.9487    0.8228    0.2513 N   0  0  0  0  0  0  0  0  0  0  0  0
   10.6695    1.6384   -0.2852 N   0  0  0  0  0  0  0  0  0  0  0  0
   11.4119    2.3230   -0.7821 N   0  0  0  0  0  0  0  0  0  0  0  0
  -14.8828    0.5367   -0.4221 H   0  0  0  0  0  0  0  0  0  0  0  0
  -14.0730    0.7749    1.1240 H   0  0  0  0  0  0  0  0  0  0  0  0
  -13.9399    1.9964   -0.1361 H   0  0  0  0  0  0  0  0  0  0  0  0
  -12.8115   -0.8500   -0.3292 H   0  0  0  0  0  0  0  0  0  0  0  0
  -12.6751    0.3675   -1.5762 H   0  0  0  0  0  0  0  0  0  0  0  0
  -11.3608    1.8186   -0.0181 H   0  0  0  0  0  0  0  0  0  0  0  0
  -11.5028    0.6039    1.2332 H   0  0  0  0  0  0  0  0  0  0  0  0
  -10.2819   -1.0330   -0.2186 H   0  0  0  0  0  0  0  0  0  0  0  0
  -10.1353    0.1845   -1.4666 H   0  0  0  0  0  0  0  0  0  0  0  0
   -8.8181    1.6299    0.0971 H   0  0  0  0  0  0  0  0  0  0  0  0
   -8.9664    0.4140    1.3466 H   0  0  0  0  0  0  0  0  0  0  0  0
   -7.7518   -1.2261   -0.1048 H   0  0  0  0  0  0  0  0  0  0  0  0
   -7.6042   -0.0112   -1.3547 H   0  0  0  0  0  0  0  0  0  0  0  0
   -6.2776    1.4319    0.2036 H   0  0  0  0  0  0  0  0  0  0  0  0
   -6.4218    0.2152    1.4532 H   0  0  0  0  0  0  0  0  0  0  0  0
   -5.2197   -1.4270   -0.0052 H   0  0  0  0  0  0  0  0  0  0  0  0
   -5.0837   -0.2151   -1.2593 H   0  0  0  0  0  0  0  0  0  0  0  0
   -3.7390    1.2297    0.2824 H   0  0  0  0  0  0  0  0  0  0  0  0
   -3.8654    0.0121    1.5331 H   0  0  0  0  0  0  0  0  0  0  0  0
   -2.6814   -1.6285    0.0616 H   0  0  0  0  0  0  0  0  0  0  0  0
   -2.5762   -0.4238   -1.2020 H   0  0  0  0  0  0  0  0  0  0  0  0
   -1.2066    1.0362    0.3035 H   0  0  0  0  0  0  0  0  0  0  0  0
   -1.2936   -0.1792    1.5602 H   0  0  0  0  0  0  0  0  0  0  0  0
   -0.1385   -1.8154    0.0664 H   0  0  0  0  0  0  0  0  0  0  0  0
   -0.0816   -0.6176   -1.2084 H   0  0  0  0  0  0  0  0  0  0  0  0
    1.3186    0.8683    0.2367 H   0  0  0  0  0  0  0  0  0  0  0  0
    1.2821   -0.3391    1.5155 H   0  0  0  0  0  0  0  0  0  0  0  0
    2.4074   -1.9759    0.0293 H   0  0  0  0  0  0  0  0  0  0  0  0
    2.3910   -0.8048   -1.2929 H   0  0  0  0  0  0  0  0  0  0  0  0
    5.8922    1.2880   -0.1806 H   0  0  0  0  0  0  0  0  0  0  0  0
    6.0381    0.6194    1.4354 H   0  0  0  0  0  0  0  0  0  0  0  0
    7.9432   -0.8406    0.6570 H   0  0  0  0  0  0  0  0  0  0  0  0
    7.7779   -0.1851   -0.9658 H   0  0  0  0  0  0  0  0  0  0  0  0
    8.2824    2.0957   -0.1074 H   0  0  0  0  0  0  0  0  0  0  0  0
    8.4202    1.4516    1.5283 H   0  0  0  0  0  0  0  0  0  0  0  0
    5.3290   -2.1735    0.8705 O   0  0  0  0  0  0  0  0  0  0  0  0
    5.2561   -1.9792    1.8139 H   0  0  0  0  0  0  0  0  0  0  0  0
 19 20  1  0
 19 18  1  0
 20 21  1  0
 23 22  2  0
 17 16  2  0
 22 21  2  0
 18 16  1  0
 16 15  1  6
 15 14  1  0
 12 11  1  0
 12 13  1  0
 14 13  1  0
 11 10  1  0
  2  1  1  0
  2  3  1  0
  8  9  1  0
  8  7  1  0
  6  5  1  0
  6  7  1  0
 10  9  1  0
  4  5  1  0
  4  3  1  0
  1 24  1  0
  1 25  1  0
  1 26  1  0
  2 27  1  0
  2 28  1  0
  3 29  1  0
  3 30  1  0
  4 31  1  0
  4 32  1  0
  5 33  1  0
  5 34  1  0
  6 35  1  0
  6 36  1  0
  7 37  1  0
  7 38  1  0
  8 39  1  0
  8 40  1  0
  9 41  1  0
  9 42  1  0
 10 43  1  0
 10 44  1  0
 11 45  1  0
 11 46  1  0
 12 47  1  0
 12 48  1  0
 13 49  1  0
 13 50  1  0
 14 51  1  0
 14 52  1  0
 18 53  1  0
 18 54  1  0
 19 55  1  0
 19 56  1  0
 20 57  1  0
 20 58  1  0
 16 59  1  0
 59 60  1  0
M  CHG  2  22   1  23  -1
M  END
