
     RDKit          3D

 44 47  0  0  0  0  0  0  0  0999 V2000
   -6.6069    2.3689    0.8102 C   0  0  0  0  0  0  0  0  0  0  0  0
   -5.6748    2.9751   -0.0221 C   0  0  0  0  0  0  0  0  0  0  0  0
   -4.8021    2.2009   -0.7721 C   0  0  0  0  0  0  0  0  0  0  0  0
   -4.8767    0.8177   -0.6715 C   0  0  0  0  0  0  0  0  0  0  0  0
   -5.8061    0.1977    0.1532 C   0  0  0  0  0  0  0  0  0  0  0  0
   -6.6728    0.9843    0.8970 C   0  0  0  0  0  0  0  0  0  0  0  0
   -3.7567   -0.1824   -1.6170 S   0  0  1  0  0  0  0  0  0  0  0  0
   -4.3659   -1.4973   -1.7930 O   0  0  0  0  0  0  0  0  0  0  0  0
   -3.3472    0.5839   -2.7901 O   0  0  0  0  0  0  0  0  0  0  0  0
   -2.3506   -0.3628   -0.5569 C   0  0  0  0  0  0  0  0  0  0  0  0
   -1.3207    0.5661   -0.6246 C   0  0  0  0  0  0  0  0  0  0  0  0
   -0.2330    0.4310    0.2213 C   0  0  0  0  0  0  0  0  0  0  0  0
   -0.1610   -0.6241    1.1260 C   0  0  0  0  0  0  0  0  0  0  0  0
   -1.2002   -1.5481    1.1694 C   0  0  0  0  0  0  0  0  0  0  0  0
   -2.2988   -1.4249    0.3350 C   0  0  0  0  0  0  0  0  0  0  0  0
    0.9932   -0.7525    2.0880 C   0  0  0  0  0  0  0  0  0  0  0  0
    2.2520   -0.3121    1.5421 N   0  0  0  0  0  0  0  0  0  0  0  0
    2.8732   -1.0122    0.5736 C   0  0  0  0  0  0  0  0  0  0  0  0
    2.4046   -2.0454    0.1195 O   0  0  0  0  0  0  0  0  0  0  0  0
    4.1690   -0.4649    0.0833 C   0  0  0  0  0  0  0  0  0  0  0  0
    5.0688   -1.3268   -0.4956 C   0  0  0  0  0  0  0  0  0  0  0  0
    6.2747   -0.7764   -0.9426 C   0  0  0  0  0  0  0  0  0  0  0  0
    7.4409   -1.2380   -1.5480 C   0  0  0  0  0  0  0  0  0  0  0  0
    8.1998   -0.1568   -1.7037 N   0  0  0  0  0  0  0  0  0  0  0  0
    7.6772    0.9854   -1.2731 N   0  0  0  0  0  0  0  0  0  0  0  0
    6.4890    0.6238   -0.7990 C   0  0  0  0  0  0  0  0  0  0  0  0
    5.5919    1.4722   -0.2593 N   0  0  0  0  0  0  0  0  0  0  0  0
    4.4857    0.9250    0.1610 C   0  0  0  0  0  0  0  0  0  0  0  0
   -7.2871    2.9783    1.3902 H   0  0  0  0  0  0  0  0  0  0  0  0
   -5.6285    4.0533   -0.0940 H   0  0  0  0  0  0  0  0  0  0  0  0
   -4.0817    2.6767   -1.4239 H   0  0  0  0  0  0  0  0  0  0  0  0
   -5.8643   -0.8803    0.2186 H   0  0  0  0  0  0  0  0  0  0  0  0
   -7.4038    0.5123    1.5395 H   0  0  0  0  0  0  0  0  0  0  0  0
   -1.3540    1.3891   -1.3256 H   0  0  0  0  0  0  0  0  0  0  0  0
    0.5688    1.1555    0.1650 H   0  0  0  0  0  0  0  0  0  0  0  0
   -1.1533   -2.3817    1.8591 H   0  0  0  0  0  0  0  0  0  0  0  0
   -3.0927   -2.1581    0.3815 H   0  0  0  0  0  0  0  0  0  0  0  0
    0.7917   -0.1360    2.9651 H   0  0  0  0  0  0  0  0  0  0  0  0
    1.0635   -1.7842    2.4403 H   0  0  0  0  0  0  0  0  0  0  0  0
    2.7274    0.4423    2.0076 H   0  0  0  0  0  0  0  0  0  0  0  0
    4.8556   -2.3838   -0.5893 H   0  0  0  0  0  0  0  0  0  0  0  0
    7.7626   -2.2178   -1.8587 H   0  0  0  0  0  0  0  0  0  0  0  0
    9.1215   -0.1444   -2.1172 H   0  0  0  0  0  0  0  0  0  0  0  0
    3.7526    1.6122    0.5725 H   0  0  0  0  0  0  0  0  0  0  0  0
  6  1  2  0
  6  5  1  0
  1  2  1  0
  5  4  2  0
  2  3  2  0
  4  3  1  0
  7  4  1  1
  9  7  2  0
  7  8  2  0
  7 10  1  0
 11 10  2  0
 11 12  1  0
 10 15  1  0
 12 13  2  0
 15 14  2  0
 13 14  1  0
 13 16  1  0
 16 17  1  0
 19 18  2  0
 17 18  1  0
 18 20  1  0
 20 28  1  0
 20 21  2  0
 28 27  2  0
 21 22  1  0
 27 26  1  0
 22 26  1  0
 22 23  2  0
 26 25  2  0
 25 24  1  0
 23 24  1  0
  1 29  1  0
  2 30  1  0
  3 31  1  0
  5 32  1  0
  6 33  1  0
 11 34  1  0
 12 35  1  0
 14 36  1  0
 15 37  1  0
 16 38  1  0
 16 39  1  0
 17 40  1  0
 21 41  1  0
 23 42  1  0
 24 43  1  0
 28 44  1  0
M  END
