
     RDKit          3D

 61 66  0  0  0  0  0  0  0  0999 V2000
   -0.6300   -1.1958    0.8532 C   0  0  0  0  0  0  0  0  0  0  0  0
   -1.2537   -4.9239    0.2652 C   0  0  1  0  0  0  0  0  0  0  0  0
    0.0405   -5.2579   -0.4804 C   0  0  0  0  0  0  0  0  0  0  0  0
   -1.1964   -5.4552    1.6952 C   0  0  0  0  0  0  0  0  0  0  0  0
   -0.3359    2.7915    2.3867 C   0  0  0  0  0  0  0  0  0  0  0  0
    0.9192    3.0138    2.9320 C   0  0  0  0  0  0  0  0  0  0  0  0
    2.0558    2.6345    2.2344 C   0  0  0  0  0  0  0  0  0  0  0  0
    1.9274    2.0484    0.9863 C   0  0  0  0  0  0  0  0  0  0  0  0
   -1.4764   -3.4139    0.2902 C   0  0  0  0  0  0  0  0  0  0  0  0
   -0.4796   -2.5670    0.8112 C   0  0  0  0  0  0  0  0  0  0  0  0
    6.4080    0.7790   -1.9787 C   0  0  0  0  0  0  0  0  0  0  0  0
    3.4604    0.3181    0.2894 C   0  0  0  0  0  0  0  0  0  0  0  0
   -3.6134    0.5959   -0.3361 C   0  0  0  0  0  0  0  0  0  0  0  0
   -2.3184    0.7198    0.2280 C   0  0  0  0  0  0  0  0  0  0  0  0
   -1.8256    1.9855    0.5461 C   0  0  0  0  0  0  0  0  0  0  0  0
   -2.6403    3.0885    0.3144 C   0  0  0  0  0  0  0  0  0  0  0  0
   -3.9051    2.9497   -0.2448 C   0  0  0  0  0  0  0  0  0  0  0  0
   -4.4255    1.7086   -0.5974 C   0  0  0  0  0  0  0  0  0  0  0  0
   -3.8673   -0.7240   -0.5507 N   0  0  0  0  0  0  0  0  0  0  0  0
   -2.8001   -1.4777   -0.1407 C   0  0  0  0  0  0  0  0  0  0  0  0
   -1.8042   -0.6225    0.3610 C   0  0  0  0  0  0  0  0  0  0  0  0
   -2.6558   -2.8616   -0.1797 C   0  0  0  0  0  0  0  0  0  0  0  0
   -5.7695    1.5140   -1.2057 C   0  0  0  0  0  0  0  0  0  0  0  0
   -6.2377    0.3863   -1.3466 O   0  0  0  0  0  0  0  0  0  0  0  0
   -6.4382    2.6077   -1.5930 N   0  0  0  0  0  0  0  0  0  0  0  0
   -2.3392   -5.5888   -0.3522 O   0  0  0  0  0  0  0  0  0  0  0  0
    0.6660    1.8465    0.4527 C   0  0  0  0  0  0  0  0  0  0  0  0
   -0.4880    2.1926    1.1371 C   0  0  0  0  0  0  0  0  0  0  0  0
    3.0709    1.6531    0.2404 N   0  0  0  0  0  0  0  0  0  0  0  0
    3.7472    2.5878   -0.4979 C   0  0  0  0  0  0  0  0  0  0  0  0
    4.7868    2.3563   -1.2012 N   0  0  0  0  0  0  0  0  0  0  0  0
    5.2667    1.0646   -1.2202 C   0  0  0  0  0  0  0  0  0  0  0  0
    4.6483    0.0300   -0.5025 C   0  0  0  0  0  0  0  0  0  0  0  0
    6.9115   -0.5035   -2.0125 C   0  0  0  0  0  0  0  0  0  0  0  0
    6.2923   -1.5328   -1.2951 C   0  0  0  0  0  0  0  0  0  0  0  0
    5.1677   -1.2673   -0.5451 C   0  0  0  0  0  0  0  0  0  0  0  0
    0.1641   -0.5985    1.2774 H   0  0  0  0  0  0  0  0  0  0  0  0
    0.2008   -6.3373   -0.4890 H   0  0  0  0  0  0  0  0  0  0  0  0
   -0.0036   -4.9093   -1.5148 H   0  0  0  0  0  0  0  0  0  0  0  0
    0.9104   -4.7976   -0.0149 H   0  0  0  0  0  0  0  0  0  0  0  0
   -2.1248   -5.2465    2.2288 H   0  0  0  0  0  0  0  0  0  0  0  0
   -1.0308   -6.5342    1.6958 H   0  0  0  0  0  0  0  0  0  0  0  0
   -0.3804   -4.9935    2.2501 H   0  0  0  0  0  0  0  0  0  0  0  0
   -1.2221    3.0768    2.9391 H   0  0  0  0  0  0  0  0  0  0  0  0
    1.0125    3.4758    3.9048 H   0  0  0  0  0  0  0  0  0  0  0  0
    3.0421    2.7889    2.6520 H   0  0  0  0  0  0  0  0  0  0  0  0
    0.4391   -2.9907    1.1958 H   0  0  0  0  0  0  0  0  0  0  0  0
    6.8814    1.5787   -2.5329 H   0  0  0  0  0  0  0  0  0  0  0  0
   -2.2780    4.0784    0.5580 H   0  0  0  0  0  0  0  0  0  0  0  0
   -4.4796    3.8543   -0.3936 H   0  0  0  0  0  0  0  0  0  0  0  0
   -4.7410   -1.0671   -0.9150 H   0  0  0  0  0  0  0  0  0  0  0  0
   -3.4559   -3.4773   -0.5679 H   0  0  0  0  0  0  0  0  0  0  0  0
   -6.0649    3.5381   -1.5408 H   0  0  0  0  0  0  0  0  0  0  0  0
   -7.3481    2.5068   -2.0121 H   0  0  0  0  0  0  0  0  0  0  0  0
   -2.3142   -5.4043   -1.2978 H   0  0  0  0  0  0  0  0  0  0  0  0
    3.3355    3.5893   -0.4536 H   0  0  0  0  0  0  0  0  0  0  0  0
    7.7953   -0.7157   -2.5995 H   0  0  0  0  0  0  0  0  0  0  0  0
    6.6964   -2.5352   -1.3307 H   0  0  0  0  0  0  0  0  0  0  0  0
    4.6830   -2.0564    0.0140 H   0  0  0  0  0  0  0  0  0  0  0  0
    0.5729    1.3023   -0.7623 F   0  0  0  0  0  0  0  0  0  0  0  0
    2.8400   -0.4886    0.9517 O   0  0  0  0  0  0  0  0  0  0  0  0
 34 35  1  0
 34 11  2  0
 35 36  2  0
 11 32  1  0
 36 33  1  0
  3  2  1  0
 32 33  2  0
 32 31  1  0
 33 12  1  0
  2 26  1  6
  2  4  1  0
  2  9  1  0
 31 30  2  0
 12 61  2  0
 12 29  1  0
  9 22  2  0
  9 10  1  0
 22 20  1  0
 10  1  2  0
 30 29  1  0
 60 27  1  0
 29  8  1  0
 20 21  2  0
 20 19  1  0
  1 21  1  0
 21 14  1  0
 19 13  1  0
 27  8  2  0
 27 28  1  0
  8  7  1  0
 14 13  2  0
 14 15  1  0
 13 18  1  0
 24 23  2  0
 18 23  1  0
 18 17  2  0
 15 28  1  0
 15 16  2  0
 28  5  2  0
 23 25  1  0
  7  6  2  0
 17 16  1  0
  5  6  1  0
  1 37  1  0
  3 38  1  0
  3 39  1  0
  3 40  1  0
  4 41  1  0
  4 42  1  0
  4 43  1  0
  5 44  1  0
  6 45  1  0
  7 46  1  0
 10 47  1  0
 11 48  1  0
 16 49  1  0
 17 50  1  0
 19 51  1  0
 22 52  1  0
 25 53  1  0
 25 54  1  0
 26 55  1  0
 30 56  1  0
 34 57  1  0
 35 58  1  0
 36 59  1  0
M  END
