
     RDKit          3D

 26 27  0  0  0  0  0  0  0  0999 V2000
   -1.1746   -0.8163    0.6625 C   0  0  0  0  0  0  0  0  0  0  0  0
   -1.5378   -1.1330   -0.6583 C   0  0  0  0  0  0  0  0  0  0  0  0
   -2.7451   -0.7049   -1.1370 C   0  0  0  0  0  0  0  0  0  0  0  0
   -3.6081    0.0138   -0.3203 C   0  0  0  0  0  0  0  0  0  0  0  0
   -3.2794    0.3142    0.9918 C   0  0  0  0  0  0  0  0  0  0  0  0
   -2.0452   -0.1029    1.4663 C   0  0  0  0  0  0  0  0  0  0  0  0
    0.0283   -1.2513    1.1701 O   0  0  0  0  0  0  0  0  0  0  0  0
    1.1465   -0.5647    0.7433 C   0  0  0  0  0  0  0  0  0  0  0  0
    2.0102   -1.1946   -0.1588 C   0  0  0  0  0  0  0  0  0  0  0  0
    3.1720   -0.5420   -0.5517 C   0  0  0  0  0  0  0  0  0  0  0  0
    3.4436    0.7301   -0.0636 C   0  0  0  0  0  0  0  0  0  0  0  0
    2.5889    1.3555    0.8311 C   0  0  0  0  0  0  0  0  0  0  0  0
    1.4376    0.6941    1.2348 C   0  0  0  0  0  0  0  0  0  0  0  0
   -5.1303    0.5340   -0.9591 Cl  0  0  0  0  0  0  0  0  0  0  0  0
    4.8843    1.5398   -0.5769 Cl  0  0  0  0  0  0  0  0  0  0  0  0
    1.6360   -2.4362   -0.6986 N   0  0  0  0  0  0  0  0  0  0  0  0
   -0.7529   -1.7957   -1.5085 O   0  0  0  0  0  0  0  0  0  0  0  0
   -2.9994   -0.9172   -2.1681 H   0  0  0  0  0  0  0  0  0  0  0  0
   -3.9652    0.8693    1.6176 H   0  0  0  0  0  0  0  0  0  0  0  0
   -1.7267    0.1098    2.4805 H   0  0  0  0  0  0  0  0  0  0  0  0
    3.8486   -1.0205   -1.2473 H   0  0  0  0  0  0  0  0  0  0  0  0
    2.8025    2.3412    1.2268 H   0  0  0  0  0  0  0  0  0  0  0  0
    0.7752    1.1693    1.9484 H   0  0  0  0  0  0  0  0  0  0  0  0
    1.5067   -3.1566    0.0033 H   0  0  0  0  0  0  0  0  0  0  0  0
    2.3004   -2.7787   -1.3824 H   0  0  0  0  0  0  0  0  0  0  0  0
    0.1342   -2.1156   -1.1478 H   0  0  0  0  0  0  0  0  0  0  0  0
  1  2  2  0
  1  6  1  0
  1  7  1  0
  2  3  1  0
  2 17  1  0
  3  4  2  0
  4  5  1  0
  4 14  1  0
  5  6  2  0
  7  8  1  0
  8  9  2  0
  8 13  1  0
  9 10  1  0
  9 16  1  0
 10 11  2  0
 11 12  1  0
 11 15  1  0
 12 13  2  0
  3 18  1  0
  5 19  1  0
  6 20  1  0
 10 21  1  0
 12 22  1  0
 13 23  1  0
 16 24  1  0
 16 25  1  0
 17 26  1  0
M  END
