
     RDKit          3D

 39 41  0  0  0  0  0  0  0  0999 V2000
   -3.0270    2.0550   -0.3735 C   0  0  0  0  0  0  0  0  0  0  0  0
    1.3163   -0.6768   -0.1251 C   0  0  0  0  0  0  0  0  0  0  0  0
    5.6646    1.0840   -0.7130 C   0  0  0  0  0  0  0  0  0  0  0  0
    1.7475   -2.0145   -0.1122 C   0  0  0  0  0  0  0  0  0  0  0  0
   -1.6120   -2.5903   -0.0258 C   0  0  0  0  0  0  0  0  0  0  0  0
   -2.6234   -1.6666   -0.0200 C   0  0  0  0  0  0  0  0  0  0  0  0
   -2.2948   -0.2932   -0.0365 C   0  0  0  0  0  0  0  0  0  0  0  0
   -3.3510    0.7407   -0.0282 C   0  0  0  0  0  0  0  0  0  0  0  0
   -4.6687    0.4455    0.3233 C   0  0  0  0  0  0  0  0  0  0  0  0
   -5.6387    1.4369    0.3229 C   0  0  0  0  0  0  0  0  0  0  0  0
   -5.3082    2.7376   -0.0311 C   0  0  0  0  0  0  0  0  0  0  0  0
   -3.9978    3.0427   -0.3786 C   0  0  0  0  0  0  0  0  0  0  0  0
   -1.0508    0.1364   -0.0727 N   0  0  0  0  0  0  0  0  0  0  0  0
   -0.0779   -0.7680   -0.0899 C   0  0  0  0  0  0  0  0  0  0  0  0
    3.4335    0.4120   -0.0618 N   0  0  0  0  0  0  0  0  0  0  0  0
    4.3680    1.5214   -0.0528 C   0  0  1  0  0  0  0  0  0  0  0  0
    4.5788    2.0672    1.3567 C   0  0  0  0  0  0  0  0  0  0  0  0
   -0.3424   -2.1246   -0.0566 N   0  0  0  0  0  0  0  0  0  0  0  0
    0.7613   -2.8852   -0.0720 N   0  0  0  0  0  0  0  0  0  0  0  0
   -2.0074    2.2968   -0.6411 H   0  0  0  0  0  0  0  0  0  0  0  0
    5.4553    0.7933   -1.7491 H   0  0  0  0  0  0  0  0  0  0  0  0
    6.3445    1.9445   -0.7472 H   0  0  0  0  0  0  0  0  0  0  0  0
    2.7615   -2.3869   -0.1410 H   0  0  0  0  0  0  0  0  0  0  0  0
   -2.6496   -4.1656    0.0194 H   0  0  0  0  0  0  0  0  0  0  0  0
   -3.6466   -2.0121   -0.0198 H   0  0  0  0  0  0  0  0  0  0  0  0
   -4.9541   -0.5555    0.6182 H   0  0  0  0  0  0  0  0  0  0  0  0
   -6.6540    1.1899    0.6029 H   0  0  0  0  0  0  0  0  0  0  0  0
   -6.0663    3.5095   -0.0341 H   0  0  0  0  0  0  0  0  0  0  0  0
   -3.7302    4.0541   -0.6548 H   0  0  0  0  0  0  0  0  0  0  0  0
    3.8091   -0.4868    0.1957 H   0  0  0  0  0  0  0  0  0  0  0  0
    3.9497    2.3119   -0.6781 H   0  0  0  0  0  0  0  0  0  0  0  0
    6.9165   -0.3857   -0.4992 H   0  0  0  0  0  0  0  0  0  0  0  0
    5.2711    2.9105    1.3438 H   0  0  0  0  0  0  0  0  0  0  0  0
    3.6360    2.4172    1.7764 H   0  0  0  0  0  0  0  0  0  0  0  0
    4.9839    1.3048    2.0223 H   0  0  0  0  0  0  0  0  0  0  0  0
    2.0997    0.5638   -0.1852 C   0  0  0  0  0  0  0  0  0  0  0  0
   -1.7213   -3.8966   -0.0116 O   0  0  0  0  0  0  0  0  0  0  0  0
    6.2149    0.0131    0.0227 O   0  0  0  0  0  0  0  0  0  0  0  0
    1.5677    1.6549   -0.3526 O   0  0  0  0  0  0  0  0  0  0  0  0
  3 16  1  0
  3 38  1  0
 16 17  1  0
 16 15  1  0
 39 36  2  0
 15 36  1  0
 36  2  1  0
  2  4  1  0
  2 14  2  0
  4 19  2  0
 14 13  1  0
 14 18  1  0
 13  7  2  0
  9 10  2  0
  9  8  1  0
 10 11  1  0
 19 18  1  0
 18  5  1  0
  7  8  1  0
  7  6  1  0
  8  1  2  0
 11 12  2  0
  5  6  2  0
  5 37  1  0
  1 12  1  0
  1 20  1  0
  3 21  1  0
  3 22  1  0
  4 23  1  0
 37 24  1  0
  6 25  1  0
  9 26  1  0
 10 27  1  0
 11 28  1  0
 12 29  1  0
 15 30  1  0
 16 31  1  6
 38 32  1  0
 17 33  1  0
 17 34  1  0
 17 35  1  0
M  END
