
     RDKit          3D

 40 42  0  0  0  0  0  0  0  0999 V2000
   -2.1616   -0.7965    2.1786 C   0  0  0  0  0  0  0  0  0  0  0  0
   -2.9947   -0.0365    1.1873 C   0  0  0  0  0  0  0  0  0  0  0  0
   -4.2201    0.5077    1.5644 C   0  0  0  0  0  0  0  0  0  0  0  0
   -4.5584    1.4089   -0.6355 C   0  0  0  0  0  0  0  0  0  0  0  0
   -3.3390    0.8722   -1.0258 C   0  0  0  0  0  0  0  0  0  0  0  0
   -2.5547    0.1534   -0.1289 C   0  0  0  0  0  0  0  0  0  0  0  0
   -1.2486   -0.4004   -0.5722 C   0  0  0  0  0  0  0  0  0  0  0  0
    1.1383   -0.1036   -0.8527 C   0  0  0  0  0  0  0  0  0  0  0  0
    1.2310   -1.3947   -1.3566 C   0  0  0  0  0  0  0  0  0  0  0  0
    0.0908   -2.1746   -1.4762 C   0  0  0  0  0  0  0  0  0  0  0  0
   -1.1575   -1.7024   -1.0812 C   0  0  0  0  0  0  0  0  0  0  0  0
   -2.3740   -2.5713   -1.2050 C   0  0  0  0  0  0  0  0  0  0  0  0
    2.3201    0.8081   -0.7859 C   0  0  0  0  0  0  0  0  0  0  0  0
    4.7489   -0.5798    1.4873 C   0  0  0  0  0  0  0  0  0  0  0  0
    4.5753    1.2274    0.0206 C   0  0  0  0  0  0  0  0  0  0  0  0
   -4.9997    1.2240    0.6662 C   0  0  0  0  0  0  0  0  0  0  0  0
   -0.1090    0.3881   -0.4812 C   0  0  0  0  0  0  0  0  0  0  0  0
    2.2893    1.9045   -1.3329 O   0  0  0  0  0  0  0  0  0  0  0  0
    3.3959    0.3762   -0.1100 N   0  0  0  0  0  0  0  0  0  0  0  0
    3.4464   -0.7830    0.7819 C   0  0  0  0  0  0  0  0  0  0  0  0
    5.3702    0.5111    1.0634 C   0  0  0  0  0  0  0  0  0  0  0  0
   -1.9030   -1.7927    1.8155 H   0  0  0  0  0  0  0  0  0  0  0  0
   -1.2198   -0.2848    2.3854 H   0  0  0  0  0  0  0  0  0  0  0  0
   -2.6884   -0.9147    3.1244 H   0  0  0  0  0  0  0  0  0  0  0  0
   -4.5683    0.3702    2.5814 H   0  0  0  0  0  0  0  0  0  0  0  0
   -5.1560    1.9678   -1.3438 H   0  0  0  0  0  0  0  0  0  0  0  0
   -2.9891    1.0127   -2.0414 H   0  0  0  0  0  0  0  0  0  0  0  0
    2.1834   -1.7947   -1.6805 H   0  0  0  0  0  0  0  0  0  0  0  0
    0.1740   -3.1735   -1.8872 H   0  0  0  0  0  0  0  0  0  0  0  0
   -3.1457   -2.0975   -1.8130 H   0  0  0  0  0  0  0  0  0  0  0  0
   -2.1265   -3.5285   -1.6616 H   0  0  0  0  0  0  0  0  0  0  0  0
   -2.8210   -2.7742   -0.2298 H   0  0  0  0  0  0  0  0  0  0  0  0
    5.1125    1.3175   -0.9288 H   0  0  0  0  0  0  0  0  0  0  0  0
    4.3050    2.2409    0.3318 H   0  0  0  0  0  0  0  0  0  0  0  0
   -5.9481    1.6370    0.9848 H   0  0  0  0  0  0  0  0  0  0  0  0
   -0.1977    1.3981   -0.0993 H   0  0  0  0  0  0  0  0  0  0  0  0
    3.4377   -1.7296    0.2357 H   0  0  0  0  0  0  0  0  0  0  0  0
    2.5965   -0.7996    1.4705 H   0  0  0  0  0  0  0  0  0  0  0  0
    6.3293    0.8725    1.4059 H   0  0  0  0  0  0  0  0  0  0  0  0
    5.1086   -1.2723    2.2351 H   0  0  0  0  0  0  0  0  0  0  0  0
  4  5  2  0
  4 16  1  0
  5  6  1  0
 16  3  2  0
 12 11  1  0
  6  7  1  0
  6  2  2  0
  3  2  1  0
 11  7  2  0
 11 10  1  0
 14 20  1  0
 14 21  2  0
 20 19  1  0
  7 17  1  0
  2  1  1  0
 10  9  2  0
 17  8  2  0
  9  8  1  0
 21 15  1  0
  8 13  1  0
 19 13  1  0
 19 15  1  0
 13 18  2  0
  1 22  1  0
  1 23  1  0
  1 24  1  0
  3 25  1  0
  4 26  1  0
  5 27  1  0
  9 28  1  0
 10 29  1  0
 12 30  1  0
 12 31  1  0
 12 32  1  0
 14 40  1  0
 15 33  1  0
 15 34  1  0
 16 35  1  0
 17 36  1  0
 20 37  1  0
 20 38  1  0
 21 39  1  0
M  END
