
     RDKit          3D

 39 39  0  0  0  0  0  0  0  0999 V2000
   -6.3071   -1.1546    0.0463 C   0  0  0  0  0  0  0  0  0  0  0  0
   -7.6649   -1.4419   -0.0192 C   0  0  0  0  0  0  0  0  0  0  0  0
   -8.6074   -0.4410   -0.1998 C   0  0  0  0  0  0  0  0  0  0  0  0
   -8.1749    0.8741   -0.3166 C   0  0  0  0  0  0  0  0  0  0  0  0
   -6.8258    1.1767   -0.2534 C   0  0  0  0  0  0  0  0  0  0  0  0
   -5.8743    0.1680   -0.0713 C   0  0  0  0  0  0  0  0  0  0  0  0
   -4.5368    0.5704   -0.0145 N   0  0  0  0  0  0  0  0  0  0  0  0
   -3.4088   -0.1792    0.1105 C   0  0  0  0  0  0  0  0  0  0  0  0
   -3.4091   -1.3955    0.1694 O   0  0  0  0  0  0  0  0  0  0  0  0
   -2.1421    0.6469    0.1920 C   0  0  0  0  0  0  0  0  0  0  0  0
   -0.8711   -0.1690    0.0222 C   0  0  0  0  0  0  0  0  0  0  0  0
    0.3816    0.6886    0.1475 C   0  0  0  0  0  0  0  0  0  0  0  0
    1.6602   -0.1215   -0.0194 C   0  0  0  0  0  0  0  0  0  0  0  0
    2.9194    0.7211    0.1352 C   0  0  0  0  0  0  0  0  0  0  0  0
    4.1747   -0.1182   -0.0407 C   0  0  0  0  0  0  0  0  0  0  0  0
    5.4469    0.6455    0.1377 C   0  0  0  0  0  0  0  0  0  0  0  0
    5.5363    1.7776    0.5245 O   0  0  0  0  0  0  0  0  0  0  0  0
    6.7451   -0.1043   -0.2283 C   0  0  2  0  0  0  0  0  0  0  0  0
    6.8231   -0.2472   -1.5554 F   0  0  0  0  0  0  0  0  0  0  0  0
    6.7703   -1.3239    0.3131 F   0  0  0  0  0  0  0  0  0  0  0  0
    7.8216    0.5524    0.1798 F   0  0  0  0  0  0  0  0  0  0  0  0
   -5.6018   -1.9563    0.1863 H   0  0  0  0  0  0  0  0  0  0  0  0
   -7.9821   -2.4728    0.0751 H   0  0  0  0  0  0  0  0  0  0  0  0
   -9.6617   -0.6786   -0.2483 H   0  0  0  0  0  0  0  0  0  0  0  0
   -8.8903    1.6738   -0.4582 H   0  0  0  0  0  0  0  0  0  0  0  0
   -6.5033    2.2075   -0.3476 H   0  0  0  0  0  0  0  0  0  0  0  0
   -4.3965    1.5682   -0.0718 H   0  0  0  0  0  0  0  0  0  0  0  0
   -2.1370    1.1513    1.1654 H   0  0  0  0  0  0  0  0  0  0  0  0
   -2.1817    1.4477   -0.5529 H   0  0  0  0  0  0  0  0  0  0  0  0
   -0.8769   -0.6636   -0.9535 H   0  0  0  0  0  0  0  0  0  0  0  0
   -0.8389   -0.9644    0.7707 H   0  0  0  0  0  0  0  0  0  0  0  0
    0.3891    1.1830    1.1251 H   0  0  0  0  0  0  0  0  0  0  0  0
    0.3574    1.4899   -0.5988 H   0  0  0  0  0  0  0  0  0  0  0  0
    1.6595   -0.6039   -1.0028 H   0  0  0  0  0  0  0  0  0  0  0  0
    1.6735   -0.9323    0.7171 H   0  0  0  0  0  0  0  0  0  0  0  0
    2.9230    1.1915    1.1216 H   0  0  0  0  0  0  0  0  0  0  0  0
    2.9116    1.5326   -0.5976 H   0  0  0  0  0  0  0  0  0  0  0  0
    4.1858   -0.6020   -1.0237 H   0  0  0  0  0  0  0  0  0  0  0  0
    4.1836   -0.9450    0.6797 H   0  0  0  0  0  0  0  0  0  0  0  0
  1  2  2  0
  1  6  1  0
  1 22  1  0
  2  3  1  0
  2 23  1  0
  3  4  2  0
  3 24  1  0
  4  5  1  0
  4 25  1  0
  5  6  2  0
  5 26  1  0
  6  7  1  0
  7  8  1  0
  7 27  1  0
  8  9  2  0
  8 10  1  0
 10 11  1  0
 10 28  1  0
 10 29  1  0
 11 12  1  0
 11 30  1  0
 11 31  1  0
 12 13  1  0
 12 32  1  0
 12 33  1  0
 13 14  1  0
 13 34  1  0
 13 35  1  0
 14 15  1  0
 14 36  1  0
 14 37  1  0
 15 16  1  0
 15 38  1  0
 15 39  1  0
 16 17  2  0
 16 18  1  0
 18 19  1  6
 18 20  1  0
 18 21  1  0
M  END
