
     RDKit          3D

 25 26  0  0  0  0  0  0  0  0999 V2000
    0.7547   -1.5447    1.7682 O   0  0  0  0  0  0  0  0  0  0  0  0
    0.2218   -1.7302    0.4299 S   0  0  1  0  0  0  0  0  0  0  0  0
   -0.1108   -3.0521   -0.0628 O   0  0  0  0  0  0  0  0  0  0  0  0
   -1.1291   -0.6535    0.2016 C   0  0  0  0  0  0  0  0  0  0  0  0
   -1.9580   -0.8215   -0.9084 C   0  0  0  0  0  0  0  0  0  0  0  0
   -3.0003    0.0484   -1.1263 C   0  0  0  0  0  0  0  0  0  0  0  0
   -1.3549    0.3966    1.0901 C   0  0  0  0  0  0  0  0  0  0  0  0
   -2.4000    1.2669    0.8736 C   0  0  0  0  0  0  0  0  0  0  0  0
   -3.2471    1.1151   -0.2392 C   0  0  0  0  0  0  0  0  0  0  0  0
   -4.2941    1.9476   -0.4320 N   0  0  0  0  0  0  0  0  0  0  0  0
    1.4409   -1.2039   -0.6006 N   0  0  0  0  0  0  0  0  0  0  0  0
    2.0137    0.0475   -0.4760 C   0  0  0  0  0  0  0  0  0  0  0  0
    2.4011    0.7503    1.0597 S   0  0  0  0  0  0  0  0  0  0  0  0
    3.0724    2.0982    0.2248 C   0  0  0  0  0  0  0  0  0  0  0  0
    2.9693    1.9098   -1.1110 C   0  0  0  0  0  0  0  0  0  0  0  0
    2.3618    0.7491   -1.5036 N   0  0  0  0  0  0  0  0  0  0  0  0
   -1.7977   -1.6329   -1.6064 H   0  0  0  0  0  0  0  0  0  0  0  0
   -3.6422   -0.0899   -1.9871 H   0  0  0  0  0  0  0  0  0  0  0  0
   -0.7251    0.5337    1.9582 H   0  0  0  0  0  0  0  0  0  0  0  0
   -2.5725    2.0749    1.5731 H   0  0  0  0  0  0  0  0  0  0  0  0
   -4.3400    2.8076    0.0873 H   0  0  0  0  0  0  0  0  0  0  0  0
   -4.7553    1.9605   -1.3256 H   0  0  0  0  0  0  0  0  0  0  0  0
    1.3283   -1.5013   -1.5650 H   0  0  0  0  0  0  0  0  0  0  0  0
    3.4800    2.9419    0.7577 H   0  0  0  0  0  0  0  0  0  0  0  0
    3.3156    2.6066   -1.8604 H   0  0  0  0  0  0  0  0  0  0  0  0
 14 13  1  0
 14 15  2  0
 13 12  1  0
 15 16  1  0
 12 16  2  0
 12 11  1  0
  7  8  2  0
  7  4  1  0
  3  2  2  0
  2 11  1  6
  8  9  1  0
  2  4  1  0
  2  1  2  0
  4  5  2  0
  9 10  1  0
  9  6  2  0
  5  6  1  0
  5 17  1  0
  6 18  1  0
  7 19  1  0
  8 20  1  0
 10 21  1  0
 10 22  1  0
 11 23  1  0
 14 24  1  0
 15 25  1  0
M  END
