
     RDKit          3D

 45 47  0  0  0  0  0  0  0  0999 V2000
    2.9182    0.6986   -0.0300 C   0  0  0  0  0  0  0  0  0  0  0  0
    2.4187   -0.5879   -0.0687 O   0  0  0  0  0  0  0  0  0  0  0  0
    3.1874    1.3334   -1.2377 C   0  0  0  0  0  0  0  0  0  0  0  0
    2.8608    0.6848   -2.5478 C   0  0  0  0  0  0  0  0  0  0  0  0
    3.7661    2.5932   -1.1800 C   0  0  0  0  0  0  0  0  0  0  0  0
    4.0501    3.1787    0.0510 C   0  0  0  0  0  0  0  0  0  0  0  0
    3.7639    2.5154    1.2416 C   0  0  0  0  0  0  0  0  0  0  0  0
    3.1849    1.2553    1.2169 C   0  0  0  0  0  0  0  0  0  0  0  0
    2.8579    0.5213    2.4814 C   0  0  0  0  0  0  0  0  0  0  0  0
    1.1004   -0.7728   -0.0585 C   0  0  0  0  0  0  0  0  0  0  0  0
    0.3048    0.2622   -0.0651 N   0  0  0  0  0  0  0  0  0  0  0  0
   -1.0077    0.0162   -0.0457 C   0  0  0  0  0  0  0  0  0  0  0  0
   -1.7778    1.1386   -0.0564 N   0  0  0  0  0  0  0  0  0  0  0  0
   -1.5632   -1.1830   -0.0220 N   0  0  0  0  0  0  0  0  0  0  0  0
   -0.7549   -2.2414   -0.0187 C   0  0  0  0  0  0  0  0  0  0  0  0
   -1.4276   -3.5952   -0.0190 C   0  0  0  0  0  0  0  0  0  0  0  0
    0.6204   -2.0868   -0.0380 C   0  0  0  0  0  0  0  0  0  0  0  0
   -3.1480    1.3131   -0.0472 C   0  0  0  0  0  0  0  0  0  0  0  0
   -3.6003    2.6401   -0.1135 C   0  0  0  0  0  0  0  0  0  0  0  0
   -4.9445    2.9332   -0.1043 C   0  0  0  0  0  0  0  0  0  0  0  0
   -5.8813    1.8997   -0.0285 C   0  0  0  0  0  0  0  0  0  0  0  0
   -5.4394    0.5797    0.0359 C   0  0  0  0  0  0  0  0  0  0  0  0
   -4.0900    0.2807    0.0270 C   0  0  0  0  0  0  0  0  0  0  0  0
   -7.2743    2.1915   -0.0147 C   0  0  0  0  0  0  0  0  0  0  0  0
   -8.4028    2.4289    0.0015 N   0  0  0  0  0  0  0  0  0  0  0  0
    4.6464    4.4747    0.0931 C   0  0  0  0  0  0  0  0  0  0  0  0
    5.1270    5.5214    0.1259 N   0  0  0  0  0  0  0  0  0  0  0  0
   -1.2838   -4.2512   -1.2541 O   0  0  0  0  0  0  0  0  0  0  0  0
    1.8165   -3.5264   -0.0051 Br  0  0  0  0  0  0  0  0  0  0  0  0
    3.3007   -0.3094   -2.6290 H   0  0  0  0  0  0  0  0  0  0  0  0
    1.7823    0.5774   -2.6778 H   0  0  0  0  0  0  0  0  0  0  0  0
    3.2327    1.2849   -3.3757 H   0  0  0  0  0  0  0  0  0  0  0  0
    3.9918    3.1213   -2.0972 H   0  0  0  0  0  0  0  0  0  0  0  0
    3.9902    2.9835    2.1906 H   0  0  0  0  0  0  0  0  0  0  0  0
    1.7788    0.4270    2.6167 H   0  0  0  0  0  0  0  0  0  0  0  0
    3.2777   -0.4847    2.4846 H   0  0  0  0  0  0  0  0  0  0  0  0
    3.2510    1.0516    3.3463 H   0  0  0  0  0  0  0  0  0  0  0  0
   -1.2333    1.9886   -0.0881 H   0  0  0  0  0  0  0  0  0  0  0  0
   -1.0539   -4.1921    0.8194 H   0  0  0  0  0  0  0  0  0  0  0  0
   -2.4920   -3.4307    0.1488 H   0  0  0  0  0  0  0  0  0  0  0  0
   -2.8839    3.4501   -0.1727 H   0  0  0  0  0  0  0  0  0  0  0  0
   -5.2698    3.9631   -0.1557 H   0  0  0  0  0  0  0  0  0  0  0  0
   -6.1569   -0.2274    0.0940 H   0  0  0  0  0  0  0  0  0  0  0  0
   -3.7744   -0.7477    0.0770 H   0  0  0  0  0  0  0  0  0  0  0  0
   -0.4664   -4.7574   -1.2547 H   0  0  0  0  0  0  0  0  0  0  0  0
  1  2  1  0
  1  3  2  0
  1  8  1  0
  2 10  1  0
  3  4  1  0
  3  5  1  0
  4 30  1  0
  4 31  1  0
  4 32  1  0
  5  6  2  0
  5 33  1  0
  6  7  1  0
  6 26  1  0
  7  8  2  0
  7 34  1  0
  8  9  1  0
  9 35  1  0
  9 36  1  0
  9 37  1  0
 10 11  2  0
 10 17  1  0
 11 12  1  0
 12 13  1  0
 12 14  2  0
 13 18  1  0
 13 38  1  0
 14 15  1  0
 15 16  1  0
 15 17  2  0
 16 28  1  0
 16 39  1  0
 16 40  1  0
 17 29  1  0
 18 19  2  0
 18 23  1  0
 19 20  1  0
 19 41  1  0
 20 21  2  0
 20 42  1  0
 21 22  1  0
 21 24  1  0
 22 23  2  0
 22 43  1  0
 23 44  1  0
 24 25  3  0
 26 27  3  0
 28 45  1  0
M  END
