
     RDKit          3D

 19 19  0  0  0  0  0  0  0  0999 V2000
    0.0245   -1.6499   -1.3518 C   0  0  0  0  0  0  0  0  0  0  0  0
    0.0260   -0.9944    0.0454 C   0  0  2  0  0  0  0  0  0  0  0  0
   -1.2487   -0.1856    0.2081 C   0  0  0  0  0  0  0  0  0  0  0  0
   -1.2501    1.1868   -0.4089 C   0  0  0  0  0  0  0  0  0  0  0  0
    0.0171    1.9601   -0.0517 C   0  0  0  0  0  0  0  0  0  0  0  0
    1.2823    1.1915   -0.4283 C   0  0  0  0  0  0  0  0  0  0  0  0
    1.2938   -0.1745    0.2020 C   0  0  0  0  0  0  0  0  0  0  0  0
   -2.2063   -0.6540    0.7784 O   0  0  0  0  0  0  0  0  0  0  0  0
    2.2535   -0.6278    0.7810 O   0  0  0  0  0  0  0  0  0  0  0  0
    0.9094   -2.2744   -1.4686 H   0  0  0  0  0  0  0  0  0  0  0  0
   -0.8515   -2.2882   -1.4604 H   0  0  0  0  0  0  0  0  0  0  0  0
    0.0152   -0.9190   -2.1602 H   0  0  0  0  0  0  0  0  0  0  0  0
    0.0313   -1.7897    0.7945 H   0  0  0  0  0  0  0  0  0  0  0  0
   -1.3109    1.0673   -1.4968 H   0  0  0  0  0  0  0  0  0  0  0  0
   -2.1444    1.7252   -0.0959 H   0  0  0  0  0  0  0  0  0  0  0  0
    0.0120    2.9197   -0.5676 H   0  0  0  0  0  0  0  0  0  0  0  0
    0.0248    2.1780    1.0190 H   0  0  0  0  0  0  0  0  0  0  0  0
    1.3206    1.0652   -1.5165 H   0  0  0  0  0  0  0  0  0  0  0  0
    2.1797    1.7363   -0.1357 H   0  0  0  0  0  0  0  0  0  0  0  0
  1  2  1  0
  2  7  1  0
  2  3  1  0
  9  7  2  0
  7  6  1  0
  8  3  2  0
  3  4  1  0
  6  5  1  0
  5  4  1  0
  1 10  1  0
  1 11  1  0
  1 12  1  0
  2 13  1  1
  4 14  1  0
  4 15  1  0
  5 16  1  0
  5 17  1  0
  6 18  1  0
  6 19  1  0
M  END
