
     RDKit          3D

 59 61  0  0  0  0  0  0  0  0999 V2000
   -0.6400    2.2952    0.2353 C   0  0  2  0  0  0  0  0  0  0  0  0
   -1.2439    1.2741   -0.7498 C   0  0  1  0  0  0  0  0  0  0  0  0
   -1.5298   -0.1131   -0.2171 C   0  0  0  0  0  0  0  0  0  0  0  0
   -0.7192   -1.0075    0.3382 C   0  0  0  0  0  0  0  0  0  0  0  0
    0.7372   -1.0400    0.7140 C   0  0  2  0  0  0  0  0  0  0  0  0
    1.7995   -0.1724    0.0235 C   0  0  0  0  0  0  0  0  0  0  0  0
    1.7759    1.2758   -0.3993 C   0  0  2  0  0  0  0  0  0  0  0  0
    0.9112    2.3119    0.3474 C   0  0  2  0  0  0  0  0  0  0  0  0
   -2.5996    1.7588   -1.2982 C   0  0  0  0  0  0  0  0  0  0  0  0
   -3.3699    0.4842   -1.6212 C   0  0  0  0  0  0  0  0  0  0  0  0
   -2.9883   -0.4632   -0.4807 C   0  0  2  0  0  0  0  0  0  0  0  0
    1.2627   -2.4625    0.3928 C   0  0  2  0  0  0  0  0  0  0  0  0
    2.7729   -2.2935    0.3484 C   0  0  0  0  0  0  0  0  0  0  0  0
    2.9294   -0.8810   -0.1340 C   0  0  0  0  0  0  0  0  0  0  0  0
    0.8212   -0.8538    2.2438 C   0  0  0  0  0  0  0  0  0  0  0  0
   -3.8374   -0.2568    0.7659 C   0  0  0  0  0  0  0  0  0  0  0  0
   -1.3492    2.2809    1.5888 C   0  0  0  0  0  0  0  0  0  0  0  0
    1.2922    2.3309    1.7064 O   0  0  0  0  0  0  0  0  0  0  0  0
    1.5864    1.3279   -1.8045 O   0  0  0  0  0  0  0  0  0  0  0  0
   -5.1649   -0.6397    0.4994 O   0  0  0  0  0  0  0  0  0  0  0  0
    4.2374   -0.4467   -0.7307 C   0  0  1  0  0  0  0  0  0  0  0  0
    5.4253   -0.9425    0.0943 C   0  0  0  0  0  0  0  0  0  0  0  0
    4.3376   -0.9325   -2.1790 C   0  0  0  0  0  0  0  0  0  0  0  0
    0.7628   -2.8515   -0.8673 O   0  0  0  0  0  0  0  0  0  0  0  0
   -6.0128   -0.4224    1.5962 C   0  0  0  0  0  0  0  0  0  0  0  0
   -0.8910    3.2652   -0.2072 H   0  0  0  0  0  0  0  0  0  0  0  0
   -0.5665    1.1795   -1.5978 H   0  0  0  0  0  0  0  0  0  0  0  0
   -1.2061   -1.9375    0.6316 H   0  0  0  0  0  0  0  0  0  0  0  0
    2.7927    1.6445   -0.1919 H   0  0  0  0  0  0  0  0  0  0  0  0
    1.2217    3.2643   -0.1122 H   0  0  0  0  0  0  0  0  0  0  0  0
   -3.1364    2.3419   -0.5445 H   0  0  0  0  0  0  0  0  0  0  0  0
   -2.4731    2.4124   -2.1630 H   0  0  0  0  0  0  0  0  0  0  0  0
   -4.4460    0.6385   -1.7124 H   0  0  0  0  0  0  0  0  0  0  0  0
   -3.0221    0.0679   -2.5710 H   0  0  0  0  0  0  0  0  0  0  0  0
   -3.0843   -1.5124   -0.7753 H   0  0  0  0  0  0  0  0  0  0  0  0
    0.9438   -3.1712    1.1699 H   0  0  0  0  0  0  0  0  0  0  0  0
    3.2179   -2.4209    1.3412 H   0  0  0  0  0  0  0  0  0  0  0  0
    3.2577   -3.0337   -0.2958 H   0  0  0  0  0  0  0  0  0  0  0  0
    0.1345   -1.5345    2.7519 H   0  0  0  0  0  0  0  0  0  0  0  0
    1.8285   -1.0569    2.6136 H   0  0  0  0  0  0  0  0  0  0  0  0
    0.5642    0.1629    2.5269 H   0  0  0  0  0  0  0  0  0  0  0  0
   -3.4231   -0.8534    1.5923 H   0  0  0  0  0  0  0  0  0  0  0  0
   -3.8013    0.7926    1.0918 H   0  0  0  0  0  0  0  0  0  0  0  0
   -1.1883    1.3580    2.1434 H   0  0  0  0  0  0  0  0  0  0  0  0
   -1.0338    3.1135    2.2154 H   0  0  0  0  0  0  0  0  0  0  0  0
   -2.4251    2.3897    1.4446 H   0  0  0  0  0  0  0  0  0  0  0  0
    2.2482    2.4355    1.7515 H   0  0  0  0  0  0  0  0  0  0  0  0
    1.7171    2.2402   -2.0878 H   0  0  0  0  0  0  0  0  0  0  0  0
    4.2915    0.6448   -0.7520 H   0  0  0  0  0  0  0  0  0  0  0  0
    6.3577   -0.5417   -0.3057 H   0  0  0  0  0  0  0  0  0  0  0  0
    5.3487   -0.6295    1.1367 H   0  0  0  0  0  0  0  0  0  0  0  0
    5.5041   -2.0312    0.0770 H   0  0  0  0  0  0  0  0  0  0  0  0
    3.5344   -0.5112   -2.7822 H   0  0  0  0  0  0  0  0  0  0  0  0
    5.2900   -0.6335   -2.6219 H   0  0  0  0  0  0  0  0  0  0  0  0
    4.2731   -2.0210   -2.2416 H   0  0  0  0  0  0  0  0  0  0  0  0
    1.1567   -3.7005   -1.0902 H   0  0  0  0  0  0  0  0  0  0  0  0
   -7.0151   -0.7510    1.3227 H   0  0  0  0  0  0  0  0  0  0  0  0
   -5.6948   -0.9855    2.4825 H   0  0  0  0  0  0  0  0  0  0  0  0
   -6.0603    0.6374    1.8759 H   0  0  0  0  0  0  0  0  0  0  0  0
  1  2  1  0
  2  3  1  0
  2  9  1  0
  3 11  1  0
  4  3  2  0
  5  4  1  0
  5 12  1  0
  6  5  1  0
  6 14  2  0
  7  6  1  0
  7  8  1  0
  8  1  1  0
  9 10  1  0
 11 10  1  0
 12 13  1  0
 12 24  1  0
 14 13  1  0
  5 15  1  1
 16 11  1  0
 16 20  1  0
 17  1  1  0
 18  8  1  0
 19  7  1  0
 21 14  1  0
 21 23  1  0
 22 21  1  0
 25 20  1  0
  1 26  1  6
  2 27  1  6
  4 28  1  0
  7 29  1  6
  8 30  1  6
  9 31  1  0
  9 32  1  0
 10 33  1  0
 10 34  1  0
 11 35  1  6
 12 36  1  1
 13 37  1  0
 13 38  1  0
 15 39  1  0
 15 40  1  0
 15 41  1  0
 16 42  1  0
 16 43  1  0
 17 44  1  0
 17 45  1  0
 17 46  1  0
 18 47  1  0
 19 48  1  0
 21 49  1  6
 22 50  1  0
 22 51  1  0
 22 52  1  0
 23 53  1  0
 23 54  1  0
 23 55  1  0
 24 56  1  0
 25 57  1  0
 25 58  1  0
 25 59  1  0
M  END
