
     RDKit          3D

 60 62  0  0  0  0  0  0  0  0999 V2000
    3.2988    1.4213   -0.2243 C   0  0  0  0  0  0  0  0  0  0  0  0
   -2.0294    1.6653    0.6575 C   0  0  0  0  0  0  0  0  0  0  0  0
   -0.9576    0.1583   -0.6280 C   0  0  0  0  0  0  0  0  0  0  0  0
   -2.1936   -0.3377   -1.0649 C   0  0  0  0  0  0  0  0  0  0  0  0
   -3.3266    0.2796   -0.5559 C   0  0  0  0  0  0  0  0  0  0  0  0
   -7.9517    1.3185    1.1634 C   0  0  0  0  0  0  0  0  0  0  0  0
   -7.7263    1.7485   -0.1407 C   0  0  0  0  0  0  0  0  0  0  0  0
   -6.5933    1.2769   -0.7973 C   0  0  0  0  0  0  0  0  0  0  0  0
   -5.7151    0.3906   -0.1923 C   0  0  0  0  0  0  0  0  0  0  0  0
   -7.0856    0.4336    1.7886 C   0  0  0  0  0  0  0  0  0  0  0  0
   -4.8225   -1.1179   -1.8979 C   0  0  0  0  0  0  0  0  0  0  0  0
   -5.9753   -0.0350    1.1079 C   0  0  0  0  0  0  0  0  0  0  0  0
    1.5094   -0.1059   -0.7484 C   0  0  0  0  0  0  0  0  0  0  0  0
   -3.2439    1.2929    0.3158 N   0  0  0  0  0  0  0  0  0  0  0  0
   -0.8781    1.1676    0.2427 N   0  0  0  0  0  0  0  0  0  0  0  0
   -4.5969   -0.0901   -0.9174 N   0  0  0  0  0  0  0  0  0  0  0  0
   -4.5030   -3.5423   -0.9583 N   0  0  0  0  0  0  0  0  0  0  0  0
    0.1831   -0.4073   -1.0913 N   0  0  0  0  0  0  0  0  0  0  0  0
    1.9679    1.1930   -0.5173 C   0  0  0  0  0  0  0  0  0  0  0  0
    4.2158    0.3708   -0.1712 C   0  0  0  0  0  0  0  0  0  0  0  0
    3.7688   -0.9227   -0.4197 C   0  0  0  0  0  0  0  0  0  0  0  0
    2.4265   -1.1492   -0.6963 C   0  0  0  0  0  0  0  0  0  0  0  0
    5.4903    0.7014    0.1198 O   0  0  0  0  0  0  0  0  0  0  0  0
    6.4800   -0.3046    0.0891 C   0  0  0  0  0  0  0  0  0  0  0  0
    7.8304    0.3548    0.3413 C   0  0  1  0  0  0  0  0  0  0  0  0
    8.9169   -0.7190    0.3153 C   0  0  0  0  0  0  0  0  0  0  0  0
   10.1594   -0.3485    0.9657 N   0  0  0  0  0  0  0  0  0  0  0  0
   10.9580   -1.5261    1.2401 C   0  0  0  0  0  0  0  0  0  0  0  0
   10.9410    0.6133    0.2132 C   0  0  0  0  0  0  0  0  0  0  0  0
    8.0493    1.4184   -0.5568 O   0  0  0  0  0  0  0  0  0  0  0  0
   -4.9044   -1.1478    1.8800 Cl  0  0  0  0  0  0  0  0  0  0  0  0
    3.6405    2.4333   -0.0457 H   0  0  0  0  0  0  0  0  0  0  0  0
   -1.9640    2.4842    1.3671 H   0  0  0  0  0  0  0  0  0  0  0  0
   -2.2274   -1.1676   -1.7559 H   0  0  0  0  0  0  0  0  0  0  0  0
   -8.8156    1.6787    1.7082 H   0  0  0  0  0  0  0  0  0  0  0  0
   -6.3755    1.6090   -1.8056 H   0  0  0  0  0  0  0  0  0  0  0  0
   -7.2777    0.1082    2.8019 H   0  0  0  0  0  0  0  0  0  0  0  0
   -5.8402   -1.0389   -2.2796 H   0  0  0  0  0  0  0  0  0  0  0  0
   -4.1628   -0.9976   -2.7593 H   0  0  0  0  0  0  0  0  0  0  0  0
    0.0608   -1.2386   -1.6482 H   0  0  0  0  0  0  0  0  0  0  0  0
    1.2907    2.0310   -0.5697 H   0  0  0  0  0  0  0  0  0  0  0  0
    4.4384   -1.7712   -0.3921 H   0  0  0  0  0  0  0  0  0  0  0  0
    2.0946   -2.1652   -0.8744 H   0  0  0  0  0  0  0  0  0  0  0  0
    6.4850   -0.8158   -0.8837 H   0  0  0  0  0  0  0  0  0  0  0  0
    6.2913   -1.0620    0.8583 H   0  0  0  0  0  0  0  0  0  0  0  0
    7.8184    0.8023    1.3403 H   0  0  0  0  0  0  0  0  0  0  0  0
    9.0772   -1.0449   -0.7301 H   0  0  0  0  0  0  0  0  0  0  0  0
    8.5262   -1.5926    0.8448 H   0  0  0  0  0  0  0  0  0  0  0  0
   11.8614   -1.2425    1.7819 H   0  0  0  0  0  0  0  0  0  0  0  0
   10.4020   -2.2283    1.8632 H   0  0  0  0  0  0  0  0  0  0  0  0
   11.2736   -2.0601    0.3294 H   0  0  0  0  0  0  0  0  0  0  0  0
   10.4024    1.5486    0.0869 H   0  0  0  0  0  0  0  0  0  0  0  0
   11.8650    0.8307    0.7510 H   0  0  0  0  0  0  0  0  0  0  0  0
   11.2176    0.2447   -0.7879 H   0  0  0  0  0  0  0  0  0  0  0  0
    8.1663    1.0532   -1.4410 H   0  0  0  0  0  0  0  0  0  0  0  0
   -9.3720    2.1320   -1.4633 H   0  0  0  0  0  0  0  0  0  0  0  0
   -9.2670    3.2509   -0.1122 H   0  0  0  0  0  0  0  0  0  0  0  0
   -8.1471    3.3914   -1.4675 H   0  0  0  0  0  0  0  0  0  0  0  0
   -8.6753    2.6837   -0.8291 C   0  0  0  0  0  0  0  0  0  0  0  0
   -4.6444   -2.4758   -1.3626 C   0  0  0  0  0  0  0  0  0  0  0  0
  1 19  2  0
  1 20  1  0
  1 32  1  0
  2 14  2  0
  2 15  1  0
  2 33  1  0
  3  4  1  0
  3 15  2  0
  3 18  1  0
  4  5  2  0
  4 34  1  0
  5 14  1  0
  5 16  1  0
  6  7  2  0
  6 10  1  0
  6 35  1  0
  7  8  1  0
  7 59  1  0
  8  9  2  0
  8 36  1  0
  9 12  1  0
  9 16  1  0
 10 12  2  0
 10 37  1  0
 60 11  1  0
 60 17  3  0
 11 16  1  0
 11 38  1  0
 11 39  1  0
 12 31  1  0
 13 18  1  0
 13 19  1  0
 13 22  2  0
 18 40  1  0
 19 41  1  0
 20 21  2  0
 20 23  1  0
 21 22  1  0
 21 42  1  0
 22 43  1  0
 23 24  1  0
 24 25  1  0
 24 44  1  0
 24 45  1  0
 25 26  1  0
 25 30  1  0
 25 46  1  1
 26 27  1  0
 26 47  1  0
 26 48  1  0
 27 28  1  0
 27 29  1  0
 28 49  1  0
 28 50  1  0
 28 51  1  0
 29 52  1  0
 29 53  1  0
 29 54  1  0
 30 55  1  0
 59 56  1  0
 59 57  1  0
 59 58  1  0
M  END
