
     RDKit          3D

 47 50  0  0  0  0  0  0  0  0999 V2000
   -6.0755   -0.8218   -0.9026 N   0  0  0  0  0  0  0  0  0  0  0  0
   -7.0688   -0.2856   -0.2244 C   0  0  0  0  0  0  0  0  0  0  0  0
   -5.5906    1.0692    1.0511 C   0  0  0  0  0  0  0  0  0  0  0  0
    2.5307   -0.8576    0.3266 C   0  0  2  0  0  0  0  0  0  0  0  0
    3.9928   -0.5735    0.1438 C   0  0  0  0  0  0  0  0  0  0  0  0
   -1.7264    2.3945    1.5932 C   0  0  0  0  0  0  0  0  0  0  0  0
    0.3667   -1.2570   -0.5573 C   0  0  0  0  0  0  0  0  0  0  0  0
   -8.5392   -1.6488   -1.4754 C   0  0  0  0  0  0  0  0  0  0  0  0
    4.4328    0.3395   -0.8154 C   0  0  0  0  0  0  0  0  0  0  0  0
    6.7179   -0.0699   -0.2262 C   0  0  0  0  0  0  0  0  0  0  0  0
    6.3237   -0.9788    0.7296 C   0  0  0  0  0  0  0  0  0  0  0  0
    4.9690   -1.2113    0.8927 C   0  0  0  0  0  0  0  0  0  0  0  0
    4.6054   -2.1003    1.8276 F   0  0  0  0  0  0  0  0  0  0  0  0
    5.7738    0.5874   -0.9972 C   0  0  0  0  0  0  0  0  0  0  0  0
    6.1820    1.4655   -1.9186 F   0  0  0  0  0  0  0  0  0  0  0  0
    1.8375   -1.4210   -0.9187 C   0  0  2  0  0  0  0  0  0  0  0  0
    2.1887   -2.8008   -1.1698 N   0  0  0  0  0  0  0  0  0  0  0  0
    0.3511   -0.0442    0.2383 N   0  0  0  0  0  0  0  0  0  0  0  0
    1.6803    0.3701    0.6580 C   0  0  0  0  0  0  0  0  0  0  0  0
   -0.7626    0.6126    0.5844 C   0  0  0  0  0  0  0  0  0  0  0  0
   -0.6176    1.7578    1.2662 N   0  0  0  0  0  0  0  0  0  0  0  0
   -2.0472    0.1298    0.2628 C   0  0  0  0  0  0  0  0  0  0  0  0
   -3.1281    0.8979    0.6431 C   0  0  0  0  0  0  0  0  0  0  0  0
   -2.9688    2.0487    1.3188 N   0  0  0  0  0  0  0  0  0  0  0  0
   -4.5158    0.4996    0.3529 C   0  0  0  0  0  0  0  0  0  0  0  0
   -6.8773    0.6796    0.7737 C   0  0  0  0  0  0  0  0  0  0  0  0
   -8.3200   -0.6560   -0.4817 O   0  0  0  0  0  0  0  0  0  0  0  0
   -4.8352   -0.4360   -0.6193 C   0  0  0  0  0  0  0  0  0  0  0  0
   -5.4047    1.8120    1.8147 H   0  0  0  0  0  0  0  0  0  0  0  0
    2.3928   -1.5904    1.1251 H   0  0  0  0  0  0  0  0  0  0  0  0
   -1.5960    3.3170    2.1512 H   0  0  0  0  0  0  0  0  0  0  0  0
   -0.2677   -1.1646   -1.4415 H   0  0  0  0  0  0  0  0  0  0  0  0
    0.0234   -2.1246    0.0183 H   0  0  0  0  0  0  0  0  0  0  0  0
   -8.1738   -1.3322   -2.4525 H   0  0  0  0  0  0  0  0  0  0  0  0
   -8.0630   -2.5940   -1.2125 H   0  0  0  0  0  0  0  0  0  0  0  0
   -9.6158   -1.7892   -1.5209 H   0  0  0  0  0  0  0  0  0  0  0  0
    3.7202    0.8688   -1.4359 H   0  0  0  0  0  0  0  0  0  0  0  0
    7.0544   -1.4966    1.3371 H   0  0  0  0  0  0  0  0  0  0  0  0
    2.0565   -0.7542   -1.7671 H   0  0  0  0  0  0  0  0  0  0  0  0
    1.6886   -3.1315   -1.9863 H   0  0  0  0  0  0  0  0  0  0  0  0
    3.1693   -2.8560   -1.4184 H   0  0  0  0  0  0  0  0  0  0  0  0
    1.7102    0.6130    1.7199 H   0  0  0  0  0  0  0  0  0  0  0  0
    2.0080    1.2579    0.1081 H   0  0  0  0  0  0  0  0  0  0  0  0
   -2.1765   -0.8178   -0.2380 H   0  0  0  0  0  0  0  0  0  0  0  0
   -7.7207    1.0963    1.3072 H   0  0  0  0  0  0  0  0  0  0  0  0
   -4.0607   -0.8972   -1.2220 H   0  0  0  0  0  0  0  0  0  0  0  0
    8.0130    0.1828   -0.4179 F   0  0  0  0  0  0  0  0  0  0  0  0
  1  2  2  0
  1 28  1  0
  2 27  1  0
  2 26  1  0
  3 26  2  0
  3 25  1  0
  3 29  1  0
  4 19  1  0
  4 16  1  0
  4  5  1  0
  4 30  1  1
  5 12  1  0
  5  9  2  0
  6 24  2  0
  6 21  1  0
  6 31  1  0
  7 18  1  0
  7 16  1  0
  7 32  1  0
  7 33  1  0
  8 27  1  0
  8 34  1  0
  8 35  1  0
  8 36  1  0
  9 14  1  0
  9 37  1  0
 47 10  1  0
 10 11  1  0
 10 14  2  0
 11 12  2  0
 11 38  1  0
 12 13  1  0
 14 15  1  0
 16 17  1  0
 16 39  1  6
 17 40  1  0
 17 41  1  0
 18 20  1  0
 18 19  1  0
 19 42  1  0
 19 43  1  0
 20 22  1  0
 20 21  2  0
 22 23  2  0
 22 44  1  0
 23 25  1  0
 23 24  1  0
 25 28  2  0
 26 45  1  0
 28 46  1  0
M  END
