
     RDKit          3D

 25 25  0  0  0  0  0  0  0  0999 V2000
   -0.6877    0.2236    0.3313 C   0  0  0  0  0  0  0  0  0  0  0  0
   -2.0001   -0.2505    0.3535 C   0  0  0  0  0  0  0  0  0  0  0  0
   -3.0555    0.4405   -0.2233 C   0  0  0  0  0  0  0  0  0  0  0  0
   -2.8100    1.6470   -0.8544 C   0  0  0  0  0  0  0  0  0  0  0  0
   -1.5228    2.1560   -0.9081 C   0  0  0  0  0  0  0  0  0  0  0  0
    3.1837   -0.1748    0.8987 O   0  0  0  0  0  0  0  0  0  0  0  0
    2.6851   -0.8968    0.0474 C   0  0  0  0  0  0  0  0  0  0  0  0
    3.5497   -1.5995   -0.9732 C   0  0  0  0  0  0  0  0  0  0  0  0
    1.3449   -1.0999   -0.0348 N   0  0  0  0  0  0  0  0  0  0  0  0
    0.7439   -2.1159   -0.8738 C   0  0  0  0  0  0  0  0  0  0  0  0
    0.4667   -0.5144    0.9615 C   0  0  0  0  0  0  0  0  0  0  0  0
   -0.4912    1.4433   -0.3205 C   0  0  0  0  0  0  0  0  0  0  0  0
    1.1005    2.1198   -0.3975 Cl  0  0  0  0  0  0  0  0  0  0  0  0
   -2.3719   -1.7683    1.1102 Cl  0  0  0  0  0  0  0  0  0  0  0  0
   -4.0576    0.0378   -0.1803 H   0  0  0  0  0  0  0  0  0  0  0  0
   -3.6258    2.1939   -1.3069 H   0  0  0  0  0  0  0  0  0  0  0  0
   -1.3234    3.0978   -1.3998 H   0  0  0  0  0  0  0  0  0  0  0  0
    3.4754   -2.6839   -0.8846 H   0  0  0  0  0  0  0  0  0  0  0  0
    3.2716   -1.3369   -1.9941 H   0  0  0  0  0  0  0  0  0  0  0  0
    4.5861   -1.3141   -0.8140 H   0  0  0  0  0  0  0  0  0  0  0  0
    0.5774   -3.0443   -0.3219 H   0  0  0  0  0  0  0  0  0  0  0  0
   -0.2179   -1.7707   -1.2508 H   0  0  0  0  0  0  0  0  0  0  0  0
    1.3583   -2.3355   -1.7401 H   0  0  0  0  0  0  0  0  0  0  0  0
    1.0465    0.1706    1.5757 H   0  0  0  0  0  0  0  0  0  0  0  0
    0.0926   -1.2953    1.6254 H   0  0  0  0  0  0  0  0  0  0  0  0
  6  7  2  0
  7  8  1  0
  7  9  1  0
 11  9  1  0
 11  1  1  0
  9 10  1  0
 14  2  1  0
  1  2  2  0
  1 12  1  0
 13 12  1  0
  2  3  1  0
 12  5  2  0
  3  4  2  0
  5  4  1  0
  3 15  1  0
  4 16  1  0
  5 17  1  0
  8 18  1  0
  8 19  1  0
  8 20  1  0
 10 21  1  0
 10 22  1  0
 10 23  1  0
 11 24  1  0
 11 25  1  0
M  END
