
     RDKit          3D

 28 30  0  0  0  0  0  0  0  0999 V2000
    1.4535   -0.9369   -0.1281 C   0  0  0  0  0  0  0  0  0  0  0  0
    0.3175   -0.1751    0.0776 C   0  0  0  0  0  0  0  0  0  0  0  0
   -1.0984   -0.6239    0.3051 C   0  0  2  0  0  0  0  0  0  0  0  0
   -1.2406   -1.4386    1.5867 C   0  0  0  0  0  0  0  0  0  0  0  0
   -1.7502   -1.3317   -0.8981 C   0  0  0  0  0  0  0  0  0  0  0  0
   -3.0931   -0.6116   -1.0339 C   0  0  0  0  0  0  0  0  0  0  0  0
   -2.8255    0.7851   -0.7143 N   0  0  0  0  0  0  0  0  0  0  0  0
   -1.8662    0.7480    0.3876 C   0  0  2  0  0  0  0  0  0  0  0  0
   -0.8734    1.7961    0.2748 N   0  0  0  0  0  0  0  0  0  0  0  0
    0.3860    1.2134    0.1161 C   0  0  0  0  0  0  0  0  0  0  0  0
    1.6066    1.8563   -0.0366 C   0  0  0  0  0  0  0  0  0  0  0  0
    2.7518    1.0932   -0.2304 C   0  0  0  0  0  0  0  0  0  0  0  0
    2.6833   -0.2970   -0.2838 C   0  0  0  0  0  0  0  0  0  0  0  0
    3.8386   -0.9798   -0.4852 O   0  0  0  0  0  0  0  0  0  0  0  0
    1.3904   -2.0203   -0.1607 H   0  0  0  0  0  0  0  0  0  0  0  0
   -0.8933   -0.8744    2.4541 H   0  0  0  0  0  0  0  0  0  0  0  0
   -2.2842   -1.7101    1.7611 H   0  0  0  0  0  0  0  0  0  0  0  0
   -0.6600   -2.3611    1.5333 H   0  0  0  0  0  0  0  0  0  0  0  0
   -1.1585   -1.1817   -1.8042 H   0  0  0  0  0  0  0  0  0  0  0  0
   -1.8496   -2.4078   -0.7460 H   0  0  0  0  0  0  0  0  0  0  0  0
   -2.4079    0.8280    1.3360 H   0  0  0  0  0  0  0  0  0  0  0  0
   -3.5364   -0.7019   -2.0257 H   0  0  0  0  0  0  0  0  0  0  0  0
   -3.8153   -1.0184   -0.3190 H   0  0  0  0  0  0  0  0  0  0  0  0
   -2.3544    1.2134   -1.5049 H   0  0  0  0  0  0  0  0  0  0  0  0
   -0.9391    2.5386    0.9540 H   0  0  0  0  0  0  0  0  0  0  0  0
    1.6781    2.9365   -0.0094 H   0  0  0  0  0  0  0  0  0  0  0  0
    3.7106    1.5836   -0.3479 H   0  0  0  0  0  0  0  0  0  0  0  0
    3.6668   -1.9272   -0.4837 H   0  0  0  0  0  0  0  0  0  0  0  0
  1  2  2  0
  1 13  1  0
  2  3  1  0
  2 10  1  0
  3  4  1  1
  3  5  1  0
  3  8  1  0
  5  6  1  0
  6  7  1  0
  7  8  1  0
  8  9  1  0
  9 10  1  0
 10 11  2  0
 11 12  1  0
 12 13  2  0
 13 14  1  0
  1 15  1  0
  4 16  1  0
  4 17  1  0
  4 18  1  0
  5 19  1  0
  5 20  1  0
  8 21  1  1
  6 22  1  0
  6 23  1  0
  7 24  1  0
  9 25  1  0
 11 26  1  0
 12 27  1  0
 14 28  1  0
M  END
