
     RDKit          3D

 70 73  0  0  0  0  0  0  0  0999 V2000
   -3.1339    3.7937   -0.0379 O   0  0  0  0  0  0  0  0  0  0  0  0
   -2.0842    4.4155   -0.1014 C   0  0  0  0  0  0  0  0  0  0  0  0
   -1.8550    5.4658   -1.1707 C   0  0  0  0  0  0  0  0  0  0  0  0
   -3.0678    5.6809   -2.0588 C   0  0  0  0  0  0  0  0  0  0  0  0
   -1.0879    4.2045    0.7976 N   0  0  0  0  0  0  0  0  0  0  0  0
   -1.2344    3.1098    1.7421 C   0  0  0  0  0  0  0  0  0  0  0  0
   -0.8345    1.7892    1.1405 C   0  0  0  0  0  0  0  0  0  0  0  0
   -1.7549    0.7584    0.9955 C   0  0  0  0  0  0  0  0  0  0  0  0
   -1.3796   -0.4667    0.4558 C   0  0  0  0  0  0  0  0  0  0  0  0
   -2.3697   -1.5468    0.2792 C   0  0  0  0  0  0  0  0  0  0  0  0
   -2.0081   -2.8862    0.4810 C   0  0  0  0  0  0  0  0  0  0  0  0
   -2.9215   -3.9102    0.3064 C   0  0  0  0  0  0  0  0  0  0  0  0
   -2.6572   -5.2163    0.4931 O   0  0  0  0  0  0  0  0  0  0  0  0
   -1.3508   -5.5845    0.8851 C   0  0  0  0  0  0  0  0  0  0  0  0
   -4.2440   -3.6093   -0.0834 C   0  0  0  0  0  0  0  0  0  0  0  0
   -5.0628   -4.6659   -0.2340 O   0  0  0  0  0  0  0  0  0  0  0  0
   -6.4031   -4.4178   -0.6074 C   0  0  0  0  0  0  0  0  0  0  0  0
   -4.6019   -2.2865   -0.2796 C   0  0  0  0  0  0  0  0  0  0  0  0
   -3.6725   -1.2650   -0.0992 C   0  0  0  0  0  0  0  0  0  0  0  0
   -0.0530   -0.6525    0.0592 C   0  0  0  0  0  0  0  0  0  0  0  0
    0.8760    0.3740    0.1808 C   0  0  0  0  0  0  0  0  0  0  0  0
    0.4776    1.6027    0.7267 C   0  0  0  0  0  0  0  0  0  0  0  0
    1.4127    2.5818    0.8555 O   0  0  0  0  0  0  0  0  0  0  0  0
    1.2288    3.7465    0.0585 C   0  0  0  0  0  0  0  0  0  0  0  0
    0.2546    4.7366    0.6767 C   0  0  0  0  0  0  0  0  0  0  0  0
    2.1587    0.2938   -0.2059 O   0  0  0  0  0  0  0  0  0  0  0  0
    2.6683   -0.9449   -0.6696 C   0  0  0  0  0  0  0  0  0  0  0  0
    4.1405   -0.7695   -0.9837 C   0  0  1  0  0  0  0  0  0  0  0  0
    4.9385   -0.3296    0.2410 C   0  0  0  0  0  0  0  0  0  0  0  0
    6.3435   -0.1702   -0.0788 N   0  0  0  0  0  0  0  0  0  0  0  0
    7.0810    0.3621    1.0435 C   0  0  0  0  0  0  0  0  0  0  0  0
    6.9277   -1.4093   -0.5561 C   0  0  0  0  0  0  0  0  0  0  0  0
    6.2102   -1.9121   -1.7989 C   0  0  0  0  0  0  0  0  0  0  0  0
    4.7192   -2.0715   -1.5327 C   0  0  0  0  0  0  0  0  0  0  0  0
   -1.5653    6.4097   -0.7013 H   0  0  0  0  0  0  0  0  0  0  0  0
   -0.9974    5.1698   -1.7825 H   0  0  0  0  0  0  0  0  0  0  0  0
   -2.8387    6.4270   -2.8190 H   0  0  0  0  0  0  0  0  0  0  0  0
   -3.3626    4.7659   -2.5708 H   0  0  0  0  0  0  0  0  0  0  0  0
   -3.9255    6.0401   -1.4913 H   0  0  0  0  0  0  0  0  0  0  0  0
   -0.6094    3.3374    2.6088 H   0  0  0  0  0  0  0  0  0  0  0  0
   -2.2619    3.0639    2.0962 H   0  0  0  0  0  0  0  0  0  0  0  0
   -2.7733    0.9179    1.3269 H   0  0  0  0  0  0  0  0  0  0  0  0
   -1.0003   -3.1126    0.8039 H   0  0  0  0  0  0  0  0  0  0  0  0
   -0.6051   -5.3077    0.1348 H   0  0  0  0  0  0  0  0  0  0  0  0
   -1.0701   -5.1370    1.8422 H   0  0  0  0  0  0  0  0  0  0  0  0
   -1.3539   -6.6664    0.9916 H   0  0  0  0  0  0  0  0  0  0  0  0
   -6.8945   -5.3863   -0.6587 H   0  0  0  0  0  0  0  0  0  0  0  0
   -6.9223   -3.7963    0.1268 H   0  0  0  0  0  0  0  0  0  0  0  0
   -6.4713   -3.9360   -1.5865 H   0  0  0  0  0  0  0  0  0  0  0  0
   -5.6049   -2.0240   -0.5865 H   0  0  0  0  0  0  0  0  0  0  0  0
   -3.9795   -0.2442   -0.2862 H   0  0  0  0  0  0  0  0  0  0  0  0
    0.2355   -1.5946   -0.3883 H   0  0  0  0  0  0  0  0  0  0  0  0
    2.2084    4.2196   -0.0232 H   0  0  0  0  0  0  0  0  0  0  0  0
    0.9029    3.4710   -0.9503 H   0  0  0  0  0  0  0  0  0  0  0  0
    0.2579    5.6441    0.0764 H   0  0  0  0  0  0  0  0  0  0  0  0
    0.6056    5.0215    1.6716 H   0  0  0  0  0  0  0  0  0  0  0  0
    2.5287   -1.7223    0.0930 H   0  0  0  0  0  0  0  0  0  0  0  0
    2.1342   -1.2662   -1.5717 H   0  0  0  0  0  0  0  0  0  0  0  0
    4.2423    0.0027   -1.7555 H   0  0  0  0  0  0  0  0  0  0  0  0
    4.5611    0.6247    0.6145 H   0  0  0  0  0  0  0  0  0  0  0  0
    4.7893   -1.0725    1.0495 H   0  0  0  0  0  0  0  0  0  0  0  0
    7.0922   -0.3101    1.9166 H   0  0  0  0  0  0  0  0  0  0  0  0
    8.1174    0.5478    0.7567 H   0  0  0  0  0  0  0  0  0  0  0  0
    6.6469    1.3115    1.3606 H   0  0  0  0  0  0  0  0  0  0  0  0
    7.9832   -1.2336   -0.7792 H   0  0  0  0  0  0  0  0  0  0  0  0
    6.8951   -2.1927    0.2237 H   0  0  0  0  0  0  0  0  0  0  0  0
    6.3644   -1.2021   -2.6167 H   0  0  0  0  0  0  0  0  0  0  0  0
    6.6482   -2.8624   -2.1106 H   0  0  0  0  0  0  0  0  0  0  0  0
    4.5650   -2.8727   -0.8001 H   0  0  0  0  0  0  0  0  0  0  0  0
    4.1945   -2.3702   -2.4438 H   0  0  0  0  0  0  0  0  0  0  0  0
 14 13  1  0
 13 12  1  0
 16 17  1  0
 16 15  1  0
 12 15  1  0
 12 11  2  0
 15 18  2  0
 11 10  1  0
  4  3  1  0
 18 19  1  0
  3  2  1  0
 10 19  2  0
 10  9  1  0
  8  9  1  0
  8  7  2  0
  2  1  2  0
  2  5  1  0
  9 20  2  0
  6  7  1  0
  6  5  1  0
  7 22  1  0
  5 25  1  0
 20 21  1  0
 22 21  2  0
 22 23  1  0
 25 24  1  0
 21 26  1  0
 23 24  1  0
 26 27  1  0
 27 28  1  0
 28 34  1  0
 28 29  1  0
 34 33  1  0
 29 30  1  0
 33 32  1  0
 30 31  1  0
 30 32  1  0
  3 35  1  0
  3 36  1  0
  4 37  1  0
  4 38  1  0
  4 39  1  0
  6 40  1  0
  6 41  1  0
  8 42  1  0
 11 43  1  0
 14 44  1  0
 14 45  1  0
 14 46  1  0
 17 47  1  0
 17 48  1  0
 17 49  1  0
 18 50  1  0
 19 51  1  0
 20 52  1  0
 24 53  1  0
 24 54  1  0
 25 55  1  0
 25 56  1  0
 27 57  1  0
 27 58  1  0
 28 59  1  6
 29 60  1  0
 29 61  1  0
 31 62  1  0
 31 63  1  0
 31 64  1  0
 32 65  1  0
 32 66  1  0
 33 67  1  0
 33 68  1  0
 34 69  1  0
 34 70  1  0
M  END
