
     RDKit          3D

 23 24  0  0  0  0  0  0  0  0999 V2000
    3.1876   -0.4108    2.7166 N   0  0  0  0  0  0  0  0  0  0  0  0
    2.0043   -0.2035    2.1290 C   0  0  0  0  0  0  0  0  0  0  0  0
    1.9730   -0.2125    0.7932 N   0  0  0  0  0  0  0  0  0  0  0  0
    0.8019    0.0034    0.2103 C   0  0  0  0  0  0  0  0  0  0  0  0
   -0.3453    0.2505    0.9565 C   0  0  0  0  0  0  0  0  0  0  0  0
   -1.9968    0.6976    0.1719 Br  0  0  0  0  0  0  0  0  0  0  0  0
   -0.2055    0.2304    2.3551 C   0  0  0  0  0  0  0  0  0  0  0  0
   -1.1992    0.4455    3.2013 O   0  0  0  0  0  0  0  0  0  0  0  0
    0.9525   -0.0024    2.9269 N   0  0  0  0  0  0  0  0  0  0  0  0
    0.8101   -0.0159   -1.2702 C   0  0  0  0  0  0  0  0  0  0  0  0
   -0.0035   -0.8904   -1.9862 C   0  0  0  0  0  0  0  0  0  0  0  0
    0.0541   -0.9191   -3.3722 C   0  0  0  0  0  0  0  0  0  0  0  0
    0.9140   -0.0670   -4.0525 C   0  0  0  0  0  0  0  0  0  0  0  0
    1.7306    0.8030   -3.3416 C   0  0  0  0  0  0  0  0  0  0  0  0
    1.6885    0.8200   -1.9551 C   0  0  0  0  0  0  0  0  0  0  0  0
    3.2625   -0.4472    3.7173 H   0  0  0  0  0  0  0  0  0  0  0  0
    4.0004   -0.6128    2.1625 H   0  0  0  0  0  0  0  0  0  0  0  0
   -2.0436    0.5915    2.7547 H   0  0  0  0  0  0  0  0  0  0  0  0
   -0.6679   -1.5679   -1.4647 H   0  0  0  0  0  0  0  0  0  0  0  0
   -0.5721   -1.6103   -3.9207 H   0  0  0  0  0  0  0  0  0  0  0  0
    0.9521   -0.0853   -5.1340 H   0  0  0  0  0  0  0  0  0  0  0  0
    2.4054    1.4659   -3.8672 H   0  0  0  0  0  0  0  0  0  0  0  0
    2.3325    1.4922   -1.4024 H   0  0  0  0  0  0  0  0  0  0  0  0
  1  2  1  0
  1 16  1  0
  1 17  1  0
  2  3  2  0
  2  9  1  0
  3  4  1  0
  4  5  2  0
  4 10  1  0
  5  6  1  0
  5  7  1  0
  7  8  1  0
  7  9  2  0
  8 18  1  0
 10 11  2  0
 10 15  1  0
 11 12  1  0
 11 19  1  0
 12 13  2  0
 12 20  1  0
 13 14  1  0
 13 21  1  0
 14 15  2  0
 14 22  1  0
 15 23  1  0
M  END
