
     RDKit          3D

 49 52  0  0  0  0  0  0  0  0999 V2000
   -4.8495   -0.9939    1.0290 O   0  0  0  0  0  0  0  0  0  0  0  0
    3.4017   -0.3621    0.0228 C   0  0  0  0  0  0  0  0  0  0  0  0
    4.5665    0.5073   -0.1221 C   0  0  0  0  0  0  0  0  0  0  0  0
    2.0941   -0.0013    0.1273 C   0  0  0  0  0  0  0  0  0  0  0  0
   -0.9744   -0.1390    0.3554 N   0  0  0  0  0  0  0  0  0  0  0  0
    5.8453    0.0869    0.2429 C   0  0  0  0  0  0  0  0  0  0  0  0
    6.9372    0.9290    0.0978 C   0  0  0  0  0  0  0  0  0  0  0  0
    6.7944    2.2170   -0.4095 C   0  0  0  0  0  0  0  0  0  0  0  0
    7.9774    3.1204   -0.5900 C   0  0  0  0  0  0  0  0  0  0  0  0
    5.5129    2.6359   -0.7689 C   0  0  0  0  0  0  0  0  0  0  0  0
    4.4199    1.7994   -0.6349 C   0  0  0  0  0  0  0  0  0  0  0  0
    3.6013   -2.0970    0.0520 S   0  0  0  0  0  0  0  0  0  0  0  0
    1.2246   -1.1225    0.2414 C   0  0  0  0  0  0  0  0  0  0  0  0
    1.9017   -2.3377    0.2195 C   0  0  0  0  0  0  0  0  0  0  0  0
    1.3369   -3.5443    0.2953 N   0  0  0  0  0  0  0  0  0  0  0  0
    0.0315   -3.5143    0.4107 C   0  0  0  0  0  0  0  0  0  0  0  0
   -0.7447   -2.4273    0.4470 N   0  0  0  0  0  0  0  0  0  0  0  0
   -0.1827   -1.2211    0.3510 C   0  0  0  0  0  0  0  0  0  0  0  0
   -2.3962   -0.1537    0.0566 C   0  0  1  0  0  0  0  0  0  0  0  0
   -3.3817   -0.5873    1.5541 P   0  0  1  0  0  0  0  0  0  0  0  0
   -3.3677    0.4766    2.5877 O   0  0  0  0  0  0  0  0  0  0  0  0
   -2.8380   -2.0055    2.0120 O   0  0  0  0  0  0  0  0  0  0  0  0
   -2.7798    1.2280   -0.4880 C   0  0  0  0  0  0  0  0  0  0  0  0
   -4.2257    1.3272   -0.8873 C   0  0  0  0  0  0  0  0  0  0  0  0
   -4.6840    0.6873   -2.0372 C   0  0  0  0  0  0  0  0  0  0  0  0
   -6.0230    0.7440   -2.3933 C   0  0  0  0  0  0  0  0  0  0  0  0
   -6.9268    1.4437   -1.6024 C   0  0  0  0  0  0  0  0  0  0  0  0
   -6.4801    2.0916   -0.4593 C   0  0  0  0  0  0  0  0  0  0  0  0
   -5.1365    2.0339   -0.1049 C   0  0  0  0  0  0  0  0  0  0  0  0
   -5.4314   -0.2372    0.8713 H   0  0  0  0  0  0  0  0  0  0  0  0
    1.7705    1.0302    0.1429 H   0  0  0  0  0  0  0  0  0  0  0  0
   -0.5284    0.7649    0.3632 H   0  0  0  0  0  0  0  0  0  0  0  0
    6.0024   -0.9002    0.6620 H   0  0  0  0  0  0  0  0  0  0  0  0
    7.9175    0.5741    0.3914 H   0  0  0  0  0  0  0  0  0  0  0  0
    8.2565    3.1904   -1.6432 H   0  0  0  0  0  0  0  0  0  0  0  0
    7.7622    4.1328   -0.2478 H   0  0  0  0  0  0  0  0  0  0  0  0
    8.8471    2.7567   -0.0443 H   0  0  0  0  0  0  0  0  0  0  0  0
    5.3671    3.6318   -1.1705 H   0  0  0  0  0  0  0  0  0  0  0  0
    3.4453    2.1517   -0.9473 H   0  0  0  0  0  0  0  0  0  0  0  0
   -0.4832   -4.4636    0.4953 H   0  0  0  0  0  0  0  0  0  0  0  0
   -2.5903   -0.9129   -0.7089 H   0  0  0  0  0  0  0  0  0  0  0  0
   -2.1163   -2.3527    1.4064 H   0  0  0  0  0  0  0  0  0  0  0  0
   -2.5486    1.9877    0.2624 H   0  0  0  0  0  0  0  0  0  0  0  0
   -2.1428    1.4268   -1.3535 H   0  0  0  0  0  0  0  0  0  0  0  0
   -3.9869    0.1354   -2.6576 H   0  0  0  0  0  0  0  0  0  0  0  0
   -6.3631    0.2420   -3.2896 H   0  0  0  0  0  0  0  0  0  0  0  0
   -7.9720    1.4865   -1.8790 H   0  0  0  0  0  0  0  0  0  0  0  0
   -7.1746    2.6452    0.1589 H   0  0  0  0  0  0  0  0  0  0  0  0
   -4.7954    2.5410    0.7901 H   0  0  0  0  0  0  0  0  0  0  0  0
 21 20  2  0
 20 22  1  1
 20  1  1  0
 20 19  1  0
 19  5  1  0
 19 23  1  0
  5 18  1  0
 23 24  1  0
 18 17  1  0
 18 13  2  0
 17 16  2  0
 13  4  1  0
 13 14  1  0
 16 15  1  0
  4  2  2  0
 11 10  2  0
 11  3  1  0
 14 15  2  0
 14 12  1  0
 10  8  1  0
  2  3  1  0
  2 12  1  0
  3  6  2  0
  8  9  1  0
  8  7  2  0
 24 29  1  0
 24 25  2  0
  6  7  1  0
 29 28  2  0
 25 26  1  0
 28 27  1  0
 26 27  2  0
  1 30  1  0
  4 31  1  0
  5 32  1  0
  6 33  1  0
  7 34  1  0
  9 35  1  0
  9 36  1  0
  9 37  1  0
 10 38  1  0
 11 39  1  0
 16 40  1  0
 19 41  1  6
 22 42  1  0
 23 43  1  0
 23 44  1  0
 25 45  1  0
 26 46  1  0
 27 47  1  0
 28 48  1  0
 29 49  1  0
M  END
