
     RDKit          3D

 24 25  0  0  0  0  0  0  0  0999 V2000
    2.5445    1.6520   -0.1922 Br  0  0  0  0  0  0  0  0  0  0  0  0
   -3.3835    1.9074    0.4439 N   0  0  0  0  0  0  0  0  0  0  0  0
   -3.5586    0.3299   -1.1666 O   0  0  0  0  0  0  0  0  0  0  0  0
   -0.9089   -3.2217   -0.0703 N   0  0  0  0  0  0  0  0  0  0  0  0
   -2.0790   -2.6750    0.3732 C   0  0  0  0  0  0  0  0  0  0  0  0
   -1.9252   -1.3335    0.5747 C   0  0  0  0  0  0  0  0  0  0  0  0
   -0.5697   -1.0339    0.2313 C   0  0  0  0  0  0  0  0  0  0  0  0
    0.1780    0.1478    0.2266 C   0  0  0  0  0  0  0  0  0  0  0  0
    1.4964    0.0730   -0.1710 C   0  0  0  0  0  0  0  0  0  0  0  0
    2.0979   -1.1321   -0.5649 C   0  0  0  0  0  0  0  0  0  0  0  0
    1.3687   -2.3049   -0.5663 C   0  0  0  0  0  0  0  0  0  0  0  0
    0.0359   -2.2455   -0.1677 C   0  0  0  0  0  0  0  0  0  0  0  0
   -3.3352    0.6392   -0.0124 C   0  0  0  0  0  0  0  0  0  0  0  0
   -3.9402    2.8800   -0.3324 O   0  0  0  0  0  0  0  0  0  0  0  0
   -3.3836    2.1149    1.4328 H   0  0  0  0  0  0  0  0  0  0  0  0
   -0.7707   -4.1966   -0.2770 H   0  0  0  0  0  0  0  0  0  0  0  0
   -2.9520   -3.2919    0.5187 H   0  0  0  0  0  0  0  0  0  0  0  0
   -0.2691    1.0876    0.5258 H   0  0  0  0  0  0  0  0  0  0  0  0
    3.1354   -1.1521   -0.8696 H   0  0  0  0  0  0  0  0  0  0  0  0
    1.8288   -3.2364   -0.8690 H   0  0  0  0  0  0  0  0  0  0  0  0
   -3.8604   -0.8977    1.3414 H   0  0  0  0  0  0  0  0  0  0  0  0
   -2.6006    0.1421    1.9622 H   0  0  0  0  0  0  0  0  0  0  0  0
   -3.2017    3.3650   -0.7216 H   0  0  0  0  0  0  0  0  0  0  0  0
   -2.9478   -0.3661    1.0580 C   0  0  0  0  0  0  0  0  0  0  0  0
  1  9  1  0
  2 13  1  0
  2 14  1  0
  3 13  2  0
  4  5  1  0
  4 12  1  0
  5  6  2  0
  6  7  1  0
  6 24  1  0
  7  8  1  0
  7 12  2  0
  8  9  2  0
  9 10  1  0
 10 11  2  0
 11 12  1  0
 24 13  1  0
  2 15  1  0
  4 16  1  0
  5 17  1  0
  8 18  1  0
 10 19  1  0
 11 20  1  0
 24 21  1  0
 24 22  1  0
 14 23  1  0
M  END
