
     RDKit          3D

 25 25  0  0  0  0  0  0  0  0999 V2000
   -1.6152    0.1256   -0.6451 C   0  0  2  0  0  0  0  0  0  0  0  0
   -0.4119    0.5753   -1.4785 C   0  0  1  0  0  0  0  0  0  0  0  0
    0.8214   -0.1935   -1.0449 C   0  0  2  0  0  0  0  0  0  0  0  0
    1.1607    0.1883    0.3923 C   0  0  1  0  0  0  0  0  0  0  0  0
   -0.0453    0.1516    1.3000 C   0  0  0  0  0  0  0  0  0  0  0  0
    0.2684    0.1834    2.7666 C   0  0  0  0  0  0  0  0  0  0  0  0
   -1.2852    0.1508    0.8192 C   0  0  0  0  0  0  0  0  0  0  0  0
   -2.0236   -1.2242   -1.0269 N   0  0  0  0  0  0  0  0  0  0  0  0
   -0.6199    0.3730   -2.8555 O   0  0  0  0  0  0  0  0  0  0  0  0
    1.8909    0.1123   -1.9069 O   0  0  0  0  0  0  0  0  0  0  0  0
    2.1815   -0.6913    0.8360 O   0  0  0  0  0  0  0  0  0  0  0  0
   -0.8954    0.3862    3.5250 O   0  0  0  0  0  0  0  0  0  0  0  0
   -2.4204    0.8589   -0.8144 H   0  0  0  0  0  0  0  0  0  0  0  0
   -0.2461    1.6438   -1.2674 H   0  0  0  0  0  0  0  0  0  0  0  0
    0.5891   -1.2684   -1.0711 H   0  0  0  0  0  0  0  0  0  0  0  0
    1.5416    1.2204    0.3814 H   0  0  0  0  0  0  0  0  0  0  0  0
    0.7645   -0.7566    3.0402 H   0  0  0  0  0  0  0  0  0  0  0  0
    1.0090    0.9789    2.9450 H   0  0  0  0  0  0  0  0  0  0  0  0
   -2.1296    0.1525    1.4988 H   0  0  0  0  0  0  0  0  0  0  0  0
   -2.7806   -1.5249   -0.4249 H   0  0  0  0  0  0  0  0  0  0  0  0
   -2.4095   -1.2056   -1.9628 H   0  0  0  0  0  0  0  0  0  0  0  0
   -1.3334    0.9553   -3.1357 H   0  0  0  0  0  0  0  0  0  0  0  0
    2.6632   -0.3663   -1.5872 H   0  0  0  0  0  0  0  0  0  0  0  0
    2.8279   -0.1942    1.3439 H   0  0  0  0  0  0  0  0  0  0  0  0
   -0.6650    0.2879    4.4529 H   0  0  0  0  0  0  0  0  0  0  0  0
  1  2  1  0
  1  7  1  0
  1  8  1  0
  1 13  1  1
  2  3  1  0
  2  9  1  0
  2 14  1  6
  3  4  1  0
  3 10  1  0
  3 15  1  1
  4  5  1  0
  4 11  1  0
  4 16  1  6
  5  6  1  0
  5  7  2  0
  6 12  1  0
  6 17  1  0
  6 18  1  0
  7 19  1  0
  8 20  1  0
  8 21  1  0
  9 22  1  0
 10 23  1  0
 11 24  1  0
 12 25  1  0
M  END
