
     RDKit          3D

 21 22  0  0  0  0  0  0  0  0999 V2000
    4.2354    0.7510    0.1320 O   0  0  0  0  0  0  0  0  0  0  0  0
    3.3927   -0.2704    0.0692 C   0  0  0  0  0  0  0  0  0  0  0  0
    1.9752    0.1518    0.0060 C   0  0  0  0  0  0  0  0  0  0  0  0
    3.7506   -1.4246    0.0627 O   0  0  0  0  0  0  0  0  0  0  0  0
    1.5857    1.4907    0.0383 C   0  0  0  0  0  0  0  0  0  0  0  0
    0.2474    1.8286   -0.0164 C   0  0  0  0  0  0  0  0  0  0  0  0
    0.9999   -0.8375   -0.0776 C   0  0  0  0  0  0  0  0  0  0  0  0
   -0.3412   -0.5042   -0.1501 C   0  0  0  0  0  0  0  0  0  0  0  0
   -0.7288    0.8407   -0.1244 C   0  0  0  0  0  0  0  0  0  0  0  0
   -2.0622    1.2025   -0.2438 N   0  0  0  0  0  0  0  0  0  0  0  0
   -3.1546    0.4441    0.0602 C   0  0  0  0  0  0  0  0  0  0  0  0
   -2.8593   -0.9286    0.6089 C   0  0  0  0  0  0  0  0  0  0  0  0
   -1.5652   -1.7471   -0.3492 S   0  0  0  0  0  0  0  0  0  0  0  0
   -4.2818    0.8724   -0.0700 O   0  0  0  0  0  0  0  0  0  0  0  0
    5.1474    0.4264    0.1678 H   0  0  0  0  0  0  0  0  0  0  0  0
    2.3173    2.2821    0.1142 H   0  0  0  0  0  0  0  0  0  0  0  0
   -0.0472    2.8700    0.0163 H   0  0  0  0  0  0  0  0  0  0  0  0
    1.2877   -1.8809   -0.0918 H   0  0  0  0  0  0  0  0  0  0  0  0
   -2.2546    2.1650   -0.4888 H   0  0  0  0  0  0  0  0  0  0  0  0
   -2.5585   -0.8533    1.6569 H   0  0  0  0  0  0  0  0  0  0  0  0
   -3.7536   -1.5449    0.5503 H   0  0  0  0  0  0  0  0  0  0  0  0
  1  2  1  0
  4  2  2  0
  2  3  1  0
  5  3  2  0
  3  7  1  0
  1 15  1  0
  5  6  1  0
  5 16  1  0
  6  9  2  0
  6 17  1  0
  7  8  2  0
  7 18  1  0
  9  8  1  0
  8 13  1  0
  9 10  1  0
 10 11  1  0
 10 19  1  0
 12 11  1  0
 11 14  2  0
 13 12  1  0
 12 20  1  0
 12 21  1  0
M  END
