
     RDKit          3D

 31 33  0  0  0  0  0  0  0  0999 V2000
   -3.5750   -0.1089   -0.9674 C   0  0  0  0  0  0  0  0  0  0  0  0
   -3.9090    1.8025    1.0175 C   0  0  0  0  0  0  0  0  0  0  0  0
   -1.6718   -2.2952    0.1921 C   0  0  0  0  0  0  0  0  0  0  0  0
    0.6921   -2.7059    0.2217 C   0  0  0  0  0  0  0  0  0  0  0  0
    2.4674    0.5954   -0.1002 C   0  0  0  0  0  0  0  0  0  0  0  0
    1.3403    1.3733   -0.1847 C   0  0  0  0  0  0  0  0  0  0  0  0
   -0.1492   -0.4588    0.0338 C   0  0  0  0  0  0  0  0  0  0  0  0
   -1.4735   -0.9300    0.0942 C   0  0  0  0  0  0  0  0  0  0  0  0
   -2.6292   -0.0055    0.0521 C   0  0  0  0  0  0  0  0  0  0  0  0
   -4.6761    0.7347   -0.9930 C   0  0  0  0  0  0  0  0  0  0  0  0
   -4.8445    1.6935   -0.0023 C   0  0  0  0  0  0  0  0  0  0  0  0
   -2.8083    0.9572    1.0464 C   0  0  0  0  0  0  0  0  0  0  0  0
   -0.5981   -3.1840    0.2555 C   0  0  0  0  0  0  0  0  0  0  0  0
    0.9391   -1.3343    0.1059 C   0  0  0  0  0  0  0  0  0  0  0  0
    2.3341   -0.8429    0.0543 C   0  0  0  0  0  0  0  0  0  0  0  0
    0.1082    0.8851   -0.1193 N   0  0  0  0  0  0  0  0  0  0  0  0
    3.8156    2.5259   -0.3293 O   0  0  0  0  0  0  0  0  0  0  0  0
    4.8220    0.5587   -0.0960 O   0  0  0  0  0  0  0  0  0  0  0  0
    3.2679   -1.6304    0.1364 O   0  0  0  0  0  0  0  0  0  0  0  0
   -3.4432   -0.8495   -1.7461 H   0  0  0  0  0  0  0  0  0  0  0  0
   -4.0381    2.5402    1.7984 H   0  0  0  0  0  0  0  0  0  0  0  0
   -2.6850   -2.6739    0.2378 H   0  0  0  0  0  0  0  0  0  0  0  0
    1.5290   -3.3877    0.2797 H   0  0  0  0  0  0  0  0  0  0  0  0
    1.4041    2.4444   -0.3110 H   0  0  0  0  0  0  0  0  0  0  0  0
   -5.4025    0.6438   -1.7898 H   0  0  0  0  0  0  0  0  0  0  0  0
   -5.7038    2.3508   -0.0240 H   0  0  0  0  0  0  0  0  0  0  0  0
   -2.0979    1.0318    1.8613 H   0  0  0  0  0  0  0  0  0  0  0  0
   -0.7841   -4.2460    0.3399 H   0  0  0  0  0  0  0  0  0  0  0  0
    5.6082    1.1213   -0.1635 H   0  0  0  0  0  0  0  0  0  0  0  0
   -0.6656    1.5271   -0.2131 H   0  0  0  0  0  0  0  0  0  0  0  0
    3.7449    1.3231   -0.1869 C   0  0  0  0  0  0  0  0  0  0  0  0
 17 31  2  0
 18 31  1  0
 31  5  1  0
  6  5  2  0
  6 16  1  0
  5 15  1  0
 16  7  1  0
 15 19  2  0
 15 14  1  0
  2 12  2  0
  2 11  1  0
  7 14  2  0
  7  8  1  0
 12  9  1  0
 11 10  2  0
 14  4  1  0
  9  8  1  0
  9  1  2  0
  8  3  2  0
 10  1  1  0
  4 13  2  0
  3 13  1  0
  1 20  1  0
  2 21  1  0
  3 22  1  0
  4 23  1  0
  6 24  1  0
 10 25  1  0
 11 26  1  0
 12 27  1  0
 13 28  1  0
 18 29  1  0
 16 30  1  0
M  END
