
     RDKit          3D

 68 71  0  0  0  0  0  0  0  0999 V2000
    0.0165   -3.1371   -1.4201 C   0  0  0  0  0  0  0  0  0  0  0  0
    1.1435   -2.9495   -0.6695 C   0  0  0  0  0  0  0  0  0  0  0  0
    1.1844   -1.9465    0.3229 C   0  0  0  0  0  0  0  0  0  0  0  0
    0.0788   -1.1756    0.5659 C   0  0  0  0  0  0  0  0  0  0  0  0
   -1.1124   -1.3709   -0.1679 C   0  0  0  0  0  0  0  0  0  0  0  0
   -1.1362   -2.3596   -1.1839 C   0  0  0  0  0  0  0  0  0  0  0  0
   -3.2997   -0.7659   -0.5108 C   0  0  0  0  0  0  0  0  0  0  0  0
   -3.4272   -1.7041   -1.5678 C   0  0  0  0  0  0  0  0  0  0  0  0
   -2.3576   -2.4833   -1.8883 C   0  0  0  0  0  0  0  0  0  0  0  0
   -4.4453    0.0774   -0.1158 C   0  0  0  0  0  0  0  0  0  0  0  0
   -4.2351    1.2765    0.5621 C   0  0  0  0  0  0  0  0  0  0  0  0
   -5.2994    2.0729    0.9558 C   0  0  0  0  0  0  0  0  0  0  0  0
   -6.6133    1.6924    0.6945 C   0  0  0  0  0  0  0  0  0  0  0  0
   -6.8212    0.4901    0.0195 C   0  0  0  0  0  0  0  0  0  0  0  0
   -5.7609   -0.3028   -0.3819 C   0  0  0  0  0  0  0  0  0  0  0  0
   -7.8035    2.5265    1.1335 C   0  0  1  0  0  0  0  0  0  0  0  0
   -8.6751    2.8803   -0.0746 C   0  0  0  0  0  0  0  0  0  0  0  0
   -8.6205    1.7459    2.1681 C   0  0  0  0  0  0  0  0  0  0  0  0
    2.3980   -1.8430    1.1937 C   0  0  0  0  0  0  0  0  0  0  0  0
    4.0748   -0.4186    2.2394 C   0  0  0  0  0  0  0  0  0  0  0  0
    5.4089   -0.2266    1.5261 C   0  0  1  0  0  0  0  0  0  0  0  0
    4.1402    0.6904   -0.3882 C   0  0  0  0  0  0  0  0  0  0  0  0
    2.8430    0.4663    0.3749 C   0  0  0  0  0  0  0  0  0  0  0  0
    6.3091    1.6603    0.3042 C   0  0  0  0  0  0  0  0  0  0  0  0
    5.9512   -1.5161    0.9205 C   0  0  0  0  0  0  0  0  0  0  0  0
    7.1372    3.4028   -1.0628 C   0  0  0  0  0  0  0  0  0  0  0  0
    6.7522    4.0934   -2.3537 C   0  0  0  0  0  0  0  0  0  0  0  0
    7.7935    5.1342   -2.7418 C   0  0  0  0  0  0  0  0  0  0  0  0
   -2.1783   -0.6073    0.1457 N   0  0  0  0  0  0  0  0  0  0  0  0
    2.9881   -0.6362    1.3053 N   0  0  0  0  0  0  0  0  0  0  0  0
    5.2636    0.8267    0.5238 N   0  0  0  0  0  0  0  0  0  0  0  0
   -7.2919    3.7084    1.7165 O   0  0  0  0  0  0  0  0  0  0  0  0
    2.7740   -2.8368    1.7977 O   0  0  0  0  0  0  0  0  0  0  0  0
    6.1180    2.4482   -0.7524 O   0  0  0  0  0  0  0  0  0  0  0  0
    7.3095    1.7006    0.9942 O   0  0  0  0  0  0  0  0  0  0  0  0
    0.0091   -3.8947   -2.1912 H   0  0  0  0  0  0  0  0  0  0  0  0
    2.0145   -3.5662   -0.8482 H   0  0  0  0  0  0  0  0  0  0  0  0
    0.0800   -0.4113    1.3333 H   0  0  0  0  0  0  0  0  0  0  0  0
   -4.3494   -1.7888   -2.1241 H   0  0  0  0  0  0  0  0  0  0  0  0
   -2.4961   -3.6252   -3.1707 Cl  0  0  0  0  0  0  0  0  0  0  0  0
   -3.2248    1.5964    0.7794 H   0  0  0  0  0  0  0  0  0  0  0  0
   -5.0882    2.9980    1.4722 H   0  0  0  0  0  0  0  0  0  0  0  0
   -7.8271    0.1536   -0.1988 H   0  0  0  0  0  0  0  0  0  0  0  0
   -5.9783   -1.2371   -0.8836 H   0  0  0  0  0  0  0  0  0  0  0  0
   -9.0825    1.9911   -0.5546 H   0  0  0  0  0  0  0  0  0  0  0  0
   -9.5220    3.4963    0.2375 H   0  0  0  0  0  0  0  0  0  0  0  0
   -8.1032    3.4352   -0.8193 H   0  0  0  0  0  0  0  0  0  0  0  0
   -8.0191    1.5211    3.0499 H   0  0  0  0  0  0  0  0  0  0  0  0
   -9.4891    2.3279    2.4851 H   0  0  0  0  0  0  0  0  0  0  0  0
   -8.9903    0.8038    1.7632 H   0  0  0  0  0  0  0  0  0  0  0  0
    4.1430   -1.2508    2.9347 H   0  0  0  0  0  0  0  0  0  0  0  0
    3.8461    0.4818    2.8177 H   0  0  0  0  0  0  0  0  0  0  0  0
    6.1114    0.1258    2.2802 H   0  0  0  0  0  0  0  0  0  0  0  0
    4.2995   -0.1462   -1.0774 H   0  0  0  0  0  0  0  0  0  0  0  0
    4.0313    1.5882   -0.9891 H   0  0  0  0  0  0  0  0  0  0  0  0
    2.5768    1.3705    0.9302 H   0  0  0  0  0  0  0  0  0  0  0  0
    2.0489    0.2748   -0.3420 H   0  0  0  0  0  0  0  0  0  0  0  0
    6.9293   -1.3447    0.4710 H   0  0  0  0  0  0  0  0  0  0  0  0
    6.0694   -2.2763    1.6931 H   0  0  0  0  0  0  0  0  0  0  0  0
    5.2949   -1.9264    0.1520 H   0  0  0  0  0  0  0  0  0  0  0  0
    8.1022    2.9023   -1.1734 H   0  0  0  0  0  0  0  0  0  0  0  0
    7.2266    4.1297   -0.2508 H   0  0  0  0  0  0  0  0  0  0  0  0
    6.6554    3.3515   -3.1503 H   0  0  0  0  0  0  0  0  0  0  0  0
    5.7757    4.5707   -2.2408 H   0  0  0  0  0  0  0  0  0  0  0  0
    7.8838    5.9120   -1.9819 H   0  0  0  0  0  0  0  0  0  0  0  0
    8.7782    4.6823   -2.8715 H   0  0  0  0  0  0  0  0  0  0  0  0
    7.5274    5.6193   -3.6802 H   0  0  0  0  0  0  0  0  0  0  0  0
   -8.0373    4.2433    2.0099 H   0  0  0  0  0  0  0  0  0  0  0  0
  9  8  2  0
  9  6  1  0
  1  6  2  0
  1  2  1  0
  8  7  1  0
  6  5  1  0
  2  3  2  0
 25 21  1  0
 15 14  2  0
 15 10  1  0
  7 10  1  0
  7 29  2  0
  5 29  1  0
  5  4  2  0
  3  4  1  0
  3 19  1  0
 14 13  1  0
 10 11  2  0
 19 33  2  0
 19 30  1  0
 27 28  1  0
 27 26  1  0
 21 31  1  0
 21 20  1  0
 18 16  1  0
 35 24  2  0
 13 16  1  0
 13 12  2  0
 11 12  1  0
 31 24  1  0
 31 22  1  0
 24 34  1  0
 20 30  1  0
 22 23  1  0
 30 23  1  0
 16 32  1  1
 16 17  1  0
 26 34  1  0
  1 36  1  0
  2 37  1  0
  4 38  1  0
  8 39  1  0
  9 40  1  0
 11 41  1  0
 12 42  1  0
 14 43  1  0
 15 44  1  0
 17 45  1  0
 17 46  1  0
 17 47  1  0
 18 48  1  0
 18 49  1  0
 18 50  1  0
 20 51  1  0
 20 52  1  0
 21 53  1  1
 22 54  1  0
 22 55  1  0
 23 56  1  0
 23 57  1  0
 25 58  1  0
 25 59  1  0
 25 60  1  0
 26 61  1  0
 26 62  1  0
 27 63  1  0
 27 64  1  0
 28 65  1  0
 28 66  1  0
 28 67  1  0
 32 68  1  0
M  END
