
     RDKit          3D

 21 21  0  0  0  0  0  0  0  0999 V2000
   -1.6557   -1.6397    0.3519 C   0  0  0  0  0  0  0  0  0  0  0  0
   -2.5863    0.5759    0.3012 C   0  0  0  0  0  0  0  0  0  0  0  0
    4.3182   -1.4294   -0.8999 O   0  0  0  0  0  0  0  0  0  0  0  0
    3.9577   -0.9095    0.1222 C   0  0  0  0  0  0  0  0  0  0  0  0
    4.5688   -0.9654    1.2793 O   0  0  0  0  0  0  0  0  0  0  0  0
    2.6775   -0.0716    0.2242 C   0  0  0  0  0  0  0  0  0  0  0  0
    2.3458    0.4848    1.2441 O   0  0  0  0  0  0  0  0  0  0  0  0
    1.9910   -0.0432   -0.9332 N   0  0  0  0  0  0  0  0  0  0  0  0
    0.8463    0.6896   -1.0591 N   0  0  0  0  0  0  0  0  0  0  0  0
   -0.3130    0.1980   -0.4772 C   0  0  0  0  0  0  0  0  0  0  0  0
   -0.4730   -1.1548   -0.1771 C   0  0  0  0  0  0  0  0  0  0  0  0
   -2.7085   -0.7719    0.5907 C   0  0  0  0  0  0  0  0  0  0  0  0
   -4.1915   -1.3704    1.2555 Cl  0  0  0  0  0  0  0  0  0  0  0  0
   -1.3968    1.0447   -0.2283 C   0  0  0  0  0  0  0  0  0  0  0  0
   -1.2572    2.7351   -0.5884 Cl  0  0  0  0  0  0  0  0  0  0  0  0
   -1.7486   -2.6938    0.5730 H   0  0  0  0  0  0  0  0  0  0  0  0
   -3.4018    1.2613    0.4864 H   0  0  0  0  0  0  0  0  0  0  0  0
    5.3783   -1.4963    1.2123 H   0  0  0  0  0  0  0  0  0  0  0  0
    2.3464   -0.4906   -1.7652 H   0  0  0  0  0  0  0  0  0  0  0  0
    0.9983    1.6857   -0.9811 H   0  0  0  0  0  0  0  0  0  0  0  0
    0.3370   -1.8468   -0.3630 H   0  0  0  0  0  0  0  0  0  0  0  0
 13 12  1  0
  1 12  2  0
  1 11  1  0
 12  2  1  0
 11 10  2  0
  7  6  2  0
  2 14  2  0
  8  6  1  0
  8  9  1  0
 10 14  1  0
 10  9  1  0
  6  4  1  0
  3  4  2  0
 14 15  1  0
  4  5  1  0
  1 16  1  0
  2 17  1  0
  5 18  1  0
  8 19  1  0
  9 20  1  0
 11 21  1  0
M  END
