
     RDKit          3D

 53 55  0  0  0  0  0  0  0  0999 V2000
   -1.6078   -3.4837   -1.0456 O   0  0  0  0  0  0  0  0  0  0  0  0
   -2.0993   -2.1132   -0.9050 S   0  0  1  0  0  0  0  0  0  0  0  0
   -2.1958   -1.2774   -2.1022 O   0  0  0  0  0  0  0  0  0  0  0  0
   -3.6925   -2.1715   -0.1293 C   0  0  0  0  0  0  0  0  0  0  0  0
   -4.6785   -1.2716   -0.5085 C   0  0  0  0  0  0  0  0  0  0  0  0
   -5.9161   -1.3317    0.1164 C   0  0  0  0  0  0  0  0  0  0  0  0
   -6.1537   -2.2776    1.1041 C   0  0  0  0  0  0  0  0  0  0  0  0
   -5.1577   -3.1746    1.4716 C   0  0  0  0  0  0  0  0  0  0  0  0
   -3.9193   -3.1296    0.8517 C   0  0  0  0  0  0  0  0  0  0  0  0
   -1.0495   -1.2856    0.2948 C   0  0  2  0  0  0  0  0  0  0  0  0
   -1.4258    0.1915    0.5012 C   0  0  0  0  0  0  0  0  0  0  0  0
    0.4063   -1.3102   -0.2104 C   0  0  0  0  0  0  0  0  0  0  0  0
    0.9188    0.1010    0.1065 C   0  0  2  0  0  0  0  0  0  0  0  0
   -0.3024    0.9728   -0.1820 C   0  0  2  0  0  0  0  0  0  0  0  0
   -0.1431    2.3757    0.3622 C   0  0  0  0  0  0  0  0  0  0  0  0
   -0.2771    3.3618   -0.5376 N   0  0  0  0  0  0  0  0  0  0  0  0
   -0.0606    4.7540   -0.2223 C   0  0  0  0  0  0  0  0  0  0  0  0
    1.3898    5.1293   -0.3363 C   0  0  0  0  0  0  0  0  0  0  0  0
    1.7527    6.1512   -0.9819 N   0  0  0  0  0  0  0  0  0  0  0  0
    0.0848    2.5798    1.5471 O   0  0  0  0  0  0  0  0  0  0  0  0
    2.1422    0.4897   -0.7043 C   0  0  0  0  0  0  0  0  0  0  0  0
    2.0313    1.2495   -1.6577 O   0  0  0  0  0  0  0  0  0  0  0  0
    3.3254   -0.0500   -0.3457 N   0  0  0  0  0  0  0  0  0  0  0  0
    4.5418    0.2437   -1.0861 C   0  0  0  0  0  0  0  0  0  0  0  0
    5.6039    0.7702   -0.1369 C   0  0  0  0  0  0  0  0  0  0  0  0
    5.8396   -0.1265    0.9265 O   0  0  0  0  0  0  0  0  0  0  0  0
    4.6615   -0.3711    1.6592 C   0  0  0  0  0  0  0  0  0  0  0  0
    3.5612   -0.9404    0.7781 C   0  0  0  0  0  0  0  0  0  0  0  0
    2.0843    4.4623    0.1820 H   0  0  0  0  0  0  0  0  0  0  0  0
   -1.1548   -1.8623    1.2154 H   0  0  0  0  0  0  0  0  0  0  0  0
   -4.4961   -0.5384   -1.2824 H   0  0  0  0  0  0  0  0  0  0  0  0
   -3.1483   -3.8360    1.1304 H   0  0  0  0  0  0  0  0  0  0  0  0
   -6.6946   -0.6386   -0.1724 H   0  0  0  0  0  0  0  0  0  0  0  0
   -7.1202   -2.3191    1.5885 H   0  0  0  0  0  0  0  0  0  0  0  0
   -5.3453   -3.9147    2.2376 H   0  0  0  0  0  0  0  0  0  0  0  0
   -2.4086    0.4633    0.1163 H   0  0  0  0  0  0  0  0  0  0  0  0
   -1.4359    0.3992    1.5710 H   0  0  0  0  0  0  0  0  0  0  0  0
    0.9799   -2.1013    0.2671 H   0  0  0  0  0  0  0  0  0  0  0  0
    0.4598   -1.4755   -1.2897 H   0  0  0  0  0  0  0  0  0  0  0  0
   -0.4824    0.9963   -1.2590 H   0  0  0  0  0  0  0  0  0  0  0  0
    1.1300    0.1741    1.1776 H   0  0  0  0  0  0  0  0  0  0  0  0
   -0.3576    3.1134   -1.5101 H   0  0  0  0  0  0  0  0  0  0  0  0
   -0.6531    5.3711   -0.8961 H   0  0  0  0  0  0  0  0  0  0  0  0
   -0.4064    4.9468    0.7950 H   0  0  0  0  0  0  0  0  0  0  0  0
    2.7621    6.2603   -0.9388 H   0  0  0  0  0  0  0  0  0  0  0  0
    4.8947   -0.6720   -1.5722 H   0  0  0  0  0  0  0  0  0  0  0  0
    4.3393    0.9780   -1.8610 H   0  0  0  0  0  0  0  0  0  0  0  0
    2.6643   -1.0740    1.3761 H   0  0  0  0  0  0  0  0  0  0  0  0
    3.8526   -1.9264    0.4020 H   0  0  0  0  0  0  0  0  0  0  0  0
    6.5462    0.8999   -0.6706 H   0  0  0  0  0  0  0  0  0  0  0  0
    5.2930    1.7518    0.2478 H   0  0  0  0  0  0  0  0  0  0  0  0
    4.9057   -1.0830    2.4488 H   0  0  0  0  0  0  0  0  0  0  0  0
    4.3005    0.5527    2.1331 H   0  0  0  0  0  0  0  0  0  0  0  0
  1  2  2  0
  2  3  2  0
  2  4  1  1
  2 10  1  0
  4  5  2  0
  4  9  1  0
  5  6  1  0
  6  7  2  0
  7  8  1  0
  8  9  2  0
 10 11  1  0
 10 12  1  0
 11 14  1  0
 12 13  1  0
 13 14  1  0
 13 21  1  0
 14 15  1  0
 15 16  1  0
 15 20  2  0
 16 17  1  0
 17 18  1  0
 18 19  2  0
 18 29  1  0
 21 22  2  0
 21 23  1  0
 23 24  1  0
 23 28  1  0
 24 25  1  0
 25 26  1  0
 26 27  1  0
 27 28  1  0
 10 30  1  1
  5 31  1  0
  9 32  1  0
  6 33  1  0
  7 34  1  0
  8 35  1  0
 11 36  1  0
 11 37  1  0
 12 38  1  0
 12 39  1  0
 14 40  1  6
 13 41  1  1
 16 42  1  0
 17 43  1  0
 17 44  1  0
 19 45  1  0
 24 46  1  0
 24 47  1  0
 28 48  1  0
 28 49  1  0
 25 50  1  0
 25 51  1  0
 27 52  1  0
 27 53  1  0
M  END
