
     RDKit          3D

 42 44  0  0  0  0  0  0  0  0999 V2000
   -6.3427   -1.4566    0.0405 C   0  0  0  0  0  0  0  0  0  0  0  0
   -5.9614   -2.7827    0.0169 C   0  0  0  0  0  0  0  0  0  0  0  0
   -4.6112   -3.1279    0.0085 C   0  0  0  0  0  0  0  0  0  0  0  0
   -3.6500   -2.1383    0.0216 C   0  0  0  0  0  0  0  0  0  0  0  0
   -4.0091   -0.7859    0.0396 C   0  0  0  0  0  0  0  0  0  0  0  0
   -5.3668   -0.4654    0.0501 C   0  0  0  0  0  0  0  0  0  0  0  0
   -5.8024    0.8112    0.0702 O   0  0  0  0  0  0  0  0  0  0  0  0
   -4.9476    1.8812    0.0730 C   0  0  0  0  0  0  0  0  0  0  0  0
   -3.5546    1.6025    0.0589 C   0  0  0  0  0  0  0  0  0  0  0  0
   -3.0571    0.3203    0.0492 C   0  0  0  0  0  0  0  0  0  0  0  0
   -5.4700    2.9756    0.0856 O   0  0  0  0  0  0  0  0  0  0  0  0
   -1.7490    0.0587    0.0540 N   0  0  0  0  0  0  0  0  0  0  0  0
   -0.7234    1.0774    0.0511 C   0  0  0  0  0  0  0  0  0  0  0  0
    0.6504    0.4454    0.1957 C   0  0  0  0  0  0  0  0  0  0  0  0
    1.7410    1.5100    0.1845 C   0  0  0  0  0  0  0  0  0  0  0  0
    3.0638    0.9433    0.3884 N   0  0  0  0  0  0  0  0  0  0  0  0
    3.8064    0.6195   -0.6910 C   0  0  0  0  0  0  0  0  0  0  0  0
    5.0752   -0.1330   -0.5014 C   0  0  0  0  0  0  0  0  0  0  0  0
    5.2636   -1.5206    0.5053 S   0  0  0  0  0  0  0  0  0  0  0  0
    6.8549   -1.7881   -0.0526 C   0  0  0  0  0  0  0  0  0  0  0  0
    7.2329   -0.8532   -0.9691 C   0  0  0  0  0  0  0  0  0  0  0  0
    6.2053    0.0829   -1.2403 C   0  0  0  0  0  0  0  0  0  0  0  0
    3.4829    0.9282   -1.8316 O   0  0  0  0  0  0  0  0  0  0  0  0
    3.4699    0.7372    1.7665 C   0  0  0  0  0  0  0  0  0  0  0  0
   -7.3885   -1.1780    0.0490 H   0  0  0  0  0  0  0  0  0  0  0  0
   -6.7186   -3.5549    0.0071 H   0  0  0  0  0  0  0  0  0  0  0  0
   -4.3145   -4.1675   -0.0079 H   0  0  0  0  0  0  0  0  0  0  0  0
   -2.6097   -2.4370    0.0169 H   0  0  0  0  0  0  0  0  0  0  0  0
   -2.8989    2.4604    0.0517 H   0  0  0  0  0  0  0  0  0  0  0  0
   -1.4397   -0.8952   -0.0217 H   0  0  0  0  0  0  0  0  0  0  0  0
   -0.7743    1.6634   -0.8740 H   0  0  0  0  0  0  0  0  0  0  0  0
   -0.8981    1.7740    0.8770 H   0  0  0  0  0  0  0  0  0  0  0  0
    0.6909   -0.1237    1.1287 H   0  0  0  0  0  0  0  0  0  0  0  0
    0.8211   -0.2587   -0.6233 H   0  0  0  0  0  0  0  0  0  0  0  0
    1.7236    2.0584   -0.7557 H   0  0  0  0  0  0  0  0  0  0  0  0
    1.5621    2.2356    0.9800 H   0  0  0  0  0  0  0  0  0  0  0  0
    7.4285   -2.6197    0.3274 H   0  0  0  0  0  0  0  0  0  0  0  0
    8.2053   -0.8374   -1.4392 H   0  0  0  0  0  0  0  0  0  0  0  0
    6.2968    0.8895   -1.9536 H   0  0  0  0  0  0  0  0  0  0  0  0
    3.1400   -0.2234    2.1674 H   0  0  0  0  0  0  0  0  0  0  0  0
    4.5480    0.8134    1.8768 H   0  0  0  0  0  0  0  0  0  0  0  0
    3.0277    1.5214    2.3789 H   0  0  0  0  0  0  0  0  0  0  0  0
  1  2  2  0
  1  6  1  0
  2  3  1  0
  7  6  1  0
  7  8  1  0
  6  5  2  0
 11  8  2  0
  8  9  1  0
  3  4  2  0
  5  4  1  0
  5 10  1  0
  9 10  2  0
 10 12  1  0
 12 13  1  0
 13 14  1  0
 21 22  1  0
 21 20  2  0
 14 15  1  0
 22 18  2  0
 20 19  1  0
 15 16  1  0
 18 19  1  0
 18 17  1  0
 16 17  1  0
 16 24  1  0
 17 23  2  0
  1 25  1  0
  2 26  1  0
  3 27  1  0
  4 28  1  0
  9 29  1  0
 12 30  1  0
 13 31  1  0
 13 32  1  0
 14 33  1  0
 14 34  1  0
 15 35  1  0
 15 36  1  0
 20 37  1  0
 21 38  1  0
 22 39  1  0
 24 40  1  0
 24 41  1  0
 24 42  1  0
M  END
