
     RDKit          3D

 34 36  0  0  0  0  0  0  0  0999 V2000
    2.3135    0.6822   -0.1214 C   0  0  0  0  0  0  0  0  0  0  0  0
    3.4295    1.4928    0.0466 C   0  0  0  0  0  0  0  0  0  0  0  0
    3.3169    2.8693   -0.0705 C   0  0  0  0  0  0  0  0  0  0  0  0
    2.0786    3.4388   -0.3319 C   0  0  0  0  0  0  0  0  0  0  0  0
    0.9659    2.6282   -0.4970 C   0  0  0  0  0  0  0  0  0  0  0  0
   -0.1256    0.3981   -0.6509 C   0  0  0  0  0  0  0  0  0  0  0  0
   -2.3980   -1.1624   -1.1085 C   0  0  0  0  0  0  0  0  0  0  0  0
   -1.2888    0.6159    0.0809 C   0  0  0  0  0  0  0  0  0  0  0  0
    1.8080   -1.4657    0.9737 C   0  0  0  0  0  0  0  0  0  0  0  0
    2.2620   -2.8958    0.7613 C   0  0  0  0  0  0  0  0  0  0  0  0
    2.4501   -0.7132    0.0198 N   0  0  0  0  0  0  0  0  0  0  0  0
    3.3125   -1.5189   -0.7438 C   0  0  0  0  0  0  0  0  0  0  0  0
    3.2422   -2.7907   -0.3619 C   0  0  0  0  0  0  0  0  0  0  0  0
    1.0652    1.2406   -0.4128 C   0  0  0  0  0  0  0  0  0  0  0  0
   -2.4179   -0.1582   -0.1469 C   0  0  0  0  0  0  0  0  0  0  0  0
   -3.6842    0.1132    0.6024 C   0  0  1  0  0  0  0  0  0  0  0  0
   -3.4737    0.7593    1.7537 F   0  0  0  0  0  0  0  0  0  0  0  0
   -4.5260    0.8723   -0.1177 F   0  0  0  0  0  0  0  0  0  0  0  0
   -4.3461   -1.0123    0.8990 F   0  0  0  0  0  0  0  0  0  0  0  0
   -1.2412   -1.3806   -1.8394 C   0  0  0  0  0  0  0  0  0  0  0  0
   -0.1133   -0.6059   -1.6160 C   0  0  0  0  0  0  0  0  0  0  0  0
    4.3850    1.0423    0.2845 H   0  0  0  0  0  0  0  0  0  0  0  0
    4.1906    3.4940    0.0581 H   0  0  0  0  0  0  0  0  0  0  0  0
    1.9787    4.5127   -0.4146 H   0  0  0  0  0  0  0  0  0  0  0  0
    0.0069    3.0763   -0.7256 H   0  0  0  0  0  0  0  0  0  0  0  0
   -3.2704   -1.7744   -1.2961 H   0  0  0  0  0  0  0  0  0  0  0  0
   -1.2921    1.3863    0.8407 H   0  0  0  0  0  0  0  0  0  0  0  0
    2.6918   -3.2945    1.6839 H   0  0  0  0  0  0  0  0  0  0  0  0
    1.4001   -3.5264    0.5230 H   0  0  0  0  0  0  0  0  0  0  0  0
    3.9004   -1.0663   -1.5280 H   0  0  0  0  0  0  0  0  0  0  0  0
    3.7905   -3.6125   -0.7928 H   0  0  0  0  0  0  0  0  0  0  0  0
   -1.2209   -2.1558   -2.5931 H   0  0  0  0  0  0  0  0  0  0  0  0
    0.7746   -0.7763   -2.2114 H   0  0  0  0  0  0  0  0  0  0  0  0
    1.0489   -1.0331    1.8127 O   0  0  0  0  0  0  0  0  0  0  0  0
  4  5  2  0
  4  3  1  0
  5 14  1  0
  3  2  2  0
 16 17  1  1
 14  6  1  0
 14  1  2  0
 19 16  1  0
 16 15  1  0
 16 18  1  0
  8  6  2  0
  8 15  1  0
  2  1  1  0
  6 21  1  0
 15  7  2  0
 21 20  2  0
  1 11  1  0
  7 20  1  0
 34  9  2  0
 11  9  1  0
 11 12  1  0
  9 10  1  0
 12 13  2  0
 10 13  1  0
  2 22  1  0
  3 23  1  0
  4 24  1  0
  5 25  1  0
  7 26  1  0
  8 27  1  0
 10 28  1  0
 10 29  1  0
 12 30  1  0
 13 31  1  0
 20 32  1  0
 21 33  1  0
M  END
