
     RDKit          3D

 16 17  0  0  0  0  0  0  0  0999 V2000
   -0.5028    0.7048   -0.0279 C   0  0  0  0  0  0  0  0  0  0  0  0
   -2.7419    0.5232   -0.0333 C   0  0  0  0  0  0  0  0  0  0  0  0
    1.8177    0.3175   -0.0123 C   0  0  0  0  0  0  0  0  0  0  0  0
    0.2253   -1.6018    0.0053 C   0  0  0  0  0  0  0  0  0  0  0  0
    0.1048   -2.8113    0.0228 O   0  0  0  0  0  0  0  0  0  0  0  0
    1.4945   -0.9992    0.0012 N   0  0  0  0  0  0  0  0  0  0  0  0
    3.3896    0.8563   -0.0105 S   0  0  0  0  0  0  0  0  0  0  0  0
    0.7661    1.1747   -0.0276 N   0  0  0  0  0  0  0  0  0  0  0  0
   -0.7997   -0.6216   -0.0136 C   0  0  0  0  0  0  0  0  0  0  0  0
   -2.1796   -0.7180   -0.0163 N   0  0  0  0  0  0  0  0  0  0  0  0
   -3.9161    0.8290   -0.0414 O   0  0  0  0  0  0  0  0  0  0  0  0
   -1.6583    1.4037   -0.0405 N   0  0  0  0  0  0  0  0  0  0  0  0
    2.2811   -1.6367    0.0126 H   0  0  0  0  0  0  0  0  0  0  0  0
    0.9611    2.1666   -0.0370 H   0  0  0  0  0  0  0  0  0  0  0  0
   -2.7119   -1.5735   -0.0115 H   0  0  0  0  0  0  0  0  0  0  0  0
   -1.7574    2.4084   -0.0481 H   0  0  0  0  0  0  0  0  0  0  0  0
  5  4  2  0
 10  9  1  0
 10  2  1  0
  4  9  1  0
  4  6  1  0
 11  2  2  0
  9  1  2  0
  2 12  1  0
  6  3  1  0
  1 12  1  0
  1  8  1  0
  3  8  1  0
  3  7  2  0
  6 13  1  0
  8 14  1  0
 10 15  1  0
 12 16  1  0
M  END
