
     RDKit          3D

 37 40  0  0  0  0  0  0  0  0999 V2000
    5.0632   -0.3662    0.4282 N   0  0  0  0  0  0  0  0  0  0  0  0
   -2.1220   -1.7871   -0.3444 C   0  0  0  0  0  0  0  0  0  0  0  0
    4.0070    1.6704   -0.2398 N   0  0  0  0  0  0  0  0  0  0  0  0
   -3.5490   -2.2515   -0.2973 C   0  0  0  0  0  0  0  0  0  0  0  0
   -0.8202    0.2159    0.0051 C   0  0  0  0  0  0  0  0  0  0  0  0
   -3.4124    0.1224    0.2745 C   0  0  1  0  0  0  0  0  0  0  0  0
    3.9967    0.3830    0.0714 C   0  0  0  0  0  0  0  0  0  0  0  0
   -4.3386   -0.9378   -0.3556 C   0  0  0  0  0  0  0  0  0  0  0  0
   -3.1241    3.5708    0.7536 N   0  0  0  0  0  0  0  0  0  0  0  0
    3.2935   -1.7355    0.5358 C   0  0  0  0  0  0  0  0  0  0  0  0
    0.3475   -0.5011   -0.2712 C   0  0  0  0  0  0  0  0  0  0  0  0
    0.2547   -1.8558   -0.6007 C   0  0  0  0  0  0  0  0  0  0  0  0
   -0.9730   -2.5029   -0.6390 C   0  0  0  0  0  0  0  0  0  0  0  0
   -2.0368   -0.4355   -0.0316 C   0  0  0  0  0  0  0  0  0  0  0  0
    1.6493    0.1874   -0.2317 C   0  0  0  0  0  0  0  0  0  0  0  0
    1.6562    1.4871   -0.5238 N   0  0  0  0  0  0  0  0  0  0  0  0
    2.8080    2.1515   -0.5130 C   0  0  0  0  0  0  0  0  0  0  0  0
    2.8496   -0.4446    0.1102 C   0  0  0  0  0  0  0  0  0  0  0  0
    4.6413   -1.6386    0.7126 C   0  0  0  0  0  0  0  0  0  0  0  0
   -3.6658    1.4237   -0.3533 N   0  0  0  0  0  0  0  0  0  0  0  0
   -3.3541    2.5604    0.2343 C   0  0  0  0  0  0  0  0  0  0  0  0
    6.0130   -0.0362    0.4953 H   0  0  0  0  0  0  0  0  0  0  0  0
   -3.8033   -2.9327   -1.1101 H   0  0  0  0  0  0  0  0  0  0  0  0
   -3.7414   -2.7888    0.6361 H   0  0  0  0  0  0  0  0  0  0  0  0
   -0.7521    1.2695    0.2483 H   0  0  0  0  0  0  0  0  0  0  0  0
   -4.5237   -0.6763   -1.4006 H   0  0  0  0  0  0  0  0  0  0  0  0
   -5.3046   -0.9868    0.1467 H   0  0  0  0  0  0  0  0  0  0  0  0
    2.7064   -2.6226    0.7036 H   0  0  0  0  0  0  0  0  0  0  0  0
    1.1455   -2.4086   -0.8669 H   0  0  0  0  0  0  0  0  0  0  0  0
   -1.0231   -3.5505   -0.9089 H   0  0  0  0  0  0  0  0  0  0  0  0
   -4.6287    0.5810    2.0106 H   0  0  0  0  0  0  0  0  0  0  0  0
   -3.4961   -0.7537    2.2382 H   0  0  0  0  0  0  0  0  0  0  0  0
   -2.9001    0.8973    2.2483 H   0  0  0  0  0  0  0  0  0  0  0  0
    2.7536    3.2055   -0.7618 H   0  0  0  0  0  0  0  0  0  0  0  0
    5.3474   -2.3888    1.0291 H   0  0  0  0  0  0  0  0  0  0  0  0
   -3.6461    1.4434   -1.3644 H   0  0  0  0  0  0  0  0  0  0  0  0
   -3.6228    0.2269    1.7806 C   0  0  0  0  0  0  0  0  0  0  0  0
 37  6  1  0
  8  6  1  0
  8  4  1  0
  6 20  1  6
  6 14  1  0
 20 21  1  0
 21  9  3  0
  4  2  1  0
 14  5  2  0
 14  2  1  0
  5 11  1  0
  2 13  2  0
 13 12  1  0
 11 12  2  0
 11 15  1  0
 10 19  2  0
 10 18  1  0
 19  1  1  0
 18 15  1  0
 18  7  2  0
 15 16  2  0
  1  7  1  0
 16 17  1  0
  7  3  1  0
 17  3  2  0
  1 22  1  0
  4 23  1  0
  4 24  1  0
  5 25  1  0
  8 26  1  0
  8 27  1  0
 10 28  1  0
 12 29  1  0
 13 30  1  0
 37 31  1  0
 37 32  1  0
 37 33  1  0
 17 34  1  0
 19 35  1  0
 20 36  1  0
M  END
