
     RDKit          3D

 22 23  0  0  0  0  0  0  0  0999 V2000
   -3.5176    0.0311   -1.4552 Br  0  0  0  0  0  0  0  0  0  0  0  0
   -1.9237   -0.4852   -0.5852 C   0  0  0  0  0  0  0  0  0  0  0  0
   -0.9055    0.4393   -0.4332 C   0  0  0  0  0  0  0  0  0  0  0  0
   -1.7988   -1.7820   -0.1056 C   0  0  0  0  0  0  0  0  0  0  0  0
   -0.6238   -2.1490    0.5333 C   0  0  0  0  0  0  0  0  0  0  0  0
    0.4187   -1.2450    0.6732 C   0  0  0  0  0  0  0  0  0  0  0  0
    0.2818    0.0528    0.1877 C   0  0  0  0  0  0  0  0  0  0  0  0
    1.3337    1.0957    0.3665 C   0  0  0  0  0  0  0  0  0  0  0  0
    1.0213    2.2504    0.6151 O   0  0  0  0  0  0  0  0  0  0  0  0
    2.7228    0.7425    0.2239 C   0  0  0  0  0  0  0  0  0  0  0  0
    3.1274   -0.4961   -0.2338 O   0  0  0  0  0  0  0  0  0  0  0  0
    4.4536   -0.4423   -0.2568 C   0  0  0  0  0  0  0  0  0  0  0  0
    5.1266   -1.5244   -0.6325 N   0  0  0  0  0  0  0  0  0  0  0  0
    4.9536    0.7064    0.1378 N   0  0  0  0  0  0  0  0  0  0  0  0
    3.8644    1.4542    0.4369 C   0  0  0  0  0  0  0  0  0  0  0  0
   -1.0155    1.4511   -0.8006 H   0  0  0  0  0  0  0  0  0  0  0  0
   -2.6000   -2.4996   -0.2198 H   0  0  0  0  0  0  0  0  0  0  0  0
   -0.5239   -3.1521    0.9254 H   0  0  0  0  0  0  0  0  0  0  0  0
    1.3166   -1.5552    1.1888 H   0  0  0  0  0  0  0  0  0  0  0  0
    3.9485    2.4679    0.7969 H   0  0  0  0  0  0  0  0  0  0  0  0
    4.6548   -2.2956   -1.0737 H   0  0  0  0  0  0  0  0  0  0  0  0
    6.1190   -1.4461   -0.7737 H   0  0  0  0  0  0  0  0  0  0  0  0
  1  2  1  0
  2  3  2  0
  2  4  1  0
  3  7  1  0
  4  5  2  0
  5  6  1  0
  6  7  2  0
  7  8  1  0
  8  9  2  0
  8 10  1  0
 10 11  1  0
 10 15  2  0
 11 12  1  0
 12 13  1  0
 12 14  2  0
 14 15  1  0
  3 16  1  0
  4 17  1  0
  5 18  1  0
  6 19  1  0
 15 20  1  0
 13 21  1  0
 13 22  1  0
M  END
