
     RDKit          3D

 50 52  0  0  0  0  0  0  0  0999 V2000
   -0.0164    0.7333   -0.0936 C   0  0  0  0  0  0  0  0  0  0  0  0
   -0.0491    2.1936   -0.2008 C   0  0  0  0  0  0  0  0  0  0  0  0
    0.7347    2.9831    0.6483 C   0  0  0  0  0  0  0  0  0  0  0  0
    0.6950    4.3639    0.5545 C   0  0  0  0  0  0  0  0  0  0  0  0
   -0.1074    4.9733   -0.4025 C   0  0  0  0  0  0  0  0  0  0  0  0
   -0.8801    4.1988   -1.2596 C   0  0  0  0  0  0  0  0  0  0  0  0
   -0.8619    2.8182   -1.1530 C   0  0  0  0  0  0  0  0  0  0  0  0
    1.2390    0.0866    0.0413 C   0  0  0  0  0  0  0  0  0  0  0  0
    2.4239    0.6640   -0.4786 C   0  0  0  0  0  0  0  0  0  0  0  0
    3.6363    0.0447   -0.3794 C   0  0  0  0  0  0  0  0  0  0  0  0
    3.7685   -1.2021    0.2922 C   0  0  0  0  0  0  0  0  0  0  0  0
    2.5906   -1.7691    0.8519 C   0  0  0  0  0  0  0  0  0  0  0  0
    1.3807   -1.1511    0.7164 C   0  0  0  0  0  0  0  0  0  0  0  0
   -1.2392    0.0154   -0.1269 C   0  0  0  0  0  0  0  0  0  0  0  0
   -2.4516    0.6045    0.3098 C   0  0  0  0  0  0  0  0  0  0  0  0
   -3.6303   -0.0841    0.3156 C   0  0  0  0  0  0  0  0  0  0  0  0
   -3.6974   -1.4241   -0.1559 C   0  0  0  0  0  0  0  0  0  0  0  0
   -2.4938   -2.0064   -0.6402 C   0  0  0  0  0  0  0  0  0  0  0  0
   -1.3176   -1.3139   -0.6107 C   0  0  0  0  0  0  0  0  0  0  0  0
    6.1499   -1.1968   -0.1455 C   0  0  0  0  0  0  0  0  0  0  0  0
    5.0634   -3.1012    1.0573 C   0  0  0  0  0  0  0  0  0  0  0  0
   -6.0740   -1.4811    0.3087 C   0  0  0  0  0  0  0  0  0  0  0  0
   -4.8879   -3.4856   -0.6012 C   0  0  0  0  0  0  0  0  0  0  0  0
    4.9546   -1.8110    0.4016 N   0  0  0  0  0  0  0  0  0  0  0  0
   -4.8485   -2.1061   -0.1531 N   0  0  0  0  0  0  0  0  0  0  0  0
    1.3513    2.5108    1.4024 H   0  0  0  0  0  0  0  0  0  0  0  0
    1.2890    4.9659    1.2289 H   0  0  0  0  0  0  0  0  0  0  0  0
   -0.1300    6.0523   -0.4819 H   0  0  0  0  0  0  0  0  0  0  0  0
   -1.4943    4.6723   -2.0138 H   0  0  0  0  0  0  0  0  0  0  0  0
   -1.4518    2.2163   -1.8323 H   0  0  0  0  0  0  0  0  0  0  0  0
    2.3681    1.5974   -1.0228 H   0  0  0  0  0  0  0  0  0  0  0  0
    4.4941    0.5167   -0.8349 H   0  0  0  0  0  0  0  0  0  0  0  0
    2.6393   -2.6867    1.4196 H   0  0  0  0  0  0  0  0  0  0  0  0
    0.5209   -1.5952    1.2002 H   0  0  0  0  0  0  0  0  0  0  0  0
   -2.4438    1.6112    0.7058 H   0  0  0  0  0  0  0  0  0  0  0  0
   -4.5122    0.4059    0.7004 H   0  0  0  0  0  0  0  0  0  0  0  0
   -2.4977   -2.9994   -1.0652 H   0  0  0  0  0  0  0  0  0  0  0  0
   -0.4366   -1.7785   -1.0333 H   0  0  0  0  0  0  0  0  0  0  0  0
    7.0096   -1.8141    0.0917 H   0  0  0  0  0  0  0  0  0  0  0  0
    6.0922   -1.1012   -1.2315 H   0  0  0  0  0  0  0  0  0  0  0  0
    6.3207   -0.2068    0.2794 H   0  0  0  0  0  0  0  0  0  0  0  0
    6.0905   -3.4458    0.9990 H   0  0  0  0  0  0  0  0  0  0  0  0
    4.7876   -3.0416    2.1116 H   0  0  0  0  0  0  0  0  0  0  0  0
    4.4307   -3.8486    0.5766 H   0  0  0  0  0  0  0  0  0  0  0  0
   -6.3192   -0.5952   -0.2792 H   0  0  0  0  0  0  0  0  0  0  0  0
   -6.8931   -2.1849    0.2075 H   0  0  0  0  0  0  0  0  0  0  0  0
   -6.0070   -1.1907    1.3587 H   0  0  0  0  0  0  0  0  0  0  0  0
   -4.2023   -4.1111   -0.0279 H   0  0  0  0  0  0  0  0  0  0  0  0
   -5.8906   -3.8767   -0.4640 H   0  0  0  0  0  0  0  0  0  0  0  0
   -4.6337   -3.5737   -1.6590 H   0  0  0  0  0  0  0  0  0  0  0  0
  1  2  1  0
  1  8  1  0
  1 14  2  0
  2  3  2  0
  2  7  1  0
  3  4  1  0
  3 26  1  0
  4  5  2  0
  4 27  1  0
  5  6  1  0
  5 28  1  0
  6  7  2  0
  6 29  1  0
  7 30  1  0
  8  9  2  0
  8 13  1  0
  9 10  1  0
  9 31  1  0
 10 11  2  0
 10 32  1  0
 11 12  1  0
 11 24  1  0
 12 13  2  0
 12 33  1  0
 13 34  1  0
 14 15  1  0
 14 19  1  0
 15 16  2  0
 15 35  1  0
 16 17  1  0
 16 36  1  0
 17 18  1  0
 17 25  2  0
 18 19  2  0
 18 37  1  0
 19 38  1  0
 20 24  1  0
 20 39  1  0
 20 40  1  0
 20 41  1  0
 21 24  1  0
 21 42  1  0
 21 43  1  0
 21 44  1  0
 22 25  1  0
 22 45  1  0
 22 46  1  0
 22 47  1  0
 23 25  1  0
 23 48  1  0
 23 49  1  0
 23 50  1  0
M  CHG  1  25   1
M  END
