
     RDKit          3D

 68 69  0  0  0  0  0  0  0  0999 V2000
    1.0491    2.0895    2.0444 N   0  0  0  0  0  0  0  0  0  0  0  0
    1.6314    1.1747    1.0935 C   0  0  1  0  0  0  0  0  0  0  0  0
    0.7233    0.9107   -0.1368 C   0  0  0  0  0  0  0  0  0  0  0  0
   -0.1708    1.7199   -0.4676 O   0  0  0  0  0  0  0  0  0  0  0  0
    2.9942    1.6590    0.5590 C   0  0  0  0  0  0  0  0  0  0  0  0
    4.0532    1.5796    1.6011 C   0  0  0  0  0  0  0  0  0  0  0  0
    4.9521    0.5062    1.6089 C   0  0  0  0  0  0  0  0  0  0  0  0
    4.1748    2.5827    2.5697 C   0  0  0  0  0  0  0  0  0  0  0  0
    5.9559    0.4360    2.5732 C   0  0  0  0  0  0  0  0  0  0  0  0
    5.1788    2.5092    3.5340 C   0  0  0  0  0  0  0  0  0  0  0  0
    6.0709    1.4370    3.5375 C   0  0  0  0  0  0  0  0  0  0  0  0
    0.9178   -0.2570   -0.8402 N   0  0  0  0  0  0  0  0  0  0  0  0
    0.2191   -0.5521   -2.0646 C   0  0  2  0  0  0  0  0  0  0  0  0
   -1.1816   -1.1603   -1.7850 C   0  0  0  0  0  0  0  0  0  0  0  0
   -1.4145   -2.3721   -1.9702 O   0  0  0  0  0  0  0  0  0  0  0  0
    0.9792   -1.5362   -2.9710 C   0  0  0  0  0  0  0  0  0  0  0  0
    2.3362   -1.0412   -3.3205 C   0  0  0  0  0  0  0  0  0  0  0  0
    2.4925    0.0079   -4.2347 C   0  0  0  0  0  0  0  0  0  0  0  0
    3.4714   -1.6324   -2.7540 C   0  0  0  0  0  0  0  0  0  0  0  0
    3.7661    0.4604   -4.5738 C   0  0  0  0  0  0  0  0  0  0  0  0
    4.7447   -1.1793   -3.0966 C   0  0  0  0  0  0  0  0  0  0  0  0
    4.8941   -0.1319   -4.0051 C   0  0  0  0  0  0  0  0  0  0  0  0
   -2.1496   -0.2926   -1.3413 N   0  0  0  0  0  0  0  0  0  0  0  0
   -3.4901   -0.7295   -1.0421 C   0  0  2  0  0  0  0  0  0  0  0  0
   -4.3622   -0.7525   -2.3153 C   0  0  0  0  0  0  0  0  0  0  0  0
   -4.8556    0.2750   -2.7747 O   0  0  0  0  0  0  0  0  0  0  0  0
   -4.1995    0.1513   -0.0041 C   0  0  0  0  0  0  0  0  0  0  0  0
   -3.4985    0.1312    1.3347 C   0  0  0  0  0  0  0  0  0  0  0  0
   -4.3400    0.8850    2.3659 C   0  0  0  0  0  0  0  0  0  0  0  0
   -3.7662    0.8606    3.6998 N   0  0  0  0  0  0  0  0  0  0  0  0
   -4.1171    1.9862    4.5382 C   0  0  0  0  0  0  0  0  0  0  0  0
   -5.5156    2.2638    4.6494 N   0  0  0  0  0  0  0  0  0  0  0  0
   -3.1589    2.6685    5.1147 N   0  0  0  0  0  0  0  0  0  0  0  0
   -4.5144   -2.1288   -2.8880 C   0  0  0  0  0  0  0  0  0  0  0  0
   -5.3061   -2.1988   -4.4410 Cl  0  0  0  0  0  0  0  0  0  0  0  0
    0.9100    2.9933    1.6342 H   0  0  0  0  0  0  0  0  0  0  0  0
    0.1703    1.7421    2.3756 H   0  0  0  0  0  0  0  0  0  0  0  0
    1.7882    0.1938    1.6358 H   0  0  0  0  0  0  0  0  0  0  0  0
    3.2829    1.0213   -0.3186 H   0  0  0  0  0  0  0  0  0  0  0  0
    2.9026    2.7152    0.1883 H   0  0  0  0  0  0  0  0  0  0  0  0
    4.8697   -0.2841    0.8484 H   0  0  0  0  0  0  0  0  0  0  0  0
    3.4665    3.4251    2.5755 H   0  0  0  0  0  0  0  0  0  0  0  0
    6.6580   -0.4104    2.5726 H   0  0  0  0  0  0  0  0  0  0  0  0
    5.2650    3.2989    4.2947 H   0  0  0  0  0  0  0  0  0  0  0  0
    6.8626    1.3807    4.2984 H   0  0  0  0  0  0  0  0  0  0  0  0
    1.6559   -0.8694   -0.5829 H   0  0  0  0  0  0  0  0  0  0  0  0
    0.0706    0.4187   -2.6329 H   0  0  0  0  0  0  0  0  0  0  0  0
    1.0357   -2.5399   -2.4697 H   0  0  0  0  0  0  0  0  0  0  0  0
    0.3662   -1.6707   -3.9029 H   0  0  0  0  0  0  0  0  0  0  0  0
    1.6041    0.4734   -4.6877 H   0  0  0  0  0  0  0  0  0  0  0  0
    3.3589   -2.4659   -2.0445 H   0  0  0  0  0  0  0  0  0  0  0  0
    3.8810    1.2849   -5.2929 H   0  0  0  0  0  0  0  0  0  0  0  0
    5.6326   -1.6521   -2.6514 H   0  0  0  0  0  0  0  0  0  0  0  0
    5.8989    0.2248   -4.2750 H   0  0  0  0  0  0  0  0  0  0  0  0
   -1.9309    0.6715   -1.2048 H   0  0  0  0  0  0  0  0  0  0  0  0
   -3.4288   -1.7886   -0.6419 H   0  0  0  0  0  0  0  0  0  0  0  0
   -4.2763    1.2030   -0.3893 H   0  0  0  0  0  0  0  0  0  0  0  0
   -5.2458   -0.2395    0.1067 H   0  0  0  0  0  0  0  0  0  0  0  0
   -3.3403   -0.9286    1.6664 H   0  0  0  0  0  0  0  0  0  0  0  0
   -2.4884    0.6125    1.2450 H   0  0  0  0  0  0  0  0  0  0  0  0
   -4.4992    1.9376    1.9904 H   0  0  0  0  0  0  0  0  0  0  0  0
   -5.3546    0.3959    2.4341 H   0  0  0  0  0  0  0  0  0  0  0  0
   -2.7708    0.7274    3.6752 H   0  0  0  0  0  0  0  0  0  0  0  0
   -6.1202    1.5294    4.3539 H   0  0  0  0  0  0  0  0  0  0  0  0
   -5.7785    2.6378    5.5349 H   0  0  0  0  0  0  0  0  0  0  0  0
   -3.4496    3.3663    5.7632 H   0  0  0  0  0  0  0  0  0  0  0  0
   -3.4958   -2.5871   -3.0096 H   0  0  0  0  0  0  0  0  0  0  0  0
   -5.1203   -2.7536   -2.1846 H   0  0  0  0  0  0  0  0  0  0  0  0
  3  4  2  0
  1 36  1  0
  1 37  1  0
 14 15  2  0
 14 23  1  0
 12  3  1  0
 12 13  1  0
 12 46  1  0
 25 26  2  0
 25 24  1  0
 23 24  1  0
 23 55  1  0
 34 25  1  0
 34 67  1  0
 34 68  1  0
 34 35  1  0
  2  3  1  0
  2  1  1  0
  2 38  1  1
  5  2  1  0
  5  6  1  0
  5 39  1  0
  5 40  1  0
 29 30  1  0
 29 61  1  0
 29 62  1  0
 30 31  1  0
 30 63  1  0
  6  7  2  0
 11  9  2  0
 11 45  1  0
 18 17  2  0
 18 50  1  0
 20 18  1  0
 20 22  2  0
 20 52  1  0
 19 51  1  0
 21 19  2  0
 21 53  1  0
 13 14  1  0
 13 47  1  6
 24 27  1  0
 24 56  1  1
 16 13  1  0
 16 48  1  0
 16 49  1  0
 27 28  1  0
 27 57  1  0
 27 58  1  0
  7  9  1  0
  7 41  1  0
  8  6  1  0
  8 10  2  0
  8 42  1  0
  9 43  1  0
 10 11  1  0
 10 44  1  0
 17 19  1  0
 17 16  1  0
 28 29  1  0
 28 59  1  0
 28 60  1  0
 33 31  2  0
 33 66  1  0
 32 64  1  0
 32 65  1  0
 22 21  1  0
 22 54  1  0
 31 32  1  0
M  END
