
     RDKit          3D

 78 80  0  0  0  0  0  0  0  0999 V2000
    6.0040    0.9313    0.1054 N   0  0  0  0  0  0  0  0  0  0  0  0
    3.0576    2.9500    0.6322 C   0  0  0  0  0  0  0  0  0  0  0  0
    3.8423    1.8065    0.7314 C   0  0  0  0  0  0  0  0  0  0  0  0
    5.3308    1.9667    0.6203 C   0  0  0  0  0  0  0  0  0  0  0  0
    1.6870    2.8805    0.8158 C   0  0  0  0  0  0  0  0  0  0  0  0
   -2.4030   -0.2050    0.8292 C   0  0  1  0  0  0  0  0  0  0  0  0
    1.1076    1.6565    1.1160 C   0  0  0  0  0  0  0  0  0  0  0  0
    1.8711    0.5020    1.2154 C   0  0  0  0  0  0  0  0  0  0  0  0
    3.2403    0.5817    1.0158 C   0  0  0  0  0  0  0  0  0  0  0  0
   -0.6153    1.6003    1.5439 S   0  0  1  0  0  0  0  0  0  0  0  0
   -1.1225    2.9631    1.4618 O   0  0  0  0  0  0  0  0  0  0  0  0
   -1.2665    0.6138    0.3793 N   0  0  0  0  0  0  0  0  0  0  0  0
   -1.2199    1.1748   -0.9801 C   0  0  0  0  0  0  0  0  0  0  0  0
   -2.2949    2.1535   -1.3364 C   0  0  0  0  0  0  0  0  0  0  0  0
   -2.1271    3.4254   -1.7032 C   0  0  0  0  0  0  0  0  0  0  0  0
   -3.3131    4.2839   -2.0322 C   0  0  0  0  0  0  0  0  0  0  0  0
   -3.7396    0.5306    1.0645 C   0  0  0  0  0  0  0  0  0  0  0  0
   -4.5986    0.0739   -0.0143 N   0  0  0  0  0  0  0  0  0  0  0  0
   -0.7427    0.9066    2.8173 O   0  0  0  0  0  0  0  0  0  0  0  0
    5.8633    2.9957    1.0114 O   0  0  0  0  0  0  0  0  0  0  0  0
    3.4939    0.6895   -2.7677 N   0  0  0  0  0  0  0  0  0  0  0  0
    2.2495   -2.1871   -0.9517 C   0  0  0  0  0  0  0  0  0  0  0  0
    4.6368   -0.9615   -1.7451 O   0  0  0  0  0  0  0  0  0  0  0  0
    1.1999   -1.0804   -2.8099 C   0  0  0  0  0  0  0  0  0  0  0  0
    2.3055   -1.2567   -1.9876 C   0  0  0  0  0  0  0  0  0  0  0  0
    3.5803   -0.4979   -2.1658 C   0  0  0  0  0  0  0  0  0  0  0  0
   -2.3471   -1.8676    4.2625 C   0  0  0  0  0  0  0  0  0  0  0  0
    0.1459   -2.2130    4.3333 C   0  0  0  0  0  0  0  0  0  0  0  0
   -2.4075   -3.3713   -2.2702 O   0  0  0  0  0  0  0  0  0  0  0  0
    1.0839   -2.8798   -0.6948 C   0  0  0  0  0  0  0  0  0  0  0  0
    0.0295   -1.7874   -2.5732 C   0  0  0  0  0  0  0  0  0  0  0  0
   -2.7758   -1.3366   -0.1600 C   0  0  2  0  0  0  0  0  0  0  0  0
   -4.3069   -1.3356   -0.1568 C   0  0  0  0  0  0  0  0  0  0  0  0
   -0.0284   -2.6563   -1.4963 C   0  0  0  0  0  0  0  0  0  0  0  0
   -2.1802   -2.6287    0.1374 N   0  0  0  0  0  0  0  0  0  0  0  0
   -2.3040   -3.2198    1.4757 C   0  0  0  0  0  0  0  0  0  0  0  0
   -1.1222   -2.9602    2.3568 C   0  0  0  0  0  0  0  0  0  0  0  0
   -1.1282   -2.3887    3.5632 C   0  0  0  0  0  0  0  0  0  0  0  0
   -1.2100   -4.8093   -0.5923 O   0  0  0  0  0  0  0  0  0  0  0  0
    5.5504    0.1871   -0.4100 H   0  0  0  0  0  0  0  0  0  0  0  0
    7.0019    1.0143   -0.0093 H   0  0  0  0  0  0  0  0  0  0  0  0
    3.5151    3.9054    0.4155 H   0  0  0  0  0  0  0  0  0  0  0  0
   -0.7298    4.6592   -2.7552 H   0  0  0  0  0  0  0  0  0  0  0  0
   -0.7248    4.8879   -1.0179 H   0  0  0  0  0  0  0  0  0  0  0  0
    0.0542    3.4750   -1.7217 H   0  0  0  0  0  0  0  0  0  0  0  0
    1.0857    3.7758    0.7412 H   0  0  0  0  0  0  0  0  0  0  0  0
   -2.0747   -0.6528    1.7620 H   0  0  0  0  0  0  0  0  0  0  0  0
    1.4127   -0.4470    1.4616 H   0  0  0  0  0  0  0  0  0  0  0  0
    3.8397   -0.3128    1.1249 H   0  0  0  0  0  0  0  0  0  0  0  0
   -0.2223    1.5907   -1.1265 H   0  0  0  0  0  0  0  0  0  0  0  0
   -1.2527    0.3274   -1.6658 H   0  0  0  0  0  0  0  0  0  0  0  0
   -3.3049    1.7542   -1.3028 H   0  0  0  0  0  0  0  0  0  0  0  0
   -3.2464    4.6769   -3.0497 H   0  0  0  0  0  0  0  0  0  0  0  0
   -4.2524    3.7397   -1.9383 H   0  0  0  0  0  0  0  0  0  0  0  0
   -3.3556    5.1508   -1.3674 H   0  0  0  0  0  0  0  0  0  0  0  0
   -4.1208    0.2462    2.0556 H   0  0  0  0  0  0  0  0  0  0  0  0
   -3.6291    1.6154    1.0559 H   0  0  0  0  0  0  0  0  0  0  0  0
   -5.5761    0.2473    0.1764 H   0  0  0  0  0  0  0  0  0  0  0  0
    4.3233    1.2463   -2.9001 H   0  0  0  0  0  0  0  0  0  0  0  0
    2.6177    1.1197   -3.0065 H   0  0  0  0  0  0  0  0  0  0  0  0
    3.1167   -2.3624   -0.3303 H   0  0  0  0  0  0  0  0  0  0  0  0
    1.2290   -0.4092   -3.6585 H   0  0  0  0  0  0  0  0  0  0  0  0
   -2.2010   -0.8215    4.5376 H   0  0  0  0  0  0  0  0  0  0  0  0
   -3.2632   -1.9327    3.6773 H   0  0  0  0  0  0  0  0  0  0  0  0
   -2.5181   -2.4160    5.1920 H   0  0  0  0  0  0  0  0  0  0  0  0
    0.0784   -2.6873    5.3153 H   0  0  0  0  0  0  0  0  0  0  0  0
    1.0047   -2.6340    3.8116 H   0  0  0  0  0  0  0  0  0  0  0  0
    0.3393   -1.1526    4.5074 H   0  0  0  0  0  0  0  0  0  0  0  0
    1.0577   -3.5904    0.1194 H   0  0  0  0  0  0  0  0  0  0  0  0
   -0.8175   -1.6545   -3.2322 H   0  0  0  0  0  0  0  0  0  0  0  0
   -2.4747   -1.0444   -1.1655 H   0  0  0  0  0  0  0  0  0  0  0  0
   -4.6929   -1.9504    0.6704 H   0  0  0  0  0  0  0  0  0  0  0  0
   -4.7039   -1.7446   -1.0862 H   0  0  0  0  0  0  0  0  0  0  0  0
   -3.2250   -2.8342    1.9122 H   0  0  0  0  0  0  0  0  0  0  0  0
   -2.4713   -4.2912    1.3735 H   0  0  0  0  0  0  0  0  0  0  0  0
   -0.1688   -3.3000    1.9637 H   0  0  0  0  0  0  0  0  0  0  0  0
   -1.5468   -3.4907   -1.1032 S   0  0  1  0  0  0  0  0  0  0  0  0
   -0.8090    4.1319   -1.8022 C   0  0  0  0  0  0  0  0  0  0  0  0
  1  4  1  0
  2  3  2  0
  2  5  1  0
  3  4  1  0
  3  9  1  0
  4 20  2  0
 78 15  1  0
  5  7  2  0
  6 12  1  0
  6 17  1  0
  6 32  1  0
  7  8  1  0
  7 10  1  0
  8  9  2  0
 10 11  2  0
 10 12  1  6
 10 19  2  0
 12 13  1  0
 13 14  1  0
 14 15  2  0
 15 16  1  0
 17 18  1  0
 18 33  1  0
 21 26  1  0
 22 25  2  0
 22 30  1  0
 23 26  2  0
 24 25  1  0
 24 31  2  0
 25 26  1  0
 77 29  2  0
 77 34  1  0
 77 35  1  1
 77 39  2  0
 27 38  1  0
 28 38  1  0
 30 34  2  0
 31 34  1  0
 32 33  1  0
 32 35  1  0
 35 36  1  0
 36 37  1  0
 37 38  2  0
  1 40  1  0
  1 41  1  0
  2 42  1  0
 78 43  1  0
 78 44  1  0
 78 45  1  0
  5 46  1  0
  6 47  1  1
  8 48  1  0
  9 49  1  0
 13 50  1  0
 13 51  1  0
 14 52  1  0
 16 53  1  0
 16 54  1  0
 16 55  1  0
 17 56  1  0
 17 57  1  0
 18 58  1  0
 21 59  1  0
 21 60  1  0
 22 61  1  0
 24 62  1  0
 27 63  1  0
 27 64  1  0
 27 65  1  0
 28 66  1  0
 28 67  1  0
 28 68  1  0
 30 69  1  0
 31 70  1  0
 32 71  1  6
 33 72  1  0
 33 73  1  0
 36 74  1  0
 36 75  1  0
 37 76  1  0
M  END
