
     RDKit          3D

 51 54  0  0  0  0  0  0  0  0999 V2000
   -1.6275    1.8049    1.6770 C   0  0  0  0  0  0  0  0  0  0  0  0
   -2.7053   -0.3206    1.2401 C   0  0  0  0  0  0  0  0  0  0  0  0
   -3.5296    0.2836    0.3267 C   0  0  0  0  0  0  0  0  0  0  0  0
   -2.7736   -1.8054    1.4708 C   0  0  0  0  0  0  0  0  0  0  0  0
   -2.0333   -2.5616    0.3515 C   0  0  2  0  0  0  0  0  0  0  0  0
   -2.0466   -4.0651    0.5826 C   0  0  0  0  0  0  0  0  0  0  0  0
   -0.6909   -2.0731    0.2281 N   0  0  0  0  0  0  0  0  0  0  0  0
   -1.0650   -4.7366    0.7580 O   0  0  0  0  0  0  0  0  0  0  0  0
   -3.2828   -4.5394    0.5671 O   0  0  0  0  0  0  0  0  0  0  0  0
   -0.0452   -2.0144   -0.9491 C   0  0  0  0  0  0  0  0  0  0  0  0
   -1.7494    0.4657    1.9253 C   0  0  0  0  0  0  0  0  0  0  0  0
   -0.4918   -2.4667   -1.9914 O   0  0  0  0  0  0  0  0  0  0  0  0
    1.2399   -1.2872   -0.8912 C   0  0  0  0  0  0  0  0  0  0  0  0
    2.2769   -1.5275   -1.7228 N   0  0  0  0  0  0  0  0  0  0  0  0
    3.2733   -0.6869   -1.5190 N   0  0  0  0  0  0  0  0  0  0  0  0
    2.8908    0.1297   -0.5445 C   0  0  0  0  0  0  0  0  0  0  0  0
    1.6028   -0.2146   -0.1051 C   0  0  0  0  0  0  0  0  0  0  0  0
    3.7623    1.2087   -0.0730 C   0  0  0  0  0  0  0  0  0  0  0  0
    5.0588    1.3481   -0.5715 C   0  0  0  0  0  0  0  0  0  0  0  0
    5.8799    2.3747   -0.1302 C   0  0  0  0  0  0  0  0  0  0  0  0
    5.4208    3.2807    0.8182 C   0  0  0  0  0  0  0  0  0  0  0  0
    4.1328    3.1502    1.3202 C   0  0  0  0  0  0  0  0  0  0  0  0
    3.3111    2.1235    0.8789 C   0  0  0  0  0  0  0  0  0  0  0  0
    2.3960   -2.5346   -2.7570 C   0  0  0  0  0  0  0  0  0  0  0  0
   -2.4598    2.4417    0.7281 C   0  0  0  0  0  0  0  0  0  0  0  0
   -3.4323    1.6654    0.0458 C   0  0  0  0  0  0  0  0  0  0  0  0
   -4.2733    2.2971   -0.9014 C   0  0  0  0  0  0  0  0  0  0  0  0
   -4.1491    3.6345   -1.1612 C   0  0  0  0  0  0  0  0  0  0  0  0
   -3.1799    4.4057   -0.4838 C   0  0  0  0  0  0  0  0  0  0  0  0
   -2.3562    3.8230    0.4402 C   0  0  0  0  0  0  0  0  0  0  0  0
   -0.8902    2.3938    2.2096 H   0  0  0  0  0  0  0  0  0  0  0  0
   -4.2731   -0.3032   -0.2029 H   0  0  0  0  0  0  0  0  0  0  0  0
   -2.3371   -2.0616    2.4395 H   0  0  0  0  0  0  0  0  0  0  0  0
   -3.8112   -2.1383    1.4904 H   0  0  0  0  0  0  0  0  0  0  0  0
   -2.5555   -2.3694   -0.5893 H   0  0  0  0  0  0  0  0  0  0  0  0
   -0.1869   -1.8455    1.0711 H   0  0  0  0  0  0  0  0  0  0  0  0
   -3.2798   -5.4963    0.7219 H   0  0  0  0  0  0  0  0  0  0  0  0
   -1.1079   -0.0020    2.6639 H   0  0  0  0  0  0  0  0  0  0  0  0
    1.0019    0.2626    0.6519 H   0  0  0  0  0  0  0  0  0  0  0  0
    5.4290    0.6481   -1.3093 H   0  0  0  0  0  0  0  0  0  0  0  0
    6.8826    2.4662   -0.5271 H   0  0  0  0  0  0  0  0  0  0  0  0
    6.0621    4.0806    1.1646 H   0  0  0  0  0  0  0  0  0  0  0  0
    3.7630    3.8501    2.0583 H   0  0  0  0  0  0  0  0  0  0  0  0
    2.3088    2.0432    1.2810 H   0  0  0  0  0  0  0  0  0  0  0  0
    1.8677   -2.2296   -3.6576 H   0  0  0  0  0  0  0  0  0  0  0  0
    3.4511   -2.6533   -2.9814 H   0  0  0  0  0  0  0  0  0  0  0  0
    1.9967   -3.4837   -2.4133 H   0  0  0  0  0  0  0  0  0  0  0  0
   -5.0168    1.7034   -1.4194 H   0  0  0  0  0  0  0  0  0  0  0  0
   -4.7943    4.1084   -1.8896 H   0  0  0  0  0  0  0  0  0  0  0  0
   -3.0913    5.4622   -0.7005 H   0  0  0  0  0  0  0  0  0  0  0  0
   -1.6133    4.4147    0.9614 H   0  0  0  0  0  0  0  0  0  0  0  0
 11  1  2  0
  1 25  1  0
  1 31  1  0
 11  2  1  0
  4  2  1  0
  2  3  2  0
  3 26  1  0
  3 32  1  0
  5  4  1  0
  4 33  1  0
  4 34  1  0
  7  5  1  0
  6  5  1  0
  5 35  1  6
  8  6  2  0
  6  9  1  0
 10  7  1  0
  7 36  1  0
  9 37  1  0
 13 10  1  0
 10 12  2  0
 11 38  1  0
 17 13  2  0
 14 13  1  0
 15 14  1  0
 14 24  1  0
 16 15  2  0
 18 16  1  0
 16 17  1  0
 17 39  1  0
 23 18  1  0
 19 18  2  0
 20 19  1  0
 19 40  1  0
 21 20  2  0
 20 41  1  0
 21 22  1  0
 21 42  1  0
 22 23  2  0
 22 43  1  0
 23 44  1  0
 24 45  1  0
 24 46  1  0
 24 47  1  0
 25 30  2  0
 25 26  1  0
 26 27  2  0
 27 28  1  0
 27 48  1  0
 29 28  2  0
 28 49  1  0
 30 29  1  0
 29 50  1  0
 30 51  1  0
M  END
