
     RDKit          3D

 25 25  0  0  0  0  0  0  0  0999 V2000
   -0.9103    0.4485   -1.2191 C   0  0  2  0  0  0  0  0  0  0  0  0
    0.5716    0.4485   -1.2191 C   0  0  2  0  0  0  0  0  0  0  0  0
    1.1273    0.4485    0.1550 C   0  0  1  0  0  0  0  0  0  0  0  0
   -0.9294   -0.6813    1.0073 O   0  0  0  0  0  0  0  0  0  0  0  0
   -1.4852   -0.6830   -0.3622 C   0  0  1  0  0  0  0  0  0  0  0  0
   -2.8439   -0.5372   -0.2891 O   0  0  0  0  0  0  0  0  0  0  0  0
   -1.3915    0.2830   -2.6205 N   0  0  0  0  0  0  0  0  0  0  0  0
    1.0435    1.6443   -1.9191 O   0  0  0  0  0  0  0  0  0  0  0  0
    0.8195    1.7059    0.7801 O   0  0  0  0  0  0  0  0  0  0  0  0
    0.5488   -0.6828    1.0091 C   0  0  2  0  0  0  0  0  0  0  0  0
    1.0310   -0.5238    2.4136 C   0  0  0  0  0  0  0  0  0  0  0  0
    0.6930   -1.6629    3.1550 O   0  0  0  0  0  0  0  0  0  0  0  0
   -1.2614    1.3967   -0.8300 H   0  0  0  0  0  0  0  0  0  0  0  0
    0.9230   -0.4337   -1.7403 H   0  0  0  0  0  0  0  0  0  0  0  0
    2.2028    0.3309    0.0986 H   0  0  0  0  0  0  0  0  0  0  0  0
   -1.2531   -1.6308   -0.8327 H   0  0  0  0  0  0  0  0  0  0  0  0
   -3.2360   -1.3606   -0.0499 H   0  0  0  0  0  0  0  0  0  0  0  0
   -1.2841    1.1469   -3.1144 H   0  0  0  0  0  0  0  0  0  0  0  0
   -2.3574    0.0208   -2.6128 H   0  0  0  0  0  0  0  0  0  0  0  0
    1.7069    1.4017   -2.5437 H   0  0  0  0  0  0  0  0  0  0  0  0
    1.6038    2.2252    0.8446 H   0  0  0  0  0  0  0  0  0  0  0  0
    0.8980   -1.6305    0.6173 H   0  0  0  0  0  0  0  0  0  0  0  0
    2.1072   -0.3993    2.4138 H   0  0  0  0  0  0  0  0  0  0  0  0
    0.5664    0.3477    2.8586 H   0  0  0  0  0  0  0  0  0  0  0  0
    1.1094   -1.6230    4.0000 H   0  0  0  0  0  0  0  0  0  0  0  0
  1  2  1  0
  1  5  1  0
  1  7  1  0
  1 13  1  1
  2  3  1  0
  2  8  1  0
  2 14  1  6
  3  9  1  0
  3 10  1  0
  3 15  1  6
  4  5  1  0
  4 10  1  0
  5  6  1  0
  5 16  1  6
  6 17  1  0
  7 18  1  0
  7 19  1  0
  8 20  1  0
  9 21  1  0
 10 11  1  0
 10 22  1  6
 11 12  1  0
 11 23  1  0
 11 24  1  0
 12 25  1  0
M  END
