
     RDKit          3D

 20 19  0  0  0  0  0  0  0  0999 V2000
   -0.4275   -0.2884   -0.0453 C   0  0  1  0  0  0  0  0  0  0  0  0
   -1.5359   -0.1553   -1.0824 C   0  0  0  0  0  0  0  0  0  0  0  0
   -1.4471    0.9536   -1.7962 O   0  0  0  0  0  0  0  0  0  0  0  0
   -2.4205   -0.9653   -1.1973 O   0  0  0  0  0  0  0  0  0  0  0  0
    0.7705    0.4272   -0.3754 N   0  0  0  0  0  0  0  0  0  0  0  0
    1.4876    0.0673   -1.4778 C   0  0  0  0  0  0  0  0  0  0  0  0
    1.1944   -0.9223   -2.1389 O   0  0  0  0  0  0  0  0  0  0  0  0
    2.5198    0.8918   -1.7888 N   0  0  0  0  0  0  0  0  0  0  0  0
   -0.9601    0.1908    1.3006 C   0  0  0  0  0  0  0  0  0  0  0  0
   -0.0498   -0.1870    2.4428 C   0  0  0  0  0  0  0  0  0  0  0  0
    0.7516   -1.0851    2.4150 O   0  0  0  0  0  0  0  0  0  0  0  0
   -0.2679    0.5713    3.5079 O   0  0  0  0  0  0  0  0  0  0  0  0
   -0.2100   -1.3554    0.0300 H   0  0  0  0  0  0  0  0  0  0  0  0
   -2.1873    1.0091   -2.4194 H   0  0  0  0  0  0  0  0  0  0  0  0
    0.8898    1.3543    0.0029 H   0  0  0  0  0  0  0  0  0  0  0  0
    3.1923    0.5487   -2.4538 H   0  0  0  0  0  0  0  0  0  0  0  0
    2.8868    1.5271   -1.0996 H   0  0  0  0  0  0  0  0  0  0  0  0
   -1.1354    1.2692    1.2956 H   0  0  0  0  0  0  0  0  0  0  0  0
   -1.9306   -0.2730    1.5011 H   0  0  0  0  0  0  0  0  0  0  0  0
    0.2944    0.2830    4.2429 H   0  0  0  0  0  0  0  0  0  0  0  0
  1  2  1  0
  1  5  1  0
  1  9  1  0
  1 13  1  1
  2  3  1  0
  2  4  2  0
  3 14  1  0
  5  6  1  0
  5 15  1  0
  6  7  2  0
  6  8  1  0
  8 16  1  0
  8 17  1  0
  9 10  1  0
  9 18  1  0
  9 19  1  0
 10 11  2  0
 10 12  1  0
 12 20  1  0
M  END
