
     RDKit          3D

 33 32  0  0  0  0  0  0  0  0999 V2000
   -4.4629    0.2253    0.2418 C   0  0  0  0  0  0  0  0  0  0  0  0
   -3.1354    0.8534   -0.0844 C   0  0  0  0  0  0  0  0  0  0  0  0
   -1.9675   -0.0987    0.1594 C   0  0  2  0  0  0  0  0  0  0  0  0
   -0.6397    0.6021   -0.1036 C   0  0  0  0  0  0  0  0  0  0  0  0
    0.5822   -0.2766    0.1317 C   0  0  0  0  0  0  0  0  0  0  0  0
    1.8898    0.4811   -0.0628 C   0  0  0  0  0  0  0  0  0  0  0  0
   -2.1217   -1.2811   -0.5984 O   0  0  0  0  0  0  0  0  0  0  0  0
   -5.4166    0.5808   -0.6119 O   0  0  0  0  0  0  0  0  0  0  0  0
   -4.6644   -0.4966    1.1871 O   0  0  0  0  0  0  0  0  0  0  0  0
    3.1248   -0.3867    0.1424 C   0  0  0  0  0  0  0  0  0  0  0  0
    4.4306    0.3727   -0.0548 C   0  0  0  0  0  0  0  0  0  0  0  0
    5.6693   -0.4926    0.1407 C   0  0  0  0  0  0  0  0  0  0  0  0
    6.9673    0.2739   -0.0723 C   0  0  0  0  0  0  0  0  0  0  0  0
   -3.1256    1.2170   -1.1148 H   0  0  0  0  0  0  0  0  0  0  0  0
   -3.0318    1.7355    0.5563 H   0  0  0  0  0  0  0  0  0  0  0  0
   -1.9886   -0.4186    1.2051 H   0  0  0  0  0  0  0  0  0  0  0  0
   -0.6262    0.9866   -1.1309 H   0  0  0  0  0  0  0  0  0  0  0  0
   -0.5868    1.4798    0.5481 H   0  0  0  0  0  0  0  0  0  0  0  0
    0.5482   -0.6862    1.1473 H   0  0  0  0  0  0  0  0  0  0  0  0
    0.5597   -1.1347   -0.5459 H   0  0  0  0  0  0  0  0  0  0  0  0
    1.9124    0.9114   -1.0703 H   0  0  0  0  0  0  0  0  0  0  0  0
    1.9232    1.3301    0.6291 H   0  0  0  0  0  0  0  0  0  0  0  0
   -2.0019   -1.0632   -1.5294 H   0  0  0  0  0  0  0  0  0  0  0  0
   -6.2625    0.1910   -0.3432 H   0  0  0  0  0  0  0  0  0  0  0  0
    3.1038   -0.8177    1.1496 H   0  0  0  0  0  0  0  0  0  0  0  0
    3.0919   -1.2348   -0.5506 H   0  0  0  0  0  0  0  0  0  0  0  0
    4.4479    0.8076   -1.0606 H   0  0  0  0  0  0  0  0  0  0  0  0
    4.4665    1.2188    0.6406 H   0  0  0  0  0  0  0  0  0  0  0  0
    5.6564   -0.9209    1.1480 H   0  0  0  0  0  0  0  0  0  0  0  0
    5.6305   -1.3417   -0.5490 H   0  0  0  0  0  0  0  0  0  0  0  0
    7.8393   -0.3675    0.0626 H   0  0  0  0  0  0  0  0  0  0  0  0
    7.0167    0.6902   -1.0803 H   0  0  0  0  0  0  0  0  0  0  0  0
    7.0565    1.1046    0.6302 H   0  0  0  0  0  0  0  0  0  0  0  0
  9  1  2  0
  1  8  1  0
  1  2  1  0
  2  3  1  0
  3  4  1  0
  3  7  1  0
  4  5  1  0
  5  6  1  0
  6 10  1  0
 10 11  1  0
 11 12  1  0
 12 13  1  0
  2 14  1  0
  2 15  1  0
  3 16  1  1
  4 17  1  0
  4 18  1  0
  5 19  1  0
  5 20  1  0
  6 21  1  0
  6 22  1  0
  7 23  1  0
  8 24  1  0
 10 25  1  0
 10 26  1  0
 11 27  1  0
 11 28  1  0
 12 29  1  0
 12 30  1  0
 13 31  1  0
 13 32  1  0
 13 33  1  0
M  END
