
     RDKit          3D

 38 40  0  0  0  0  0  0  0  0999 V2000
    2.6713   -2.6589   -1.5227 O   0  0  0  0  0  0  0  0  0  0  0  0
    2.2984   -1.2320   -1.5752 P   0  0  1  0  0  0  0  0  0  0  0  0
    3.4239   -0.1860   -2.0445 O   0  0  0  0  0  0  0  0  0  0  0  0
    1.0335   -1.0203   -2.5307 O   0  0  0  0  0  0  0  0  0  0  0  0
    1.8342   -0.4651    0.0244 C   0  0  1  0  0  0  0  0  0  0  0  0
    3.1934   -0.1535    1.2113 P   0  0  1  0  0  0  0  0  0  0  0  0
    2.7325    0.1935    2.5708 O   0  0  0  0  0  0  0  0  0  0  0  0
    4.0484   -1.4868    1.0276 O   0  0  0  0  0  0  0  0  0  0  0  0
    4.0347    1.0644    0.5964 O   0  0  0  0  0  0  0  0  0  0  0  0
    1.1211    0.7701   -0.1615 N   0  0  0  0  0  0  0  0  0  0  0  0
   -0.2215    0.8747   -0.0414 C   0  0  0  0  0  0  0  0  0  0  0  0
   -0.9256   -0.2184    0.1828 N   0  0  0  0  0  0  0  0  0  0  0  0
   -0.8646    2.1280   -0.1546 C   0  0  0  0  0  0  0  0  0  0  0  0
   -0.3771    3.4512   -0.3769 C   0  0  0  0  0  0  0  0  0  0  0  0
   -1.3799    4.3588   -0.3999 C   0  0  0  0  0  0  0  0  0  0  0  0
   -2.9434    3.6564   -0.1556 S   0  0  0  0  0  0  0  0  0  0  0  0
   -2.2494    2.0775   -0.0138 C   0  0  0  0  0  0  0  0  0  0  0  0
   -2.9628    0.9785    0.2004 N   0  0  0  0  0  0  0  0  0  0  0  0
   -2.2551   -0.1340    0.2881 C   0  0  0  0  0  0  0  0  0  0  0  0
   -2.9896   -1.3978    0.5062 C   0  0  0  0  0  0  0  0  0  0  0  0
   -4.3754   -1.3909    0.6736 C   0  0  0  0  0  0  0  0  0  0  0  0
   -5.0661   -2.5768    0.8658 C   0  0  0  0  0  0  0  0  0  0  0  0
   -4.3845   -3.7873    0.8925 C   0  0  0  0  0  0  0  0  0  0  0  0
   -3.0058   -3.8027    0.7260 C   0  0  0  0  0  0  0  0  0  0  0  0
   -2.3122   -2.6174    0.5353 C   0  0  0  0  0  0  0  0  0  0  0  0
    3.8688   -0.3941   -2.8791 H   0  0  0  0  0  0  0  0  0  0  0  0
    0.8119   -0.1107   -2.7685 H   0  0  0  0  0  0  0  0  0  0  0  0
    1.1623   -1.1793    0.5107 H   0  0  0  0  0  0  0  0  0  0  0  0
    4.7740   -1.5995    1.6592 H   0  0  0  0  0  0  0  0  0  0  0  0
    4.4315    0.9054   -0.2722 H   0  0  0  0  0  0  0  0  0  0  0  0
    1.6466    1.6053   -0.3668 H   0  0  0  0  0  0  0  0  0  0  0  0
    0.6611    3.7188   -0.5124 H   0  0  0  0  0  0  0  0  0  0  0  0
   -1.2937    5.4242   -0.5465 H   0  0  0  0  0  0  0  0  0  0  0  0
   -4.9134   -0.4530    0.6523 H   0  0  0  0  0  0  0  0  0  0  0  0
   -6.1405   -2.5558    0.9932 H   0  0  0  0  0  0  0  0  0  0  0  0
   -4.9255   -4.7126    1.0428 H   0  0  0  0  0  0  0  0  0  0  0  0
   -2.4672   -4.7413    0.7426 H   0  0  0  0  0  0  0  0  0  0  0  0
   -1.2390   -2.6375    0.4045 H   0  0  0  0  0  0  0  0  0  0  0  0
  1  2  2  0
  2  3  1  6
  2  4  1  0
  2  5  1  0
  5  6  1  0
  5 10  1  0
  6  7  2  0
  6  8  1  1
  6  9  1  0
 10 11  1  0
 11 12  2  0
 11 13  1  0
 12 19  1  0
 13 14  1  0
 13 17  2  0
 14 15  2  0
 15 16  1  0
 16 17  1  0
 17 18  1  0
 18 19  2  0
 19 20  1  0
 20 21  2  0
 20 25  1  0
 21 22  1  0
 22 23  2  0
 23 24  1  0
 24 25  2  0
  3 26  1  0
  4 27  1  0
  5 28  1  1
  8 29  1  0
  9 30  1  0
 10 31  1  0
 14 32  1  0
 15 33  1  0
 21 34  1  0
 22 35  1  0
 23 36  1  0
 24 37  1  0
 25 38  1  0
M  END
