
     RDKit          3D

 19 20  0  0  0  0  0  0  0  0999 V2000
    2.2427    1.0103   -0.0026 C   0  0  0  0  0  0  0  0  0  0  0  0
    2.9534   -0.1761   -0.0198 C   0  0  0  0  0  0  0  0  0  0  0  0
    2.3025   -1.4194   -0.0335 C   0  0  0  0  0  0  0  0  0  0  0  0
    0.9217   -1.5141   -0.0308 C   0  0  0  0  0  0  0  0  0  0  0  0
    0.2155   -0.3155   -0.0158 C   0  0  0  0  0  0  0  0  0  0  0  0
    0.8499    0.9380    0.0007 C   0  0  0  0  0  0  0  0  0  0  0  0
   -0.0920    1.9380    0.0182 N   0  0  0  0  0  0  0  0  0  0  0  0
   -1.2393    1.3191    0.0161 C   0  0  0  0  0  0  0  0  0  0  0  0
   -1.1265   -0.0347   -0.0099 N   0  0  0  0  0  0  0  0  0  0  0  0
   -2.1862   -1.0218    0.0066 C   0  0  0  0  0  0  0  0  0  0  0  0
   -3.3733   -0.3626   -0.2857 O   0  0  0  0  0  0  0  0  0  0  0  0
    2.7488    1.9672    0.0086 H   0  0  0  0  0  0  0  0  0  0  0  0
    4.0352   -0.1495   -0.0223 H   0  0  0  0  0  0  0  0  0  0  0  0
    2.8954   -2.3245   -0.0450 H   0  0  0  0  0  0  0  0  0  0  0  0
    0.4281   -2.4773   -0.0372 H   0  0  0  0  0  0  0  0  0  0  0  0
   -2.1992    1.8107    0.0305 H   0  0  0  0  0  0  0  0  0  0  0  0
   -1.9381   -1.7864   -0.7388 H   0  0  0  0  0  0  0  0  0  0  0  0
   -2.2073   -1.5022    0.9908 H   0  0  0  0  0  0  0  0  0  0  0  0
   -4.1069   -0.9226   -0.0143 H   0  0  0  0  0  0  0  0  0  0  0  0
 11 10  1  0
  3  4  2  0
  3  2  1  0
  4  5  1  0
 10  9  1  0
  2  1  2  0
  5  9  1  0
  5  6  2  0
  9  8  1  0
  1  6  1  0
  6  7  1  0
  8  7  2  0
  1 12  1  0
  2 13  1  0
  3 14  1  0
  4 15  1  0
  8 16  1  0
 10 17  1  0
 10 18  1  0
 11 19  1  0
M  END
