
     RDKit          3D

 61 64  0  0  0  0  0  0  0  0999 V2000
   -6.6519   -1.3664    0.8114 C   0  0  0  0  0  0  0  0  0  0  0  0
   -5.9669   -1.8589    1.9274 C   0  0  0  0  0  0  0  0  0  0  0  0
   -4.6163   -1.6091    2.0638 C   0  0  0  0  0  0  0  0  0  0  0  0
   -8.9284   -1.3134   -0.2141 C   0  0  0  0  0  0  0  0  0  0  0  0
   -2.4196    1.5431   -2.3447 C   0  0  0  0  0  0  0  0  0  0  0  0
    1.6530    1.1285    0.6340 C   0  0  0  0  0  0  0  0  0  0  0  0
    2.2702    0.6749    1.8072 C   0  0  0  0  0  0  0  0  0  0  0  0
    3.6052    0.9273    2.0579 C   0  0  0  0  0  0  0  0  0  0  0  0
    3.7601    2.0993   -0.0310 C   0  0  0  0  0  0  0  0  0  0  0  0
    7.9429    1.4126    1.3045 C   0  0  0  0  0  0  0  0  0  0  0  0
    6.0683   -2.6147   -0.9160 O   0  0  0  0  0  0  0  0  0  0  0  0
    8.3008   -2.9526   -0.9213 N   0  0  0  0  0  0  0  0  0  0  0  0
    8.2550   -4.2291   -1.5900 C   0  0  0  0  0  0  0  0  0  0  0  0
    7.4569   -0.9380    0.0546 C   0  0  0  0  0  0  0  0  0  0  0  0
    8.7177   -0.6197    0.3182 N   0  0  0  0  0  0  0  0  0  0  0  0
    8.9436    0.5355    0.9309 C   0  0  0  0  0  0  0  0  0  0  0  0
    6.3714   -0.1394    0.3793 C   0  0  0  0  0  0  0  0  0  0  0  0
    6.6247    1.0673    1.0219 C   0  0  0  0  0  0  0  0  0  0  0  0
    4.3481    1.6449    1.1339 C   0  0  0  0  0  0  0  0  0  0  0  0
    2.4185    1.8495   -0.2859 C   0  0  0  0  0  0  0  0  0  0  0  0
   -0.5801    1.0938   -0.5116 C   0  0  0  0  0  0  0  0  0  0  0  0
   -0.2007    1.7797   -1.5747 N   0  0  0  0  0  0  0  0  0  0  0  0
   -1.1472    1.9984   -2.4945 C   0  0  0  0  0  0  0  0  0  0  0  0
   -3.3657    1.7674   -3.2729 F   0  0  0  0  0  0  0  0  0  0  0  0
   -1.8046    0.6067   -0.2793 N   0  0  0  0  0  0  0  0  0  0  0  0
   -2.7444    0.8156   -1.1798 C   0  0  0  0  0  0  0  0  0  0  0  0
   -4.5870   -0.3858    0.0098 C   0  0  0  0  0  0  0  0  0  0  0  0
   -5.9570   -0.6314   -0.1416 C   0  0  0  0  0  0  0  0  0  0  0  0
   -3.9055   -0.8768    1.1215 C   0  0  0  0  0  0  0  0  0  0  0  0
   -8.0147   -1.6558    0.7349 N   0  0  0  0  0  0  0  0  0  0  0  0
   -8.6574   -0.6772   -1.2158 O   0  0  0  0  0  0  0  0  0  0  0  0
  -10.3305   -1.7870    0.1060 C   0  0  0  0  0  0  0  0  0  0  0  0
  -11.2932   -1.6617   -1.0609 C   0  0  0  0  0  0  0  0  0  0  0  0
   -6.4947   -2.4319    2.6802 H   0  0  0  0  0  0  0  0  0  0  0  0
   -4.0935   -1.9949    2.9292 H   0  0  0  0  0  0  0  0  0  0  0  0
    1.6951    0.1149    2.5352 H   0  0  0  0  0  0  0  0  0  0  0  0
    4.0604    0.5685    2.9721 H   0  0  0  0  0  0  0  0  0  0  0  0
    4.3429    2.6591   -0.7518 H   0  0  0  0  0  0  0  0  0  0  0  0
    8.1825    2.3425    1.8022 H   0  0  0  0  0  0  0  0  0  0  0  0
    9.1897   -2.5562   -0.6596 H   0  0  0  0  0  0  0  0  0  0  0  0
    7.8043   -4.1479   -2.5799 H   0  0  0  0  0  0  0  0  0  0  0  0
    9.2712   -4.5941   -1.7049 H   0  0  0  0  0  0  0  0  0  0  0  0
    7.6880   -4.9636   -1.0171 H   0  0  0  0  0  0  0  0  0  0  0  0
    9.9780    0.7823    1.1385 H   0  0  0  0  0  0  0  0  0  0  0  0
    5.3707   -0.4641    0.1325 H   0  0  0  0  0  0  0  0  0  0  0  0
    1.9751    2.2156   -1.1965 H   0  0  0  0  0  0  0  0  0  0  0  0
   -0.0976    0.2920    1.2446 H   0  0  0  0  0  0  0  0  0  0  0  0
   -0.8649    2.5593   -3.3788 H   0  0  0  0  0  0  0  0  0  0  0  0
   -4.6437    0.5908   -1.7652 H   0  0  0  0  0  0  0  0  0  0  0  0
   -6.4673   -0.2414   -1.0085 H   0  0  0  0  0  0  0  0  0  0  0  0
   -2.8532   -0.6962    1.2570 H   0  0  0  0  0  0  0  0  0  0  0  0
   -8.3718   -2.1894    1.5134 H   0  0  0  0  0  0  0  0  0  0  0  0
  -10.2880   -2.8214    0.4564 H   0  0  0  0  0  0  0  0  0  0  0  0
  -10.6905   -1.2027    0.9587 H   0  0  0  0  0  0  0  0  0  0  0  0
  -12.2759   -2.0297   -0.7688 H   0  0  0  0  0  0  0  0  0  0  0  0
  -11.4085   -0.6275   -1.3817 H   0  0  0  0  0  0  0  0  0  0  0  0
  -10.9625   -2.2455   -1.9197 H   0  0  0  0  0  0  0  0  0  0  0  0
   -4.0059    0.3566   -1.0195 N   0  0  0  0  0  0  0  0  0  0  0  0
    0.3088    0.8182    0.4863 N   0  0  0  0  0  0  0  0  0  0  0  0
    5.6717    1.9394    1.3962 O   0  0  0  0  0  0  0  0  0  0  0  0
    7.2045   -2.2496   -0.6414 C   0  0  0  0  0  0  0  0  0  0  0  0
 13 12  1  0
 11 61  2  0
 12 61  1  0
 61 14  1  0
 14 17  2  0
 14 15  1  0
 17 18  1  0
 15 16  2  0
 18 60  1  0
 18 10  2  0
 60 19  1  0
 16 10  1  0
  9 19  2  0
  9 20  1  0
 19  8  1  0
 20  6  2  0
  8  7  2  0
  6  7  1  0
  6 59  1  0
 59 21  1  0
 21 22  2  0
 21 25  1  0
 22 23  1  0
 31  4  2  0
 33 32  1  0
 25 26  2  0
  3  2  1  0
  3 29  2  0
  2  1  2  0
  4 32  1  0
  4 30  1  0
 23  5  2  0
 29 27  1  0
 26  5  1  0
 26 58  1  0
  1 30  1  0
  1 28  1  0
  5 24  1  0
 27 28  2  0
 27 58  1  0
  2 34  1  0
  3 35  1  0
  7 36  1  0
  8 37  1  0
  9 38  1  0
 10 39  1  0
 12 40  1  0
 13 41  1  0
 13 42  1  0
 13 43  1  0
 16 44  1  0
 17 45  1  0
 20 46  1  0
 59 47  1  0
 23 48  1  0
 58 49  1  0
 28 50  1  0
 29 51  1  0
 30 52  1  0
 32 53  1  0
 32 54  1  0
 33 55  1  0
 33 56  1  0
 33 57  1  0
M  END
