
     RDKit          3D

 20 19  0  0  0  0  0  0  0  0999 V2000
   -3.2749   -0.8329    0.0194 O   0  0  0  0  0  0  0  0  0  0  0  0
   -2.4491    1.2379    0.0167 O   0  0  0  0  0  0  0  0  0  0  0  0
    0.2375    0.3264   -0.0014 C   0  0  0  0  0  0  0  0  0  0  0  0
    1.5634   -0.4252   -0.0093 C   0  0  0  0  0  0  0  0  0  0  0  0
    2.7283    0.5429   -0.0049 C   0  0  0  0  0  0  0  0  0  0  0  0
    4.0268   -0.1810   -0.0244 N   0  0  0  0  0  0  0  0  0  0  0  0
   -2.2761    0.0446    0.0132 C   0  0  0  0  0  0  0  0  0  0  0  0
   -0.9365   -0.6382    0.0022 C   0  0  0  0  0  0  0  0  0  0  0  0
   -4.1247   -0.3673    0.0265 H   0  0  0  0  0  0  0  0  0  0  0  0
    0.1901    0.9752    0.8766 H   0  0  0  0  0  0  0  0  0  0  0  0
    0.1825    0.9778   -0.8770 H   0  0  0  0  0  0  0  0  0  0  0  0
    1.6214   -1.0670   -0.8933 H   0  0  0  0  0  0  0  0  0  0  0  0
    1.6259   -1.0791    0.8655 H   0  0  0  0  0  0  0  0  0  0  0  0
    2.7298    1.1662    0.8867 H   0  0  0  0  0  0  0  0  0  0  0  0
    2.7181    1.1891   -0.8801 H   0  0  0  0  0  0  0  0  0  0  0  0
    4.1327   -0.7947    0.7831 H   0  0  0  0  0  0  0  0  0  0  0  0
    4.8163    0.4636   -0.0129 H   0  0  0  0  0  0  0  0  0  0  0  0
    4.1259   -0.7586   -0.8586 H   0  0  0  0  0  0  0  0  0  0  0  0
   -0.8961   -1.2954   -0.8721 H   0  0  0  0  0  0  0  0  0  0  0  0
   -0.8851   -1.3029    0.8702 H   0  0  0  0  0  0  0  0  0  0  0  0
  1  7  1  0
  1  9  1  0
  2  7  2  0
  3  4  1  0
  3  8  1  0
  3 10  1  0
  3 11  1  0
  4  5  1  0
  4 12  1  0
  4 13  1  0
  5  6  1  0
  5 14  1  0
  5 15  1  0
  6 16  1  0
  6 17  1  0
  6 18  1  0
  7  8  1  0
  8 19  1  0
  8 20  1  0
M  CHG  1   6   1
M  END
