
     RDKit          3D

 43 44  0  0  0  0  0  0  0  0999 V2000
   -2.3078   -0.7489    2.0325 O   0  0  0  0  0  0  0  0  0  0  0  0
   -0.7946   -2.5567   -0.8548 C   0  0  0  0  0  0  0  0  0  0  0  0
   -0.5429    0.3987   -0.9592 C   0  0  0  0  0  0  0  0  0  0  0  0
   -2.0100    0.7360   -1.0342 C   0  0  0  0  0  0  0  0  0  0  0  0
   -2.7998    0.2581   -2.0692 C   0  0  0  0  0  0  0  0  0  0  0  0
   -4.1534    0.5616   -2.0912 C   0  0  0  0  0  0  0  0  0  0  0  0
   -4.6657    1.3451   -1.0709 C   0  0  0  0  0  0  0  0  0  0  0  0
   -2.6292    1.5288   -0.0697 C   0  0  0  0  0  0  0  0  0  0  0  0
    2.2926    0.5200    0.5626 C   0  0  0  0  0  0  0  0  0  0  0  0
    3.0192   -0.5986    0.1674 C   0  0  0  0  0  0  0  0  0  0  0  0
    4.2491   -0.4612   -0.4563 C   0  0  0  0  0  0  0  0  0  0  0  0
   -2.2061   -1.4642    1.0540 C   0  0  0  0  0  0  0  0  0  0  0  0
   -0.8362   -1.7012    0.4040 C   0  0  2  0  0  0  0  0  0  0  0  0
   -3.2391   -2.0933    0.4795 N   0  0  0  0  0  0  0  0  0  0  0  0
   -4.4712   -2.0468    1.0549 O   0  0  0  0  0  0  0  0  0  0  0  0
   -0.1833   -0.4170    0.1963 N   0  0  0  0  0  0  0  0  0  0  0  0
    0.7396    0.2660    1.3772 S   0  0  1  0  0  0  0  0  0  0  0  0
    0.9261   -0.7363    2.4140 O   0  0  0  0  0  0  0  0  0  0  0  0
    0.2363    1.5805    1.7466 O   0  0  0  0  0  0  0  0  0  0  0  0
   -3.9193    1.8285   -0.0812 N   0  0  0  0  0  0  0  0  0  0  0  0
    4.7041    0.8391   -0.6571 C   0  0  0  0  0  0  0  0  0  0  0  0
    4.0021    1.9609   -0.2710 C   0  0  0  0  0  0  0  0  0  0  0  0
    2.7729    1.8013    0.3530 C   0  0  0  0  0  0  0  0  0  0  0  0
    5.8872    1.0020   -1.2604 F   0  0  0  0  0  0  0  0  0  0  0  0
    5.0580   -1.6428   -0.8940 C   0  0  0  0  0  0  0  0  0  0  0  0
    0.2350   -2.6433   -1.1998 H   0  0  0  0  0  0  0  0  0  0  0  0
   -1.1419   -3.5663   -0.6348 H   0  0  0  0  0  0  0  0  0  0  0  0
   -1.3914   -2.1655   -1.6781 H   0  0  0  0  0  0  0  0  0  0  0  0
   -0.2424   -0.1252   -1.8689 H   0  0  0  0  0  0  0  0  0  0  0  0
    0.0516    1.3136   -0.9436 H   0  0  0  0  0  0  0  0  0  0  0  0
   -2.3640   -0.3473   -2.8552 H   0  0  0  0  0  0  0  0  0  0  0  0
   -4.7967    0.1982   -2.8805 H   0  0  0  0  0  0  0  0  0  0  0  0
   -5.7192    1.6012   -1.0536 H   0  0  0  0  0  0  0  0  0  0  0  0
   -2.0485    1.9304    0.7524 H   0  0  0  0  0  0  0  0  0  0  0  0
    2.6336   -1.5955    0.3429 H   0  0  0  0  0  0  0  0  0  0  0  0
   -0.2679   -2.2418    1.1628 H   0  0  0  0  0  0  0  0  0  0  0  0
   -3.1545   -2.7435   -0.2865 H   0  0  0  0  0  0  0  0  0  0  0  0
   -4.9364   -1.3088    0.6385 H   0  0  0  0  0  0  0  0  0  0  0  0
    4.4058    2.9479   -0.4526 H   0  0  0  0  0  0  0  0  0  0  0  0
    2.2131    2.6723    0.6622 H   0  0  0  0  0  0  0  0  0  0  0  0
    5.2129   -1.6418   -1.9735 H   0  0  0  0  0  0  0  0  0  0  0  0
    6.0418   -1.6497   -0.4241 H   0  0  0  0  0  0  0  0  0  0  0  0
    4.5548   -2.5705   -0.6297 H   0  0  0  0  0  0  0  0  0  0  0  0
  6  5  2  0
  6  7  1  0
  5  4  1  0
  7 20  2  0
 19 17  2  0
  2 13  1  0
 18 17  2  0
 20  8  1  0
 13 16  1  0
 13 12  1  0
 17 16  1  6
 17  9  1  0
  4  8  2  0
  4  3  1  0
 16  3  1  0
 12 14  1  0
 12  1  2  0
 14 15  1  0
  9 23  1  0
  9 10  2  0
 23 22  2  0
 10 11  1  0
 22 21  1  0
 11 21  2  0
 11 25  1  0
 21 24  1  0
  2 26  1  0
  2 27  1  0
  2 28  1  0
  3 29  1  0
  3 30  1  0
  5 31  1  0
  6 32  1  0
  7 33  1  0
  8 34  1  0
 10 35  1  0
 13 36  1  1
 14 37  1  0
 15 38  1  0
 22 39  1  0
 23 40  1  0
 25 41  1  0
 25 42  1  0
 25 43  1  0
M  END
