
     RDKit          3D

 67 69  0  0  0  0  0  0  0  0999 V2000
    7.4547    0.3622    0.8722 C   0  0  0  0  0  0  0  0  0  0  0  0
    8.6493    1.1634    0.3656 C   0  0  0  0  0  0  0  0  0  0  0  0
    9.1107    0.6686   -1.0005 C   0  0  0  0  0  0  0  0  0  0  0  0
    7.9627    0.6860   -2.0032 C   0  0  0  0  0  0  0  0  0  0  0  0
    6.7671   -0.1126   -1.4925 C   0  0  0  0  0  0  0  0  0  0  0  0
    6.2910    0.3691   -0.1201 C   0  0  1  0  0  0  0  0  0  0  0  0
    5.1254   -0.4677    0.4106 C   0  0  0  0  0  0  0  0  0  0  0  0
    3.8211   -0.1958   -0.3119 C   0  0  0  0  0  0  0  0  0  0  0  0
    2.8451   -1.1221    0.1496 O   0  0  0  0  0  0  0  0  0  0  0  0
    1.5495   -0.8375   -0.2163 C   0  0  1  0  0  0  0  0  0  0  0  0
    0.7358   -2.1273   -0.1771 C   0  0  2  0  0  0  0  0  0  0  0  0
    1.1663   -3.0457   -1.1485 O   0  0  0  0  0  0  0  0  0  0  0  0
   -0.7203   -1.7997   -0.4709 C   0  0  1  0  0  0  0  0  0  0  0  0
   -1.5488   -2.9292   -0.3149 O   0  0  0  0  0  0  0  0  0  0  0  0
    1.0231    0.0791    0.7097 O   0  0  0  0  0  0  0  0  0  0  0  0
   -0.2900    0.5012    0.4073 C   0  0  2  0  0  0  0  0  0  0  0  0
   -0.6642    1.5736    1.4069 C   0  0  0  0  0  0  0  0  0  0  0  0
    0.2164    2.6616    1.2469 O   0  0  0  0  0  0  0  0  0  0  0  0
   -1.2299   -0.7116    0.4675 C   0  0  1  0  0  0  0  0  0  0  0  0
   -2.5325   -0.3697    0.0516 O   0  0  0  0  0  0  0  0  0  0  0  0
   -3.5906   -0.4329    0.9679 C   0  0  1  0  0  0  0  0  0  0  0  0
   -4.0254    0.8379    1.3360 O   0  0  0  0  0  0  0  0  0  0  0  0
   -4.5439    1.6466    0.2881 C   0  0  2  0  0  0  0  0  0  0  0  0
   -4.9467    2.9679    0.9076 C   0  0  0  0  0  0  0  0  0  0  0  0
   -3.7985    3.6019    1.4180 O   0  0  0  0  0  0  0  0  0  0  0  0
   -5.7258    0.9480   -0.3862 C   0  0  1  0  0  0  0  0  0  0  0  0
   -6.1452    1.7552   -1.4591 O   0  0  0  0  0  0  0  0  0  0  0  0
   -5.3036   -0.4407   -0.8502 C   0  0  2  0  0  0  0  0  0  0  0  0
   -6.4402   -1.0714   -1.3931 O   0  0  0  0  0  0  0  0  0  0  0  0
   -4.7395   -1.2199    0.3351 C   0  0  1  0  0  0  0  0  0  0  0  0
   -4.3822   -2.5324   -0.0071 O   0  0  0  0  0  0  0  0  0  0  0  0
    7.1195    0.7573    1.8355 H   0  0  0  0  0  0  0  0  0  0  0  0
    7.7630   -0.6745    1.0550 H   0  0  0  0  0  0  0  0  0  0  0  0
    8.3683    2.2198    0.2917 H   0  0  0  0  0  0  0  0  0  0  0  0
    9.4687    1.1110    1.0868 H   0  0  0  0  0  0  0  0  0  0  0  0
    9.9435    1.2761   -1.3641 H   0  0  0  0  0  0  0  0  0  0  0  0
    9.4916   -0.3546   -0.9050 H   0  0  0  0  0  0  0  0  0  0  0  0
    7.6560    1.7214   -2.1869 H   0  0  0  0  0  0  0  0  0  0  0  0
    8.2912    0.2873   -2.9663 H   0  0  0  0  0  0  0  0  0  0  0  0
    7.0486   -1.1698   -1.4135 H   0  0  0  0  0  0  0  0  0  0  0  0
    5.9547   -0.0641   -2.2219 H   0  0  0  0  0  0  0  0  0  0  0  0
    5.9505    1.4097   -0.2232 H   0  0  0  0  0  0  0  0  0  0  0  0
    4.9827   -0.2589    1.4755 H   0  0  0  0  0  0  0  0  0  0  0  0
    5.3780   -1.5306    0.3283 H   0  0  0  0  0  0  0  0  0  0  0  0
    3.9363   -0.3019   -1.3972 H   0  0  0  0  0  0  0  0  0  0  0  0
    3.5016    0.8337   -0.1166 H   0  0  0  0  0  0  0  0  0  0  0  0
    1.5043   -0.4077   -1.2346 H   0  0  0  0  0  0  0  0  0  0  0  0
    0.8081   -2.5463    0.8381 H   0  0  0  0  0  0  0  0  0  0  0  0
    2.0345   -3.3756   -0.8962 H   0  0  0  0  0  0  0  0  0  0  0  0
   -0.7871   -1.4147   -1.5007 H   0  0  0  0  0  0  0  0  0  0  0  0
   -1.3183   -3.5785   -0.9885 H   0  0  0  0  0  0  0  0  0  0  0  0
   -0.3298    0.9234   -0.6105 H   0  0  0  0  0  0  0  0  0  0  0  0
   -1.7011    1.8736    1.2407 H   0  0  0  0  0  0  0  0  0  0  0  0
   -0.6078    1.1483    2.4197 H   0  0  0  0  0  0  0  0  0  0  0  0
   -0.0984    3.3794    1.8032 H   0  0  0  0  0  0  0  0  0  0  0  0
   -1.2405   -1.0990    1.4970 H   0  0  0  0  0  0  0  0  0  0  0  0
   -3.2651   -0.9211    1.8942 H   0  0  0  0  0  0  0  0  0  0  0  0
   -3.7687    1.8309   -0.4688 H   0  0  0  0  0  0  0  0  0  0  0  0
   -5.6934    2.7782    1.6914 H   0  0  0  0  0  0  0  0  0  0  0  0
   -5.4354    3.5744    0.1384 H   0  0  0  0  0  0  0  0  0  0  0  0
   -4.0628    4.4556    1.7726 H   0  0  0  0  0  0  0  0  0  0  0  0
   -6.5307    0.8307    0.3577 H   0  0  0  0  0  0  0  0  0  0  0  0
   -6.8946    1.3253   -1.8837 H   0  0  0  0  0  0  0  0  0  0  0  0
   -4.5216   -0.3257   -1.6161 H   0  0  0  0  0  0  0  0  0  0  0  0
   -6.1694   -1.9242   -1.7487 H   0  0  0  0  0  0  0  0  0  0  0  0
   -5.5270   -1.2980    1.0946 H   0  0  0  0  0  0  0  0  0  0  0  0
   -3.4628   -2.5584   -0.3184 H   0  0  0  0  0  0  0  0  0  0  0  0
  1  2  1  0
  1  6  1  0
  1 32  1  0
  1 33  1  0
  2  3  1  0
  2 34  1  0
  2 35  1  0
  3  4  1  0
  3 36  1  0
  3 37  1  0
  4  5  1  0
  4 38  1  0
  4 39  1  0
  5  6  1  0
  5 40  1  0
  5 41  1  0
  6  7  1  0
  6 42  1  6
  7  8  1  0
  7 43  1  0
  7 44  1  0
  8  9  1  0
  8 45  1  0
  8 46  1  0
  9 10  1  0
 10 11  1  0
 10 15  1  0
 10 47  1  6
 11 12  1  0
 11 13  1  0
 11 48  1  1
 12 49  1  0
 13 14  1  0
 13 19  1  0
 13 50  1  6
 14 51  1  0
 15 16  1  0
 16 17  1  0
 16 19  1  0
 16 52  1  6
 17 18  1  0
 17 53  1  0
 17 54  1  0
 18 55  1  0
 19 20  1  0
 19 56  1  1
 20 21  1  0
 21 22  1  0
 21 30  1  0
 21 57  1  1
 22 23  1  0
 23 24  1  0
 23 26  1  0
 23 58  1  6
 24 25  1  0
 24 59  1  0
 24 60  1  0
 25 61  1  0
 26 27  1  0
 26 28  1  0
 26 62  1  1
 27 63  1  0
 28 29  1  0
 28 30  1  0
 28 64  1  6
 29 65  1  0
 30 31  1  0
 30 66  1  1
 31 67  1  0
M  END
