
     RDKit          3D

162167  0  0  0  0  0  0  0  0999 V2000
    3.8874    5.2259   -6.5177 C   0  0  0  0  0  0  0  0  0  0  0  0
    4.0328    3.3410   -4.8672 C   0  0  0  0  0  0  0  0  0  0  0  0
    4.5191    2.9201   -7.3028 C   0  0  0  0  0  0  0  0  0  0  0  0
    3.6979    3.7251   -6.3030 C   0  0  2  0  0  0  0  0  0  0  0  0
    1.9200    3.4157   -6.6203 S   0  0  2  0  0  0  0  0  0  0  0  0
    1.6257    3.8307   -7.9962 O   0  0  0  0  0  0  0  0  0  0  0  0
    1.1382    4.0375   -5.5463 O   0  0  0  0  0  0  0  0  0  0  0  0
    1.6878    1.6267   -6.4953 C   0  0  0  0  0  0  0  0  0  0  0  0
    0.2213    1.2530   -6.2339 C   0  0  1  0  0  0  0  0  0  0  0  0
   -0.6768    1.5236   -7.4449 C   0  0  0  0  0  0  0  0  0  0  0  0
   -2.1501    1.4362   -7.1360 C   0  0  0  0  0  0  0  0  0  0  0  0
   -2.7048    2.4400   -6.3777 C   0  0  0  0  0  0  0  0  0  0  0  0
   -4.0761    2.4712   -6.0700 C   0  0  0  0  0  0  0  0  0  0  0  0
   -4.9004    1.4802   -6.5242 C   0  0  0  0  0  0  0  0  0  0  0  0
   -4.3805    0.4235   -7.3043 C   0  0  0  0  0  0  0  0  0  0  0  0
   -5.2291   -0.6051   -7.7803 C   0  0  0  0  0  0  0  0  0  0  0  0
   -4.7368   -1.6244   -8.5450 C   0  0  0  0  0  0  0  0  0  0  0  0
   -3.3645   -1.6584   -8.8658 C   0  0  0  0  0  0  0  0  0  0  0  0
   -2.5187   -0.6818   -8.4166 C   0  0  0  0  0  0  0  0  0  0  0  0
   -2.9915    0.3918   -7.6200 C   0  0  0  0  0  0  0  0  0  0  0  0
    0.2476   -0.2278   -5.8607 C   0  0  0  0  0  0  0  0  0  0  0  0
    0.2594   -1.1055   -6.7090 O   0  0  0  0  0  0  0  0  0  0  0  0
    0.3508   -0.4693   -4.5457 N   0  0  0  0  0  0  0  0  0  0  0  0
    0.5570   -1.7918   -4.0006 C   0  0  1  0  0  0  0  0  0  0  0  0
    2.0346   -2.2372   -4.1154 C   0  0  1  0  0  0  0  0  0  0  0  0
    3.0010   -1.3294   -3.3644 C   0  0  0  0  0  0  0  0  0  0  0  0
    2.2223   -3.6930   -3.7058 C   0  0  0  0  0  0  0  0  0  0  0  0
    0.0772   -1.7628   -2.5531 C   0  0  0  0  0  0  0  0  0  0  0  0
    0.2703   -0.7855   -1.8501 O   0  0  0  0  0  0  0  0  0  0  0  0
   -0.5218   -2.8906   -2.1268 N   0  0  0  0  0  0  0  0  0  0  0  0
   -1.2076   -3.0023   -0.8555 C   0  0  1  0  0  0  0  0  0  0  0  0
   -2.7279   -2.8955   -1.0596 C   0  0  0  0  0  0  0  0  0  0  0  0
   -3.0811   -1.5691   -1.6652 C   0  0  0  0  0  0  0  0  0  0  0  0
   -3.1722   -1.4167   -3.0460 C   0  0  0  0  0  0  0  0  0  0  0  0
   -3.3837   -0.1665   -3.6116 C   0  0  0  0  0  0  0  0  0  0  0  0
   -3.5283    0.9489   -2.7992 C   0  0  0  0  0  0  0  0  0  0  0  0
   -3.4604    0.8061   -1.4191 C   0  0  0  0  0  0  0  0  0  0  0  0
   -3.2308   -0.4425   -0.8607 C   0  0  0  0  0  0  0  0  0  0  0  0
   -0.8216   -4.2931   -0.1241 C   0  0  1  0  0  0  0  0  0  0  0  0
   -1.2428   -5.4364   -0.8337 O   0  0  0  0  0  0  0  0  0  0  0  0
    0.6712   -4.3807    0.2228 C   0  0  2  0  0  0  0  0  0  0  0  0
    0.9660   -5.5939    0.8766 O   0  0  0  0  0  0  0  0  0  0  0  0
    1.1918   -3.1716    1.0086 C   0  0  2  0  0  0  0  0  0  0  0  0
    2.7095   -3.2504    1.2378 C   0  0  0  0  0  0  0  0  0  0  0  0
    3.1901   -2.0219    1.9530 C   0  0  0  0  0  0  0  0  0  0  0  0
    3.2765   -1.9959    3.3425 C   0  0  0  0  0  0  0  0  0  0  0  0
    3.6017   -0.8260    4.0142 C   0  0  0  0  0  0  0  0  0  0  0  0
    3.8669    0.3344    3.3011 C   0  0  0  0  0  0  0  0  0  0  0  0
    3.8047    0.3159    1.9135 C   0  0  0  0  0  0  0  0  0  0  0  0
    3.4629   -0.8527    1.2481 C   0  0  0  0  0  0  0  0  0  0  0  0
    0.4992   -3.0213    2.2722 N   0  0  0  0  0  0  0  0  0  0  0  0
   -0.0259   -1.8577    2.6986 C   0  0  0  0  0  0  0  0  0  0  0  0
   -0.1384   -0.8656    1.9985 O   0  0  0  0  0  0  0  0  0  0  0  0
   -0.5342   -1.8670    4.1364 C   0  0  2  0  0  0  0  0  0  0  0  0
   -1.9910   -2.3824    4.2364 C   0  0  1  0  0  0  0  0  0  0  0  0
   -2.9555   -1.6230    3.3334 C   0  0  0  0  0  0  0  0  0  0  0  0
   -2.0938   -3.8861    4.0123 C   0  0  0  0  0  0  0  0  0  0  0  0
   -0.4113   -0.5184    4.6384 N   0  0  0  0  0  0  0  0  0  0  0  0
   -0.3627   -0.2236    5.9441 C   0  0  0  0  0  0  0  0  0  0  0  0
   -0.3558   -1.0692    6.8262 O   0  0  0  0  0  0  0  0  0  0  0  0
   -0.3997    1.2696    6.2654 C   0  0  2  0  0  0  0  0  0  0  0  0
    0.5411    1.6363    7.4212 C   0  0  0  0  0  0  0  0  0  0  0  0
    1.9689    1.8655    6.9907 C   0  0  0  0  0  0  0  0  0  0  0  0
    2.2631    3.0560    6.3693 C   0  0  0  0  0  0  0  0  0  0  0  0
    3.5722    3.3902    5.9804 C   0  0  0  0  0  0  0  0  0  0  0  0
    4.6006    2.5265    6.2325 C   0  0  0  0  0  0  0  0  0  0  0  0
    4.3502    1.2839    6.8563 C   0  0  0  0  0  0  0  0  0  0  0  0
    5.4062    0.3743    7.1017 C   0  0  0  0  0  0  0  0  0  0  0  0
    5.1676   -0.8390    7.6841 C   0  0  0  0  0  0  0  0  0  0  0  0
    3.8522   -1.1959    8.0438 C   0  0  0  0  0  0  0  0  0  0  0  0
    2.8113   -0.3341    7.8264 C   0  0  0  0  0  0  0  0  0  0  0  0
    3.0206    0.9347    7.2298 C   0  0  0  0  0  0  0  0  0  0  0  0
   -1.8727    1.5697    6.5764 C   0  0  0  0  0  0  0  0  0  0  0  0
   -2.1984    3.3478    6.6528 S   0  0  1  0  0  0  0  0  0  0  0  0
   -1.8865    3.8226    8.0055 O   0  0  0  0  0  0  0  0  0  0  0  0
   -1.4880    3.9780    5.5348 O   0  0  0  0  0  0  0  0  0  0  0  0
   -3.9993    3.5504    6.3853 C   0  0  1  0  0  0  0  0  0  0  0  0
   -4.2671    5.0431    6.5715 C   0  0  0  0  0  0  0  0  0  0  0  0
   -4.3557    3.1114    4.9705 C   0  0  0  0  0  0  0  0  0  0  0  0
   -4.7454    2.7296    7.4306 C   0  0  0  0  0  0  0  0  0  0  0  0
    3.2667    5.8168   -5.8449 H   0  0  0  0  0  0  0  0  0  0  0  0
    4.9287    5.4713   -6.3069 H   0  0  0  0  0  0  0  0  0  0  0  0
    3.6791    5.5238   -7.5444 H   0  0  0  0  0  0  0  0  0  0  0  0
    3.4302    3.8848   -4.1420 H   0  0  0  0  0  0  0  0  0  0  0  0
    3.9245    2.2725   -4.6828 H   0  0  0  0  0  0  0  0  0  0  0  0
    5.0787    3.5877   -4.6833 H   0  0  0  0  0  0  0  0  0  0  0  0
    4.2692    3.1694   -8.3329 H   0  0  0  0  0  0  0  0  0  0  0  0
    5.5737    3.1527   -7.1511 H   0  0  0  0  0  0  0  0  0  0  0  0
    4.4059    1.8445   -7.1648 H   0  0  0  0  0  0  0  0  0  0  0  0
    2.3112    1.2855   -5.6670 H   0  0  0  0  0  0  0  0  0  0  0  0
    2.0626    1.1743   -7.4139 H   0  0  0  0  0  0  0  0  0  0  0  0
   -0.1309    1.8315   -5.3758 H   0  0  0  0  0  0  0  0  0  0  0  0
   -0.4796    2.5327   -7.8059 H   0  0  0  0  0  0  0  0  0  0  0  0
   -0.3824    0.8599   -8.2556 H   0  0  0  0  0  0  0  0  0  0  0  0
   -2.0695    3.2413   -6.0153 H   0  0  0  0  0  0  0  0  0  0  0  0
   -4.4729    3.2850   -5.4771 H   0  0  0  0  0  0  0  0  0  0  0  0
   -5.9588    1.4927   -6.2933 H   0  0  0  0  0  0  0  0  0  0  0  0
   -6.2823   -0.5669   -7.5284 H   0  0  0  0  0  0  0  0  0  0  0  0
   -5.3944   -2.4048   -8.9055 H   0  0  0  0  0  0  0  0  0  0  0  0
   -2.9768   -2.4673   -9.4715 H   0  0  0  0  0  0  0  0  0  0  0  0
   -1.4710   -0.7430   -8.6706 H   0  0  0  0  0  0  0  0  0  0  0  0
    0.3178    0.2980   -3.8914 H   0  0  0  0  0  0  0  0  0  0  0  0
   -0.0507   -2.4940   -4.5779 H   0  0  0  0  0  0  0  0  0  0  0  0
    2.2690   -2.1683   -5.1820 H   0  0  0  0  0  0  0  0  0  0  0  0
    4.0278   -1.5799   -3.6316 H   0  0  0  0  0  0  0  0  0  0  0  0
    2.8499   -0.2759   -3.6026 H   0  0  0  0  0  0  0  0  0  0  0  0
    2.9079   -1.4386   -2.2828 H   0  0  0  0  0  0  0  0  0  0  0  0
    2.0665   -3.8385   -2.6356 H   0  0  0  0  0  0  0  0  0  0  0  0
    1.5396   -4.3583   -4.2376 H   0  0  0  0  0  0  0  0  0  0  0  0
    3.2385   -4.0192   -3.9283 H   0  0  0  0  0  0  0  0  0  0  0  0
   -0.7267   -3.5946   -2.8199 H   0  0  0  0  0  0  0  0  0  0  0  0
   -0.9014   -2.1511   -0.2486 H   0  0  0  0  0  0  0  0  0  0  0  0
   -3.0769   -3.7154   -1.6910 H   0  0  0  0  0  0  0  0  0  0  0  0
   -3.2169   -3.0166   -0.0892 H   0  0  0  0  0  0  0  0  0  0  0  0
   -3.0708   -2.2826   -3.6902 H   0  0  0  0  0  0  0  0  0  0  0  0
   -3.4352   -0.0635   -4.6874 H   0  0  0  0  0  0  0  0  0  0  0  0
   -3.7026    1.9221   -3.2389 H   0  0  0  0  0  0  0  0  0  0  0  0
   -3.5743    1.6701   -0.7767 H   0  0  0  0  0  0  0  0  0  0  0  0
   -3.1656   -0.5415    0.2173 H   0  0  0  0  0  0  0  0  0  0  0  0
   -1.3931   -4.2977    0.8124 H   0  0  0  0  0  0  0  0  0  0  0  0
   -0.5643   -5.6928   -1.4668 H   0  0  0  0  0  0  0  0  0  0  0  0
    1.2409   -4.4042   -0.7141 H   0  0  0  0  0  0  0  0  0  0  0  0
    0.2915   -5.7785    1.5387 H   0  0  0  0  0  0  0  0  0  0  0  0
    1.0004   -2.2694    0.4278 H   0  0  0  0  0  0  0  0  0  0  0  0
    2.9571   -4.1500    1.8052 H   0  0  0  0  0  0  0  0  0  0  0  0
    3.2003   -3.3460    0.2653 H   0  0  0  0  0  0  0  0  0  0  0  0
    3.0805   -2.8992    3.9086 H   0  0  0  0  0  0  0  0  0  0  0  0
    3.6450   -0.8205    5.0949 H   0  0  0  0  0  0  0  0  0  0  0  0
    4.1190    1.2472    3.8252 H   0  0  0  0  0  0  0  0  0  0  0  0
    4.0176    1.2148    1.3487 H   0  0  0  0  0  0  0  0  0  0  0  0
    3.4001   -0.8534    0.1653 H   0  0  0  0  0  0  0  0  0  0  0  0
    0.6487   -3.7420    2.9624 H   0  0  0  0  0  0  0  0  0  0  0  0
    0.0968   -2.5216    4.7440 H   0  0  0  0  0  0  0  0  0  0  0  0
   -2.2844   -2.1950    5.2735 H   0  0  0  0  0  0  0  0  0  0  0  0
   -3.9838   -1.8912    3.5760 H   0  0  0  0  0  0  0  0  0  0  0  0
   -2.8639   -0.5420    3.4450 H   0  0  0  0  0  0  0  0  0  0  0  0
   -2.7996   -1.8605    2.2791 H   0  0  0  0  0  0  0  0  0  0  0  0
   -1.9091   -4.1647    2.9738 H   0  0  0  0  0  0  0  0  0  0  0  0
   -1.3908   -4.4378    4.6390 H   0  0  0  0  0  0  0  0  0  0  0  0
   -3.0974   -4.2332    4.2599 H   0  0  0  0  0  0  0  0  0  0  0  0
   -0.3968    0.2239    3.9552 H   0  0  0  0  0  0  0  0  0  0  0  0
   -0.1186    1.8380    5.3756 H   0  0  0  0  0  0  0  0  0  0  0  0
    0.1966    2.5639    7.8766 H   0  0  0  0  0  0  0  0  0  0  0  0
    0.4571    0.8876    8.2081 H   0  0  0  0  0  0  0  0  0  0  0  0
    1.4633    3.7644    6.1814 H   0  0  0  0  0  0  0  0  0  0  0  0
    3.7618    4.3424    5.5022 H   0  0  0  0  0  0  0  0  0  0  0  0
    5.6151    2.7764    5.9461 H   0  0  0  0  0  0  0  0  0  0  0  0
    6.4118    0.6573    6.8141 H   0  0  0  0  0  0  0  0  0  0  0  0
    5.9825   -1.5277    7.8654 H   0  0  0  0  0  0  0  0  0  0  0  0
    3.6637   -2.1594    8.4996 H   0  0  0  0  0  0  0  0  0  0  0  0
    1.8113   -0.6460    8.0906 H   0  0  0  0  0  0  0  0  0  0  0  0
   -2.5078    1.1662    5.7852 H   0  0  0  0  0  0  0  0  0  0  0  0
   -2.1860    1.1336    7.5251 H   0  0  0  0  0  0  0  0  0  0  0  0
   -5.3268    5.2218    6.3882 H   0  0  0  0  0  0  0  0  0  0  0  0
   -4.0447    5.3775    7.5838 H   0  0  0  0  0  0  0  0  0  0  0  0
   -3.7027    5.6519    5.8659 H   0  0  0  0  0  0  0  0  0  0  0  0
   -3.8052    3.6683    4.2144 H   0  0  0  0  0  0  0  0  0  0  0  0
   -4.1913    2.0463    4.8092 H   0  0  0  0  0  0  0  0  0  0  0  0
   -5.4190    3.2955    4.8136 H   0  0  0  0  0  0  0  0  0  0  0  0
   -4.4690    3.0102    8.4458 H   0  0  0  0  0  0  0  0  0  0  0  0
   -5.8143    2.9140    7.3149 H   0  0  0  0  0  0  0  0  0  0  0  0
   -4.5910    1.6572    7.3087 H   0  0  0  0  0  0  0  0  0  0  0  0
  4  1  1  1
  1 81  1  0
  1 82  1  0
  1 83  1  0
  2  4  1  0
  2 84  1  0
  2 85  1  0
  2 86  1  0
  3  4  1  0
  3 87  1  0
  3 88  1  0
  3 89  1  0
  4  5  1  0
  5  6  2  0
  5  7  2  0
  5  8  1  6
  8  9  1  0
  8 90  1  0
  8 91  1  0
  9 10  1  0
  9 21  1  0
  9 92  1  1
 10 11  1  0
 10 93  1  0
 10 94  1  0
 11 12  2  0
 11 20  1  0
 12 13  1  0
 12 95  1  0
 13 14  2  0
 13 96  1  0
 14 15  1  0
 14 97  1  0
 15 16  1  0
 15 20  2  0
 16 17  2  0
 16 98  1  0
 17 18  1  0
 17 99  1  0
 18 19  2  0
 18100  1  0
 19 20  1  0
 19101  1  0
 21 22  2  0
 21 23  1  0
 23 24  1  0
 23102  1  0
 24 25  1  0
 24 28  1  0
 24103  1  6
 25 26  1  0
 25 27  1  0
 25104  1  6
 26105  1  0
 26106  1  0
 26107  1  0
 27108  1  0
 27109  1  0
 27110  1  0
 28 29  2  0
 28 30  1  0
 30 31  1  0
 30111  1  0
 31 32  1  0
 31 39  1  0
 31112  1  1
 32 33  1  0
 32113  1  0
 32114  1  0
 33 34  2  0
 33 38  1  0
 34 35  1  0
 34115  1  0
 35 36  2  0
 35116  1  0
 36 37  1  0
 36117  1  0
 37 38  2  0
 37118  1  0
 38119  1  0
 39 40  1  0
 39 41  1  0
 39120  1  1
 40121  1  0
 41 42  1  0
 41 43  1  0
 41122  1  6
 42123  1  0
 43 44  1  0
 43 51  1  0
 43124  1  6
 44 45  1  0
 44125  1  0
 44126  1  0
 45 46  2  0
 45 50  1  0
 46 47  1  0
 46127  1  0
 47 48  2  0
 47128  1  0
 48 49  1  0
 48129  1  0
 49 50  2  0
 49130  1  0
 50131  1  0
 51 52  1  0
 51132  1  0
 52 53  2  0
 52 54  1  0
 54 55  1  0
 54 58  1  0
 54133  1  1
 55 56  1  0
 55 57  1  0
 55134  1  1
 56135  1  0
 56136  1  0
 56137  1  0
 57138  1  0
 57139  1  0
 57140  1  0
 58 59  1  0
 58141  1  0
 59 60  2  0
 59 61  1  0
 61 62  1  0
 61 73  1  0
 61142  1  6
 62 63  1  0
 62143  1  0
 62144  1  0
 63 64  2  0
 63 72  1  0
 64 65  1  0
 64145  1  0
 65 66  2  0
 65146  1  0
 66 67  1  0
 66147  1  0
 67 68  1  0
 67 72  2  0
 68 69  2  0
 68148  1  0
 69 70  1  0
 69149  1  0
 70 71  2  0
 70150  1  0
 71 72  1  0
 71151  1  0
 74 73  1  1
 73152  1  0
 73153  1  0
 74 75  2  0
 74 76  2  0
 74 77  1  0
 77 78  1  6
 77 79  1  0
 77 80  1  0
 78154  1  0
 78155  1  0
 78156  1  0
 79157  1  0
 79158  1  0
 79159  1  0
 80160  1  0
 80161  1  0
 80162  1  0
M  END
