
     RDKit          3D

 46 48  0  0  0  0  0  0  0  0999 V2000
    8.1320    1.9980   -0.0424 O   0  0  0  0  0  0  0  0  0  0  0  0
    7.5231    0.8804   -0.4085 C   0  0  0  0  0  0  0  0  0  0  0  0
    8.0628   -0.0518   -0.9391 O   0  0  0  0  0  0  0  0  0  0  0  0
    6.0566    0.9508   -0.0607 C   0  0  0  0  0  0  0  0  0  0  0  0
    5.4629   -0.2464   -0.4779 O   0  0  0  0  0  0  0  0  0  0  0  0
    4.1365   -0.4041   -0.2812 C   0  0  0  0  0  0  0  0  0  0  0  0
    3.5834   -1.6020   -0.7354 C   0  0  0  0  0  0  0  0  0  0  0  0
    2.2343   -1.8480   -0.5813 C   0  0  0  0  0  0  0  0  0  0  0  0
    3.3122    0.5338    0.3314 C   0  0  0  0  0  0  0  0  0  0  0  0
    1.9558    0.2748    0.4768 C   0  0  0  0  0  0  0  0  0  0  0  0
    1.3860   -0.9142    0.0256 C   0  0  0  0  0  0  0  0  0  0  0  0
   -0.0391   -1.2156    0.1688 C   0  0  0  0  0  0  0  0  0  0  0  0
   -0.5194   -2.4480   -0.1486 N   0  0  0  0  0  0  0  0  0  0  0  0
   -1.8139   -2.4087    0.0729 C   0  0  0  0  0  0  0  0  0  0  0  0
   -2.8028   -3.4038   -0.0576 C   0  0  0  0  0  0  0  0  0  0  0  0
   -4.1006   -3.1079    0.2347 C   0  0  0  0  0  0  0  0  0  0  0  0
   -1.0607   -0.3806    0.5880 C   0  0  0  0  0  0  0  0  0  0  0  0
   -2.2007   -1.1543    0.5116 N   0  0  0  0  0  0  0  0  0  0  0  0
   -3.4918   -0.8347    0.8026 C   0  0  0  0  0  0  0  0  0  0  0  0
   -4.4381   -1.7983    0.6662 C   0  0  0  0  0  0  0  0  0  0  0  0
   -6.2308   -1.3856    1.0528 Br  0  0  0  0  0  0  0  0  0  0  0  0
   -1.0587    0.9527    0.9525 N   0  0  0  0  0  0  0  0  0  0  0  0
   -1.1794    1.9370   -0.1220 C   0  0  0  0  0  0  0  0  0  0  0  0
   -0.8326    3.3277    0.3797 C   0  0  0  0  0  0  0  0  0  0  0  0
   -0.9287    4.3827   -0.7150 C   0  0  0  0  0  0  0  0  0  0  0  0
   -0.5354    5.7702   -0.2286 C   0  0  0  0  0  0  0  0  0  0  0  0
    9.0749    1.9560   -0.2617 H   0  0  0  0  0  0  0  0  0  0  0  0
    5.9573    1.1069    1.0204 H   0  0  0  0  0  0  0  0  0  0  0  0
    5.6159    1.8244   -0.5565 H   0  0  0  0  0  0  0  0  0  0  0  0
    4.2190   -2.3376   -1.2128 H   0  0  0  0  0  0  0  0  0  0  0  0
    3.6978    1.4717    0.7072 H   0  0  0  0  0  0  0  0  0  0  0  0
    1.8278   -2.7829   -0.9429 H   0  0  0  0  0  0  0  0  0  0  0  0
    1.3405    1.0174    0.9653 H   0  0  0  0  0  0  0  0  0  0  0  0
   -2.5107   -4.3901   -0.3895 H   0  0  0  0  0  0  0  0  0  0  0  0
   -4.8670   -3.8638    0.1382 H   0  0  0  0  0  0  0  0  0  0  0  0
   -3.6917    0.1774    1.1233 H   0  0  0  0  0  0  0  0  0  0  0  0
   -1.6583    1.1625    1.7402 H   0  0  0  0  0  0  0  0  0  0  0  0
   -0.4813    1.6505   -0.9123 H   0  0  0  0  0  0  0  0  0  0  0  0
   -2.1811    1.9400   -0.5724 H   0  0  0  0  0  0  0  0  0  0  0  0
   -1.4995    3.5986    1.2057 H   0  0  0  0  0  0  0  0  0  0  0  0
    0.1808    3.3128    0.7928 H   0  0  0  0  0  0  0  0  0  0  0  0
   -0.2869    4.0933   -1.5526 H   0  0  0  0  0  0  0  0  0  0  0  0
   -1.9490    4.4074   -1.1090 H   0  0  0  0  0  0  0  0  0  0  0  0
    0.4951    5.7843    0.1306 H   0  0  0  0  0  0  0  0  0  0  0  0
   -0.6186    6.5102   -1.0249 H   0  0  0  0  0  0  0  0  0  0  0  0
   -1.1741    6.0972    0.5939 H   0  0  0  0  0  0  0  0  0  0  0  0
  1  2  1  0
  2  3  2  0
  2  4  1  0
  4  5  1  0
  5  6  1  0
  6  7  2  0
  6  9  1  0
  7  8  1  0
  8 11  2  0
  9 10  2  0
 10 11  1  0
 11 12  1  0
 12 13  1  0
 12 17  2  0
 13 14  2  0
 14 15  1  0
 14 18  1  0
 15 16  2  0
 16 20  1  0
 17 18  1  0
 17 22  1  0
 18 19  1  0
 19 20  2  0
 20 21  1  0
 22 23  1  0
 23 24  1  0
 24 25  1  0
 25 26  1  0
  1 27  1  0
  4 28  1  0
  4 29  1  0
  7 30  1  0
  9 31  1  0
  8 32  1  0
 10 33  1  0
 15 34  1  0
 16 35  1  0
 19 36  1  0
 22 37  1  0
 23 38  1  0
 23 39  1  0
 24 40  1  0
 24 41  1  0
 25 42  1  0
 25 43  1  0
 26 44  1  0
 26 45  1  0
 26 46  1  0
M  END
