
     RDKit          3D

 46 48  0  0  0  0  0  0  0  0999 V2000
   -0.7113    2.0780    0.2444 C   0  0  0  0  0  0  0  0  0  0  0  0
    2.8418    2.7073    0.0593 O   0  0  0  0  0  0  0  0  0  0  0  0
   -1.3077   -0.0933    0.3260 C   0  0  0  0  0  0  0  0  0  0  0  0
    1.0969    4.0871    0.1194 O   0  0  0  0  0  0  0  0  0  0  0  0
    0.0089   -0.5202    0.2849 C   0  0  0  0  0  0  0  0  0  0  0  0
    1.0449    0.4255    0.2337 C   0  0  0  0  0  0  0  0  0  0  0  0
    2.7743   -1.3219    0.1469 C   0  0  0  0  0  0  0  0  0  0  0  0
    4.2762   -1.3939    0.3337 C   0  0  1  0  0  0  0  0  0  0  0  0
    6.2848   -0.5592   -0.5476 C   0  0  0  0  0  0  0  0  0  0  0  0
    6.8436   -1.9658   -0.6857 C   0  0  0  0  0  0  0  0  0  0  0  0
    2.3278    0.0483    0.2154 N   0  0  0  0  0  0  0  0  0  0  0  0
    4.7970   -2.8239    0.2216 C   0  0  0  0  0  0  0  0  0  0  0  0
   -4.4320   -2.0880    0.5719 C   0  0  0  0  0  0  0  0  0  0  0  0
   -3.6194   -0.9969    0.1646 C   0  0  0  0  0  0  0  0  0  0  0  0
   -5.4487    0.0062   -0.7064 C   0  0  0  0  0  0  0  0  0  0  0  0
   -6.2388   -1.0549   -0.2972 C   0  0  0  0  0  0  0  0  0  0  0  0
   -7.6449   -1.0630   -0.5446 C   0  0  0  0  0  0  0  0  0  0  0  0
    1.9768    5.2079    0.0388 C   0  0  0  0  0  0  0  0  0  0  0  0
    6.2484   -2.8970    0.2621 N   0  0  0  0  0  0  0  0  0  0  0  0
    0.6510    1.7985    0.2014 C   0  0  0  0  0  0  0  0  0  0  0  0
    4.8736   -0.5714   -0.6504 O   0  0  0  0  0  0  0  0  0  0  0  0
   -1.6804    1.1843    0.3128 N   0  0  0  0  0  0  0  0  0  0  0  0
   -2.2891   -1.0679    0.4294 N   0  0  0  0  0  0  0  0  0  0  0  0
   -5.7139   -2.1093    0.3414 N   0  0  0  0  0  0  0  0  0  0  0  0
   -4.1454    0.0320   -0.4804 N   0  0  0  0  0  0  0  0  0  0  0  0
   -8.7786   -1.0561   -0.7489 N   0  0  0  0  0  0  0  0  0  0  0  0
   -1.0406    3.1100    0.2304 H   0  0  0  0  0  0  0  0  0  0  0  0
    0.2241   -1.5797    0.2824 H   0  0  0  0  0  0  0  0  0  0  0  0
    2.4928   -1.7808   -0.8090 H   0  0  0  0  0  0  0  0  0  0  0  0
    2.3077   -1.9143    0.9384 H   0  0  0  0  0  0  0  0  0  0  0  0
    4.5295   -1.0078    1.3357 H   0  0  0  0  0  0  0  0  0  0  0  0
    6.5921   -0.1335    0.4194 H   0  0  0  0  0  0  0  0  0  0  0  0
    6.6594    0.0960   -1.3363 H   0  0  0  0  0  0  0  0  0  0  0  0
    6.6559   -2.3337   -1.6996 H   0  0  0  0  0  0  0  0  0  0  0  0
    7.9262   -1.9506   -0.5452 H   0  0  0  0  0  0  0  0  0  0  0  0
    3.0111    0.7777    0.0695 H   0  0  0  0  0  0  0  0  0  0  0  0
    4.3843   -3.4336    1.0282 H   0  0  0  0  0  0  0  0  0  0  0  0
    4.4529   -3.2592   -0.7238 H   0  0  0  0  0  0  0  0  0  0  0  0
   -3.9968   -2.9368    1.0881 H   0  0  0  0  0  0  0  0  0  0  0  0
   -5.8779    0.8488   -1.2355 H   0  0  0  0  0  0  0  0  0  0  0  0
    2.6508    5.2477    0.8941 H   0  0  0  0  0  0  0  0  0  0  0  0
    2.5613    5.1913   -0.8806 H   0  0  0  0  0  0  0  0  0  0  0  0
    1.3379    6.0858    0.0433 H   0  0  0  0  0  0  0  0  0  0  0  0
    6.5669   -2.6664    1.1967 H   0  0  0  0  0  0  0  0  0  0  0  0
   -1.9616   -1.9727    0.7330 H   0  0  0  0  0  0  0  0  0  0  0  0
    1.6393    2.8790    0.1208 C   0  0  0  0  0  0  0  0  0  0  0  0
 18  4  1  0
  4 46  1  0
  1 22  2  0
  1 20  1  0
 46 20  1  0
 46  2  2  0
 22  3  1  0
 20  6  2  0
  3 23  1  0
  3  5  2  0
  6  5  1  0
  6 11  1  0
 23 14  1  0
 11  7  1  0
 14 13  2  0
 14 25  1  0
  7  8  1  0
 13 24  1  0
 25 15  2  0
 24 16  2  0
 15 16  1  0
 16 17  1  0
  8 21  1  0
  8 12  1  0
 21  9  1  0
 12 19  1  0
 17 26  3  0
  9 10  1  0
 19 10  1  0
  1 27  1  0
  5 28  1  0
  7 29  1  0
  7 30  1  0
  8 31  1  1
  9 32  1  0
  9 33  1  0
 10 34  1  0
 10 35  1  0
 11 36  1  0
 12 37  1  0
 12 38  1  0
 13 39  1  0
 15 40  1  0
 18 41  1  0
 18 42  1  0
 18 43  1  0
 19 44  1  0
 23 45  1  0
M  END
