
     RDKit          3D

 47 49  0  0  0  0  0  0  0  0999 V2000
   -1.1123    2.1092    0.0891 C   0  0  0  0  0  0  0  0  0  0  0  0
   -2.4182    2.2050    0.2956 F   0  0  0  0  0  0  0  0  0  0  0  0
   -0.3027    3.2266    0.2926 C   0  0  0  0  0  0  0  0  0  0  0  0
    1.0432    3.0802    0.0324 C   0  0  0  0  0  0  0  0  0  0  0  0
    1.8847    4.0917    0.1839 F   0  0  0  0  0  0  0  0  0  0  0  0
    1.5708    1.8739   -0.4068 C   0  0  0  0  0  0  0  0  0  0  0  0
    0.7370    0.8395   -0.5561 N   0  0  0  0  0  0  0  0  0  0  0  0
   -0.5925    0.9091   -0.3251 C   0  0  0  0  0  0  0  0  0  0  0  0
   -0.8971    4.5112    0.7578 C   0  0  0  0  0  0  0  0  0  0  0  0
    2.8563    1.7804   -0.6557 O   0  0  0  0  0  0  0  0  0  0  0  0
   -1.2634   -0.1975   -0.5910 O   0  0  0  0  0  0  0  0  0  0  0  0
   -2.2263   -0.6607    0.3001 C   0  0  0  0  0  0  0  0  0  0  0  0
   -3.3533   -1.2263   -0.2571 C   0  0  0  0  0  0  0  0  0  0  0  0
   -4.3193   -1.7774    0.5797 C   0  0  0  0  0  0  0  0  0  0  0  0
   -4.1410   -1.7214    1.9598 C   0  0  0  0  0  0  0  0  0  0  0  0
   -3.0004   -1.1392    2.4944 C   0  0  0  0  0  0  0  0  0  0  0  0
   -2.0207   -0.6117    1.6683 C   0  0  0  0  0  0  0  0  0  0  0  0
   -5.5285   -2.3960   -0.0359 C   0  0  0  0  0  0  0  0  0  0  0  0
   -5.9015   -1.9818   -1.1844 N   0  0  0  0  0  0  0  0  0  0  0  0
   -6.1544   -3.3329    0.7327 N   0  0  0  0  0  0  0  0  0  0  0  0
    3.3912    0.5743   -1.1114 C   0  0  0  0  0  0  0  0  0  0  0  0
    3.5426    0.3951   -2.4757 C   0  0  0  0  0  0  0  0  0  0  0  0
    4.1116   -0.7901   -2.9131 C   0  0  0  0  0  0  0  0  0  0  0  0
    4.5009   -1.7641   -2.0032 C   0  0  0  0  0  0  0  0  0  0  0  0
    4.3329   -1.5663   -0.6354 C   0  0  0  0  0  0  0  0  0  0  0  0
    3.7771   -0.3716   -0.1845 C   0  0  0  0  0  0  0  0  0  0  0  0
    4.7491   -2.5841    0.3726 C   0  0  0  0  0  0  0  0  0  0  0  0
    5.0129   -2.1827    1.5550 N   0  0  0  0  0  0  0  0  0  0  0  0
    4.8553   -3.8589   -0.0972 N   0  0  0  0  0  0  0  0  0  0  0  0
    1.1040   -0.0635   -0.8580 H   0  0  0  0  0  0  0  0  0  0  0  0
   -1.2953    4.3911    1.7660 H   0  0  0  0  0  0  0  0  0  0  0  0
   -0.1680    5.3145    0.7722 H   0  0  0  0  0  0  0  0  0  0  0  0
   -1.7218    4.8067    0.1105 H   0  0  0  0  0  0  0  0  0  0  0  0
   -3.4835   -1.2523   -1.3307 H   0  0  0  0  0  0  0  0  0  0  0  0
   -4.8935   -2.1140    2.6303 H   0  0  0  0  0  0  0  0  0  0  0  0
   -2.8670   -1.1004    3.5668 H   0  0  0  0  0  0  0  0  0  0  0  0
   -1.1199   -0.1874    2.0942 H   0  0  0  0  0  0  0  0  0  0  0  0
   -6.7122   -2.4967   -1.5169 H   0  0  0  0  0  0  0  0  0  0  0  0
   -5.6037   -3.8594    1.3911 H   0  0  0  0  0  0  0  0  0  0  0  0
   -6.8876   -3.8720    0.2996 H   0  0  0  0  0  0  0  0  0  0  0  0
    3.2336    1.1616   -3.1741 H   0  0  0  0  0  0  0  0  0  0  0  0
    4.2549   -0.9550   -3.9719 H   0  0  0  0  0  0  0  0  0  0  0  0
    4.9552   -2.6722   -2.3760 H   0  0  0  0  0  0  0  0  0  0  0  0
    3.6555   -0.1955    0.8765 H   0  0  0  0  0  0  0  0  0  0  0  0
    5.2575   -2.9586    2.1641 H   0  0  0  0  0  0  0  0  0  0  0  0
    4.2758   -4.1390   -0.8713 H   0  0  0  0  0  0  0  0  0  0  0  0
    5.0025   -4.5906    0.5801 H   0  0  0  0  0  0  0  0  0  0  0  0
  1  2  1  0
  1  3  2  0
  1  8  1  0
  3  4  1  0
  3  9  1  0
  4  5  1  0
  4  6  2  0
  6  7  1  0
  6 10  1  0
  7  8  2  0
  7 30  1  0
  8 11  1  0
  9 31  1  0
  9 32  1  0
  9 33  1  0
 10 21  1  0
 11 12  1  0
 12 13  2  0
 12 17  1  0
 13 14  1  0
 13 34  1  0
 14 15  2  0
 14 18  1  0
 15 16  1  0
 15 35  1  0
 16 17  2  0
 16 36  1  0
 17 37  1  0
 18 19  2  0
 18 20  1  0
 19 38  1  0
 20 39  1  0
 20 40  1  0
 21 22  2  0
 21 26  1  0
 22 23  1  0
 22 41  1  0
 23 24  2  0
 23 42  1  0
 24 25  1  0
 24 43  1  0
 25 26  2  0
 25 27  1  0
 26 44  1  0
 27 28  2  0
 27 29  1  0
 28 45  1  0
 29 46  1  0
 29 47  1  0
M  CHG  1   7   1
M  END
