
     RDKit          3D

 56 57  0  0  0  0  0  0  0  0999 V2000
    6.4572   -1.4525   -0.6993 O   0  0  0  0  0  0  0  0  0  0  0  0
    5.1376   -1.7260   -0.8941 N   0  0  0  0  0  0  0  0  0  0  0  0
    4.5408   -2.6858   -0.1622 C   0  0  0  0  0  0  0  0  0  0  0  0
    5.0591   -3.2354    0.7884 O   0  0  0  0  0  0  0  0  0  0  0  0
    3.1106   -2.9639   -0.6121 C   0  0  1  0  0  0  0  0  0  0  0  0
    2.7425   -4.4318   -0.3642 C   0  0  0  0  0  0  0  0  0  0  0  0
    1.4140   -4.7845   -0.9755 C   0  0  0  0  0  0  0  0  0  0  0  0
    0.2260   -4.6128   -0.2704 C   0  0  0  0  0  0  0  0  0  0  0  0
    1.3513   -5.2651   -2.2829 C   0  0  0  0  0  0  0  0  0  0  0  0
   -0.9949   -4.9163   -0.8576 C   0  0  0  0  0  0  0  0  0  0  0  0
    0.1332   -5.5745   -2.8711 C   0  0  0  0  0  0  0  0  0  0  0  0
   -1.0463   -5.4010   -2.1569 C   0  0  0  0  0  0  0  0  0  0  0  0
    2.2042   -2.0338    0.1879 C   0  0  0  0  0  0  0  0  0  0  0  0
    2.1034   -2.1340    1.3989 O   0  0  0  0  0  0  0  0  0  0  0  0
    1.5683   -1.0887   -0.5190 N   0  0  0  0  0  0  0  0  0  0  0  0
    0.6879   -0.1359    0.1142 C   0  0  1  0  0  0  0  0  0  0  0  0
    0.3961    1.0154   -0.8398 C   0  0  0  0  0  0  0  0  0  0  0  0
   -0.6217   -0.8121    0.5135 C   0  0  0  0  0  0  0  0  0  0  0  0
   -1.2242   -1.5450   -0.2506 O   0  0  0  0  0  0  0  0  0  0  0  0
   -1.0981   -0.4928    1.7277 N   0  0  0  0  0  0  0  0  0  0  0  0
   -2.3360   -1.0530    2.1815 C   0  0  0  0  0  0  0  0  0  0  0  0
   -2.2329   -2.5641    2.3537 C   0  0  0  0  0  0  0  0  0  0  0  0
   -1.2223   -3.0937    2.7594 O   0  0  0  0  0  0  0  0  0  0  0  0
   -3.6644   -4.5816    2.1482 C   0  0  0  0  0  0  0  0  0  0  0  0
   -4.9771   -4.9759    1.8575 C   0  0  0  0  0  0  0  0  0  0  0  0
   -5.3496   -6.2999    1.9073 C   0  0  0  0  0  0  0  0  0  0  0  0
   -4.4024   -7.2563    2.2531 C   0  0  0  0  0  0  0  0  0  0  0  0
   -3.0971   -6.8881    2.5431 C   0  0  0  0  0  0  0  0  0  0  0  0
   -2.7236   -5.5586    2.4923 C   0  0  0  0  0  0  0  0  0  0  0  0
   -4.7829   -8.6498    2.3098 N   0  0  0  0  0  0  0  0  0  0  0  0
   -5.9217   -8.9430    2.0225 O   0  0  0  0  0  0  0  0  0  0  0  0
   -3.9463   -9.4588    2.6422 O   0  0  0  0  0  0  0  0  0  0  0  0
   -3.3863   -3.2275    2.0551 N   0  0  0  0  0  0  0  0  0  0  0  0
    6.4880   -0.6632   -0.1433 H   0  0  0  0  0  0  0  0  0  0  0  0
    4.7761   -1.4334   -1.7905 H   0  0  0  0  0  0  0  0  0  0  0  0
    3.0168   -2.7508   -1.6815 H   0  0  0  0  0  0  0  0  0  0  0  0
    2.7351   -4.6256    0.7087 H   0  0  0  0  0  0  0  0  0  0  0  0
    3.5208   -5.0632   -0.7969 H   0  0  0  0  0  0  0  0  0  0  0  0
    0.2500   -4.2313    0.7424 H   0  0  0  0  0  0  0  0  0  0  0  0
    2.2694   -5.4040   -2.8429 H   0  0  0  0  0  0  0  0  0  0  0  0
   -1.9095   -4.7701   -0.2985 H   0  0  0  0  0  0  0  0  0  0  0  0
    0.1046   -5.9533   -3.8850 H   0  0  0  0  0  0  0  0  0  0  0  0
   -1.9989   -5.6404   -2.6118 H   0  0  0  0  0  0  0  0  0  0  0  0
    1.6094   -1.1079   -1.5254 H   0  0  0  0  0  0  0  0  0  0  0  0
    1.1890    0.2595    1.0011 H   0  0  0  0  0  0  0  0  0  0  0  0
   -0.1060    0.6648   -1.7422 H   0  0  0  0  0  0  0  0  0  0  0  0
   -0.2451    1.7532   -0.3601 H   0  0  0  0  0  0  0  0  0  0  0  0
    1.3229    1.5102   -1.1285 H   0  0  0  0  0  0  0  0  0  0  0  0
   -0.5310    0.0273    2.3756 H   0  0  0  0  0  0  0  0  0  0  0  0
   -2.5739   -0.6205    3.1544 H   0  0  0  0  0  0  0  0  0  0  0  0
   -3.1517   -0.7857    1.5070 H   0  0  0  0  0  0  0  0  0  0  0  0
   -5.7162   -4.2309    1.5915 H   0  0  0  0  0  0  0  0  0  0  0  0
   -6.3691   -6.5732    1.6784 H   0  0  0  0  0  0  0  0  0  0  0  0
   -2.3554   -7.6277    2.8078 H   0  0  0  0  0  0  0  0  0  0  0  0
   -1.7046   -5.2969    2.7186 H   0  0  0  0  0  0  0  0  0  0  0  0
   -4.1534   -2.6595    1.7250 H   0  0  0  0  0  0  0  0  0  0  0  0
  1  2  1  0
  1 34  1  0
  2  3  1  0
  2 35  1  0
  3  4  2  0
  3  5  1  0
  5  6  1  0
  5 13  1  0
  5 36  1  6
  6  7  1  0
  6 37  1  0
  6 38  1  0
  7  8  2  0
  7  9  1  0
  8 10  1  0
  8 39  1  0
  9 11  2  0
  9 40  1  0
 10 12  2  0
 10 41  1  0
 11 12  1  0
 11 42  1  0
 12 43  1  0
 13 14  2  0
 13 15  1  0
 15 16  1  0
 15 44  1  0
 16 17  1  0
 16 18  1  0
 16 45  1  1
 17 46  1  0
 17 47  1  0
 17 48  1  0
 18 19  2  0
 18 20  1  0
 20 21  1  0
 20 49  1  0
 21 22  1  0
 21 50  1  0
 21 51  1  0
 22 23  2  0
 22 33  1  0
 24 25  2  0
 24 29  1  0
 24 33  1  0
 25 26  1  0
 25 52  1  0
 26 27  2  0
 26 53  1  0
 27 28  1  0
 27 30  1  0
 28 29  2  0
 28 54  1  0
 29 55  1  0
 30 31  1  0
 30 32  2  0
 33 56  1  0
M  CHG  2  30   1  31  -1
M  END
