
     RDKit          3D

 19 19  0  0  0  0  0  0  0  0999 V2000
   -0.7793    0.9274    5.0537 C   0  0  0  0  0  0  0  0  0  0  0  0
   -1.7652    0.2142    5.1388 O   0  0  0  0  0  0  0  0  0  0  0  0
    0.3488    0.6256    4.4009 N   0  0  0  0  0  0  0  0  0  0  0  0
    0.5657   -0.6039    3.6675 C   0  0  0  0  0  0  0  0  0  0  0  0
    0.2821   -0.4590    2.1934 C   0  0  0  0  0  0  0  0  0  0  0  0
    1.3199   -0.4055    1.2713 C   0  0  0  0  0  0  0  0  0  0  0  0
    1.0679   -0.2515   -0.0870 C   0  0  0  0  0  0  0  0  0  0  0  0
   -0.2445   -0.1504   -0.5196 C   0  0  0  0  0  0  0  0  0  0  0  0
   -0.6465    0.0800   -2.5724 I   0  0  0  0  0  0  0  0  0  0  0  0
   -1.3005   -0.2025    0.3811 C   0  0  0  0  0  0  0  0  0  0  0  0
   -1.0282   -0.3563    1.7318 C   0  0  0  0  0  0  0  0  0  0  0  0
   -0.7229    1.9169    5.5309 H   0  0  0  0  0  0  0  0  0  0  0  0
    1.0728    1.3251    4.3711 H   0  0  0  0  0  0  0  0  0  0  0  0
   -0.0642   -1.3801    4.1007 H   0  0  0  0  0  0  0  0  0  0  0  0
    1.6006   -0.9107    3.8192 H   0  0  0  0  0  0  0  0  0  0  0  0
    2.3468   -0.4867    1.6072 H   0  0  0  0  0  0  0  0  0  0  0  0
    1.8937   -0.2123   -0.7839 H   0  0  0  0  0  0  0  0  0  0  0  0
   -2.3262   -0.1283    0.0462 H   0  0  0  0  0  0  0  0  0  0  0  0
   -1.8518   -0.3990    2.4335 H   0  0  0  0  0  0  0  0  0  0  0  0
  1  2  2  0
  1  3  1  0
  1 12  1  0
  3  4  1  0
  3 13  1  0
  4  5  1  0
  4 14  1  0
  4 15  1  0
  5  6  2  0
  5 11  1  0
  6  7  1  0
  6 16  1  0
  7  8  2  0
  7 17  1  0
  8  9  1  0
  8 10  1  0
 10 11  2  0
 10 18  1  0
 11 19  1  0
M  END
