
     RDKit          3D

 50 51  0  0  0  0  0  0  0  0999 V2000
   -4.7899    0.6899   -1.0655 C   0  0  0  0  0  0  0  0  0  0  0  0
    5.1159    0.1659   -0.1113 C   0  0  0  0  0  0  0  0  0  0  0  0
   -3.5746    0.9122   -0.2362 C   0  0  0  0  0  0  0  0  0  0  0  0
   -1.5317    0.6291    0.5470 C   0  0  0  0  0  0  0  0  0  0  0  0
    2.2402   -1.3278    0.5324 C   0  0  0  0  0  0  0  0  0  0  0  0
   -1.9243    1.6457    1.3693 C   0  0  0  0  0  0  0  0  0  0  0  0
   -0.2258   -0.0380    0.5513 C   0  0  0  0  0  0  0  0  0  0  0  0
    0.0620   -1.0116   -0.4079 C   0  0  0  0  0  0  0  0  0  0  0  0
    1.2873   -1.6532   -0.4237 C   0  0  0  0  0  0  0  0  0  0  0  0
    1.9732   -0.3676    1.5006 C   0  0  0  0  0  0  0  0  0  0  0  0
    0.7465    0.2712    1.5030 C   0  0  0  0  0  0  0  0  0  0  0  0
   -2.4838    0.2335   -0.3537 N   0  0  0  0  0  0  0  0  0  0  0  0
    4.7874   -1.2069   -0.4934 N   0  0  0  0  0  0  0  0  0  0  0  0
   -5.8584   -0.0732   -0.3125 C   0  0  0  0  0  0  0  0  0  0  0  0
   -9.1057   -1.0734   -1.5659 C   0  0  0  0  0  0  0  0  0  0  0  0
   -6.9127   -0.2838   -1.0775 O   0  0  0  0  0  0  0  0  0  0  0  0
   -5.7580   -0.4368    0.8304 O   0  0  0  0  0  0  0  0  0  0  0  0
   -3.5226    2.1135    1.0020 S   0  0  0  0  0  0  0  0  0  0  0  0
    4.3934   -2.0463    1.8214 O   0  0  0  0  0  0  0  0  0  0  0  0
    3.6734   -3.3982   -0.1788 O   0  0  0  0  0  0  0  0  0  0  0  0
    6.1591    0.7134   -1.0733 C   0  0  0  0  0  0  0  0  0  0  0  0
    6.6683    2.1068   -0.7015 C   0  0  1  0  0  0  0  0  0  0  0  0
    7.7837    2.5199   -1.6567 C   0  0  0  0  0  0  0  0  0  0  0  0
    5.5559    3.1519   -0.6995 C   0  0  0  0  0  0  0  0  0  0  0  0
   -5.2095    1.6365   -1.4158 H   0  0  0  0  0  0  0  0  0  0  0  0
   -4.5078    0.1244   -1.9561 H   0  0  0  0  0  0  0  0  0  0  0  0
    4.2254    0.8028   -0.1079 H   0  0  0  0  0  0  0  0  0  0  0  0
    5.5201    0.1548    0.9016 H   0  0  0  0  0  0  0  0  0  0  0  0
   -1.3664    2.1382    2.1500 H   0  0  0  0  0  0  0  0  0  0  0  0
   -0.6814   -1.2723   -1.1479 H   0  0  0  0  0  0  0  0  0  0  0  0
    1.4832   -2.4060   -1.1750 H   0  0  0  0  0  0  0  0  0  0  0  0
    2.7048   -0.1201    2.2575 H   0  0  0  0  0  0  0  0  0  0  0  0
    0.5552    1.0126    2.2671 H   0  0  0  0  0  0  0  0  0  0  0  0
    4.5185   -1.3036   -1.4678 H   0  0  0  0  0  0  0  0  0  0  0  0
   -9.4445   -0.0829   -1.8690 H   0  0  0  0  0  0  0  0  0  0  0  0
   -8.7645   -1.6127   -2.4495 H   0  0  0  0  0  0  0  0  0  0  0  0
   -9.9629   -1.6101   -1.1604 H   0  0  0  0  0  0  0  0  0  0  0  0
   -8.3854   -0.4661    0.3743 H   0  0  0  0  0  0  0  0  0  0  0  0
   -7.7072   -1.9913   -0.2044 H   0  0  0  0  0  0  0  0  0  0  0  0
    7.0018    0.0173   -1.1001 H   0  0  0  0  0  0  0  0  0  0  0  0
    5.7419    0.7433   -2.0867 H   0  0  0  0  0  0  0  0  0  0  0  0
    7.0900    2.0521    0.3091 H   0  0  0  0  0  0  0  0  0  0  0  0
    8.2034    3.4882   -1.3793 H   0  0  0  0  0  0  0  0  0  0  0  0
    8.5984    1.7937   -1.6614 H   0  0  0  0  0  0  0  0  0  0  0  0
    7.4084    2.6032   -2.6796 H   0  0  0  0  0  0  0  0  0  0  0  0
    5.0619    3.1948   -1.6736 H   0  0  0  0  0  0  0  0  0  0  0  0
    4.7916    2.9484    0.0515 H   0  0  0  0  0  0  0  0  0  0  0  0
    5.9571    4.1445   -0.4890 H   0  0  0  0  0  0  0  0  0  0  0  0
    3.8268   -2.1137    0.4843 S   0  0  1  0  0  0  0  0  0  0  0  0
   -8.0297   -0.9949   -0.5114 C   0  0  0  0  0  0  0  0  0  0  0  0
 23 22  1  0
 19 49  2  0
 22 24  1  0
 22 21  1  0
 10 11  1  0
 10  5  2  0
 21  2  1  0
 49 20  2  0
 49 13  1  6
 49  5  1  0
 11  7  2  0
 13  2  1  0
  5  9  1  0
 17 14  2  0
  1 14  1  0
  1  3  1  0
 12  3  2  0
 12  4  1  0
  7  4  1  0
  7  8  1  0
 14 16  1  0
  9  8  2  0
 15 50  1  0
  3 18  1  0
  4  6  2  0
 16 50  1  0
  6 18  1  0
  1 25  1  0
  1 26  1  0
  2 27  1  0
  2 28  1  0
  6 29  1  0
  8 30  1  0
  9 31  1  0
 10 32  1  0
 11 33  1  0
 13 34  1  0
 15 35  1  0
 15 36  1  0
 15 37  1  0
 50 38  1  0
 50 39  1  0
 21 40  1  0
 21 41  1  0
 22 42  1  1
 23 43  1  0
 23 44  1  0
 23 45  1  0
 24 46  1  0
 24 47  1  0
 24 48  1  0
M  END
