
     RDKit          3D

 73 75  0  0  0  0  0  0  0  0999 V2000
    5.0795    0.0101   -0.6265 C   0  0  0  0  0  0  0  0  0  0  0  0
    6.4842   -0.3220   -0.1988 C   0  0  0  0  0  0  0  0  0  0  0  0
    7.0404    0.7514    0.7416 C   0  0  2  0  0  0  0  0  0  0  0  0
    4.0633   -0.8458   -0.4171 C   0  0  0  0  0  0  0  0  0  0  0  0
    2.6627   -0.6065   -0.7039 C   0  0  0  0  0  0  0  0  0  0  0  0
    1.6491   -1.4620   -0.4949 C   0  0  0  0  0  0  0  0  0  0  0  0
    0.2248   -1.1176   -0.7940 C   0  0  1  0  0  0  0  0  0  0  0  0
   -0.6697   -1.1641    0.4739 C   0  0  2  0  0  0  0  0  0  0  0  0
   -0.5976   -2.5954    1.0184 C   0  0  0  0  0  0  0  0  0  0  0  0
    0.8422   -3.0385    1.2838 C   0  0  0  0  0  0  0  0  0  0  0  0
    6.9723    2.1150    0.0740 C   0  0  0  0  0  0  0  0  0  0  0  0
    5.5395    2.4512   -0.3408 C   0  0  0  0  0  0  0  0  0  0  0  0
    4.9413    1.3655   -1.1980 C   0  0  0  0  0  0  0  0  0  0  0  0
    8.3847    0.4982    1.0890 O   0  0  0  0  0  0  0  0  0  0  0  0
    1.7654   -2.8497    0.0726 C   0  0  0  0  0  0  0  0  0  0  0  0
   -2.0285   -0.7503   -0.1508 C   0  0  2  0  0  0  0  0  0  0  0  0
   -1.6509    0.3175   -1.2175 C   0  0  0  0  0  0  0  0  0  0  0  0
   -0.1358    0.1983   -1.4606 C   0  0  0  0  0  0  0  0  0  0  0  0
   -3.2250   -0.3325    0.7409 C   0  0  1  0  0  0  0  0  0  0  0  0
   -4.4614   -0.1755   -0.1742 C   0  0  0  0  0  0  0  0  0  0  0  0
   -3.5186   -1.3749    1.8135 C   0  0  0  0  0  0  0  0  0  0  0  0
   -5.6903    0.4587    0.4695 C   0  0  0  0  0  0  0  0  0  0  0  0
   -2.9806    0.8749    1.4458 O   0  0  0  0  0  0  0  0  0  0  0  0
   -6.8434    0.5790   -0.5206 C   0  0  0  0  0  0  0  0  0  0  0  0
   -8.1161    1.2177    0.0407 C   0  0  1  0  0  0  0  0  0  0  0  0
   -7.8824    2.6533    0.5019 C   0  0  0  0  0  0  0  0  0  0  0  0
   -9.2272    1.1747   -1.0042 C   0  0  0  0  0  0  0  0  0  0  0  0
   -0.1719   -0.1608    1.5164 C   0  0  0  0  0  0  0  0  0  0  0  0
    6.5104   -1.3027    0.2846 H   0  0  0  0  0  0  0  0  0  0  0  0
    7.1383   -0.3713   -1.0781 H   0  0  0  0  0  0  0  0  0  0  0  0
    6.4069    0.7732    1.6420 H   0  0  0  0  0  0  0  0  0  0  0  0
    4.3245   -1.7967    0.0372 H   0  0  0  0  0  0  0  0  0  0  0  0
    3.9936    0.8161   -3.0067 H   0  0  0  0  0  0  0  0  0  0  0  0
    4.3291    2.6168   -2.7818 H   0  0  0  0  0  0  0  0  0  0  0  0
    2.4201    0.3685   -1.1103 H   0  0  0  0  0  0  0  0  0  0  0  0
   -0.1541   -1.9207   -1.4463 H   0  0  0  0  0  0  0  0  0  0  0  0
   -1.1769   -2.7059    1.9356 H   0  0  0  0  0  0  0  0  0  0  0  0
   -1.0525   -3.2722    0.2848 H   0  0  0  0  0  0  0  0  0  0  0  0
    1.2502   -2.4860    2.1341 H   0  0  0  0  0  0  0  0  0  0  0  0
    0.8493   -4.0909    1.5769 H   0  0  0  0  0  0  0  0  0  0  0  0
    7.3502    2.8833    0.7528 H   0  0  0  0  0  0  0  0  0  0  0  0
    7.6194    2.1151   -0.8092 H   0  0  0  0  0  0  0  0  0  0  0  0
    4.9282    2.5631    0.5615 H   0  0  0  0  0  0  0  0  0  0  0  0
    5.5113    3.4093   -0.8626 H   0  0  0  0  0  0  0  0  0  0  0  0
    8.4190   -0.3342    1.5709 H   0  0  0  0  0  0  0  0  0  0  0  0
    1.4713   -3.5637   -0.7067 H   0  0  0  0  0  0  0  0  0  0  0  0
    2.7882   -3.1044    0.3502 H   0  0  0  0  0  0  0  0  0  0  0  0
   -2.3784   -1.6360   -0.6957 H   0  0  0  0  0  0  0  0  0  0  0  0
   -2.2091    0.1479   -2.1382 H   0  0  0  0  0  0  0  0  0  0  0  0
   -1.8999    1.3336   -0.9020 H   0  0  0  0  0  0  0  0  0  0  0  0
    0.3959    1.0346   -1.0021 H   0  0  0  0  0  0  0  0  0  0  0  0
    0.1191    0.2084   -2.5214 H   0  0  0  0  0  0  0  0  0  0  0  0
   -4.1943    0.4289   -1.0476 H   0  0  0  0  0  0  0  0  0  0  0  0
   -4.7237   -1.1621   -0.5711 H   0  0  0  0  0  0  0  0  0  0  0  0
   -2.7173   -1.4422    2.5488 H   0  0  0  0  0  0  0  0  0  0  0  0
   -4.4346   -1.1326    2.3532 H   0  0  0  0  0  0  0  0  0  0  0  0
   -3.6490   -2.3613    1.3683 H   0  0  0  0  0  0  0  0  0  0  0  0
   -6.0236   -0.1251    1.3334 H   0  0  0  0  0  0  0  0  0  0  0  0
   -5.4245    1.4469    0.8500 H   0  0  0  0  0  0  0  0  0  0  0  0
   -2.8238    1.5822    0.8126 H   0  0  0  0  0  0  0  0  0  0  0  0
   -6.5156    1.1595   -1.3925 H   0  0  0  0  0  0  0  0  0  0  0  0
   -7.0900   -0.4190   -0.8998 H   0  0  0  0  0  0  0  0  0  0  0  0
   -8.4388    0.6271    0.9071 H   0  0  0  0  0  0  0  0  0  0  0  0
   -7.5069    3.2662   -0.3223 H   0  0  0  0  0  0  0  0  0  0  0  0
   -8.8087    3.1093    0.8558 H   0  0  0  0  0  0  0  0  0  0  0  0
   -7.1599    2.7162    1.3159 H   0  0  0  0  0  0  0  0  0  0  0  0
   -9.4452    0.1522   -1.3175 H   0  0  0  0  0  0  0  0  0  0  0  0
  -10.1533    1.6086   -0.6234 H   0  0  0  0  0  0  0  0  0  0  0  0
   -8.9401    1.7395   -1.8951 H   0  0  0  0  0  0  0  0  0  0  0  0
   -0.7654   -0.2102    2.4286 H   0  0  0  0  0  0  0  0  0  0  0  0
    0.8668   -0.3517    1.7866 H   0  0  0  0  0  0  0  0  0  0  0  0
   -0.2245    0.8674    1.1586 H   0  0  0  0  0  0  0  0  0  0  0  0
    4.3911    1.6098   -2.3867 C   0  0  0  0  0  0  0  0  0  0  0  0
 26 25  1  0
 27 25  1  0
 25 24  1  0
 24 22  1  0
 22 20  1  0
 20 19  1  0
  8 28  1  1
 19 23  1  1
 10  9  1  0
 10 15  1  0
 73 13  2  0
  9  8  1  0
 19 16  1  0
 19 21  1  0
  8 16  1  0
  8  7  1  0
 13  1  1  0
 13 12  1  0
  2  1  1  0
  2  3  1  0
 11 12  1  0
 11  3  1  0
  1  4  2  0
 15  6  1  0
  4  5  1  0
  3 14  1  0
 16 17  1  0
  5  6  2  0
  6  7  1  0
  7 18  1  0
 17 18  1  0
  2 29  1  0
  2 30  1  0
  3 31  1  1
  4 32  1  0
 73 33  1  0
 73 34  1  0
  5 35  1  0
  7 36  1  6
  9 37  1  0
  9 38  1  0
 10 39  1  0
 10 40  1  0
 11 41  1  0
 11 42  1  0
 12 43  1  0
 12 44  1  0
 14 45  1  0
 15 46  1  0
 15 47  1  0
 16 48  1  6
 17 49  1  0
 17 50  1  0
 18 51  1  0
 18 52  1  0
 20 53  1  0
 20 54  1  0
 21 55  1  0
 21 56  1  0
 21 57  1  0
 22 58  1  0
 22 59  1  0
 23 60  1  0
 24 61  1  0
 24 62  1  0
 25 63  1  1
 26 64  1  0
 26 65  1  0
 26 66  1  0
 27 67  1  0
 27 68  1  0
 27 69  1  0
 28 70  1  0
 28 71  1  0
 28 72  1  0
M  END
