
     RDKit          3D

 22 22  0  0  0  0  0  0  0  0999 V2000
    0.6829   -0.2760   -1.9392 C   0  0  0  0  0  0  0  0  0  0  0  0
   -0.7229    0.3109   -1.9276 C   0  0  0  0  0  0  0  0  0  0  0  0
    0.6962   -0.3068    0.6077 C   0  0  1  0  0  0  0  0  0  0  0  0
   -0.7100    0.2976    0.6197 C   0  0  1  0  0  0  0  0  0  0  0  0
    1.4359    0.1034   -0.6703 C   0  0  0  0  0  0  0  0  0  0  0  0
   -1.4628   -0.0900   -0.6575 C   0  0  0  0  0  0  0  0  0  0  0  0
    1.4183    0.0343    1.8266 N   0  0  0  0  0  0  0  0  0  0  0  0
   -1.4211   -0.0649    1.8392 N   0  0  0  0  0  0  0  0  0  0  0  0
    1.2330    0.0647   -2.8198 H   0  0  0  0  0  0  0  0  0  0  0  0
    0.6211   -1.3669   -2.0162 H   0  0  0  0  0  0  0  0  0  0  0  0
   -0.6622    1.4030   -1.9878 H   0  0  0  0  0  0  0  0  0  0  0  0
   -1.2819   -0.0161   -2.8078 H   0  0  0  0  0  0  0  0  0  0  0  0
    0.5810   -1.4004    0.5932 H   0  0  0  0  0  0  0  0  0  0  0  0
   -0.5949    1.3913    0.6244 H   0  0  0  0  0  0  0  0  0  0  0  0
    1.5919    1.1892   -0.6486 H   0  0  0  0  0  0  0  0  0  0  0  0
    2.4306   -0.3523   -0.6680 H   0  0  0  0  0  0  0  0  0  0  0  0
   -2.4575    0.3653   -0.6364 H   0  0  0  0  0  0  0  0  0  0  0  0
   -1.6184   -1.1759   -0.6534 H   0  0  0  0  0  0  0  0  0  0  0  0
    2.3787   -0.2765    1.7342 H   0  0  0  0  0  0  0  0  0  0  0  0
    1.4725    1.0444    1.9042 H   0  0  0  0  0  0  0  0  0  0  0  0
   -2.3810    0.2518    1.7618 H   0  0  0  0  0  0  0  0  0  0  0  0
   -1.4796   -1.0761    1.8970 H   0  0  0  0  0  0  0  0  0  0  0  0
  1  2  1  0
  1  5  1  0
  1  9  1  0
  1 10  1  0
  2  6  1  0
  2 11  1  0
  2 12  1  0
  3  4  1  0
  3  5  1  0
  3  7  1  0
  3 13  1  6
  4  6  1  0
  4  8  1  0
  4 14  1  6
  5 15  1  0
  5 16  1  0
  6 17  1  0
  6 18  1  0
  7 19  1  0
  7 20  1  0
  8 21  1  0
  8 22  1  0
M  END
