
     RDKit          3D

 18 17  0  0  0  0  0  0  0  0999 V2000
    3.0248   -0.1237   -0.4610 O   0  0  0  0  0  0  0  0  0  0  0  0
    1.8289    0.6012   -0.2956 C   0  0  0  0  0  0  0  0  0  0  0  0
    0.6689   -0.3767   -0.2145 C   0  0  1  0  0  0  0  0  0  0  0  0
    0.8023   -1.2660    0.8754 O   0  0  0  0  0  0  0  0  0  0  0  0
   -0.6751    0.3601   -0.1940 C   0  0  2  0  0  0  0  0  0  0  0  0
   -0.8004    1.2049    0.9319 O   0  0  0  0  0  0  0  0  0  0  0  0
   -1.8355   -0.6141   -0.3038 C   0  0  0  0  0  0  0  0  0  0  0  0
   -3.0328    0.1151   -0.4350 O   0  0  0  0  0  0  0  0  0  0  0  0
    3.7576    0.4967   -0.4194 H   0  0  0  0  0  0  0  0  0  0  0  0
    1.8502    1.2155    0.6147 H   0  0  0  0  0  0  0  0  0  0  0  0
    1.6507    1.2863   -1.1351 H   0  0  0  0  0  0  0  0  0  0  0  0
    0.6864   -1.0009   -1.1155 H   0  0  0  0  0  0  0  0  0  0  0  0
    1.0120   -0.7574    1.6660 H   0  0  0  0  0  0  0  0  0  0  0  0
   -0.7011    1.0203   -1.0687 H   0  0  0  0  0  0  0  0  0  0  0  0
   -1.0096    0.6655    1.7019 H   0  0  0  0  0  0  0  0  0  0  0  0
   -1.6630   -1.2690   -1.1683 H   0  0  0  0  0  0  0  0  0  0  0  0
   -1.8509   -1.2606    0.5841 H   0  0  0  0  0  0  0  0  0  0  0  0
   -3.7654   -0.5059   -0.4042 H   0  0  0  0  0  0  0  0  0  0  0  0
  8  7  1  0
  7  5  1  0
  6  5  1  0
  5  3  1  0
  3  2  1  0
  3  4  1  0
  1  2  1  0
  1  9  1  0
  2 10  1  0
  2 11  1  0
  3 12  1  6
  4 13  1  0
  5 14  1  6
  6 15  1  0
  7 16  1  0
  7 17  1  0
  8 18  1  0
M  END
