
     RDKit          3D

 33 34  0  0  0  0  0  0  0  0999 V2000
    5.6333    0.0210   -0.8793 C   0  0  0  0  0  0  0  0  0  0  0  0
    6.7482    0.7430   -0.3808 C   0  0  0  0  0  0  0  0  0  0  0  0
    6.3857    1.8870    0.2658 C   0  0  0  0  0  0  0  0  0  0  0  0
    0.7083   -2.5177   -0.1751 C   0  0  0  0  0  0  0  0  0  0  0  0
   -0.5626   -3.0118   -0.4250 C   0  0  0  0  0  0  0  0  0  0  0  0
   -1.6708   -2.1934   -0.2719 C   0  0  0  0  0  0  0  0  0  0  0  0
   -5.0184    2.1131   -0.8427 C   0  0  0  0  0  0  0  0  0  0  0  0
   -1.5065   -0.8724    0.1387 C   0  0  0  0  0  0  0  0  0  0  0  0
   -0.2278   -0.3884    0.4034 C   0  0  0  0  0  0  0  0  0  0  0  0
    0.8857   -1.2035    0.2509 C   0  0  0  0  0  0  0  0  0  0  0  0
    2.2589   -0.6627    0.4997 C   0  0  0  0  0  0  0  0  0  0  0  0
    4.4428    0.6329   -0.6062 C   0  0  0  0  0  0  0  0  0  0  0  0
   -3.8092   -0.2718   -0.3128 N   0  0  0  0  0  0  0  0  0  0  0  0
   -2.5702    1.0472    1.0392 O   0  0  0  0  0  0  0  0  0  0  0  0
   -5.5116    0.6930    1.3218 O   0  0  0  0  0  0  0  0  0  0  0  0
   -6.2096   -0.2375   -0.8989 O   0  0  0  0  0  0  0  0  0  0  0  0
   -5.2735    0.5283   -0.0969 S   0  0  1  0  0  0  0  0  0  0  0  0
    2.8449    0.1009   -1.0635 S   0  0  0  0  0  0  0  0  0  0  0  0
    4.6897    2.1053    0.2619 S   0  0  0  0  0  0  0  0  0  0  0  0
    5.7042   -0.9128   -1.4190 H   0  0  0  0  0  0  0  0  0  0  0  0
    7.7738    0.4228   -0.4938 H   0  0  0  0  0  0  0  0  0  0  0  0
    7.0300    2.6123    0.7390 H   0  0  0  0  0  0  0  0  0  0  0  0
    1.5702   -3.1615   -0.2998 H   0  0  0  0  0  0  0  0  0  0  0  0
   -0.6930   -4.0397   -0.7350 H   0  0  0  0  0  0  0  0  0  0  0  0
   -2.6529   -2.6108   -0.4509 H   0  0  0  0  0  0  0  0  0  0  0  0
   -4.7487    1.9718   -1.8860 H   0  0  0  0  0  0  0  0  0  0  0  0
   -5.9581    2.6587   -0.7679 H   0  0  0  0  0  0  0  0  0  0  0  0
   -4.2355    2.6446   -0.3088 H   0  0  0  0  0  0  0  0  0  0  0  0
   -0.0985    0.6361    0.7299 H   0  0  0  0  0  0  0  0  0  0  0  0
    2.2513    0.0964    1.2811 H   0  0  0  0  0  0  0  0  0  0  0  0
    2.9534   -1.4530    0.7820 H   0  0  0  0  0  0  0  0  0  0  0  0
   -3.8199   -0.9891   -1.0269 H   0  0  0  0  0  0  0  0  0  0  0  0
   -2.6496    0.0560    0.3468 C   0  0  0  0  0  0  0  0  0  0  0  0
  5  6  1  0
  5  4  2  0
  6  8  2  0
  4 10  1  0
 14 33  2  0
  8 33  1  0
  8  9  1  0
 33 13  1  0
 10  9  2  0
 10 11  1  0
 18 11  1  0
 18 12  1  0
  7 17  1  0
  1 12  2  0
  1  2  1  0
 12 19  1  0
 17 13  1  1
  2  3  2  0
 17 15  2  0
 17 16  2  0
 19  3  1  0
  1 20  1  0
  2 21  1  0
  3 22  1  0
  4 23  1  0
  5 24  1  0
  6 25  1  0
  7 26  1  0
  7 27  1  0
  7 28  1  0
  9 29  1  0
 11 30  1  0
 11 31  1  0
 13 32  1  0
M  END
