
     RDKit          3D

 35 36  0  0  0  0  0  0  0  0999 V2000
    2.1969   -0.5694   -0.1509 C   0  0  1  0  0  0  0  0  0  0  0  0
    4.5135   -0.7387    0.6080 C   0  0  0  0  0  0  0  0  0  0  0  0
    1.0487    0.3461    0.2150 C   0  0  0  0  0  0  0  0  0  0  0  0
   -1.3172    0.4093    0.8973 C   0  0  0  0  0  0  0  0  0  0  0  0
   -2.5612   -0.4061    0.5787 C   0  0  1  0  0  0  0  0  0  0  0  0
   -4.2478   -0.4946   -1.1792 C   0  0  0  0  0  0  0  0  0  0  0  0
   -3.8513    0.3130    1.0447 C   0  0  0  0  0  0  0  0  0  0  0  0
    1.1935    1.5572    0.3345 O   0  0  0  0  0  0  0  0  0  0  0  0
    3.1553    0.0508   -1.1932 C   0  0  0  0  0  0  0  0  0  0  0  0
    3.0722   -0.8401    1.1038 C   0  0  0  0  0  0  0  0  0  0  0  0
    4.4405    0.3732   -0.4321 C   0  0  0  0  0  0  0  0  0  0  0  0
   -0.1244   -0.2677    0.4360 N   0  0  0  0  0  0  0  0  0  0  0  0
   -4.6305    0.6385   -0.2325 C   0  0  0  0  0  0  0  0  0  0  0  0
   -2.7480   -0.6497   -0.9342 C   0  0  0  0  0  0  0  0  0  0  0  0
    1.8028   -1.5155   -0.5287 H   0  0  0  0  0  0  0  0  0  0  0  0
    5.2208   -0.5381    1.4142 H   0  0  0  0  0  0  0  0  0  0  0  0
    4.8174   -1.6755    0.1322 H   0  0  0  0  0  0  0  0  0  0  0  0
   -1.3837    1.3843    0.4092 H   0  0  0  0  0  0  0  0  0  0  0  0
   -1.2581    0.5948    1.9755 H   0  0  0  0  0  0  0  0  0  0  0  0
   -2.4773   -1.3672    1.0962 H   0  0  0  0  0  0  0  0  0  0  0  0
   -4.7761   -1.4100   -0.8968 H   0  0  0  0  0  0  0  0  0  0  0  0
   -4.4879   -0.2882   -2.2235 H   0  0  0  0  0  0  0  0  0  0  0  0
   -4.4395   -0.3518    1.6800 H   0  0  0  0  0  0  0  0  0  0  0  0
   -3.6359    1.2039    1.6391 H   0  0  0  0  0  0  0  0  0  0  0  0
    3.3643   -0.6914   -1.9663 H   0  0  0  0  0  0  0  0  0  0  0  0
    2.7323    0.9204   -1.6960 H   0  0  0  0  0  0  0  0  0  0  0  0
    2.9001   -0.0710    1.8609 H   0  0  0  0  0  0  0  0  0  0  0  0
    2.8394   -1.8012    1.5624 H   0  0  0  0  0  0  0  0  0  0  0  0
    4.3504    1.3418    0.0674 H   0  0  0  0  0  0  0  0  0  0  0  0
    5.3163    0.4183   -1.0813 H   0  0  0  0  0  0  0  0  0  0  0  0
   -0.1544   -1.2733    0.3784 H   0  0  0  0  0  0  0  0  0  0  0  0
   -4.2961    1.5934   -0.6488 H   0  0  0  0  0  0  0  0  0  0  0  0
   -5.7052    0.7190   -0.0621 H   0  0  0  0  0  0  0  0  0  0  0  0
   -2.2063    0.1127   -1.5030 H   0  0  0  0  0  0  0  0  0  0  0  0
   -2.3615   -1.6179   -1.2552 H   0  0  0  0  0  0  0  0  0  0  0  0
  6 14  1  0
  6 13  1  0
 14  5  1  0
 13  7  1  0
 10  2  1  0
 10  1  1  0
  7  5  1  0
  5  4  1  0
  2 11  1  0
 12  4  1  0
 12  3  1  0
  1  3  1  0
  1  9  1  0
  3  8  2  0
 11  9  1  0
  1 15  1  6
  2 16  1  0
  2 17  1  0
  4 18  1  0
  4 19  1  0
  5 20  1  1
  6 21  1  0
  6 22  1  0
  7 23  1  0
  7 24  1  0
  9 25  1  0
  9 26  1  0
 10 27  1  0
 10 28  1  0
 11 29  1  0
 11 30  1  0
 12 31  1  0
 13 32  1  0
 13 33  1  0
 14 34  1  0
 14 35  1  0
M  END
