
     RDKit          3D

 47 50  0  0  0  0  0  0  0  0999 V2000
   -0.6731   -3.0092    0.1359 C   0  0  0  0  0  0  0  0  0  0  0  0
   -1.5361   -3.9789    0.6156 C   0  0  0  0  0  0  0  0  0  0  0  0
   -2.9116   -3.7652    0.5817 C   0  0  0  0  0  0  0  0  0  0  0  0
   -3.7139   -4.7362    1.0538 O   0  0  0  0  0  0  0  0  0  0  0  0
   -3.4031   -2.5697    0.0570 C   0  0  0  0  0  0  0  0  0  0  0  0
   -2.5299   -1.6068   -0.4127 C   0  0  0  0  0  0  0  0  0  0  0  0
   -1.1449   -1.7965   -0.3750 C   0  0  0  0  0  0  0  0  0  0  0  0
   -0.2267   -0.7923   -0.8876 C   0  0  0  0  0  0  0  0  0  0  0  0
    1.1518   -1.1331   -1.4989 C   0  0  1  0  0  0  0  0  0  0  0  0
    1.2331   -0.1533   -2.5187 O   0  0  0  0  0  0  0  0  0  0  0  0
    2.2219   -0.5996   -0.5288 C   0  0  0  0  0  0  0  0  0  0  0  0
    3.0422   -1.3918    0.3982 C   0  0  0  0  0  0  0  0  0  0  0  0
    2.9571   -2.6831    0.1135 O   0  0  0  0  0  0  0  0  0  0  0  0
    3.6965   -3.5913    0.9326 C   0  0  0  0  0  0  0  0  0  0  0  0
    3.6972   -0.9368    1.3011 O   0  0  0  0  0  0  0  0  0  0  0  0
    2.1234    0.7251   -0.6338 C   0  0  0  0  0  0  0  0  0  0  0  0
    2.8000    1.8177    0.0872 C   0  0  0  0  0  0  0  0  0  0  0  0
    1.9100    2.7347    0.4228 O   0  0  0  0  0  0  0  0  0  0  0  0
    2.3768    3.8930    1.1187 C   0  0  0  0  0  0  0  0  0  0  0  0
    3.9805    1.8836    0.3067 O   0  0  0  0  0  0  0  0  0  0  0  0
    1.0075    0.9517   -1.6690 C   0  0  2  0  0  0  0  0  0  0  0  0
   -0.3003    0.5447   -0.9687 C   0  0  0  0  0  0  0  0  0  0  0  0
   -1.2427    1.5193   -0.4333 C   0  0  0  0  0  0  0  0  0  0  0  0
   -1.5878    2.6555   -1.1650 C   0  0  0  0  0  0  0  0  0  0  0  0
   -2.4737    3.5956   -0.6652 C   0  0  0  0  0  0  0  0  0  0  0  0
   -3.0291    3.4250    0.6000 C   0  0  0  0  0  0  0  0  0  0  0  0
   -3.8937    4.3037    1.1407 O   0  0  0  0  0  0  0  0  0  0  0  0
   -2.6815    2.3043    1.3535 C   0  0  0  0  0  0  0  0  0  0  0  0
   -1.8013    1.3718    0.8394 C   0  0  0  0  0  0  0  0  0  0  0  0
    0.3903   -3.2076    0.1761 H   0  0  0  0  0  0  0  0  0  0  0  0
   -1.1442   -4.9057    1.0150 H   0  0  0  0  0  0  0  0  0  0  0  0
   -4.6395   -4.4815    0.9688 H   0  0  0  0  0  0  0  0  0  0  0  0
   -4.4715   -2.3928    0.0061 H   0  0  0  0  0  0  0  0  0  0  0  0
   -2.9370   -0.6961   -0.8317 H   0  0  0  0  0  0  0  0  0  0  0  0
    1.2849   -2.1414   -1.8839 H   0  0  0  0  0  0  0  0  0  0  0  0
    3.4580   -4.5838    0.5637 H   0  0  0  0  0  0  0  0  0  0  0  0
    4.7682   -3.4174    0.8423 H   0  0  0  0  0  0  0  0  0  0  0  0
    3.4029   -3.5109    1.9785 H   0  0  0  0  0  0  0  0  0  0  0  0
    1.4958    4.4970    1.3112 H   0  0  0  0  0  0  0  0  0  0  0  0
    2.8465    3.6233    2.0639 H   0  0  0  0  0  0  0  0  0  0  0  0
    3.0825    4.4592    0.5117 H   0  0  0  0  0  0  0  0  0  0  0  0
    1.0218    1.9021   -2.1987 H   0  0  0  0  0  0  0  0  0  0  0  0
   -1.1752    2.8116   -2.1540 H   0  0  0  0  0  0  0  0  0  0  0  0
   -2.7312    4.4618   -1.2647 H   0  0  0  0  0  0  0  0  0  0  0  0
   -4.0612    5.0289    0.5291 H   0  0  0  0  0  0  0  0  0  0  0  0
   -3.0964    2.1719    2.3448 H   0  0  0  0  0  0  0  0  0  0  0  0
   -1.5335    0.5166    1.4465 H   0  0  0  0  0  0  0  0  0  0  0  0
 15 12  2  0
 12 13  1  0
 12 11  1  0
 13 14  1  0
 11  9  1  0
 11 16  2  0
 20 17  2  0
 10  9  1  0
 10 21  1  0
  9  8  1  0
 17 16  1  0
 17 18  1  0
 16 21  1  0
 21 22  1  0
  8  7  1  0
  8 22  2  0
 19 18  1  0
  7  6  1  0
  7  1  2  0
  6  5  2  0
 22 23  1  0
  1  2  1  0
  5  3  1  0
  2  3  2  0
  3  4  1  0
 23 29  1  0
 23 24  2  0
 29 28  2  0
 24 25  1  0
 28 26  1  0
 25 26  2  0
 26 27  1  0
  1 30  1  0
  2 31  1  0
  4 32  1  0
  5 33  1  0
  6 34  1  0
  9 35  1  6
 14 36  1  0
 14 37  1  0
 14 38  1  0
 19 39  1  0
 19 40  1  0
 19 41  1  0
 21 42  1  6
 24 43  1  0
 25 44  1  0
 27 45  1  0
 28 46  1  0
 29 47  1  0
M  END
