
     RDKit          3D

 16 16  0  0  0  0  0  0  0  0999 V2000
    0.8881   -0.1444    2.1873 C   0  0  0  0  0  0  0  0  0  0  0  0
    1.2870   -0.0813    0.8633 C   0  0  0  0  0  0  0  0  0  0  0  0
    0.3457    0.0764   -0.1568 C   0  0  0  0  0  0  0  0  0  0  0  0
   -1.0069    0.1701    0.1755 C   0  0  0  0  0  0  0  0  0  0  0  0
   -1.3914    0.1055    1.5086 C   0  0  0  0  0  0  0  0  0  0  0  0
   -0.4571   -0.0511    2.5214 C   0  0  0  0  0  0  0  0  0  0  0  0
    0.1628    0.2420   -2.6331 C   0  0  0  0  0  0  0  0  0  0  0  0
    0.8336    0.1324   -1.4667 N   0  0  0  0  0  0  0  0  0  0  0  0
   -1.0411    0.3211   -2.7748 O   0  0  0  0  0  0  0  0  0  0  0  0
    1.6356   -0.2666    2.9601 H   0  0  0  0  0  0  0  0  0  0  0  0
    2.3400   -0.1550    0.6175 H   0  0  0  0  0  0  0  0  0  0  0  0
   -1.7579    0.2909   -0.5875 H   0  0  0  0  0  0  0  0  0  0  0  0
   -2.4441    0.1799    1.7498 H   0  0  0  0  0  0  0  0  0  0  0  0
   -0.7700   -0.0996    3.5559 H   0  0  0  0  0  0  0  0  0  0  0  0
    0.8595    0.2514   -3.4832 H   0  0  0  0  0  0  0  0  0  0  0  0
    1.8372    0.0766   -1.5589 H   0  0  0  0  0  0  0  0  0  0  0  0
  1  2  2  0
  1  6  1  0
  1 10  1  0
  2  3  1  0
  2 11  1  0
  3  4  2  0
  3  8  1  0
  4  5  1  0
  4 12  1  0
  5  6  2  0
  5 13  1  0
  6 14  1  0
  7  8  1  0
  7  9  2  0
  7 15  1  0
  8 16  1  0
M  END
