
     RDKit          3D

 29 29  0  0  0  0  0  0  0  0999 V2000
   -2.7850    1.8490   -0.2633 C   0  0  0  0  0  0  0  0  0  0  0  0
    1.4214    0.2711   -0.0265 C   0  0  1  0  0  0  0  0  0  0  0  0
   -1.3841    1.4292    0.1441 C   0  0  0  0  0  0  0  0  0  0  0  0
   -2.2526   -0.9636   -0.0108 C   0  0  0  0  0  0  0  0  0  0  0  0
    0.1892   -0.5609    0.3208 C   0  0  0  0  0  0  0  0  0  0  0  0
    3.8128    0.5727    0.4953 C   0  0  0  0  0  0  0  0  0  0  0  0
    2.6562   -0.3259    0.6908 C   0  0  2  0  0  0  0  0  0  0  0  0
   -1.1005   -0.0073   -0.2862 C   0  0  2  0  0  0  0  0  0  0  0  0
   -3.7994    0.9625    0.4260 C   0  0  0  0  0  0  0  0  0  0  0  0
    1.5596    0.3987   -1.4584 N   0  0  0  0  0  0  0  0  0  0  0  0
   -3.4588   -0.4373    0.2561 N   0  0  0  0  0  0  0  0  0  0  0  0
    2.9840   -1.6263    0.3022 O   0  0  0  0  0  0  0  0  0  0  0  0
   -2.0929   -2.1793   -0.0731 O   0  0  0  0  0  0  0  0  0  0  0  0
   -2.9767    2.8881    0.0074 H   0  0  0  0  0  0  0  0  0  0  0  0
   -2.8976    1.7730   -1.3486 H   0  0  0  0  0  0  0  0  0  0  0  0
    1.2999    1.2776    0.3859 H   0  0  0  0  0  0  0  0  0  0  0  0
   -0.6464    2.0949   -0.3061 H   0  0  0  0  0  0  0  0  0  0  0  0
   -1.2738    1.5234    1.2304 H   0  0  0  0  0  0  0  0  0  0  0  0
    0.3391   -1.5880   -0.0160 H   0  0  0  0  0  0  0  0  0  0  0  0
    0.0897   -0.5988    1.4100 H   0  0  0  0  0  0  0  0  0  0  0  0
    2.4587   -0.3524    1.7659 H   0  0  0  0  0  0  0  0  0  0  0  0
   -0.9845   -0.0104   -1.3767 H   0  0  0  0  0  0  0  0  0  0  0  0
   -3.8467    1.2100    1.4917 H   0  0  0  0  0  0  0  0  0  0  0  0
   -4.7979    1.1230    0.0179 H   0  0  0  0  0  0  0  0  0  0  0  0
    2.3387    0.9846   -1.7277 H   0  0  0  0  0  0  0  0  0  0  0  0
   -4.1922   -1.1078    0.4354 H   0  0  0  0  0  0  0  0  0  0  0  0
    3.0749   -1.6574   -0.6575 H   0  0  0  0  0  0  0  0  0  0  0  0
    1.6548   -0.4944   -1.9244 H   0  0  0  0  0  0  0  0  0  0  0  0
    4.7094    1.2727    0.3250 N   0  0  0  0  0  0  0  0  0  0  0  0
 29  6  3  0
  6  7  1  0
 12  7  1  0
  7  2  1  0
  2 10  1  0
  2  5  1  0
  5  8  1  0
  8  3  1  0
  8  4  1  0
  3  1  1  0
 13  4  2  0
  4 11  1  0
  1  9  1  0
 11  9  1  0
  1 14  1  0
  1 15  1  0
  2 16  1  1
  3 17  1  0
  3 18  1  0
  5 19  1  0
  5 20  1  0
  7 21  1  1
  8 22  1  6
  9 23  1  0
  9 24  1  0
 10 25  1  0
 11 26  1  0
 12 27  1  0
 10 28  1  0
M  END
