
     RDKit          3D

 54 54  0  0  0  0  0  0  0  0999 V2000
    1.0323    1.1881   -7.1332 C   0  0  0  0  0  0  0  0  0  0  0  0
   -0.1269    0.9123   -8.0853 C   0  0  0  0  0  0  0  0  0  0  0  0
   -0.7729   -0.4352   -7.7787 C   0  0  0  0  0  0  0  0  0  0  0  0
   -1.2209   -0.5232   -6.3226 C   0  0  0  0  0  0  0  0  0  0  0  0
   -0.0621   -0.2475   -5.3676 C   0  0  1  0  0  0  0  0  0  0  0  0
    0.5802    1.1059   -5.6781 C   0  0  0  0  0  0  0  0  0  0  0  0
   -0.5287   -0.3379   -3.9990 N   0  0  0  0  0  0  0  0  0  0  0  0
    0.3048   -0.6206   -2.9598 C   0  0  0  0  0  0  0  0  0  0  0  0
    1.4579   -1.0113   -3.1173 O   0  0  0  0  0  0  0  0  0  0  0  0
   -0.2455   -0.4377   -1.7279 N   0  0  0  0  0  0  0  0  0  0  0  0
    0.4088   -0.8798   -0.5160 C   0  0  0  0  0  0  0  0  0  0  0  0
   -0.1797   -0.1683    0.6923 C   0  0  0  0  0  0  0  0  0  0  0  0
    0.4214   -0.6476    2.0068 C   0  0  0  0  0  0  0  0  0  0  0  0
   -0.1758    0.0627    3.2148 C   0  0  0  0  0  0  0  0  0  0  0  0
    0.3888   -0.4166    4.5458 C   0  0  0  0  0  0  0  0  0  0  0  0
   -0.2301    0.2949    5.7423 C   0  0  0  0  0  0  0  0  0  0  0  0
    0.3101   -0.1838    7.0837 C   0  0  0  0  0  0  0  0  0  0  0  0
   -0.3246    0.5279    8.2717 C   0  0  0  0  0  0  0  0  0  0  0  0
    0.2027    0.0498    9.6187 C   0  0  0  0  0  0  0  0  0  0  0  0
   -0.4432    0.7668   10.7961 C   0  0  0  0  0  0  0  0  0  0  0  0
    1.8273    0.4551   -7.3093 H   0  0  0  0  0  0  0  0  0  0  0  0
    1.4662    2.1703   -7.3341 H   0  0  0  0  0  0  0  0  0  0  0  0
    0.2173    0.9393   -9.1219 H   0  0  0  0  0  0  0  0  0  0  0  0
   -0.8750    1.7055   -7.9825 H   0  0  0  0  0  0  0  0  0  0  0  0
   -0.0509   -1.2336   -7.9822 H   0  0  0  0  0  0  0  0  0  0  0  0
   -1.6245   -0.6105   -8.4398 H   0  0  0  0  0  0  0  0  0  0  0  0
   -1.6444   -1.5083   -6.1121 H   0  0  0  0  0  0  0  0  0  0  0  0
   -2.0161    0.2108   -6.1433 H   0  0  0  0  0  0  0  0  0  0  0  0
    0.6891   -1.0291   -5.5090 H   0  0  0  0  0  0  0  0  0  0  0  0
   -0.1542    1.8954   -5.4790 H   0  0  0  0  0  0  0  0  0  0  0  0
    1.4222    1.2758   -5.0034 H   0  0  0  0  0  0  0  0  0  0  0  0
   -1.3873    0.1497   -3.7920 H   0  0  0  0  0  0  0  0  0  0  0  0
   -1.2465   -0.3292   -1.6703 H   0  0  0  0  0  0  0  0  0  0  0  0
    1.4744   -0.6620   -0.5900 H   0  0  0  0  0  0  0  0  0  0  0  0
    0.3153   -1.9652   -0.3845 H   0  0  0  0  0  0  0  0  0  0  0  0
   -1.2638   -0.3270    0.7156 H   0  0  0  0  0  0  0  0  0  0  0  0
   -0.0272    0.9099    0.5861 H   0  0  0  0  0  0  0  0  0  0  0  0
    1.5060   -0.4954    1.9925 H   0  0  0  0  0  0  0  0  0  0  0  0
    0.2671   -1.7274    2.1058 H   0  0  0  0  0  0  0  0  0  0  0  0
   -1.2626   -0.0770    3.2129 H   0  0  0  0  0  0  0  0  0  0  0  0
   -0.0113    1.1416    3.1189 H   0  0  0  0  0  0  0  0  0  0  0  0
    1.4747   -0.2713    4.5566 H   0  0  0  0  0  0  0  0  0  0  0  0
    0.2275   -1.4961    4.6409 H   0  0  0  0  0  0  0  0  0  0  0  0
   -1.3170    0.1566    5.7204 H   0  0  0  0  0  0  0  0  0  0  0  0
   -0.0631    1.3738    5.6487 H   0  0  0  0  0  0  0  0  0  0  0  0
    1.3961   -0.0406    7.1121 H   0  0  0  0  0  0  0  0  0  0  0  0
    0.1460   -1.2632    7.1767 H   0  0  0  0  0  0  0  0  0  0  0  0
   -1.4112    0.3888    8.2382 H   0  0  0  0  0  0  0  0  0  0  0  0
   -0.1576    1.6071    8.1801 H   0  0  0  0  0  0  0  0  0  0  0  0
    1.2874    0.1916    9.6538 H   0  0  0  0  0  0  0  0  0  0  0  0
    0.0366   -1.0282    9.7093 H   0  0  0  0  0  0  0  0  0  0  0  0
   -0.0506    0.4097   11.7487 H   0  0  0  0  0  0  0  0  0  0  0  0
   -0.2650    1.8428   10.7479 H   0  0  0  0  0  0  0  0  0  0  0  0
   -1.5242    0.6148   10.8058 H   0  0  0  0  0  0  0  0  0  0  0  0
  1  2  1  0
  1  6  1  0
  1 21  1  0
  1 22  1  0
  2  3  1  0
  2 23  1  0
  2 24  1  0
  3  4  1  0
  3 25  1  0
  3 26  1  0
  4  5  1  0
  4 27  1  0
  4 28  1  0
  5  6  1  0
  5  7  1  0
  5 29  1  1
  6 30  1  0
  6 31  1  0
  7  8  1  0
  7 32  1  0
  8  9  2  0
  8 10  1  0
 10 11  1  0
 10 33  1  0
 11 12  1  0
 11 34  1  0
 11 35  1  0
 12 13  1  0
 12 36  1  0
 12 37  1  0
 13 14  1  0
 13 38  1  0
 13 39  1  0
 14 15  1  0
 14 40  1  0
 14 41  1  0
 15 16  1  0
 15 42  1  0
 15 43  1  0
 16 17  1  0
 16 44  1  0
 16 45  1  0
 17 18  1  0
 17 46  1  0
 17 47  1  0
 18 19  1  0
 18 48  1  0
 18 49  1  0
 19 20  1  0
 19 50  1  0
 19 51  1  0
 20 52  1  0
 20 53  1  0
 20 54  1  0
M  END
