
     RDKit          3D

 93 93  0  0  0  0  0  0  0  0999 V2000
   -9.2952    1.7532   -0.5447 C   0  0  0  0  0  0  0  0  0  0  0  0
   -8.2438    1.2428    0.4102 C   0  0  0  0  0  0  0  0  0  0  0  0
   -7.2236    0.6434   -0.4141 O   0  0  0  0  0  0  0  0  0  0  0  0
   -6.1556    0.1154    0.2799 C   0  0  0  0  0  0  0  0  0  0  0  0
   -6.1165    0.2319    1.5174 O   0  0  0  0  0  0  0  0  0  0  0  0
   -5.2534   -0.5233   -0.5408 N   0  0  0  0  0  0  0  0  0  0  0  0
   -4.0060   -1.0222   -0.0186 C   0  0  2  0  0  0  0  0  0  0  0  0
   -2.8341   -0.1433   -0.5375 C   0  0  0  0  0  0  0  0  0  0  0  0
   -2.6741    0.0402   -1.7614 O   0  0  0  0  0  0  0  0  0  0  0  0
   -3.7235   -2.4708   -0.4579 C   0  0  0  0  0  0  0  0  0  0  0  0
   -2.6836   -3.1344    0.4343 C   0  0  1  0  0  0  0  0  0  0  0  0
   -3.2980   -3.6180    1.7316 C   0  0  0  0  0  0  0  0  0  0  0  0
   -2.0405   -4.2933   -0.3011 C   0  0  0  0  0  0  0  0  0  0  0  0
   -2.0054    0.4290    0.3986 N   0  0  0  0  0  0  0  0  0  0  0  0
   -0.8682    1.2383    0.0375 C   0  0  2  0  0  0  0  0  0  0  0  0
    0.4419    0.4892    0.4108 C   0  0  0  0  0  0  0  0  0  0  0  0
    0.6497    0.1377    1.5881 O   0  0  0  0  0  0  0  0  0  0  0  0
   -0.8440    2.5929    0.7686 C   0  0  0  0  0  0  0  0  0  0  0  0
    0.1074    3.5766    0.1020 C   0  0  1  0  0  0  0  0  0  0  0  0
   -0.5229    4.2118   -1.1200 C   0  0  0  0  0  0  0  0  0  0  0  0
    0.5201    4.6467    1.0930 C   0  0  0  0  0  0  0  0  0  0  0  0
    2.6106   -0.4056   -0.3943 C   0  0  2  0  0  0  0  0  0  0  0  0
    1.3523    0.2744   -0.5986 N   0  0  0  0  0  0  0  0  0  0  0  0
    3.8171    0.4399   -0.8960 C   0  0  1  0  0  0  0  0  0  0  0  0
    3.6305    0.8997   -2.2213 O   0  0  0  0  0  0  0  0  0  0  0  0
    4.1209    1.5938    0.0792 C   0  0  1  0  0  0  0  0  0  0  0  0
    4.4740    1.0716    1.3484 O   0  0  0  0  0  0  0  0  0  0  0  0
    5.2115    2.5037   -0.4764 C   0  0  0  0  0  0  0  0  0  0  0  0
    5.3950    3.7542    0.3706 C   0  0  1  0  0  0  0  0  0  0  0  0
    6.7576    4.3639    0.1126 C   0  0  0  0  0  0  0  0  0  0  0  0
    4.3083    4.7725    0.0960 C   0  0  0  0  0  0  0  0  0  0  0  0
    2.6569   -1.7844   -1.0794 C   0  0  0  0  0  0  0  0  0  0  0  0
    3.5984   -2.7396   -0.3613 C   0  0  2  0  0  0  0  0  0  0  0  0
    4.0414   -3.8464   -1.3100 C   0  0  0  0  0  0  0  0  0  0  0  0
    2.9369   -3.3411    0.8717 C   0  0  0  0  0  0  0  0  0  0  0  0
    4.9646   -4.8270   -0.6168 C   0  0  0  0  0  0  0  0  0  0  0  0
    3.8623   -4.3172    1.5682 C   0  0  0  0  0  0  0  0  0  0  0  0
    4.3223   -5.4097    0.6251 C   0  0  0  0  0  0  0  0  0  0  0  0
   -8.8619    2.5151   -1.2358 H   0  0  0  0  0  0  0  0  0  0  0  0
   -9.7084    0.9174   -1.1584 H   0  0  0  0  0  0  0  0  0  0  0  0
  -10.1212    2.2192    0.0439 H   0  0  0  0  0  0  0  0  0  0  0  0
   -7.7815    2.0686    1.0114 H   0  0  0  0  0  0  0  0  0  0  0  0
   -8.6477    0.4619    1.1056 H   0  0  0  0  0  0  0  0  0  0  0  0
   -5.3594   -0.4592   -1.5268 H   0  0  0  0  0  0  0  0  0  0  0  0
   -4.0645   -0.9876    1.1121 H   0  0  0  0  0  0  0  0  0  0  0  0
   -4.6719   -3.0688   -0.4219 H   0  0  0  0  0  0  0  0  0  0  0  0
   -3.3665   -2.4645   -1.5221 H   0  0  0  0  0  0  0  0  0  0  0  0
   -1.8790   -2.3836    0.6784 H   0  0  0  0  0  0  0  0  0  0  0  0
   -4.0692   -4.4010    1.5328 H   0  0  0  0  0  0  0  0  0  0  0  0
   -2.5094   -4.0582    2.3885 H   0  0  0  0  0  0  0  0  0  0  0  0
   -3.7847   -2.7759    2.2798 H   0  0  0  0  0  0  0  0  0  0  0  0
   -1.5237   -3.9338   -1.2232 H   0  0  0  0  0  0  0  0  0  0  0  0
   -1.2888   -4.7946    0.3550 H   0  0  0  0  0  0  0  0  0  0  0  0
   -2.8111   -5.0455   -0.5964 H   0  0  0  0  0  0  0  0  0  0  0  0
   -2.1254    0.2315    1.3648 H   0  0  0  0  0  0  0  0  0  0  0  0
   -0.9205    1.4278   -1.0775 H   0  0  0  0  0  0  0  0  0  0  0  0
   -1.8754    3.0333    0.7832 H   0  0  0  0  0  0  0  0  0  0  0  0
   -0.5300    2.4234    1.8334 H   0  0  0  0  0  0  0  0  0  0  0  0
    1.0367    3.0243   -0.2193 H   0  0  0  0  0  0  0  0  0  0  0  0
    0.2031    4.9028   -1.6125 H   0  0  0  0  0  0  0  0  0  0  0  0
   -0.8297    3.4341   -1.8599 H   0  0  0  0  0  0  0  0  0  0  0  0
   -1.4280    4.7995   -0.8322 H   0  0  0  0  0  0  0  0  0  0  0  0
    1.0641    4.1912    1.9556 H   0  0  0  0  0  0  0  0  0  0  0  0
    1.1949    5.3879    0.6002 H   0  0  0  0  0  0  0  0  0  0  0  0
   -0.3762    5.1866    1.4823 H   0  0  0  0  0  0  0  0  0  0  0  0
    2.7505   -0.5397    0.7241 H   0  0  0  0  0  0  0  0  0  0  0  0
    1.0882    0.4541   -1.5380 H   0  0  0  0  0  0  0  0  0  0  0  0
    4.7149   -0.2390   -0.9666 H   0  0  0  0  0  0  0  0  0  0  0  0
    3.0232    1.6493   -2.1909 H   0  0  0  0  0  0  0  0  0  0  0  0
    3.1815    2.1840    0.2812 H   0  0  0  0  0  0  0  0  0  0  0  0
    5.3305    0.6368    1.2537 H   0  0  0  0  0  0  0  0  0  0  0  0
    6.1759    1.9309   -0.5121 H   0  0  0  0  0  0  0  0  0  0  0  0
    4.9539    2.7886   -1.5296 H   0  0  0  0  0  0  0  0  0  0  0  0
    5.3352    3.4503    1.4556 H   0  0  0  0  0  0  0  0  0  0  0  0
    6.8688    4.6330   -0.9653 H   0  0  0  0  0  0  0  0  0  0  0  0
    6.8883    5.2892    0.7239 H   0  0  0  0  0  0  0  0  0  0  0  0
    7.5667    3.6438    0.3832 H   0  0  0  0  0  0  0  0  0  0  0  0
    3.2994    4.3484    0.3243 H   0  0  0  0  0  0  0  0  0  0  0  0
    4.4603    5.6770    0.7332 H   0  0  0  0  0  0  0  0  0  0  0  0
    4.3266    5.0892   -0.9748 H   0  0  0  0  0  0  0  0  0  0  0  0
    1.6332   -2.2420   -1.1097 H   0  0  0  0  0  0  0  0  0  0  0  0
    2.9922   -1.6449   -2.1415 H   0  0  0  0  0  0  0  0  0  0  0  0
    4.5155   -2.1758   -0.0286 H   0  0  0  0  0  0  0  0  0  0  0  0
    3.1378   -4.3869   -1.6958 H   0  0  0  0  0  0  0  0  0  0  0  0
    4.5680   -3.3963   -2.1917 H   0  0  0  0  0  0  0  0  0  0  0  0
    2.6475   -2.5234    1.5824 H   0  0  0  0  0  0  0  0  0  0  0  0
    1.9959   -3.8712    0.5678 H   0  0  0  0  0  0  0  0  0  0  0  0
    5.2306   -5.6537   -1.3256 H   0  0  0  0  0  0  0  0  0  0  0  0
    5.9174   -4.3064   -0.3341 H   0  0  0  0  0  0  0  0  0  0  0  0
    4.7546   -3.7675    1.9679 H   0  0  0  0  0  0  0  0  0  0  0  0
    3.3306   -4.7749    2.4426 H   0  0  0  0  0  0  0  0  0  0  0  0
    3.4438   -6.0413    0.3290 H   0  0  0  0  0  0  0  0  0  0  0  0
    5.0550   -6.0765    1.1497 H   0  0  0  0  0  0  0  0  0  0  0  0
  1  2  1  0
  1 39  1  0
  1 40  1  0
  1 41  1  0
  2  3  1  0
  2 42  1  0
  2 43  1  0
  3  4  1  0
  4  5  2  0
  4  6  1  0
  6  7  1  0
  6 44  1  0
  7  8  1  0
  7 10  1  0
  7 45  1  1
  8  9  2  0
 10 11  1  0
 10 46  1  0
 10 47  1  0
 11 12  1  0
 11 13  1  0
 11 48  1  1
 12 49  1  0
 12 50  1  0
 12 51  1  0
 13 52  1  0
 13 53  1  0
 13 54  1  0
 14 15  1  0
 14 55  1  0
 15 16  1  0
 15 18  1  0
 15 56  1  6
 16 17  2  0
 18 19  1  0
 18 57  1  0
 18 58  1  0
 19 20  1  0
 19 21  1  0
 19 59  1  6
 20 60  1  0
 20 61  1  0
 20 62  1  0
 21 63  1  0
 21 64  1  0
 21 65  1  0
 22 23  1  0
 22 24  1  0
 22 32  1  0
 22 66  1  1
 23 67  1  0
 24 25  1  0
 24 26  1  0
 24 68  1  6
 25 69  1  0
 26 27  1  0
 26 28  1  0
 26 70  1  1
 27 71  1  0
 28 29  1  0
 28 72  1  0
 28 73  1  0
 29 30  1  0
 29 31  1  0
 29 74  1  1
 30 75  1  0
 30 76  1  0
 30 77  1  0
 31 78  1  0
 31 79  1  0
 31 80  1  0
 32 33  1  0
 32 81  1  0
 32 82  1  0
 33 34  1  0
 33 35  1  0
 33 83  1  1
 34 36  1  0
 34 84  1  0
 34 85  1  0
 35 37  1  0
 35 86  1  0
 35 87  1  0
 36 38  1  0
 36 88  1  0
 36 89  1  0
 37 38  1  0
 37 90  1  0
 37 91  1  0
 38 92  1  0
 38 93  1  0
  8 14  1  0
 16 23  1  0
M  END
