
     RDKit          3D

 68 72  0  0  0  0  0  0  0  0999 V2000
    2.7206   -1.4244    0.1507 C   0  0  0  0  0  0  0  0  0  0  0  0
    2.7040   -2.4682   -0.7123 C   0  0  0  0  0  0  0  0  0  0  0  0
   -0.8028   -1.7017    1.6544 C   0  0  0  0  0  0  0  0  0  0  0  0
    3.9443    0.5888   -0.3810 C   0  0  0  0  0  0  0  0  0  0  0  0
    5.2386    1.3095   -0.2573 C   0  0  0  0  0  0  0  0  0  0  0  0
    5.5653    2.2996   -1.1777 C   0  0  0  0  0  0  0  0  0  0  0  0
    7.5289    2.6964   -0.1158 C   0  0  0  0  0  0  0  0  0  0  0  0
    6.1663    1.1062    0.7545 C   0  0  0  0  0  0  0  0  0  0  0  0
    8.8228    3.4379   -0.0679 C   0  0  0  0  0  0  0  0  0  0  0  0
   -1.4982    0.3127    0.5058 C   0  0  0  0  0  0  0  0  0  0  0  0
   -2.4848    0.8605   -0.5090 C   0  0  0  0  0  0  0  0  0  0  0  0
   -4.1639   -0.7032    0.3254 C   0  0  2  0  0  0  0  0  0  0  0  0
   -3.1315   -1.1902    1.3380 C   0  0  0  0  0  0  0  0  0  0  0  0
   -4.2380   -1.6270   -0.8885 C   0  0  0  0  0  0  0  0  0  0  0  0
   -4.7301    1.7023   -0.0995 C   0  0  0  0  0  0  0  0  0  0  0  0
   -6.1508    1.4585    0.3782 C   0  0  1  0  0  0  0  0  0  0  0  0
    1.6042   -3.2628   -0.7654 N   0  0  0  0  0  0  0  0  0  0  0  0
    0.4834   -3.0137    0.0006 C   0  0  0  0  0  0  0  0  0  0  0  0
    0.4809   -1.9175    0.9037 C   0  0  0  0  0  0  0  0  0  0  0  0
    1.6020   -1.1310    1.0008 C   0  0  0  0  0  0  0  0  0  0  0  0
    1.3439   -4.3780   -1.5195 C   0  0  0  0  0  0  0  0  0  0  0  0
    0.0758   -4.7480   -1.1657 C   0  0  0  0  0  0  0  0  0  0  0  0
   -0.4525   -3.9127   -0.2362 N   0  0  0  0  0  0  0  0  0  0  0  0
    1.7235    0.0262    1.9460 C   0  0  0  0  0  0  0  0  0  0  0  0
    3.8894   -0.6298    0.2026 N   0  0  0  0  0  0  0  0  0  0  0  0
    3.0024    1.0805   -0.9767 O   0  0  0  0  0  0  0  0  0  0  0  0
    6.6953    2.9801   -1.1162 N   0  0  0  0  0  0  0  0  0  0  0  0
    7.2973    1.7894    0.8285 N   0  0  0  0  0  0  0  0  0  0  0  0
   -1.7937   -1.0712    0.8046 N   0  0  0  0  0  0  0  0  0  0  0  0
   -3.8508    0.6732   -0.0496 N   0  0  0  0  0  0  0  0  0  0  0  0
   -4.4049    2.7982   -0.5433 O   0  0  0  0  0  0  0  0  0  0  0  0
   -6.9020    2.7581    0.7482 C   0  0  0  0  0  0  0  0  0  0  0  0
   -7.9963    2.9222   -0.3066 C   0  0  0  0  0  0  0  0  0  0  0  0
   -8.3579    1.4843   -0.6596 C   0  0  0  0  0  0  0  0  0  0  0  0
   -6.9940    0.8042   -0.7501 C   0  0  0  0  0  0  0  0  0  0  0  0
    3.5280   -2.7120   -1.3668 H   0  0  0  0  0  0  0  0  0  0  0  0
   -1.1931   -2.6770    1.9513 H   0  0  0  0  0  0  0  0  0  0  0  0
   -0.6336   -1.1418    2.5841 H   0  0  0  0  0  0  0  0  0  0  0  0
    4.8906    2.5403   -1.9919 H   0  0  0  0  0  0  0  0  0  0  0  0
    5.9936    0.3874    1.5492 H   0  0  0  0  0  0  0  0  0  0  0  0
    9.5594    2.9333   -0.6976 H   0  0  0  0  0  0  0  0  0  0  0  0
    8.7069    4.4499   -0.4502 H   0  0  0  0  0  0  0  0  0  0  0  0
    9.2197    3.4720    0.9439 H   0  0  0  0  0  0  0  0  0  0  0  0
   -0.4946    0.3939    0.0824 H   0  0  0  0  0  0  0  0  0  0  0  0
   -1.5215    0.9421    1.4133 H   0  0  0  0  0  0  0  0  0  0  0  0
   -2.3012    1.9199   -0.6617 H   0  0  0  0  0  0  0  0  0  0  0  0
   -2.3376    0.3604   -1.4709 H   0  0  0  0  0  0  0  0  0  0  0  0
   -5.1285   -0.7206    0.8278 H   0  0  0  0  0  0  0  0  0  0  0  0
   -3.2573   -0.6236    2.2775 H   0  0  0  0  0  0  0  0  0  0  0  0
   -3.3355   -2.2393    1.5630 H   0  0  0  0  0  0  0  0  0  0  0  0
   -3.2526   -1.8165   -1.3120 H   0  0  0  0  0  0  0  0  0  0  0  0
   -4.6579   -2.5882   -0.5900 H   0  0  0  0  0  0  0  0  0  0  0  0
   -4.8784   -1.2080   -1.6649 H   0  0  0  0  0  0  0  0  0  0  0  0
   -6.1493    0.8050    1.2507 H   0  0  0  0  0  0  0  0  0  0  0  0
    2.0602   -4.7889   -2.2099 H   0  0  0  0  0  0  0  0  0  0  0  0
   -0.4799   -5.5905   -1.5492 H   0  0  0  0  0  0  0  0  0  0  0  0
    2.6806    0.0033    2.4673 H   0  0  0  0  0  0  0  0  0  0  0  0
    1.6708    0.9761    1.4117 H   0  0  0  0  0  0  0  0  0  0  0  0
    0.9414    0.0351    2.6993 H   0  0  0  0  0  0  0  0  0  0  0  0
    4.7351   -1.0603    0.5434 H   0  0  0  0  0  0  0  0  0  0  0  0
   -7.3613    2.6291    1.7304 H   0  0  0  0  0  0  0  0  0  0  0  0
   -6.2462    3.6241    0.8137 H   0  0  0  0  0  0  0  0  0  0  0  0
   -8.8448    3.5069    0.0523 H   0  0  0  0  0  0  0  0  0  0  0  0
   -7.5999    3.4300   -1.1908 H   0  0  0  0  0  0  0  0  0  0  0  0
   -8.9510    1.0390    0.1444 H   0  0  0  0  0  0  0  0  0  0  0  0
   -8.9348    1.3925   -1.5813 H   0  0  0  0  0  0  0  0  0  0  0  0
   -6.5548    1.0207   -1.7280 H   0  0  0  0  0  0  0  0  0  0  0  0
   -7.0450   -0.2808   -0.6536 H   0  0  0  0  0  0  0  0  0  0  0  0
 22 21  2  0
 22 23  1  0
 21 17  1  0
 23 18  2  0
 17 18  1  0
 17  2  1  0
 18 19  1  0
  2  1  2  0
 19  3  1  0
 19 20  2  0
  1 20  1  0
  1 25  1  0
  3 29  1  0
 20 24  1  0
 25  4  1  0
 26  4  2  0
  4  5  1  0
 29 13  1  0
 29 10  1  0
 13 12  1  0
 10 11  1  0
  5  6  2  0
  5  8  1  0
  6 27  1  0
 27  7  2  0
  8 28  2  0
 12 30  1  0
 12 14  1  0
 11 30  1  0
 30 15  1  0
 35 16  1  0
 35 34  1  0
  7 28  1  0
  7  9  1  0
 15 31  2  0
 15 16  1  0
 16 32  1  0
 34 33  1  0
 32 33  1  0
  2 36  1  0
  3 37  1  0
  3 38  1  0
  6 39  1  0
  8 40  1  0
  9 41  1  0
  9 42  1  0
  9 43  1  0
 10 44  1  0
 10 45  1  0
 11 46  1  0
 11 47  1  0
 12 48  1  1
 13 49  1  0
 13 50  1  0
 14 51  1  0
 14 52  1  0
 14 53  1  0
 16 54  1  1
 21 55  1  0
 22 56  1  0
 24 57  1  0
 24 58  1  0
 24 59  1  0
 25 60  1  0
 32 61  1  0
 32 62  1  0
 33 63  1  0
 33 64  1  0
 34 65  1  0
 34 66  1  0
 35 67  1  0
 35 68  1  0
M  END
