
     RDKit          3D

 37 38  0  0  0  0  0  0  0  0999 V2000
    3.2283   -0.8293   -0.1759 C   0  0  0  0  0  0  0  0  0  0  0  0
   -0.3928   -1.0464   -0.4161 N   0  0  0  0  0  0  0  0  0  0  0  0
    0.9068    0.8065   -0.4868 O   0  0  0  0  0  0  0  0  0  0  0  0
    1.9636   -1.3299   -0.8110 C   0  0  0  0  0  0  0  0  0  0  0  0
   -1.5371   -0.3547   -0.2562 N   0  0  0  0  0  0  0  0  0  0  0  0
    5.9376    1.4034   -1.0159 O   0  0  0  0  0  0  0  0  0  0  0  0
    0.7937   -0.4005   -0.5456 C   0  0  0  0  0  0  0  0  0  0  0  0
   -7.6144    1.4125    0.4990 O   0  0  0  0  0  0  0  0  0  0  0  0
   -2.6159   -1.0224   -0.1648 C   0  0  0  0  0  0  0  0  0  0  0  0
   -3.9073   -0.3724    0.0104 C   0  0  0  0  0  0  0  0  0  0  0  0
    3.5800   -1.2388    1.1101 C   0  0  0  0  0  0  0  0  0  0  0  0
    4.7386   -0.7536    1.6919 C   0  0  0  0  0  0  0  0  0  0  0  0
    5.5644    0.1387    1.0170 C   0  0  0  0  0  0  0  0  0  0  0  0
    5.2143    0.5481   -0.2673 C   0  0  0  0  0  0  0  0  0  0  0  0
    7.1379    1.9209   -0.4795 C   0  0  0  0  0  0  0  0  0  0  0  0
    4.0446    0.0609   -0.8539 C   0  0  0  0  0  0  0  0  0  0  0  0
   -5.0573   -1.1568    0.0743 C   0  0  0  0  0  0  0  0  0  0  0  0
   -6.3093   -0.5869    0.2365 C   0  0  0  0  0  0  0  0  0  0  0  0
   -6.4314    0.7960    0.3403 C   0  0  0  0  0  0  0  0  0  0  0  0
   -5.2861    1.5953    0.2796 C   0  0  0  0  0  0  0  0  0  0  0  0
   -4.0453    1.0157    0.1166 C   0  0  0  0  0  0  0  0  0  0  0  0
   -0.4214   -2.0592   -0.4614 H   0  0  0  0  0  0  0  0  0  0  0  0
    2.0811   -1.3853   -1.8975 H   0  0  0  0  0  0  0  0  0  0  0  0
    1.7406   -2.3442   -0.4744 H   0  0  0  0  0  0  0  0  0  0  0  0
   -8.3321    0.7692    0.5213 H   0  0  0  0  0  0  0  0  0  0  0  0
   -2.6265   -2.1147   -0.2147 H   0  0  0  0  0  0  0  0  0  0  0  0
    2.9510   -1.9364    1.6491 H   0  0  0  0  0  0  0  0  0  0  0  0
    5.0141   -1.0729    2.6887 H   0  0  0  0  0  0  0  0  0  0  0  0
    6.4648    0.4932    1.5004 H   0  0  0  0  0  0  0  0  0  0  0  0
    7.5596    2.5751   -1.2386 H   0  0  0  0  0  0  0  0  0  0  0  0
    6.9634    2.5046    0.4282 H   0  0  0  0  0  0  0  0  0  0  0  0
    7.8599    1.1309   -0.2561 H   0  0  0  0  0  0  0  0  0  0  0  0
    3.7882    0.3817   -1.8569 H   0  0  0  0  0  0  0  0  0  0  0  0
   -4.9768   -2.2345   -0.0034 H   0  0  0  0  0  0  0  0  0  0  0  0
   -7.1876   -1.2203    0.2817 H   0  0  0  0  0  0  0  0  0  0  0  0
   -5.3796    2.6710    0.3593 H   0  0  0  0  0  0  0  0  0  0  0  0
   -3.1686    1.6487    0.0717 H   0  0  0  0  0  0  0  0  0  0  0  0
  1  4  1  0
  1 11  2  0
  1 16  1  0
  2  5  1  0
  2  7  1  0
  3  7  2  0
  4  7  1  0
  5  9  2  0
  6 14  1  0
  6 15  1  0
  8 19  1  0
  9 10  1  0
 10 17  2  0
 10 21  1  0
 11 12  1  0
 12 13  2  0
 13 14  1  0
 14 16  2  0
 17 18  1  0
 18 19  2  0
 19 20  1  0
 20 21  2  0
  2 22  1  0
  4 23  1  0
  4 24  1  0
  8 25  1  0
  9 26  1  0
 11 27  1  0
 12 28  1  0
 13 29  1  0
 15 30  1  0
 15 31  1  0
 15 32  1  0
 16 33  1  0
 17 34  1  0
 18 35  1  0
 20 36  1  0
 21 37  1  0
M  END
