
     RDKit          3D

 29 28  0  0  0  0  0  0  0  0999 V2000
    5.2025   -0.3582   -0.4420 C   0  0  0  0  0  0  0  0  0  0  0  0
    3.8278   -0.8177    0.0253 C   0  0  0  0  0  0  0  0  0  0  0  0
    2.7074    0.2084   -0.1708 C   0  0  2  0  0  0  0  0  0  0  0  0
    2.9426    1.4667    0.6595 C   0  0  0  0  0  0  0  0  0  0  0  0
    1.3552   -0.4370    0.1415 C   0  0  0  0  0  0  0  0  0  0  0  0
    0.1380    0.4377   -0.1341 C   0  0  0  0  0  0  0  0  0  0  0  0
   -1.1706   -0.3239    0.0407 C   0  0  0  0  0  0  0  0  0  0  0  0
   -2.3795    0.5598   -0.2159 C   0  0  0  0  0  0  0  0  0  0  0  0
   -3.6969   -0.1475   -0.0610 C   0  0  0  0  0  0  0  0  0  0  0  0
   -3.8368   -1.2973    0.2750 O   0  0  0  0  0  0  0  0  0  0  0  0
    5.1863   -0.0711   -1.4952 H   0  0  0  0  0  0  0  0  0  0  0  0
    5.5647    0.4982    0.1275 H   0  0  0  0  0  0  0  0  0  0  0  0
    5.9389   -1.1548   -0.3298 H   0  0  0  0  0  0  0  0  0  0  0  0
    3.5588   -1.7324   -0.5126 H   0  0  0  0  0  0  0  0  0  0  0  0
    3.8750   -1.0949    1.0842 H   0  0  0  0  0  0  0  0  0  0  0  0
    2.7022    0.4961   -1.2307 H   0  0  0  0  0  0  0  0  0  0  0  0
    2.9279    1.2345    1.7279 H   0  0  0  0  0  0  0  0  0  0  0  0
    3.9060    1.9250    0.4347 H   0  0  0  0  0  0  0  0  0  0  0  0
    2.1794    2.2234    0.4754 H   0  0  0  0  0  0  0  0  0  0  0  0
    1.2670   -1.3540   -0.4514 H   0  0  0  0  0  0  0  0  0  0  0  0
    1.3435   -0.7537    1.1914 H   0  0  0  0  0  0  0  0  0  0  0  0
    0.1373    1.3067    0.5306 H   0  0  0  0  0  0  0  0  0  0  0  0
    0.1958    0.8347   -1.1539 H   0  0  0  0  0  0  0  0  0  0  0  0
   -1.1864   -1.1787   -0.6409 H   0  0  0  0  0  0  0  0  0  0  0  0
   -1.2184   -0.7347    1.0528 H   0  0  0  0  0  0  0  0  0  0  0  0
   -2.3793    1.4197    0.4623 H   0  0  0  0  0  0  0  0  0  0  0  0
   -2.3383    0.9859   -1.2235 H   0  0  0  0  0  0  0  0  0  0  0  0
   -4.7238    0.6521   -0.3397 O   0  0  0  0  0  0  0  0  0  0  0  0
   -5.5565    0.1694   -0.2312 H   0  0  0  0  0  0  0  0  0  0  0  0
  6  7  1  0
  6  5  1  0
  2  1  1  0
  2  3  1  0
  7  8  1  0
  5  3  1  0
  8  9  1  0
  3  4  1  0
  9 10  2  0
  1 11  1  0
  1 12  1  0
  1 13  1  0
  2 14  1  0
  2 15  1  0
  3 16  1  6
  4 17  1  0
  4 18  1  0
  4 19  1  0
  5 20  1  0
  5 21  1  0
  6 22  1  0
  6 23  1  0
  7 24  1  0
  7 25  1  0
  8 26  1  0
  8 27  1  0
  9 28  1  0
 28 29  1  0
M  END
