
     RDKit          3D

 28 30  0  0  0  0  0  0  0  0999 V2000
   -5.9679    0.3816   -0.6039 O   0  0  0  0  0  0  0  0  0  0  0  0
   -5.4669   -1.5548    0.3878 O   0  0  0  0  0  0  0  0  0  0  0  0
    5.8615   -0.4430   -0.1165 C   0  0  0  0  0  0  0  0  0  0  0  0
   -3.2348    1.1311   -0.5566 C   0  0  0  0  0  0  0  0  0  0  0  0
   -1.8882    1.4155   -0.4926 C   0  0  0  0  0  0  0  0  0  0  0  0
    4.8730    0.2290    0.5447 C   0  0  0  0  0  0  0  0  0  0  0  0
   -2.7827   -0.9485    0.5098 C   0  0  0  0  0  0  0  0  0  0  0  0
    2.1300    1.9222   -0.0240 C   0  0  0  0  0  0  0  0  0  0  0  0
    5.3509   -0.9066   -1.2801 N   0  0  0  0  0  0  0  0  0  0  0  0
   -1.4902   -0.6784    0.5975 N   0  0  0  0  0  0  0  0  0  0  0  0
    4.1205   -0.5562   -1.3757 N   0  0  0  0  0  0  0  0  0  0  0  0
    0.7891    1.9866    0.0909 N   0  0  0  0  0  0  0  0  0  0  0  0
   -5.1579   -0.3744   -0.1254 C   0  0  0  0  0  0  0  0  0  0  0  0
   -3.7105   -0.0759   -0.0502 C   0  0  0  0  0  0  0  0  0  0  0  0
   -1.0564    0.4675    0.1038 C   0  0  0  0  0  0  0  0  0  0  0  0
    2.5186    0.6284   -0.0929 C   0  0  0  0  0  0  0  0  0  0  0  0
    1.3534   -0.2163    0.0524 C   0  0  0  0  0  0  0  0  0  0  0  0
    3.8104    0.1345   -0.2811 N   0  0  0  0  0  0  0  0  0  0  0  0
    0.3127    0.7049    0.2270 N   0  0  0  0  0  0  0  0  0  0  0  0
   -6.4211   -1.7096    0.3212 H   0  0  0  0  0  0  0  0  0  0  0  0
    6.8838   -0.6135    0.1761 H   0  0  0  0  0  0  0  0  0  0  0  0
   -3.9104    1.8423   -1.0121 H   0  0  0  0  0  0  0  0  0  0  0  0
   -1.5017    2.3344   -0.9082 H   0  0  0  0  0  0  0  0  0  0  0  0
    4.8333    0.7386    1.4918 H   0  0  0  0  0  0  0  0  0  0  0  0
   -3.0886   -1.9027    0.9201 H   0  0  0  0  0  0  0  0  0  0  0  0
    2.7162    2.8274   -0.0362 H   0  0  0  0  0  0  0  0  0  0  0  0
    0.3551    2.6929    0.6739 H   0  0  0  0  0  0  0  0  0  0  0  0
    1.2453   -1.4231   -0.0002 O   0  0  0  0  0  0  0  0  0  0  0  0
  1 13  2  0
 28 17  2  0
 13  2  1  0
  2 20  1  0
  6  3  2  0
  3  9  1  0
  3 21  1  0
  4 14  2  0
  4  5  1  0
  4 22  1  0
  5 15  2  0
  5 23  1  0
  6 18  1  0
  6 24  1  0
 14  7  1  0
  7 10  2  0
  7 25  1  0
 12  8  1  0
 16  8  2  0
  8 26  1  0
 11  9  2  0
 15 10  1  0
 18 11  1  0
 19 12  1  0
 12 27  1  0
 13 14  1  0
 15 19  1  0
 17 16  1  0
 16 18  1  0
 19 17  1  0
M  END
