
     RDKit          3D

 54 56  0  0  0  0  0  0  0  0999 V2000
    7.8258    2.2204   -0.0421 C   0  0  0  0  0  0  0  0  0  0  0  0
    6.9085    1.1494    0.5417 C   0  0  1  0  0  0  0  0  0  0  0  0
    7.6936   -0.1609    0.6880 C   0  0  0  0  0  0  0  0  0  0  0  0
    6.4082    1.6120    1.9163 C   0  0  0  0  0  0  0  0  0  0  0  0
    5.7108    0.9325   -0.3916 C   0  0  0  0  0  0  0  0  0  0  0  0
    5.5613    1.5568   -1.4341 O   0  0  0  0  0  0  0  0  0  0  0  0
    4.8179    0.0114    0.0068 N   0  0  0  0  0  0  0  0  0  0  0  0
    3.6285   -0.3143   -0.7524 C   0  0  0  0  0  0  0  0  0  0  0  0
    2.7342   -1.2496    0.0468 C   0  0  0  0  0  0  0  0  0  0  0  0
    1.4883   -1.6940   -0.7142 C   0  0  1  0  0  0  0  0  0  0  0  0
    0.7557   -2.7951    0.0548 C   0  0  0  0  0  0  0  0  0  0  0  0
   -0.5419   -3.2147   -0.6283 C   0  0  0  0  0  0  0  0  0  0  0  0
    0.5334   -0.5360   -1.0134 C   0  0  0  0  0  0  0  0  0  0  0  0
   -0.7395   -1.0569   -1.6674 C   0  0  0  0  0  0  0  0  0  0  0  0
   -1.3894   -2.0458   -0.8291 N   0  0  0  0  0  0  0  0  0  0  0  0
   -2.4763   -1.8347   -0.0663 C   0  0  0  0  0  0  0  0  0  0  0  0
   -2.9711   -2.8816    0.5981 N   0  0  0  0  0  0  0  0  0  0  0  0
   -4.0703   -2.7516    1.3278 C   0  0  0  0  0  0  0  0  0  0  0  0
   -4.7897   -1.6704    1.5151 N   0  0  0  0  0  0  0  0  0  0  0  0
   -4.3043   -0.5798    0.8977 C   0  0  0  0  0  0  0  0  0  0  0  0
   -4.8759    0.7223    1.0122 C   0  0  0  0  0  0  0  0  0  0  0  0
   -3.1564   -0.5934    0.0969 C   0  0  0  0  0  0  0  0  0  0  0  0
   -2.7859    1.0017   -0.4655 S   0  0  0  0  0  0  0  0  0  0  0  0
   -4.1572    1.6620    0.3533 C   0  0  0  0  0  0  0  0  0  0  0  0
   -4.5087    3.1069    0.3006 C   0  0  0  0  0  0  0  0  0  0  0  0
   -5.6389    3.4668    0.5871 O   0  0  0  0  0  0  0  0  0  0  0  0
   -3.5319    3.9413   -0.0803 N   0  0  0  0  0  0  0  0  0  0  0  0
    8.2180    1.9338   -1.0181 H   0  0  0  0  0  0  0  0  0  0  0  0
    7.3156    3.1775   -0.1503 H   0  0  0  0  0  0  0  0  0  0  0  0
    8.6760    2.3711    0.6247 H   0  0  0  0  0  0  0  0  0  0  0  0
    8.5840    0.0099    1.2952 H   0  0  0  0  0  0  0  0  0  0  0  0
    7.1169   -0.9461    1.1793 H   0  0  0  0  0  0  0  0  0  0  0  0
    8.0207   -0.5413   -0.2810 H   0  0  0  0  0  0  0  0  0  0  0  0
    5.8159    2.5255    1.8381 H   0  0  0  0  0  0  0  0  0  0  0  0
    5.7978    0.8594    2.4172 H   0  0  0  0  0  0  0  0  0  0  0  0
    7.2579    1.8238    2.5676 H   0  0  0  0  0  0  0  0  0  0  0  0
    4.9873   -0.5069    0.8530 H   0  0  0  0  0  0  0  0  0  0  0  0
    3.0980    0.6075   -0.9994 H   0  0  0  0  0  0  0  0  0  0  0  0
    3.8989   -0.7879   -1.7019 H   0  0  0  0  0  0  0  0  0  0  0  0
    3.3092   -2.1389    0.3271 H   0  0  0  0  0  0  0  0  0  0  0  0
    2.4359   -0.7630    0.9817 H   0  0  0  0  0  0  0  0  0  0  0  0
    1.8058   -2.1190   -1.6763 H   0  0  0  0  0  0  0  0  0  0  0  0
    1.4010   -3.6712    0.1549 H   0  0  0  0  0  0  0  0  0  0  0  0
    0.5272   -2.4491    1.0685 H   0  0  0  0  0  0  0  0  0  0  0  0
   -0.3304   -3.6544   -1.6075 H   0  0  0  0  0  0  0  0  0  0  0  0
   -1.0731   -3.9554   -0.0401 H   0  0  0  0  0  0  0  0  0  0  0  0
    0.2810   -0.0107   -0.0857 H   0  0  0  0  0  0  0  0  0  0  0  0
    0.9980    0.1927   -1.6806 H   0  0  0  0  0  0  0  0  0  0  0  0
   -1.4212   -0.2571   -1.9445 H   0  0  0  0  0  0  0  0  0  0  0  0
   -0.4870   -1.5525   -2.6100 H   0  0  0  0  0  0  0  0  0  0  0  0
   -4.4075   -3.6548    1.8263 H   0  0  0  0  0  0  0  0  0  0  0  0
   -5.7703    0.9296    1.5815 H   0  0  0  0  0  0  0  0  0  0  0  0
   -2.5668    3.6634   -0.1471 H   0  0  0  0  0  0  0  0  0  0  0  0
   -3.7131    4.9324   -0.1001 H   0  0  0  0  0  0  0  0  0  0  0  0
  1  2  1  0
  2  3  1  0
  2  4  1  0
  2  5  1  6
  5  6  2  0
  5  7  1  0
  7  8  1  0
  8  9  1  0
  9 10  1  0
 10 11  1  0
 10 13  1  0
 11 12  1  0
 12 15  1  0
 13 14  1  0
 14 15  1  0
 15 16  1  0
 16 17  2  0
 16 22  1  0
 17 18  1  0
 18 19  2  0
 19 20  1  0
 20 21  1  0
 20 22  2  0
 21 24  2  0
 22 23  1  0
 23 24  1  0
 24 25  1  0
 25 26  2  0
 25 27  1  0
  1 28  1  0
  1 29  1  0
  1 30  1  0
  3 31  1  0
  3 32  1  0
  3 33  1  0
  4 34  1  0
  4 35  1  0
  4 36  1  0
  7 37  1  0
  8 38  1  0
  8 39  1  0
  9 40  1  0
  9 41  1  0
 10 42  1  6
 11 43  1  0
 11 44  1  0
 12 45  1  0
 12 46  1  0
 13 47  1  0
 13 48  1  0
 14 49  1  0
 14 50  1  0
 18 51  1  0
 21 52  1  0
 27 53  1  0
 27 54  1  0
M  END
