
     RDKit          3D

 27 28  0  0  0  0  0  0  0  0999 V2000
   -1.0443    0.3969   -0.5714 N   0  0  0  0  0  0  0  0  0  0  0  0
    1.2249   -0.5013   -0.3691 C   0  0  0  0  0  0  0  0  0  0  0  0
   -0.4578    1.7072   -0.7771 C   0  0  0  0  0  0  0  0  0  0  0  0
    1.6371    0.7225    0.1570 C   0  0  0  0  0  0  0  0  0  0  0  0
    0.6987    1.9003    0.1886 C   0  0  0  0  0  0  0  0  0  0  0  0
    3.3989   -1.4481    0.0987 C   0  0  0  0  0  0  0  0  0  0  0  0
    2.9346    0.8396    0.6549 C   0  0  0  0  0  0  0  0  0  0  0  0
    3.8120   -0.2317    0.6306 C   0  0  0  0  0  0  0  0  0  0  0  0
    2.1124   -1.5752   -0.3974 C   0  0  0  0  0  0  0  0  0  0  0  0
   -0.1626   -0.6886   -0.9373 C   0  0  0  0  0  0  0  0  0  0  0  0
   -2.2583    0.2566    0.0021 C   0  0  0  0  0  0  0  0  0  0  0  0
   -2.9471    1.2086    0.3300 O   0  0  0  0  0  0  0  0  0  0  0  0
   -2.7525   -1.1673    0.2197 C   0  0  0  0  0  0  0  0  0  0  0  0
   -4.0321   -1.1007    0.7764 O   0  0  0  0  0  0  0  0  0  0  0  0
   -0.1023    1.7689   -1.8099 H   0  0  0  0  0  0  0  0  0  0  0  0
   -1.2144    2.4748   -0.6447 H   0  0  0  0  0  0  0  0  0  0  0  0
    1.2379    2.8170   -0.0598 H   0  0  0  0  0  0  0  0  0  0  0  0
    0.3070    2.0366    1.2013 H   0  0  0  0  0  0  0  0  0  0  0  0
    4.0754   -2.2925    0.0756 H   0  0  0  0  0  0  0  0  0  0  0  0
    3.2591    1.7903    1.0622 H   0  0  0  0  0  0  0  0  0  0  0  0
    4.8150   -0.1196    1.0221 H   0  0  0  0  0  0  0  0  0  0  0  0
    1.7859   -2.5237   -0.8090 H   0  0  0  0  0  0  0  0  0  0  0  0
   -0.5565   -1.6428   -0.5956 H   0  0  0  0  0  0  0  0  0  0  0  0
   -0.1020   -0.7572   -2.0297 H   0  0  0  0  0  0  0  0  0  0  0  0
   -2.7473   -1.7028   -0.7396 H   0  0  0  0  0  0  0  0  0  0  0  0
   -2.0460   -1.6942    0.8761 H   0  0  0  0  0  0  0  0  0  0  0  0
   -4.3294   -2.0035    0.9211 H   0  0  0  0  0  0  0  0  0  0  0  0
  8  6  2  0
  8  7  1  0
  6  9  1  0
  7  4  2  0
  9  2  2  0
  4  2  1  0
  4  5  1  0
  2 10  1  0
  5  3  1  0
 10  1  1  0
  3  1  1  0
  1 11  1  0
 11 12  2  0
 11 13  1  0
 13 14  1  0
  3 15  1  0
  3 16  1  0
  5 17  1  0
  5 18  1  0
  6 19  1  0
  7 20  1  0
  8 21  1  0
  9 22  1  0
 10 23  1  0
 10 24  1  0
 13 25  1  0
 13 26  1  0
 14 27  1  0
M  END
