
     RDKit          3D

 30 32  0  0  0  0  0  0  0  0999 V2000
    5.2136   -0.1059   -0.4617 C   0  0  0  0  0  0  0  0  0  0  0  0
    3.7454   -0.0164   -0.2416 C   0  0  0  0  0  0  0  0  0  0  0  0
    3.2229    1.0493    0.2978 N   0  0  0  0  0  0  0  0  0  0  0  0
    3.0073   -1.0846   -0.6262 N   0  0  0  0  0  0  0  0  0  0  0  0
    1.6181   -1.2242   -0.5139 C   0  0  0  0  0  0  0  0  0  0  0  0
    1.0554   -2.2227   -0.9126 O   0  0  0  0  0  0  0  0  0  0  0  0
    1.0580   -0.0596    0.1026 C   0  0  0  0  0  0  0  0  0  0  0  0
    1.8975    0.9712    0.4372 C   0  0  0  0  0  0  0  0  0  0  0  0
    1.1956    1.9705    0.9473 O   0  0  0  0  0  0  0  0  0  0  0  0
   -0.1373    1.6193    0.9634 N   0  0  0  0  0  0  0  0  0  0  0  0
   -0.2325    0.4210    0.4643 C   0  0  0  0  0  0  0  0  0  0  0  0
   -1.5176   -0.2803    0.3653 C   0  0  0  0  0  0  0  0  0  0  0  0
   -1.6046   -1.5876    0.8322 C   0  0  0  0  0  0  0  0  0  0  0  0
   -2.7960   -2.2930    0.7723 C   0  0  0  0  0  0  0  0  0  0  0  0
   -3.9122   -1.6826    0.2222 C   0  0  0  0  0  0  0  0  0  0  0  0
   -3.8478   -0.3830   -0.2609 C   0  0  0  0  0  0  0  0  0  0  0  0
   -2.6536    0.3319   -0.1904 C   0  0  0  0  0  0  0  0  0  0  0  0
   -2.5067    1.5851   -0.6425 O   0  0  0  0  0  0  0  0  0  0  0  0
   -3.6065    2.2205   -1.2678 C   0  0  0  0  0  0  0  0  0  0  0  0
    5.4344   -0.2698   -1.5169 H   0  0  0  0  0  0  0  0  0  0  0  0
    5.6977    0.8088   -0.1347 H   0  0  0  0  0  0  0  0  0  0  0  0
    5.6294   -0.9462    0.0959 H   0  0  0  0  0  0  0  0  0  0  0  0
    3.4958   -1.8666   -1.0462 H   0  0  0  0  0  0  0  0  0  0  0  0
   -0.7286   -2.0525    1.2643 H   0  0  0  0  0  0  0  0  0  0  0  0
   -2.8501   -3.3045    1.1505 H   0  0  0  0  0  0  0  0  0  0  0  0
   -4.8513   -2.2174    0.1648 H   0  0  0  0  0  0  0  0  0  0  0  0
   -4.7363    0.0600   -0.6879 H   0  0  0  0  0  0  0  0  0  0  0  0
   -3.9353    1.6802   -2.1586 H   0  0  0  0  0  0  0  0  0  0  0  0
   -4.4539    2.3320   -0.5873 H   0  0  0  0  0  0  0  0  0  0  0  0
   -3.2609    3.2079   -1.5621 H   0  0  0  0  0  0  0  0  0  0  0  0
  9 10  1  0
  9  8  1  0
 10 11  2  0
 18 19  1  0
 18 17  1  0
  8  3  1  0
  8  7  2  0
  3  2  2  0
 11  7  1  0
 11 12  1  0
 17 12  1  0
 17 16  2  0
  7  5  1  0
 12 13  2  0
  2  1  1  0
  2  4  1  0
 16 15  1  0
 13 14  1  0
  5  4  1  0
  5  6  2  0
 15 14  2  0
  1 20  1  0
  1 21  1  0
  1 22  1  0
  4 23  1  0
 13 24  1  0
 14 25  1  0
 15 26  1  0
 16 27  1  0
 19 28  1  0
 19 29  1  0
 19 30  1  0
M  END
