
     RDKit          3D

 51 52  0  0  0  0  0  0  0  0999 V2000
   -6.1965    3.9571   -1.1972 O   0  0  0  0  0  0  0  0  0  0  0  0
   -6.2926    2.7241   -0.7238 C   0  0  0  0  0  0  0  0  0  0  0  0
   -7.3236    2.2199   -0.3529 O   0  0  0  0  0  0  0  0  0  0  0  0
   -4.9726    2.0504   -0.7145 C   0  0  0  0  0  0  0  0  0  0  0  0
   -4.8572    0.7853   -0.3256 C   0  0  0  0  0  0  0  0  0  0  0  0
   -3.5327    0.1115   -0.3315 C   0  0  0  0  0  0  0  0  0  0  0  0
   -2.4987    0.6590   -0.6576 O   0  0  0  0  0  0  0  0  0  0  0  0
   -3.5946   -1.1884    0.0496 N   0  0  0  0  0  0  0  0  0  0  0  0
   -2.4632   -1.9330    0.1394 N   0  0  0  0  0  0  0  0  0  0  0  0
   -1.5938   -1.7383    1.1648 C   0  0  0  0  0  0  0  0  0  0  0  0
   -1.8228   -1.0106    2.1073 O   0  0  0  0  0  0  0  0  0  0  0  0
   -0.3337   -2.5246    1.0274 C   0  0  0  0  0  0  0  0  0  0  0  0
   -0.3966   -3.9101    0.9498 C   0  0  0  0  0  0  0  0  0  0  0  0
    0.6716   -4.6923    0.8751 N   0  0  0  0  0  0  0  0  0  0  0  0
    1.8550   -4.0950    0.8611 C   0  0  0  0  0  0  0  0  0  0  0  0
    2.0242   -2.7193    0.9210 C   0  0  0  0  0  0  0  0  0  0  0  0
    0.9140   -1.8907    1.0133 C   0  0  0  0  0  0  0  0  0  0  0  0
    1.0320   -0.3859    1.0855 C   0  0  0  0  0  0  0  0  0  0  0  0
    2.3658    0.1466    0.6450 C   0  0  0  0  0  0  0  0  0  0  0  0
    2.6233    0.4018   -0.6997 C   0  0  0  0  0  0  0  0  0  0  0  0
    3.8614    0.8650   -1.1115 C   0  0  0  0  0  0  0  0  0  0  0  0
    4.9005    1.0884   -0.2034 C   0  0  0  0  0  0  0  0  0  0  0  0
    6.2502    1.5934   -0.7028 C   0  0  1  0  0  0  0  0  0  0  0  0
    6.0606    2.9630   -1.3671 C   0  0  0  0  0  0  0  0  0  0  0  0
    7.2665    1.7368    0.4297 C   0  0  0  0  0  0  0  0  0  0  0  0
    6.8154    0.6010   -1.7280 C   0  0  0  0  0  0  0  0  0  0  0  0
    4.6325    0.8362    1.1391 C   0  0  0  0  0  0  0  0  0  0  0  0
    3.3875    0.3767    1.5555 C   0  0  0  0  0  0  0  0  0  0  0  0
   -7.0673    4.3824   -1.2091 H   0  0  0  0  0  0  0  0  0  0  0  0
   -4.1078    2.6161   -1.0393 H   0  0  0  0  0  0  0  0  0  0  0  0
   -5.7270    0.2218   -0.0068 H   0  0  0  0  0  0  0  0  0  0  0  0
   -4.4530   -1.6089    0.3732 H   0  0  0  0  0  0  0  0  0  0  0  0
   -2.1605   -2.4059   -0.7007 H   0  0  0  0  0  0  0  0  0  0  0  0
   -1.3598   -4.4100    0.9624 H   0  0  0  0  0  0  0  0  0  0  0  0
    2.7234   -4.7404    0.7925 H   0  0  0  0  0  0  0  0  0  0  0  0
    3.0244   -2.3095    0.8863 H   0  0  0  0  0  0  0  0  0  0  0  0
    0.2404    0.0621    0.4792 H   0  0  0  0  0  0  0  0  0  0  0  0
    0.8299   -0.0761    2.1143 H   0  0  0  0  0  0  0  0  0  0  0  0
    1.8449    0.2402   -1.4366 H   0  0  0  0  0  0  0  0  0  0  0  0
    3.2173    0.1926    2.6104 H   0  0  0  0  0  0  0  0  0  0  0  0
    4.0127    1.0562   -2.1670 H   0  0  0  0  0  0  0  0  0  0  0  0
    5.3937    0.9941    1.8910 H   0  0  0  0  0  0  0  0  0  0  0  0
    5.6535    3.6893   -0.6612 H   0  0  0  0  0  0  0  0  0  0  0  0
    7.0160    3.3471   -1.7305 H   0  0  0  0  0  0  0  0  0  0  0  0
    5.3831    2.9114   -2.2207 H   0  0  0  0  0  0  0  0  0  0  0  0
    7.4609    0.7827    0.9236 H   0  0  0  0  0  0  0  0  0  0  0  0
    8.2163    2.0948    0.0297 H   0  0  0  0  0  0  0  0  0  0  0  0
    6.9431    2.4519    1.1880 H   0  0  0  0  0  0  0  0  0  0  0  0
    6.1587    0.4815   -2.5904 H   0  0  0  0  0  0  0  0  0  0  0  0
    7.7820    0.9482   -2.1001 H   0  0  0  0  0  0  0  0  0  0  0  0
    6.9642   -0.3831   -1.2798 H   0  0  0  0  0  0  0  0  0  0  0  0
  1  2  1  0
  2  3  2  0
  2  4  1  0
  4  5  2  0
  5  6  1  0
  6  7  2  0
  6  8  1  0
  8  9  1  0
  9 10  1  0
 10 11  2  0
 10 12  1  0
 12 13  2  0
 12 17  1  0
 13 14  1  0
 14 15  2  0
 15 16  1  0
 16 17  2  0
 17 18  1  0
 18 19  1  0
 19 20  2  0
 19 28  1  0
 20 21  1  0
 21 22  2  0
 22 23  1  0
 22 27  1  0
 23 24  1  6
 23 25  1  0
 23 26  1  0
 27 28  2  0
  1 29  1  0
  4 30  1  0
  5 31  1  0
  8 32  1  0
  9 33  1  0
 13 34  1  0
 15 35  1  0
 16 36  1  0
 18 37  1  0
 18 38  1  0
 20 39  1  0
 28 40  1  0
 21 41  1  0
 27 42  1  0
 24 43  1  0
 24 44  1  0
 24 45  1  0
 25 46  1  0
 25 47  1  0
 25 48  1  0
 26 49  1  0
 26 50  1  0
 26 51  1  0
M  END
