
     RDKit          3D

 17 16  0  0  0  0  0  0  0  0999 V2000
    0.0473   -0.0121    2.5400 C   0  0  0  0  0  0  0  0  0  0  0  0
   -0.7374    0.0086    1.2576 C   0  0  0  0  0  0  0  0  0  0  0  0
    0.1361   -0.0060    0.0140 C   0  0  0  0  0  0  0  0  0  0  0  0
   -0.7236    0.0157   -1.2391 C   0  0  0  0  0  0  0  0  0  0  0  0
    0.0744    0.0026   -2.5131 C   0  0  0  0  0  0  0  0  0  0  0  0
    1.2503   -0.0311    2.6195 O   0  0  0  0  0  0  0  0  0  0  0  0
   -0.7494   -0.0060    3.6047 O   0  0  0  0  0  0  0  0  0  0  0  0
    1.2781   -0.0111   -2.5810 O   0  0  0  0  0  0  0  0  0  0  0  0
   -0.7116    0.0090   -3.5859 O   0  0  0  0  0  0  0  0  0  0  0  0
   -1.4196   -0.8476    1.2623 H   0  0  0  0  0  0  0  0  0  0  0  0
   -1.3812    0.8941    1.2682 H   0  0  0  0  0  0  0  0  0  0  0  0
    0.8044    0.8565    0.0204 H   0  0  0  0  0  0  0  0  0  0  0  0
    0.7682   -0.8956    0.0151 H   0  0  0  0  0  0  0  0  0  0  0  0
   -1.4062   -0.8400   -1.2564 H   0  0  0  0  0  0  0  0  0  0  0  0
   -1.3670    0.9016   -1.2516 H   0  0  0  0  0  0  0  0  0  0  0  0
   -0.2190   -0.0182    4.4154 H   0  0  0  0  0  0  0  0  0  0  0  0
   -0.1729    0.0023   -4.3909 H   0  0  0  0  0  0  0  0  0  0  0  0
  1  2  1  0
  1  6  2  0
  1  7  1  0
  2  3  1  0
  2 10  1  0
  2 11  1  0
  3  4  1  0
  3 12  1  0
  3 13  1  0
  4  5  1  0
  4 14  1  0
  4 15  1  0
  5  8  2  0
  5  9  1  0
  7 16  1  0
  9 17  1  0
M  END
