
     RDKit          3D

 29 31  0  0  0  0  0  0  0  0999 V2000
   -0.5832   -2.4266   -0.0153 Cl  0  0  0  0  0  0  0  0  0  0  0  0
    0.3346   -0.9833    0.1745 C   0  0  0  0  0  0  0  0  0  0  0  0
    1.5486   -1.0225   -0.2979 N   0  0  0  0  0  0  0  0  0  0  0  0
    2.2635    0.0860   -0.1560 C   0  0  0  0  0  0  0  0  0  0  0  0
   -0.2866    0.1080    0.8161 C   0  0  0  0  0  0  0  0  0  0  0  0
    0.4888    1.2413    0.9366 C   0  0  0  0  0  0  0  0  0  0  0  0
    0.0734    2.3487    1.4885 O   0  0  0  0  0  0  0  0  0  0  0  0
    1.7503    1.2013    0.4468 N   0  0  0  0  0  0  0  0  0  0  0  0
    2.6073    2.2322    0.5026 N   0  0  0  0  0  0  0  0  0  0  0  0
    3.6996    1.7810   -0.0709 C   0  0  0  0  0  0  0  0  0  0  0  0
    3.5648    0.4492   -0.5088 C   0  0  0  0  0  0  0  0  0  0  0  0
    4.5126   -0.3601   -1.1565 C   0  0  0  0  0  0  0  0  0  0  0  0
    5.2918   -1.0258   -1.6864 N   0  0  0  0  0  0  0  0  0  0  0  0
   -1.6960    0.0636    1.3297 C   0  0  0  0  0  0  0  0  0  0  0  0
   -2.7380    0.0975    0.2357 C   0  0  0  0  0  0  0  0  0  0  0  0
   -3.8389   -0.7510    0.2914 C   0  0  0  0  0  0  0  0  0  0  0  0
   -4.8247   -0.7012   -0.6856 C   0  0  0  0  0  0  0  0  0  0  0  0
   -4.7179    0.1975   -1.7382 C   0  0  0  0  0  0  0  0  0  0  0  0
   -3.6201    1.0459   -1.8043 C   0  0  0  0  0  0  0  0  0  0  0  0
   -2.6387    0.9955   -0.8239 C   0  0  0  0  0  0  0  0  0  0  0  0
   -1.8276   -0.8336    1.9377 H   0  0  0  0  0  0  0  0  0  0  0  0
   -1.8605    0.9012    2.0098 H   0  0  0  0  0  0  0  0  0  0  0  0
    4.5691    2.4126   -0.1639 H   0  0  0  0  0  0  0  0  0  0  0  0
   -3.9277   -1.4610    1.1050 H   0  0  0  0  0  0  0  0  0  0  0  0
   -1.7897    1.6655   -0.8929 H   0  0  0  0  0  0  0  0  0  0  0  0
   -5.6740   -1.3697   -0.6263 H   0  0  0  0  0  0  0  0  0  0  0  0
   -5.4829    0.2363   -2.5026 H   0  0  0  0  0  0  0  0  0  0  0  0
   -3.5259    1.7498   -2.6210 H   0  0  0  0  0  0  0  0  0  0  0  0
    0.7619    3.0354    1.4761 H   0  0  0  0  0  0  0  0  0  0  0  0
  1  2  1  0
  2  3  2  0
  2  5  1  0
  3  4  1  0
  4  8  1  0
  4 11  2  0
  5  6  2  0
  5 14  1  0
  6  7  1  0
  6  8  1  0
  8  9  1  0
  9 10  2  0
 10 11  1  0
 11 12  1  0
 12 13  3  0
 14 15  1  0
 15 16  2  0
 15 20  1  0
 16 17  1  0
 17 18  2  0
 18 19  1  0
 19 20  2  0
 14 21  1  0
 14 22  1  0
 10 23  1  0
 16 24  1  0
 20 25  1  0
 17 26  1  0
 18 27  1  0
 19 28  1  0
  7 29  1  0
M  END
