
     RDKit          3D

 19 20  0  0  0  0  0  0  0  0999 V2000
   -2.9324    0.0401   -0.0304 O   0  0  0  0  0  0  0  0  0  0  0  0
   -1.7263    0.0270   -0.0129 C   0  0  0  0  0  0  0  0  0  0  0  0
   -0.8075    1.2752   -0.0156 C   0  0  0  0  0  0  0  0  0  0  0  0
   -1.2189    2.4050   -0.0368 O   0  0  0  0  0  0  0  0  0  0  0  0
    0.5468    0.7465    0.0115 C   0  0  0  0  0  0  0  0  0  0  0  0
    1.7820    1.3708    0.0221 C   0  0  0  0  0  0  0  0  0  0  0  0
    2.9208    0.5765    0.0488 C   0  0  0  0  0  0  0  0  0  0  0  0
    2.8003   -0.8105    0.0644 C   0  0  0  0  0  0  0  0  0  0  0  0
    1.5605   -1.4492    0.0536 C   0  0  0  0  0  0  0  0  0  0  0  0
    0.4378   -0.6476    0.0271 C   0  0  0  0  0  0  0  0  0  0  0  0
   -0.8996   -1.0493    0.0128 N   0  0  0  0  0  0  0  0  0  0  0  0
   -1.3199   -2.4287    0.0251 C   0  0  0  0  0  0  0  0  0  0  0  0
    1.8546    2.4506    0.0100 H   0  0  0  0  0  0  0  0  0  0  0  0
    3.9016    1.0311    0.0582 H   0  0  0  0  0  0  0  0  0  0  0  0
    3.6950   -1.4188    0.0865 H   0  0  0  0  0  0  0  0  0  0  0  0
    1.4979   -2.5286    0.0662 H   0  0  0  0  0  0  0  0  0  0  0  0
   -0.9592   -2.9319    0.9219 H   0  0  0  0  0  0  0  0  0  0  0  0
   -2.4051   -2.4683    0.0157 H   0  0  0  0  0  0  0  0  0  0  0  0
   -0.9429   -2.9533   -0.8526 H   0  0  0  0  0  0  0  0  0  0  0  0
  8  7  2  0
  8  9  1  0
  7  6  1  0
  9 10  2  0
  6  5  2  0
 10  5  1  0
 10 11  1  0
  5  3  1  0
 11 12  1  0
 11  2  1  0
  3  4  2  0
  3  2  1  0
  2  1  2  0
  6 13  1  0
  7 14  1  0
  8 15  1  0
  9 16  1  0
 12 17  1  0
 12 18  1  0
 12 19  1  0
M  END
