
     RDKit          3D

 36 38  0  0  0  0  0  0  0  0999 V2000
    5.6317    2.3753    0.6775 O   0  0  0  0  0  0  0  0  0  0  0  0
    5.5122    1.2797   -0.0584 C   0  0  0  0  0  0  0  0  0  0  0  0
    6.4213    0.8116   -0.7014 O   0  0  0  0  0  0  0  0  0  0  0  0
    4.1516    0.6913   -0.0077 C   0  0  0  0  0  0  0  0  0  0  0  0
    3.1235    1.2491    0.7517 C   0  0  0  0  0  0  0  0  0  0  0  0
    1.8714    0.6621    0.7655 C   0  0  0  0  0  0  0  0  0  0  0  0
    3.8997   -0.4592   -0.7497 C   0  0  0  0  0  0  0  0  0  0  0  0
    2.6491   -1.0509   -0.7265 C   0  0  0  0  0  0  0  0  0  0  0  0
    1.6176   -0.4999    0.0354 C   0  0  0  0  0  0  0  0  0  0  0  0
    0.2561   -1.0718    0.0378 C   0  0  0  0  0  0  0  0  0  0  0  0
   -0.7415   -0.2156   -0.0008 N   0  0  0  0  0  0  0  0  0  0  0  0
   -2.0018   -0.6442   -0.0366 C   0  0  0  0  0  0  0  0  0  0  0  0
   -2.2375   -2.0146   -0.0659 C   0  0  0  0  0  0  0  0  0  0  0  0
   -1.2619   -2.9016    0.0190 N   0  0  0  0  0  0  0  0  0  0  0  0
   -0.0091   -2.4671    0.1032 C   0  0  0  0  0  0  0  0  0  0  0  0
    0.9649   -3.4003    0.2264 N   0  0  0  0  0  0  0  0  0  0  0  0
   -3.0749    0.3655   -0.0818 C   0  0  0  0  0  0  0  0  0  0  0  0
   -4.3848    0.0337    0.2670 C   0  0  0  0  0  0  0  0  0  0  0  0
   -5.3964    0.9867    0.2121 C   0  0  0  0  0  0  0  0  0  0  0  0
   -6.6714    0.7020    0.5444 O   0  0  0  0  0  0  0  0  0  0  0  0
   -5.1057    2.2889   -0.1880 C   0  0  0  0  0  0  0  0  0  0  0  0
   -3.8022    2.6170   -0.5244 C   0  0  0  0  0  0  0  0  0  0  0  0
   -2.7876    1.6729   -0.4737 C   0  0  0  0  0  0  0  0  0  0  0  0
    6.5366    2.7160    0.6193 H   0  0  0  0  0  0  0  0  0  0  0  0
    3.2874    2.1422    1.3383 H   0  0  0  0  0  0  0  0  0  0  0  0
    1.0812    1.1059    1.3557 H   0  0  0  0  0  0  0  0  0  0  0  0
    4.6805   -0.8963   -1.3569 H   0  0  0  0  0  0  0  0  0  0  0  0
    2.4782   -1.9325   -1.3300 H   0  0  0  0  0  0  0  0  0  0  0  0
   -3.2394   -2.4152   -0.1673 H   0  0  0  0  0  0  0  0  0  0  0  0
    1.8516   -3.1361    0.6224 H   0  0  0  0  0  0  0  0  0  0  0  0
    0.6588   -4.3296    0.4671 H   0  0  0  0  0  0  0  0  0  0  0  0
   -4.6273   -0.9686    0.6024 H   0  0  0  0  0  0  0  0  0  0  0  0
   -6.7536   -0.2217    0.8063 H   0  0  0  0  0  0  0  0  0  0  0  0
   -5.8933    3.0305   -0.2290 H   0  0  0  0  0  0  0  0  0  0  0  0
   -3.5740    3.6288   -0.8337 H   0  0  0  0  0  0  0  0  0  0  0  0
   -1.7768    1.9454   -0.7424 H   0  0  0  0  0  0  0  0  0  0  0  0
  3  2  2  0
  1  2  1  0
  2  4  1  0
  5  4  2  0
  5  6  1  0
  4  7  1  0
  6  9  2  0
  7  8  2  0
  9  8  1  0
  9 10  1  0
 22 23  2  0
 22 21  1  0
 23 17  1  0
 11 10  2  0
 11 12  1  0
 10 15  1  0
 21 19  2  0
 17 12  1  0
 17 18  2  0
 12 13  2  0
 16 15  1  0
 15 14  2  0
 13 14  1  0
 19 18  1  0
 19 20  1  0
  1 24  1  0
  5 25  1  0
  6 26  1  0
  7 27  1  0
  8 28  1  0
 13 29  1  0
 16 30  1  0
 16 31  1  0
 18 32  1  0
 20 33  1  0
 21 34  1  0
 22 35  1  0
 23 36  1  0
M  END
