
     RDKit          3D

 35 35  0  0  0  0  0  0  0  0999 V2000
    1.1995   -1.5408   -0.5328 C   0  0  0  0  0  0  0  0  0  0  0  0
   -2.7588   -0.7373    0.2719 N   0  0  0  0  0  0  0  0  0  0  0  0
    5.8546    1.4344    0.6919 O   0  0  0  0  0  0  0  0  0  0  0  0
   -1.5358   -1.7008   -0.2582 S   0  0  1  0  0  0  0  0  0  0  0  0
    2.4536   -0.7626   -0.2435 C   0  0  0  0  0  0  0  0  0  0  0  0
   -4.8377    2.0740   -0.3542 N   0  0  0  0  0  0  0  0  0  0  0  0
   -3.9182    1.3443    1.5829 O   0  0  0  0  0  0  0  0  0  0  0  0
    3.0834   -0.8534    0.9982 C   0  0  0  0  0  0  0  0  0  0  0  0
   -1.5390   -2.8851    0.5861 O   0  0  0  0  0  0  0  0  0  0  0  0
    4.2130   -0.1117    1.2874 C   0  0  0  0  0  0  0  0  0  0  0  0
   -5.7379    2.8827    0.2639 O   0  0  0  0  0  0  0  0  0  0  0  0
    4.7503    0.7524    0.3300 C   0  0  0  0  0  0  0  0  0  0  0  0
   -1.7089   -1.8461   -1.6970 O   0  0  0  0  0  0  0  0  0  0  0  0
    2.9970    0.1005   -1.1839 C   0  0  0  0  0  0  0  0  0  0  0  0
    4.1338    0.8550   -0.9137 C   0  0  0  0  0  0  0  0  0  0  0  0
   -0.0123   -0.8065    0.0383 C   0  0  0  0  0  0  0  0  0  0  0  0
    6.4299    2.3276   -0.2404 C   0  0  0  0  0  0  0  0  0  0  0  0
   -4.0023    1.3199    0.3691 C   0  0  0  0  0  0  0  0  0  0  0  0
   -3.0954    0.4522   -0.4887 C   0  0  0  0  0  0  0  0  0  0  0  0
    1.0783   -1.6636   -1.6098 H   0  0  0  0  0  0  0  0  0  0  0  0
    1.2673   -2.5395   -0.0971 H   0  0  0  0  0  0  0  0  0  0  0  0
   -2.7504   -0.5965    1.2785 H   0  0  0  0  0  0  0  0  0  0  0  0
    2.6847   -1.5195    1.7550 H   0  0  0  0  0  0  0  0  0  0  0  0
    4.6886   -0.1969    2.2566 H   0  0  0  0  0  0  0  0  0  0  0  0
    2.5335    0.1912   -2.1594 H   0  0  0  0  0  0  0  0  0  0  0  0
    4.5207    1.5079   -1.6841 H   0  0  0  0  0  0  0  0  0  0  0  0
    0.0671   -0.6798    1.1192 H   0  0  0  0  0  0  0  0  0  0  0  0
   -0.1165    0.1808   -0.4151 H   0  0  0  0  0  0  0  0  0  0  0  0
    7.2990    2.7642    0.2452 H   0  0  0  0  0  0  0  0  0  0  0  0
    6.7563    1.8160   -1.1497 H   0  0  0  0  0  0  0  0  0  0  0  0
    5.7410    3.1304   -0.5169 H   0  0  0  0  0  0  0  0  0  0  0  0
   -2.2219    1.0635   -0.7487 H   0  0  0  0  0  0  0  0  0  0  0  0
   -3.5838    0.1736   -1.4216 H   0  0  0  0  0  0  0  0  0  0  0  0
   -4.9890    1.9324   -1.3428 H   0  0  0  0  0  0  0  0  0  0  0  0
   -5.3399    3.7633    0.2867 H   0  0  0  0  0  0  0  0  0  0  0  0
  1 16  1  0
  1  5  1  0
  1 20  1  0
  1 21  1  0
  2 19  1  0
  4  2  1  1
  2 22  1  0
  4 16  1  0
  5  8  2  0
  6 11  1  0
  7 18  2  0
  8 10  1  0
  8 23  1  0
  9  4  2  0
 10 24  1  0
 12  3  1  0
 12 10  2  0
 13  4  2  0
 14  5  1  0
 14 15  2  0
 14 25  1  0
 15 12  1  0
 15 26  1  0
 16 27  1  0
 16 28  1  0
 17  3  1  0
 17 29  1  0
 17 30  1  0
 17 31  1  0
 18  6  1  0
 19 18  1  0
 19 32  1  0
 19 33  1  0
  6 34  1  0
 11 35  1  0
M  END
