
     RDKit          3D

 52 55  0  0  0  0  0  0  0  0999 V2000
   -3.5011    0.9104    0.9253 O   0  0  0  0  0  0  0  0  0  0  0  0
   -4.7581   -0.0372   -0.9088 C   0  0  0  0  0  0  0  0  0  0  0  0
   -5.7449    1.0851   -0.7859 C   0  0  0  0  0  0  0  0  0  0  0  0
   -5.6006    2.2398   -1.5479 C   0  0  0  0  0  0  0  0  0  0  0  0
   -6.8115    0.9922    0.1033 C   0  0  0  0  0  0  0  0  0  0  0  0
   -6.5055    3.2859   -1.4242 C   0  0  0  0  0  0  0  0  0  0  0  0
   -7.7177    2.0358    0.2298 C   0  0  0  0  0  0  0  0  0  0  0  0
   -7.5659    3.1865   -0.5333 C   0  0  0  0  0  0  0  0  0  0  0  0
   -1.4822   -1.1493    0.9363 P   0  0  2  0  0  0  0  0  0  0  0  0
   -1.7689   -1.2926    2.3697 O   0  0  0  0  0  0  0  0  0  0  0  0
   -0.5176    0.0769    0.6491 O   0  0  0  0  0  0  0  0  0  0  0  0
   -2.7802   -0.9730   -0.0421 O   0  0  0  0  0  0  0  0  0  0  0  0
   -0.9181   -2.4173    0.1640 O   0  0  0  0  0  0  0  0  0  0  0  0
    0.2586   -3.1087    0.5998 C   0  0  0  0  0  0  0  0  0  0  0  0
    1.6456   -1.6003   -0.6714 O   0  0  0  0  0  0  0  0  0  0  0  0
    3.2642   -4.1083   -1.2458 O   0  0  0  0  0  0  0  0  0  0  0  0
    3.3959   -2.5167    0.5725 C   0  0  1  0  0  0  0  0  0  0  0  0
    4.7828   -2.6522    0.5627 O   0  0  0  0  0  0  0  0  0  0  0  0
    2.9848   -1.3489   -0.3202 C   0  0  2  0  0  0  0  0  0  0  0  0
    3.0932   -0.0619    0.3051 N   0  0  0  0  0  0  0  0  0  0  0  0
    2.5871    0.3328    1.5178 C   0  0  0  0  0  0  0  0  0  0  0  0
    2.8303    1.5760    1.7974 N   0  0  0  0  0  0  0  0  0  0  0  0
    3.5348    2.0400    0.7151 C   0  0  0  0  0  0  0  0  0  0  0  0
    4.0971    3.2918    0.4040 C   0  0  0  0  0  0  0  0  0  0  0  0
   -3.6481    0.0612    0.0982 C   0  0  0  0  0  0  0  0  0  0  0  0
    4.0064    4.3459    1.2150 N   0  0  0  0  0  0  0  0  0  0  0  0
    1.3243   -2.9789   -0.4683 C   0  0  1  0  0  0  0  0  0  0  0  0
    4.7421    3.4151   -0.7618 N   0  0  0  0  0  0  0  0  0  0  0  0
    2.6263   -3.6705   -0.0772 C   0  0  1  0  0  0  0  0  0  0  0  0
    4.8243    2.3637   -1.5720 C   0  0  0  0  0  0  0  0  0  0  0  0
    3.7059    1.0399   -0.2266 C   0  0  0  0  0  0  0  0  0  0  0  0
    4.3409    1.1465   -1.3898 N   0  0  0  0  0  0  0  0  0  0  0  0
   -5.2427   -1.0094   -0.7807 H   0  0  0  0  0  0  0  0  0  0  0  0
   -4.3057   -0.0611   -1.9044 H   0  0  0  0  0  0  0  0  0  0  0  0
   -4.7772    2.3226   -2.2474 H   0  0  0  0  0  0  0  0  0  0  0  0
   -6.9378    0.0956    0.6991 H   0  0  0  0  0  0  0  0  0  0  0  0
   -6.3827    4.1776   -2.0254 H   0  0  0  0  0  0  0  0  0  0  0  0
   -8.5438    1.9499    0.9237 H   0  0  0  0  0  0  0  0  0  0  0  0
   -8.2723    4.0005   -0.4357 H   0  0  0  0  0  0  0  0  0  0  0  0
   -0.0582    0.0680   -0.2036 H   0  0  0  0  0  0  0  0  0  0  0  0
    0.6075   -2.7388    1.5688 H   0  0  0  0  0  0  0  0  0  0  0  0
   -0.0098   -4.1571    0.7278 H   0  0  0  0  0  0  0  0  0  0  0  0
    0.9380   -3.3927   -1.4047 H   0  0  0  0  0  0  0  0  0  0  0  0
    3.6246   -1.3120   -1.2077 H   0  0  0  0  0  0  0  0  0  0  0  0
    4.1937   -4.2607   -1.0387 H   0  0  0  0  0  0  0  0  0  0  0  0
    2.4581   -4.4933    0.6298 H   0  0  0  0  0  0  0  0  0  0  0  0
    3.0123   -2.3669    1.5901 H   0  0  0  0  0  0  0  0  0  0  0  0
    5.0528   -3.1645    1.3314 H   0  0  0  0  0  0  0  0  0  0  0  0
    2.0418   -0.3447    2.1572 H   0  0  0  0  0  0  0  0  0  0  0  0
    3.5640    4.2732    2.1142 H   0  0  0  0  0  0  0  0  0  0  0  0
    4.4687    5.2073    0.9800 H   0  0  0  0  0  0  0  0  0  0  0  0
    5.3590    2.5311   -2.5007 H   0  0  0  0  0  0  0  0  0  0  0  0
  1 25  2  0
  2  3  1  0
  2 25  1  0
  3  4  2  0
  3  5  1  0
  4  6  1  0
  5  7  2  0
  6  8  2  0
  7  8  1  0
  9 10  2  0
  9 11  1  1
  9 12  1  0
  9 13  1  0
 12 25  1  0
 13 14  1  0
 14 27  1  0
 15 19  1  0
 15 27  1  0
 16 29  1  0
 17 18  1  0
 17 19  1  0
 17 29  1  0
 19 20  1  0
 20 21  1  0
 20 31  1  0
 21 22  2  0
 22 23  1  0
 23 24  1  0
 23 31  2  0
 24 26  1  0
 24 28  2  0
 27 29  1  0
 28 30  1  0
 30 32  2  0
  2 33  1  0
  2 34  1  0
  4 35  1  0
  5 36  1  0
  6 37  1  0
  7 38  1  0
  8 39  1  0
 11 40  1  0
 14 41  1  0
 14 42  1  0
 27 43  1  6
 19 44  1  6
 16 45  1  0
 29 46  1  1
 17 47  1  1
 18 48  1  0
 21 49  1  0
 26 50  1  0
 26 51  1  0
 30 52  1  0
 31 32  1  0
M  END
