
     RDKit          3D

 18 18  0  0  0  0  0  0  0  0999 V2000
    3.3833   -0.1391   -0.3494 C   0  0  0  0  0  0  0  0  0  0  0  0
    2.9423   -0.1041   -1.4688 O   0  0  0  0  0  0  0  0  0  0  0  0
    2.5696    0.0472    0.9087 C   0  0  0  0  0  0  0  0  0  0  0  0
    1.1213    0.2948    0.6167 C   0  0  0  0  0  0  0  0  0  0  0  0
    0.6252    1.5881    0.5016 C   0  0  0  0  0  0  0  0  0  0  0  0
   -0.7110    1.8130    0.2152 C   0  0  0  0  0  0  0  0  0  0  0  0
   -1.5720    0.7409    0.0385 C   0  0  0  0  0  0  0  0  0  0  0  0
   -3.2330    1.0300   -0.3137 Cl  0  0  0  0  0  0  0  0  0  0  0  0
   -1.0857   -0.5565    0.1539 C   0  0  0  0  0  0  0  0  0  0  0  0
   -2.1342   -1.9076   -0.0553 Cl  0  0  0  0  0  0  0  0  0  0  0  0
    0.2526   -0.7743    0.4407 C   0  0  0  0  0  0  0  0  0  0  0  0
    2.6956   -0.8415    1.5329 H   0  0  0  0  0  0  0  0  0  0  0  0
    3.0002    0.8750    1.4781 H   0  0  0  0  0  0  0  0  0  0  0  0
    1.2835    2.4365    0.6389 H   0  0  0  0  0  0  0  0  0  0  0  0
   -1.0881    2.8228    0.1298 H   0  0  0  0  0  0  0  0  0  0  0  0
    0.6146   -1.7905    0.5320 H   0  0  0  0  0  0  0  0  0  0  0  0
    4.6623   -0.3517   -0.0680 O   0  0  0  0  0  0  0  0  0  0  0  0
    5.1669   -0.4779   -0.8855 H   0  0  0  0  0  0  0  0  0  0  0  0
  2  1  2  0
  1  3  1  0
  3  4  1  0
  3 12  1  0
  3 13  1  0
  5  4  2  0
  4 11  1  0
  5  6  1  0
  5 14  1  0
  6  7  2  0
  6 15  1  0
  7  8  1  0
  7  9  1  0
 11  9  2  0
  9 10  1  0
 11 16  1  0
  1 17  1  0
 17 18  1  0
M  END
