
     RDKit          3D

 70 73  0  0  0  0  0  0  0  0999 V2000
   -0.1316   -2.1500    0.0455 N   0  0  0  0  0  0  0  0  0  0  0  0
    1.7216   -0.7008   -0.2723 N   0  0  0  0  0  0  0  0  0  0  0  0
    2.5579   -1.7186   -0.3083 C   0  0  0  0  0  0  0  0  0  0  0  0
    2.0741   -3.0484   -0.1707 C   0  0  0  0  0  0  0  0  0  0  0  0
    0.7094   -3.1697    0.0058 C   0  0  0  0  0  0  0  0  0  0  0  0
    2.9466   -4.2445   -0.2537 C   0  0  1  0  0  0  0  0  0  0  0  0
    3.9251    0.7601   -1.5372 C   0  0  0  0  0  0  0  0  0  0  0  0
    5.7807    2.2458   -1.0386 C   0  0  0  0  0  0  0  0  0  0  0  0
    5.6466    0.0791   -0.0001 C   0  0  0  0  0  0  0  0  0  0  0  0
    9.5772    2.2675    1.4501 C   0  0  0  0  0  0  0  0  0  0  0  0
   10.2671    3.5529    1.8718 C   0  0  0  0  0  0  0  0  0  0  0  0
   -1.7456    0.2569    0.0682 C   0  0  0  0  0  0  0  0  0  0  0  0
   -3.7559    1.5242   -0.4161 C   0  0  0  0  0  0  0  0  0  0  0  0
   -3.8819   -0.4107    0.9914 C   0  0  0  0  0  0  0  0  0  0  0  0
    0.4211   -0.9467   -0.1053 C   0  0  0  0  0  0  0  0  0  0  0  0
    2.2687   -5.3807   -0.0802 F   0  0  0  0  0  0  0  0  0  0  0  0
    3.5726   -4.3406   -1.4397 F   0  0  0  0  0  0  0  0  0  0  0  0
    3.9259   -4.2337    0.6744 F   0  0  0  0  0  0  0  0  0  0  0  0
    3.8774   -1.4531   -0.4760 N   0  0  0  0  0  0  0  0  0  0  0  0
    4.4585   -0.1878   -0.6663 C   0  0  0  0  0  0  0  0  0  0  0  0
    4.5938    1.9603   -1.7005 C   0  0  0  0  0  0  0  0  0  0  0  0
    6.3216    1.2884   -0.1808 C   0  0  0  0  0  0  0  0  0  0  0  0
    7.5046    1.4518    0.5428 N   0  0  0  0  0  0  0  0  0  0  0  0
    8.3702    2.5017    0.5659 C   0  0  0  0  0  0  0  0  0  0  0  0
    8.2115    3.5251   -0.0735 O   0  0  0  0  0  0  0  0  0  0  0  0
   -0.3586    0.1541   -0.0920 N   0  0  0  0  0  0  0  0  0  0  0  0
   -2.3960    1.3283   -0.5761 C   0  0  0  0  0  0  0  0  0  0  0  0
   -4.5299    0.6493    0.3615 C   0  0  0  0  0  0  0  0  0  0  0  0
   -2.5087   -0.5844    0.8591 C   0  0  0  0  0  0  0  0  0  0  0  0
   -5.8976    0.8971    0.5090 N   0  0  0  0  0  0  0  0  0  0  0  0
   -6.6191    0.1055    1.4853 C   0  0  0  0  0  0  0  0  0  0  0  0
   -7.9651    0.7405    1.7938 C   0  0  0  0  0  0  0  0  0  0  0  0
   -8.7300    0.9365    0.5795 N   0  0  0  0  0  0  0  0  0  0  0  0
   -8.0138    1.7220   -0.4036 C   0  0  0  0  0  0  0  0  0  0  0  0
   -6.6697    1.0853   -0.7121 C   0  0  0  0  0  0  0  0  0  0  0  0
   -9.9412    0.3632    0.4012 C   0  0  0  0  0  0  0  0  0  0  0  0
  -10.4704   -0.3196    1.2696 O   0  0  0  0  0  0  0  0  0  0  0  0
  -10.6311    0.6044   -0.9214 C   0  0  0  0  0  0  0  0  0  0  0  0
   -1.6002    2.1317   -1.3085 O   0  0  0  0  0  0  0  0  0  0  0  0
   -2.1577    3.2798   -1.9165 C   0  0  0  0  0  0  0  0  0  0  0  0
    0.2591   -4.1488    0.1195 H   0  0  0  0  0  0  0  0  0  0  0  0
    3.0124    0.5681   -2.0794 H   0  0  0  0  0  0  0  0  0  0  0  0
    6.2646    3.1944   -1.1961 H   0  0  0  0  0  0  0  0  0  0  0  0
    6.0557   -0.6638    0.6762 H   0  0  0  0  0  0  0  0  0  0  0  0
   10.2734    1.6346    0.8902 H   0  0  0  0  0  0  0  0  0  0  0  0
    9.2850    1.6839    2.3265 H   0  0  0  0  0  0  0  0  0  0  0  0
    9.6014    4.1938    2.4494 H   0  0  0  0  0  0  0  0  0  0  0  0
   11.1316    3.3235    2.4934 H   0  0  0  0  0  0  0  0  0  0  0  0
   10.6187    4.1204    1.0117 H   0  0  0  0  0  0  0  0  0  0  0  0
   -4.2309    2.3795   -0.8757 H   0  0  0  0  0  0  0  0  0  0  0  0
   -4.4273   -1.1226    1.5944 H   0  0  0  0  0  0  0  0  0  0  0  0
    4.5353   -2.1819   -0.2543 H   0  0  0  0  0  0  0  0  0  0  0  0
    4.1831    2.7013   -2.3739 H   0  0  0  0  0  0  0  0  0  0  0  0
    7.7527    0.6701    1.1303 H   0  0  0  0  0  0  0  0  0  0  0  0
    0.1383    1.0104   -0.2860 H   0  0  0  0  0  0  0  0  0  0  0  0
   -2.0378   -1.4096    1.3704 H   0  0  0  0  0  0  0  0  0  0  0  0
   -6.7746   -0.9294    1.1439 H   0  0  0  0  0  0  0  0  0  0  0  0
   -6.0483    0.0641    2.4136 H   0  0  0  0  0  0  0  0  0  0  0  0
   -8.5197    0.1079    2.4810 H   0  0  0  0  0  0  0  0  0  0  0  0
   -7.8072    1.7100    2.2772 H   0  0  0  0  0  0  0  0  0  0  0  0
   -8.5827    1.8151   -1.3242 H   0  0  0  0  0  0  0  0  0  0  0  0
   -7.8571    2.7320   -0.0113 H   0  0  0  0  0  0  0  0  0  0  0  0
   -6.1370    1.7357   -1.4031 H   0  0  0  0  0  0  0  0  0  0  0  0
   -6.8315    0.1244   -1.2236 H   0  0  0  0  0  0  0  0  0  0  0  0
  -10.0541    0.2037   -1.7556 H   0  0  0  0  0  0  0  0  0  0  0  0
  -11.6002    0.1128   -0.9089 H   0  0  0  0  0  0  0  0  0  0  0  0
  -10.7856    1.6667   -1.1121 H   0  0  0  0  0  0  0  0  0  0  0  0
   -1.3405    3.7877   -2.4221 H   0  0  0  0  0  0  0  0  0  0  0  0
   -2.9212    3.0203   -2.6543 H   0  0  0  0  0  0  0  0  0  0  0  0
   -2.5931    3.9589   -1.1795 H   0  0  0  0  0  0  0  0  0  0  0  0
 11 10  1  0
 10 24  1  0
 24 25  2  0
 24 23  1  0
 23 22  1  0
 22  8  2  0
 22  9  1  0
  8 21  1  0
  9 20  2  0
 34 35  1  0
 34 33  1  0
 35 30  1  0
 38 36  1  0
 33 36  1  0
 33 32  1  0
 21  7  2  0
 20  7  1  0
 20 19  1  0
  6 18  1  1
 36 37  2  0
 32 31  1  0
 30 28  1  0
 30 31  1  0
 14 29  2  0
 14 28  1  0
 19  3  1  0
 29 12  1  0
 28 13  2  0
  3  2  2  0
  3  4  1  0
  6 16  1  0
  6  4  1  0
  6 17  1  0
  2 15  1  0
  4  5  2  0
 12 26  1  0
 12 27  2  0
 13 27  1  0
 15 26  1  0
 15  1  2  0
  5  1  1  0
 27 39  1  0
 39 40  1  0
  5 41  1  0
  7 42  1  0
  8 43  1  0
  9 44  1  0
 10 45  1  0
 10 46  1  0
 11 47  1  0
 11 48  1  0
 11 49  1  0
 13 50  1  0
 14 51  1  0
 19 52  1  0
 21 53  1  0
 23 54  1  0
 26 55  1  0
 29 56  1  0
 31 57  1  0
 31 58  1  0
 32 59  1  0
 32 60  1  0
 34 61  1  0
 34 62  1  0
 35 63  1  0
 35 64  1  0
 38 65  1  0
 38 66  1  0
 38 67  1  0
 40 68  1  0
 40 69  1  0
 40 70  1  0
M  END
