
     RDKit          3D

 23 24  0  0  0  0  0  0  0  0999 V2000
    0.3271   -2.1034    0.0373 C   0  0  0  0  0  0  0  0  0  0  0  0
   -0.9663   -2.5666    0.0956 C   0  0  0  0  0  0  0  0  0  0  0  0
   -2.0221   -1.6660    0.0775 C   0  0  0  0  0  0  0  0  0  0  0  0
   -1.8223   -0.2896    0.0194 C   0  0  0  0  0  0  0  0  0  0  0  0
   -0.4896    0.2198   -0.0004 C   0  0  0  0  0  0  0  0  0  0  0  0
    0.5641   -0.7275   -0.0118 C   0  0  0  0  0  0  0  0  0  0  0  0
    1.9711   -0.3125   -0.0672 C   0  0  0  0  0  0  0  0  0  0  0  0
   -0.1447    1.6335    0.0083 C   0  0  0  0  0  0  0  0  0  0  0  0
    1.1641    1.9585   -0.0301 C   0  0  0  0  0  0  0  0  0  0  0  0
    2.1653    1.0310   -0.0816 N   0  0  0  0  0  0  0  0  0  0  0  0
    2.9179   -1.0925   -0.0982 O   0  0  0  0  0  0  0  0  0  0  0  0
   -2.9396    0.5253    0.0446 N   0  0  0  0  0  0  0  0  0  0  0  0
   -1.1232    2.7746    0.0886 C   0  0  0  0  0  0  0  0  0  0  0  0
    1.1606   -2.7905    0.0314 H   0  0  0  0  0  0  0  0  0  0  0  0
   -1.1685   -3.6287    0.1391 H   0  0  0  0  0  0  0  0  0  0  0  0
   -3.0396   -2.0394    0.0994 H   0  0  0  0  0  0  0  0  0  0  0  0
    1.5005    2.9853   -0.0176 H   0  0  0  0  0  0  0  0  0  0  0  0
    3.1206    1.3585   -0.1142 H   0  0  0  0  0  0  0  0  0  0  0  0
   -3.8032    0.0280   -0.1094 H   0  0  0  0  0  0  0  0  0  0  0  0
   -2.9118    1.3530   -0.5247 H   0  0  0  0  0  0  0  0  0  0  0  0
   -1.8150    2.6737    0.9231 H   0  0  0  0  0  0  0  0  0  0  0  0
   -0.5834    3.7105    0.2262 H   0  0  0  0  0  0  0  0  0  0  0  0
   -1.7095    2.8927   -0.8256 H   0  0  0  0  0  0  0  0  0  0  0  0
  1  2  2  0
  1  6  1  0
  2  3  1  0
  3  4  2  0
  4  5  1  0
  4 12  1  0
  5  6  2  0
  5  8  1  0
  6  7  1  0
  7 10  1  0
  7 11  2  0
  8  9  2  0
  8 13  1  0
  9 10  1  0
  1 14  1  0
  2 15  1  0
  3 16  1  0
  9 17  1  0
 10 18  1  0
 12 19  1  0
 12 20  1  0
 13 21  1  0
 13 22  1  0
 13 23  1  0
M  END
