
     RDKit          3D

 57 61  0  0  0  0  0  0  0  0999 V2000
   -3.2686   -2.8554    0.5552 C   0  0  0  0  0  0  0  0  0  0  0  0
   -4.1486   -1.6510    0.4084 C   0  0  0  0  0  0  0  0  0  0  0  0
   -3.6670   -0.3803    0.5470 C   0  0  0  0  0  0  0  0  0  0  0  0
   -2.2296   -0.0726    0.8372 C   0  0  0  0  0  0  0  0  0  0  0  0
   -1.4447    0.1896   -0.4496 C   0  0  0  0  0  0  0  0  0  0  0  0
    0.7191   -0.5987    0.2593 C   0  0  0  0  0  0  0  0  0  0  0  0
    2.1533   -0.2070    0.5771 C   0  0  0  0  0  0  0  0  0  0  0  0
    2.8243    0.4230   -0.6476 C   0  0  1  0  0  0  0  0  0  0  0  0
    1.9667    1.5783   -1.1500 C   0  0  0  0  0  0  0  0  0  0  0  0
    0.5459    1.1042   -1.4088 C   0  0  0  0  0  0  0  0  0  0  0  0
    4.2308    0.8055   -0.3354 C   0  0  0  0  0  0  0  0  0  0  0  0
    6.3893    0.7852    0.1517 C   0  0  0  0  0  0  0  0  0  0  0  0
    5.3405   -0.0783   -0.1246 C   0  0  0  0  0  0  0  0  0  0  0  0
    5.5548   -1.4561   -0.1482 C   0  0  0  0  0  0  0  0  0  0  0  0
    6.8280   -1.9185    0.1114 C   0  0  0  0  0  0  0  0  0  0  0  0
    7.8519   -1.0059    0.3872 C   0  0  0  0  0  0  0  0  0  0  0  0
    7.6832    0.3603    0.4190 C   0  0  0  0  0  0  0  0  0  0  0  0
   -4.5715    0.7208    0.3822 C   0  0  0  0  0  0  0  0  0  0  0  0
   -6.8230    1.5067   -0.0938 C   0  0  0  0  0  0  0  0  0  0  0  0
   -8.1345    1.1124   -0.7380 C   0  0  0  0  0  0  0  0  0  0  0  0
   -8.6885   -0.1371   -0.0838 C   0  0  0  0  0  0  0  0  0  0  0  0
   -7.7061   -1.2676   -0.3217 C   0  0  0  0  0  0  0  0  0  0  0  0
   -6.2790   -0.9197   -0.0111 C   0  0  0  0  0  0  0  0  0  0  0  0
    9.0719   -1.4978    0.6348 F   0  0  0  0  0  0  0  0  0  0  0  0
   -0.0551    0.5349   -0.2150 N   0  0  0  0  0  0  0  0  0  0  0  0
    4.6051    2.0361   -0.1975 N   0  0  0  0  0  0  0  0  0  0  0  0
   -5.8940    0.3752    0.0700 N   0  0  0  0  0  0  0  0  0  0  0  0
   -5.4541   -1.9104    0.1468 N   0  0  0  0  0  0  0  0  0  0  0  0
    5.9505    2.0479    0.1098 O   0  0  0  0  0  0  0  0  0  0  0  0
   -4.2653    1.9024    0.4948 O   0  0  0  0  0  0  0  0  0  0  0  0
   -3.8274   -3.7625    0.3371 H   0  0  0  0  0  0  0  0  0  0  0  0
   -2.4098   -2.8108   -0.1164 H   0  0  0  0  0  0  0  0  0  0  0  0
   -2.8750   -2.9347    1.5704 H   0  0  0  0  0  0  0  0  0  0  0  0
   -2.1554    0.8085    1.4769 H   0  0  0  0  0  0  0  0  0  0  0  0
   -1.7891   -0.8999    1.3954 H   0  0  0  0  0  0  0  0  0  0  0  0
   -1.5371   -0.6807   -1.1229 H   0  0  0  0  0  0  0  0  0  0  0  0
   -1.9154    1.0288   -0.9680 H   0  0  0  0  0  0  0  0  0  0  0  0
    0.7206   -1.4197   -0.4816 H   0  0  0  0  0  0  0  0  0  0  0  0
    0.2626   -0.9980    1.1658 H   0  0  0  0  0  0  0  0  0  0  0  0
    2.1647    0.5076    1.4051 H   0  0  0  0  0  0  0  0  0  0  0  0
    2.6984   -1.0942    0.9073 H   0  0  0  0  0  0  0  0  0  0  0  0
    2.8702   -0.3429   -1.4330 H   0  0  0  0  0  0  0  0  0  0  0  0
    1.9504    2.3833   -0.4108 H   0  0  0  0  0  0  0  0  0  0  0  0
    2.3812    1.9930   -2.0711 H   0  0  0  0  0  0  0  0  0  0  0  0
   -0.0612    1.9519   -1.7350 H   0  0  0  0  0  0  0  0  0  0  0  0
    0.5509    0.3791   -2.2433 H   0  0  0  0  0  0  0  0  0  0  0  0
    4.7543   -2.1510   -0.3643 H   0  0  0  0  0  0  0  0  0  0  0  0
    7.0472   -2.9776    0.1054 H   0  0  0  0  0  0  0  0  0  0  0  0
    8.4983    1.0380    0.6331 H   0  0  0  0  0  0  0  0  0  0  0  0
   -6.3191    2.2644   -0.6892 H   0  0  0  0  0  0  0  0  0  0  0  0
   -7.0024    1.9352    0.8946 H   0  0  0  0  0  0  0  0  0  0  0  0
   -8.8182    1.9564   -0.6406 H   0  0  0  0  0  0  0  0  0  0  0  0
   -7.9931    0.9397   -1.8086 H   0  0  0  0  0  0  0  0  0  0  0  0
   -8.8290    0.0295    0.9878 H   0  0  0  0  0  0  0  0  0  0  0  0
   -9.6619   -0.4025   -0.4963 H   0  0  0  0  0  0  0  0  0  0  0  0
   -7.9581   -2.1579    0.2544 H   0  0  0  0  0  0  0  0  0  0  0  0
   -7.7418   -1.5662   -1.3743 H   0  0  0  0  0  0  0  0  0  0  0  0
 29 12  1  0
 29 26  1  0
 17 12  2  0
 17 16  1  0
 12 13  1  0
 26 11  2  0
 24 16  1  0
 16 15  2  0
 11 13  1  0
 11  8  1  0
 13 14  2  0
  9  8  1  0
  9 10  1  0
 15 14  1  0
  8  7  1  0
 10 25  1  0
  7  6  1  0
 30 18  2  0
 25  6  1  0
 25  5  1  0
  5  4  1  0
  4  3  1  0
 18  3  1  0
 18 27  1  0
 19 27  1  0
 19 20  1  0
  3  2  2  0
 27 23  1  0
 20 21  1  0
  2 28  1  0
  2  1  1  0
 23 28  2  0
 23 22  1  0
 21 22  1  0
  1 31  1  0
  1 32  1  0
  1 33  1  0
  4 34  1  0
  4 35  1  0
  5 36  1  0
  5 37  1  0
  6 38  1  0
  6 39  1  0
  7 40  1  0
  7 41  1  0
  8 42  1  6
  9 43  1  0
  9 44  1  0
 10 45  1  0
 10 46  1  0
 14 47  1  0
 15 48  1  0
 17 49  1  0
 19 50  1  0
 19 51  1  0
 20 52  1  0
 20 53  1  0
 21 54  1  0
 21 55  1  0
 22 56  1  0
 22 57  1  0
M  END
