
     RDKit          3D

 25 26  0  0  0  0  0  0  0  0999 V2000
   -0.1508   -2.5491   -0.1392 C   0  0  0  0  0  0  0  0  0  0  0  0
    0.8118   -1.4747   -0.1920 C   0  0  0  0  0  0  0  0  0  0  0  0
    0.4633   -0.1719   -0.1478 C   0  0  0  0  0  0  0  0  0  0  0  0
    1.4849    0.9304   -0.1766 C   0  0  0  0  0  0  0  0  0  0  0  0
   -0.9553    0.1505   -0.0765 C   0  0  0  0  0  0  0  0  0  0  0  0
   -1.5322    1.4286   -0.0693 C   0  0  0  0  0  0  0  0  0  0  0  0
   -2.8844    1.6562    0.0183 C   0  0  0  0  0  0  0  0  0  0  0  0
   -3.7171    0.5535    0.0944 C   0  0  0  0  0  0  0  0  0  0  0  0
   -3.2414   -0.7356    0.0766 C   0  0  0  0  0  0  0  0  0  0  0  0
   -1.8690   -0.9130   -0.0128 C   0  0  0  0  0  0  0  0  0  0  0  0
   -0.7534    2.5068   -0.1596 F   0  0  0  0  0  0  0  0  0  0  0  0
   -5.0297    0.7543    0.1833 F   0  0  0  0  0  0  0  0  0  0  0  0
    0.1022   -3.7253   -0.1700 O   0  0  0  0  0  0  0  0  0  0  0  0
    3.7772   -0.4796   -1.0108 O   0  0  0  0  0  0  0  0  0  0  0  0
    3.8690    1.9328    0.0121 O   0  0  0  0  0  0  0  0  0  0  0  0
    3.4082   -0.1570    1.4623 O   0  0  0  0  0  0  0  0  0  0  0  0
   -1.4553   -2.1933   -0.0363 O   0  0  0  0  0  0  0  0  0  0  0  0
    3.2301    0.4628   -0.0070 P   0  0  1  0  0  0  0  0  0  0  0  0
    1.8382   -1.7971   -0.2808 H   0  0  0  0  0  0  0  0  0  0  0  0
    1.3959    1.4837   -1.1157 H   0  0  0  0  0  0  0  0  0  0  0  0
    1.2792    1.6492    0.6184 H   0  0  0  0  0  0  0  0  0  0  0  0
   -3.2760    2.6645    0.0234 H   0  0  0  0  0  0  0  0  0  0  0  0
   -3.9081   -1.5856    0.1275 H   0  0  0  0  0  0  0  0  0  0  0  0
    4.8361    1.9445   -0.0212 H   0  0  0  0  0  0  0  0  0  0  0  0
    3.1385    0.4128    2.1949 H   0  0  0  0  0  0  0  0  0  0  0  0
 12  8  1  0
  7  8  2  0
  7  6  1  0
  8  9  1  0
 11  6  1  0
  6  5  2  0
  9 10  2  0
 14 18  2  0
  5 10  1  0
  5  3  1  0
 10 17  1  0
 18 16  1  1
 18  4  1  0
 18 15  1  0
  4  3  1  0
  3  2  2  0
 17  1  1  0
  2  1  1  0
  1 13  2  0
  2 19  1  0
  4 20  1  0
  4 21  1  0
  7 22  1  0
  9 23  1  0
 15 24  1  0
 16 25  1  0
M  END
