
     RDKit          3D

 54 57  0  0  0  0  0  0  0  0999 V2000
   -5.4913   -1.0870   -0.6028 C   0  0  0  0  0  0  0  0  0  0  0  0
   -5.8908   -1.1813    0.7284 C   0  0  0  0  0  0  0  0  0  0  0  0
   -6.0829   -2.4318    1.2772 C   0  0  0  0  0  0  0  0  0  0  0  0
   -5.2694    0.2682   -1.2260 C   0  0  0  0  0  0  0  0  0  0  0  0
   -3.3635    2.3080    0.8870 C   0  0  0  0  0  0  0  0  0  0  0  0
   -0.1284    0.9058   -0.4649 C   0  0  0  0  0  0  0  0  0  0  0  0
   -0.7600    0.0534   -1.4012 C   0  0  0  0  0  0  0  0  0  0  0  0
   -2.1274   -0.0181   -1.5225 C   0  0  0  0  0  0  0  0  0  0  0  0
   -2.8808    0.8135   -0.6890 C   0  0  0  0  0  0  0  0  0  0  0  0
   -2.2711    1.6636    0.2467 C   0  0  0  0  0  0  0  0  0  0  0  0
   -0.8786    1.7062    0.3721 C   0  0  0  0  0  0  0  0  0  0  0  0
    2.4417    4.1415   -0.2874 C   0  0  0  0  0  0  0  0  0  0  0  0
    2.1227    1.9077   -0.2677 C   0  0  0  0  0  0  0  0  0  0  0  0
    6.9379   -1.3788    0.6747 C   0  0  0  0  0  0  0  0  0  0  0  0
    7.1853   -2.8307    0.9866 C   0  0  0  0  0  0  0  0  0  0  0  0
    7.0194   -4.9939    0.1276 C   0  0  0  0  0  0  0  0  0  0  0  0
   -5.8925   -3.5983    0.5582 C   0  0  0  0  0  0  0  0  0  0  0  0
   -5.4941   -3.4925   -0.7653 C   0  0  0  0  0  0  0  0  0  0  0  0
   -5.2935   -2.2450   -1.3441 C   0  0  0  0  0  0  0  0  0  0  0  0
   -6.4756   -2.5193    2.5585 F   0  0  0  0  0  0  0  0  0  0  0  0
   -4.2193    1.0077   -0.5699 N   0  0  0  0  0  0  0  0  0  0  0  0
   -4.5020    1.8956    0.3894 N   0  0  0  0  0  0  0  0  0  0  0  0
    3.7476    4.0968   -0.1516 N   0  0  0  0  0  0  0  0  0  0  0  0
    1.5977    3.1302   -0.3647 N   0  0  0  0  0  0  0  0  0  0  0  0
    3.5025    1.7015   -0.0511 C   0  0  0  0  0  0  0  0  0  0  0  0
    4.2987    2.8752   -0.0403 C   0  0  0  0  0  0  0  0  0  0  0  0
    5.2793    0.1307    0.2651 N   0  0  0  0  0  0  0  0  0  0  0  0
    5.5386   -1.1730    0.5705 O   0  0  0  0  0  0  0  0  0  0  0  0
    6.8053   -3.6254   -0.1061 O   0  0  0  0  0  0  0  0  0  0  0  0
   -6.0517   -0.2932    1.3280 H   0  0  0  0  0  0  0  0  0  0  0  0
    6.1297    3.6996    0.1891 H   0  0  0  0  0  0  0  0  0  0  0  0
    6.1029    1.9566    0.2170 H   0  0  0  0  0  0  0  0  0  0  0  0
   -5.0181    0.1605   -2.2821 H   0  0  0  0  0  0  0  0  0  0  0  0
   -6.1723    0.8759   -1.1723 H   0  0  0  0  0  0  0  0  0  0  0  0
   -3.3416    3.0470    1.6732 H   0  0  0  0  0  0  0  0  0  0  0  0
   -0.1402   -0.5620   -2.0420 H   0  0  0  0  0  0  0  0  0  0  0  0
   -2.5832   -0.6835   -2.2439 H   0  0  0  0  0  0  0  0  0  0  0  0
   -0.4110    2.3456    1.1069 H   0  0  0  0  0  0  0  0  0  0  0  0
    2.0027    5.1324   -0.3573 H   0  0  0  0  0  0  0  0  0  0  0  0
    3.3220   -0.4286    0.3972 H   0  0  0  0  0  0  0  0  0  0  0  0
    7.3570   -0.7696    1.4820 H   0  0  0  0  0  0  0  0  0  0  0  0
    7.4390   -1.0949   -0.2566 H   0  0  0  0  0  0  0  0  0  0  0  0
    8.2557   -2.9449    1.2094 H   0  0  0  0  0  0  0  0  0  0  0  0
    6.6419   -3.1218    1.8974 H   0  0  0  0  0  0  0  0  0  0  0  0
    8.0737   -5.2160    0.3314 H   0  0  0  0  0  0  0  0  0  0  0  0
    6.4297   -5.3631    0.9753 H   0  0  0  0  0  0  0  0  0  0  0  0
    6.7179   -5.5404   -0.7653 H   0  0  0  0  0  0  0  0  0  0  0  0
   -6.0542   -4.5628    1.0211 H   0  0  0  0  0  0  0  0  0  0  0  0
   -5.3365   -4.3901   -1.3480 H   0  0  0  0  0  0  0  0  0  0  0  0
   -4.9842   -2.1739   -2.3796 H   0  0  0  0  0  0  0  0  0  0  0  0
    1.6755   -0.0372   -0.6396 H   0  0  0  0  0  0  0  0  0  0  0  0
    1.2739    0.8529   -0.3961 N   0  0  0  0  0  0  0  0  0  0  0  0
    4.0289    0.3780    0.2076 C   0  0  0  0  0  0  0  0  0  0  0  0
    5.6243    2.8356    0.0914 N   0  0  0  0  0  0  0  0  0  0  0  0
  1  2  2  0
  1  4  1  0
  1 19  1  0
  2  3  1  0
  3 17  2  0
  3 20  1  0
 54 26  1  0
  4 21  1  0
  5 10  1  0
  5 22  2  0
  6  7  1  0
  6 11  2  0
  6 52  1  0
  7  8  2  0
  8  9  1  0
  9 10  2  0
  9 21  1  0
 10 11  1  0
 12 23  2  0
 12 24  1  0
 13 52  1  0
 13 24  2  0
 13 25  1  0
 53 25  1  0
 53 27  2  0
 14 15  1  0
 14 28  1  0
 15 29  1  0
 16 29  1  0
 17 18  1  0
 18 19  2  0
 21 22  1  0
 23 26  1  0
 25 26  2  0
 27 28  1  0
  2 30  1  0
 54 31  1  0
 54 32  1  0
  4 33  1  0
  4 34  1  0
  5 35  1  0
  7 36  1  0
  8 37  1  0
 11 38  1  0
 12 39  1  0
 53 40  1  0
 14 41  1  0
 14 42  1  0
 15 43  1  0
 15 44  1  0
 16 45  1  0
 16 46  1  0
 16 47  1  0
 17 48  1  0
 18 49  1  0
 19 50  1  0
 52 51  1  0
M  END
