
     RDKit          3D

 52 54  0  0  0  0  0  0  0  0999 V2000
    1.9461   -0.2142    0.3886 C   0  0  1  0  0  0  0  0  0  0  0  0
    2.6494   -0.8486    1.6004 C   0  0  0  0  0  0  0  0  0  0  0  0
    0.4316    0.0822    0.5793 C   0  0  2  0  0  0  0  0  0  0  0  0
    0.2448    1.1642    1.6424 C   0  0  0  0  0  0  0  0  0  0  0  0
    0.8130    2.4832    1.1387 C   0  0  0  0  0  0  0  0  0  0  0  0
    2.6295    1.1186    0.1007 C   0  0  0  0  0  0  0  0  0  0  0  0
   -2.4148    0.2813   -0.4163 C   0  0  0  0  0  0  0  0  0  0  0  0
   -4.5448    1.3529    0.6733 C   0  0  0  0  0  0  0  0  0  0  0  0
    3.9662    1.5381   -1.7783 O   0  0  0  0  0  0  0  0  0  0  0  0
    3.9924    1.1341   -0.5129 C   0  0  0  0  0  0  0  0  0  0  0  0
    5.0171    0.8931    0.0783 O   0  0  0  0  0  0  0  0  0  0  0  0
    2.0529   -1.1158   -0.8504 C   0  0  1  0  0  0  0  0  0  0  0  0
    3.4125   -1.4213   -1.0739 O   0  0  0  0  0  0  0  0  0  0  0  0
    1.2154   -2.3758   -0.6950 C   0  0  0  0  0  0  0  0  0  0  0  0
    2.1088    2.3023    0.4213 C   0  0  0  0  0  0  0  0  0  0  0  0
   -0.5111   -1.1417    0.7252 C   0  0  2  0  0  0  0  0  0  0  0  0
   -0.2679   -2.0824   -0.4831 C   0  0  2  0  0  0  0  0  0  0  0  0
   -1.0420   -3.3971   -0.4274 C   0  0  0  0  0  0  0  0  0  0  0  0
   -1.9820   -0.6564    0.7141 C   0  0  0  0  0  0  0  0  0  0  0  0
   -3.8727    0.5937   -0.3414 C   0  0  0  0  0  0  0  0  0  0  0  0
   -4.8467    0.2040   -1.1981 C   0  0  0  0  0  0  0  0  0  0  0  0
   -6.0538    0.6609   -0.7944 O   0  0  0  0  0  0  0  0  0  0  0  0
   -5.8559    1.3572    0.3423 C   0  0  0  0  0  0  0  0  0  0  0  0
    3.7303   -0.7695    1.5103 H   0  0  0  0  0  0  0  0  0  0  0  0
    2.3696   -0.3410    2.5225 H   0  0  0  0  0  0  0  0  0  0  0  0
    2.4146   -1.9030    1.7223 H   0  0  0  0  0  0  0  0  0  0  0  0
    0.1395    0.5399   -0.3760 H   0  0  0  0  0  0  0  0  0  0  0  0
   -0.8069    1.3050    1.8915 H   0  0  0  0  0  0  0  0  0  0  0  0
    0.7337    0.8773    2.5761 H   0  0  0  0  0  0  0  0  0  0  0  0
    0.1016    2.9667    0.4584 H   0  0  0  0  0  0  0  0  0  0  0  0
    0.9502    3.1899    1.9618 H   0  0  0  0  0  0  0  0  0  0  0  0
    0.5564   -2.5128    2.0811 H   0  0  0  0  0  0  0  0  0  0  0  0
   -0.2781   -1.1968    2.8941 H   0  0  0  0  0  0  0  0  0  0  0  0
   -1.1861   -2.5482    2.2360 H   0  0  0  0  0  0  0  0  0  0  0  0
   -1.8490    1.2163   -0.3714 H   0  0  0  0  0  0  0  0  0  0  0  0
   -2.1934   -0.1587   -1.3912 H   0  0  0  0  0  0  0  0  0  0  0  0
    4.8704    1.5781   -2.1264 H   0  0  0  0  0  0  0  0  0  0  0  0
    1.6521   -0.5440   -1.7021 H   0  0  0  0  0  0  0  0  0  0  0  0
    3.4949   -1.8024   -1.9534 H   0  0  0  0  0  0  0  0  0  0  0  0
    1.3235   -2.9842   -1.5994 H   0  0  0  0  0  0  0  0  0  0  0  0
    1.6077   -2.9847    0.1254 H   0  0  0  0  0  0  0  0  0  0  0  0
    2.6464    3.2109    0.1655 H   0  0  0  0  0  0  0  0  0  0  0  0
   -0.6080   -1.5471   -1.3778 H   0  0  0  0  0  0  0  0  0  0  0  0
   -2.1177   -3.2498   -0.3280 H   0  0  0  0  0  0  0  0  0  0  0  0
   -0.8809   -3.9654   -1.3450 H   0  0  0  0  0  0  0  0  0  0  0  0
   -0.7152   -4.0250    0.4030 H   0  0  0  0  0  0  0  0  0  0  0  0
   -2.2059   -0.1718    1.6691 H   0  0  0  0  0  0  0  0  0  0  0  0
   -2.6287   -1.5367    0.6967 H   0  0  0  0  0  0  0  0  0  0  0  0
   -4.8269   -0.3785   -2.1060 H   0  0  0  0  0  0  0  0  0  0  0  0
   -6.7271    1.7983    0.7994 H   0  0  0  0  0  0  0  0  0  0  0  0
   -0.3349   -1.8895    2.0531 C   0  0  0  0  0  0  0  0  0  0  0  0
   -4.0993    1.8325    1.5309 H   0  0  0  0  0  0  0  0  0  0  0  0
 22 23  1  0
 22 21  1  0
 23  8  2  0
 21 20  2  0
  8 20  1  0
 20  7  1  0
  7 19  1  0
 16 19  1  6
 18 17  1  0
 16 17  1  0
 16 51  1  0
 16  3  1  0
  4  5  1  0
  4  3  1  0
 17 14  1  0
  5 15  1  0
  3  1  1  0
 15  6  2  0
 14 12  1  0
  1 12  1  0
  1  6  1  0
  1  2  1  1
 12 13  1  0
  6 10  1  0
 11 10  2  0
 10  9  1  0
  2 24  1  0
  2 25  1  0
  2 26  1  0
  3 27  1  6
  4 28  1  0
  4 29  1  0
  5 30  1  0
  5 31  1  0
 51 32  1  0
 51 33  1  0
 51 34  1  0
  7 35  1  0
  7 36  1  0
  8 52  1  0
  9 37  1  0
 12 38  1  6
 13 39  1  0
 14 40  1  0
 14 41  1  0
 15 42  1  0
 17 43  1  6
 18 44  1  0
 18 45  1  0
 18 46  1  0
 19 47  1  0
 19 48  1  0
 21 49  1  0
 23 50  1  0
M  END
