
     RDKit          3D

 38 41  0  0  0  0  0  0  0  0999 V2000
   -3.3432    0.0913   -1.1232 C   0  0  0  0  0  0  0  0  0  0  0  0
   -2.7778   -0.6070    0.9143 C   0  0  0  0  0  0  0  0  0  0  0  0
   -3.1125   -1.0060    2.2237 C   0  0  0  0  0  0  0  0  0  0  0  0
   -2.1391   -1.5497    3.0148 C   0  0  0  0  0  0  0  0  0  0  0  0
   -0.8432   -1.7062    2.4872 C   0  0  0  0  0  0  0  0  0  0  0  0
   -1.4366   -0.7451    0.5127 C   0  0  0  0  0  0  0  0  0  0  0  0
   -1.1276   -0.3069   -0.8315 C   0  0  0  0  0  0  0  0  0  0  0  0
    1.2980   -0.1041   -0.5878 C   0  0  0  0  0  0  0  0  0  0  0  0
    1.3298    0.7875    0.4780 C   0  0  0  0  0  0  0  0  0  0  0  0
    2.4897    1.0052    1.1984 C   0  0  0  0  0  0  0  0  0  0  0  0
    3.6613    0.3446    0.8286 C   0  0  0  0  0  0  0  0  0  0  0  0
    4.9131    1.3282    2.5893 C   0  0  0  0  0  0  0  0  0  0  0  0
    3.6409   -0.5002   -0.2754 C   0  0  0  0  0  0  0  0  0  0  0  0
    2.4763   -0.7305   -0.9972 C   0  0  0  0  0  0  0  0  0  0  0  0
    2.5350   -1.5877   -2.2362 C   0  0  0  0  0  0  0  0  0  0  0  0
    1.1847   -1.7522   -2.9264 C   0  0  0  0  0  0  0  0  0  0  0  0
    0.3407   -0.4972   -2.7729 C   0  0  0  0  0  0  0  0  0  0  0  0
   -3.7498   -0.1583    0.0779 N   0  0  0  0  0  0  0  0  0  0  0  0
   -0.5041   -1.3164    1.2860 N   0  0  0  0  0  0  0  0  0  0  0  0
    0.1185   -0.2906   -1.3435 N   0  0  0  0  0  0  0  0  0  0  0  0
   -2.1229    0.0493   -1.6305 N   0  0  0  0  0  0  0  0  0  0  0  0
   -4.5677    0.5866   -2.2523 Cl  0  0  0  0  0  0  0  0  0  0  0  0
   -4.1320   -0.8906    2.5679 H   0  0  0  0  0  0  0  0  0  0  0  0
   -2.3529   -1.8754    4.0233 H   0  0  0  0  0  0  0  0  0  0  0  0
   -0.0702   -2.1730    3.0869 H   0  0  0  0  0  0  0  0  0  0  0  0
    0.4369    1.3318    0.7584 H   0  0  0  0  0  0  0  0  0  0  0  0
    2.4641    1.7013    2.0250 H   0  0  0  0  0  0  0  0  0  0  0  0
    4.6686    2.3649    2.3434 H   0  0  0  0  0  0  0  0  0  0  0  0
    4.2509    0.9919    3.3916 H   0  0  0  0  0  0  0  0  0  0  0  0
    5.9398    1.2880    2.9450 H   0  0  0  0  0  0  0  0  0  0  0  0
    4.5599   -0.9859   -0.5854 H   0  0  0  0  0  0  0  0  0  0  0  0
    3.2404   -1.1199   -2.9282 H   0  0  0  0  0  0  0  0  0  0  0  0
    2.9586   -2.5641   -1.9919 H   0  0  0  0  0  0  0  0  0  0  0  0
    1.3286   -1.9689   -3.9858 H   0  0  0  0  0  0  0  0  0  0  0  0
    0.6321   -2.5933   -2.5021 H   0  0  0  0  0  0  0  0  0  0  0  0
    0.8462    0.3760   -3.1930 H   0  0  0  0  0  0  0  0  0  0  0  0
   -0.6167   -0.6038   -3.2732 H   0  0  0  0  0  0  0  0  0  0  0  0
    4.8453    0.4836    1.4586 O   0  0  0  0  0  0  0  0  0  0  0  0
 38 12  1  0
 38 11  1  0
 13 11  2  0
 13 14  1  0
 11 10  1  0
 15 14  1  0
 15 16  1  0
 14  8  2  0
 10  9  2  0
 16 17  1  0
  8  9  1  0
  8 20  1  0
  5 19  2  0
  5  4  1  0
 19  6  1  0
 17 20  1  0
 20  7  1  0
  4  3  2  0
  6  7  2  0
  6  2  1  0
  7 21  1  0
  3  2  1  0
  2 18  2  0
 21  1  2  0
 18  1  1  0
  1 22  1  0
  3 23  1  0
  4 24  1  0
  5 25  1  0
  9 26  1  0
 10 27  1  0
 12 28  1  0
 12 29  1  0
 12 30  1  0
 13 31  1  0
 15 32  1  0
 15 33  1  0
 16 34  1  0
 16 35  1  0
 17 36  1  0
 17 37  1  0
M  END
