
     RDKit          3D

 50 53  0  0  0  0  0  0  0  0999 V2000
   -7.5156    2.2844    1.1654 N   0  0  0  0  0  0  0  0  0  0  0  0
   -7.1795    1.4025    0.3031 C   0  0  0  0  0  0  0  0  0  0  0  0
   -5.8488    0.7526    0.4263 C   0  0  0  0  0  0  0  0  0  0  0  0
   -5.2020    0.7297    1.6636 C   0  0  0  0  0  0  0  0  0  0  0  0
   -3.9664    0.1353    1.8122 C   0  0  0  0  0  0  0  0  0  0  0  0
   -5.2016    0.1737   -0.6593 C   0  0  0  0  0  0  0  0  0  0  0  0
   -3.9540   -0.4231   -0.5283 C   0  0  0  0  0  0  0  0  0  0  0  0
   -3.3306   -0.4522    0.7154 C   0  0  0  0  0  0  0  0  0  0  0  0
   -2.1369   -1.0264    0.9624 O   0  0  0  0  0  0  0  0  0  0  0  0
   -1.4060   -1.6144   -0.1003 C   0  0  1  0  0  0  0  0  0  0  0  0
   -0.6838   -0.5647   -0.9301 C   0  0  0  0  0  0  0  0  0  0  0  0
    0.4376   -0.1915   -0.1502 O   0  0  0  0  0  0  0  0  0  0  0  0
   -0.2399   -2.3552    0.5547 C   0  0  2  0  0  0  0  0  0  0  0  0
    0.8530   -1.2789    0.6459 C   0  0  1  0  0  0  0  0  0  0  0  0
    2.0812   -1.9917    0.0577 C   0  0  2  0  0  0  0  0  0  0  0  0
    2.9478   -1.1652   -0.6732 O   0  0  0  0  0  0  0  0  0  0  0  0
    0.2505   -3.3921   -0.2719 O   0  0  0  0  0  0  0  0  0  0  0  0
    3.8759   -0.1852    1.3476 C   0  0  0  0  0  0  0  0  0  0  0  0
    1.4599   -3.0087   -0.8918 C   0  0  0  0  0  0  0  0  0  0  0  0
    3.7677   -0.3028   -0.0355 C   0  0  0  0  0  0  0  0  0  0  0  0
    4.5561    0.4959   -0.8600 C   0  0  0  0  0  0  0  0  0  0  0  0
    5.8057    2.5084   -2.4007 N   0  0  0  0  0  0  0  0  0  0  0  0
    7.4518    2.6926   -0.7241 N   0  0  0  0  0  0  0  0  0  0  0  0
    4.7741    0.7296    1.8822 C   0  0  0  0  0  0  0  0  0  0  0  0
    5.5657    1.5209    1.0670 C   0  0  0  0  0  0  0  0  0  0  0  0
    5.4568    1.4018   -0.3193 C   0  0  0  0  0  0  0  0  0  0  0  0
   -7.9211    1.0200   -0.7803 N   0  0  0  0  0  0  0  0  0  0  0  0
   -8.4578    2.6247    0.9938 H   0  0  0  0  0  0  0  0  0  0  0  0
   -5.6837    1.1787    2.5216 H   0  0  0  0  0  0  0  0  0  0  0  0
   -3.4845    0.1121    2.7816 H   0  0  0  0  0  0  0  0  0  0  0  0
   -5.6494    0.1957   -1.6447 H   0  0  0  0  0  0  0  0  0  0  0  0
   -3.4951   -0.8517   -1.4083 H   0  0  0  0  0  0  0  0  0  0  0  0
   -2.0316   -2.2880   -0.6930 H   0  0  0  0  0  0  0  0  0  0  0  0
   -0.3906   -0.9912   -1.8969 H   0  0  0  0  0  0  0  0  0  0  0  0
   -1.2791    0.3271   -1.1335 H   0  0  0  0  0  0  0  0  0  0  0  0
   -0.5268   -2.7789    1.5195 H   0  0  0  0  0  0  0  0  0  0  0  0
    1.0165   -0.9252    1.6652 H   0  0  0  0  0  0  0  0  0  0  0  0
    2.6120   -2.5161    0.8616 H   0  0  0  0  0  0  0  0  0  0  0  0
    3.2822   -0.7864    2.0218 H   0  0  0  0  0  0  0  0  0  0  0  0
    1.2922   -2.5593   -1.8786 H   0  0  0  0  0  0  0  0  0  0  0  0
    2.0791   -3.8960   -1.0270 H   0  0  0  0  0  0  0  0  0  0  0  0
    4.4696    0.4017   -1.9348 H   0  0  0  0  0  0  0  0  0  0  0  0
    6.4641    3.0606   -2.9438 H   0  0  0  0  0  0  0  0  0  0  0  0
    7.9036    2.1453   -0.0102 H   0  0  0  0  0  0  0  0  0  0  0  0
    8.0927    3.1465   -1.3553 H   0  0  0  0  0  0  0  0  0  0  0  0
    4.8481    0.8249    2.9575 H   0  0  0  0  0  0  0  0  0  0  0  0
    6.2415    2.2379    1.5139 H   0  0  0  0  0  0  0  0  0  0  0  0
   -7.7958    0.0864   -1.1363 H   0  0  0  0  0  0  0  0  0  0  0  0
   -8.8797    1.3296   -0.8094 H   0  0  0  0  0  0  0  0  0  0  0  0
    6.2736    2.2401   -1.2427 C   0  0  0  0  0  0  0  0  0  0  0  0
  1  2  2  0
  1 28  1  0
  2  3  1  0
  2 27  1  0
  3  4  2  0
  3  6  1  0
  4  5  1  0
  4 29  1  0
  5  8  2  0
  5 30  1  0
  6  7  2  0
  6 31  1  0
  7  8  1  0
  7 32  1  0
  8  9  1  0
  9 10  1  0
 10 11  1  0
 10 13  1  0
 10 33  1  6
 11 12  1  0
 11 34  1  0
 11 35  1  0
 12 14  1  0
 13 14  1  0
 13 17  1  0
 13 36  1  1
 14 15  1  0
 14 37  1  1
 15 16  1  0
 15 19  1  0
 15 38  1  1
 16 20  1  0
 17 19  1  0
 18 20  2  0
 18 24  1  0
 18 39  1  0
 19 40  1  0
 19 41  1  0
 20 21  1  0
 21 26  2  0
 21 42  1  0
 50 22  2  0
 50 23  1  0
 50 26  1  0
 22 43  1  0
 23 44  1  0
 23 45  1  0
 24 25  2  0
 24 46  1  0
 25 26  1  0
 25 47  1  0
 27 48  1  0
 27 49  1  0
M  END
