
     RDKit          3D

 44 43  0  0  0  0  0  0  0  0999 V2000
   -2.1254   -0.0040    1.9454 N   0  0  0  0  0  0  0  0  0  0  0  0
   -2.1287   -0.1588    0.4978 C   0  0  1  0  0  0  0  0  0  0  0  0
   -0.8065   -0.6859   -0.1043 C   0  0  0  0  0  0  0  0  0  0  0  0
    0.4398    0.1350    0.2183 C   0  0  0  0  0  0  0  0  0  0  0  0
    1.7014   -0.5202   -0.3327 C   0  0  0  0  0  0  0  0  0  0  0  0
    2.9749    0.1487    0.1677 C   0  0  0  0  0  0  0  0  0  0  0  0
    4.2465   -0.4830   -0.3837 C   0  0  0  0  0  0  0  0  0  0  0  0
    5.5153    0.1165    0.2091 C   0  0  0  0  0  0  0  0  0  0  0  0
    6.7931   -0.5150   -0.3278 C   0  0  0  0  0  0  0  0  0  0  0  0
    8.0573    0.0651    0.2942 C   0  0  0  0  0  0  0  0  0  0  0  0
    9.3315   -0.5702   -0.2440 C   0  0  0  0  0  0  0  0  0  0  0  0
   -3.5194   -1.3378    0.1644 P   0  0  1  0  0  0  0  0  0  0  0  0
   -4.7828   -1.1046    0.8918 O   0  0  0  0  0  0  0  0  0  0  0  0
   -3.5625   -1.2929   -1.4358 O   0  0  0  0  0  0  0  0  0  0  0  0
   -2.9541   -2.7868    0.5782 O   0  0  0  0  0  0  0  0  0  0  0  0
   -2.6545    1.4639   -0.2189 P   0  0  1  0  0  0  0  0  0  0  0  0
   -1.7422    2.4756    0.6278 O   0  0  0  0  0  0  0  0  0  0  0  0
   -2.1145    1.5137   -1.7289 O   0  0  0  0  0  0  0  0  0  0  0  0
   -4.1092    1.7277   -0.2022 O   0  0  0  0  0  0  0  0  0  0  0  0
   -1.8810   -0.8813    2.3916 H   0  0  0  0  0  0  0  0  0  0  0  0
   -1.4204    0.6616    2.2343 H   0  0  0  0  0  0  0  0  0  0  0  0
   -0.6338   -1.6857    0.3042 H   0  0  0  0  0  0  0  0  0  0  0  0
   -0.9014   -0.8147   -1.1850 H   0  0  0  0  0  0  0  0  0  0  0  0
    0.3713    1.1535   -0.1727 H   0  0  0  0  0  0  0  0  0  0  0  0
    0.5406    0.2341    1.3027 H   0  0  0  0  0  0  0  0  0  0  0  0
    1.7163   -1.5775   -0.0475 H   0  0  0  0  0  0  0  0  0  0  0  0
    1.6759   -0.5020   -1.4271 H   0  0  0  0  0  0  0  0  0  0  0  0
    2.9560    1.2144   -0.0848 H   0  0  0  0  0  0  0  0  0  0  0  0
    2.9943    0.0989    1.2620 H   0  0  0  0  0  0  0  0  0  0  0  0
    4.2303   -1.5606   -0.1854 H   0  0  0  0  0  0  0  0  0  0  0  0
    4.2652   -0.3777   -1.4739 H   0  0  0  0  0  0  0  0  0  0  0  0
    5.5343    1.1951    0.0174 H   0  0  0  0  0  0  0  0  0  0  0  0
    5.4885    0.0059    1.2991 H   0  0  0  0  0  0  0  0  0  0  0  0
    6.7659   -1.5961   -0.1505 H   0  0  0  0  0  0  0  0  0  0  0  0
    6.8331   -0.3898   -1.4157 H   0  0  0  0  0  0  0  0  0  0  0  0
    8.0837    1.1452    0.1187 H   0  0  0  0  0  0  0  0  0  0  0  0
    8.0153   -0.0621    1.3805 H   0  0  0  0  0  0  0  0  0  0  0  0
   10.2208   -0.1381    0.2163 H   0  0  0  0  0  0  0  0  0  0  0  0
    9.3489   -1.6447   -0.0514 H   0  0  0  0  0  0  0  0  0  0  0  0
    9.4169   -0.4305   -1.3234 H   0  0  0  0  0  0  0  0  0  0  0  0
   -4.3297   -1.7293   -1.8331 H   0  0  0  0  0  0  0  0  0  0  0  0
   -2.2307   -3.1401    0.0446 H   0  0  0  0  0  0  0  0  0  0  0  0
   -2.0091    3.4037    0.5611 H   0  0  0  0  0  0  0  0  0  0  0  0
   -1.1571    1.5515   -1.8501 H   0  0  0  0  0  0  0  0  0  0  0  0
 11 10  1  0
 10  9  1  0
  9  8  1  0
  8  7  1  0
  7  6  1  0
  6  5  1  0
  5  4  1  0
  4  3  1  0
  3  2  1  0
 13 12  2  0
 12 15  1  6
  2 12  1  0
  2  1  1  1
  2 16  1  0
 12 14  1  0
 19 16  2  0
 16 18  1  6
 16 17  1  0
  1 20  1  0
  1 21  1  0
  3 22  1  0
  3 23  1  0
  4 24  1  0
  4 25  1  0
  5 26  1  0
  5 27  1  0
  6 28  1  0
  6 29  1  0
  7 30  1  0
  7 31  1  0
  8 32  1  0
  8 33  1  0
  9 34  1  0
  9 35  1  0
 10 36  1  0
 10 37  1  0
 11 38  1  0
 11 39  1  0
 11 40  1  0
 14 41  1  0
 15 42  1  0
 17 43  1  0
 18 44  1  0
M  END
