
     RDKit          3D

 65 64  0  0  0  0  0  0  0  0999 V2000
   10.6373    1.1671    1.2406 O   0  0  0  0  0  0  0  0  0  0  0  0
    9.9561    0.0935    1.7261 C   0  0  0  0  0  0  0  0  0  0  0  0
    9.3333   -2.0330    0.7232 N   0  0  0  0  0  0  0  0  0  0  0  0
   10.1046   -0.1806    2.9190 O   0  0  0  0  0  0  0  0  0  0  0  0
    9.1022   -0.6052    0.6806 C   0  0  1  0  0  0  0  0  0  0  0  0
    7.6548   -0.1316    0.9033 C   0  0  0  0  0  0  0  0  0  0  0  0
    5.4489    0.3286   -0.1576 C   0  0  0  0  0  0  0  0  0  0  0  0
    4.6264    0.1692   -1.4390 C   0  0  0  0  0  0  0  0  0  0  0  0
    6.8209   -0.2822   -0.3490 C   0  0  0  0  0  0  0  0  0  0  0  0
   -1.5949    0.7247   -0.7219 C   0  0  0  0  0  0  0  0  0  0  0  0
   -2.7759   -0.1708   -0.4127 C   0  0  0  0  0  0  0  0  0  0  0  0
   -4.0698    0.6152   -0.3919 C   0  0  0  0  0  0  0  0  0  0  0  0
   -5.2549   -0.2851   -0.1136 C   0  0  0  0  0  0  0  0  0  0  0  0
   -6.5475    0.5025   -0.0820 C   0  0  0  0  0  0  0  0  0  0  0  0
  -10.2154   -0.5122    0.4737 C   0  0  0  0  0  0  0  0  0  0  0  0
   -7.7348   -0.3991    0.1823 C   0  0  0  0  0  0  0  0  0  0  0  0
  -11.5043    0.2801    0.5313 C   0  0  0  0  0  0  0  0  0  0  0  0
   -0.3042   -0.0646   -0.7427 C   0  0  0  0  0  0  0  0  0  0  0  0
   -9.0261    0.3905    0.2228 C   0  0  0  0  0  0  0  0  0  0  0  0
  -13.9785    0.1657    0.8538 C   0  0  0  0  0  0  0  0  0  0  0  0
  -12.6951   -0.6209    0.7810 C   0  0  0  0  0  0  0  0  0  0  0  0
    2.1667    0.0395   -1.0998 C   0  0  0  0  0  0  0  0  0  0  0  0
    2.2028   -1.1874   -0.8789 O   0  0  0  0  0  0  0  0  0  0  0  0
    0.8700    0.8287   -1.0781 C   0  0  0  0  0  0  0  0  0  0  0  0
    3.3185    0.7566   -1.3784 N   0  0  0  0  0  0  0  0  0  0  0  0
    8.7911   -2.4657    1.4462 H   0  0  0  0  0  0  0  0  0  0  0  0
    9.1058   -2.4436   -0.1609 H   0  0  0  0  0  0  0  0  0  0  0  0
    9.4393   -0.2475   -0.3402 H   0  0  0  0  0  0  0  0  0  0  0  0
    7.1902   -0.7074    1.7454 H   0  0  0  0  0  0  0  0  0  0  0  0
    7.6829    0.9481    1.2072 H   0  0  0  0  0  0  0  0  0  0  0  0
    5.5520    1.4139    0.1038 H   0  0  0  0  0  0  0  0  0  0  0  0
    4.9281   -0.1749    0.6979 H   0  0  0  0  0  0  0  0  0  0  0  0
    5.1907    0.6596   -2.2851 H   0  0  0  0  0  0  0  0  0  0  0  0
    4.5281   -0.9295   -1.6791 H   0  0  0  0  0  0  0  0  0  0  0  0
    7.3388    0.2154   -1.2110 H   0  0  0  0  0  0  0  0  0  0  0  0
    6.7071   -1.3674   -0.6102 H   0  0  0  0  0  0  0  0  0  0  0  0
   -1.7506    1.2216   -1.7157 H   0  0  0  0  0  0  0  0  0  0  0  0
   -1.5288    1.5382    0.0480 H   0  0  0  0  0  0  0  0  0  0  0  0
   -2.8417   -0.9848   -1.1821 H   0  0  0  0  0  0  0  0  0  0  0  0
   -2.6207   -0.6676    0.5812 H   0  0  0  0  0  0  0  0  0  0  0  0
   -4.0123    1.4144    0.3935 H   0  0  0  0  0  0  0  0  0  0  0  0
   -4.2129    1.1309   -1.3781 H   0  0  0  0  0  0  0  0  0  0  0  0
   -5.3175   -1.0793   -0.9037 H   0  0  0  0  0  0  0  0  0  0  0  0
   -5.1081   -0.8070    0.8687 H   0  0  0  0  0  0  0  0  0  0  0  0
   -6.4886    1.2900    0.7151 H   0  0  0  0  0  0  0  0  0  0  0  0
   -6.6888    1.0331   -1.0604 H   0  0  0  0  0  0  0  0  0  0  0  0
  -10.0706   -1.0656    1.4389 H   0  0  0  0  0  0  0  0  0  0  0  0
  -10.2825   -1.2810   -0.3408 H   0  0  0  0  0  0  0  0  0  0  0  0
   -7.7977   -1.1825   -0.6184 H   0  0  0  0  0  0  0  0  0  0  0  0
   -7.5905   -0.9345    1.1577 H   0  0  0  0  0  0  0  0  0  0  0  0
  -11.4377    1.0484    1.3462 H   0  0  0  0  0  0  0  0  0  0  0  0
  -11.6489    0.8342   -0.4336 H   0  0  0  0  0  0  0  0  0  0  0  0
   -0.1318   -0.5490    0.2546 H   0  0  0  0  0  0  0  0  0  0  0  0
   -0.3697   -0.8927   -1.4969 H   0  0  0  0  0  0  0  0  0  0  0  0
   -9.1651    0.9341   -0.7488 H   0  0  0  0  0  0  0  0  0  0  0  0
   -8.9667    1.1672    1.0303 H   0  0  0  0  0  0  0  0  0  0  0  0
  -14.8429   -0.5175    1.0377 H   0  0  0  0  0  0  0  0  0  0  0  0
  -13.9368    0.9129    1.6830 H   0  0  0  0  0  0  0  0  0  0  0  0
  -14.1597    0.7143   -0.1022 H   0  0  0  0  0  0  0  0  0  0  0  0
  -12.7658   -1.3823   -0.0400 H   0  0  0  0  0  0  0  0  0  0  0  0
  -12.5430   -1.1836    1.7398 H   0  0  0  0  0  0  0  0  0  0  0  0
    0.7132    1.3017   -2.0833 H   0  0  0  0  0  0  0  0  0  0  0  0
    0.9498    1.6522   -0.3202 H   0  0  0  0  0  0  0  0  0  0  0  0
    3.2488    1.7294   -1.5484 H   0  0  0  0  0  0  0  0  0  0  0  0
   11.1623    1.5696    1.9527 H   0  0  0  0  0  0  0  0  0  0  0  0
  1  2  1  0
  2  4  2  0
  2  5  1  0
  3  5  1  0
  5  6  1  0
  6  9  1  0
  7  8  1  0
  7  9  1  0
  8 25  1  0
 10 11  1  0
 10 18  1  0
 11 12  1  0
 12 13  1  0
 13 14  1  0
 14 16  1  0
 15 17  1  0
 15 19  1  0
 16 19  1  0
 17 21  1  0
 18 24  1  0
 20 21  1  0
 22 23  2  0
 22 24  1  0
 22 25  1  0
  3 26  1  0
  3 27  1  0
  5 28  1  6
  6 29  1  0
  6 30  1  0
  7 31  1  0
  7 32  1  0
  8 33  1  0
  8 34  1  0
  9 35  1  0
  9 36  1  0
 10 37  1  0
 10 38  1  0
 11 39  1  0
 11 40  1  0
 12 41  1  0
 12 42  1  0
 13 43  1  0
 13 44  1  0
 14 45  1  0
 14 46  1  0
 15 47  1  0
 15 48  1  0
 16 49  1  0
 16 50  1  0
 17 51  1  0
 17 52  1  0
 18 53  1  0
 18 54  1  0
 19 55  1  0
 19 56  1  0
 20 57  1  0
 20 58  1  0
 20 59  1  0
 21 60  1  0
 21 61  1  0
 24 62  1  0
 24 63  1  0
 25 64  1  0
  1 65  1  0
M  END
