
     RDKit          3D

 62 62  0  0  0  0  0  0  0  0999 V2000
    0.2200   -0.4188    2.8434 C   0  0  0  0  0  0  0  0  0  0  0  0
   -1.1169   -0.3474    2.4690 C   0  0  0  0  0  0  0  0  0  0  0  0
   -1.4727   -0.4895    1.1376 C   0  0  0  0  0  0  0  0  0  0  0  0
   -0.5164   -0.6912    0.1472 C   0  0  0  0  0  0  0  0  0  0  0  0
    0.8184   -0.7427    0.5346 C   0  0  0  0  0  0  0  0  0  0  0  0
    1.1875   -0.6142    1.8647 C   0  0  0  0  0  0  0  0  0  0  0  0
    0.6419   -0.2243    4.1737 N   0  0  0  0  0  0  0  0  0  0  0  0
    0.1827   -0.8364    5.2896 C   0  0  0  0  0  0  0  0  0  0  0  0
   -1.0172   -2.0124    5.2771 S   0  0  0  0  0  0  0  0  0  0  0  0
    0.7858   -0.4420    6.4163 N   0  0  0  0  0  0  0  0  0  0  0  0
    0.4584   -0.9116    7.7432 C   0  0  0  0  0  0  0  0  0  0  0  0
    1.6213   -0.6882    8.6833 C   0  0  0  0  0  0  0  0  0  0  0  0
    1.9015    0.6941    8.7383 O   0  0  0  0  0  0  0  0  0  0  0  0
   -0.8772   -0.8179   -1.3061 C   0  0  0  0  0  0  0  0  0  0  0  0
   -0.8344    0.5128   -2.0673 C   0  0  1  0  0  0  0  0  0  0  0  0
   -0.7586    0.2574   -3.5821 C   0  0  0  0  0  0  0  0  0  0  0  0
   -1.9090    1.4392   -1.6940 N   0  0  0  0  0  0  0  0  0  0  0  0
   -1.4807    2.8140   -1.7914 C   0  0  0  0  0  0  0  0  0  0  0  0
   -0.5681    3.2248   -0.6551 C   0  0  0  0  0  0  0  0  0  0  0  0
   -0.4267    2.6344    0.3805 O   0  0  0  0  0  0  0  0  0  0  0  0
    0.0479    4.3697   -0.9453 O   0  0  0  0  0  0  0  0  0  0  0  0
   -3.1782    1.2224   -2.3651 C   0  0  0  0  0  0  0  0  0  0  0  0
   -3.9954    0.0919   -1.7705 C   0  0  0  0  0  0  0  0  0  0  0  0
   -4.3297    0.0281   -0.6151 O   0  0  0  0  0  0  0  0  0  0  0  0
   -4.3565   -0.7988   -2.6854 O   0  0  0  0  0  0  0  0  0  0  0  0
    0.5467   -0.2333   -3.9924 N   0  0  0  0  0  0  0  0  0  0  0  0
    0.4639   -1.0277   -5.1934 C   0  0  0  0  0  0  0  0  0  0  0  0
    1.7272   -1.7935   -5.4937 C   0  0  0  0  0  0  0  0  0  0  0  0
    2.7561   -1.7223   -4.8718 O   0  0  0  0  0  0  0  0  0  0  0  0
    1.5668   -2.5647   -6.5613 O   0  0  0  0  0  0  0  0  0  0  0  0
    1.5438    0.8119   -4.0711 C   0  0  0  0  0  0  0  0  0  0  0  0
    2.7920    0.5195   -3.2694 C   0  0  0  0  0  0  0  0  0  0  0  0
    2.8230   -0.0806   -2.2275 O   0  0  0  0  0  0  0  0  0  0  0  0
    3.8600    1.0966   -3.8123 O   0  0  0  0  0  0  0  0  0  0  0  0
   -1.8794   -0.1770    3.2155 H   0  0  0  0  0  0  0  0  0  0  0  0
   -2.5176   -0.4252    0.8691 H   0  0  0  0  0  0  0  0  0  0  0  0
    1.5845   -0.8807   -0.2176 H   0  0  0  0  0  0  0  0  0  0  0  0
    2.2332   -0.6703    2.1440 H   0  0  0  0  0  0  0  0  0  0  0  0
    1.4833    0.3260    4.2743 H   0  0  0  0  0  0  0  0  0  0  0  0
    1.4153    0.3476    6.3725 H   0  0  0  0  0  0  0  0  0  0  0  0
    0.2353   -1.9766    7.7037 H   0  0  0  0  0  0  0  0  0  0  0  0
   -0.4385   -0.4101    8.1214 H   0  0  0  0  0  0  0  0  0  0  0  0
    2.4875   -1.2608    8.3309 H   0  0  0  0  0  0  0  0  0  0  0  0
    1.3435   -1.0890    9.6652 H   0  0  0  0  0  0  0  0  0  0  0  0
    2.7295    0.8167    9.2110 H   0  0  0  0  0  0  0  0  0  0  0  0
   -0.1550   -1.4732   -1.7991 H   0  0  0  0  0  0  0  0  0  0  0  0
   -1.8497   -1.3003   -1.4242 H   0  0  0  0  0  0  0  0  0  0  0  0
    0.1038    0.9861   -1.7653 H   0  0  0  0  0  0  0  0  0  0  0  0
   -1.5054   -0.4938   -3.8506 H   0  0  0  0  0  0  0  0  0  0  0  0
   -1.0340    1.1686   -4.1364 H   0  0  0  0  0  0  0  0  0  0  0  0
   -0.9963    3.0652   -2.7475 H   0  0  0  0  0  0  0  0  0  0  0  0
   -2.3501    3.4757   -1.7302 H   0  0  0  0  0  0  0  0  0  0  0  0
    0.5913    4.6501   -0.1940 H   0  0  0  0  0  0  0  0  0  0  0  0
   -3.7968    2.1123   -2.2246 H   0  0  0  0  0  0  0  0  0  0  0  0
   -3.0968    1.0890   -3.4483 H   0  0  0  0  0  0  0  0  0  0  0  0
   -4.9124   -1.4833   -2.2822 H   0  0  0  0  0  0  0  0  0  0  0  0
   -0.3412   -1.7585   -5.0835 H   0  0  0  0  0  0  0  0  0  0  0  0
    0.2156   -0.4369   -6.0913 H   0  0  0  0  0  0  0  0  0  0  0  0
    2.3855   -3.0471   -6.7504 H   0  0  0  0  0  0  0  0  0  0  0  0
    1.8100    1.0551   -5.1057 H   0  0  0  0  0  0  0  0  0  0  0  0
    1.1435    1.7466   -3.6598 H   0  0  0  0  0  0  0  0  0  0  0  0
    4.6316    0.9599   -3.2429 H   0  0  0  0  0  0  0  0  0  0  0  0
  1  2  2  0
  1  6  1  0
  1  7  1  0
  2  3  1  0
  2 35  1  0
  3  4  2  0
  3 36  1  0
  4  5  1  0
  4 14  1  0
  5  6  2  0
  5 37  1  0
  6 38  1  0
  7  8  1  0
  7 39  1  0
  8  9  2  0
  8 10  1  0
 10 11  1  0
 10 40  1  0
 11 12  1  0
 11 41  1  0
 11 42  1  0
 12 13  1  0
 12 43  1  0
 12 44  1  0
 13 45  1  0
 14 15  1  0
 14 46  1  0
 14 47  1  0
 15 16  1  0
 15 17  1  0
 15 48  1  1
 16 26  1  0
 16 49  1  0
 16 50  1  0
 17 18  1  0
 17 22  1  0
 18 19  1  0
 18 51  1  0
 18 52  1  0
 19 20  2  0
 19 21  1  0
 21 53  1  0
 22 23  1  0
 22 54  1  0
 22 55  1  0
 23 24  2  0
 23 25  1  0
 25 56  1  0
 26 27  1  0
 26 31  1  0
 27 28  1  0
 27 57  1  0
 27 58  1  0
 28 29  2  0
 28 30  1  0
 30 59  1  0
 31 32  1  0
 31 60  1  0
 31 61  1  0
 32 33  2  0
 32 34  1  0
 34 62  1  0
M  END
