
     RDKit          3D

 53 53  0  0  0  0  0  0  0  0999 V2000
    0.9155   -1.2480    9.8404 O   0  0  0  0  0  0  0  0  0  0  0  0
    1.4563   -1.7183    8.7446 C   0  0  0  0  0  0  0  0  0  0  0  0
    2.1273   -2.7128    8.6547 O   0  0  0  0  0  0  0  0  0  0  0  0
    1.1253   -0.8216    7.5422 C   0  0  0  0  0  0  0  0  0  0  0  0
    0.4300    0.1657    7.6740 O   0  0  0  0  0  0  0  0  0  0  0  0
    1.6916   -1.2800    6.4186 N   0  0  0  0  0  0  0  0  0  0  0  0
    1.6279   -0.7620    5.1191 C   0  0  0  0  0  0  0  0  0  0  0  0
    0.9586    0.4084    4.7743 C   0  0  0  0  0  0  0  0  0  0  0  0
    0.9448    0.8227    3.4507 C   0  0  0  0  0  0  0  0  0  0  0  0
    1.5665    0.0964    2.4415 C   0  0  0  0  0  0  0  0  0  0  0  0
    2.2508   -1.0612    2.8063 C   0  0  0  0  0  0  0  0  0  0  0  0
    2.2874   -1.4840    4.1223 C   0  0  0  0  0  0  0  0  0  0  0  0
    1.3857    0.4804    1.0021 C   0  0  0  0  0  0  0  0  0  0  0  0
    0.3327   -0.4154    0.3171 C   0  0  0  0  0  0  0  0  0  0  0  0
   -0.7918   -0.7226    1.1770 N   0  0  0  0  0  0  0  0  0  0  0  0
   -1.6050    0.2237    1.6671 C   0  0  0  0  0  0  0  0  0  0  0  0
   -1.6631    1.3590    1.2211 O   0  0  0  0  0  0  0  0  0  0  0  0
   -2.4621   -0.2312    2.8455 C   0  0  1  0  0  0  0  0  0  0  0  0
   -2.9369    0.9393    3.5386 N   0  0  0  0  0  0  0  0  0  0  0  0
   -3.1391    0.9706    4.8692 C   0  0  0  0  0  0  0  0  0  0  0  0
   -2.9959   -0.0081    5.5861 O   0  0  0  0  0  0  0  0  0  0  0  0
   -3.6019    2.3054    5.4108 C   0  0  0  0  0  0  0  0  0  0  0  0
   -3.1242    2.5562    6.8330 C   0  0  0  0  0  0  0  0  0  0  0  0
   -1.6822    2.6315    6.9550 N   0  0  0  0  0  0  0  0  0  0  0  0
   -0.9911    3.7301    6.6257 C   0  0  0  0  0  0  0  0  0  0  0  0
   -1.4938    4.7268    6.1347 O   0  0  0  0  0  0  0  0  0  0  0  0
    0.4858    3.6674    6.9683 C   0  0  0  0  0  0  0  0  0  0  0  0
    1.5540    4.2069    5.4314 Br  0  0  0  0  0  0  0  0  0  0  0  0
   -3.6119   -1.1304    2.3813 C   0  0  0  0  0  0  0  0  0  0  0  0
   -4.4290   -0.5062    1.4267 O   0  0  0  0  0  0  0  0  0  0  0  0
    1.1262   -1.8198   10.5954 H   0  0  0  0  0  0  0  0  0  0  0  0
    2.2323   -2.1288    6.5207 H   0  0  0  0  0  0  0  0  0  0  0  0
    0.4344    0.9910    5.5119 H   0  0  0  0  0  0  0  0  0  0  0  0
    0.4205    1.7373    3.2022 H   0  0  0  0  0  0  0  0  0  0  0  0
    2.7562   -1.6528    2.0521 H   0  0  0  0  0  0  0  0  0  0  0  0
    2.8225   -2.3910    4.3780 H   0  0  0  0  0  0  0  0  0  0  0  0
    2.3197    0.3890    0.4433 H   0  0  0  0  0  0  0  0  0  0  0  0
    1.0781    1.5241    0.9339 H   0  0  0  0  0  0  0  0  0  0  0  0
   -0.0100    0.0558   -0.6041 H   0  0  0  0  0  0  0  0  0  0  0  0
    0.7798   -1.3690    0.0418 H   0  0  0  0  0  0  0  0  0  0  0  0
   -0.7355   -1.5914    1.6838 H   0  0  0  0  0  0  0  0  0  0  0  0
   -1.8360   -0.8138    3.5277 H   0  0  0  0  0  0  0  0  0  0  0  0
   -2.9732    1.7994    3.0122 H   0  0  0  0  0  0  0  0  0  0  0  0
   -3.3012    3.1252    4.7571 H   0  0  0  0  0  0  0  0  0  0  0  0
   -4.6964    2.3003    5.4126 H   0  0  0  0  0  0  0  0  0  0  0  0
   -3.4633    1.7583    7.4898 H   0  0  0  0  0  0  0  0  0  0  0  0
   -3.5669    3.4828    7.1988 H   0  0  0  0  0  0  0  0  0  0  0  0
   -1.1996    1.8359    7.3421 H   0  0  0  0  0  0  0  0  0  0  0  0
    0.8221    2.6802    7.2781 H   0  0  0  0  0  0  0  0  0  0  0  0
    0.6945    4.3735    7.7729 H   0  0  0  0  0  0  0  0  0  0  0  0
   -4.1760   -1.4492    3.2655 H   0  0  0  0  0  0  0  0  0  0  0  0
   -3.2063   -2.0329    1.9203 H   0  0  0  0  0  0  0  0  0  0  0  0
   -4.8879    0.2248    1.8527 H   0  0  0  0  0  0  0  0  0  0  0  0
  1  2  1  0
  1 31  1  0
  2  3  2  0
  2  4  1  0
  4  5  2  0
  4  6  1  0
  6  7  1  0
  6 32  1  0
  7  8  2  0
  7 12  1  0
  8  9  1  0
  8 33  1  0
  9 10  2  0
  9 34  1  0
 10 11  1  0
 10 13  1  0
 11 12  2  0
 11 35  1  0
 12 36  1  0
 13 14  1  0
 13 37  1  0
 13 38  1  0
 14 15  1  0
 14 39  1  0
 14 40  1  0
 15 16  1  0
 15 41  1  0
 16 17  2  0
 16 18  1  0
 18 19  1  0
 18 29  1  0
 18 42  1  1
 19 20  1  0
 19 43  1  0
 20 21  2  0
 20 22  1  0
 22 23  1  0
 22 44  1  0
 22 45  1  0
 23 24  1  0
 23 46  1  0
 23 47  1  0
 24 25  1  0
 24 48  1  0
 25 26  2  0
 25 27  1  0
 27 28  1  0
 27 49  1  0
 27 50  1  0
 29 30  1  0
 29 51  1  0
 29 52  1  0
 30 53  1  0
M  END
