
     RDKit          3D

 42 43  0  0  0  0  0  0  0  0999 V2000
   -2.9749    3.4382   -1.0108 O   0  0  0  0  0  0  0  0  0  0  0  0
   -3.6110    1.9793   -1.0976 P   0  0  1  0  0  0  0  0  0  0  0  0
   -4.7958    1.8807   -0.0342 O   0  0  0  0  0  0  0  0  0  0  0  0
   -4.0579    1.5388   -2.4307 O   0  0  0  0  0  0  0  0  0  0  0  0
   -2.3829    1.0910   -0.3616 N   0  0  0  0  0  0  0  0  0  0  0  0
   -2.6780   -0.2364    0.6093 P   0  0  1  0  0  0  0  0  0  0  0  0
   -3.0053    0.3014    2.0651 O   0  0  0  0  0  0  0  0  0  0  0  0
   -3.6869   -1.2110    0.1705 O   0  0  0  0  0  0  0  0  0  0  0  0
   -1.1579   -0.8061    0.6678 O   0  0  0  0  0  0  0  0  0  0  0  0
   -0.7459   -2.3241    1.0777 P   0  0  2  0  0  0  0  0  0  0  0  0
   -0.9163   -3.2109   -0.2203 O   0  0  0  0  0  0  0  0  0  0  0  0
   -1.4938   -2.8595    2.2223 O   0  0  0  0  0  0  0  0  0  0  0  0
    0.8049   -2.0241    1.2614 O   0  0  0  0  0  0  0  0  0  0  0  0
    1.8160   -3.0322    1.2032 C   0  0  0  0  0  0  0  0  0  0  0  0
    2.7732   -2.7143    0.0766 C   0  0  2  0  0  0  0  0  0  0  0  0
    3.3735   -1.4726    0.3092 O   0  0  0  0  0  0  0  0  0  0  0  0
    1.9442   -2.6313   -1.5694 S   0  0  0  0  0  0  0  0  0  0  0  0
    2.0706   -0.8339   -1.5756 C   0  0  0  0  0  0  0  0  0  0  0  0
    3.3465   -0.5784   -0.7806 C   0  0  1  0  0  0  0  0  0  0  0  0
    3.4124    0.7628   -0.2491 N   0  0  0  0  0  0  0  0  0  0  0  0
    4.3814    1.6632   -0.7360 C   0  0  0  0  0  0  0  0  0  0  0  0
    5.1503    1.2990   -1.6142 O   0  0  0  0  0  0  0  0  0  0  0  0
    4.4115    2.9011   -0.2070 N   0  0  0  0  0  0  0  0  0  0  0  0
    3.5571    3.2685    0.7275 C   0  0  0  0  0  0  0  0  0  0  0  0
    3.6408    4.5054    1.2080 N   0  0  0  0  0  0  0  0  0  0  0  0
    2.5545    2.3819    1.2356 C   0  0  0  0  0  0  0  0  0  0  0  0
    2.5325    1.1429    0.7153 C   0  0  0  0  0  0  0  0  0  0  0  0
   -3.3289    4.0565   -1.6653 H   0  0  0  0  0  0  0  0  0  0  0  0
   -4.6821    2.3704    0.7917 H   0  0  0  0  0  0  0  0  0  0  0  0
   -1.4749    1.1330   -0.8128 H   0  0  0  0  0  0  0  0  0  0  0  0
   -2.4232    0.9925    2.4108 H   0  0  0  0  0  0  0  0  0  0  0  0
   -0.2655   -3.0449   -0.9332 H   0  0  0  0  0  0  0  0  0  0  0  0
    2.3497   -3.0248    2.1545 H   0  0  0  0  0  0  0  0  0  0  0  0
    1.4039   -4.0336    1.0627 H   0  0  0  0  0  0  0  0  0  0  0  0
    3.5202   -3.5110    0.0184 H   0  0  0  0  0  0  0  0  0  0  0  0
    2.1746   -0.4797   -2.5992 H   0  0  0  0  0  0  0  0  0  0  0  0
    1.1943   -0.3665   -1.1268 H   0  0  0  0  0  0  0  0  0  0  0  0
    4.2149   -0.7194   -1.4238 H   0  0  0  0  0  0  0  0  0  0  0  0
    4.3392    5.1386    0.8568 H   0  0  0  0  0  0  0  0  0  0  0  0
    3.0154    4.8390    1.9202 H   0  0  0  0  0  0  0  0  0  0  0  0
    1.8561    2.6782    2.0034 H   0  0  0  0  0  0  0  0  0  0  0  0
    1.8234    0.4016    1.0563 H   0  0  0  0  0  0  0  0  0  0  0  0
  4  2  2  0
  2  3  1  1
  2  5  1  0
  2  1  1  0
  5  6  1  0
 12 10  2  0
  6  8  2  0
  6  7  1  1
  6  9  1  0
 10 11  1  6
 10  9  1  0
 10 13  1  0
 13 14  1  0
 25 24  1  0
 26 24  1  0
 26 27  2  0
 14 15  1  0
 24 23  2  0
 27 20  1  0
 16 15  1  0
 16 19  1  0
 15 17  1  0
 23 21  1  0
 20 21  1  0
 20 19  1  0
 21 22  2  0
 19 18  1  0
 17 18  1  0
  1 28  1  0
  3 29  1  0
  5 30  1  0
  7 31  1  0
 11 32  1  0
 14 33  1  0
 14 34  1  0
 15 35  1  6
 18 36  1  0
 18 37  1  0
 19 38  1  6
 25 39  1  0
 25 40  1  0
 26 41  1  0
 27 42  1  0
M  END
