
     RDKit          3D

 52 55  0  0  0  0  0  0  0  0999 V2000
   -1.7803   -2.0428    0.9882 C   0  0  0  0  0  0  0  0  0  0  0  0
   -2.5198   -3.2279    1.0374 C   0  0  0  0  0  0  0  0  0  0  0  0
   -3.7698   -3.3013    0.4679 C   0  0  0  0  0  0  0  0  0  0  0  0
   -1.5169    0.2961    0.3152 C   0  0  0  0  0  0  0  0  0  0  0  0
    0.1982   -0.8001    1.5878 N   0  0  0  0  0  0  0  0  0  0  0  0
   -0.4677   -2.0111    1.6284 C   0  0  0  0  0  0  0  0  0  0  0  0
   -2.0530    1.5103   -0.3440 C   0  0  0  0  0  0  0  0  0  0  0  0
    1.8021    3.4801   -0.0057 C   0  0  0  0  0  0  0  0  0  0  0  0
    1.5176   -0.7399    2.2217 C   0  0  0  0  0  0  0  0  0  0  0  0
   -4.2883   -2.1656   -0.1555 C   0  0  0  0  0  0  0  0  0  0  0  0
   -3.5826   -0.9867   -0.2221 C   0  0  0  0  0  0  0  0  0  0  0  0
   -2.3026   -0.9127    0.3464 C   0  0  0  0  0  0  0  0  0  0  0  0
   -0.3149    0.3086    0.9386 C   0  0  0  0  0  0  0  0  0  0  0  0
   -5.8658   -2.2445   -0.8570 Cl  0  0  0  0  0  0  0  0  0  0  0  0
    0.0211   -2.9892    2.1734 O   0  0  0  0  0  0  0  0  0  0  0  0
    0.5949    2.1167    2.1256 O   0  0  0  0  0  0  0  0  0  0  0  0
    1.0572    2.1761   -0.2171 C   0  0  0  0  0  0  0  0  0  0  0  0
    2.6153   -0.4265    1.2434 C   0  0  0  0  0  0  0  0  0  0  0  0
    3.5694    0.5373    1.5485 C   0  0  0  0  0  0  0  0  0  0  0  0
    4.5824    0.8323    0.6518 C   0  0  0  0  0  0  0  0  0  0  0  0
    4.6517    0.1721   -0.5716 C   0  0  0  0  0  0  0  0  0  0  0  0
    3.7027   -0.8037   -0.8766 C   0  0  0  0  0  0  0  0  0  0  0  0
    2.6980   -1.1008    0.0272 C   0  0  0  0  0  0  0  0  0  0  0  0
   -2.1958    1.5477   -1.7317 C   0  0  0  0  0  0  0  0  0  0  0  0
   -2.6623    2.6920   -2.3591 C   0  0  0  0  0  0  0  0  0  0  0  0
   -2.9963    3.8123   -1.6068 C   0  0  0  0  0  0  0  0  0  0  0  0
   -2.8708    3.7779   -0.2258 C   0  0  0  0  0  0  0  0  0  0  0  0
   -2.4070    2.6296    0.4042 C   0  0  0  0  0  0  0  0  0  0  0  0
    5.7413    0.5403   -1.5091 C   0  0  0  0  0  0  0  0  0  0  0  0
    6.5988    1.3514   -1.2534 O   0  0  0  0  0  0  0  0  0  0  0  0
    5.6753   -0.1101   -2.6616 O   0  0  0  0  0  0  0  0  0  0  0  0
   -2.1079   -4.0966    1.5314 H   0  0  0  0  0  0  0  0  0  0  0  0
   -4.3409   -4.2182    0.5058 H   0  0  0  0  0  0  0  0  0  0  0  0
    2.2127    3.8268   -0.9528 H   0  0  0  0  0  0  0  0  0  0  0  0
    1.1449    4.2605    0.3774 H   0  0  0  0  0  0  0  0  0  0  0  0
    2.6302    3.3623    0.6924 H   0  0  0  0  0  0  0  0  0  0  0  0
    1.5044   -0.0197    3.0378 H   0  0  0  0  0  0  0  0  0  0  0  0
    1.6967   -1.7151    2.6675 H   0  0  0  0  0  0  0  0  0  0  0  0
   -4.0181   -0.1228   -0.7034 H   0  0  0  0  0  0  0  0  0  0  0  0
    1.7119    1.4150   -0.6530 H   0  0  0  0  0  0  0  0  0  0  0  0
    0.2618    2.3000   -0.9555 H   0  0  0  0  0  0  0  0  0  0  0  0
    3.5127    1.0744    2.4872 H   0  0  0  0  0  0  0  0  0  0  0  0
    5.3125    1.5910    0.8993 H   0  0  0  0  0  0  0  0  0  0  0  0
    3.7373   -1.3387   -1.8153 H   0  0  0  0  0  0  0  0  0  0  0  0
    1.9673   -1.8587   -0.2275 H   0  0  0  0  0  0  0  0  0  0  0  0
   -1.9208    0.6821   -2.3222 H   0  0  0  0  0  0  0  0  0  0  0  0
   -2.7584    2.7126   -3.4367 H   0  0  0  0  0  0  0  0  0  0  0  0
   -3.3562    4.7074   -2.0967 H   0  0  0  0  0  0  0  0  0  0  0  0
   -3.1383    4.6437    0.3657 H   0  0  0  0  0  0  0  0  0  0  0  0
   -2.3247    2.6046    1.4836 H   0  0  0  0  0  0  0  0  0  0  0  0
    6.3996    0.1688   -3.2414 H   0  0  0  0  0  0  0  0  0  0  0  0
    0.4712    1.6026    1.0398 C   0  0  0  0  0  0  0  0  0  0  0  0
  6  1  1  0
 12  1  1  0
  1  2  2  0
  2  3  1  0
  2 32  1  0
 10  3  2  0
  3 33  1  0
 13  4  2  0
  7  4  1  0
  4 12  1  0
  9  5  1  0
 13  5  1  0
  5  6  1  0
  6 15  2  0
 28  7  1  0
  7 24  2  0
 16 52  2  0
 52 17  1  0
 52 13  1  0
  8 17  1  0
  8 34  1  0
  8 35  1  0
  8 36  1  0
  9 18  1  0
  9 37  1  0
  9 38  1  0
 11 10  1  0
 10 14  1  0
 12 11  2  0
 11 39  1  0
 17 40  1  0
 17 41  1  0
 23 18  1  0
 18 19  2  0
 19 20  1  0
 19 42  1  0
 21 20  2  0
 20 43  1  0
 22 21  1  0
 21 29  1  0
 23 22  2  0
 22 44  1  0
 23 45  1  0
 25 24  1  0
 24 46  1  0
 26 25  2  0
 25 47  1  0
 27 26  1  0
 26 48  1  0
 27 28  2  0
 27 49  1  0
 28 50  1  0
 30 29  2  0
 29 31  1  0
 31 51  1  0
M  END
