
     RDKit          3D

 31 33  0  0  0  0  0  0  0  0999 V2000
   -5.0685   -2.2001    0.8720 Cl  0  0  0  0  0  0  0  0  0  0  0  0
   -4.4867   -0.6527    0.3677 C   0  0  0  0  0  0  0  0  0  0  0  0
   -5.4197    0.3623    0.1436 C   0  0  0  0  0  0  0  0  0  0  0  0
   -6.7295    0.2195    0.2897 O   0  0  0  0  0  0  0  0  0  0  0  0
   -4.9271    1.6078   -0.2613 C   0  0  0  0  0  0  0  0  0  0  0  0
   -6.0551    2.8779   -0.5430 Cl  0  0  0  0  0  0  0  0  0  0  0  0
   -3.5796    1.8297   -0.4363 C   0  0  0  0  0  0  0  0  0  0  0  0
   -3.1317   -0.4514    0.1981 C   0  0  0  0  0  0  0  0  0  0  0  0
   -2.6714    0.7971   -0.2069 C   0  0  0  0  0  0  0  0  0  0  0  0
   -1.2586    1.0477   -0.4011 C   0  0  0  0  0  0  0  0  0  0  0  0
   -0.3680    0.0789   -0.1490 O   0  0  0  0  0  0  0  0  0  0  0  0
   -0.6778    2.1261   -0.8081 N   0  0  0  0  0  0  0  0  0  0  0  0
    0.6569    1.8658   -0.8341 N   0  0  0  0  0  0  0  0  0  0  0  0
    0.8079    0.6484   -0.4412 C   0  0  0  0  0  0  0  0  0  0  0  0
    2.0729   -0.0504   -0.2550 C   0  0  0  0  0  0  0  0  0  0  0  0
    2.2668   -1.4271   -0.4144 C   0  0  0  0  0  0  0  0  0  0  0  0
    3.5172   -1.9980   -0.2074 C   0  0  0  0  0  0  0  0  0  0  0  0
    4.5964   -1.2097    0.1413 C   0  0  0  0  0  0  0  0  0  0  0  0
    3.1681    0.7416    0.0847 C   0  0  0  0  0  0  0  0  0  0  0  0
    4.4061    0.1586    0.2721 C   0  0  0  0  0  0  0  0  0  0  0  0
    5.7722    1.1780    0.6882 S   0  0  1  0  0  0  0  0  0  0  0  0
    5.3319    2.4613    1.1601 O   0  0  0  0  0  0  0  0  0  0  0  0
    6.7835    0.4217    1.3720 O   0  0  0  0  0  0  0  0  0  0  0  0
    0.8850   -2.5698   -0.9586 Br  0  0  0  0  0  0  0  0  0  0  0  0
   -6.9633   -0.6774    0.5664 H   0  0  0  0  0  0  0  0  0  0  0  0
   -3.2331    2.8042   -0.7514 H   0  0  0  0  0  0  0  0  0  0  0  0
   -2.4508   -1.2711    0.3816 H   0  0  0  0  0  0  0  0  0  0  0  0
    3.6587   -3.0631   -0.3246 H   0  0  0  0  0  0  0  0  0  0  0  0
    5.5617   -1.6690    0.3036 H   0  0  0  0  0  0  0  0  0  0  0  0
    3.0279    1.8063    0.2120 H   0  0  0  0  0  0  0  0  0  0  0  0
    6.3456    1.4317   -0.7812 F   0  0  0  0  0  0  0  0  0  0  0  0
  4  3  1  0
  6  5  1  0
  3  5  1  0
  3  2  2  0
  1  2  1  0
  5  7  2  0
  2  8  1  0
  7  9  1  0
  8  9  2  0
  9 10  1  0
 10 12  2  0
 10 11  1  0
 12 13  1  0
 11 14  1  0
 13 14  2  0
 14 15  1  0
 24 16  1  0
 15 16  2  0
 15 19  1  0
 16 17  1  0
 19 20  2  0
 17 18  2  0
 20 18  1  0
 20 21  1  0
 22 21  2  0
 21 23  2  0
  4 25  1  0
  7 26  1  0
  8 27  1  0
 17 28  1  0
 18 29  1  0
 19 30  1  0
 21 31  1  6
M  END
