
     RDKit          3D

 16 16  0  0  0  0  0  0  0  0999 V2000
    1.7546    1.9483    0.0684 C   0  0  0  0  0  0  0  0  0  0  0  0
    0.7609    0.8257    0.0687 C   0  0  0  0  0  0  0  0  0  0  0  0
    1.1929   -0.5065    0.0968 C   0  0  0  0  0  0  0  0  0  0  0  0
    0.2715   -1.5470    0.0971 C   0  0  0  0  0  0  0  0  0  0  0  0
   -1.0926   -1.2852    0.0698 C   0  0  0  0  0  0  0  0  0  0  0  0
   -1.5070    0.0277    0.0426 C   0  0  0  0  0  0  0  0  0  0  0  0
   -0.6056    1.0760    0.0416 C   0  0  0  0  0  0  0  0  0  0  0  0
   -2.8262    0.3038    0.0155 F   0  0  0  0  0  0  0  0  0  0  0  0
    2.5268   -0.7203    0.1240 O   0  0  0  0  0  0  0  0  0  0  0  0
    2.4126    1.9016   -0.8009 H   0  0  0  0  0  0  0  0  0  0  0  0
    1.2507    2.9132    0.0520 H   0  0  0  0  0  0  0  0  0  0  0  0
    2.3917    1.9208    0.9538 H   0  0  0  0  0  0  0  0  0  0  0  0
    0.6135   -2.5756    0.1189 H   0  0  0  0  0  0  0  0  0  0  0  0
   -1.8093   -2.0956    0.0701 H   0  0  0  0  0  0  0  0  0  0  0  0
   -0.9677    2.0968    0.0200 H   0  0  0  0  0  0  0  0  0  0  0  0
    2.7140   -1.6649    0.1540 H   0  0  0  0  0  0  0  0  0  0  0  0
  8  6  1  0
  5  6  2  0
  5  4  1  0
  6  7  1  0
  4  3  2  0
  7  2  2  0
  3  2  1  0
  3  9  1  0
  2  1  1  0
  1 10  1  0
  1 11  1  0
  1 12  1  0
  4 13  1  0
  5 14  1  0
  7 15  1  0
  9 16  1  0
M  END
