
     RDKit          3D

 37 42  0  0  0  0  0  0  0  0999 V2000
    1.1723    2.8689   -0.0120 C   0  0  0  0  0  0  0  0  0  0  0  0
   -0.0884    3.5650   -0.0001 N   0  0  0  0  0  0  0  0  0  0  0  0
    0.7308    1.4408   -0.0117 C   0  0  0  0  0  0  0  0  0  0  0  0
    1.5055    0.2788   -0.0149 C   0  0  0  0  0  0  0  0  0  0  0  0
    0.8590   -0.9695   -0.0137 C   0  0  0  0  0  0  0  0  0  0  0  0
    1.7975   -1.9612   -0.0182 N   0  0  0  0  0  0  0  0  0  0  0  0
    3.0498   -1.4001   -0.0221 C   0  0  0  0  0  0  0  0  0  0  0  0
    2.9164    0.0043   -0.0206 C   0  0  0  0  0  0  0  0  0  0  0  0
    4.0609    0.8023   -0.0229 C   0  0  0  0  0  0  0  0  0  0  0  0
    5.3014    0.1903   -0.0265 C   0  0  0  0  0  0  0  0  0  0  0  0
    5.4135   -1.2064   -0.0283 C   0  0  0  0  0  0  0  0  0  0  0  0
    4.2948   -2.0208   -0.0265 C   0  0  0  0  0  0  0  0  0  0  0  0
   -1.1733    2.7573   -0.0012 C   0  0  0  0  0  0  0  0  0  0  0  0
   -0.6469    1.3760   -0.0066 C   0  0  0  0  0  0  0  0  0  0  0  0
   -1.3145    0.1335   -0.0051 C   0  0  0  0  0  0  0  0  0  0  0  0
   -0.5372   -1.0395   -0.0074 C   0  0  0  0  0  0  0  0  0  0  0  0
   -1.3564   -2.1345   -0.0044 N   0  0  0  0  0  0  0  0  0  0  0  0
   -2.6583   -1.7182   -0.0014 C   0  0  0  0  0  0  0  0  0  0  0  0
   -2.6876   -0.3054   -0.0016 C   0  0  0  0  0  0  0  0  0  0  0  0
   -3.9269    0.3429    0.0009 C   0  0  0  0  0  0  0  0  0  0  0  0
   -5.0827   -0.4146    0.0029 C   0  0  0  0  0  0  0  0  0  0  0  0
   -5.0289   -1.8156    0.0030 C   0  0  0  0  0  0  0  0  0  0  0  0
   -3.8208   -2.4857    0.0011 C   0  0  0  0  0  0  0  0  0  0  0  0
    1.7629    3.1174   -0.8991 H   0  0  0  0  0  0  0  0  0  0  0  0
    1.6121   -2.9504   -0.0213 H   0  0  0  0  0  0  0  0  0  0  0  0
    3.9860    1.8823   -0.0228 H   0  0  0  0  0  0  0  0  0  0  0  0
    6.1974    0.7967   -0.0276 H   0  0  0  0  0  0  0  0  0  0  0  0
    6.3964   -1.6595   -0.0313 H   0  0  0  0  0  0  0  0  0  0  0  0
    4.3867   -3.0992   -0.0279 H   0  0  0  0  0  0  0  0  0  0  0  0
   -1.0598   -3.0962   -0.0027 H   0  0  0  0  0  0  0  0  0  0  0  0
   -3.9767    1.4217    0.0002 H   0  0  0  0  0  0  0  0  0  0  0  0
   -6.0453    0.0799    0.0044 H   0  0  0  0  0  0  0  0  0  0  0  0
   -5.9495   -2.3849    0.0034 H   0  0  0  0  0  0  0  0  0  0  0  0
   -3.7777   -3.5672    0.0012 H   0  0  0  0  0  0  0  0  0  0  0  0
   -0.1587    4.5692   -0.0089 H   0  0  0  0  0  0  0  0  0  0  0  0
    1.7784    3.1141    0.8656 H   0  0  0  0  0  0  0  0  0  0  0  0
   -2.3383    3.1293    0.0028 O   0  0  0  0  0  0  0  0  0  0  0  0
 21 20  1  0
 21 22  2  0
 20 19  2  0
 22 23  1  0
 37 13  2  0
 13  2  1  0
 13 14  1  0
 19 18  1  0
 19 15  1  0
 23 18  2  0
  2  1  1  0
 18 17  1  0
 14 15  2  0
 14  3  1  0
 15 16  1  0
  1  3  1  0
 17 16  1  0
  3  4  2  0
 16  5  2  0
  4  5  1  0
  4  8  1  0
  5  6  1  0
  6  7  1  0
  8  9  2  0
  8  7  1  0
  9 10  1  0
  7 12  2  0
 10 11  2  0
 12 11  1  0
  1 24  1  0
  6 25  1  0
  9 26  1  0
 10 27  1  0
 11 28  1  0
 12 29  1  0
 17 30  1  0
 20 31  1  0
 21 32  1  0
 22 33  1  0
 23 34  1  0
  2 35  1  0
  1 36  1  0
M  END
