
     RDKit          3D

 53 55  0  0  0  0  0  0  0  0999 V2000
   -2.7111    0.8050   -0.7300 S   0  0  0  0  0  0  0  0  0  0  0  0
   -4.2679   -0.1247   -1.0521 C   0  0  1  0  0  0  0  0  0  0  0  0
   -4.7220   -0.5345    0.3687 C   0  0  1  0  0  0  0  0  0  0  0  0
   -3.5182   -0.8836    1.0793 N   0  0  0  0  0  0  0  0  0  0  0  0
   -2.4668    0.0981    0.9390 C   0  0  1  0  0  0  0  0  0  0  0  0
   -1.0912   -0.5620    1.0873 C   0  0  1  0  0  0  0  0  0  0  0  0
   -0.8787   -1.6534    0.0600 C   0  0  0  0  0  0  0  0  0  0  0  0
    0.0798   -1.7204   -0.6619 O   0  0  0  0  0  0  0  0  0  0  0  0
   -5.2272    0.7900   -1.8032 C   0  0  0  0  0  0  0  0  0  0  0  0
   -3.9980   -1.3716   -1.8875 C   0  0  0  0  0  0  0  0  0  0  0  0
   -5.5364    0.5551    1.0533 C   0  0  0  0  0  0  0  0  0  0  0  0
   -6.8343    0.4164    0.8218 O   0  0  0  0  0  0  0  0  0  0  0  0
   -5.0699    1.4313    1.7363 O   0  0  0  0  0  0  0  0  0  0  0  0
   -0.0534    0.4277    1.0580 N   0  0  0  0  0  0  0  0  0  0  0  0
    1.1525    0.2152    1.6251 C   0  0  0  0  0  0  0  0  0  0  0  0
    1.4252   -0.7778    2.2765 O   0  0  0  0  0  0  0  0  0  0  0  0
    2.1221    1.3392    1.4487 C   0  0  0  0  0  0  0  0  0  0  0  0
    1.8198    2.5889    1.9744 C   0  0  0  0  0  0  0  0  0  0  0  0
    2.7329    3.6309    1.8803 C   0  0  0  0  0  0  0  0  0  0  0  0
    3.9474    3.4216    1.2462 C   0  0  0  0  0  0  0  0  0  0  0  0
    4.2431    2.1766    0.7058 C   0  0  0  0  0  0  0  0  0  0  0  0
    3.3364    1.1278    0.7949 C   0  0  0  0  0  0  0  0  0  0  0  0
    3.6965   -0.1965    0.2274 C   0  0  0  0  0  0  0  0  0  0  0  0
    4.6279   -0.9533    0.9327 C   0  0  0  0  0  0  0  0  0  0  0  0
    5.0337   -2.1988    0.4825 C   0  0  0  0  0  0  0  0  0  0  0  0
    4.5022   -2.7128   -0.6913 C   0  0  0  0  0  0  0  0  0  0  0  0
    3.5805   -1.9705   -1.4078 C   0  0  0  0  0  0  0  0  0  0  0  0
    3.1711   -0.7101   -0.9672 C   0  0  0  0  0  0  0  0  0  0  0  0
    2.2184    0.0842   -1.7884 C   0  0  0  0  0  0  0  0  0  0  0  0
    1.8766   -0.5311   -2.9138 O   0  0  0  0  0  0  0  0  0  0  0  0
    1.8171    1.1872   -1.5073 O   0  0  0  0  0  0  0  0  0  0  0  0
   -5.3562   -1.4222    0.2824 H   0  0  0  0  0  0  0  0  0  0  0  0
   -3.6889   -1.1065    2.0522 H   0  0  0  0  0  0  0  0  0  0  0  0
   -2.5204    0.9157    1.6630 H   0  0  0  0  0  0  0  0  0  0  0  0
   -1.0802   -1.0532    2.0685 H   0  0  0  0  0  0  0  0  0  0  0  0
   -1.6701   -2.4186    0.0452 H   0  0  0  0  0  0  0  0  0  0  0  0
   -4.8088    1.0378   -2.7789 H   0  0  0  0  0  0  0  0  0  0  0  0
   -6.1779    0.2848   -1.9767 H   0  0  0  0  0  0  0  0  0  0  0  0
   -5.4180    1.7283   -1.2838 H   0  0  0  0  0  0  0  0  0  0  0  0
   -3.3884   -2.0981   -1.3539 H   0  0  0  0  0  0  0  0  0  0  0  0
   -4.9435   -1.8520   -2.1503 H   0  0  0  0  0  0  0  0  0  0  0  0
   -3.4874   -1.1101   -2.8139 H   0  0  0  0  0  0  0  0  0  0  0  0
   -7.3286    1.1405    1.2360 H   0  0  0  0  0  0  0  0  0  0  0  0
   -0.1082    1.1531    0.3581 H   0  0  0  0  0  0  0  0  0  0  0  0
    0.8734    2.7484    2.4763 H   0  0  0  0  0  0  0  0  0  0  0  0
    2.4945    4.5977    2.3036 H   0  0  0  0  0  0  0  0  0  0  0  0
    4.6666    4.2261    1.1666 H   0  0  0  0  0  0  0  0  0  0  0  0
    5.1872    2.0214    0.1983 H   0  0  0  0  0  0  0  0  0  0  0  0
    5.0347   -0.5578    1.8545 H   0  0  0  0  0  0  0  0  0  0  0  0
    5.7583   -2.7678    1.0499 H   0  0  0  0  0  0  0  0  0  0  0  0
    4.8060   -3.6870   -1.0501 H   0  0  0  0  0  0  0  0  0  0  0  0
    3.1824   -2.3812   -2.3242 H   0  0  0  0  0  0  0  0  0  0  0  0
    1.2596    0.0252   -3.4109 H   0  0  0  0  0  0  0  0  0  0  0  0
  2  1  1  0
  2 10  1  6
  3  2  1  0
  4  3  1  0
  4  5  1  0
  5  1  1  0
  5  6  1  0
  6 14  1  0
  7  6  1  0
  7  8  2  0
  9  2  1  0
 11  3  1  0
 11 12  1  0
 13 11  2  0
 14 15  1  0
 15 17  1  0
 16 15  2  0
 17 18  2  0
 17 22  1  0
 18 19  1  0
 19 20  2  0
 21 20  1  0
 22 21  2  0
 23 22  1  0
 23 28  1  0
 24 23  2  0
 25 24  1  0
 25 26  2  0
 26 27  1  0
 27 28  2  0
 28 29  1  0
 29 30  1  0
 31 29  2  0
  3 32  1  6
  4 33  1  0
  5 34  1  1
  6 35  1  1
  7 36  1  0
  9 37  1  0
  9 38  1  0
  9 39  1  0
 10 40  1  0
 10 41  1  0
 10 42  1  0
 12 43  1  0
 14 44  1  0
 18 45  1  0
 19 46  1  0
 20 47  1  0
 21 48  1  0
 24 49  1  0
 25 50  1  0
 26 51  1  0
 27 52  1  0
 30 53  1  0
M  END
