
     RDKit          3D

 46 48  0  0  0  0  0  0  0  0999 V2000
    2.4704    4.7974   -0.1458 C   0  0  0  0  0  0  0  0  0  0  0  0
    2.7538    3.4431   -0.0972 C   0  0  0  0  0  0  0  0  0  0  0  0
    1.7272    2.5113   -0.1779 C   0  0  0  0  0  0  0  0  0  0  0  0
    1.1580    5.2313   -0.2733 C   0  0  0  0  0  0  0  0  0  0  0  0
    0.1477    4.2934   -0.3455 C   0  0  0  0  0  0  0  0  0  0  0  0
    0.4073    2.9247   -0.3064 C   0  0  0  0  0  0  0  0  0  0  0  0
   -0.6493    1.9147   -0.5677 C   0  0  0  0  0  0  0  0  0  0  0  0
   -1.5015    2.0020   -1.4005 O   0  0  0  0  0  0  0  0  0  0  0  0
   -0.4815    0.8323    0.2174 O   0  0  0  0  0  0  0  0  0  0  0  0
   -1.2885   -0.2564   -0.0108 C   0  0  0  0  0  0  0  0  0  0  0  0
   -2.5133   -0.3626    0.6323 C   0  0  0  0  0  0  0  0  0  0  0  0
   -3.0945    1.0136    1.7627 Br  0  0  0  0  0  0  0  0  0  0  0  0
   -3.3013   -1.4905    0.4581 C   0  0  0  0  0  0  0  0  0  0  0  0
   -2.8396   -2.4994   -0.3720 C   0  0  0  0  0  0  0  0  0  0  0  0
   -3.8959   -4.0363   -0.6208 Br  0  0  0  0  0  0  0  0  0  0  0  0
   -1.6161   -2.4019   -1.0157 C   0  0  0  0  0  0  0  0  0  0  0  0
   -0.8307   -1.2701   -0.8439 C   0  0  0  0  0  0  0  0  0  0  0  0
    0.5054   -1.1709   -1.5278 C   0  0  0  0  0  0  0  0  0  0  0  0
    1.5747   -1.4411   -0.5856 N   0  0  0  0  0  0  0  0  0  0  0  0
    2.8108   -1.7648   -0.9879 C   0  0  0  0  0  0  0  0  0  0  0  0
    3.1496   -1.8578   -2.1541 O   0  0  0  0  0  0  0  0  0  0  0  0
    3.7580   -2.0967    0.1299 C   0  0  0  0  0  0  0  0  0  0  0  0
    4.9842   -1.4588    0.2984 C   0  0  0  0  0  0  0  0  0  0  0  0
    5.3011   -0.2775   -0.4879 N   0  0  0  0  0  0  0  0  0  0  0  0
    4.3837    0.4332   -0.8265 O   0  0  0  0  0  0  0  0  0  0  0  0
    6.4606   -0.0608   -0.7405 O   0  0  0  0  0  0  0  0  0  0  0  0
    3.4713   -3.1787    0.9508 C   0  0  0  0  0  0  0  0  0  0  0  0
    4.3821   -3.6042    1.9095 C   0  0  0  0  0  0  0  0  0  0  0  0
    5.5982   -2.9561    2.0530 C   0  0  0  0  0  0  0  0  0  0  0  0
    5.9080   -1.8762    1.2405 C   0  0  0  0  0  0  0  0  0  0  0  0
   -1.2242    4.7815   -0.3737 N   0  0  0  0  0  0  0  0  0  0  0  0
   -2.0277    4.2129    0.3239 O   0  0  0  0  0  0  0  0  0  0  0  0
   -1.4614    5.7412   -1.0649 O   0  0  0  0  0  0  0  0  0  0  0  0
    3.2664    5.5254   -0.0785 H   0  0  0  0  0  0  0  0  0  0  0  0
    3.7761    3.1049   -0.0027 H   0  0  0  0  0  0  0  0  0  0  0  0
    1.9666    1.4569   -0.1619 H   0  0  0  0  0  0  0  0  0  0  0  0
    0.9327    6.2884   -0.2864 H   0  0  0  0  0  0  0  0  0  0  0  0
   -4.2549   -1.5734    0.9612 H   0  0  0  0  0  0  0  0  0  0  0  0
   -1.2625   -3.1959   -1.6603 H   0  0  0  0  0  0  0  0  0  0  0  0
    0.5451   -1.9037   -2.3335 H   0  0  0  0  0  0  0  0  0  0  0  0
    0.6411   -0.1923   -1.9969 H   0  0  0  0  0  0  0  0  0  0  0  0
    1.3949   -1.3410    0.4013 H   0  0  0  0  0  0  0  0  0  0  0  0
    2.5357   -3.7091    0.8307 H   0  0  0  0  0  0  0  0  0  0  0  0
    4.1390   -4.4489    2.5393 H   0  0  0  0  0  0  0  0  0  0  0  0
    6.3088   -3.2837    2.7989 H   0  0  0  0  0  0  0  0  0  0  0  0
    6.8483   -1.3575    1.3617 H   0  0  0  0  0  0  0  0  0  0  0  0
 32 31  1  0
 31 33  2  0
 31  5  1  0
  5  4  1  0
  5  6  2  0
  4  1  2  0
  8  7  2  0
 12 11  1  0
  6  7  1  0
  6  3  1  0
  1  2  1  0
  7  9  1  0
 11 13  2  0
 11 10  1  0
 13 14  1  0
  3  2  2  0
  9 10  1  0
 10 17  2  0
 14 15  1  0
 14 16  2  0
 17 16  1  0
 17 18  1  0
 18 19  1  0
 21 20  2  0
 19 20  1  0
 20 22  1  0
 25 24  2  0
 24 26  1  0
 24 23  1  0
 22 23  2  0
 22 27  1  0
 23 30  1  0
 27 28  2  0
 30 29  2  0
 28 29  1  0
  1 34  1  0
  2 35  1  0
  3 36  1  0
  4 37  1  0
 13 38  1  0
 16 39  1  0
 18 40  1  0
 18 41  1  0
 19 42  1  0
 27 43  1  0
 28 44  1  0
 29 45  1  0
 30 46  1  0
M  CHG  4  24   1  26  -1  31   1  32  -1
M  END
