
     RDKit          3D

 53 55  0  0  0  0  0  0  0  0999 V2000
   -1.7516   -0.7631   -1.7798 F   0  0  0  0  0  0  0  0  0  0  0  0
   -2.6122   -1.1585   -0.8220 C   0  0  0  0  0  0  0  0  0  0  0  0
   -2.5432   -2.4662   -0.3826 C   0  0  0  0  0  0  0  0  0  0  0  0
   -3.4205   -2.8803    0.6100 C   0  0  0  0  0  0  0  0  0  0  0  0
   -4.3407   -1.9863    1.1406 C   0  0  0  0  0  0  0  0  0  0  0  0
   -4.3785   -0.6779    0.6784 C   0  0  0  0  0  0  0  0  0  0  0  0
   -3.5154   -0.2323   -0.3192 C   0  0  0  0  0  0  0  0  0  0  0  0
   -3.5082    1.2019   -0.7754 C   0  0  0  0  0  0  0  0  0  0  0  0
   -2.4692    1.9322   -0.0679 N   0  0  0  0  0  0  0  0  0  0  0  0
   -2.2356    3.2705   -0.5739 C   0  0  0  0  0  0  0  0  0  0  0  0
   -1.0168    3.8631    0.1066 C   0  0  0  0  0  0  0  0  0  0  0  0
    0.1002    3.0548   -0.1955 O   0  0  0  0  0  0  0  0  0  0  0  0
    1.0557    2.8935    0.8284 C   0  0  2  0  0  0  0  0  0  0  0  0
    2.1407    4.0010    0.8023 C   0  0  0  0  0  0  0  0  0  0  0  0
    3.4315    3.3671    0.5366 N   0  0  0  0  0  0  0  0  0  0  0  0
    3.1161    2.0965   -0.1034 C   0  0  0  0  0  0  0  0  0  0  0  0
    1.8525    1.5950    0.6013 C   0  0  2  0  0  0  0  0  0  0  0  0
    1.0686    0.4879   -0.0999 C   0  0  0  0  0  0  0  0  0  0  0  0
    1.7470   -0.8509   -0.0488 C   0  0  0  0  0  0  0  0  0  0  0  0
    2.8834   -0.9819   -0.7352 N   0  0  0  0  0  0  0  0  0  0  0  0
    3.5140   -2.1515   -0.7080 C   0  0  0  0  0  0  0  0  0  0  0  0
    4.7055   -2.2270   -1.3700 N   0  0  0  0  0  0  0  0  0  0  0  0
    3.0132   -3.2610   -0.0049 C   0  0  0  0  0  0  0  0  0  0  0  0
    1.1912   -1.8883    0.6807 C   0  0  0  0  0  0  0  0  0  0  0  0
    1.8339   -3.1299    0.7000 C   0  0  0  0  0  0  0  0  0  0  0  0
    1.2592   -4.2742    1.4774 C   0  0  0  0  0  0  0  0  0  0  0  0
   -1.8165   -3.1444   -0.8110 H   0  0  0  0  0  0  0  0  0  0  0  0
   -3.3812   -3.9015    0.9651 H   0  0  0  0  0  0  0  0  0  0  0  0
   -5.0260   -2.3057    1.9143 H   0  0  0  0  0  0  0  0  0  0  0  0
   -5.0936    0.0193    1.0982 H   0  0  0  0  0  0  0  0  0  0  0  0
   -3.3967    1.2550   -1.8683 H   0  0  0  0  0  0  0  0  0  0  0  0
   -4.4777    1.6495   -0.5440 H   0  0  0  0  0  0  0  0  0  0  0  0
   -1.6005    1.4228   -0.1635 H   0  0  0  0  0  0  0  0  0  0  0  0
   -2.1012    3.2974   -1.6673 H   0  0  0  0  0  0  0  0  0  0  0  0
   -3.0983    3.9053   -0.3518 H   0  0  0  0  0  0  0  0  0  0  0  0
   -0.8630    4.8956   -0.2298 H   0  0  0  0  0  0  0  0  0  0  0  0
   -1.1893    3.8942    1.1897 H   0  0  0  0  0  0  0  0  0  0  0  0
    0.5419    2.8609    1.7975 H   0  0  0  0  0  0  0  0  0  0  0  0
    1.8994    4.7075    0.0017 H   0  0  0  0  0  0  0  0  0  0  0  0
    2.1812    4.5699    1.7316 H   0  0  0  0  0  0  0  0  0  0  0  0
    3.8834    3.1691    1.4205 H   0  0  0  0  0  0  0  0  0  0  0  0
    2.9145    2.2586   -1.1685 H   0  0  0  0  0  0  0  0  0  0  0  0
    3.9545    1.4061   -0.0349 H   0  0  0  0  0  0  0  0  0  0  0  0
    2.1518    1.2323    1.5918 H   0  0  0  0  0  0  0  0  0  0  0  0
    0.0888    0.3832    0.3719 H   0  0  0  0  0  0  0  0  0  0  0  0
    0.8939    0.7602   -1.1436 H   0  0  0  0  0  0  0  0  0  0  0  0
    4.8758   -1.5194   -2.0653 H   0  0  0  0  0  0  0  0  0  0  0  0
    5.0541   -3.1393   -1.6108 H   0  0  0  0  0  0  0  0  0  0  0  0
    3.5454   -4.2047   -0.0273 H   0  0  0  0  0  0  0  0  0  0  0  0
    0.2608   -1.7391    1.2142 H   0  0  0  0  0  0  0  0  0  0  0  0
    1.4523   -4.1482    2.5444 H   0  0  0  0  0  0  0  0  0  0  0  0
    0.1773   -4.3311    1.3536 H   0  0  0  0  0  0  0  0  0  0  0  0
    1.6896   -5.2271    1.1732 H   0  0  0  0  0  0  0  0  0  0  0  0
 26 25  1  0
 25 23  2  0
 25 24  1  0
 23 21  1  0
 24 19  2  0
 21 22  1  0
 21 20  2  0
 17 16  1  0
 17 18  1  0
 17 13  1  0
 19 20  1  0
 19 18  1  0
 16 15  1  0
 11 12  1  0
 11 10  1  0
 13 12  1  0
 13 14  1  0
 15 14  1  0
 10  9  1  0
  9  8  1  0
  6  5  2  0
  6  7  1  0
  5  4  1  0
  8  7  1  0
  7  2  2  0
  4  3  2  0
  2  3  1  0
  2  1  1  0
  3 27  1  0
  4 28  1  0
  5 29  1  0
  6 30  1  0
  8 31  1  0
  8 32  1  0
  9 33  1  0
 10 34  1  0
 10 35  1  0
 11 36  1  0
 11 37  1  0
 13 38  1  1
 14 39  1  0
 14 40  1  0
 15 41  1  0
 16 42  1  0
 16 43  1  0
 17 44  1  1
 18 45  1  0
 18 46  1  0
 22 47  1  0
 22 48  1  0
 23 49  1  0
 24 50  1  0
 26 51  1  0
 26 52  1  0
 26 53  1  0
M  END
