
     RDKit          3D

 44 46  0  0  0  0  0  0  0  0999 V2000
    4.1248   -1.6598    0.2410 C   0  0  0  0  0  0  0  0  0  0  0  0
    3.1272   -0.7988    0.1829 N   0  0  0  0  0  0  0  0  0  0  0  0
    2.3324    2.6181    0.5805 O   0  0  0  0  0  0  0  0  0  0  0  0
    6.6801   -2.4243    0.6200 Cl  0  0  0  0  0  0  0  0  0  0  0  0
   -4.7853   -0.6181    0.8392 N   0  0  0  0  0  0  0  0  0  0  0  0
   -3.6906   -1.5184    1.1176 C   0  0  0  0  0  0  0  0  0  0  0  0
   -3.1610   -2.1019   -0.1631 C   0  0  0  0  0  0  0  0  0  0  0  0
   -3.1459   -1.4530   -1.2617 N   0  0  0  0  0  0  0  0  0  0  0  0
   -3.6247   -0.0863   -1.2298 C   0  0  1  0  0  0  0  0  0  0  0  0
    1.0348    0.8170    0.0326 N   0  0  0  0  0  0  0  0  0  0  0  0
   -4.0041    0.3009   -2.6593 C   0  0  0  0  0  0  0  0  0  0  0  0
   -4.8434    0.0727   -0.3086 C   0  0  0  0  0  0  0  0  0  0  0  0
   -2.5473    0.8849   -0.7291 C   0  0  0  0  0  0  0  0  0  0  0  0
   -2.8650    2.2226   -0.4871 C   0  0  0  0  0  0  0  0  0  0  0  0
   -1.8824    3.1006   -0.0647 C   0  0  0  0  0  0  0  0  0  0  0  0
   -0.5697    2.6884    0.1242 C   0  0  0  0  0  0  0  0  0  0  0  0
   -0.2433    1.3571   -0.1234 C   0  0  0  0  0  0  0  0  0  0  0  0
   -1.2377    0.4708   -0.5499 C   0  0  0  0  0  0  0  0  0  0  0  0
    2.1907    1.4281    0.3585 C   0  0  0  0  0  0  0  0  0  0  0  0
    3.3577    0.4850    0.4333 C   0  0  0  0  0  0  0  0  0  0  0  0
    4.6162    0.9697    0.7568 C   0  0  0  0  0  0  0  0  0  0  0  0
    5.6731    0.0767    0.8215 C   0  0  0  0  0  0  0  0  0  0  0  0
    5.4177   -1.2574    0.5586 C   0  0  0  0  0  0  0  0  0  0  0  0
    3.9029   -2.6994    0.0321 H   0  0  0  0  0  0  0  0  0  0  0  0
   -5.5250   -0.9278    2.7532 H   0  0  0  0  0  0  0  0  0  0  0  0
   -6.0676    0.5710    2.0052 H   0  0  0  0  0  0  0  0  0  0  0  0
   -6.7621   -0.9731    1.4926 H   0  0  0  0  0  0  0  0  0  0  0  0
   -2.8703   -1.0121    1.6419 H   0  0  0  0  0  0  0  0  0  0  0  0
   -4.0462   -2.3110    1.7762 H   0  0  0  0  0  0  0  0  0  0  0  0
   -2.5761   -3.8058    0.8122 H   0  0  0  0  0  0  0  0  0  0  0  0
   -2.1379   -3.7245   -0.8368 H   0  0  0  0  0  0  0  0  0  0  0  0
    1.1206   -0.1806   -0.1212 H   0  0  0  0  0  0  0  0  0  0  0  0
   -4.7977   -0.3451   -3.0358 H   0  0  0  0  0  0  0  0  0  0  0  0
   -4.3358    1.3342   -2.7340 H   0  0  0  0  0  0  0  0  0  0  0  0
   -3.1322    0.1780   -3.3014 H   0  0  0  0  0  0  0  0  0  0  0  0
   -3.8768    2.5812   -0.6248 H   0  0  0  0  0  0  0  0  0  0  0  0
   -2.1374    4.1347    0.1281 H   0  0  0  0  0  0  0  0  0  0  0  0
    0.1713    3.3962    0.4571 H   0  0  0  0  0  0  0  0  0  0  0  0
   -0.9676   -0.5580   -0.7525 H   0  0  0  0  0  0  0  0  0  0  0  0
    4.7747    2.0196    0.9553 H   0  0  0  0  0  0  0  0  0  0  0  0
    6.6690    0.4153    1.0713 H   0  0  0  0  0  0  0  0  0  0  0  0
   -5.8459   -0.4780    1.8178 C   0  0  0  0  0  0  0  0  0  0  0  0
   -5.7942    0.7895   -0.5914 O   0  0  0  0  0  0  0  0  0  0  0  0
   -2.7007   -3.3668   -0.0830 N   0  0  0  0  0  0  0  0  0  0  0  0
  1  2  2  0
  1 23  1  0
  2 20  1  0
  3 19  2  0
  4 23  1  0
 42  5  1  0
  5  6  1  0
  5 12  1  0
 43 12  2  0
  6  7  1  0
 44  7  1  0
  7  8  2  0
  8  9  1  0
  9 11  1  6
  9 12  1  0
  9 13  1  0
 10 17  1  0
 10 19  1  0
 13 14  2  0
 13 18  1  0
 14 15  1  0
 15 16  2  0
 16 17  1  0
 17 18  2  0
 19 20  1  0
 20 21  2  0
 21 22  1  0
 22 23  2  0
  1 24  1  0
 42 25  1  0
 42 26  1  0
 42 27  1  0
  6 28  1  0
  6 29  1  0
 44 30  1  0
 44 31  1  0
 10 32  1  0
 11 33  1  0
 11 34  1  0
 11 35  1  0
 14 36  1  0
 15 37  1  0
 16 38  1  0
 18 39  1  0
 21 40  1  0
 22 41  1  0
M  END
