
     RDKit          3D

 20 20  0  0  0  0  0  0  0  0999 V2000
    1.4905   -1.6867    0.4902 O   0  0  0  0  0  0  0  0  0  0  0  0
    0.6947   -0.5922    0.8573 C   0  0  2  0  0  0  0  0  0  0  0  0
   -0.7704   -0.7436    0.4351 C   0  0  2  0  0  0  0  0  0  0  0  0
   -0.8709   -1.2717   -0.8670 O   0  0  0  0  0  0  0  0  0  0  0  0
   -1.2524    0.7022    0.4121 C   0  0  2  0  0  0  0  0  0  0  0  0
   -2.5733    0.8556   -0.1616 N   0  0  0  0  0  0  0  0  0  0  0  0
   -0.0936    1.4409   -0.2744 C   0  0  0  0  0  0  0  0  0  0  0  0
    1.1820    0.7425    0.2031 C   0  0  2  0  0  0  0  0  0  0  0  0
    2.0629    0.4727   -0.8737 O   0  0  0  0  0  0  0  0  0  0  0  0
    2.0033   -1.3887   -0.2767 H   0  0  0  0  0  0  0  0  0  0  0  0
    0.7267   -0.4803    1.9467 H   0  0  0  0  0  0  0  0  0  0  0  0
   -1.3422   -1.3505    1.1509 H   0  0  0  0  0  0  0  0  0  0  0  0
   -0.2737   -2.0267   -0.9193 H   0  0  0  0  0  0  0  0  0  0  0  0
   -1.3111    1.0286    1.4562 H   0  0  0  0  0  0  0  0  0  0  0  0
   -2.8521    1.8273   -0.1045 H   0  0  0  0  0  0  0  0  0  0  0  0
   -2.5375    0.6389   -1.1504 H   0  0  0  0  0  0  0  0  0  0  0  0
   -0.1833    1.3221   -1.3575 H   0  0  0  0  0  0  0  0  0  0  0  0
   -0.0984    2.5110   -0.0627 H   0  0  0  0  0  0  0  0  0  0  0  0
    1.6958    1.3433    0.9570 H   0  0  0  0  0  0  0  0  0  0  0  0
    2.9553    0.7187   -0.6151 H   0  0  0  0  0  0  0  0  0  0  0  0
  1  2  1  0
  1 10  1  0
  8  2  1  0
  2  3  1  0
  2 11  1  1
  5  3  1  0
  3  4  1  0
  3 12  1  1
  4 13  1  0
  7  5  1  0
  5  6  1  0
  5 14  1  1
  6 15  1  0
  6 16  1  0
  8  7  1  0
  7 17  1  0
  7 18  1  0
  9  8  1  0
  8 19  1  1
  9 20  1  0
M  END
