
     RDKit          3D

 23 24  0  0  0  0  0  0  0  0999 V2000
   -2.9832   -0.3350    0.0016 N   0  0  0  0  0  0  0  0  0  0  0  0
   -2.2529    0.7797    0.1045 C   0  0  0  0  0  0  0  0  0  0  0  0
    3.6878    1.7979   -0.1080 C   0  0  0  0  0  0  0  0  0  0  0  0
    2.5645    1.3690   -0.1023 C   0  0  0  0  0  0  0  0  0  0  0  0
    1.2450    0.8540   -0.0956 C   0  0  0  0  0  0  0  0  0  0  0  0
   -0.8513    0.6595    0.0060 C   0  0  0  0  0  0  0  0  0  0  0  0
   -0.3557   -0.6224   -0.1960 C   0  0  0  0  0  0  0  0  0  0  0  0
    2.4232   -2.0941    0.9329 C   0  0  0  0  0  0  0  0  0  0  0  0
   -2.3676   -1.5002   -0.1891 C   0  0  0  0  0  0  0  0  0  0  0  0
    0.1601    1.5696    0.0664 N   0  0  0  0  0  0  0  0  0  0  0  0
    0.9937   -0.4834   -0.2686 N   0  0  0  0  0  0  0  0  0  0  0  0
   -1.0731   -1.7394   -0.2993 N   0  0  0  0  0  0  0  0  0  0  0  0
   -2.8633    1.9473    0.2999 N   0  0  0  0  0  0  0  0  0  0  0  0
    4.6821    2.1837   -0.1137 H   0  0  0  0  0  0  0  0  0  0  0  0
    2.8068   -1.1709   -0.9856 H   0  0  0  0  0  0  0  0  0  0  0  0
    1.4970   -2.3368   -1.0041 H   0  0  0  0  0  0  0  0  0  0  0  0
    3.1478   -2.8926    0.7780 H   0  0  0  0  0  0  0  0  0  0  0  0
    2.8998   -1.3183    1.5317 H   0  0  0  0  0  0  0  0  0  0  0  0
    1.5866   -2.5018    1.4993 H   0  0  0  0  0  0  0  0  0  0  0  0
   -3.0210   -2.3629   -0.2637 H   0  0  0  0  0  0  0  0  0  0  0  0
   -3.8674    1.9956    0.3217 H   0  0  0  0  0  0  0  0  0  0  0  0
   -2.3444    2.8071    0.3396 H   0  0  0  0  0  0  0  0  0  0  0  0
    1.9650   -1.5539   -0.4098 C   0  0  0  0  0  0  0  0  0  0  0  0
 13  2  1  0
  2  1  2  0
  2  6  1  0
  1  9  1  0
 10  6  1  0
 10  5  2  0
  6  7  2  0
  9 12  2  0
  5  4  1  0
  5 11  1  0
  7 12  1  0
  7 11  1  0
  4  3  3  0
  8 23  1  0
 11 23  1  0
  3 14  1  0
 23 15  1  0
 23 16  1  0
  8 17  1  0
  8 18  1  0
  8 19  1  0
  9 20  1  0
 13 21  1  0
 13 22  1  0
M  END
