
     RDKit          3D

 28 29  0  0  0  0  0  0  0  0999 V2000
   -1.0156   -1.7698    0.5703 O   0  0  0  0  0  0  0  0  0  0  0  0
   -1.3391   -0.6792    0.1169 C   0  0  0  0  0  0  0  0  0  0  0  0
   -0.4067    0.2341   -0.3305 N   0  0  0  0  0  0  0  0  0  0  0  0
    0.9703    0.0295   -0.2175 C   0  0  0  0  0  0  0  0  0  0  0  0
    1.6006   -1.1447   -0.6224 C   0  0  0  0  0  0  0  0  0  0  0  0
    2.9731   -1.3031   -0.5042 C   0  0  0  0  0  0  0  0  0  0  0  0
    3.7240   -0.2622    0.0044 C   0  0  0  0  0  0  0  0  0  0  0  0
    5.0526   -0.4018    0.1153 F   0  0  0  0  0  0  0  0  0  0  0  0
    3.1492    0.9296    0.3996 C   0  0  0  0  0  0  0  0  0  0  0  0
    1.7786    1.0423    0.2890 C   0  0  0  0  0  0  0  0  0  0  0  0
    1.1970    2.1866    0.6761 F   0  0  0  0  0  0  0  0  0  0  0  0
   -2.6224   -0.2853    0.0056 N   0  0  0  0  0  0  0  0  0  0  0  0
   -3.7113   -1.1254    0.4906 C   0  0  0  0  0  0  0  0  0  0  0  0
   -4.8993   -0.1714    0.5062 C   0  0  0  0  0  0  0  0  0  0  0  0
   -4.6001    0.7757   -0.6513 C   0  0  0  0  0  0  0  0  0  0  0  0
   -3.0913    0.9763   -0.5553 C   0  0  0  0  0  0  0  0  0  0  0  0
   -0.7041    1.1783   -0.5180 H   0  0  0  0  0  0  0  0  0  0  0  0
    1.0151   -1.9479   -1.0435 H   0  0  0  0  0  0  0  0  0  0  0  0
    3.4473   -2.2223   -0.8199 H   0  0  0  0  0  0  0  0  0  0  0  0
    3.7424    1.7435    0.7957 H   0  0  0  0  0  0  0  0  0  0  0  0
   -3.8861   -1.9655   -0.1883 H   0  0  0  0  0  0  0  0  0  0  0  0
   -3.4878   -1.5343    1.4758 H   0  0  0  0  0  0  0  0  0  0  0  0
   -2.8502    1.8159    0.1059 H   0  0  0  0  0  0  0  0  0  0  0  0
   -2.6448    1.1751   -1.5322 H   0  0  0  0  0  0  0  0  0  0  0  0
   -5.8488   -0.6943    0.4000 H   0  0  0  0  0  0  0  0  0  0  0  0
   -4.9249    0.3805    1.4485 H   0  0  0  0  0  0  0  0  0  0  0  0
   -4.8537    0.3034   -1.6024 H   0  0  0  0  0  0  0  0  0  0  0  0
   -5.1429    1.7181   -0.5921 H   0  0  0  0  0  0  0  0  0  0  0  0
  1  2  2  0
  2  3  1  0
  2 12  1  0
  3  4  1  0
  4  5  2  0
  4 10  1  0
  5  6  1  0
  6  7  2  0
  7  8  1  0
  7  9  1  0
  9 10  2  0
 10 11  1  0
 12 13  1  0
 12 16  1  0
 13 14  1  0
 14 15  1  0
 15 16  1  0
  3 17  1  0
  5 18  1  0
  6 19  1  0
  9 20  1  0
 13 21  1  0
 13 22  1  0
 16 23  1  0
 16 24  1  0
 14 25  1  0
 14 26  1  0
 15 27  1  0
 15 28  1  0
M  END
