
     RDKit          3D

 12 11  0  0  0  0  0  0  0  0999 V2000
    1.2528    0.0624    0.0167 C   0  0  0  0  0  0  0  0  0  0  0  0
   -1.2249    0.0741    0.0454 C   0  0  0  0  0  0  0  0  0  0  0  0
    2.2756   -0.8158    0.0451 N   0  0  0  0  0  0  0  0  0  0  0  0
   -2.2551   -0.7975    0.0518 N   0  0  0  0  0  0  0  0  0  0  0  0
    0.0109   -0.5597    0.0215 N   0  0  0  0  0  0  0  0  0  0  0  0
    1.4101    1.2680   -0.0124 O   0  0  0  0  0  0  0  0  0  0  0  0
   -1.3721    1.2809    0.0726 O   0  0  0  0  0  0  0  0  0  0  0  0
    2.1560   -1.8131    0.0746 H   0  0  0  0  0  0  0  0  0  0  0  0
    3.2170   -0.4640    0.0311 H   0  0  0  0  0  0  0  0  0  0  0  0
   -2.1422   -1.7906   -0.0526 H   0  0  0  0  0  0  0  0  0  0  0  0
   -3.1921   -0.4363    0.0078 H   0  0  0  0  0  0  0  0  0  0  0  0
    0.0060   -1.5688    0.0234 H   0  0  0  0  0  0  0  0  0  0  0  0
  4  2  1  0
  3  1  1  0
  7  2  2  0
  2  5  1  0
  1  5  1  0
  1  6  2  0
  3  8  1  0
  3  9  1  0
  4 10  1  0
  4 11  1  0
  5 12  1  0
M  END
