
     RDKit          3D

  5  4  0  0  0  0  0  0  0  0999 V2000
   -0.0118   -0.3169    0.0224 P   0  0  0  0  0  0  0  0  0  0  0  0
   -1.3359    0.4068    0.1050 O   0  0  0  0  0  0  0  0  0  0  0  0
    1.2854    0.4574   -0.0189 O   0  0  0  0  0  0  0  0  0  0  0  0
    0.0562   -1.2782    1.0825 H   0  0  0  0  0  0  0  0  0  0  0  0
   -0.0460   -1.2202   -1.0894 H   0  0  0  0  0  0  0  0  0  0  0  0
  3  1  2  0
  1  2  1  0
  1  4  1  0
  1  5  1  0
M  CHG  1   2  -1
M  END
