
     RDKit          3D

 30 31  0  0  0  0  0  0  0  0999 V2000
   -0.6873    0.0141    1.5774 C   0  0  0  0  0  0  0  0  0  0  0  0
   -4.2957   -0.8391   -1.0893 C   0  0  0  0  0  0  0  0  0  0  0  0
   -3.0478   -0.3010   -1.0650 C   0  0  0  0  0  0  0  0  0  0  0  0
   -4.1104    1.0529    0.4768 C   0  0  0  0  0  0  0  0  0  0  0  0
    3.2143    1.2647    0.1242 C   0  0  0  0  0  0  0  0  0  0  0  0
   -1.6707    1.5767    0.0392 C   0  0  0  0  0  0  0  0  0  0  0  0
    0.7044    1.4105    0.2247 C   0  0  0  0  0  0  0  0  0  0  0  0
   -2.9345    0.7979   -0.1610 C   0  0  0  0  0  0  0  0  0  0  0  0
    1.9098    0.5509   -0.0040 C   0  0  0  0  0  0  0  0  0  0  0  0
    4.4203    0.4430   -0.2116 C   0  0  0  0  0  0  0  0  0  0  0  0
    2.9055   -1.4562   -0.5574 C   0  0  0  0  0  0  0  0  0  0  0  0
    1.7794   -0.6799   -0.3018 N   0  0  0  0  0  0  0  0  0  0  0  0
    4.1545   -0.8620   -0.5155 N   0  0  0  0  0  0  0  0  0  0  0  0
   -0.5422    0.7018    0.3099 N   0  0  0  0  0  0  0  0  0  0  0  0
    5.5464    0.8839   -0.2083 O   0  0  0  0  0  0  0  0  0  0  0  0
    2.8000   -2.6295   -0.8212 O   0  0  0  0  0  0  0  0  0  0  0  0
   -5.3546   -0.0205   -0.0156 S   0  0  0  0  0  0  0  0  0  0  0  0
   -0.7138    0.7040    2.4347 H   0  0  0  0  0  0  0  0  0  0  0  0
   -1.6116   -0.5630    1.5860 H   0  0  0  0  0  0  0  0  0  0  0  0
    0.1327   -0.6863    1.7272 H   0  0  0  0  0  0  0  0  0  0  0  0
   -2.2255   -0.6700   -1.6617 H   0  0  0  0  0  0  0  0  0  0  0  0
   -4.3054    1.8159    1.2160 H   0  0  0  0  0  0  0  0  0  0  0  0
    3.2088    2.1594   -0.5053 H   0  0  0  0  0  0  0  0  0  0  0  0
    3.3205    1.6335    1.1495 H   0  0  0  0  0  0  0  0  0  0  0  0
   -1.4518    2.1355   -0.8757 H   0  0  0  0  0  0  0  0  0  0  0  0
   -1.8221    2.3261    0.8331 H   0  0  0  0  0  0  0  0  0  0  0  0
    0.9028    2.0557    1.0989 H   0  0  0  0  0  0  0  0  0  0  0  0
    0.6752    2.0983   -0.6295 H   0  0  0  0  0  0  0  0  0  0  0  0
    4.9448   -1.4589   -0.7312 H   0  0  0  0  0  0  0  0  0  0  0  0
   -4.6509   -1.6706   -1.6783 H   0  0  0  0  0  0  0  0  0  0  0  0
 16 11  2  0
 11 13  1  0
 11 12  1  0
 13 10  1  0
 12  9  2  0
 10 15  2  0
 10  5  1  0
  9  5  1  0
  9  7  1  0
  1 14  1  0
  4 17  1  0
  4  8  2  0
 14  7  1  0
 14  6  1  0
 17  2  1  0
  6  8  1  0
  8  3  1  0
  2  3  2  0
  1 18  1  0
  1 19  1  0
  1 20  1  0
  2 30  1  0
  3 21  1  0
  4 22  1  0
  5 23  1  0
  5 24  1  0
  6 25  1  0
  6 26  1  0
  7 27  1  0
  7 28  1  0
 13 29  1  0
M  END
