
     RDKit          3D

 56 58  0  0  0  0  0  0  0  0999 V2000
    6.5904   -3.0697   -1.9892 C   0  0  0  0  0  0  0  0  0  0  0  0
    5.3700   -2.3895   -1.7730 O   0  0  0  0  0  0  0  0  0  0  0  0
    5.3355   -1.3880   -0.8757 C   0  0  0  0  0  0  0  0  0  0  0  0
    6.4416   -0.9728   -0.1452 C   0  0  0  0  0  0  0  0  0  0  0  0
    6.2900    0.0899    0.7470 C   0  0  0  0  0  0  0  0  0  0  0  0
    7.3878    0.4660    1.4301 O   0  0  0  0  0  0  0  0  0  0  0  0
    5.0634    0.7088    0.9254 C   0  0  0  0  0  0  0  0  0  0  0  0
    3.9577    0.2775    0.1828 C   0  0  0  0  0  0  0  0  0  0  0  0
    2.7662    0.9648    0.3630 N   0  0  0  0  0  0  0  0  0  0  0  0
    1.4736    0.5465    0.1436 C   0  0  0  0  0  0  0  0  0  0  0  0
    1.0945   -0.7966    0.0852 C   0  0  0  0  0  0  0  0  0  0  0  0
   -0.2374   -1.1152   -0.1080 C   0  0  0  0  0  0  0  0  0  0  0  0
   -1.2265   -0.1485   -0.2483 C   0  0  0  0  0  0  0  0  0  0  0  0
   -2.6360   -0.5357   -0.5323 C   0  0  0  0  0  0  0  0  0  0  0  0
   -3.3037   -0.0015   -1.3992 O   0  0  0  0  0  0  0  0  0  0  0  0
   -3.0879   -1.5500    0.2555 N   0  0  0  0  0  0  0  0  0  0  0  0
   -4.3097   -2.2279    0.2188 C   0  0  0  0  0  0  0  0  0  0  0  0
   -5.3109   -2.0112   -0.7303 C   0  0  0  0  0  0  0  0  0  0  0  0
   -6.4854   -2.7509   -0.6692 C   0  0  0  0  0  0  0  0  0  0  0  0
   -6.6896   -3.7040    0.3170 C   0  0  0  0  0  0  0  0  0  0  0  0
   -5.6918   -3.9188    1.2595 C   0  0  0  0  0  0  0  0  0  0  0  0
   -4.5162   -3.1910    1.2116 C   0  0  0  0  0  0  0  0  0  0  0  0
   -0.8438    1.2026   -0.1679 C   0  0  0  0  0  0  0  0  0  0  0  0
   -1.8232    2.1127   -0.2628 O   0  0  0  0  0  0  0  0  0  0  0  0
   -1.5125    3.4872   -0.1332 C   0  0  0  0  0  0  0  0  0  0  0  0
   -2.8060    4.2574   -0.3135 C   0  0  0  0  0  0  0  0  0  0  0  0
   -2.5491    5.7423   -0.1540 C   0  0  0  0  0  0  0  0  0  0  0  0
   -3.8029    6.5162   -0.3334 N   0  0  0  0  0  0  0  0  0  0  0  0
    0.4879    1.5367    0.0264 C   0  0  0  0  0  0  0  0  0  0  0  0
    4.0958   -0.7613   -0.7298 C   0  0  0  0  0  0  0  0  0  0  0  0
   -4.2123    6.3735   -1.2564 H   0  0  0  0  0  0  0  0  0  0  0  0
   -4.5118    6.2609    0.3540 H   0  0  0  0  0  0  0  0  0  0  0  0
   -3.6386    7.5175   -0.2332 H   0  0  0  0  0  0  0  0  0  0  0  0
    7.3664   -2.4044   -2.3766 H   0  0  0  0  0  0  0  0  0  0  0  0
    6.9585   -3.5484   -1.0782 H   0  0  0  0  0  0  0  0  0  0  0  0
    6.3870   -3.8388   -2.7301 H   0  0  0  0  0  0  0  0  0  0  0  0
    7.4124   -1.4382   -0.2467 H   0  0  0  0  0  0  0  0  0  0  0  0
    7.1900    1.2175    2.0003 H   0  0  0  0  0  0  0  0  0  0  0  0
    4.9518    1.5183    1.6382 H   0  0  0  0  0  0  0  0  0  0  0  0
    2.8633    1.9087    0.7019 H   0  0  0  0  0  0  0  0  0  0  0  0
    1.8140   -1.5911    0.2109 H   0  0  0  0  0  0  0  0  0  0  0  0
   -0.5068   -2.1630   -0.1637 H   0  0  0  0  0  0  0  0  0  0  0  0
   -2.4720   -1.8390    1.0003 H   0  0  0  0  0  0  0  0  0  0  0  0
   -5.1883   -1.2771   -1.5085 H   0  0  0  0  0  0  0  0  0  0  0  0
   -7.2523   -2.5698   -1.4115 H   0  0  0  0  0  0  0  0  0  0  0  0
   -7.6103   -4.2709    0.3520 H   0  0  0  0  0  0  0  0  0  0  0  0
   -5.8254   -4.6572    2.0392 H   0  0  0  0  0  0  0  0  0  0  0  0
   -3.7455   -3.3702    1.9523 H   0  0  0  0  0  0  0  0  0  0  0  0
   -1.0779    3.6914    0.8517 H   0  0  0  0  0  0  0  0  0  0  0  0
   -0.7825    3.7922   -0.8907 H   0  0  0  0  0  0  0  0  0  0  0  0
   -3.2161    4.0541   -1.3055 H   0  0  0  0  0  0  0  0  0  0  0  0
   -3.5388    3.9258    0.4262 H   0  0  0  0  0  0  0  0  0  0  0  0
   -2.1714    5.9838    0.8371 H   0  0  0  0  0  0  0  0  0  0  0  0
   -1.8432    6.1149   -0.8930 H   0  0  0  0  0  0  0  0  0  0  0  0
    0.7949    2.5729    0.0896 H   0  0  0  0  0  0  0  0  0  0  0  0
    3.2741   -1.0786   -1.3564 H   0  0  0  0  0  0  0  0  0  0  0  0
  1  2  1  0
  1 34  1  0
  1 35  1  0
  1 36  1  0
  2  3  1  0
  3  4  2  0
  3 30  1  0
  4  5  1  0
  4 37  1  0
  5  6  1  0
  5  7  2  0
  6 38  1  0
  7  8  1  0
  7 39  1  0
  8  9  1  0
  8 30  2  0
  9 10  1  0
  9 40  1  0
 10 11  2  0
 10 29  1  0
 11 12  1  0
 11 41  1  0
 12 13  2  0
 12 42  1  0
 13 14  1  0
 13 23  1  0
 14 15  2  0
 14 16  1  0
 16 17  1  0
 16 43  1  0
 17 18  2  0
 17 22  1  0
 18 19  1  0
 18 44  1  0
 19 20  2  0
 19 45  1  0
 20 21  1  0
 20 46  1  0
 21 22  2  0
 21 47  1  0
 22 48  1  0
 23 24  1  0
 23 29  2  0
 24 25  1  0
 25 26  1  0
 25 49  1  0
 25 50  1  0
 26 27  1  0
 26 51  1  0
 26 52  1  0
 27 28  1  0
 27 53  1  0
 27 54  1  0
 28 31  1  0
 28 32  1  0
 28 33  1  0
 29 55  1  0
 30 56  1  0
M  CHG  1  28   1
M  END
