
     RDKit          3D

 48 51  0  0  0  0  0  0  0  0999 V2000
    0.2725   -0.1550   -0.0966 N   0  0  0  0  0  0  0  0  0  0  0  0
    1.9498   -0.8952    1.3607 C   0  0  2  0  0  0  0  0  0  0  0  0
    2.5406    0.0499    0.3149 C   0  0  2  0  0  0  0  0  0  0  0  0
    1.5175    0.0427   -0.8226 C   0  0  0  0  0  0  0  0  0  0  0  0
    0.4760   -0.5070    1.2985 C   0  0  0  0  0  0  0  0  0  0  0  0
   -4.6139    0.1443    0.1230 C   0  0  0  0  0  0  0  0  0  0  0  0
   -5.7059    0.8344   -0.4056 C   0  0  0  0  0  0  0  0  0  0  0  0
   -6.9323    0.8158    0.2410 C   0  0  0  0  0  0  0  0  0  0  0  0
   -7.0914    0.0960    1.4183 C   0  0  0  0  0  0  0  0  0  0  0  0
   -6.0144   -0.6048    1.9453 C   0  0  0  0  0  0  0  0  0  0  0  0
   -4.7855   -0.5796    1.3037 C   0  0  0  0  0  0  0  0  0  0  0  0
   -3.3083    0.1918   -0.5691 C   0  0  0  0  0  0  0  0  0  0  0  0
   -2.1223   -0.0213    0.1012 C   0  0  0  0  0  0  0  0  0  0  0  0
   -0.9299    0.0479   -0.6484 C   0  0  0  0  0  0  0  0  0  0  0  0
   -0.9683    0.3341   -1.9574 N   0  0  0  0  0  0  0  0  0  0  0  0
   -2.1615    0.5347   -2.4849 C   0  0  0  0  0  0  0  0  0  0  0  0
   -3.3328    0.4775   -1.8819 N   0  0  0  0  0  0  0  0  0  0  0  0
    2.5216   -0.6653    2.6729 N   0  0  0  0  0  0  0  0  0  0  0  0
    3.9318   -0.1504   -0.0537 N   0  0  0  0  0  0  0  0  0  0  0  0
    4.7877    1.0225    0.1483 C   0  0  0  0  0  0  0  0  0  0  0  0
    6.2654    0.7137    0.0568 C   0  0  0  0  0  0  0  0  0  0  0  0
    6.5424   -0.0999   -1.1913 C   0  0  0  0  0  0  0  0  0  0  0  0
    5.7837   -1.4100   -1.0862 C   0  0  0  0  0  0  0  0  0  0  0  0
    4.3336   -1.2874   -0.6664 C   0  0  0  0  0  0  0  0  0  0  0  0
    3.5697   -2.2257   -0.8643 O   0  0  0  0  0  0  0  0  0  0  0  0
    2.0500   -1.9301    1.0184 H   0  0  0  0  0  0  0  0  0  0  0  0
    2.5024    1.0441    0.7691 H   0  0  0  0  0  0  0  0  0  0  0  0
    1.6881   -0.7583   -1.5420 H   0  0  0  0  0  0  0  0  0  0  0  0
    1.5151    0.9882   -1.3663 H   0  0  0  0  0  0  0  0  0  0  0  0
    0.2821    0.3430    1.9630 H   0  0  0  0  0  0  0  0  0  0  0  0
   -0.1758   -1.3289    1.6022 H   0  0  0  0  0  0  0  0  0  0  0  0
   -5.5883    1.3959   -1.3225 H   0  0  0  0  0  0  0  0  0  0  0  0
   -7.7657    1.3668   -0.1749 H   0  0  0  0  0  0  0  0  0  0  0  0
   -8.0505    0.0760    1.9193 H   0  0  0  0  0  0  0  0  0  0  0  0
   -6.1315   -1.1785    2.8553 H   0  0  0  0  0  0  0  0  0  0  0  0
   -3.9643   -1.1486    1.7202 H   0  0  0  0  0  0  0  0  0  0  0  0
   -2.1032   -0.2010    1.1658 H   0  0  0  0  0  0  0  0  0  0  0  0
   -2.1775    0.7709   -3.5448 H   0  0  0  0  0  0  0  0  0  0  0  0
    2.1013   -1.3015    3.3399 H   0  0  0  0  0  0  0  0  0  0  0  0
    3.5024   -0.9184    2.6529 H   0  0  0  0  0  0  0  0  0  0  0  0
    4.5252    1.7866   -0.5913 H   0  0  0  0  0  0  0  0  0  0  0  0
    4.5564    1.4380    1.1301 H   0  0  0  0  0  0  0  0  0  0  0  0
    6.8134    1.6570    0.0532 H   0  0  0  0  0  0  0  0  0  0  0  0
    6.5912    0.1593    0.9417 H   0  0  0  0  0  0  0  0  0  0  0  0
    6.2190    0.4548   -2.0765 H   0  0  0  0  0  0  0  0  0  0  0  0
    7.6091   -0.2939   -1.3108 H   0  0  0  0  0  0  0  0  0  0  0  0
    5.7943   -1.9609   -2.0279 H   0  0  0  0  0  0  0  0  0  0  0  0
    6.2673   -2.0603   -0.3497 H   0  0  0  0  0  0  0  0  0  0  0  0
  4  1  1  0
  5  1  1  0
  1 14  1  0
 18  2  1  0
  2  3  1  0
  2  5  1  0
  2 26  1  6
 19  3  1  0
  3  4  1  0
  3 27  1  1
  4 28  1  0
  4 29  1  0
  5 30  1  0
  5 31  1  0
 12  6  1  0
 11  6  1  0
  6  7  2  0
  7  8  1  0
  7 32  1  0
  9  8  2  0
  8 33  1  0
 10  9  1  0
  9 34  1  0
 11 10  2  0
 10 35  1  0
 11 36  1  0
 13 12  2  0
 12 17  1  0
 14 13  1  0
 13 37  1  0
 14 15  2  0
 15 16  1  0
 16 17  2  0
 16 38  1  0
 18 39  1  0
 18 40  1  0
 20 19  1  0
 24 19  1  0
 21 20  1  0
 20 41  1  0
 20 42  1  0
 22 21  1  0
 21 43  1  0
 21 44  1  0
 22 23  1  0
 22 45  1  0
 22 46  1  0
 23 24  1  0
 23 47  1  0
 23 48  1  0
 24 25  2  0
M  END
