
     RDKit          3D

 45 48  0  0  0  0  0  0  0  0999 V2000
    4.1821   -0.3743    0.9150 C   0  0  0  0  0  0  0  0  0  0  0  0
    3.6792   -0.1212   -0.3705 C   0  0  0  0  0  0  0  0  0  0  0  0
    2.3477   -0.3179   -0.6948 C   0  0  0  0  0  0  0  0  0  0  0  0
    6.0466    0.3037   -0.0003 C   0  0  0  0  0  0  0  0  0  0  0  0
    9.6918    1.0773    0.1975 C   0  0  0  0  0  0  0  0  0  0  0  0
   -0.9339   -0.7416    0.9234 C   0  0  0  0  0  0  0  0  0  0  0  0
   -2.5372   -1.4670   -0.6661 C   0  0  0  0  0  0  0  0  0  0  0  0
   -5.7361    1.2651   -0.0472 C   0  0  0  0  0  0  0  0  0  0  0  0
   -5.3757    2.0379   -2.2682 C   0  0  0  0  0  0  0  0  0  0  0  0
    8.1739    0.3768    1.9174 O   0  0  0  0  0  0  0  0  0  0  0  0
    7.3539    0.6561   -0.1905 N   0  0  0  0  0  0  0  0  0  0  0  0
    5.5209   -0.1266    1.0887 N   0  0  0  0  0  0  0  0  0  0  0  0
    4.9635    0.4580   -1.3804 S   0  0  0  0  0  0  0  0  0  0  0  0
    3.3127   -0.8438    1.8971 C   0  0  0  0  0  0  0  0  0  0  0  0
    1.9839   -1.0431    1.5806 C   0  0  0  0  0  0  0  0  0  0  0  0
    1.4866   -0.7857    0.2938 C   0  0  0  0  0  0  0  0  0  0  0  0
    0.0633   -1.0089   -0.0097 C   0  0  0  0  0  0  0  0  0  0  0  0
   -0.3458   -1.5201   -1.2392 C   0  0  0  0  0  0  0  0  0  0  0  0
   -1.6143   -1.7472   -1.5486 N   0  0  0  0  0  0  0  0  0  0  0  0
   -2.2650   -0.9600    0.6064 C   0  0  0  0  0  0  0  0  0  0  0  0
   -3.2705   -0.6659    1.5451 N   0  0  0  0  0  0  0  0  0  0  0  0
   -3.7141    0.9338    1.7525 S   0  0  1  0  0  0  0  0  0  0  0  0
   -4.7693    0.9126    2.7454 O   0  0  0  0  0  0  0  0  0  0  0  0
   -2.4893    1.6750    1.9812 O   0  0  0  0  0  0  0  0  0  0  0  0
   -4.3791    1.4345    0.1982 C   0  0  0  0  0  0  0  0  0  0  0  0
   -6.2442    1.5758   -1.2954 C   0  0  0  0  0  0  0  0  0  0  0  0
   -4.0237    2.2130   -2.0379 C   0  0  0  0  0  0  0  0  0  0  0  0
   -3.5193    1.9092   -0.7850 C   0  0  0  0  0  0  0  0  0  0  0  0
    1.9823   -0.0886   -1.6875 H   0  0  0  0  0  0  0  0  0  0  0  0
   10.1576    0.2133   -0.2807 H   0  0  0  0  0  0  0  0  0  0  0  0
    9.6039    1.8621   -0.5526 H   0  0  0  0  0  0  0  0  0  0  0  0
   10.3445    1.4177    0.9969 H   0  0  0  0  0  0  0  0  0  0  0  0
   -0.6853   -0.3554    1.9023 H   0  0  0  0  0  0  0  0  0  0  0  0
   -6.4021    0.8970    0.7213 H   0  0  0  0  0  0  0  0  0  0  0  0
    7.6184    0.9338   -1.1240 H   0  0  0  0  0  0  0  0  0  0  0  0
    3.6822   -1.0543    2.8919 H   0  0  0  0  0  0  0  0  0  0  0  0
    1.3186   -1.4261    2.3440 H   0  0  0  0  0  0  0  0  0  0  0  0
    0.3818   -1.7752   -2.0009 H   0  0  0  0  0  0  0  0  0  0  0  0
   -4.0744   -1.2868    1.5355 H   0  0  0  0  0  0  0  0  0  0  0  0
   -7.2982    1.4595   -1.5085 H   0  0  0  0  0  0  0  0  0  0  0  0
   -3.3754    2.5853   -2.8195 H   0  0  0  0  0  0  0  0  0  0  0  0
   -2.4662    2.0555   -0.5884 H   0  0  0  0  0  0  0  0  0  0  0  0
   -4.1767   -1.7762   -1.1261 Cl  0  0  0  0  0  0  0  0  0  0  0  0
    8.3567    0.6751    0.7619 C   0  0  0  0  0  0  0  0  0  0  0  0
   -5.8635    2.3338   -3.4751 F   0  0  0  0  0  0  0  0  0  0  0  0
  2  1  1  0
  1 14  2  0
  1 12  1  0
  3  2  2  0
 13  2  1  0
  3 16  1  0
  3 29  1  0
 13  4  1  0
  4 11  1  0
  4 12  2  0
 44  5  1  0
  5 30  1  0
  5 31  1  0
  5 32  1  0
 20  6  2  0
  6 17  1  0
  6 33  1  0
 20  7  1  0
 43  7  1  0
  7 19  2  0
 25  8  2  0
  8 26  1  0
  8 34  1  0
 27  9  1  0
 26  9  2  0
  9 45  1  0
 10 44  2  0
 44 11  1  0
 11 35  1  0
 15 14  1  0
 14 36  1  0
 16 15  2  0
 15 37  1  0
 17 16  1  0
 17 18  2  0
 19 18  1  0
 18 38  1  0
 21 20  1  0
 22 21  1  6
 21 39  1  0
 24 22  2  0
 23 22  2  0
 22 25  1  0
 25 28  1  0
 26 40  1  0
 28 27  2  0
 27 41  1  0
 28 42  1  0
M  END
