
     RDKit          3D

 29 31  0  0  0  0  0  0  0  0999 V2000
    1.4150   -0.1788   -0.2034 C   0  0  0  0  0  0  0  0  0  0  0  0
    2.7060    0.2867    0.0837 C   0  0  0  0  0  0  0  0  0  0  0  0
    0.1909    0.6006   -0.0666 C   0  0  0  0  0  0  0  0  0  0  0  0
   -3.2849   -0.3301    0.3431 C   0  0  0  0  0  0  0  0  0  0  0  0
    4.6374    1.5436    0.7155 C   0  0  0  0  0  0  0  0  0  0  0  0
    5.4529    0.4308    0.4032 C   0  0  0  0  0  0  0  0  0  0  0  0
   -2.5774    1.6961   -0.7141 C   0  0  0  0  0  0  0  0  0  0  0  0
   -4.5872    0.1385    0.4025 C   0  0  0  0  0  0  0  0  0  0  0  0
   -3.8744    2.1762   -0.6393 C   0  0  0  0  0  0  0  0  0  0  0  0
   -4.8831    1.4020   -0.0828 C   0  0  0  0  0  0  0  0  0  0  0  0
    3.5383   -0.7655   -0.2015 N   0  0  0  0  0  0  0  0  0  0  0  0
    2.8838   -1.8475   -0.6464 N   0  0  0  0  0  0  0  0  0  0  0  0
    1.6157   -1.4955   -0.6466 C   0  0  0  0  0  0  0  0  0  0  0  0
   -0.9658   -0.0924   -0.2945 N   0  0  0  0  0  0  0  0  0  0  0  0
   -2.2560    0.4337   -0.2140 C   0  0  0  0  0  0  0  0  0  0  0  0
    3.2817    1.4805    0.5599 C   0  0  0  0  0  0  0  0  0  0  0  0
    4.8864   -0.7155   -0.0534 C   0  0  0  0  0  0  0  0  0  0  0  0
    0.2030    1.7849    0.2303 O   0  0  0  0  0  0  0  0  0  0  0  0
    5.0955    2.4521    1.0808 H   0  0  0  0  0  0  0  0  0  0  0  0
    6.5249    0.4773    0.5227 H   0  0  0  0  0  0  0  0  0  0  0  0
   -1.8119    2.2987   -1.1788 H   0  0  0  0  0  0  0  0  0  0  0  0
   -5.3620   -0.4805    0.8340 H   0  0  0  0  0  0  0  0  0  0  0  0
   -4.0986    3.1582   -1.0333 H   0  0  0  0  0  0  0  0  0  0  0  0
   -5.8979    1.7721   -0.0312 H   0  0  0  0  0  0  0  0  0  0  0  0
    0.8791   -2.2120   -0.9813 H   0  0  0  0  0  0  0  0  0  0  0  0
   -0.9025   -1.0952   -0.3714 H   0  0  0  0  0  0  0  0  0  0  0  0
    2.6447    2.3194    0.7925 H   0  0  0  0  0  0  0  0  0  0  0  0
    5.4295   -1.6107   -0.3155 H   0  0  0  0  0  0  0  0  0  0  0  0
   -2.9332   -1.9077    0.9735 Cl  0  0  0  0  0  0  0  0  0  0  0  0
 10  8  1  0
 10  9  2  0
  5 16  2  0
  5  6  1  0
  8  4  2  0
 16  2  1  0
 18  3  2  0
  9  7  1  0
  4 29  1  0
  4 15  1  0
  7 15  2  0
  6 17  2  0
 15 14  1  0
  3 14  1  0
  3  1  1  0
  2  1  2  0
  2 11  1  0
  1 13  1  0
 17 11  1  0
 11 12  1  0
 13 12  2  0
  5 19  1  0
  6 20  1  0
  7 21  1  0
  8 22  1  0
  9 23  1  0
 10 24  1  0
 13 25  1  0
 14 26  1  0
 16 27  1  0
 17 28  1  0
M  END
