
     RDKit          3D

 33 36  0  0  0  0  0  0  0  0999 V2000
    2.3848    2.5603   -0.0111 N   0  0  0  0  0  0  0  0  0  0  0  0
    4.6396    2.4828   -0.0671 O   0  0  0  0  0  0  0  0  0  0  0  0
   -4.6145    0.3622   -1.3668 O   0  0  0  0  0  0  0  0  0  0  0  0
   -3.9770    1.8815    0.4967 O   0  0  0  0  0  0  0  0  0  0  0  0
   -5.0544   -0.3133    0.9854 O   0  0  0  0  0  0  0  0  0  0  0  0
    4.5055   -1.7125    0.3944 C   0  0  0  0  0  0  0  0  0  0  0  0
    3.2899   -2.3456    0.1883 C   0  0  0  0  0  0  0  0  0  0  0  0
    4.5969   -0.3298    0.3346 C   0  0  0  0  0  0  0  0  0  0  0  0
   -2.5466   -1.7032    0.1064 C   0  0  0  0  0  0  0  0  0  0  0  0
   -1.3194   -2.3231    0.0004 C   0  0  0  0  0  0  0  0  0  0  0  0
   -1.4643    0.4449   -0.1581 C   0  0  0  0  0  0  0  0  0  0  0  0
    1.1030    1.9325    0.2315 C   0  0  0  0  0  0  0  0  0  0  0  0
    0.9898   -2.2420   -0.2751 O   0  0  0  0  0  0  0  0  0  0  0  0
    3.5608    1.9092   -0.0091 C   0  0  0  0  0  0  0  0  0  0  0  0
   -2.6069   -0.3171    0.0289 C   0  0  0  0  0  0  0  0  0  0  0  0
   -0.1718   -1.5579   -0.1819 C   0  0  0  0  0  0  0  0  0  0  0  0
    2.1686   -1.5794   -0.0937 C   0  0  0  0  0  0  0  0  0  0  0  0
    3.4631    0.4230    0.0574 C   0  0  0  0  0  0  0  0  0  0  0  0
   -0.2242   -0.1675   -0.2674 C   0  0  0  0  0  0  0  0  0  0  0  0
    2.2386   -0.2006   -0.1760 C   0  0  0  0  0  0  0  0  0  0  0  0
    1.0319    0.6178   -0.5341 C   0  0  2  0  0  0  0  0  0  0  0  0
   -4.1638    0.4830    0.1650 S   0  0  1  0  0  0  0  0  0  0  0  0
    2.4239    3.5684    0.0050 H   0  0  0  0  0  0  0  0  0  0  0  0
   -5.5049    0.7306   -1.5075 H   0  0  0  0  0  0  0  0  0  0  0  0
    5.3835   -2.3047    0.6137 H   0  0  0  0  0  0  0  0  0  0  0  0
    3.2061   -3.4230    0.2511 H   0  0  0  0  0  0  0  0  0  0  0  0
    5.5436    0.1627    0.5079 H   0  0  0  0  0  0  0  0  0  0  0  0
   -3.4356   -2.2997    0.2578 H   0  0  0  0  0  0  0  0  0  0  0  0
   -1.2417   -3.4000    0.0662 H   0  0  0  0  0  0  0  0  0  0  0  0
   -1.5381    1.5219   -0.2273 H   0  0  0  0  0  0  0  0  0  0  0  0
    0.9421    1.7504    1.2997 H   0  0  0  0  0  0  0  0  0  0  0  0
    0.3341    2.6246   -0.1054 H   0  0  0  0  0  0  0  0  0  0  0  0
    1.0765    0.8496   -1.6065 H   0  0  0  0  0  0  0  0  0  0  0  0
 14  1  1  0
  1 12  1  0
  1 23  1  0
  2 14  2  0
 22  3  1  6
  3 24  1  0
 22  4  2  0
  5 22  2  0
  8  6  1  0
  6  7  2  0
  6 25  1  0
  7 17  1  0
  7 26  1  0
  8 18  2  0
  8 27  1  0
 10  9  1  0
 15  9  2  0
  9 28  1  0
 16 10  2  0
 10 29  1  0
 19 11  2  0
 11 15  1  0
 11 30  1  0
 12 21  1  0
 12 31  1  0
 12 32  1  0
 17 13  1  0
 13 16  1  0
 14 18  1  0
 15 22  1  0
 19 16  1  0
 20 17  2  0
 18 20  1  0
 21 19  1  0
 20 21  1  0
 21 33  1  6
M  END
