
     RDKit          3D

 23 23  0  0  0  0  0  0  0  0999 V2000
    4.9904   -1.2916   -0.0285 C   0  0  0  0  0  0  0  0  0  0  0  0
    3.5642   -1.3832   -0.0400 O   0  0  0  0  0  0  0  0  0  0  0  0
    2.8804   -0.2598    0.0819 C   0  0  0  0  0  0  0  0  0  0  0  0
    3.3760    0.8336    0.2006 O   0  0  0  0  0  0  0  0  0  0  0  0
    1.4303   -0.5309    0.0541 C   0  0  0  0  0  0  0  0  0  0  0  0
    0.4971    0.4284    0.1464 C   0  0  0  0  0  0  0  0  0  0  0  0
    0.8574    1.8079    0.3144 C   0  0  0  0  0  0  0  0  0  0  0  0
    1.0207    2.9394    0.4501 N   0  0  0  0  0  0  0  0  0  0  0  0
   -0.9513    0.1625    0.0828 C   0  0  0  0  0  0  0  0  0  0  0  0
   -1.4357   -0.9575   -0.5969 C   0  0  0  0  0  0  0  0  0  0  0  0
   -2.7903   -1.2317   -0.6404 C   0  0  0  0  0  0  0  0  0  0  0  0
   -3.6620   -0.3703    0.0010 C   0  0  0  0  0  0  0  0  0  0  0  0
   -4.9734   -0.6286   -0.0409 F   0  0  0  0  0  0  0  0  0  0  0  0
   -3.2222    0.7533    0.6726 C   0  0  0  0  0  0  0  0  0  0  0  0
   -1.8631    1.0165    0.7047 C   0  0  0  0  0  0  0  0  0  0  0  0
    5.3535   -2.3086   -0.1368 H   0  0  0  0  0  0  0  0  0  0  0  0
    5.3533   -0.6854   -0.8581 H   0  0  0  0  0  0  0  0  0  0  0  0
    5.3525   -0.8737    0.9104 H   0  0  0  0  0  0  0  0  0  0  0  0
    1.1206   -1.5634   -0.0380 H   0  0  0  0  0  0  0  0  0  0  0  0
   -0.7584   -1.6160   -1.1236 H   0  0  0  0  0  0  0  0  0  0  0  0
   -3.1625   -2.0957   -1.1743 H   0  0  0  0  0  0  0  0  0  0  0  0
   -3.9241    1.4148    1.1621 H   0  0  0  0  0  0  0  0  0  0  0  0
   -1.5237    1.8962    1.2354 H   0  0  0  0  0  0  0  0  0  0  0  0
  8  7  3  0
 11 10  1  0
 11 12  2  0
 13 12  1  0
 10  9  2  0
 12 14  1  0
  7  6  1  0
  9  6  1  0
  9 15  1  0
 14 15  2  0
  6  5  2  0
  4  3  2  0
  5  3  1  0
  3  2  1  0
  2  1  1  0
  1 16  1  0
  1 17  1  0
  1 18  1  0
  5 19  1  0
 10 20  1  0
 11 21  1  0
 14 22  1  0
 15 23  1  0
M  END
