
     RDKit          3D

 41 42  0  0  0  0  0  0  0  0999 V2000
    6.2280    1.5119    0.0093 C   0  0  0  0  0  0  0  0  0  0  0  0
    5.0122    0.6310   -0.0096 C   0  0  0  0  0  0  0  0  0  0  0  0
    3.7338    1.1732    0.0002 C   0  0  0  0  0  0  0  0  0  0  0  0
    5.1396   -0.7594   -0.0376 C   0  0  0  0  0  0  0  0  0  0  0  0
    6.3415   -1.3722   -0.0505 O   0  0  0  0  0  0  0  0  0  0  0  0
    4.0121   -1.5918   -0.0542 C   0  0  0  0  0  0  0  0  0  0  0  0
    4.1751   -3.0826   -0.0838 C   0  0  0  0  0  0  0  0  0  0  0  0
    2.7579   -1.0068   -0.0426 C   0  0  0  0  0  0  0  0  0  0  0  0
    2.5863    0.3808   -0.0158 C   0  0  0  0  0  0  0  0  0  0  0  0
    1.2820    1.0346   -0.0062 C   0  0  0  0  0  0  0  0  0  0  0  0
    0.0830    0.4353   -0.0179 C   0  0  0  0  0  0  0  0  0  0  0  0
   -1.2171    1.1051   -0.0111 C   0  0  0  0  0  0  0  0  0  0  0  0
   -2.3602    0.3002   -0.0496 C   0  0  0  0  0  0  0  0  0  0  0  0
   -1.3634    2.4941    0.0306 C   0  0  0  0  0  0  0  0  0  0  0  0
   -2.6292    3.0539    0.0317 C   0  0  0  0  0  0  0  0  0  0  0  0
   -3.7607    2.2561   -0.0072 C   0  0  0  0  0  0  0  0  0  0  0  0
   -3.6344    0.8661   -0.0490 C   0  0  0  0  0  0  0  0  0  0  0  0
   -4.8221    0.1312   -0.0910 N   0  0  0  0  0  0  0  0  0  0  0  0
   -5.0100   -1.2140   -0.1058 C   0  0  0  0  0  0  0  0  0  0  0  0
   -4.1064   -2.0334   -0.0880 O   0  0  0  0  0  0  0  0  0  0  0  0
   -6.4438   -1.6001   -0.1456 C   0  0  0  0  0  0  0  0  0  0  0  0
   -6.8201   -2.8736   -0.1616 C   0  0  0  0  0  0  0  0  0  0  0  0
    6.8519    1.3376    0.8896 H   0  0  0  0  0  0  0  0  0  0  0  0
    6.8596    1.3657   -0.8707 H   0  0  0  0  0  0  0  0  0  0  0  0
    5.9425    2.5619    0.0250 H   0  0  0  0  0  0  0  0  0  0  0  0
    3.6297    2.2527    0.0206 H   0  0  0  0  0  0  0  0  0  0  0  0
    7.0612   -0.7319   -0.0376 H   0  0  0  0  0  0  0  0  0  0  0  0
    4.7205   -3.4472    0.7885 H   0  0  0  0  0  0  0  0  0  0  0  0
    3.2043   -3.5757   -0.0977 H   0  0  0  0  0  0  0  0  0  0  0  0
    4.7274   -3.4120   -0.9657 H   0  0  0  0  0  0  0  0  0  0  0  0
    1.8947   -1.6616   -0.0557 H   0  0  0  0  0  0  0  0  0  0  0  0
    1.3289    2.1198    0.0101 H   0  0  0  0  0  0  0  0  0  0  0  0
    0.0314   -0.6493   -0.0360 H   0  0  0  0  0  0  0  0  0  0  0  0
   -2.2398   -0.7710   -0.0814 H   0  0  0  0  0  0  0  0  0  0  0  0
   -0.4994    3.1440    0.0627 H   0  0  0  0  0  0  0  0  0  0  0  0
   -2.7416    4.1297    0.0638 H   0  0  0  0  0  0  0  0  0  0  0  0
   -4.7436    2.7118   -0.0050 H   0  0  0  0  0  0  0  0  0  0  0  0
   -5.6590    0.6948   -0.1076 H   0  0  0  0  0  0  0  0  0  0  0  0
   -7.1883   -0.8125   -0.1611 H   0  0  0  0  0  0  0  0  0  0  0  0
   -7.8663   -3.1444   -0.1904 H   0  0  0  0  0  0  0  0  0  0  0  0
   -6.1022   -3.6833   -0.1467 H   0  0  0  0  0  0  0  0  0  0  0  0
  5  4  1  0
  7  6  1  0
  4  6  1  0
  4  2  2  0
  1  2  1  0
  6  8  2  0
  2  3  1  0
  8  9  1  0
  3  9  2  0
  9 10  1  0
 10 11  2  0
 11 12  1  0
 12 14  1  0
 12 13  2  0
 14 15  2  0
 13 17  1  0
 20 19  2  0
 15 16  1  0
 17 16  2  0
 17 18  1  0
 19 18  1  0
 19 21  1  0
 22 21  2  0
  1 23  1  0
  1 24  1  0
  1 25  1  0
  3 26  1  0
  5 27  1  0
  7 28  1  0
  7 29  1  0
  7 30  1  0
  8 31  1  0
 10 32  1  0
 11 33  1  0
 13 34  1  0
 14 35  1  0
 15 36  1  0
 16 37  1  0
 18 38  1  0
 21 39  1  0
 22 40  1  0
 22 41  1  0
M  END
