
     RDKit          3D

 30 30  0  0  0  0  0  0  0  0999 V2000
   -0.4723   -0.1740    4.6263 C   0  0  0  0  0  0  0  0  0  0  0  0
    1.1352    1.3879    3.6655 N   0  0  0  0  0  0  0  0  0  0  0  0
   -1.7292   -0.0585   -4.6446 C   0  0  0  0  0  0  0  0  0  0  0  0
   -1.4944    0.2239   -3.3008 C   0  0  0  0  0  0  0  0  0  0  0  0
   -0.6657   -0.1092   -5.5462 C   0  0  0  0  0  0  0  0  0  0  0  0
    0.6350    0.1233   -5.1015 C   0  0  0  0  0  0  0  0  0  0  0  0
    0.8762    0.4065   -3.7580 C   0  0  0  0  0  0  0  0  0  0  0  0
   -0.1874    0.4583   -2.8505 C   0  0  0  0  0  0  0  0  0  0  0  0
    0.0601    0.7588   -1.4194 C   0  0  0  0  0  0  0  0  0  0  0  0
    0.8867   -1.4973   -0.5044 O   0  0  0  0  0  0  0  0  0  0  0  0
   -1.4520   -0.9963   -0.3039 O   0  0  0  0  0  0  0  0  0  0  0  0
   -0.1395   -0.5858   -0.4068 S   0  0  2  0  0  0  0  0  0  0  0  0
    0.1546    0.2246    1.0421 O   0  0  0  0  0  0  0  0  0  0  0  0
    0.1271   -0.4725    2.2640 C   0  0  0  0  0  0  0  0  0  0  0  0
   -0.0325    0.5839    3.3855 C   0  0  1  0  0  0  0  0  0  0  0  0
    0.1848   -0.9301    5.3435 O   0  0  0  0  0  0  0  0  0  0  0  0
   -1.7733    0.0373    4.9572 O   0  0  0  0  0  0  0  0  0  0  0  0
    1.8756    0.8259    4.0395 H   0  0  0  0  0  0  0  0  0  0  0  0
    1.4431    1.8281    2.8197 H   0  0  0  0  0  0  0  0  0  0  0  0
   -2.7566   -0.2416   -4.9924 H   0  0  0  0  0  0  0  0  0  0  0  0
   -2.3349    0.2638   -2.5893 H   0  0  0  0  0  0  0  0  0  0  0  0
   -0.8538   -0.3325   -6.6067 H   0  0  0  0  0  0  0  0  0  0  0  0
    1.4753    0.0840   -5.8102 H   0  0  0  0  0  0  0  0  0  0  0  0
    1.9057    0.5892   -3.4131 H   0  0  0  0  0  0  0  0  0  0  0  0
   -0.6300    1.5958   -1.1102 H   0  0  0  0  0  0  0  0  0  0  0  0
    1.0944    1.1911   -1.3029 H   0  0  0  0  0  0  0  0  0  0  0  0
    1.0922   -1.0366    2.3814 H   0  0  0  0  0  0  0  0  0  0  0  0
   -0.7454   -1.1808    2.2850 H   0  0  0  0  0  0  0  0  0  0  0  0
   -0.8608    1.2923    3.0799 H   0  0  0  0  0  0  0  0  0  0  0  0
   -1.9951   -0.4714    5.7552 H   0  0  0  0  0  0  0  0  0  0  0  0
  1 15  1  0
  1 16  2  0
  1 17  1  0
  2 15  1  0
  2 18  1  0
  2 19  1  0
  3  4  2  0
  3  5  1  0
  3 20  1  0
  4  8  1  0
  4 21  1  0
  5  6  2  0
  5 22  1  0
  6  7  1  0
  6 23  1  0
  7  8  2  0
  7 24  1  0
  8  9  1  0
  9 12  1  0
  9 25  1  0
  9 26  1  0
 10 12  2  0
 11 12  2  0
 12 13  1  1
 13 14  1  0
 14 15  1  0
 14 27  1  0
 14 28  1  0
 15 29  1  6
 17 30  1  0
M  END
