
     RDKit          3D

 50 52  0  0  0  0  0  0  0  0999 V2000
    0.2754   -1.7768    0.2024 N   0  0  0  0  0  0  0  0  0  0  0  0
   -1.0638   -1.7569    0.7971 C   0  0  2  0  0  0  0  0  0  0  0  0
   -1.1932   -3.2440    0.3600 C   0  0  1  0  0  0  0  0  0  0  0  0
    0.2230   -3.0889   -0.1674 C   0  0  0  0  0  0  0  0  0  0  0  0
    1.0349   -3.8160   -0.6866 O   0  0  0  0  0  0  0  0  0  0  0  0
    1.2482   -0.7855    0.1580 C   0  0  0  0  0  0  0  0  0  0  0  0
    0.9874    0.4213    0.7989 C   0  0  0  0  0  0  0  0  0  0  0  0
    1.9449    1.4312    0.7662 C   0  0  0  0  0  0  0  0  0  0  0  0
    3.1514    1.2395    0.0903 C   0  0  0  0  0  0  0  0  0  0  0  0
    3.3980    0.0165   -0.5400 C   0  0  0  0  0  0  0  0  0  0  0  0
    2.4478   -1.0014   -0.5158 C   0  0  0  0  0  0  0  0  0  0  0  0
   -2.0188   -0.7644    0.2070 C   0  0  0  0  0  0  0  0  0  0  0  0
   -2.0985   -0.5602   -1.1601 C   0  0  0  0  0  0  0  0  0  0  0  0
   -3.0019    0.3582   -1.6846 C   0  0  0  0  0  0  0  0  0  0  0  0
   -3.8379    1.0875   -0.8505 C   0  0  0  0  0  0  0  0  0  0  0  0
   -3.7594    0.8856    0.5379 C   0  0  0  0  0  0  0  0  0  0  0  0
   -2.8554   -0.0312    1.0467 C   0  0  0  0  0  0  0  0  0  0  0  0
   -4.5855    1.6189    1.3102 O   0  0  0  0  0  0  0  0  0  0  0  0
   -4.7399    2.0005   -1.2584 O   0  0  0  0  0  0  0  0  0  0  0  0
   -4.8701    2.2332   -2.6459 C   0  0  0  0  0  0  0  0  0  0  0  0
    4.0686    2.2416    0.0334 O   0  0  0  0  0  0  0  0  0  0  0  0
    5.0267    2.2186    1.0828 C   0  0  0  0  0  0  0  0  0  0  0  0
    4.5858   -0.0852   -1.1580 O   0  0  0  0  0  0  0  0  0  0  0  0
    4.8884   -1.2804   -1.8509 C   0  0  0  0  0  0  0  0  0  0  0  0
    1.7888    2.6288    1.3529 O   0  0  0  0  0  0  0  0  0  0  0  0
    0.5785    2.8940    2.0343 C   0  0  0  0  0  0  0  0  0  0  0  0
   -1.3897   -4.2754    1.4516 C   0  0  0  0  0  0  0  0  0  0  0  0
   -1.0240   -1.6500    1.8853 H   0  0  0  0  0  0  0  0  0  0  0  0
   -1.9203   -3.3773   -0.4451 H   0  0  0  0  0  0  0  0  0  0  0  0
    0.0465    0.5640    1.3104 H   0  0  0  0  0  0  0  0  0  0  0  0
    2.6298   -1.9460   -1.0048 H   0  0  0  0  0  0  0  0  0  0  0  0
   -1.4567   -1.1069   -1.8401 H   0  0  0  0  0  0  0  0  0  0  0  0
   -3.0388    0.4968   -2.7568 H   0  0  0  0  0  0  0  0  0  0  0  0
   -2.7964   -0.1753    2.1214 H   0  0  0  0  0  0  0  0  0  0  0  0
   -4.4457    1.4023    2.2387 H   0  0  0  0  0  0  0  0  0  0  0  0
   -5.6377    2.9943   -2.7615 H   0  0  0  0  0  0  0  0  0  0  0  0
   -3.9411    2.6011   -3.0893 H   0  0  0  0  0  0  0  0  0  0  0  0
   -5.1829    1.3341   -3.1835 H   0  0  0  0  0  0  0  0  0  0  0  0
    5.6708    3.0862    0.9494 H   0  0  0  0  0  0  0  0  0  0  0  0
    4.5538    2.2835    2.0658 H   0  0  0  0  0  0  0  0  0  0  0  0
    5.6434    1.3174    1.0496 H   0  0  0  0  0  0  0  0  0  0  0  0
    4.9165   -2.1449   -1.1831 H   0  0  0  0  0  0  0  0  0  0  0  0
    4.1745   -1.4774   -2.6544 H   0  0  0  0  0  0  0  0  0  0  0  0
    5.8755   -1.1423   -2.2848 H   0  0  0  0  0  0  0  0  0  0  0  0
   -0.2836    2.8596    1.3629 H   0  0  0  0  0  0  0  0  0  0  0  0
    0.4127    2.1985    2.8607 H   0  0  0  0  0  0  0  0  0  0  0  0
    0.6664    3.8997    2.4375 H   0  0  0  0  0  0  0  0  0  0  0  0
   -2.3903   -4.1976    1.8763 H   0  0  0  0  0  0  0  0  0  0  0  0
   -1.2739   -5.2831    1.0531 H   0  0  0  0  0  0  0  0  0  0  0  0
   -0.6681   -4.1437    2.2586 H   0  0  0  0  0  0  0  0  0  0  0  0
 18 16  1  0
 19 20  1  0
 19 15  1  0
 16 15  2  0
 16 17  1  0
 15 14  1  0
 17 12  2  0
 14 13  2  0
 12 13  1  0
 12  2  1  0
 27  3  1  0
  2  3  1  0
  2  1  1  0
 26 25  1  0
  3  4  1  0
  1  4  1  0
  1  6  1  0
  7  6  2  0
  7  8  1  0
 25  8  1  0
  4  5  2  0
  6 11  1  0
  8  9  2  0
 11 10  2  0
  9 10  1  0
  9 21  1  0
 10 23  1  0
 21 22  1  0
 23 24  1  0
  2 28  1  1
  3 29  1  6
  7 30  1  0
 11 31  1  0
 13 32  1  0
 14 33  1  0
 17 34  1  0
 18 35  1  0
 20 36  1  0
 20 37  1  0
 20 38  1  0
 22 39  1  0
 22 40  1  0
 22 41  1  0
 24 42  1  0
 24 43  1  0
 24 44  1  0
 26 45  1  0
 26 46  1  0
 26 47  1  0
 27 48  1  0
 27 49  1  0
 27 50  1  0
M  END
