
     RDKit          3D

 24 25  0  0  0  0  0  0  0  0999 V2000
    1.1236   -1.4522   -0.0139 C   0  0  0  0  0  0  0  0  0  0  0  0
   -0.2161   -1.7905   -0.0350 C   0  0  0  0  0  0  0  0  0  0  0  0
    0.5019    0.8678    0.0623 C   0  0  0  0  0  0  0  0  0  0  0  0
    1.4928   -0.1072    0.0362 C   0  0  0  0  0  0  0  0  0  0  0  0
   -1.2097   -0.8139   -0.0041 C   0  0  0  0  0  0  0  0  0  0  0  0
   -0.8468    0.5338    0.0412 C   0  0  0  0  0  0  0  0  0  0  0  0
    2.9084    0.3289    0.0572 C   0  0  0  0  0  0  0  0  0  0  0  0
   -1.8979    1.6118    0.0708 C   0  0  0  0  0  0  0  0  0  0  0  0
   -2.6583   -1.2174   -0.0621 C   0  0  0  0  0  0  0  0  0  0  0  0
   -3.2513    1.0776   -0.3659 C   0  0  0  0  0  0  0  0  0  0  0  0
   -3.5226   -0.1415    0.3731 N   0  0  0  0  0  0  0  0  0  0  0  0
    3.2579    1.4856    0.0935 O   0  0  0  0  0  0  0  0  0  0  0  0
    3.7663   -0.6827    0.0318 O   0  0  0  0  0  0  0  0  0  0  0  0
    1.8676   -2.2359   -0.0347 H   0  0  0  0  0  0  0  0  0  0  0  0
   -0.4983   -2.8363   -0.0723 H   0  0  0  0  0  0  0  0  0  0  0  0
    0.7826    1.9139    0.0958 H   0  0  0  0  0  0  0  0  0  0  0  0
   -2.8711   -1.5447   -1.0938 H   0  0  0  0  0  0  0  0  0  0  0  0
   -2.8198   -2.0895    0.5758 H   0  0  0  0  0  0  0  0  0  0  0  0
   -1.9769    2.0095    1.0871 H   0  0  0  0  0  0  0  0  0  0  0  0
   -1.5939    2.4460   -0.5652 H   0  0  0  0  0  0  0  0  0  0  0  0
    4.6743   -0.3452    0.0444 H   0  0  0  0  0  0  0  0  0  0  0  0
   -4.0290    1.8106   -0.1494 H   0  0  0  0  0  0  0  0  0  0  0  0
   -3.2515    0.9198   -1.4565 H   0  0  0  0  0  0  0  0  0  0  0  0
   -4.4865   -0.4192    0.2462 H   0  0  0  0  0  0  0  0  0  0  0  0
  1  2  2  0
  1  4  1  0
  2  5  1  0
  3  4  2  0
  3  6  1  0
  4  7  1  0
  5  6  2  0
  5  9  1  0
  6  8  1  0
  7 12  2  0
  7 13  1  0
  8 10  1  0
  9 11  1  0
 10 11  1  0
  1 14  1  0
  2 15  1  0
  3 16  1  0
  9 17  1  0
  9 18  1  0
  8 19  1  0
  8 20  1  0
 13 21  1  0
 10 22  1  0
 10 23  1  0
 11 24  1  0
M  END
