
     RDKit          3D

 65 70  0  0  0  0  0  0  0  0999 V2000
    3.9755    0.7270   -0.6190 C   0  0  0  0  0  0  0  0  0  0  0  0
    5.9759    2.0045   -0.1545 C   0  0  0  0  0  0  0  0  0  0  0  0
    7.6831    3.3133    0.2274 C   0  0  0  0  0  0  0  0  0  0  0  0
    6.7564    4.2746    0.0059 C   0  0  0  0  0  0  0  0  0  0  0  0
    3.4686   -0.7000   -0.8326 C   0  0  1  0  0  0  0  0  0  0  0  0
    1.1182   -0.3579   -0.1874 C   0  0  0  0  0  0  0  0  0  0  0  0
   -0.1743   -0.4198   -0.8988 C   0  0  0  0  0  0  0  0  0  0  0  0
   -1.4477   -0.2060   -0.4046 C   0  0  0  0  0  0  0  0  0  0  0  0
   -2.5332   -0.3261   -1.2727 C   0  0  0  0  0  0  0  0  0  0  0  0
   -3.9103   -0.1155   -0.7919 C   0  0  0  0  0  0  0  0  0  0  0  0
   -4.9858   -0.8417   -1.3094 C   0  0  0  0  0  0  0  0  0  0  0  0
   -6.2751   -0.6590   -0.8507 C   0  0  0  0  0  0  0  0  0  0  0  0
   -6.5687    0.2738    0.1588 C   0  0  0  0  0  0  0  0  0  0  0  0
   -8.0841    1.3231    1.7524 C   0  0  0  0  0  0  0  0  0  0  0  0
   -9.4443    1.0707    2.3923 C   0  0  0  0  0  0  0  0  0  0  0  0
  -10.2922    0.1941    0.3548 C   0  0  0  0  0  0  0  0  0  0  0  0
   -8.9540    0.4351   -0.3287 C   0  0  0  0  0  0  0  0  0  0  0  0
   -5.4904    1.0114    0.6686 C   0  0  0  0  0  0  0  0  0  0  0  0
   -4.1996    0.8110    0.2065 C   0  0  0  0  0  0  0  0  0  0  0  0
   -2.2847   -0.6557   -2.6148 C   0  0  0  0  0  0  0  0  0  0  0  0
   -1.0028   -0.8727   -3.1000 C   0  0  0  0  0  0  0  0  0  0  0  0
    0.0597   -0.7511   -2.2218 C   0  0  0  0  0  0  0  0  0  0  0  0
    1.5286   -0.9253   -2.4354 C   0  0  0  0  0  0  0  0  0  0  0  0
    3.8583   -1.6846    0.2516 C   0  0  0  0  0  0  0  0  0  0  0  0
    4.0565   -1.3025    1.5735 C   0  0  0  0  0  0  0  0  0  0  0  0
    4.3914   -2.2493    2.5183 C   0  0  0  0  0  0  0  0  0  0  0  0
    4.5287   -3.5831    2.1947 C   0  0  0  0  0  0  0  0  0  0  0  0
    4.3189   -3.9733    0.8821 C   0  0  0  0  0  0  0  0  0  0  0  0
    3.9799   -3.0363   -0.0892 C   0  0  0  0  0  0  0  0  0  0  0  0
    4.5821   -1.8582    3.7920 F   0  0  0  0  0  0  0  0  0  0  0  0
    5.2927    0.8194   -0.3035 N   0  0  0  0  0  0  0  0  0  0  0  0
    7.2359    2.0247    0.1362 N   0  0  0  0  0  0  0  0  0  0  0  0
    2.0606   -0.7003   -1.1046 N   0  0  0  0  0  0  0  0  0  0  0  0
   -7.8629    0.4168    0.6400 N   0  0  0  0  0  0  0  0  0  0  0  0
  -10.5537    1.0993    1.4583 N   0  0  0  0  0  0  0  0  0  0  0  0
    3.2849    1.7076   -0.7913 O   0  0  0  0  0  0  0  0  0  0  0  0
    1.3208   -0.0630    0.9757 O   0  0  0  0  0  0  0  0  0  0  0  0
    3.7513   -3.3795   -1.3714 O   0  0  0  0  0  0  0  0  0  0  0  0
    5.2301    3.5535   -0.3396 S   0  0  0  0  0  0  0  0  0  0  0  0
    8.7209    3.4976    0.4647 H   0  0  0  0  0  0  0  0  0  0  0  0
    6.8813    5.3453    0.0242 H   0  0  0  0  0  0  0  0  0  0  0  0
    3.9595   -1.0204   -1.7583 H   0  0  0  0  0  0  0  0  0  0  0  0
   -1.5951    0.0244    0.6436 H   0  0  0  0  0  0  0  0  0  0  0  0
   -4.8160   -1.5942   -2.0700 H   0  0  0  0  0  0  0  0  0  0  0  0
   -7.0558   -1.2805   -1.2677 H   0  0  0  0  0  0  0  0  0  0  0  0
   -8.0153    2.3761    1.4355 H   0  0  0  0  0  0  0  0  0  0  0  0
   -7.3162    1.1619    2.5104 H   0  0  0  0  0  0  0  0  0  0  0  0
   -9.4305    0.0903    2.8788 H   0  0  0  0  0  0  0  0  0  0  0  0
   -9.6083    1.8135    3.1749 H   0  0  0  0  0  0  0  0  0  0  0  0
  -11.0898    0.2815   -0.3847 H   0  0  0  0  0  0  0  0  0  0  0  0
  -10.3171   -0.8309    0.7373 H   0  0  0  0  0  0  0  0  0  0  0  0
   -8.8050   -0.3362   -1.0808 H   0  0  0  0  0  0  0  0  0  0  0  0
   -8.9793    1.4006   -0.8577 H   0  0  0  0  0  0  0  0  0  0  0  0
   -5.6431    1.7688    1.4240 H   0  0  0  0  0  0  0  0  0  0  0  0
   -3.4079    1.4242    0.6201 H   0  0  0  0  0  0  0  0  0  0  0  0
   -3.1169   -0.7271   -3.3036 H   0  0  0  0  0  0  0  0  0  0  0  0
   -0.8502   -1.1200   -4.1428 H   0  0  0  0  0  0  0  0  0  0  0  0
    1.7814   -1.9244   -2.7984 H   0  0  0  0  0  0  0  0  0  0  0  0
    1.9294   -0.1999   -3.1496 H   0  0  0  0  0  0  0  0  0  0  0  0
    3.9432   -0.2708    1.8783 H   0  0  0  0  0  0  0  0  0  0  0  0
    4.7914   -4.3128    2.9493 H   0  0  0  0  0  0  0  0  0  0  0  0
    4.4203   -5.0186    0.6155 H   0  0  0  0  0  0  0  0  0  0  0  0
    5.8446   -0.0188   -0.1768 H   0  0  0  0  0  0  0  0  0  0  0  0
  -10.6579    2.0409    1.0957 H   0  0  0  0  0  0  0  0  0  0  0  0
    3.8699   -4.3279   -1.4970 H   0  0  0  0  0  0  0  0  0  0  0  0
  4  3  2  0
  4 39  1  0
  3 32  1  0
 39  2  1  0
 32  2  2  0
  2 31  1  0
 31  1  1  0
 36  1  2  0
  1  5  1  0
 30 26  1  0
 25 26  2  0
 25 24  1  0
  5 33  1  0
  5 24  1  0
 37  6  2  0
 33  6  1  0
 33 23  1  0
 26 27  1  0
  6  7  1  0
 24 29  2  0
 23 22  1  0
  7 22  2  0
  7  8  1  0
 22 21  1  0
  8  9  2  0
 21 20  2  0
  9 20  1  0
  9 10  1  0
 27 28  2  0
 29 28  1  0
 29 38  1  0
 10 11  2  0
 10 19  1  0
 11 12  1  0
 19 18  2  0
 12 13  2  0
 18 13  1  0
 17 34  1  0
 17 16  1  0
 13 34  1  0
 14 34  1  0
 14 15  1  0
 35 16  1  0
 35 15  1  0
  3 40  1  0
  4 41  1  0
  5 42  1  6
  8 43  1  0
 11 44  1  0
 12 45  1  0
 14 46  1  0
 14 47  1  0
 15 48  1  0
 15 49  1  0
 16 50  1  0
 16 51  1  0
 17 52  1  0
 17 53  1  0
 18 54  1  0
 19 55  1  0
 20 56  1  0
 21 57  1  0
 23 58  1  0
 23 59  1  0
 25 60  1  0
 27 61  1  0
 28 62  1  0
 31 63  1  0
 35 64  1  0
 38 65  1  0
M  END
