
     RDKit          3D

 22 21  0  0  0  0  0  0  0  0999 V2000
   -0.4076    0.0470    4.6129 C   0  0  0  0  0  0  0  0  0  0  0  0
    0.4258   -0.0574    3.3436 C   0  0  0  0  0  0  0  0  0  0  0  0
   -0.4259   -0.0024    2.0815 C   0  0  0  0  0  0  0  0  0  0  0  0
    0.4118   -0.0951    0.8164 C   0  0  0  0  0  0  0  0  0  0  0  0
   -0.4325   -0.0338   -0.3570 N   0  0  0  0  0  0  0  0  0  0  0  0
    0.1225    0.0424   -1.6030 C   0  0  0  0  0  0  0  0  0  0  0  0
   -0.8511   -0.1227   -2.5995 N   0  0  0  0  0  0  0  0  0  0  0  0
    1.3702    0.2199   -1.7846 N   0  0  0  0  0  0  0  0  0  0  0  0
   -0.4204    0.2505   -3.8604 O   0  0  0  0  0  0  0  0  0  0  0  0
    0.2166    0.0101    5.5062 H   0  0  0  0  0  0  0  0  0  0  0  0
   -0.9673    0.9836    4.6392 H   0  0  0  0  0  0  0  0  0  0  0  0
   -1.1287   -0.7698    4.6798 H   0  0  0  0  0  0  0  0  0  0  0  0
    1.1612    0.7523    3.3199 H   0  0  0  0  0  0  0  0  0  0  0  0
    0.9993   -0.9893    3.3552 H   0  0  0  0  0  0  0  0  0  0  0  0
   -1.1546   -0.8205    2.1029 H   0  0  0  0  0  0  0  0  0  0  0  0
   -1.0028    0.9278    2.0662 H   0  0  0  0  0  0  0  0  0  0  0  0
    1.1177    0.7362    0.7790 H   0  0  0  0  0  0  0  0  0  0  0  0
    1.0127   -1.0136    0.8330 H   0  0  0  0  0  0  0  0  0  0  0  0
   -1.2884   -0.5652   -0.2932 H   0  0  0  0  0  0  0  0  0  0  0  0
   -1.7099    0.3750   -2.3939 H   0  0  0  0  0  0  0  0  0  0  0  0
    1.5684    0.3406   -2.7706 H   0  0  0  0  0  0  0  0  0  0  0  0
   -0.4137   -0.5665   -4.3709 H   0  0  0  0  0  0  0  0  0  0  0  0
  1  2  1  0
  1 10  1  0
  1 11  1  0
  1 12  1  0
  2  3  1  0
  2 13  1  0
  2 14  1  0
  3  4  1  0
  3 15  1  0
  3 16  1  0
  4  5  1  0
  4 17  1  0
  4 18  1  0
  5  6  1  0
  5 19  1  0
  6  7  1  0
  6  8  2  0
  7  9  1  0
  7 20  1  0
  8 21  1  0
  9 22  1  0
M  END
