
     RDKit          3D

 41 42  0  0  0  0  0  0  0  0999 V2000
   -1.9149   -1.6012   -0.1321 C   0  0  0  0  0  0  0  0  0  0  0  0
   -0.6756   -1.0495   -0.4586 C   0  0  0  0  0  0  0  0  0  0  0  0
    1.3566   -1.5933    0.8581 C   0  0  1  0  0  0  0  0  0  0  0  0
    1.1894   -2.9824    0.2639 C   0  0  0  0  0  0  0  0  0  0  0  0
    2.7125   -0.9878    0.4984 C   0  0  0  0  0  0  0  0  0  0  0  0
    3.9340    1.0585    0.3415 C   0  0  1  0  0  0  0  0  0  0  0  0
    4.2398    1.2169   -1.1356 C   0  0  0  0  0  0  0  0  0  0  0  0
    3.7322    2.3886    1.0366 C   0  0  0  0  0  0  0  0  0  0  0  0
   -2.3071   -1.8639    1.5286 Cl  0  0  0  0  0  0  0  0  0  0  0  0
   -0.3807   -0.8983   -1.8111 C   0  0  0  0  0  0  0  0  0  0  0  0
   -1.2796   -1.2581   -2.7997 C   0  0  0  0  0  0  0  0  0  0  0  0
   -2.5124   -1.7768   -2.4374 C   0  0  0  0  0  0  0  0  0  0  0  0
   -2.8379   -1.9522   -1.1027 C   0  0  0  0  0  0  0  0  0  0  0  0
    1.1455   -0.2411   -2.2642 Cl  0  0  0  0  0  0  0  0  0  0  0  0
    0.2438   -0.6900    0.5477 N   0  0  0  0  0  0  0  0  0  0  0  0
    3.6870   -1.6680    0.2894 O   0  0  0  0  0  0  0  0  0  0  0  0
    2.7027    0.3248    0.5280 O   0  0  0  0  0  0  0  0  0  0  0  0
   -0.0450    0.3032    1.4502 C   0  0  0  0  0  0  0  0  0  0  0  0
    0.4962    0.3746    2.5375 O   0  0  0  0  0  0  0  0  0  0  0  0
   -1.0336    1.3241    1.0795 C   0  0  0  0  0  0  0  0  0  0  0  0
   -1.3686    1.5593   -0.2071 O   0  0  0  0  0  0  0  0  0  0  0  0
   -2.2611    2.5596   -0.2160 C   0  0  0  0  0  0  0  0  0  0  0  0
   -2.5138    2.9835    1.0484 C   0  0  0  0  0  0  0  0  0  0  0  0
   -1.7059    2.1806    1.8958 C   0  0  0  0  0  0  0  0  0  0  0  0
    1.3803   -1.7107    1.9466 H   0  0  0  0  0  0  0  0  0  0  0  0
    0.2383   -3.4165    0.5684 H   0  0  0  0  0  0  0  0  0  0  0  0
    1.2452   -2.9945   -0.8238 H   0  0  0  0  0  0  0  0  0  0  0  0
    1.9765   -3.6286    0.6447 H   0  0  0  0  0  0  0  0  0  0  0  0
    4.7439    0.5103    0.8286 H   0  0  0  0  0  0  0  0  0  0  0  0
    3.4445    1.7628   -1.6447 H   0  0  0  0  0  0  0  0  0  0  0  0
    5.1628    1.7855   -1.2525 H   0  0  0  0  0  0  0  0  0  0  0  0
    4.3792    0.2566   -1.6311 H   0  0  0  0  0  0  0  0  0  0  0  0
    3.5025    2.2547    2.0936 H   0  0  0  0  0  0  0  0  0  0  0  0
    4.6435    2.9814    0.9632 H   0  0  0  0  0  0  0  0  0  0  0  0
    2.9225    2.9575    0.5768 H   0  0  0  0  0  0  0  0  0  0  0  0
   -1.0217   -1.1277   -3.8412 H   0  0  0  0  0  0  0  0  0  0  0  0
   -3.2237   -2.0531   -3.2036 H   0  0  0  0  0  0  0  0  0  0  0  0
   -3.7932   -2.3694   -0.8173 H   0  0  0  0  0  0  0  0  0  0  0  0
   -2.6275    2.8712   -1.1807 H   0  0  0  0  0  0  0  0  0  0  0  0
   -3.1894    3.7712    1.3384 H   0  0  0  0  0  0  0  0  0  0  0  0
   -1.6382    2.2258    2.9703 H   0  0  0  0  0  0  0  0  0  0  0  0
  7  6  1  0
  6  8  1  0
  6 17  1  0
 16  5  2  0
  9  1  1  0
  5 17  1  0
  5  3  1  0
  4  3  1  0
  1 13  2  0
  1  2  1  0
  3 15  1  0
 13 12  1  0
 19 18  2  0
 15 18  1  0
 15  2  1  0
 18 20  1  0
  2 10  2  0
 20 21  1  0
 20 24  2  0
 21 22  1  0
 24 23  1  0
 12 11  2  0
 22 23  2  0
 10 11  1  0
 10 14  1  0
  3 25  1  1
  4 26  1  0
  4 27  1  0
  4 28  1  0
  6 29  1  1
  7 30  1  0
  7 31  1  0
  7 32  1  0
  8 33  1  0
  8 34  1  0
  8 35  1  0
 11 36  1  0
 12 37  1  0
 13 38  1  0
 22 39  1  0
 23 40  1  0
 24 41  1  0
M  END
