
     RDKit          3D

 37 37  0  0  0  0  0  0  0  0999 V2000
   -0.7466    3.2858    0.8553 O   0  0  0  0  0  0  0  0  0  0  0  0
   -0.2619    2.2590   -0.0510 S   0  0  1  0  0  0  0  0  0  0  0  0
    0.1286    2.6048   -1.4068 O   0  0  0  0  0  0  0  0  0  0  0  0
    1.0469    1.5837    0.6759 N   0  0  0  0  0  0  0  0  0  0  0  0
    1.7292    0.4669    0.0276 C   0  0  0  0  0  0  0  0  0  0  0  0
    3.0317    0.1810    0.7644 C   0  0  0  0  0  0  0  0  0  0  0  0
    3.6757   -0.9919    0.2067 N   0  0  0  0  0  0  0  0  0  0  0  0
    5.1282   -0.9148    0.2486 C   0  0  0  0  0  0  0  0  0  0  0  0
    5.6989    0.0549   -0.7734 C   0  0  0  0  0  0  0  0  0  0  0  0
   -1.4963    0.9889   -0.1516 C   0  0  0  0  0  0  0  0  0  0  0  0
   -1.5592    0.1746   -1.2744 C   0  0  0  0  0  0  0  0  0  0  0  0
   -2.4916   -0.8494   -1.3242 C   0  0  0  0  0  0  0  0  0  0  0  0
   -3.3476   -1.0382   -0.2499 C   0  0  0  0  0  0  0  0  0  0  0  0
   -3.2918   -0.2234    0.8723 C   0  0  0  0  0  0  0  0  0  0  0  0
   -2.3573    0.7966    0.9212 C   0  0  0  0  0  0  0  0  0  0  0  0
    3.1668   -2.2225    0.7971 C   0  0  0  0  0  0  0  0  0  0  0  0
    3.3107   -3.4239   -0.1218 C   0  0  0  0  0  0  0  0  0  0  0  0
   -4.5115   -2.3119   -0.3105 Cl  0  0  0  0  0  0  0  0  0  0  0  0
    0.8875    1.4429    1.6689 H   0  0  0  0  0  0  0  0  0  0  0  0
    1.0991   -0.4293    0.0014 H   0  0  0  0  0  0  0  0  0  0  0  0
    1.9612    0.7413   -1.0002 H   0  0  0  0  0  0  0  0  0  0  0  0
    3.6803    1.0512    0.6572 H   0  0  0  0  0  0  0  0  0  0  0  0
    2.8402    0.0717    1.8443 H   0  0  0  0  0  0  0  0  0  0  0  0
    5.4933   -0.6575    1.2564 H   0  0  0  0  0  0  0  0  0  0  0  0
    5.5263   -1.9074    0.0312 H   0  0  0  0  0  0  0  0  0  0  0  0
    3.6473   -2.4304    1.7670 H   0  0  0  0  0  0  0  0  0  0  0  0
    2.1055   -2.0864    1.0156 H   0  0  0  0  0  0  0  0  0  0  0  0
    6.7887    0.0351   -0.7428 H   0  0  0  0  0  0  0  0  0  0  0  0
    5.3816   -0.2173   -1.7803 H   0  0  0  0  0  0  0  0  0  0  0  0
    5.3895    1.0850   -0.5911 H   0  0  0  0  0  0  0  0  0  0  0  0
   -2.3184    1.4352    1.7931 H   0  0  0  0  0  0  0  0  0  0  0  0
   -0.8981    0.3289   -2.1162 H   0  0  0  0  0  0  0  0  0  0  0  0
   -3.9702   -0.3775    1.6998 H   0  0  0  0  0  0  0  0  0  0  0  0
   -2.5486   -1.4880   -2.1946 H   0  0  0  0  0  0  0  0  0  0  0  0
    2.8774   -4.3097    0.3434 H   0  0  0  0  0  0  0  0  0  0  0  0
    2.7934   -3.2483   -1.0655 H   0  0  0  0  0  0  0  0  0  0  0  0
    4.3526   -3.6539   -0.3468 H   0  0  0  0  0  0  0  0  0  0  0  0
  3  2  2  0
  2  1  2  0
  2  4  1  1
  2 10  1  0
  4  5  1  0
  5  6  1  0
  6  7  1  0
  7  8  1  0
  7 16  1  0
  8  9  1  0
 10 15  2  0
 10 11  1  0
 15 14  1  0
 14 13  2  0
 13 12  1  0
 13 18  1  0
 12 11  2  0
 16 17  1  0
  4 19  1  0
  5 20  1  0
  5 21  1  0
  6 22  1  0
  6 23  1  0
  8 24  1  0
  8 25  1  0
 16 26  1  0
 16 27  1  0
  9 28  1  0
  9 29  1  0
  9 30  1  0
 15 31  1  0
 11 32  1  0
 14 33  1  0
 12 34  1  0
 17 35  1  0
 17 36  1  0
 17 37  1  0
M  END
