
     RDKit          3D

  8  7  0  0  0  0  0  0  0  0999 V2000
    1.6105    0.1120   -0.0106 C   0  0  0  0  0  0  0  0  0  0  0  0
    1.4765    1.3041   -0.0311 O   0  0  0  0  0  0  0  0  0  0  0  0
    0.4967   -0.9087   -0.0236 C   0  0  0  0  0  0  0  0  0  0  0  0
    2.7763   -0.5145    0.0273 O   0  0  0  0  0  0  0  0  0  0  0  0
   -1.2442   -0.0724   -0.0851 Br  0  0  0  0  0  0  0  0  0  0  0  0
    0.5989   -1.5604   -0.8923 H   0  0  0  0  0  0  0  0  0  0  0  0
    0.5511   -1.5313    0.8706 H   0  0  0  0  0  0  0  0  0  0  0  0
    3.5034    0.1268    0.0327 H   0  0  0  0  0  0  0  0  0  0  0  0
  2  1  2  0
  4  1  1  0
  1  3  1  0
  3  5  1  0
  3  6  1  0
  3  7  1  0
  4  8  1  0
M  END
