
     RDKit          3D

 77 80  0  0  0  0  0  0  0  0999 V2000
    0.3521    0.8051   -4.3770 C   0  0  1  0  0  0  0  0  0  0  0  0
    0.1877   -0.5628   -3.6915 C   0  0  2  0  0  0  0  0  0  0  0  0
   -0.9093   -1.3400   -4.4345 C   0  0  0  0  0  0  0  0  0  0  0  0
   -2.2254   -0.5875   -4.5508 C   0  0  1  0  0  0  0  0  0  0  0  0
   -2.0337    0.7770   -5.2160 C   0  0  1  0  0  0  0  0  0  0  0  0
   -0.9707    1.5800   -4.4846 C   0  0  0  0  0  0  0  0  0  0  0  0
   -0.1792   -0.3586   -2.1984 C   0  0  1  0  0  0  0  0  0  0  0  0
    1.5023   -1.3358   -3.8529 C   0  0  0  0  0  0  0  0  0  0  0  0
   -0.2733   -1.6874   -1.4227 C   0  0  0  0  0  0  0  0  0  0  0  0
    0.6988    0.6714   -1.5310 C   0  0  0  0  0  0  0  0  0  0  0  0
   -0.3326   -1.5686    0.1011 C   0  0  0  0  0  0  0  0  0  0  0  0
    0.5862    0.7339   -0.0282 C   0  0  2  0  0  0  0  0  0  0  0  0
    0.7712   -0.6530    0.6312 C   0  0  2  0  0  0  0  0  0  0  0  0
    2.1469   -1.2096    0.2404 C   0  0  0  0  0  0  0  0  0  0  0  0
    0.6920   -0.2566    2.1297 C   0  0  1  0  0  0  0  0  0  0  0  0
   -0.7475    1.1581    0.2379 O   0  0  0  0  0  0  0  0  0  0  0  0
    1.5552    1.6189    0.7428 C   0  0  0  0  0  0  0  0  0  0  0  0
    1.1149   -1.2535    3.2346 C   0  0  2  0  0  0  0  0  0  0  0  0
    1.4470    1.0988    2.1875 C   0  0  0  0  0  0  0  0  0  0  0  0
    0.8906   -0.5920    4.6312 C   0  0  2  0  0  0  0  0  0  0  0  0
    2.4807   -1.6171    3.1432 O   0  0  0  0  0  0  0  0  0  0  0  0
    0.3385   -2.5624    3.1398 C   0  0  0  0  0  0  0  0  0  0  0  0
    1.3667    1.6699   -3.6736 C   0  0  0  0  0  0  0  0  0  0  0  0
    1.4129    1.5747   -2.2172 C   0  0  0  0  0  0  0  0  0  0  0  0
   -1.6413    0.6348   -6.5632 O   0  0  0  0  0  0  0  0  0  0  0  0
   -3.1088   -1.3923   -5.3110 O   0  0  0  0  0  0  0  0  0  0  0  0
    1.4596   -1.3780    5.6582 O   0  0  0  0  0  0  0  0  0  0  0  0
   -0.5614   -0.2438    4.9514 C   0  0  0  0  0  0  0  0  0  0  0  0
   -0.7097    0.5337    6.2552 C   0  0  0  0  0  0  0  0  0  0  0  0
   -2.1559    0.7620    6.6964 C   0  0  1  0  0  0  0  0  0  0  0  0
   -2.1869    1.4781    8.0432 C   0  0  0  0  0  0  0  0  0  0  0  0
   -2.9658    1.5391    5.6630 C   0  0  0  0  0  0  0  0  0  0  0  0
    2.0609    2.4665   -4.2819 O   0  0  0  0  0  0  0  0  0  0  0  0
    0.7212    0.6383   -5.3941 H   0  0  0  0  0  0  0  0  0  0  0  0
   -1.0824   -2.3048   -3.9508 H   0  0  0  0  0  0  0  0  0  0  0  0
   -0.5410   -1.5696   -5.4398 H   0  0  0  0  0  0  0  0  0  0  0  0
   -2.6411   -0.4141   -3.5483 H   0  0  0  0  0  0  0  0  0  0  0  0
   -2.9851    1.3295   -5.1539 H   0  0  0  0  0  0  0  0  0  0  0  0
   -1.3540    1.8458   -3.4956 H   0  0  0  0  0  0  0  0  0  0  0  0
   -0.8035    2.5252   -5.0068 H   0  0  0  0  0  0  0  0  0  0  0  0
   -1.1856    0.0755   -2.1519 H   0  0  0  0  0  0  0  0  0  0  0  0
    1.7984   -1.3431   -4.9038 H   0  0  0  0  0  0  0  0  0  0  0  0
    2.3247   -0.8952   -3.2872 H   0  0  0  0  0  0  0  0  0  0  0  0
    1.4078   -2.3754   -3.5410 H   0  0  0  0  0  0  0  0  0  0  0  0
    0.5676   -2.3316   -1.6812 H   0  0  0  0  0  0  0  0  0  0  0  0
   -1.1645   -2.2159   -1.7653 H   0  0  0  0  0  0  0  0  0  0  0  0
   -0.2317   -2.5748    0.5085 H   0  0  0  0  0  0  0  0  0  0  0  0
   -1.3109   -1.2055    0.4218 H   0  0  0  0  0  0  0  0  0  0  0  0
    2.3044   -1.1770   -0.8386 H   0  0  0  0  0  0  0  0  0  0  0  0
    2.9682   -0.6592    0.6947 H   0  0  0  0  0  0  0  0  0  0  0  0
    2.2503   -2.2483    0.5493 H   0  0  0  0  0  0  0  0  0  0  0  0
   -0.3631   -0.0461    2.3108 H   0  0  0  0  0  0  0  0  0  0  0  0
   -0.8193    2.0846   -0.0164 H   0  0  0  0  0  0  0  0  0  0  0  0
    1.3062    2.6788    0.6529 H   0  0  0  0  0  0  0  0  0  0  0  0
    2.5725    1.5064    0.3662 H   0  0  0  0  0  0  0  0  0  0  0  0
    0.9208    1.8082    2.8264 H   0  0  0  0  0  0  0  0  0  0  0  0
    2.4486    0.9975    2.6101 H   0  0  0  0  0  0  0  0  0  0  0  0
    1.4751    0.3366    4.6429 H   0  0  0  0  0  0  0  0  0  0  0  0
    3.0254   -0.8396    3.3035 H   0  0  0  0  0  0  0  0  0  0  0  0
   -0.7290   -2.3884    3.0100 H   0  0  0  0  0  0  0  0  0  0  0  0
    0.6821   -3.1599    2.2967 H   0  0  0  0  0  0  0  0  0  0  0  0
    0.4690   -3.1786    4.0318 H   0  0  0  0  0  0  0  0  0  0  0  0
    2.0244    2.3090   -1.7040 H   0  0  0  0  0  0  0  0  0  0  0  0
   -2.1818   -0.0649   -6.9482 H   0  0  0  0  0  0  0  0  0  0  0  0
   -3.9945   -1.0197   -5.2450 H   0  0  0  0  0  0  0  0  0  0  0  0
    0.8635   -2.1077    5.8545 H   0  0  0  0  0  0  0  0  0  0  0  0
   -1.1584   -1.1635    4.9974 H   0  0  0  0  0  0  0  0  0  0  0  0
   -0.9879    0.3409    4.1349 H   0  0  0  0  0  0  0  0  0  0  0  0
   -0.2116    1.5056    6.1515 H   0  0  0  0  0  0  0  0  0  0  0  0
   -0.1845    0.0069    7.0561 H   0  0  0  0  0  0  0  0  0  0  0  0
   -2.6241   -0.2216    6.8264 H   0  0  0  0  0  0  0  0  0  0  0  0
   -3.2092    1.5995    8.4061 H   0  0  0  0  0  0  0  0  0  0  0  0
   -1.6282    0.9282    8.8029 H   0  0  0  0  0  0  0  0  0  0  0  0
   -1.7449    2.4747    7.9641 H   0  0  0  0  0  0  0  0  0  0  0  0
   -2.4890    2.4958    5.4340 H   0  0  0  0  0  0  0  0  0  0  0  0
   -3.0752    0.9923    4.7260 H   0  0  0  0  0  0  0  0  0  0  0  0
   -3.9703    1.7516    6.0332 H   0  0  0  0  0  0  0  0  0  0  0  0
  1  2  1  0
  1  6  1  0
  1 23  1  0
  1 34  1  6
  2  3  1  0
  2  7  1  0
  2  8  1  1
  3  4  1  0
  3 35  1  0
  3 36  1  0
  4  5  1  0
  4 26  1  0
  4 37  1  1
  5  6  1  0
  5 25  1  0
  5 38  1  6
  6 39  1  0
  6 40  1  0
  7  9  1  0
  7 10  1  0
  7 41  1  6
  8 42  1  0
  8 43  1  0
  8 44  1  0
  9 11  1  0
  9 45  1  0
  9 46  1  0
 10 12  1  0
 10 24  2  0
 11 13  1  0
 11 47  1  0
 11 48  1  0
 12 13  1  0
 12 16  1  6
 12 17  1  0
 13 14  1  1
 13 15  1  0
 14 49  1  0
 14 50  1  0
 14 51  1  0
 15 18  1  0
 15 19  1  0
 15 52  1  1
 16 53  1  0
 17 19  1  0
 17 54  1  0
 17 55  1  0
 18 20  1  0
 18 21  1  6
 18 22  1  0
 19 56  1  0
 19 57  1  0
 20 27  1  0
 20 28  1  0
 20 58  1  6
 21 59  1  0
 22 60  1  0
 22 61  1  0
 22 62  1  0
 23 24  1  0
 23 33  2  0
 24 63  1  0
 25 64  1  0
 26 65  1  0
 27 66  1  0
 28 29  1  0
 28 67  1  0
 28 68  1  0
 29 30  1  0
 29 69  1  0
 29 70  1  0
 30 31  1  0
 30 32  1  0
 30 71  1  1
 31 72  1  0
 31 73  1  0
 31 74  1  0
 32 75  1  0
 32 76  1  0
 32 77  1  0
M  END
