
     RDKit          3D

 69 74  0  0  0  0  0  0  0  0999 V2000
   -6.1009   -2.2638    0.8037 O   0  0  0  0  0  0  0  0  0  0  0  0
   -6.6746   -1.2414    0.4934 C   0  0  0  0  0  0  0  0  0  0  0  0
   -6.1542   -0.0055    0.8661 N   0  0  0  0  0  0  0  0  0  0  0  0
   -4.9322   -0.0034    1.6565 C   0  0  0  0  0  0  0  0  0  0  0  0
   -6.6759    1.2286    0.4892 C   0  0  0  0  0  0  0  0  0  0  0  0
   -6.1015    2.2525    0.7932 O   0  0  0  0  0  0  0  0  0  0  0  0
   -7.9302    1.2161   -0.2767 C   0  0  0  0  0  0  0  0  0  0  0  0
   -8.5239   -0.0092   -0.6385 C   0  0  0  0  0  0  0  0  0  0  0  0
   -7.9270   -1.2327   -0.2757 C   0  0  0  0  0  0  0  0  0  0  0  0
   -8.5131   -2.4226   -0.6427 C   0  0  0  0  0  0  0  0  0  0  0  0
   -9.7094   -2.4291   -1.3759 C   0  0  0  0  0  0  0  0  0  0  0  0
  -10.3041   -1.2490   -1.7401 C   0  0  0  0  0  0  0  0  0  0  0  0
   -9.7265   -0.0112   -1.3820 C   0  0  0  0  0  0  0  0  0  0  0  0
  -10.3081    1.2248   -1.7399 C   0  0  0  0  0  0  0  0  0  0  0  0
   -9.7169    2.4068   -1.3760 C   0  0  0  0  0  0  0  0  0  0  0  0
   -8.5201    2.4041   -0.6436 C   0  0  0  0  0  0  0  0  0  0  0  0
   -3.7131   -0.0034    0.7456 C   0  0  0  0  0  0  0  0  0  0  0  0
   -2.4674   -0.0003    1.5561 N   0  0  0  0  0  0  0  0  0  0  0  0
   -1.2319   -0.0005    0.7281 C   0  0  0  0  0  0  0  0  0  0  0  0
    0.0045    0.0003    1.6072 C   0  0  0  0  0  0  0  0  0  0  0  0
    1.2389   -0.0001    0.7254 C   0  0  0  0  0  0  0  0  0  0  0  0
    2.4762   -0.0019    1.5505 N   0  0  0  0  0  0  0  0  0  0  0  0
    3.7202   -0.0019    0.7371 C   0  0  0  0  0  0  0  0  0  0  0  0
    6.6767   -1.2400    0.4684 C   0  0  0  0  0  0  0  0  0  0  0  0
    6.1611   -0.0051    0.8511 N   0  0  0  0  0  0  0  0  0  0  0  0
    4.9416   -0.0054    1.6450 C   0  0  0  0  0  0  0  0  0  0  0  0
    6.6876    1.2299    0.4842 C   0  0  0  0  0  0  0  0  0  0  0  0
    6.1189    2.2538    0.7990 O   0  0  0  0  0  0  0  0  0  0  0  0
    7.9400    1.2186   -0.2851 C   0  0  0  0  0  0  0  0  0  0  0  0
    8.5306   -0.0061   -0.6539 C   0  0  0  0  0  0  0  0  0  0  0  0
    7.9306   -1.2301   -0.2983 C   0  0  0  0  0  0  0  0  0  0  0  0
    8.5147   -2.4193   -0.6703 C   0  0  0  0  0  0  0  0  0  0  0  0
    9.7116   -2.4246   -1.4027 C   0  0  0  0  0  0  0  0  0  0  0  0
   10.3083   -1.2440   -1.7616 C   0  0  0  0  0  0  0  0  0  0  0  0
    9.7330   -0.0068   -1.3978 C   0  0  0  0  0  0  0  0  0  0  0  0
   10.3168    1.2298   -1.7501 C   0  0  0  0  0  0  0  0  0  0  0  0
    9.7283    2.4111   -1.3799 C   0  0  0  0  0  0  0  0  0  0  0  0
    8.5323    2.4072   -0.6461 C   0  0  0  0  0  0  0  0  0  0  0  0
   -4.9327    0.8757    2.2967 H   0  0  0  0  0  0  0  0  0  0  0  0
   -4.9309   -0.8813    2.2985 H   0  0  0  0  0  0  0  0  0  0  0  0
   -8.0531   -3.3614   -0.3660 H   0  0  0  0  0  0  0  0  0  0  0  0
  -10.1584   -3.3732   -1.6513 H   0  0  0  0  0  0  0  0  0  0  0  0
  -11.2254   -1.2547   -2.3091 H   0  0  0  0  0  0  0  0  0  0  0  0
  -11.2298    1.2279   -2.3083 H   0  0  0  0  0  0  0  0  0  0  0  0
  -10.1689    3.3494   -1.6515 H   0  0  0  0  0  0  0  0  0  0  0  0
   -8.0627    3.3444   -0.3676 H   0  0  0  0  0  0  0  0  0  0  0  0
   -3.6829   -0.8910    0.1171 H   0  0  0  0  0  0  0  0  0  0  0  0
   -3.6851    0.8816    0.1134 H   0  0  0  0  0  0  0  0  0  0  0  0
   -2.4616    0.8164    2.1713 H   0  0  0  0  0  0  0  0  0  0  0  0
   -2.4595   -0.8147    2.1744 H   0  0  0  0  0  0  0  0  0  0  0  0
   -1.2740   -0.8862    0.0968 H   0  0  0  0  0  0  0  0  0  0  0  0
   -1.2743    0.8844    0.0957 H   0  0  0  0  0  0  0  0  0  0  0  0
    0.0051    0.8841    2.2495 H   0  0  0  0  0  0  0  0  0  0  0  0
    0.0053   -0.8827    2.2506 H   0  0  0  0  0  0  0  0  0  0  0  0
    1.2791   -0.8851    0.0927 H   0  0  0  0  0  0  0  0  0  0  0  0
    1.2805    0.8857    0.0939 H   0  0  0  0  0  0  0  0  0  0  0  0
    2.4717    0.8126    2.1688 H   0  0  0  0  0  0  0  0  0  0  0  0
    2.4708   -0.8184    2.1660 H   0  0  0  0  0  0  0  0  0  0  0  0
    3.6884   -0.8869    0.1053 H   0  0  0  0  0  0  0  0  0  0  0  0
    3.6910    0.8856    0.1085 H   0  0  0  0  0  0  0  0  0  0  0  0
    4.9438    0.8720    2.2878 H   0  0  0  0  0  0  0  0  0  0  0  0
    4.9418   -0.8855    2.2841 H   0  0  0  0  0  0  0  0  0  0  0  0
    8.0527   -3.3586   -0.3983 H   0  0  0  0  0  0  0  0  0  0  0  0
   10.1593   -3.3683   -1.6815 H   0  0  0  0  0  0  0  0  0  0  0  0
   11.2294   -1.2488   -2.3309 H   0  0  0  0  0  0  0  0  0  0  0  0
   11.2378    1.2338   -2.3197 H   0  0  0  0  0  0  0  0  0  0  0  0
   10.1820    3.3543   -1.6506 H   0  0  0  0  0  0  0  0  0  0  0  0
    8.0770    3.3470   -0.3648 H   0  0  0  0  0  0  0  0  0  0  0  0
    6.0982   -2.2624    0.7695 O   0  0  0  0  0  0  0  0  0  0  0  0
  1  2  2  0
  2  3  1  0
  2  9  1  0
  3  4  1  0
  3  5  1  0
  4 17  1  0
  4 39  1  0
  4 40  1  0
  5  6  2  0
  5  7  1  0
  7  8  1  0
  7 16  2  0
  8  9  2  0
  8 13  1  0
  9 10  1  0
 10 11  2  0
 10 41  1  0
 11 12  1  0
 11 42  1  0
 12 13  2  0
 12 43  1  0
 13 14  1  0
 14 15  2  0
 14 44  1  0
 15 16  1  0
 15 45  1  0
 16 46  1  0
 17 18  1  0
 17 47  1  0
 17 48  1  0
 18 19  1  0
 18 49  1  0
 18 50  1  0
 19 20  1  0
 19 51  1  0
 19 52  1  0
 20 21  1  0
 20 53  1  0
 20 54  1  0
 21 22  1  0
 21 55  1  0
 21 56  1  0
 22 23  1  0
 22 57  1  0
 22 58  1  0
 23 26  1  0
 23 59  1  0
 23 60  1  0
 69 24  2  0
 24 25  1  0
 24 31  1  0
 25 26  1  0
 25 27  1  0
 26 61  1  0
 26 62  1  0
 27 28  2  0
 27 29  1  0
 29 30  1  0
 29 38  2  0
 30 31  2  0
 30 35  1  0
 31 32  1  0
 32 33  2  0
 32 63  1  0
 33 34  1  0
 33 64  1  0
 34 35  2  0
 34 65  1  0
 35 36  1  0
 36 37  2  0
 36 66  1  0
 37 38  1  0
 37 67  1  0
 38 68  1  0
M  CHG  2  18   1  22   1
M  END
