
     RDKit          3D

 27 29  0  0  0  0  0  0  0  0999 V2000
    3.3927   -1.8738   -0.8245 C   0  0  0  0  0  0  0  0  0  0  0  0
    2.1979   -1.2205   -0.6319 C   0  0  0  0  0  0  0  0  0  0  0  0
    2.2232    0.0382   -0.0288 C   0  0  0  0  0  0  0  0  0  0  0  0
    3.4427    0.5968    0.3291 C   0  0  0  0  0  0  0  0  0  0  0  0
    4.6644   -0.0293    0.1511 C   0  0  0  0  0  0  0  0  0  0  0  0
    4.6180   -1.2878   -0.4334 C   0  0  0  0  0  0  0  0  0  0  0  0
    5.7834   -1.9171   -0.6329 O   0  0  0  0  0  0  0  0  0  0  0  0
    3.2424    1.8255    0.8269 O   0  0  0  0  0  0  0  0  0  0  0  0
    1.8966    2.0930    0.8126 N   0  0  0  0  0  0  0  0  0  0  0  0
    1.2804    1.0532    0.3284 C   0  0  0  0  0  0  0  0  0  0  0  0
   -0.1643    1.0720    0.1207 C   0  0  0  0  0  0  0  0  0  0  0  0
   -0.9080   -0.0873    0.3272 C   0  0  0  0  0  0  0  0  0  0  0  0
   -2.2620   -0.1306    0.0658 C   0  0  0  0  0  0  0  0  0  0  0  0
   -2.9188    1.0114   -0.4024 C   0  0  0  0  0  0  0  0  0  0  0  0
   -2.1908    2.1792   -0.5900 C   0  0  0  0  0  0  0  0  0  0  0  0
   -0.8271    2.2268   -0.3273 C   0  0  0  0  0  0  0  0  0  0  0  0
   -0.2147    3.4015   -0.5043 O   0  0  0  0  0  0  0  0  0  0  0  0
   -4.2345    0.9477   -0.6241 O   0  0  0  0  0  0  0  0  0  0  0  0
   -3.2314   -1.7219    0.3226 Br  0  0  0  0  0  0  0  0  0  0  0  0
    3.4004   -2.8448   -1.3054 H   0  0  0  0  0  0  0  0  0  0  0  0
    1.2762   -1.6742   -0.9691 H   0  0  0  0  0  0  0  0  0  0  0  0
    5.6017    0.4295    0.4358 H   0  0  0  0  0  0  0  0  0  0  0  0
    5.6460   -2.7627   -1.0747 H   0  0  0  0  0  0  0  0  0  0  0  0
   -0.4111   -0.9706    0.7042 H   0  0  0  0  0  0  0  0  0  0  0  0
   -2.7045    3.0949   -0.8597 H   0  0  0  0  0  0  0  0  0  0  0  0
    0.7263    3.3349   -0.2806 H   0  0  0  0  0  0  0  0  0  0  0  0
   -4.5240    1.6847   -1.1749 H   0  0  0  0  0  0  0  0  0  0  0  0
  1  2  2  0
  1  6  1  0
  2  3  1  0
  3  4  2  0
  3 10  1  0
  4  5  1  0
  4  8  1  0
  5  6  2  0
  6  7  1  0
  8  9  1  0
  9 10  2  0
 10 11  1  0
 11 12  2  0
 11 16  1  0
 12 13  1  0
 13 14  2  0
 13 19  1  0
 14 15  1  0
 14 18  1  0
 15 16  2  0
 16 17  1  0
  1 20  1  0
  2 21  1  0
  5 22  1  0
  7 23  1  0
 12 24  1  0
 15 25  1  0
 17 26  1  0
 18 27  1  0
M  END
