
     RDKit          3D

 16 15  0  0  0  0  0  0  0  0999 V2000
   -2.2676   -1.0470   -0.6883 O   0  0  0  0  0  0  0  0  0  0  0  0
   -1.8415   -0.1709    0.1967 C   0  0  0  0  0  0  0  0  0  0  0  0
   -2.4302    0.1698    1.1841 O   0  0  0  0  0  0  0  0  0  0  0  0
   -0.4937    0.4629   -0.2333 C   0  0  1  0  0  0  0  0  0  0  0  0
   -0.6238    1.0680   -1.4744 O   0  0  0  0  0  0  0  0  0  0  0  0
   -0.0793    1.3861    0.6837 O   0  0  0  0  0  0  0  0  0  0  0  0
    0.6292   -0.6003   -0.2362 C   0  0  1  0  0  0  0  0  0  0  0  0
    0.4838   -1.3732    0.8653 F   0  0  0  0  0  0  0  0  0  0  0  0
    0.5143   -1.4078   -1.3098 F   0  0  0  0  0  0  0  0  0  0  0  0
    2.0209    0.0459   -0.2661 C   0  0  0  0  0  0  0  0  0  0  0  0
    2.6320   -0.0492    0.8901 O   0  0  0  0  0  0  0  0  0  0  0  0
    2.4569    0.5379   -1.2677 O   0  0  0  0  0  0  0  0  0  0  0  0
   -3.1361   -1.4015   -0.4380 H   0  0  0  0  0  0  0  0  0  0  0  0
   -1.0060    0.4700   -2.1294 H   0  0  0  0  0  0  0  0  0  0  0  0
   -0.7964    1.9904    0.9196 H   0  0  0  0  0  0  0  0  0  0  0  0
    3.5033    0.3778    0.8457 H   0  0  0  0  0  0  0  0  0  0  0  0
  2  1  1  0
  1 13  1  0
  4  2  1  0
  3  2  2  0
  4  5  1  6
  6  4  1  0
  4  7  1  0
  5 14  1  0
  6 15  1  0
 10  7  1  0
  7  9  1  6
  7  8  1  0
 12 10  2  0
 10 11  1  0
 11 16  1  0
M  END
