
     RDKit          3D

 61 64  0  0  0  0  0  0  0  0999 V2000
   -0.7579    0.0273   -0.7381 C   0  0  0  0  0  0  0  0  0  0  0  0
   -0.1716   -0.2118    0.6480 C   0  0  0  0  0  0  0  0  0  0  0  0
    2.1438    0.6316    0.5876 C   0  0  0  0  0  0  0  0  0  0  0  0
    3.5279    0.3634    0.5524 C   0  0  0  0  0  0  0  0  0  0  0  0
    3.1582   -1.8751    0.4868 C   0  0  0  0  0  0  0  0  0  0  0  0
    3.6782   -3.2605    0.4277 C   0  0  0  0  0  0  0  0  0  0  0  0
    1.3152   -3.9690    0.3935 C   0  0  0  0  0  0  0  0  0  0  0  0
    1.7263   -1.7086    0.5098 C   0  0  0  0  0  0  0  0  0  0  0  0
    4.4432    1.4299    0.5539 C   0  0  0  0  0  0  0  0  0  0  0  0
    4.0267    2.7358    0.5774 C   0  0  0  0  0  0  0  0  0  0  0  0
    5.0147    3.8610    0.5752 C   0  0  0  0  0  0  0  0  0  0  0  0
    2.6322    3.0013    0.5969 C   0  0  0  0  0  0  0  0  0  0  0  0
    2.1458    4.4155    0.6040 C   0  0  0  0  0  0  0  0  0  0  0  0
    1.2731   -0.4329    0.6001 N   0  0  0  0  0  0  0  0  0  0  0  0
   -2.3489    2.5446   -0.9195 C   0  0  0  0  0  0  0  0  0  0  0  0
   -6.6425   -1.9142    1.2314 O   0  0  0  0  0  0  0  0  0  0  0  0
   -2.3659    2.8242    0.4465 C   0  0  0  0  0  0  0  0  0  0  0  0
    1.7196    1.9648    0.6046 C   0  0  0  0  0  0  0  0  0  0  0  0
   -2.7670    1.1858   -1.4240 C   0  0  0  0  0  0  0  0  0  0  0  0
   -6.5952   -4.0022    0.4541 O   0  0  0  0  0  0  0  0  0  0  0  0
   -6.0988   -2.7750    0.5850 C   0  0  0  0  0  0  0  0  0  0  0  0
   -4.8072   -2.6120   -0.1655 C   0  0  0  0  0  0  0  0  0  0  0  0
   -4.1654   -1.2463    0.0113 C   0  0  0  0  0  0  0  0  0  0  0  0
   -2.8628   -1.1599   -0.7715 C   0  0  0  0  0  0  0  0  0  0  0  0
   -2.1978    0.1221   -0.6234 N   0  0  0  0  0  0  0  0  0  0  0  0
   -1.9527    3.5447   -1.8008 C   0  0  0  0  0  0  0  0  0  0  0  0
   -1.5917    4.8033   -1.3337 C   0  0  0  0  0  0  0  0  0  0  0  0
   -1.6160    5.0739    0.0269 C   0  0  0  0  0  0  0  0  0  0  0  0
   -2.0019    4.0777    0.9169 C   0  0  0  0  0  0  0  0  0  0  0  0
    4.0014   -0.9012    0.5112 N   0  0  0  0  0  0  0  0  0  0  0  0
    0.8687   -2.6889    0.4578 N   0  0  0  0  0  0  0  0  0  0  0  0
    2.6940   -4.2009    0.3844 N   0  0  0  0  0  0  0  0  0  0  0  0
    4.8585   -3.5306    0.4174 O   0  0  0  0  0  0  0  0  0  0  0  0
   -0.3554    0.9552   -1.1507 H   0  0  0  0  0  0  0  0  0  0  0  0
   -0.4437   -0.7707   -1.4236 H   0  0  0  0  0  0  0  0  0  0  0  0
   -0.3777    0.6304    1.3044 H   0  0  0  0  0  0  0  0  0  0  0  0
   -0.6184   -1.0914    1.1033 H   0  0  0  0  0  0  0  0  0  0  0  0
    5.4979    1.1844    0.5318 H   0  0  0  0  0  0  0  0  0  0  0  0
    4.8889    4.5016   -0.2996 H   0  0  0  0  0  0  0  0  0  0  0  0
    4.8972    4.4979    1.4537 H   0  0  0  0  0  0  0  0  0  0  0  0
    6.0360    3.4855    0.5691 H   0  0  0  0  0  0  0  0  0  0  0  0
    2.5160    4.9615   -0.2659 H   0  0  0  0  0  0  0  0  0  0  0  0
    1.0585    4.4688    0.5946 H   0  0  0  0  0  0  0  0  0  0  0  0
    2.5043    4.9491    1.4866 H   0  0  0  0  0  0  0  0  0  0  0  0
   -2.6618    2.0483    1.1417 H   0  0  0  0  0  0  0  0  0  0  0  0
    0.6670    2.2126    0.6134 H   0  0  0  0  0  0  0  0  0  0  0  0
   -3.8563    1.1133   -1.3698 H   0  0  0  0  0  0  0  0  0  0  0  0
   -2.5114    1.0931   -2.4916 H   0  0  0  0  0  0  0  0  0  0  0  0
   -7.4269   -4.0744    0.9456 H   0  0  0  0  0  0  0  0  0  0  0  0
   -4.1230   -3.4046    0.1540 H   0  0  0  0  0  0  0  0  0  0  0  0
   -5.0053   -2.8102   -1.2241 H   0  0  0  0  0  0  0  0  0  0  0  0
   -4.8616   -0.4706   -0.3154 H   0  0  0  0  0  0  0  0  0  0  0  0
   -3.9548   -1.0568    1.0657 H   0  0  0  0  0  0  0  0  0  0  0  0
   -2.1862   -1.9339   -0.3990 H   0  0  0  0  0  0  0  0  0  0  0  0
   -3.0435   -1.4029   -1.8315 H   0  0  0  0  0  0  0  0  0  0  0  0
   -1.9210    3.3384   -2.8646 H   0  0  0  0  0  0  0  0  0  0  0  0
   -1.2860    5.5699   -2.0344 H   0  0  0  0  0  0  0  0  0  0  0  0
   -1.3290    6.0513    0.3931 H   0  0  0  0  0  0  0  0  0  0  0  0
   -2.0205    4.2786    1.9807 H   0  0  0  0  0  0  0  0  0  0  0  0
    2.9843   -5.1706    0.3404 H   0  0  0  0  0  0  0  0  0  0  0  0
    0.5643   -4.9234    0.3441 O   0  0  0  0  0  0  0  0  0  0  0  0
 11 10  1  0
 10  9  2  0
 10 12  1  0
 13 12  1  0
  9  4  1  0
 12 18  2  0
  4 30  1  0
  4  3  2  0
 18  3  1  0
 30  5  2  0
  3 14  1  0
 33  6  2  0
  5  6  1  0
  5  8  1  0
  6 32  1  0
 14  8  1  0
 14  2  1  0
  8 31  2  0
  2  1  1  0
 32  7  1  0
  1 25  1  0
 31  7  1  0
 17 29  2  0
 17 15  1  0
 29 28  1  0
  7 61  2  0
 19 25  1  0
 19 15  1  0
 23 22  1  0
 23 24  1  0
 22 21  1  0
 25 24  1  0
 15 26  2  0
 28 27  2  0
 16 21  2  0
 21 20  1  0
 26 27  1  0
  1 34  1  0
  1 35  1  0
  2 36  1  0
  2 37  1  0
  9 38  1  0
 11 39  1  0
 11 40  1  0
 11 41  1  0
 13 42  1  0
 13 43  1  0
 13 44  1  0
 17 45  1  0
 18 46  1  0
 19 47  1  0
 19 48  1  0
 20 49  1  0
 22 50  1  0
 22 51  1  0
 23 52  1  0
 23 53  1  0
 24 54  1  0
 24 55  1  0
 26 56  1  0
 27 57  1  0
 28 58  1  0
 29 59  1  0
 32 60  1  0
M  END
