
     RDKit          3D

 50 50  0  0  0  0  0  0  0  0999 V2000
   10.0140   -0.3340    0.0265 C   0  0  0  0  0  0  0  0  0  0  0  0
   -1.3130   -0.0563    1.0225 C   0  0  0  0  0  0  0  0  0  0  0  0
   -2.3612   -0.5302    0.3468 C   0  0  0  0  0  0  0  0  0  0  0  0
   -6.0261    1.6251   -0.0863 C   0  0  0  0  0  0  0  0  0  0  0  0
   -3.6265    1.5832    0.1507 C   0  0  0  0  0  0  0  0  0  0  0  0
   -0.0112   -0.7723    1.1687 C   0  0  0  0  0  0  0  0  0  0  0  0
    6.1607    0.1501   -0.3122 C   0  0  0  0  0  0  0  0  0  0  0  0
    7.5010   -0.3674    0.1932 C   0  0  0  0  0  0  0  0  0  0  0  0
    2.4817   -0.6801    0.6885 C   0  0  0  0  0  0  0  0  0  0  0  0
    4.9821   -0.5398    0.3632 C   0  0  0  0  0  0  0  0  0  0  0  0
   -4.8145    2.2951    0.0291 C   0  0  0  0  0  0  0  0  0  0  0  0
   -6.0420    0.2367   -0.0643 C   0  0  0  0  0  0  0  0  0  0  0  0
   -3.6321    0.1922    0.1717 C   0  0  0  0  0  0  0  0  0  0  0  0
   -4.8553   -0.4947    0.0662 C   0  0  0  0  0  0  0  0  0  0  0  0
    8.7119    0.2682   -0.4825 C   0  0  1  0  0  0  0  0  0  0  0  0
    3.6214    0.0036   -0.0612 C   0  0  1  0  0  0  0  0  0  0  0  0
   -5.7082   -2.4542    1.0223 O   0  0  0  0  0  0  0  0  0  0  0  0
   -7.1868   -0.4491   -0.2066 O   0  0  0  0  0  0  0  0  0  0  0  0
    3.4385   -0.0607   -1.4645 O   0  0  0  0  0  0  0  0  0  0  0  0
   -4.3000   -2.6927   -0.6850 O   0  0  0  0  0  0  0  0  0  0  0  0
    8.7132    1.6803   -0.3550 O   0  0  0  0  0  0  0  0  0  0  0  0
   10.0438   -1.4093   -0.1541 H   0  0  0  0  0  0  0  0  0  0  0  0
   10.8764    0.1132   -0.4691 H   0  0  0  0  0  0  0  0  0  0  0  0
   10.1215   -0.1787    1.1033 H   0  0  0  0  0  0  0  0  0  0  0  0
   -1.3724    0.9181    1.5010 H   0  0  0  0  0  0  0  0  0  0  0  0
   -2.2820   -1.5171   -0.0922 H   0  0  0  0  0  0  0  0  0  0  0  0
   -6.9517    2.1779   -0.2116 H   0  0  0  0  0  0  0  0  0  0  0  0
   -2.6928    2.1266    0.2108 H   0  0  0  0  0  0  0  0  0  0  0  0
    0.2461   -0.8346    2.2315 H   0  0  0  0  0  0  0  0  0  0  0  0
   -0.1025   -1.7984    0.8031 H   0  0  0  0  0  0  0  0  0  0  0  0
    0.9000   -0.0589   -0.6446 H   0  0  0  0  0  0  0  0  0  0  0  0
    1.1424    0.9976    0.7310 H   0  0  0  0  0  0  0  0  0  0  0  0
    6.0928    1.2283   -0.1409 H   0  0  0  0  0  0  0  0  0  0  0  0
    6.1029    0.0064   -1.3950 H   0  0  0  0  0  0  0  0  0  0  0  0
    7.5729   -0.2174    1.2781 H   0  0  0  0  0  0  0  0  0  0  0  0
    7.5544   -1.4502    0.0389 H   0  0  0  0  0  0  0  0  0  0  0  0
    2.6928   -0.6365    1.7618 H   0  0  0  0  0  0  0  0  0  0  0  0
    2.4628   -1.7455    0.4279 H   0  0  0  0  0  0  0  0  0  0  0  0
    5.0220   -1.6195    0.1707 H   0  0  0  0  0  0  0  0  0  0  0  0
    5.0700   -0.4265    1.4487 H   0  0  0  0  0  0  0  0  0  0  0  0
    8.6386    0.0833   -1.5595 H   0  0  0  0  0  0  0  0  0  0  0  0
    3.5941    1.0737    0.1772 H   0  0  0  0  0  0  0  0  0  0  0  0
   -5.7454   -3.4215    0.9664 H   0  0  0  0  0  0  0  0  0  0  0  0
   -5.6095    4.0260   -0.0975 H   0  0  0  0  0  0  0  0  0  0  0  0
   -7.9329    0.1536   -0.3052 H   0  0  0  0  0  0  0  0  0  0  0  0
    3.4807   -0.9868   -1.7273 H   0  0  0  0  0  0  0  0  0  0  0  0
    8.7467    1.8931    0.5840 H   0  0  0  0  0  0  0  0  0  0  0  0
    1.1180   -0.0539    0.4258 C   0  0  0  0  0  0  0  0  0  0  0  0
   -4.7353    3.6347    0.0113 O   0  0  0  0  0  0  0  0  0  0  0  0
   -4.9131   -1.9803    0.0735 C   0  0  0  0  0  0  0  0  0  0  0  0
 20 50  2  0
 18 12  1  0
 50 17  1  0
 50 14  1  0
 12 14  1  0
 12  4  2  0
 14 13  2  0
  4 11  1  0
 13  3  1  0
 13  5  1  0
 11  5  2  0
 11 49  1  0
  3  2  2  0
  2  6  1  0
  6 48  1  0
 48  9  1  0
  9 16  1  0
 16 10  1  0
 16 19  1  0
 10  7  1  0
 15  1  1  0
 15  8  1  0
 15 21  1  0
  7  8  1  0
  1 22  1  0
  1 23  1  0
  1 24  1  0
  2 25  1  0
  3 26  1  0
  4 27  1  0
  5 28  1  0
  6 29  1  0
  6 30  1  0
 48 31  1  0
 48 32  1  0
  7 33  1  0
  7 34  1  0
  8 35  1  0
  8 36  1  0
  9 37  1  0
  9 38  1  0
 10 39  1  0
 10 40  1  0
 15 41  1  6
 16 42  1  1
 17 43  1  0
 49 44  1  0
 18 45  1  0
 19 46  1  0
 21 47  1  0
M  END
