
     RDKit          3D

 24 25  0  0  0  0  0  0  0  0999 V2000
    3.4629   -0.5743    0.0879 N   0  0  0  0  0  0  0  0  0  0  0  0
    4.3235    0.4033    0.1275 N   0  0  0  0  0  0  0  0  0  0  0  0
    3.7952    1.5882    0.1146 N   0  0  0  0  0  0  0  0  0  0  0  0
    2.5172    1.4105    0.0654 N   0  0  0  0  0  0  0  0  0  0  0  0
    2.3173    0.0800    0.0492 C   0  0  0  0  0  0  0  0  0  0  0  0
    1.0048   -0.5553   -0.0084 C   0  0  0  0  0  0  0  0  0  0  0  0
   -0.1393    0.2286   -0.0886 C   0  0  0  0  0  0  0  0  0  0  0  0
    0.8855   -1.9444    0.0097 C   0  0  0  0  0  0  0  0  0  0  0  0
   -0.3648   -2.5361   -0.0498 C   0  0  0  0  0  0  0  0  0  0  0  0
   -1.5080   -1.7555   -0.1211 C   0  0  0  0  0  0  0  0  0  0  0  0
   -1.3949   -0.3679   -0.1341 C   0  0  0  0  0  0  0  0  0  0  0  0
   -2.5719    0.5262   -0.2351 C   0  0  0  0  0  0  0  0  0  0  0  0
   -2.5241    1.6634   -0.6570 O   0  0  0  0  0  0  0  0  0  0  0  0
   -3.7620   -0.0205    0.1587 N   0  0  0  0  0  0  0  0  0  0  0  0
   -4.8711    0.8211    0.1452 N   0  0  0  0  0  0  0  0  0  0  0  0
    5.3248    0.2588    0.1596 H   0  0  0  0  0  0  0  0  0  0  0  0
   -0.0542    1.3068   -0.1073 H   0  0  0  0  0  0  0  0  0  0  0  0
    1.7688   -2.5663    0.0672 H   0  0  0  0  0  0  0  0  0  0  0  0
   -0.4518   -3.6136   -0.0481 H   0  0  0  0  0  0  0  0  0  0  0  0
   -2.4703   -2.2452   -0.1902 H   0  0  0  0  0  0  0  0  0  0  0  0
   -3.8414   -0.8102    0.7828 H   0  0  0  0  0  0  0  0  0  0  0  0
   -5.1888    1.0553    1.0890 H   0  0  0  0  0  0  0  0  0  0  0  0
   -4.6016    1.6970   -0.3221 H   0  0  0  0  0  0  0  0  0  0  0  0
   -5.6498    0.4055   -0.3699 H   0  0  0  0  0  0  0  0  0  0  0  0
  2  3  1  0
  2  1  1  0
 13 12  2  0
  3  4  2  0
  1  5  2  0
 12 11  1  0
 12 14  1  0
  7 11  2  0
  7  6  1  0
  4  5  1  0
  5  6  1  0
 15 14  1  0
 11 10  1  0
  6  8  2  0
 10  9  2  0
  8  9  1  0
  2 16  1  0
  7 17  1  0
  8 18  1  0
  9 19  1  0
 10 20  1  0
 14 21  1  0
 15 22  1  0
 15 23  1  0
 15 24  1  0
M  CHG  1  15   1
M  END
