
     RDKit          3D

 52 54  0  0  0  0  0  0  0  0999 V2000
    6.8729   -0.3827   -0.1290 C   0  0  0  0  0  0  0  0  0  0  0  0
    8.0291    0.2252    0.3266 C   0  0  0  0  0  0  0  0  0  0  0  0
    7.9625    1.5165    0.8169 C   0  0  0  0  0  0  0  0  0  0  0  0
    9.0883    2.1131    1.2546 F   0  0  0  0  0  0  0  0  0  0  0  0
    6.7694    2.2021    0.8620 C   0  0  0  0  0  0  0  0  0  0  0  0
    5.6098    1.5775    0.4170 C   0  0  0  0  0  0  0  0  0  0  0  0
    5.6350    0.2758   -0.0928 C   0  0  0  0  0  0  0  0  0  0  0  0
    4.4947   -0.3647   -0.5877 N   0  0  0  0  0  0  0  0  0  0  0  0
    3.2965    0.4356   -0.7383 C   0  0  0  0  0  0  0  0  0  0  0  0
    2.2736   -0.2997   -1.5915 C   0  0  0  0  0  0  0  0  0  0  0  0
    4.2051   -1.6877   -0.0370 C   0  0  0  0  0  0  0  0  0  0  0  0
    3.1835   -2.4128   -0.8951 C   0  0  0  0  0  0  0  0  0  0  0  0
    1.9854   -1.6035   -1.0323 N   0  0  0  0  0  0  0  0  0  0  0  0
    0.8119   -1.9806   -0.4784 C   0  0  0  0  0  0  0  0  0  0  0  0
    0.6768   -3.0674    0.0696 O   0  0  0  0  0  0  0  0  0  0  0  0
   -0.3468   -1.0063   -0.5797 C   0  0  0  0  0  0  0  0  0  0  0  0
   -1.6138   -1.5850    0.0220 C   0  0  0  0  0  0  0  0  0  0  0  0
   -2.7946   -0.6489   -0.1007 C   0  0  0  0  0  0  0  0  0  0  0  0
   -2.8239    0.3043   -0.8539 O   0  0  0  0  0  0  0  0  0  0  0  0
   -3.8364   -1.0022    0.7064 N   0  0  0  0  0  0  0  0  0  0  0  0
   -5.1087   -0.4435    0.8212 C   0  0  0  0  0  0  0  0  0  0  0  0
   -5.5515    0.6585    0.0934 C   0  0  0  0  0  0  0  0  0  0  0  0
   -5.9802   -1.0449    1.7339 C   0  0  0  0  0  0  0  0  0  0  0  0
   -7.2603   -0.5584    1.9129 C   0  0  0  0  0  0  0  0  0  0  0  0
   -7.7084    0.5285    1.1774 C   0  0  0  0  0  0  0  0  0  0  0  0
   -6.8513    1.1276    0.2616 C   0  0  0  0  0  0  0  0  0  0  0  0
   -7.2668    2.3082   -0.5594 C   0  0  0  0  0  0  0  0  0  0  0  0
   -6.4521    3.1166   -0.9753 O   0  0  0  0  0  0  0  0  0  0  0  0
   -8.5869    2.4214   -0.7924 N   0  0  0  0  0  0  0  0  0  0  0  0
    6.9436   -1.3817   -0.5395 H   0  0  0  0  0  0  0  0  0  0  0  0
    8.9752   -0.2990    0.2822 H   0  0  0  0  0  0  0  0  0  0  0  0
    6.7277    3.2107    1.2530 H   0  0  0  0  0  0  0  0  0  0  0  0
    4.6830    2.1298    0.4847 H   0  0  0  0  0  0  0  0  0  0  0  0
    2.8395    0.6878    0.2317 H   0  0  0  0  0  0  0  0  0  0  0  0
    3.5454    1.3726   -1.2388 H   0  0  0  0  0  0  0  0  0  0  0  0
    1.3741    0.3029   -1.6740 H   0  0  0  0  0  0  0  0  0  0  0  0
    2.6718   -0.4312   -2.6020 H   0  0  0  0  0  0  0  0  0  0  0  0
    5.1138   -2.2857   -0.0118 H   0  0  0  0  0  0  0  0  0  0  0  0
    3.8305   -1.6064    0.9922 H   0  0  0  0  0  0  0  0  0  0  0  0
    3.5982   -2.5959   -1.8905 H   0  0  0  0  0  0  0  0  0  0  0  0
    2.9393   -3.3709   -0.4462 H   0  0  0  0  0  0  0  0  0  0  0  0
   -0.0835   -0.0780   -0.0665 H   0  0  0  0  0  0  0  0  0  0  0  0
   -0.5111   -0.7383   -1.6255 H   0  0  0  0  0  0  0  0  0  0  0  0
   -1.8883   -2.5229   -0.4700 H   0  0  0  0  0  0  0  0  0  0  0  0
   -1.4568   -1.8372    1.0734 H   0  0  0  0  0  0  0  0  0  0  0  0
   -3.6807   -1.8108    1.2870 H   0  0  0  0  0  0  0  0  0  0  0  0
   -4.9005    1.1490   -0.6105 H   0  0  0  0  0  0  0  0  0  0  0  0
   -5.6525   -1.9016    2.3106 H   0  0  0  0  0  0  0  0  0  0  0  0
   -7.9126   -1.0304    2.6341 H   0  0  0  0  0  0  0  0  0  0  0  0
   -8.7067    0.9066    1.3509 H   0  0  0  0  0  0  0  0  0  0  0  0
   -9.2275    1.6674   -0.6240 H   0  0  0  0  0  0  0  0  0  0  0  0
   -8.9176    3.1640   -1.3840 H   0  0  0  0  0  0  0  0  0  0  0  0
 29 27  1  0
 28 27  2  0
 27 26  1  0
 26 22  2  0
 26 25  1  0
 22 21  1  0
 25 24  2  0
 20 21  1  0
 20 18  1  0
 21 23  2  0
 17 18  1  0
 17 16  1  0
 18 19  2  0
 16 14  1  0
 24 23  1  0
 15 14  2  0
 14 13  1  0
 13 12  1  0
 13 10  1  0
 12 11  1  0
 10  9  1  0
 11  8  1  0
  9  8  1  0
  8  7  1  0
  1  7  2  0
  1  2  1  0
  7  6  1  0
  2  3  2  0
  6  5  2  0
  3  5  1  0
  3  4  1  0
  1 30  1  0
  2 31  1  0
  5 32  1  0
  6 33  1  0
  9 34  1  0
  9 35  1  0
 10 36  1  0
 10 37  1  0
 11 38  1  0
 11 39  1  0
 12 40  1  0
 12 41  1  0
 16 42  1  0
 16 43  1  0
 17 44  1  0
 17 45  1  0
 20 46  1  0
 22 47  1  0
 23 48  1  0
 24 49  1  0
 25 50  1  0
 29 51  1  0
 29 52  1  0
M  END
