
     RDKit          3D

 23 22  0  0  0  0  0  0  0  0999 V2000
   -1.7146   -0.6139   -1.3094 N   0  0  0  0  0  0  0  0  0  0  0  0
   -0.5381    0.2117   -1.1923 C   0  0  1  0  0  0  0  0  0  0  0  0
    0.4129   -0.0869   -0.0170 C   0  0  0  0  0  0  0  0  0  0  0  0
   -0.2811    0.1161    1.3174 C   0  0  0  0  0  0  0  0  0  0  0  0
   -1.4855    0.4456    1.3550 O   0  0  0  0  0  0  0  0  0  0  0  0
    0.4326   -0.0656    2.5012 N   0  0  0  0  0  0  0  0  0  0  0  0
   -0.1960    0.1187    3.7832 C   0  0  0  0  0  0  0  0  0  0  0  0
    1.8178   -0.4437    2.5165 C   0  0  0  0  0  0  0  0  0  0  0  0
    0.3048    0.0794   -2.4550 C   0  0  0  0  0  0  0  0  0  0  0  0
    0.7548   -0.9404   -2.9822 O   0  0  0  0  0  0  0  0  0  0  0  0
    0.5773    1.2686   -3.0537 O   0  0  0  0  0  0  0  0  0  0  0  0
   -1.4928   -1.5832   -1.1941 H   0  0  0  0  0  0  0  0  0  0  0  0
   -2.4009   -0.3317   -0.6346 H   0  0  0  0  0  0  0  0  0  0  0  0
   -0.8859    1.2862   -1.1029 H   0  0  0  0  0  0  0  0  0  0  0  0
    1.2974    0.5985   -0.1020 H   0  0  0  0  0  0  0  0  0  0  0  0
    0.7809   -1.1457   -0.0898 H   0  0  0  0  0  0  0  0  0  0  0  0
    0.1969   -0.6440    4.5078 H   0  0  0  0  0  0  0  0  0  0  0  0
    0.0324    1.1438    4.1809 H   0  0  0  0  0  0  0  0  0  0  0  0
   -1.3094   -0.0033    3.7069 H   0  0  0  0  0  0  0  0  0  0  0  0
    1.9645   -1.4337    2.0067 H   0  0  0  0  0  0  0  0  0  0  0  0
    2.4525    0.3249    1.9968 H   0  0  0  0  0  0  0  0  0  0  0  0
    2.1754   -0.5359    3.5759 H   0  0  0  0  0  0  0  0  0  0  0  0
    1.1151    1.1197   -3.8494 H   0  0  0  0  0  0  0  0  0  0  0  0
  1  2  1  0
  1 12  1  0
  1 13  1  0
  2  3  1  0
  2  9  1  0
  2 14  1  1
  3  4  1  0
  3 15  1  0
  3 16  1  0
  4  5  2  0
  4  6  1  0
  6  7  1  0
  6  8  1  0
  7 17  1  0
  7 18  1  0
  7 19  1  0
  8 20  1  0
  8 21  1  0
  8 22  1  0
  9 10  2  0
  9 11  1  0
 11 23  1  0
M  END
