
     RDKit          3D

 42 44  0  0  0  0  0  0  0  0999 V2000
   -2.4844   -1.3894    0.1287 C   0  0  0  0  0  0  0  0  0  0  0  0
   -3.3704   -2.0556    0.9692 C   0  0  0  0  0  0  0  0  0  0  0  0
   -4.6706   -1.6009    1.0992 C   0  0  0  0  0  0  0  0  0  0  0  0
   -5.1359   -0.4734    0.4249 C   0  0  0  0  0  0  0  0  0  0  0  0
   -4.2267    0.1615   -0.4166 C   0  0  0  0  0  0  0  0  0  0  0  0
   -2.9259   -0.2832   -0.5894 C   0  0  0  0  0  0  0  0  0  0  0  0
   -6.5395    0.0142    0.6038 C   0  0  0  0  0  0  0  0  0  0  0  0
   -1.1754   -1.8683   -0.0043 N   0  0  0  0  0  0  0  0  0  0  0  0
   -0.0421   -1.1405    0.0098 C   0  0  0  0  0  0  0  0  0  0  0  0
   -0.0129    0.5734    0.2467 S   0  0  0  0  0  0  0  0  0  0  0  0
    1.7263    0.5091    0.1790 C   0  0  0  0  0  0  0  0  0  0  0  0
    2.1332   -0.7908    0.0019 C   0  0  0  0  0  0  0  0  0  0  0  0
    1.1327   -1.7012   -0.1041 N   0  0  0  0  0  0  0  0  0  0  0  0
    3.5140   -1.2915   -0.0903 C   0  0  0  0  0  0  0  0  0  0  0  0
    4.4922   -0.9138    0.8268 C   0  0  0  0  0  0  0  0  0  0  0  0
    5.7722   -1.4404    0.7398 C   0  0  0  0  0  0  0  0  0  0  0  0
    6.0914   -2.3429   -0.2667 C   0  0  0  0  0  0  0  0  0  0  0  0
    5.1184   -2.7295   -1.1794 C   0  0  0  0  0  0  0  0  0  0  0  0
    3.8337   -2.2161   -1.0845 C   0  0  0  0  0  0  0  0  0  0  0  0
    2.4867    1.7513    0.1638 C   0  0  0  0  0  0  0  0  0  0  0  0
    3.6793    1.8475   -0.0040 O   0  0  0  0  0  0  0  0  0  0  0  0
    1.6751    2.7893    0.3431 O   0  0  0  0  0  0  0  0  0  0  0  0
    2.2409    4.1088    0.3175 C   0  0  0  0  0  0  0  0  0  0  0  0
    1.1109    5.0963    0.4773 C   0  0  0  0  0  0  0  0  0  0  0  0
   -4.7329    1.5533   -1.3189 Cl  0  0  0  0  0  0  0  0  0  0  0  0
   -3.0410   -2.9239    1.5253 H   0  0  0  0  0  0  0  0  0  0  0  0
   -5.3460   -2.1275    1.7615 H   0  0  0  0  0  0  0  0  0  0  0  0
   -2.2815    0.2143   -1.3016 H   0  0  0  0  0  0  0  0  0  0  0  0
   -6.5627    1.0415    0.9698 H   0  0  0  0  0  0  0  0  0  0  0  0
   -7.0953   -0.0045   -0.3350 H   0  0  0  0  0  0  0  0  0  0  0  0
   -7.0724   -0.6087    1.3196 H   0  0  0  0  0  0  0  0  0  0  0  0
   -1.0363   -2.8666    0.0682 H   0  0  0  0  0  0  0  0  0  0  0  0
    4.2520   -0.2268    1.6265 H   0  0  0  0  0  0  0  0  0  0  0  0
    6.5214   -1.1477    1.4637 H   0  0  0  0  0  0  0  0  0  0  0  0
    7.0923   -2.7490   -0.3346 H   0  0  0  0  0  0  0  0  0  0  0  0
    5.3572   -3.4345   -1.9650 H   0  0  0  0  0  0  0  0  0  0  0  0
    3.0758   -2.5274   -1.7916 H   0  0  0  0  0  0  0  0  0  0  0  0
    2.9677    4.2107    1.1258 H   0  0  0  0  0  0  0  0  0  0  0  0
    2.7629    4.2660   -0.6281 H   0  0  0  0  0  0  0  0  0  0  0  0
    0.3903    5.0134   -0.3358 H   0  0  0  0  0  0  0  0  0  0  0  0
    0.5880    4.9611    1.4239 H   0  0  0  0  0  0  0  0  0  0  0  0
    1.5180    6.1069    0.4623 H   0  0  0  0  0  0  0  0  0  0  0  0
  2  3  2  0
  2  1  1  0
  3  4  1  0
 16 15  2  0
 16 17  1  0
  8  1  1  0
  8  9  1  0
  1  6  2  0
 15 14  1  0
  4  7  1  0
  4  5  2  0
 13  9  2  0
 13 12  1  0
 17 18  2  0
  9 10  1  0
  6  5  1  0
  5 25  1  0
 14 12  1  0
 14 19  2  0
 12 11  2  0
 18 19  1  0
 10 11  1  0
 11 20  1  0
 20 22  1  0
 20 21  2  0
 22 23  1  0
 23 24  1  0
  2 26  1  0
  3 27  1  0
  6 28  1  0
  7 29  1  0
  7 30  1  0
  7 31  1  0
  8 32  1  0
 15 33  1  0
 16 34  1  0
 17 35  1  0
 18 36  1  0
 19 37  1  0
 23 38  1  0
 23 39  1  0
 24 40  1  0
 24 41  1  0
 24 42  1  0
M  END
