
     RDKit          3D

 48 50  0  0  0  0  0  0  0  0999 V2000
    2.8959   -0.0693    2.5431 C   0  0  0  0  0  0  0  0  0  0  0  0
    2.8306   -0.9476    1.2922 C   0  0  0  0  0  0  0  0  0  0  0  0
    3.2092   -0.1829    0.0602 C   0  0  0  0  0  0  0  0  0  0  0  0
    4.5105    0.2740   -0.3160 C   0  0  0  0  0  0  0  0  0  0  0  0
    4.3528    1.1507   -1.3978 C   0  0  0  0  0  0  0  0  0  0  0  0
    2.3247    0.4204   -0.8150 C   0  0  0  0  0  0  0  0  0  0  0  0
   -1.1693   -0.8063   -0.3233 C   0  0  0  0  0  0  0  0  0  0  0  0
   -2.0957    0.1712    0.0039 C   0  0  0  0  0  0  0  0  0  0  0  0
   -3.3645   -0.2687    0.3523 C   0  0  0  0  0  0  0  0  0  0  0  0
   -3.7154   -1.6230    0.3811 C   0  0  0  0  0  0  0  0  0  0  0  0
   -2.7776   -2.5822    0.0555 C   0  0  0  0  0  0  0  0  0  0  0  0
   -0.3135   -2.8995   -0.6764 C   0  0  0  0  0  0  0  0  0  0  0  0
   -5.9639    0.4770   -1.5276 C   0  0  0  0  0  0  0  0  0  0  0  0
    5.3373    1.8988   -2.2212 C   0  0  0  0  0  0  0  0  0  0  0  0
    5.8310   -0.0649    0.2205 C   0  0  0  0  0  0  0  0  0  0  0  0
    6.8152    0.5717   -0.1176 O   0  0  0  0  0  0  0  0  0  0  0  0
    0.8702    0.4783   -0.8978 C   0  0  0  0  0  0  0  0  0  0  0  0
    5.9784   -1.2317    1.1611 C   0  0  0  0  0  0  0  0  0  0  0  0
    3.0473    1.2291   -1.6581 N   0  0  0  0  0  0  0  0  0  0  0  0
    0.1736   -0.7059   -0.6691 N   0  0  0  0  0  0  0  0  0  0  0  0
    0.2780    1.4998   -1.1759 O   0  0  0  0  0  0  0  0  0  0  0  0
    0.6602   -1.9888   -0.8924 C   0  0  0  0  0  0  0  0  0  0  0  0
   -1.4925   -2.1773   -0.3006 C   0  0  0  0  0  0  0  0  0  0  0  0
   -5.6734    0.3023    1.4393 O   0  0  0  0  0  0  0  0  0  0  0  0
   -3.9308    2.1146    1.2822 O   0  0  0  0  0  0  0  0  0  0  0  0
   -5.2261    1.4437   -0.7256 N   0  0  0  0  0  0  0  0  0  0  0  0
    3.8878    0.3569    2.6940 H   0  0  0  0  0  0  0  0  0  0  0  0
    2.1903    0.7587    2.4704 H   0  0  0  0  0  0  0  0  0  0  0  0
    2.6440   -0.6506    3.4300 H   0  0  0  0  0  0  0  0  0  0  0  0
    3.4662   -1.8232    1.4144 H   0  0  0  0  0  0  0  0  0  0  0  0
    1.8177   -1.3357    1.2041 H   0  0  0  0  0  0  0  0  0  0  0  0
   -1.8496    1.2222   -0.0084 H   0  0  0  0  0  0  0  0  0  0  0  0
   -4.7121   -1.9247    0.6705 H   0  0  0  0  0  0  0  0  0  0  0  0
   -3.0375   -3.6319    0.0853 H   0  0  0  0  0  0  0  0  0  0  0  0
   -0.2154   -3.9675   -0.7832 H   0  0  0  0  0  0  0  0  0  0  0  0
   -5.3734   -0.3985   -1.8112 H   0  0  0  0  0  0  0  0  0  0  0  0
   -6.8528    0.1488   -0.9957 H   0  0  0  0  0  0  0  0  0  0  0  0
   -6.2809    0.9818   -2.4362 H   0  0  0  0  0  0  0  0  0  0  0  0
    6.1022    1.2372   -2.6245 H   0  0  0  0  0  0  0  0  0  0  0  0
    4.8387    2.3928   -3.0540 H   0  0  0  0  0  0  0  0  0  0  0  0
    5.8467    2.6582   -1.6295 H   0  0  0  0  0  0  0  0  0  0  0  0
    5.5132   -2.1301    0.7553 H   0  0  0  0  0  0  0  0  0  0  0  0
    7.0330   -1.4312    1.3394 H   0  0  0  0  0  0  0  0  0  0  0  0
    5.5052   -1.0248    2.1221 H   0  0  0  0  0  0  0  0  0  0  0  0
    2.6492    1.7588   -2.4199 H   0  0  0  0  0  0  0  0  0  0  0  0
    1.6766   -2.1359   -1.2187 H   0  0  0  0  0  0  0  0  0  0  0  0
   -4.5684    2.0041   -1.2558 H   0  0  0  0  0  0  0  0  0  0  0  0
   -4.5961    0.9542    0.7124 S   0  0  1  0  0  0  0  0  0  0  0  0
 12 22  2  0
 12 23  1  0
  1  2  1  0
 22 20  1  0
 11 23  2  0
 11 10  1  0
 23  7  1  0
  2  3  1  0
 10  9  2  0
 20  7  1  0
 20 17  1  0
  7  8  2  0
 18 15  1  0
  3  4  1  0
  3  6  2  0
 16 15  2  0
 15  4  1  0
  4  5  2  0
 17  6  1  0
 17 21  2  0
  6 19  1  0
  9  8  1  0
  9 48  1  0
  5 19  1  0
  5 14  1  0
 25 48  2  0
 48 26  1  6
 48 24  2  0
 26 13  1  0
  1 27  1  0
  1 28  1  0
  1 29  1  0
  2 30  1  0
  2 31  1  0
  8 32  1  0
 10 33  1  0
 11 34  1  0
 12 35  1  0
 13 36  1  0
 13 37  1  0
 13 38  1  0
 14 39  1  0
 14 40  1  0
 14 41  1  0
 18 42  1  0
 18 43  1  0
 18 44  1  0
 19 45  1  0
 22 46  1  0
 26 47  1  0
M  END
