
     RDKit          3D

 34 34  0  0  0  0  0  0  0  0999 V2000
    0.0503   -0.7295   -1.7960 C   0  0  0  0  0  0  0  0  0  0  0  0
    1.2449   -0.4241   -2.4456 C   0  0  0  0  0  0  0  0  0  0  0  0
    1.2647    0.0975   -3.7297 C   0  0  0  0  0  0  0  0  0  0  0  0
    0.0680    0.3303   -4.4031 C   0  0  0  0  0  0  0  0  0  0  0  0
   -1.1361    0.0320   -3.7721 C   0  0  0  0  0  0  0  0  0  0  0  0
   -1.1342   -0.4894   -2.4855 C   0  0  0  0  0  0  0  0  0  0  0  0
    0.0411   -1.2561   -0.3883 C   0  0  0  0  0  0  0  0  0  0  0  0
    0.0237   -0.1457    0.6626 C   0  0  0  0  0  0  0  0  0  0  0  0
    0.0058   -0.6891    2.0855 C   0  0  0  0  0  0  0  0  0  0  0  0
   -0.0121    0.3990    3.1508 C   0  0  0  0  0  0  0  0  0  0  0  0
   -0.0328   -0.1564    4.5695 C   0  0  0  0  0  0  0  0  0  0  0  0
   -0.0498    0.9227    5.6444 C   0  0  0  0  0  0  0  0  0  0  0  0
   -0.0737    0.3522    7.0559 C   0  0  0  0  0  0  0  0  0  0  0  0
    0.1320    0.8357   -5.6540 O   0  0  0  0  0  0  0  0  0  0  0  0
    2.1878   -0.6023   -1.9411 H   0  0  0  0  0  0  0  0  0  0  0  0
    2.2073    0.3216   -4.2140 H   0  0  0  0  0  0  0  0  0  0  0  0
   -2.0781    0.2011   -4.2821 H   0  0  0  0  0  0  0  0  0  0  0  0
   -2.0835   -0.7177   -2.0148 H   0  0  0  0  0  0  0  0  0  0  0  0
    0.9187   -1.8888   -0.2256 H   0  0  0  0  0  0  0  0  0  0  0  0
   -0.8309   -1.9002   -0.2420 H   0  0  0  0  0  0  0  0  0  0  0  0
   -0.8518    0.4925    0.5024 H   0  0  0  0  0  0  0  0  0  0  0  0
    0.8987    0.4987    0.5253 H   0  0  0  0  0  0  0  0  0  0  0  0
    0.8799   -1.3325    2.2366 H   0  0  0  0  0  0  0  0  0  0  0  0
   -0.8686   -1.3371    2.2127 H   0  0  0  0  0  0  0  0  0  0  0  0
   -0.8859    1.0430    3.0012 H   0  0  0  0  0  0  0  0  0  0  0  0
    0.8632    1.0463    3.0268 H   0  0  0  0  0  0  0  0  0  0  0  0
    0.8402   -0.8022    4.7171 H   0  0  0  0  0  0  0  0  0  0  0  0
   -0.9083   -0.8041    4.6920 H   0  0  0  0  0  0  0  0  0  0  0  0
   -0.9213    1.5682    5.4968 H   0  0  0  0  0  0  0  0  0  0  0  0
    0.8262    1.5678    5.5245 H   0  0  0  0  0  0  0  0  0  0  0  0
   -0.0859    1.1416    7.8081 H   0  0  0  0  0  0  0  0  0  0  0  0
   -0.9573   -0.2694    7.2142 H   0  0  0  0  0  0  0  0  0  0  0  0
    0.8026   -0.2712    7.2441 H   0  0  0  0  0  0  0  0  0  0  0  0
   -0.7547    0.9639   -6.0080 H   0  0  0  0  0  0  0  0  0  0  0  0
  1  2  2  0
  1  6  1  0
  1  7  1  0
  2  3  1  0
  2 15  1  0
  3  4  2  0
  3 16  1  0
  4  5  1  0
  4 14  1  0
  5  6  2  0
  5 17  1  0
  6 18  1  0
  7  8  1  0
  7 19  1  0
  7 20  1  0
  8  9  1  0
  8 21  1  0
  8 22  1  0
  9 10  1  0
  9 23  1  0
  9 24  1  0
 10 11  1  0
 10 25  1  0
 10 26  1  0
 11 12  1  0
 11 27  1  0
 11 28  1  0
 12 13  1  0
 12 29  1  0
 12 30  1  0
 13 31  1  0
 13 32  1  0
 13 33  1  0
 14 34  1  0
M  END
