
     RDKit          3D

 51 55  0  0  0  0  0  0  0  0999 V2000
   -4.1004    0.5410   -0.0817 C   0  0  1  0  0  0  0  0  0  0  0  0
   -2.7189    0.0817   -0.1280 N   0  0  0  0  0  0  0  0  0  0  0  0
    3.0598    0.0028    1.0760 C   0  0  0  0  0  0  0  0  0  0  0  0
    1.7321   -0.3566    0.9392 C   0  0  0  0  0  0  0  0  0  0  0  0
    0.8794    0.3380    0.0692 C   0  0  0  0  0  0  0  0  0  0  0  0
    1.3791    1.4174   -0.6603 C   0  0  0  0  0  0  0  0  0  0  0  0
    2.7072    1.7859   -0.5200 C   0  0  0  0  0  0  0  0  0  0  0  0
    3.5424    1.0789    0.3382 C   0  0  0  0  0  0  0  0  0  0  0  0
    0.6920   -2.8459   -0.9202 C   0  0  0  0  0  0  0  0  0  0  0  0
   -2.4527   -1.2125   -0.1899 N   0  0  0  0  0  0  0  0  0  0  0  0
    1.2146   -4.1271   -0.9887 C   0  0  0  0  0  0  0  0  0  0  0  0
   -0.5242   -4.9987    0.1759 C   0  0  0  0  0  0  0  0  0  0  0  0
   -5.8139    2.1310   -0.9471 C   0  0  0  0  0  0  0  0  0  0  0  0
   -1.1307   -3.7603    0.3049 C   0  0  0  0  0  0  0  0  0  0  0  0
   -1.6047    0.8263   -0.0413 C   0  0  0  0  0  0  0  0  0  0  0  0
   -0.5124   -2.6415   -0.2504 C   0  0  0  0  0  0  0  0  0  0  0  0
   -0.5309   -0.0399   -0.0523 C   0  0  0  0  0  0  0  0  0  0  0  0
   -4.5136    0.9265    1.3352 C   0  0  0  0  0  0  0  0  0  0  0  0
   -5.9672    1.4026    1.3395 C   0  0  0  0  0  0  0  0  0  0  0  0
   -1.1321   -1.3178   -0.1532 C   0  0  0  0  0  0  0  0  0  0  0  0
    0.6300   -5.1927   -0.4532 N   0  0  0  0  0  0  0  0  0  0  0  0
   -6.2393    2.4746    0.3981 N   0  0  0  0  0  0  0  0  0  0  0  0
   -4.3502    1.6949   -1.0454 C   0  0  0  0  0  0  0  0  0  0  0  0
    3.4405    2.9049   -1.2046 C   0  0  0  0  0  0  0  0  0  0  0  0
    4.8886    2.8011   -0.6865 C   0  0  0  0  0  0  0  0  0  0  0  0
    4.8829    1.6552    0.2938 C   0  0  0  0  0  0  0  0  0  0  0  0
    5.8372    1.2015    0.9990 N   0  0  0  0  0  0  0  0  0  0  0  0
    7.0046    1.8886    0.7994 O   0  0  0  0  0  0  0  0  0  0  0  0
   -4.6912   -0.3203   -0.4036 H   0  0  0  0  0  0  0  0  0  0  0  0
    1.3411   -1.1820    1.5203 H   0  0  0  0  0  0  0  0  0  0  0  0
    0.7296    1.9522   -1.3435 H   0  0  0  0  0  0  0  0  0  0  0  0
    1.2158   -2.0307   -1.3997 H   0  0  0  0  0  0  0  0  0  0  0  0
    2.1512   -4.2971   -1.5080 H   0  0  0  0  0  0  0  0  0  0  0  0
   -0.9942   -5.8755    0.6077 H   0  0  0  0  0  0  0  0  0  0  0  0
   -6.4528    1.3190   -1.3106 H   0  0  0  0  0  0  0  0  0  0  0  0
   -5.9890    2.9839   -1.6045 H   0  0  0  0  0  0  0  0  0  0  0  0
   -2.0657   -3.6692    0.8406 H   0  0  0  0  0  0  0  0  0  0  0  0
   -1.6320    1.8998    0.0523 H   0  0  0  0  0  0  0  0  0  0  0  0
   -4.3920    0.0747    2.0086 H   0  0  0  0  0  0  0  0  0  0  0  0
   -3.8656    1.7297    1.7017 H   0  0  0  0  0  0  0  0  0  0  0  0
   -6.6237    0.5599    1.0975 H   0  0  0  0  0  0  0  0  0  0  0  0
   -6.2439    1.7326    2.3421 H   0  0  0  0  0  0  0  0  0  0  0  0
   -3.7066    2.5451   -0.7979 H   0  0  0  0  0  0  0  0  0  0  0  0
   -4.1126    1.3935   -2.0684 H   0  0  0  0  0  0  0  0  0  0  0  0
    3.3883    2.8066   -2.2903 H   0  0  0  0  0  0  0  0  0  0  0  0
    5.5978    2.6074   -1.4937 H   0  0  0  0  0  0  0  0  0  0  0  0
    7.6333    1.4604    1.3896 H   0  0  0  0  0  0  0  0  0  0  0  0
   -5.7498    3.3102    0.6975 H   0  0  0  0  0  0  0  0  0  0  0  0
    2.9949    3.8705   -0.9581 H   0  0  0  0  0  0  0  0  0  0  0  0
    5.2178    3.7229   -0.2037 H   0  0  0  0  0  0  0  0  0  0  0  0
    3.7065   -0.5411    1.7524 H   0  0  0  0  0  0  0  0  0  0  0  0
  1 29  1  6
  2  1  1  0
  2 15  1  0
  3 51  1  0
  4  3  2  0
  4 30  1  0
  5  4  1  0
  6  7  1  0
  6  5  2  0
  6 31  1  0
  7  8  2  0
  8 26  1  0
  8  3  1  0
  9 32  1  0
 10 20  2  0
 10  2  1  0
 11  9  2  0
 11 33  1  0
 12 14  1  0
 12 21  2  0
 12 34  1  0
 13 35  1  0
 13 36  1  0
 14 16  2  0
 14 37  1  0
 15 38  1  0
 16 20  1  0
 16  9  1  0
 17 15  2  0
 17  5  1  0
 18 19  1  0
 18  1  1  0
 18 39  1  0
 18 40  1  0
 19 41  1  0
 19 42  1  0
 20 17  1  0
 21 11  1  0
 22 13  1  0
 22 19  1  0
 23 13  1  0
 23  1  1  0
 23 43  1  0
 23 44  1  0
 24  7  1  0
 24 25  1  0
 24 45  1  0
 25 26  1  0
 25 46  1  0
 26 27  2  0
 27 28  1  0
 28 47  1  0
 22 48  1  0
 24 49  1  0
 25 50  1  0
M  END
