
     RDKit          3D

 36 39  0  0  0  0  0  0  0  0999 V2000
    3.9077    0.8311    0.2422 C   0  0  0  0  0  0  0  0  0  0  0  0
   -1.1943   -1.6790    0.1502 C   0  0  0  0  0  0  0  0  0  0  0  0
   -1.1513   -3.0578    0.2574 C   0  0  0  0  0  0  0  0  0  0  0  0
   -2.5796   -1.3726    0.0970 C   0  0  0  0  0  0  0  0  0  0  0  0
   -3.2582   -0.0779   -0.0384 C   0  0  0  0  0  0  0  0  0  0  0  0
    4.6849    1.9328    0.5671 C   0  0  0  0  0  0  0  0  0  0  0  0
    2.5596    0.5846    0.3438 N   0  0  0  0  0  0  0  0  0  0  0  0
   -0.1599    0.3844    0.6461 O   0  0  0  0  0  0  0  0  0  0  0  0
   -0.0606   -0.7567    0.2306 C   0  0  0  0  0  0  0  0  0  0  0  0
    2.3610   -0.6697   -0.1248 C   0  0  0  0  0  0  0  0  0  0  0  0
    3.4500   -1.2660   -0.5252 N   0  0  0  0  0  0  0  0  0  0  0  0
    4.4474   -0.3445   -0.3066 C   0  0  0  0  0  0  0  0  0  0  0  0
    5.8175   -0.4315   -0.5419 C   0  0  0  0  0  0  0  0  0  0  0  0
    6.6031    0.6632   -0.2188 C   0  0  0  0  0  0  0  0  0  0  0  0
    6.0467    1.8274    0.3268 C   0  0  0  0  0  0  0  0  0  0  0  0
   -2.4163   -3.4697    0.2645 N   0  0  0  0  0  0  0  0  0  0  0  0
   -3.2950   -2.4796    0.1610 N   0  0  0  0  0  0  0  0  0  0  0  0
   -2.7918    0.8987   -0.9165 C   0  0  0  0  0  0  0  0  0  0  0  0
   -3.4626    2.1022   -1.0659 C   0  0  0  0  0  0  0  0  0  0  0  0
   -4.6096    2.3176   -0.3259 C   0  0  0  0  0  0  0  0  0  0  0  0
   -5.2641    3.4805   -0.4664 F   0  0  0  0  0  0  0  0  0  0  0  0
   -5.1059    1.3715    0.5491 C   0  0  0  0  0  0  0  0  0  0  0  0
   -4.4229    0.1725    0.6856 C   0  0  0  0  0  0  0  0  0  0  0  0
   -0.3307   -3.7493    0.3641 H   0  0  0  0  0  0  0  0  0  0  0  0
    4.2538    2.8315    0.9882 H   0  0  0  0  0  0  0  0  0  0  0  0
    1.8389    1.2016    0.6854 H   0  0  0  0  0  0  0  0  0  0  0  0
    1.1512   -2.1995   -0.6053 H   0  0  0  0  0  0  0  0  0  0  0  0
    6.2521   -1.3288   -0.9632 H   0  0  0  0  0  0  0  0  0  0  0  0
    7.6709    0.6206   -0.3907 H   0  0  0  0  0  0  0  0  0  0  0  0
    6.6929    2.6614    0.5669 H   0  0  0  0  0  0  0  0  0  0  0  0
   -2.7398   -4.4223    0.3356 H   0  0  0  0  0  0  0  0  0  0  0  0
   -1.9068    0.7226   -1.5124 H   0  0  0  0  0  0  0  0  0  0  0  0
   -3.1004    2.8555   -1.7531 H   0  0  0  0  0  0  0  0  0  0  0  0
   -6.0069    1.5634    1.1168 H   0  0  0  0  0  0  0  0  0  0  0  0
   -4.8012   -0.5721    1.3732 H   0  0  0  0  0  0  0  0  0  0  0  0
    1.1330   -1.2830   -0.1825 N   0  0  0  0  0  0  0  0  0  0  0  0
  3 16  1  0
  3  2  2  0
  8  9  2  0
 16 17  1  0
  2  9  1  0
  2  4  1  0
  9 36  1  0
 17  4  2  0
  6 15  2  0
  6  1  1  0
  7  1  1  0
  7 10  1  0
 15 14  1  0
  1 12  2  0
  4  5  1  0
 10 36  1  0
 10 11  2  0
 14 13  2  0
 12 11  1  0
 12 13  1  0
 18  5  2  0
 18 19  1  0
  5 23  1  0
 19 20  2  0
 23 22  2  0
 20 22  1  0
 20 21  1  0
  3 24  1  0
  6 25  1  0
  7 26  1  0
 36 27  1  0
 13 28  1  0
 14 29  1  0
 15 30  1  0
 16 31  1  0
 18 32  1  0
 19 33  1  0
 22 34  1  0
 23 35  1  0
M  END
