
     RDKit          3D

 16 16  0  0  0  0  0  0  0  0999 V2000
    0.8185    0.9811   -0.8722 O   0  0  0  0  0  0  0  0  0  0  0  0
   -0.2217    0.8155    0.0506 C   0  0  2  0  0  0  0  0  0  0  0  0
    0.1918   -0.1656    1.1329 C   0  0  0  0  0  0  0  0  0  0  0  0
   -0.6372   -0.1162    2.1686 O   0  0  0  0  0  0  0  0  0  0  0  0
   -1.4111    0.2727   -0.7497 C   0  0  0  0  0  0  0  0  0  0  0  0
   -0.7029   -0.5865   -1.7912 C   0  0  0  0  0  0  0  0  0  0  0  0
    0.5823    0.1966   -2.0409 C   0  0  0  0  0  0  0  0  0  0  0  0
    1.1354   -0.9087    1.0605 O   0  0  0  0  0  0  0  0  0  0  0  0
   -0.4520    1.7781    0.5179 H   0  0  0  0  0  0  0  0  0  0  0  0
   -0.3777   -0.7665    2.8387 H   0  0  0  0  0  0  0  0  0  0  0  0
   -2.1317   -0.2776   -0.1462 H   0  0  0  0  0  0  0  0  0  0  0  0
   -1.9371    1.1053   -1.2199 H   0  0  0  0  0  0  0  0  0  0  0  0
   -0.4890   -1.5801   -1.3932 H   0  0  0  0  0  0  0  0  0  0  0  0
   -1.2872   -0.7133   -2.7014 H   0  0  0  0  0  0  0  0  0  0  0  0
    1.4388   -0.4558   -2.2235 H   0  0  0  0  0  0  0  0  0  0  0  0
    0.4775    0.8657   -2.9000 H   0  0  0  0  0  0  0  0  0  0  0  0
  1  2  1  0
  1  7  1  0
  2  3  1  0
  2  5  1  0
  2  9  1  1
  3  4  1  0
  3  8  2  0
  4 10  1  0
  5  6  1  0
  5 11  1  0
  5 12  1  0
  6  7  1  0
  6 13  1  0
  6 14  1  0
  7 15  1  0
  7 16  1  0
M  END
