
     RDKit          3D

 33 35  0  0  0  0  0  0  0  0999 V2000
    5.2250   10.0394    4.8233 N   0  0  0  0  0  0  0  0  0  0  0  0
    3.9175    9.8631    4.9501 C   0  0  0  0  0  0  0  0  0  0  0  0
    3.0279    9.6274    4.0039 N   0  0  0  0  0  0  0  0  0  0  0  0
    3.6038    9.5782    2.8041 C   0  0  0  0  0  0  0  0  0  0  0  0
    4.9568    9.7446    2.5085 C   0  0  0  0  0  0  0  0  0  0  0  0
    5.8089    9.9962    3.6158 C   0  0  0  0  0  0  0  0  0  0  0  0
   10.3204    7.3601    3.9114 C   0  0  0  0  0  0  0  0  0  0  0  0
    5.1556    9.6246    1.1521 N   0  0  0  0  0  0  0  0  0  0  0  0
    3.9744    9.3971    0.6583 C   0  0  0  0  0  0  0  0  0  0  0  0
    3.0021    9.3575    1.6059 N   0  0  0  0  0  0  0  0  0  0  0  0
    9.5969    8.6949    3.7196 C   0  0  2  0  0  0  0  0  0  0  0  0
    8.7457    9.0283    4.9443 C   0  0  0  0  0  0  0  0  0  0  0  0
    7.9526   10.3144    4.7450 C   0  0  0  0  0  0  0  0  0  0  0  0
    7.9272   10.0034    2.3488 C   0  0  0  0  0  0  0  0  0  0  0  0
   11.2379    6.9547    2.8599 N   0  0  0  0  0  0  0  0  0  0  0  0
    8.7288    8.7110    2.4617 C   0  0  0  0  0  0  0  0  0  0  0  0
    7.1325   10.2183    3.5468 N   0  0  0  0  0  0  0  0  0  0  0  0
    3.5362    9.9187    5.9648 H   0  0  0  0  0  0  0  0  0  0  0  0
    2.0183    9.2031    1.4467 H   0  0  0  0  0  0  0  0  0  0  0  0
   10.8784    7.3976    4.8519 H   0  0  0  0  0  0  0  0  0  0  0  0
    9.5727    6.5691    4.0343 H   0  0  0  0  0  0  0  0  0  0  0  0
   10.3572    9.4822    3.6142 H   0  0  0  0  0  0  0  0  0  0  0  0
   10.7444    6.8669    1.9806 H   0  0  0  0  0  0  0  0  0  0  0  0
   11.9343    7.6760    2.7162 H   0  0  0  0  0  0  0  0  0  0  0  0
    3.7523    9.2499   -0.3873 H   0  0  0  0  0  0  0  0  0  0  0  0
    9.3435    8.6104    1.5638 H   0  0  0  0  0  0  0  0  0  0  0  0
    8.0400    7.8584    2.4766 H   0  0  0  0  0  0  0  0  0  0  0  0
    8.0454    8.2091    5.1419 H   0  0  0  0  0  0  0  0  0  0  0  0
    9.3789    9.1282    5.8300 H   0  0  0  0  0  0  0  0  0  0  0  0
    8.6125   10.8517    2.2490 H   0  0  0  0  0  0  0  0  0  0  0  0
    7.2925    9.9917    1.4688 H   0  0  0  0  0  0  0  0  0  0  0  0
    7.3242   10.5285    5.6037 H   0  0  0  0  0  0  0  0  0  0  0  0
    8.6377   11.1573    4.6113 H   0  0  0  0  0  0  0  0  0  0  0  0
  1  2  2  0
  1  6  1  0
  2  3  1  0
  3  4  2  0
  4  5  1  0
  4 10  1  0
  5  8  1  0
  5  6  2  0
  7 11  1  0
  7 15  1  0
  8  9  2  0
  9 10  1  0
 11 16  1  0
 11 12  1  0
 16 14  1  0
 14 17  1  0
 13 12  1  0
 13 17  1  0
 17  6  1  0
  2 18  1  0
 10 19  1  0
  7 20  1  0
  7 21  1  0
 11 22  1  6
 15 23  1  0
 15 24  1  0
  9 25  1  0
 16 26  1  0
 16 27  1  0
 12 28  1  0
 12 29  1  0
 14 30  1  0
 14 31  1  0
 13 32  1  0
 13 33  1  0
M  END
