
     RDKit          3D

 20 20  0  0  0  0  0  0  0  0999 V2000
   -2.6003    0.5980   -1.4525 O   0  0  0  0  0  0  0  0  0  0  0  0
   -1.1998    0.5980   -1.4525 C   0  0  0  0  0  0  0  0  0  0  0  0
   -0.7369    0.5980   -0.1434 C   0  0  1  0  0  0  0  0  0  0  0  0
   -1.1905   -0.6490    0.5706 O   0  0  0  0  0  0  0  0  0  0  0  0
    0.8711    0.5502   -0.1207 C   0  0  1  0  0  0  0  0  0  0  0  0
    1.4197    1.8694    0.3479 O   0  0  0  0  0  0  0  0  0  0  0  0
    1.1628   -0.3415    0.6861 C   0  0  1  0  0  0  0  0  0  0  0  0
    1.3390    0.2350    2.0366 O   0  0  0  0  0  0  0  0  0  0  0  0
   -0.1253   -1.3936    0.6792 C   0  0  1  0  0  0  0  0  0  0  0  0
   -0.1622   -2.0994    1.8477 O   0  0  0  0  0  0  0  0  0  0  0  0
   -2.9147    0.7802   -2.3226 H   0  0  0  0  0  0  0  0  0  0  0  0
   -0.8387    1.4825   -1.9632 H   0  0  0  0  0  0  0  0  0  0  0  0
   -0.8387   -0.2865   -1.9633 H   0  0  0  0  0  0  0  0  0  0  0  0
   -1.0898    1.4765    0.3832 H   0  0  0  0  0  0  0  0  0  0  0  0
    1.2528    0.3049   -1.1045 H   0  0  0  0  0  0  0  0  0  0  0  0
    1.9852    2.2284   -0.3158 H   0  0  0  0  0  0  0  0  0  0  0  0
    2.0640   -0.8522    0.3691 H   0  0  0  0  0  0  0  0  0  0  0  0
    2.1522   -0.0689    2.4045 H   0  0  0  0  0  0  0  0  0  0  0  0
   -0.0528   -2.0651   -0.1678 H   0  0  0  0  0  0  0  0  0  0  0  0
   -0.4972   -2.9650    1.6816 H   0  0  0  0  0  0  0  0  0  0  0  0
  1  2  1  0
  1 11  1  0
  2  3  1  0
  2 12  1  0
  2 13  1  0
  3  4  1  0
  3  5  1  0
  3 14  1  1
  4  9  1  0
  5  6  1  0
  5  7  1  0
  5 15  1  6
  6 16  1  0
  7  8  1  0
  7  9  1  0
  7 17  1  6
  8 18  1  0
  9 10  1  0
  9 19  1  6
 10 20  1  0
M  END
