
     RDKit          3D

 33 34  0  0  0  0  0  0  0  0999 V2000
   -2.5255   -1.5281   -0.0730 C   0  0  0  0  0  0  0  0  0  0  0  0
   -3.7714   -0.9948    0.1712 N   0  0  0  0  0  0  0  0  0  0  0  0
   -4.0310    0.3353    0.3376 C   0  0  0  0  0  0  0  0  0  0  0  0
   -3.1175    1.2383    0.2798 N   0  0  0  0  0  0  0  0  0  0  0  0
   -1.8266    0.8276    0.0384 C   0  0  0  0  0  0  0  0  0  0  0  0
   -1.4821   -0.5174   -0.1413 C   0  0  0  0  0  0  0  0  0  0  0  0
   -2.3656   -2.7285   -0.2100 O   0  0  0  0  0  0  0  0  0  0  0  0
   -0.1512   -0.8689   -0.3810 C   0  0  0  0  0  0  0  0  0  0  0  0
    0.8382    0.0873   -0.4467 C   0  0  0  0  0  0  0  0  0  0  0  0
    0.5014    1.4504   -0.2690 C   0  0  0  0  0  0  0  0  0  0  0  0
   -0.8146    1.7942   -0.0329 C   0  0  0  0  0  0  0  0  0  0  0  0
    2.2614   -0.3347   -0.6793 C   0  0  0  0  0  0  0  0  0  0  0  0
    3.0321   -0.2138    0.5570 N   0  0  0  0  0  0  0  0  0  0  0  0
    4.3701   -0.3170    0.4635 C   0  0  0  0  0  0  0  0  0  0  0  0
    5.5718   -0.3502    0.3612 C   0  0  0  0  0  0  0  0  0  0  0  0
    7.0236   -0.4100    0.2500 C   0  0  0  0  0  0  0  0  0  0  0  0
    1.5534    2.5150   -0.3442 C   0  0  0  0  0  0  0  0  0  0  0  0
   -5.4542    0.6933    0.5971 C   0  0  0  0  0  0  0  0  0  0  0  0
   -4.5429   -1.6476    0.2285 H   0  0  0  0  0  0  0  0  0  0  0  0
    0.1029   -1.9128   -0.5205 H   0  0  0  0  0  0  0  0  0  0  0  0
   -1.0891    2.8332    0.1042 H   0  0  0  0  0  0  0  0  0  0  0  0
    2.2828   -1.3571   -1.0711 H   0  0  0  0  0  0  0  0  0  0  0  0
    2.7362    0.3028   -1.4269 H   0  0  0  0  0  0  0  0  0  0  0  0
    2.6360   -0.7432    1.3221 H   0  0  0  0  0  0  0  0  0  0  0  0
    7.4672   -0.7160    1.1984 H   0  0  0  0  0  0  0  0  0  0  0  0
    7.3421   -1.1308   -0.5043 H   0  0  0  0  0  0  0  0  0  0  0  0
    7.4518    0.5583   -0.0120 H   0  0  0  0  0  0  0  0  0  0  0  0
    2.0644    2.4996   -1.3090 H   0  0  0  0  0  0  0  0  0  0  0  0
    1.1220    3.5055   -0.2125 H   0  0  0  0  0  0  0  0  0  0  0  0
    2.3150    2.3667    0.4211 H   0  0  0  0  0  0  0  0  0  0  0  0
   -5.8129    0.2064    1.5052 H   0  0  0  0  0  0  0  0  0  0  0  0
   -5.5547    1.7685    0.7095 H   0  0  0  0  0  0  0  0  0  0  0  0
   -6.0911    0.3614   -0.2243 H   0  0  0  0  0  0  0  0  0  0  0  0
  7  1  2  0
  6  1  1  0
  1  2  1  0
  2  3  1  0
  2 19  1  0
  3  4  2  0
  3 18  1  0
  5  4  1  0
  6  5  2  0
  5 11  1  0
  8  6  1  0
  8  9  2  0
  8 20  1  0
 12  9  1  0
  9 10  1  0
 10 17  1  0
 10 11  2  0
 11 21  1  0
 13 12  1  0
 12 22  1  0
 12 23  1  0
 14 13  1  0
 13 24  1  0
 15 14  3  0
 16 15  1  0
 16 25  1  0
 16 26  1  0
 16 27  1  0
 17 28  1  0
 17 29  1  0
 17 30  1  0
 18 31  1  0
 18 32  1  0
 18 33  1  0
M  END
