
     RDKit          3D

 23 22  0  0  0  0  0  0  0  0999 V2000
   -1.4239   -1.0192   -1.4039 N   0  0  0  0  0  0  0  0  0  0  0  0
   -0.6580    0.1646   -1.0355 C   0  0  2  0  0  0  0  0  0  0  0  0
    0.0423    0.0909    0.3468 C   0  0  0  0  0  0  0  0  0  0  0  0
   -1.5228    1.4323   -1.1120 C   0  0  0  0  0  0  0  0  0  0  0  0
   -0.8956   -0.2547    1.4800 C   0  0  0  0  0  0  0  0  0  0  0  0
   -0.1318   -0.6454    2.7325 C   0  0  0  0  0  0  0  0  0  0  0  0
   -0.1760   -1.8086    3.1798 O   0  0  0  0  0  0  0  0  0  0  0  0
    0.6148    0.3121    3.3718 N   0  0  0  0  0  0  0  0  0  0  0  0
    0.4834    0.3405   -2.0466 C   0  0  0  0  0  0  0  0  0  0  0  0
    0.9024    1.3776   -2.5606 O   0  0  0  0  0  0  0  0  0  0  0  0
    1.0965   -0.8216   -2.4051 O   0  0  0  0  0  0  0  0  0  0  0  0
   -2.3537   -0.9585   -1.0411 H   0  0  0  0  0  0  0  0  0  0  0  0
   -0.9723   -1.8462   -1.0660 H   0  0  0  0  0  0  0  0  0  0  0  0
    0.8654   -0.6710    0.2901 H   0  0  0  0  0  0  0  0  0  0  0  0
    0.5227    1.0858    0.5427 H   0  0  0  0  0  0  0  0  0  0  0  0
   -0.9545    2.2918   -0.6834 H   0  0  0  0  0  0  0  0  0  0  0  0
   -1.7675    1.6667   -2.1764 H   0  0  0  0  0  0  0  0  0  0  0  0
   -2.4719    1.2960   -0.5429 H   0  0  0  0  0  0  0  0  0  0  0  0
   -1.5665    0.6131    1.7158 H   0  0  0  0  0  0  0  0  0  0  0  0
   -1.5479   -1.1275    1.2128 H   0  0  0  0  0  0  0  0  0  0  0  0
    1.1187    0.0757    4.1893 H   0  0  0  0  0  0  0  0  0  0  0  0
    0.6603    1.2366    3.0319 H   0  0  0  0  0  0  0  0  0  0  0  0
    1.8047   -0.6341   -3.0440 H   0  0  0  0  0  0  0  0  0  0  0  0
  1  2  1  0
  1 12  1  0
  1 13  1  0
  2  3  1  0
  2  4  1  0
  2  9  1  6
  3  5  1  0
  3 14  1  0
  3 15  1  0
  4 16  1  0
  4 17  1  0
  4 18  1  0
  5  6  1  0
  5 19  1  0
  5 20  1  0
  6  7  2  0
  6  8  1  0
  8 21  1  0
  8 22  1  0
  9 10  2  0
  9 11  1  0
 11 23  1  0
M  END
