
     RDKit          3D

 53 56  0  0  0  0  0  0  0  0999 V2000
    2.2241   -1.6080   -0.8891 O   0  0  0  0  0  0  0  0  0  0  0  0
    1.8185   -0.4529   -0.8820 C   0  0  0  0  0  0  0  0  0  0  0  0
    2.6266    0.6071   -1.0404 N   0  0  0  0  0  0  0  0  0  0  0  0
    4.0655    0.4942   -1.1150 C   0  0  0  0  0  0  0  0  0  0  0  0
    4.7135    0.5781    0.2668 C   0  0  0  0  0  0  0  0  0  0  0  0
    6.1472    0.3860    0.1940 N   0  0  0  0  0  0  0  0  0  0  0  0
    6.8433    0.9510    1.3360 C   0  0  0  0  0  0  0  0  0  0  0  0
    8.3408    0.7869    1.1595 C   0  0  0  0  0  0  0  0  0  0  0  0
    8.6989   -0.5676    0.9943 O   0  0  0  0  0  0  0  0  0  0  0  0
    8.0205   -1.1367   -0.1038 C   0  0  0  0  0  0  0  0  0  0  0  0
    6.5164   -1.0112    0.0447 C   0  0  0  0  0  0  0  0  0  0  0  0
    0.3627   -0.1563   -0.7076 C   0  0  0  0  0  0  0  0  0  0  0  0
   -0.1039    1.0166   -0.1180 C   0  0  0  0  0  0  0  0  0  0  0  0
   -1.4619    1.2194    0.0647 C   0  0  0  0  0  0  0  0  0  0  0  0
   -0.5578   -1.1206   -1.1081 C   0  0  0  0  0  0  0  0  0  0  0  0
   -1.9149   -0.9156   -0.9291 C   0  0  0  0  0  0  0  0  0  0  0  0
   -2.3838    0.2513   -0.3271 C   0  0  0  0  0  0  0  0  0  0  0  0
   -3.8329    0.5001   -0.1395 C   0  0  0  0  0  0  0  0  0  0  0  0
   -4.2650    1.6627   -0.5553 N   0  0  0  0  0  0  0  0  0  0  0  0
   -5.5777    1.9791   -0.4626 C   0  0  0  0  0  0  0  0  0  0  0  0
   -5.9624    3.3357   -0.9630 C   0  0  0  0  0  0  0  0  0  0  0  0
   -4.6880   -0.4675    0.4687 C   0  0  0  0  0  0  0  0  0  0  0  0
   -4.2380   -1.6851    1.0312 C   0  0  0  0  0  0  0  0  0  0  0  0
   -5.1265   -2.5610    1.5933 C   0  0  0  0  0  0  0  0  0  0  0  0
   -6.5040   -2.2615    1.6238 C   0  0  0  0  0  0  0  0  0  0  0  0
   -6.9649   -1.0791    1.1153 C   0  0  0  0  0  0  0  0  0  0  0  0
   -6.0669   -0.1512    0.5386 C   0  0  0  0  0  0  0  0  0  0  0  0
   -6.4940    1.1002    0.0482 C   0  0  0  0  0  0  0  0  0  0  0  0
    2.2296    1.5312   -1.0792 H   0  0  0  0  0  0  0  0  0  0  0  0
    4.3177   -0.4424   -1.6107 H   0  0  0  0  0  0  0  0  0  0  0  0
    4.4407    1.3026   -1.7417 H   0  0  0  0  0  0  0  0  0  0  0  0
    4.5166    1.5717    0.6768 H   0  0  0  0  0  0  0  0  0  0  0  0
    4.2319   -0.1432    0.9469 H   0  0  0  0  0  0  0  0  0  0  0  0
    6.6123    2.0160    1.4135 H   0  0  0  0  0  0  0  0  0  0  0  0
    6.5306    0.4786    2.2830 H   0  0  0  0  0  0  0  0  0  0  0  0
    8.6690    1.3792    0.2931 H   0  0  0  0  0  0  0  0  0  0  0  0
    8.8673    1.1586    2.0400 H   0  0  0  0  0  0  0  0  0  0  0  0
    8.3317   -0.6526   -1.0404 H   0  0  0  0  0  0  0  0  0  0  0  0
    8.3067   -2.1882   -0.1562 H   0  0  0  0  0  0  0  0  0  0  0  0
    6.1775   -1.6107    0.9075 H   0  0  0  0  0  0  0  0  0  0  0  0
    6.0449   -1.4349   -0.8442 H   0  0  0  0  0  0  0  0  0  0  0  0
    0.5838    1.7759    0.2334 H   0  0  0  0  0  0  0  0  0  0  0  0
   -1.8076    2.1309    0.5339 H   0  0  0  0  0  0  0  0  0  0  0  0
   -0.2143   -2.0354   -1.5718 H   0  0  0  0  0  0  0  0  0  0  0  0
   -2.6125   -1.6685   -1.2735 H   0  0  0  0  0  0  0  0  0  0  0  0
   -5.7042    3.4481   -2.0171 H   0  0  0  0  0  0  0  0  0  0  0  0
   -7.0305    3.5150   -0.8541 H   0  0  0  0  0  0  0  0  0  0  0  0
   -5.4283    4.1149   -0.4170 H   0  0  0  0  0  0  0  0  0  0  0  0
   -3.1840   -1.9249    1.0358 H   0  0  0  0  0  0  0  0  0  0  0  0
   -4.7709   -3.4875    2.0235 H   0  0  0  0  0  0  0  0  0  0  0  0
   -7.1944   -2.9682    2.0656 H   0  0  0  0  0  0  0  0  0  0  0  0
   -8.0190   -0.8340    1.1561 H   0  0  0  0  0  0  0  0  0  0  0  0
   -7.5434    1.3640    0.0932 H   0  0  0  0  0  0  0  0  0  0  0  0
 21 20  1  0
 20 19  2  0
 20 28  1  0
 19 18  1  0
 14 13  2  0
 14 17  1  0
 13 12  1  0
 28 27  2  0
  1  2  2  0
 18 17  1  0
 18 22  2  0
 17 16  2  0
 12  2  1  0
 12 15  2  0
 27 22  1  0
 27 26  1  0
  2  3  1  0
 22 23  1  0
 16 15  1  0
 26 25  2  0
  3  4  1  0
 23 24  2  0
 11 10  1  0
 11  6  1  0
  4  5  1  0
 25 24  1  0
 10  9  1  0
  9  8  1  0
  5  6  1  0
  6  7  1  0
  7  8  1  0
  3 29  1  0
  4 30  1  0
  4 31  1  0
  5 32  1  0
  5 33  1  0
  7 34  1  0
  7 35  1  0
  8 36  1  0
  8 37  1  0
 10 38  1  0
 10 39  1  0
 11 40  1  0
 11 41  1  0
 13 42  1  0
 14 43  1  0
 15 44  1  0
 16 45  1  0
 21 46  1  0
 21 47  1  0
 21 48  1  0
 23 49  1  0
 24 50  1  0
 25 51  1  0
 26 52  1  0
 28 53  1  0
M  END
