
     RDKit          3D

 18 17  0  0  0  0  0  0  0  0999 V2000
    2.1524    0.4114   -0.0879 C   0  0  0  0  0  0  0  0  0  0  0  0
    0.9552   -1.6868   -0.3244 N   0  0  0  0  0  0  0  0  0  0  0  0
    2.9209    0.1928    0.8756 O   0  0  0  0  0  0  0  0  0  0  0  0
    0.7996   -0.2533   -0.3058 C   0  0  1  0  0  0  0  0  0  0  0  0
   -0.1398    0.3352    0.7675 C   0  0  0  0  0  0  0  0  0  0  0  0
   -1.5781   -0.0356    0.4957 C   0  0  0  0  0  0  0  0  0  0  0  0
   -1.9520   -1.2138    0.3560 O   0  0  0  0  0  0  0  0  0  0  0  0
   -2.5214    1.0215    0.4003 N   0  0  0  0  0  0  0  0  0  0  0  0
    2.4119    1.2888   -1.1023 O   0  0  0  0  0  0  0  0  0  0  0  0
    0.1215   -2.1245   -0.6699 H   0  0  0  0  0  0  0  0  0  0  0  0
    3.5788    1.2797   -0.0939 H   0  0  0  0  0  0  0  0  0  0  0  0
    0.4124    0.0577   -1.3242 H   0  0  0  0  0  0  0  0  0  0  0  0
    0.1292   -0.0747    1.7790 H   0  0  0  0  0  0  0  0  0  0  0  0
    0.0078    1.4461    0.7957 H   0  0  0  0  0  0  0  0  0  0  0  0
   -3.8503    0.1489   -0.5588 H   0  0  0  0  0  0  0  0  0  0  0  0
   -2.2476    1.9886    0.5093 H   0  0  0  0  0  0  0  0  0  0  0  0
    1.1752   -2.0408    0.5857 H   0  0  0  0  0  0  0  0  0  0  0  0
   -3.8148    0.8087    0.1636 O   0  0  0  0  0  0  0  0  0  0  0  0
 18  8  1  0
  8  6  1  0
  6  7  2  0
  6  5  1  0
  5  4  1  0
  2  4  1  0
  4  1  1  0
  1  9  2  0
  1  3  1  0
  2 17  1  0
  2 10  1  0
  3 11  1  0
  4 12  1  6
  5 13  1  0
  5 14  1  0
 18 15  1  0
  8 16  1  0
M  END
