
     RDKit          3D

 70 75  0  0  0  0  0  0  0  0999 V2000
    4.7478   -0.2527    0.4983 C   0  0  0  0  0  0  0  0  0  0  0  0
    5.3219   -1.4208   -0.0178 C   0  0  0  0  0  0  0  0  0  0  0  0
    5.5081    0.7877    1.0185 C   0  0  0  0  0  0  0  0  0  0  0  0
    6.7074   -1.5818   -0.0157 C   0  0  0  0  0  0  0  0  0  0  0  0
    6.8812    0.6127    1.0124 C   0  0  0  0  0  0  0  0  0  0  0  0
    7.4728   -0.5549    0.5047 C   0  0  0  0  0  0  0  0  0  0  0  0
    3.3886   -0.4095    0.3452 N   0  0  0  0  0  0  0  0  0  0  0  0
    3.1996   -1.6366   -0.2424 C   0  0  0  0  0  0  0  0  0  0  0  0
    4.3347   -2.2534   -0.4675 N   0  0  0  0  0  0  0  0  0  0  0  0
    2.4705    0.6125    0.7121 C   0  0  0  0  0  0  0  0  0  0  0  0
    1.9585    1.4475   -0.2629 C   0  0  0  0  0  0  0  0  0  0  0  0
    2.1990    0.8252    2.0539 C   0  0  0  0  0  0  0  0  0  0  0  0
    1.1347    2.5174    0.0894 C   0  0  0  0  0  0  0  0  0  0  0  0
    1.3928    1.8981    2.4005 C   0  0  0  0  0  0  0  0  0  0  0  0
    0.8586    2.7449    1.4402 C   0  0  0  0  0  0  0  0  0  0  0  0
    0.6371    3.2930   -0.9581 N   0  0  0  0  0  0  0  0  0  0  0  0
   -0.0492    4.4683   -0.9142 C   0  0  0  0  0  0  0  0  0  0  0  0
   -0.4601    4.9756   -2.2801 C   0  0  0  0  0  0  0  0  0  0  0  0
   -0.3248    5.0518    0.1172 O   0  0  0  0  0  0  0  0  0  0  0  0
   -0.8407    6.4452   -2.2852 C   0  0  0  0  0  0  0  0  0  0  0  0
    1.8976   -2.2081   -0.5615 C   0  0  0  0  0  0  0  0  0  0  0  0
    0.8249   -1.5562   -0.1565 N   0  0  0  0  0  0  0  0  0  0  0  0
    1.7720   -3.4345   -1.2791 C   0  0  0  0  0  0  0  0  0  0  0  0
   -0.3851   -2.0279   -0.4218 C   0  0  0  0  0  0  0  0  0  0  0  0
    0.5493   -3.9093   -1.5388 N   0  0  0  0  0  0  0  0  0  0  0  0
   -0.4975   -3.2288   -1.1252 C   0  0  0  0  0  0  0  0  0  0  0  0
    2.8150   -4.1432   -1.7263 N   0  0  0  0  0  0  0  0  0  0  0  0
   -1.5355   -1.2630    0.0353 C   0  0  0  0  0  0  0  0  0  0  0  0
   -2.8813   -1.5083   -0.1633 C   0  0  0  0  0  0  0  0  0  0  0  0
   -1.5190   -0.0691    0.7815 C   0  0  0  0  0  0  0  0  0  0  0  0
   -3.5532   -0.5069    0.4292 N   0  0  0  0  0  0  0  0  0  0  0  0
   -2.7403    0.3700    1.0131 N   0  0  0  0  0  0  0  0  0  0  0  0
   -4.9940   -0.3547    0.5520 C   0  0  2  0  0  0  0  0  0  0  0  0
   -5.5652   -1.2474    1.6481 C   0  0  0  0  0  0  0  0  0  0  0  0
   -5.7140   -0.6198   -0.7630 C   0  0  0  0  0  0  0  0  0  0  0  0
   -7.0715   -1.0576    1.7400 C   0  0  0  0  0  0  0  0  0  0  0  0
   -7.2138   -0.4489   -0.5707 C   0  0  0  0  0  0  0  0  0  0  0  0
   -7.7133   -1.3280    0.4684 N   0  0  0  0  0  0  0  0  0  0  0  0
   -9.1526   -1.2544    0.5744 C   0  0  0  0  0  0  0  0  0  0  0  0
    5.0567    1.6891    1.4109 H   0  0  0  0  0  0  0  0  0  0  0  0
    7.1622   -2.4806   -0.4110 H   0  0  0  0  0  0  0  0  0  0  0  0
    7.5138    1.3964    1.4081 H   0  0  0  0  0  0  0  0  0  0  0  0
    8.5506   -0.6485    0.5213 H   0  0  0  0  0  0  0  0  0  0  0  0
    2.2008    1.2642   -1.3031 H   0  0  0  0  0  0  0  0  0  0  0  0
    2.6119    0.1689    2.8082 H   0  0  0  0  0  0  0  0  0  0  0  0
    1.1684    2.0829    3.4427 H   0  0  0  0  0  0  0  0  0  0  0  0
    0.2336    3.5665    1.7472 H   0  0  0  0  0  0  0  0  0  0  0  0
    0.8290    2.9319   -1.8803 H   0  0  0  0  0  0  0  0  0  0  0  0
    0.3417    4.7878   -2.9986 H   0  0  0  0  0  0  0  0  0  0  0  0
   -1.3057    4.3650   -2.6137 H   0  0  0  0  0  0  0  0  0  0  0  0
   -1.1401    6.7466   -3.2881 H   0  0  0  0  0  0  0  0  0  0  0  0
   -1.6732    6.6498   -1.6141 H   0  0  0  0  0  0  0  0  0  0  0  0
   -0.0042    7.0756   -1.9846 H   0  0  0  0  0  0  0  0  0  0  0  0
   -1.4696   -3.6527   -1.3547 H   0  0  0  0  0  0  0  0  0  0  0  0
    3.7523   -3.8662   -1.4728 H   0  0  0  0  0  0  0  0  0  0  0  0
    2.6463   -5.0243   -2.1801 H   0  0  0  0  0  0  0  0  0  0  0  0
   -3.3900   -2.3080   -0.6764 H   0  0  0  0  0  0  0  0  0  0  0  0
   -0.6582    0.4725    1.1413 H   0  0  0  0  0  0  0  0  0  0  0  0
   -5.1457    0.6911    0.8311 H   0  0  0  0  0  0  0  0  0  0  0  0
   -5.3403   -2.2940    1.4231 H   0  0  0  0  0  0  0  0  0  0  0  0
   -5.1057   -1.0072    2.6089 H   0  0  0  0  0  0  0  0  0  0  0  0
   -5.3605    0.0635   -1.5376 H   0  0  0  0  0  0  0  0  0  0  0  0
   -5.5182   -1.6393   -1.1070 H   0  0  0  0  0  0  0  0  0  0  0  0
   -7.4787   -1.7368    2.4925 H   0  0  0  0  0  0  0  0  0  0  0  0
   -7.2880   -0.0324    2.0928 H   0  0  0  0  0  0  0  0  0  0  0  0
   -7.4345    0.6108   -0.3479 H   0  0  0  0  0  0  0  0  0  0  0  0
   -7.7254   -0.6856   -1.5064 H   0  0  0  0  0  0  0  0  0  0  0  0
   -9.5192   -0.2538    0.8531 H   0  0  0  0  0  0  0  0  0  0  0  0
   -9.6119   -1.5218   -0.3787 H   0  0  0  0  0  0  0  0  0  0  0  0
   -9.5089   -1.9596    1.3269 H   0  0  0  0  0  0  0  0  0  0  0  0
  1  2  1  0
  1  3  2  0
  1  7  1  0
  2  4  2  0
  2  9  1  0
  3  5  1  0
  4  6  1  0
  5  6  2  0
  7  8  1  0
  7 10  1  0
  8  9  2  0
  8 21  1  0
 10 11  2  0
 10 12  1  0
 11 13  1  0
 12 14  2  0
 13 15  2  0
 13 16  1  0
 14 15  1  0
 16 17  1  0
 17 18  1  0
 17 19  2  0
 18 20  1  0
 21 22  2  0
 21 23  1  0
 22 24  1  0
 23 25  2  0
 23 27  1  0
 24 26  2  0
 24 28  1  0
 25 26  1  0
 28 29  2  0
 28 30  1  0
 29 31  1  0
 30 32  2  0
 31 32  1  0
 31 33  1  0
 33 34  1  0
 33 35  1  0
 34 36  1  0
 35 37  1  0
 36 38  1  0
 37 38  1  0
 38 39  1  0
  3 40  1  0
  4 41  1  0
  5 42  1  0
  6 43  1  0
 11 44  1  0
 12 45  1  0
 14 46  1  0
 15 47  1  0
 16 48  1  0
 18 49  1  0
 18 50  1  0
 20 51  1  0
 20 52  1  0
 20 53  1  0
 26 54  1  0
 27 55  1  0
 27 56  1  0
 29 57  1  0
 30 58  1  0
 33 59  1  1
 34 60  1  0
 34 61  1  0
 35 62  1  0
 35 63  1  0
 36 64  1  0
 36 65  1  0
 37 66  1  0
 37 67  1  0
 39 68  1  0
 39 69  1  0
 39 70  1  0
M  END
