
     RDKit          3D

 28 31  0  0  0  0  0  0  0  0999 V2000
   -2.5151   -0.8058   -0.0076 C   0  0  0  0  0  0  0  0  0  0  0  0
   -3.8037   -1.3307    0.0008 C   0  0  0  0  0  0  0  0  0  0  0  0
   -4.8591   -0.4349    0.0003 C   0  0  0  0  0  0  0  0  0  0  0  0
   -4.6415    0.9494   -0.0082 C   0  0  0  0  0  0  0  0  0  0  0  0
   -3.3575    1.4650   -0.0166 C   0  0  0  0  0  0  0  0  0  0  0  0
   -2.2766    0.5843   -0.0165 C   0  0  0  0  0  0  0  0  0  0  0  0
   -0.8474    0.7597   -0.0232 C   0  0  0  0  0  0  0  0  0  0  0  0
   -0.3003   -0.5328   -0.0180 C   0  0  0  0  0  0  0  0  0  0  0  0
   -1.3073   -1.4574   -0.0081 N   0  0  0  0  0  0  0  0  0  0  0  0
   -0.0197    1.8973   -0.0328 C   0  0  0  0  0  0  0  0  0  0  0  0
    1.3485    1.7568   -0.0376 C   0  0  0  0  0  0  0  0  0  0  0  0
    1.9103    0.4633   -0.0329 C   0  0  0  0  0  0  0  0  0  0  0  0
    1.0869   -0.6730   -0.0234 C   0  0  0  0  0  0  0  0  0  0  0  0
    3.2620   -0.0291   -0.0354 C   0  0  0  0  0  0  0  0  0  0  0  0
    3.1847   -1.4086   -0.0273 C   0  0  0  0  0  0  0  0  0  0  0  0
    1.8948   -1.7833   -0.0204 N   0  0  0  0  0  0  0  0  0  0  0  0
    4.4776    0.7447   -0.0442 C   0  0  0  0  0  0  0  0  0  0  0  0
    5.6019    0.2787   -0.0459 O   0  0  0  0  0  0  0  0  0  0  0  0
   -3.9751   -2.3996    0.0064 H   0  0  0  0  0  0  0  0  0  0  0  0
   -5.8734   -0.8127    0.0065 H   0  0  0  0  0  0  0  0  0  0  0  0
   -5.4893    1.6216   -0.0089 H   0  0  0  0  0  0  0  0  0  0  0  0
   -3.1973    2.5362   -0.0233 H   0  0  0  0  0  0  0  0  0  0  0  0
   -1.1913   -2.4569   -0.0055 H   0  0  0  0  0  0  0  0  0  0  0  0
   -0.4614    2.8860   -0.0363 H   0  0  0  0  0  0  0  0  0  0  0  0
    1.9852    2.6319   -0.0449 H   0  0  0  0  0  0  0  0  0  0  0  0
    3.9740   -2.1426   -0.0262 H   0  0  0  0  0  0  0  0  0  0  0  0
    1.5839   -2.7419   -0.0124 H   0  0  0  0  0  0  0  0  0  0  0  0
    4.3281    1.8386   -0.0496 H   0  0  0  0  0  0  0  0  0  0  0  0
  1  2  2  0
  1  6  1  0
  1  9  1  0
  2  3  1  0
  3  4  2  0
  4  5  1  0
  5  6  2  0
  6  7  1  0
  7  8  2  0
  7 10  1  0
  8  9  1  0
  8 13  1  0
 10 11  2  0
 11 12  1  0
 12 13  2  0
 12 14  1  0
 13 16  1  0
 14 15  2  0
 14 17  1  0
 15 16  1  0
 17 18  2  0
  2 19  1  0
  3 20  1  0
  4 21  1  0
  5 22  1  0
  9 23  1  0
 10 24  1  0
 11 25  1  0
 15 26  1  0
 16 27  1  0
 17 28  1  0
M  END
