
     RDKit          3D

 16 15  0  0  0  0  0  0  0  0999 V2000
   -1.9649   -0.2127   -0.0312 C   0  0  0  0  0  0  0  0  0  0  0  0
   -1.8547   -1.3771    0.2451 O   0  0  0  0  0  0  0  0  0  0  0  0
   -0.8201    0.7607   -0.1513 C   0  0  0  0  0  0  0  0  0  0  0  0
    2.7347    0.1894    0.4259 C   0  0  0  0  0  0  0  0  0  0  0  0
    1.4886    0.9472    0.0482 C   0  0  0  0  0  0  0  0  0  0  0  0
    0.3689    0.0951    0.1290 O   0  0  0  0  0  0  0  0  0  0  0  0
    2.9774   -0.8260   -0.5198 O   0  0  0  0  0  0  0  0  0  0  0  0
   -3.1206    0.3930   -0.2717 O   0  0  0  0  0  0  0  0  0  0  0  0
   -0.8301    1.1897   -1.1645 H   0  0  0  0  0  0  0  0  0  0  0  0
   -1.0006    1.5991    0.5378 H   0  0  0  0  0  0  0  0  0  0  0  0
    3.5546    0.9171    0.4672 H   0  0  0  0  0  0  0  0  0  0  0  0
    2.6192   -0.2156    1.4397 H   0  0  0  0  0  0  0  0  0  0  0  0
    1.3848    1.7968    0.7363 H   0  0  0  0  0  0  0  0  0  0  0  0
    1.5899    1.3636   -0.9640 H   0  0  0  0  0  0  0  0  0  0  0  0
    3.7950   -1.2682   -0.2759 H   0  0  0  0  0  0  0  0  0  0  0  0
   -3.8522   -0.2370   -0.1891 H   0  0  0  0  0  0  0  0  0  0  0  0
  1  2  2  0
  1  3  1  0
  1  8  1  0
  3  6  1  0
  4  5  1  0
  4  7  1  0
  5  6  1  0
  3  9  1  0
  3 10  1  0
  4 11  1  0
  4 12  1  0
  5 13  1  0
  5 14  1  0
  7 15  1  0
  8 16  1  0
M  END
