
     RDKit          3D

 41 43  0  0  0  0  0  0  0  0999 V2000
    2.3717    2.1896   -1.7657 C   0  0  0  0  0  0  0  0  0  0  0  0
    1.0924    0.6723   -0.3813 C   0  0  0  0  0  0  0  0  0  0  0  0
    2.8681    2.8247   -0.6362 C   0  0  0  0  0  0  0  0  0  0  0  0
    1.5929    1.3206    0.7460 C   0  0  0  0  0  0  0  0  0  0  0  0
    2.4749    2.3843    0.6223 C   0  0  0  0  0  0  0  0  0  0  0  0
   -2.7781    1.5285   -2.4148 C   0  0  0  0  0  0  0  0  0  0  0  0
   -2.1188    0.6520   -0.3057 C   0  0  0  0  0  0  0  0  0  0  0  0
   -3.2782    1.1173    0.3090 C   0  0  0  0  0  0  0  0  0  0  0  0
   -3.4731    0.9145    1.6702 C   0  0  0  0  0  0  0  0  0  0  0  0
   -2.5193    0.2509    2.4204 C   0  0  0  0  0  0  0  0  0  0  0  0
   -1.3665   -0.2142    1.7964 C   0  0  0  0  0  0  0  0  0  0  0  0
   -1.1421   -0.0340    0.4384 C   0  0  0  0  0  0  0  0  0  0  0  0
    0.1290   -0.4903   -0.2486 C   0  0  2  0  0  0  0  0  0  0  0  0
    1.4902    1.1231   -1.6353 C   0  0  0  0  0  0  0  0  0  0  0  0
    0.7858   -1.7023    0.4113 C   0  0  1  0  0  0  0  0  0  0  0  0
    2.2637   -3.4500    0.1485 C   0  0  0  0  0  0  0  0  0  0  0  0
    0.8981   -4.1307    0.3901 C   0  0  0  0  0  0  0  0  0  0  0  0
   -0.1015   -2.9616    0.4419 C   0  0  0  0  0  0  0  0  0  0  0  0
    1.9967   -2.0904   -0.3027 N   0  0  0  0  0  0  0  0  0  0  0  0
   -1.8530    0.8233   -1.6148 O   0  0  0  0  0  0  0  0  0  0  0  0
    2.6658    2.5259   -2.7518 H   0  0  0  0  0  0  0  0  0  0  0  0
    3.5527    3.6574   -0.7328 H   0  0  0  0  0  0  0  0  0  0  0  0
    1.2927    0.9969    1.7359 H   0  0  0  0  0  0  0  0  0  0  0  0
    2.8532    2.8741    1.5107 H   0  0  0  0  0  0  0  0  0  0  0  0
   -2.3564    1.5625   -3.4163 H   0  0  0  0  0  0  0  0  0  0  0  0
   -3.7486    1.0269   -2.4585 H   0  0  0  0  0  0  0  0  0  0  0  0
   -2.9271    2.5520   -2.0613 H   0  0  0  0  0  0  0  0  0  0  0  0
   -4.0367    1.6433   -0.2549 H   0  0  0  0  0  0  0  0  0  0  0  0
   -4.3778    1.2845    2.1350 H   0  0  0  0  0  0  0  0  0  0  0  0
   -2.6634    0.0912    3.4806 H   0  0  0  0  0  0  0  0  0  0  0  0
   -0.6265   -0.7285    2.3961 H   0  0  0  0  0  0  0  0  0  0  0  0
   -0.1340   -0.8134   -1.2618 H   0  0  0  0  0  0  0  0  0  0  0  0
    1.1028    0.6372   -2.5228 H   0  0  0  0  0  0  0  0  0  0  0  0
    1.0890   -1.4570    1.4367 H   0  0  0  0  0  0  0  0  0  0  0  0
    2.8301   -3.4072    1.0830 H   0  0  0  0  0  0  0  0  0  0  0  0
    2.8843   -3.9764   -0.5766 H   0  0  0  0  0  0  0  0  0  0  0  0
    0.6533   -4.8210   -0.4183 H   0  0  0  0  0  0  0  0  0  0  0  0
    0.9011   -4.7119    1.3129 H   0  0  0  0  0  0  0  0  0  0  0  0
   -0.7487   -2.9999    1.3179 H   0  0  0  0  0  0  0  0  0  0  0  0
   -0.7520   -2.9689   -0.4366 H   0  0  0  0  0  0  0  0  0  0  0  0
    1.7888   -2.1163   -1.2964 H   0  0  0  0  0  0  0  0  0  0  0  0
  5  3  1  0
  5  4  2  0
  3  1  2  0
  4  2  1  0
  1 14  1  0
  2 14  2  0
  2 13  1  0
 11 10  2  0
 11 12  1  0
 10  9  1  0
 13 12  1  0
 13 15  1  0
 12  7  2  0
  9  8  2  0
 15 19  1  0
 15 18  1  0
 19 16  1  0
  7  8  1  0
  7 20  1  0
 20  6  1  0
 18 17  1  0
 16 17  1  0
  1 21  1  0
  3 22  1  0
  4 23  1  0
  5 24  1  0
  6 25  1  0
  6 26  1  0
  6 27  1  0
  8 28  1  0
  9 29  1  0
 10 30  1  0
 11 31  1  0
 13 32  1  6
 14 33  1  0
 15 34  1  1
 16 35  1  0
 16 36  1  0
 17 37  1  0
 17 38  1  0
 18 39  1  0
 18 40  1  0
 19 41  1  0
M  END
