
     RDKit          3D

 19 19  0  0  0  0  0  0  0  0999 V2000
    2.2640   -0.7378   -0.8829 O   0  0  0  0  0  0  0  0  0  0  0  0
    1.6917    0.3775   -0.2330 C   0  0  1  0  0  0  0  0  0  0  0  0
    0.2018    0.1611   -0.1442 C   0  0  0  0  0  0  0  0  0  0  0  0
   -0.3289   -1.0929    0.1504 C   0  0  0  0  0  0  0  0  0  0  0  0
   -1.7005   -1.2650    0.2783 C   0  0  0  0  0  0  0  0  0  0  0  0
   -2.5616   -0.1867    0.1158 C   0  0  0  0  0  0  0  0  0  0  0  0
   -2.0404    1.0660   -0.1779 C   0  0  0  0  0  0  0  0  0  0  0  0
   -0.6681    1.2344   -0.3101 C   0  0  0  0  0  0  0  0  0  0  0  0
    2.2885    0.5893    1.1541 C   0  0  0  0  0  0  0  0  0  0  0  0
    3.2214   -0.6567   -0.8279 H   0  0  0  0  0  0  0  0  0  0  0  0
    1.8678    1.2911   -0.8183 H   0  0  0  0  0  0  0  0  0  0  0  0
    0.3281   -1.9431    0.2814 H   0  0  0  0  0  0  0  0  0  0  0  0
   -2.0987   -2.2456    0.5060 H   0  0  0  0  0  0  0  0  0  0  0  0
   -3.6308   -0.3235    0.2136 H   0  0  0  0  0  0  0  0  0  0  0  0
   -2.7023    1.9118   -0.3128 H   0  0  0  0  0  0  0  0  0  0  0  0
   -0.2705    2.2136   -0.5518 H   0  0  0  0  0  0  0  0  0  0  0  0
    1.8327    1.4499    1.6444 H   0  0  0  0  0  0  0  0  0  0  0  0
    2.1302   -0.2853    1.7874 H   0  0  0  0  0  0  0  0  0  0  0  0
    3.3630    0.7786    1.0916 H   0  0  0  0  0  0  0  0  0  0  0  0
  1  2  1  0
  1 10  1  0
  2  3  1  0
  2  9  1  0
  2 11  1  6
  3  4  2  0
  3  8  1  0
  4  5  1  0
  4 12  1  0
  5  6  2  0
  5 13  1  0
  6  7  1  0
  6 14  1  0
  7  8  2  0
  7 15  1  0
  8 16  1  0
  9 17  1  0
  9 18  1  0
  9 19  1  0
M  END
