
     RDKit          3D

 38 40  0  0  0  0  0  0  0  0999 V2000
   -2.7433    1.0200    0.0268 C   0  0  0  0  0  0  0  0  0  0  0  0
   -3.6872    1.1446   -0.9924 C   0  0  0  0  0  0  0  0  0  0  0  0
   -4.5411    2.2364   -1.0318 C   0  0  0  0  0  0  0  0  0  0  0  0
   -4.4659    3.2193   -0.0520 C   0  0  0  0  0  0  0  0  0  0  0  0
   -3.5285    3.1046    0.9648 C   0  0  0  0  0  0  0  0  0  0  0  0
   -2.6722    2.0117    1.0029 C   0  0  0  0  0  0  0  0  0  0  0  0
   -2.2209   -1.4620    0.1606 C   0  0  0  0  0  0  0  0  0  0  0  0
   -1.3616   -2.5347    0.1733 C   0  0  0  0  0  0  0  0  0  0  0  0
    0.0012   -2.2435    0.0736 C   0  0  0  0  0  0  0  0  0  0  0  0
    0.4683   -0.9249   -0.0212 C   0  0  0  0  0  0  0  0  0  0  0  0
   -0.4359    0.1382   -0.0303 C   0  0  0  0  0  0  0  0  0  0  0  0
   -1.7919   -0.1144    0.0510 C   0  0  0  0  0  0  0  0  0  0  0  0
    1.0927   -3.0313    0.0564 N   0  0  0  0  0  0  0  0  0  0  0  0
    2.2334   -2.3280   -0.0486 N   0  0  0  0  0  0  0  0  0  0  0  0
    1.8871   -1.0689   -0.0932 C   0  0  0  0  0  0  0  0  0  0  0  0
    2.7699   -0.0102   -0.2042 N   0  0  0  0  0  0  0  0  0  0  0  0
    4.1230   -0.0358   -0.0193 C   0  0  0  0  0  0  0  0  0  0  0  0
    4.7780    1.3155   -0.2033 C   0  0  0  0  0  0  0  0  0  0  0  0
    6.2758    1.3131    0.0556 C   0  0  0  0  0  0  0  0  0  0  0  0
    6.8825    2.6924   -0.1613 C   0  0  0  0  0  0  0  0  0  0  0  0
    4.7315   -1.0472    0.2617 O   0  0  0  0  0  0  0  0  0  0  0  0
   -3.7457    0.3922   -1.7687 H   0  0  0  0  0  0  0  0  0  0  0  0
   -5.2636    2.3231   -1.8328 H   0  0  0  0  0  0  0  0  0  0  0  0
   -5.1329    4.0709   -0.0836 H   0  0  0  0  0  0  0  0  0  0  0  0
   -3.4622    3.8646    1.7323 H   0  0  0  0  0  0  0  0  0  0  0  0
   -1.9470    1.9240    1.8025 H   0  0  0  0  0  0  0  0  0  0  0  0
   -1.7233   -3.5494    0.2671 H   0  0  0  0  0  0  0  0  0  0  0  0
   -0.0949    1.1628   -0.1153 H   0  0  0  0  0  0  0  0  0  0  0  0
    2.3541    0.8844   -0.4136 H   0  0  0  0  0  0  0  0  0  0  0  0
    4.5726    1.6600   -1.2226 H   0  0  0  0  0  0  0  0  0  0  0  0
    4.2821    2.0382    0.4533 H   0  0  0  0  0  0  0  0  0  0  0  0
    6.4727    0.9814    1.0773 H   0  0  0  0  0  0  0  0  0  0  0  0
    6.7629    0.5911   -0.6028 H   0  0  0  0  0  0  0  0  0  0  0  0
    7.9545    2.6859    0.0361 H   0  0  0  0  0  0  0  0  0  0  0  0
    6.7378    3.0330   -1.1883 H   0  0  0  0  0  0  0  0  0  0  0  0
    6.4297    3.4349    0.4982 H   0  0  0  0  0  0  0  0  0  0  0  0
    1.1362   -4.0352    0.1113 H   0  0  0  0  0  0  0  0  0  0  0  0
   -3.9135   -1.7946    0.3352 Cl  0  0  0  0  0  0  0  0  0  0  0  0
 12  1  1  0
  1  2  2  0
  1  6  1  0
 38  7  1  0
  2  3  1  0
  2 22  1  0
  3  4  2  0
  3 23  1  0
  5  4  1  0
  4 24  1  0
  6  5  2  0
  5 25  1  0
  6 26  1  0
  8  7  2  0
  7 12  1  0
  8  9  1  0
  8 27  1  0
 13  9  1  0
  9 10  2  0
 15 10  1  0
 10 11  1  0
 12 11  2  0
 11 28  1  0
 13 14  1  0
 14 15  2  0
 15 16  1  0
 16 17  1  0
 16 29  1  0
 17 21  2  0
 17 18  1  0
 19 18  1  0
 18 30  1  0
 18 31  1  0
 19 20  1  0
 19 32  1  0
 19 33  1  0
 20 34  1  0
 20 35  1  0
 20 36  1  0
 13 37  1  0
M  END
