
     RDKit          3D

 60 63  0  0  0  0  0  0  0  0999 V2000
    5.9625    1.1567    0.4721 C   0  0  0  0  0  0  0  0  0  0  0  0
    4.5727    1.1869    0.3438 C   0  0  0  0  0  0  0  0  0  0  0  0
    3.8755    0.1211   -0.2133 C   0  0  0  0  0  0  0  0  0  0  0  0
    4.5930   -0.9854   -0.6524 C   0  0  0  0  0  0  0  0  0  0  0  0
    5.9836   -1.0395   -0.5341 C   0  0  0  0  0  0  0  0  0  0  0  0
    6.6603    0.0371    0.0304 C   0  0  0  0  0  0  0  0  0  0  0  0
    6.5394    2.2247    1.0281 O   0  0  0  0  0  0  0  0  0  0  0  0
    6.5835   -2.1444   -0.9841 O   0  0  0  0  0  0  0  0  0  0  0  0
    7.9431    2.2212    1.2232 C   0  0  0  0  0  0  0  0  0  0  0  0
    7.9921   -2.2512   -0.8727 C   0  0  0  0  0  0  0  0  0  0  0  0
    2.4006    0.1683   -0.3327 C   0  0  0  0  0  0  0  0  0  0  0  0
    1.6043   -0.5138    0.5485 C   0  0  0  0  0  0  0  0  0  0  0  0
    0.2050   -0.4520    0.4246 C   0  0  0  0  0  0  0  0  0  0  0  0
   -0.4014    0.3056   -0.6020 C   0  0  0  0  0  0  0  0  0  0  0  0
    0.4392    0.9954   -1.5053 C   0  0  0  0  0  0  0  0  0  0  0  0
    1.7986    0.9255   -1.3645 C   0  0  0  0  0  0  0  0  0  0  0  0
   -0.6862   -1.1274    1.2862 C   0  0  0  0  0  0  0  0  0  0  0  0
   -1.9783   -1.0631    1.1634 N   0  0  0  0  0  0  0  0  0  0  0  0
   -2.4624   -0.2913    0.1518 C   0  0  0  0  0  0  0  0  0  0  0  0
   -1.7395    0.3763   -0.7251 N   0  0  0  0  0  0  0  0  0  0  0  0
   -3.8038   -0.1973    0.0548 N   0  0  0  0  0  0  0  0  0  0  0  0
   -4.7501   -0.9406    0.8445 C   0  0  1  0  0  0  0  0  0  0  0  0
   -6.0435   -0.1397    1.0363 C   0  0  2  0  0  0  0  0  0  0  0  0
   -7.0557   -1.0170    1.7767 C   0  0  0  0  0  0  0  0  0  0  0  0
   -7.2202   -2.3637    1.0933 C   0  0  0  0  0  0  0  0  0  0  0  0
   -5.9825   -3.0356    0.9728 O   0  0  0  0  0  0  0  0  0  0  0  0
   -5.0430   -2.3083    0.2197 C   0  0  0  0  0  0  0  0  0  0  0  0
   -6.5592    0.3272   -0.2359 N   0  0  0  0  0  0  0  0  0  0  0  0
   -6.9843    1.5902   -0.4605 C   0  0  0  0  0  0  0  0  0  0  0  0
   -7.4953    1.8469   -1.8627 C   0  0  0  0  0  0  0  0  0  0  0  0
   -8.6051    2.8852   -1.9050 C   0  0  0  0  0  0  0  0  0  0  0  0
   -6.9326    2.4705    0.3845 O   0  0  0  0  0  0  0  0  0  0  0  0
    3.7216    2.5772    0.9141 Cl  0  0  0  0  0  0  0  0  0  0  0  0
    3.7769   -2.3253   -1.3748 Cl  0  0  0  0  0  0  0  0  0  0  0  0
    7.7361    0.0047    0.1249 H   0  0  0  0  0  0  0  0  0  0  0  0
    8.1848    3.1653    1.7033 H   0  0  0  0  0  0  0  0  0  0  0  0
    8.2580    1.4019    1.8737 H   0  0  0  0  0  0  0  0  0  0  0  0
    8.4854    2.1570    0.2770 H   0  0  0  0  0  0  0  0  0  0  0  0
    8.5040   -1.4682   -1.4368 H   0  0  0  0  0  0  0  0  0  0  0  0
    8.3190   -2.2145    0.1690 H   0  0  0  0  0  0  0  0  0  0  0  0
    8.2575   -3.2180   -1.2913 H   0  0  0  0  0  0  0  0  0  0  0  0
    2.0417   -1.1010    1.3475 H   0  0  0  0  0  0  0  0  0  0  0  0
   -0.0079    1.5745   -2.3029 H   0  0  0  0  0  0  0  0  0  0  0  0
    2.4338    1.4574   -2.0619 H   0  0  0  0  0  0  0  0  0  0  0  0
   -0.2944   -1.7379    2.0955 H   0  0  0  0  0  0  0  0  0  0  0  0
   -4.1516    0.3155   -0.7414 H   0  0  0  0  0  0  0  0  0  0  0  0
   -4.3220   -1.1043    1.8348 H   0  0  0  0  0  0  0  0  0  0  0  0
   -5.8190    0.7438    1.6328 H   0  0  0  0  0  0  0  0  0  0  0  0
   -6.7085   -1.1696    2.8021 H   0  0  0  0  0  0  0  0  0  0  0  0
   -8.0187   -0.5061    1.8356 H   0  0  0  0  0  0  0  0  0  0  0  0
   -7.8769   -3.0110    1.6757 H   0  0  0  0  0  0  0  0  0  0  0  0
   -7.6869   -2.2391    0.1045 H   0  0  0  0  0  0  0  0  0  0  0  0
   -5.3791   -2.1822   -0.8220 H   0  0  0  0  0  0  0  0  0  0  0  0
   -4.1256   -2.8989    0.1885 H   0  0  0  0  0  0  0  0  0  0  0  0
   -6.7412   -0.3535   -0.9571 H   0  0  0  0  0  0  0  0  0  0  0  0
   -6.6433    2.1916   -2.4575 H   0  0  0  0  0  0  0  0  0  0  0  0
   -7.8272    0.9152   -2.3256 H   0  0  0  0  0  0  0  0  0  0  0  0
   -9.4828    2.5539   -1.3496 H   0  0  0  0  0  0  0  0  0  0  0  0
   -8.2792    3.8346   -1.4839 H   0  0  0  0  0  0  0  0  0  0  0  0
   -8.9136    3.0653   -2.9340 H   0  0  0  0  0  0  0  0  0  0  0  0
 31 30  1  0
 30 29  1  0
 32 29  2  0
 29 28  1  0
 34  4  1  0
 10  8  1  0
 28 23  1  0
  8  5  1  0
  5  4  2  0
  5  6  1  0
  4  3  1  0
 17 18  2  0
 17 13  1  0
 23 22  1  0
 23 24  1  0
 18 19  1  0
 12 13  2  0
 12 11  1  0
 13 14  1  0
 19 21  1  0
 19 20  2  0
 21 22  1  0
 22 27  1  0
  6  1  2  0
  3 11  1  0
  3  2  2  0
 11 16  2  0
 14 20  1  0
 14 15  2  0
 15 16  1  0
 24 25  1  0
  1  2  1  0
  1  7  1  0
  2 33  1  0
 27 26  1  0
  9  7  1  0
 25 26  1  0
  6 35  1  0
  9 36  1  0
  9 37  1  0
  9 38  1  0
 10 39  1  0
 10 40  1  0
 10 41  1  0
 12 42  1  0
 15 43  1  0
 16 44  1  0
 17 45  1  0
 21 46  1  0
 22 47  1  1
 23 48  1  1
 24 49  1  0
 24 50  1  0
 25 51  1  0
 25 52  1  0
 27 53  1  0
 27 54  1  0
 28 55  1  0
 30 56  1  0
 30 57  1  0
 31 58  1  0
 31 59  1  0
 31 60  1  0
M  END
