
     RDKit          3D

 55 57  0  0  0  0  0  0  0  0999 V2000
    5.2223   -0.5198   -1.0464 C   0  0  0  0  0  0  0  0  0  0  0  0
   -2.1087    3.4302    2.2520 C   0  0  0  0  0  0  0  0  0  0  0  0
    6.5264   -0.0444    0.7483 C   0  0  0  0  0  0  0  0  0  0  0  0
    4.0692   -0.1689   -0.2968 C   0  0  0  0  0  0  0  0  0  0  0  0
    0.3424   -0.2990   -1.9619 C   0  0  2  0  0  0  0  0  0  0  0  0
    0.2995    0.5245   -3.2574 C   0  0  0  0  0  0  0  0  0  0  0  0
   -0.7017    0.1935   -0.9785 C   0  0  0  0  0  0  0  0  0  0  0  0
   -0.4831    1.3366   -0.2273 C   0  0  0  0  0  0  0  0  0  0  0  0
   -1.4684    1.8114    0.6381 C   0  0  0  0  0  0  0  0  0  0  0  0
   -2.6810    1.1354    0.7444 C   0  0  0  0  0  0  0  0  0  0  0  0
   -2.9017   -0.0131   -0.0121 C   0  0  0  0  0  0  0  0  0  0  0  0
   -5.2825   -0.3452   -0.6821 C   0  0  0  0  0  0  0  0  0  0  0  0
   -6.4882   -1.0302   -0.5536 C   0  0  0  0  0  0  0  0  0  0  0  0
   -6.6157   -2.0788    0.3444 C   0  0  0  0  0  0  0  0  0  0  0  0
   -5.5334   -2.4571    1.1234 C   0  0  0  0  0  0  0  0  0  0  0  0
   -4.3131   -1.7948    1.0162 C   0  0  0  0  0  0  0  0  0  0  0  0
   -3.1428   -2.2264    1.8531 C   0  0  0  0  0  0  0  0  0  0  0  0
   -4.1959   -0.7347    0.1099 C   0  0  0  0  0  0  0  0  0  0  0  0
   -1.9142   -0.4816   -0.8679 C   0  0  0  0  0  0  0  0  0  0  0  0
   -1.1627    2.9258    1.3306 O   0  0  0  0  0  0  0  0  0  0  0  0
    1.6777   -0.2789   -1.3705 C   0  0  0  0  0  0  0  0  0  0  0  0
    2.7756   -0.2305   -0.8695 C   0  0  0  0  0  0  0  0  0  0  0  0
    4.2921    0.2478    1.0148 C   0  0  0  0  0  0  0  0  0  0  0  0
    3.1441    0.6230    1.8959 C   0  0  0  0  0  0  0  0  0  0  0  0
    5.5082    0.3144    1.5405 N   0  0  0  0  0  0  0  0  0  0  0  0
    7.7561   -0.0097    1.2943 N   0  0  0  0  0  0  0  0  0  0  0  0
    6.4383   -0.4541   -0.5148 N   0  0  0  0  0  0  0  0  0  0  0  0
    5.1209   -0.9162   -2.3196 N   0  0  0  0  0  0  0  0  0  0  0  0
   -1.6637    4.3163    2.6976 H   0  0  0  0  0  0  0  0  0  0  0  0
   -3.0448    3.7153    1.7649 H   0  0  0  0  0  0  0  0  0  0  0  0
   -2.3299    2.7109    3.0451 H   0  0  0  0  0  0  0  0  0  0  0  0
    0.0961   -1.3349   -2.2172 H   0  0  0  0  0  0  0  0  0  0  0  0
    1.0087    0.1347   -3.9872 H   0  0  0  0  0  0  0  0  0  0  0  0
   -0.6981    0.4811   -3.6942 H   0  0  0  0  0  0  0  0  0  0  0  0
    0.5449    1.5685   -3.0630 H   0  0  0  0  0  0  0  0  0  0  0  0
    0.4581    1.8699   -0.2980 H   0  0  0  0  0  0  0  0  0  0  0  0
   -3.4623    1.4793    1.4093 H   0  0  0  0  0  0  0  0  0  0  0  0
   -4.9534    1.7348   -1.1549 H   0  0  0  0  0  0  0  0  0  0  0  0
   -4.3429    0.6263   -2.3648 H   0  0  0  0  0  0  0  0  0  0  0  0
   -6.0775    0.9115   -2.2318 H   0  0  0  0  0  0  0  0  0  0  0  0
   -7.3338   -0.7382   -1.1652 H   0  0  0  0  0  0  0  0  0  0  0  0
   -7.5590   -2.6021    0.4362 H   0  0  0  0  0  0  0  0  0  0  0  0
   -5.6330   -3.2775    1.8241 H   0  0  0  0  0  0  0  0  0  0  0  0
   -2.3764   -2.7084    1.2430 H   0  0  0  0  0  0  0  0  0  0  0  0
   -2.6639   -1.3813    2.3484 H   0  0  0  0  0  0  0  0  0  0  0  0
   -3.4483   -2.9370    2.6201 H   0  0  0  0  0  0  0  0  0  0  0  0
   -2.0884   -1.3780   -1.4519 H   0  0  0  0  0  0  0  0  0  0  0  0
    2.5972   -0.2707    2.2042 H   0  0  0  0  0  0  0  0  0  0  0  0
    3.4963    1.1316    2.7904 H   0  0  0  0  0  0  0  0  0  0  0  0
    2.4323    1.2646    1.3770 H   0  0  0  0  0  0  0  0  0  0  0  0
    7.8850    0.4556    2.1753 H   0  0  0  0  0  0  0  0  0  0  0  0
    8.5604   -0.1099    0.7004 H   0  0  0  0  0  0  0  0  0  0  0  0
    4.2256   -1.0570   -2.7537 H   0  0  0  0  0  0  0  0  0  0  0  0
    5.9426   -1.2052   -2.8212 H   0  0  0  0  0  0  0  0  0  0  0  0
   -5.1592    0.7891   -1.6592 C   0  0  0  0  0  0  0  0  0  0  0  0
  1  4  2  0
  1 27  1  0
  1 28  1  0
  2 20  1  0
  3 25  1  0
  3 26  1  0
  3 27  2  0
  4 22  1  0
  4 23  1  0
  5  6  1  0
  5  7  1  0
  5 21  1  0
  7  8  2  0
  7 19  1  0
  8  9  1  0
  9 10  2  0
  9 20  1  0
 10 11  1  0
 11 18  1  0
 11 19  2  0
 55 12  1  0
 12 13  2  0
 12 18  1  0
 13 14  1  0
 14 15  2  0
 15 16  1  0
 16 17  1  0
 16 18  2  0
 21 22  3  0
 23 24  1  0
 23 25  2  0
  2 29  1  0
  2 30  1  0
  2 31  1  0
  5 32  1  6
  6 33  1  0
  6 34  1  0
  6 35  1  0
  8 36  1  0
 10 37  1  0
 55 38  1  0
 55 39  1  0
 55 40  1  0
 13 41  1  0
 14 42  1  0
 15 43  1  0
 17 44  1  0
 17 45  1  0
 17 46  1  0
 19 47  1  0
 24 48  1  0
 24 49  1  0
 24 50  1  0
 26 51  1  0
 26 52  1  0
 28 53  1  0
 28 54  1  0
M  END
