
     RDKit          3D

 44 47  0  0  0  0  0  0  0  0999 V2000
   -2.2240    1.4226   -0.3472 C   0  0  2  0  0  0  0  0  0  0  0  0
   -3.6832    1.4143    0.0829 C   0  0  2  0  0  0  0  0  0  0  0  0
   -4.3829    0.1891   -0.4877 C   0  0  1  0  0  0  0  0  0  0  0  0
   -3.6420   -1.0744   -0.0422 C   0  0  2  0  0  0  0  0  0  0  0  0
   -2.2755   -1.0075   -0.4339 O   0  0  0  0  0  0  0  0  0  0  0  0
   -1.5305    0.0974   -0.0177 C   0  0  1  0  0  0  0  0  0  0  0  0
   -0.2651    0.0354   -0.7044 N   0  0  0  0  0  0  0  0  0  0  0  0
    0.6566   -0.0189    0.1762 C   0  0  0  0  0  0  0  0  0  0  0  0
    0.2011   -0.0306    1.4852 N   0  0  0  0  0  0  0  0  0  0  0  0
   -1.1595    0.0172    1.4846 C   0  0  0  0  0  0  0  0  0  0  0  0
   -1.8876   -0.0165    2.4463 O   0  0  0  0  0  0  0  0  0  0  0  0
    2.0832   -0.0759   -0.1416 C   0  0  0  0  0  0  0  0  0  0  0  0
    2.4655   -0.2409   -1.4970 C   0  0  0  0  0  0  0  0  0  0  0  0
    3.7829   -0.2921   -1.8412 C   0  0  0  0  0  0  0  0  0  0  0  0
    4.7975   -0.1764   -0.8593 C   0  0  0  0  0  0  0  0  0  0  0  0
    4.4198   -0.0065    0.4969 C   0  0  0  0  0  0  0  0  0  0  0  0
    3.0477    0.0404    0.8284 C   0  0  0  0  0  0  0  0  0  0  0  0
    6.1705   -0.2232   -1.1878 C   0  0  0  0  0  0  0  0  0  0  0  0
    7.1228   -0.1029   -0.2114 C   0  0  0  0  0  0  0  0  0  0  0  0
    6.7471    0.0680    1.1373 C   0  0  0  0  0  0  0  0  0  0  0  0
    5.4246    0.1149    1.4848 C   0  0  0  0  0  0  0  0  0  0  0  0
   -1.4786    2.4300    0.2815 O   0  0  0  0  0  0  0  0  0  0  0  0
   -4.2460    2.6141   -0.3929 O   0  0  0  0  0  0  0  0  0  0  0  0
   -5.7095    0.1981   -0.0118 O   0  0  0  0  0  0  0  0  0  0  0  0
   -4.2135   -2.3192   -0.6855 C   0  0  0  0  0  0  0  0  0  0  0  0
   -3.5746   -3.4488   -0.1429 O   0  0  0  0  0  0  0  0  0  0  0  0
   -2.1959    1.5295   -1.4429 H   0  0  0  0  0  0  0  0  0  0  0  0
   -3.7432    1.3693    1.1798 H   0  0  0  0  0  0  0  0  0  0  0  0
   -4.3535    0.2497   -1.5853 H   0  0  0  0  0  0  0  0  0  0  0  0
   -3.7328   -1.1710    1.0476 H   0  0  0  0  0  0  0  0  0  0  0  0
    0.7603   -0.1597    2.3151 H   0  0  0  0  0  0  0  0  0  0  0  0
    1.6988   -0.3290   -2.2540 H   0  0  0  0  0  0  0  0  0  0  0  0
    4.0665   -0.4230   -2.8781 H   0  0  0  0  0  0  0  0  0  0  0  0
    2.7908    0.1844    1.8706 H   0  0  0  0  0  0  0  0  0  0  0  0
    6.4603   -0.3558   -2.2230 H   0  0  0  0  0  0  0  0  0  0  0  0
    8.1726   -0.1391   -0.4713 H   0  0  0  0  0  0  0  0  0  0  0  0
    7.5115    0.1616    1.8970 H   0  0  0  0  0  0  0  0  0  0  0  0
    5.1339    0.2457    2.5200 H   0  0  0  0  0  0  0  0  0  0  0  0
   -1.9144    3.2753    0.1281 H   0  0  0  0  0  0  0  0  0  0  0  0
   -5.1321    2.6986   -0.0264 H   0  0  0  0  0  0  0  0  0  0  0  0
   -6.2889   -0.1737   -0.6820 H   0  0  0  0  0  0  0  0  0  0  0  0
   -5.2929   -2.3387   -0.4944 H   0  0  0  0  0  0  0  0  0  0  0  0
   -4.0798   -2.2542   -1.7742 H   0  0  0  0  0  0  0  0  0  0  0  0
   -3.9796   -4.2323   -0.5255 H   0  0  0  0  0  0  0  0  0  0  0  0
 23  2  1  0
 24  3  1  0
  2  3  1  0
  2  1  1  0
  3  4  1  0
 22  1  1  0
  1  6  1  0
 26 25  1  0
  4 25  1  0
  4  5  1  0
  6  5  1  0
  6  7  1  6
  6 10  1  0
 11 10  2  0
  7  8  2  0
 10  9  1  0
  8  9  1  0
  8 12  1  0
 13 12  2  0
 13 14  1  0
 12 17  1  0
 14 15  2  0
 17 16  2  0
 15 16  1  0
 15 18  1  0
 16 21  1  0
 18 19  2  0
 21 20  2  0
 19 20  1  0
  1 27  1  6
  2 28  1  1
  3 29  1  6
  4 30  1  1
  9 31  1  0
 13 32  1  0
 14 33  1  0
 17 34  1  0
 18 35  1  0
 19 36  1  0
 20 37  1  0
 21 38  1  0
 22 39  1  0
 23 40  1  0
 24 41  1  0
 25 42  1  0
 25 43  1  0
 26 44  1  0
M  END
