
     RDKit          3D

 61 64  0  0  0  0  0  0  0  0999 V2000
   -0.2332    0.4229   -0.6206 C   0  0  0  0  0  0  0  0  0  0  0  0
   -1.5856    0.6470   -0.2212 C   0  0  0  0  0  0  0  0  0  0  0  0
    0.9615    1.2195   -0.3315 C   0  0  0  0  0  0  0  0  0  0  0  0
   -0.1475   -0.6803   -1.3288 N   0  0  0  0  0  0  0  0  0  0  0  0
   -2.2965   -0.4322   -0.7712 C   0  0  0  0  0  0  0  0  0  0  0  0
   -2.2871    1.5764    0.5612 C   0  0  0  0  0  0  0  0  0  0  0  0
    2.2011    0.5852   -0.2318 C   0  0  0  0  0  0  0  0  0  0  0  0
    0.8716    2.5958   -0.1707 C   0  0  0  0  0  0  0  0  0  0  0  0
   -1.3782   -1.1850   -1.4175 N   0  0  0  0  0  0  0  0  0  0  0  0
   -3.6705   -0.6197   -0.6025 C   0  0  0  0  0  0  0  0  0  0  0  0
   -3.6378    1.4176    0.7279 C   0  0  0  0  0  0  0  0  0  0  0  0
    3.3510    1.3254    0.0303 C   0  0  0  0  0  0  0  0  0  0  0  0
    2.0177    3.3368    0.0984 C   0  0  0  0  0  0  0  0  0  0  0  0
   -4.3456    0.3290    0.1468 C   0  0  0  0  0  0  0  0  0  0  0  0
    3.2496    2.7081    0.1991 C   0  0  0  0  0  0  0  0  0  0  0  0
    4.6262    0.7754    0.1524 N   0  0  0  0  0  0  0  0  0  0  0  0
    1.8751    4.8079    0.2574 C   0  0  0  0  0  0  0  0  0  0  0  0
   -5.7003    0.2644    0.4130 N   0  0  0  0  0  0  0  0  0  0  0  0
    5.0390   -0.5102   -0.0322 C   0  0  0  0  0  0  0  0  0  0  0  0
    3.0263    5.4195    0.4901 O   0  0  0  0  0  0  0  0  0  0  0  0
   -6.6554   -0.5087   -0.2207 C   0  0  0  0  0  0  0  0  0  0  0  0
    6.5287   -0.6877    0.1690 C   0  0  0  0  0  0  0  0  0  0  0  0
    4.2925   -1.4226   -0.3308 O   0  0  0  0  0  0  0  0  0  0  0  0
   -7.7471   -1.0137    0.4965 C   0  0  0  0  0  0  0  0  0  0  0  0
   -6.6136   -0.7745   -1.5931 C   0  0  0  0  0  0  0  0  0  0  0  0
    7.0026   -2.1220    0.0087 C   0  0  0  0  0  0  0  0  0  0  0  0
   -8.7450   -1.7536   -0.1161 C   0  0  0  0  0  0  0  0  0  0  0  0
   -7.8604   -0.7044    2.2011 Cl  0  0  0  0  0  0  0  0  0  0  0  0
   -7.5965   -1.5325   -2.2054 C   0  0  0  0  0  0  0  0  0  0  0  0
    8.5049   -2.2167    0.2425 C   0  0  0  0  0  0  0  0  0  0  0  0
   -8.6676   -2.0262   -1.4727 C   0  0  0  0  0  0  0  0  0  0  0  0
    9.0522   -3.5317   -0.0323 N   0  0  0  0  0  0  0  0  0  0  0  0
   10.4984   -3.4944   -0.0503 C   0  0  0  0  0  0  0  0  0  0  0  0
    8.5815   -4.5373    0.8962 C   0  0  0  0  0  0  0  0  0  0  0  0
    0.8190    5.3875    0.1802 O   0  0  0  0  0  0  0  0  0  0  0  0
   -1.7886    2.4108    1.0356 H   0  0  0  0  0  0  0  0  0  0  0  0
    2.2540   -0.4843   -0.3506 H   0  0  0  0  0  0  0  0  0  0  0  0
   -0.0763    3.1029   -0.2842 H   0  0  0  0  0  0  0  0  0  0  0  0
   -1.5300   -2.0338   -1.9373 H   0  0  0  0  0  0  0  0  0  0  0  0
   -4.1652   -1.4838   -1.0232 H   0  0  0  0  0  0  0  0  0  0  0  0
   -4.1903    2.1374    1.3195 H   0  0  0  0  0  0  0  0  0  0  0  0
    4.1446    3.2802    0.4076 H   0  0  0  0  0  0  0  0  0  0  0  0
    5.3514    1.4373    0.3872 H   0  0  0  0  0  0  0  0  0  0  0  0
   -6.0074    0.7776    1.2238 H   0  0  0  0  0  0  0  0  0  0  0  0
    2.8844    6.3738    0.5779 H   0  0  0  0  0  0  0  0  0  0  0  0
    6.7896   -0.3083    1.1628 H   0  0  0  0  0  0  0  0  0  0  0  0
    7.0475   -0.0347   -0.5411 H   0  0  0  0  0  0  0  0  0  0  0  0
   -5.8084   -0.3653   -2.1880 H   0  0  0  0  0  0  0  0  0  0  0  0
    6.7770   -2.4867   -0.9959 H   0  0  0  0  0  0  0  0  0  0  0  0
    6.4630   -2.7624    0.7091 H   0  0  0  0  0  0  0  0  0  0  0  0
   -9.5736   -2.1252    0.4716 H   0  0  0  0  0  0  0  0  0  0  0  0
   -7.5309   -1.7219   -3.2685 H   0  0  0  0  0  0  0  0  0  0  0  0
    8.7367   -1.8866    1.2719 H   0  0  0  0  0  0  0  0  0  0  0  0
    9.0042   -1.5056   -0.4229 H   0  0  0  0  0  0  0  0  0  0  0  0
   -9.4409   -2.6128   -1.9491 H   0  0  0  0  0  0  0  0  0  0  0  0
   10.8940   -4.4756   -0.3174 H   0  0  0  0  0  0  0  0  0  0  0  0
   10.8478   -2.7791   -0.7966 H   0  0  0  0  0  0  0  0  0  0  0  0
   10.9408   -3.2108    0.9185 H   0  0  0  0  0  0  0  0  0  0  0  0
    7.4988   -4.6479    0.8406 H   0  0  0  0  0  0  0  0  0  0  0  0
    9.0185   -5.5043    0.6431 H   0  0  0  0  0  0  0  0  0  0  0  0
    8.8439   -4.3156    1.9435 H   0  0  0  0  0  0  0  0  0  0  0  0
  1  2  1  0
  1  3  1  0
  1  4  2  0
  2  5  2  0
  2  6  1  0
  3  7  2  0
  3  8  1  0
  4  9  1  0
  5  9  1  0
  5 10  1  0
  6 11  2  0
  6 36  1  0
  7 12  1  0
  7 37  1  0
  8 13  2  0
  8 38  1  0
  9 39  1  0
 10 14  2  0
 10 40  1  0
 11 14  1  0
 11 41  1  0
 12 15  2  0
 12 16  1  0
 13 15  1  0
 13 17  1  0
 14 18  1  0
 15 42  1  0
 16 19  1  0
 16 43  1  0
 17 20  1  0
 17 35  2  0
 18 21  1  0
 18 44  1  0
 19 22  1  0
 19 23  2  0
 20 45  1  0
 21 24  2  0
 21 25  1  0
 22 26  1  0
 22 46  1  0
 22 47  1  0
 24 27  1  0
 24 28  1  0
 25 29  2  0
 25 48  1  0
 26 30  1  0
 26 49  1  0
 26 50  1  0
 27 31  2  0
 27 51  1  0
 29 31  1  0
 29 52  1  0
 30 32  1  0
 30 53  1  0
 30 54  1  0
 31 55  1  0
 32 33  1  0
 32 34  1  0
 33 56  1  0
 33 57  1  0
 33 58  1  0
 34 59  1  0
 34 60  1  0
 34 61  1  0
M  END
