
     RDKit          3D

 13 12  0  0  0  0  0  0  0  0999 V2000
   -0.4523    0.0916   -0.5295 N   0  0  0  0  0  0  0  0  0  0  0  0
    0.1301   -0.0209   -1.8503 C   0  0  0  0  0  0  0  0  0  0  0  0
    0.5312   -0.0493    0.5276 C   0  0  0  0  0  0  0  0  0  0  0  0
   -0.1146    0.0356    1.8988 C   0  0  0  0  0  0  0  0  0  0  0  0
   -1.1534   -0.6307   -0.4182 H   0  0  0  0  0  0  0  0  0  0  0  0
   -0.6510    0.0341   -2.6087 H   0  0  0  0  0  0  0  0  0  0  0  0
    0.8160    0.8107   -2.0253 H   0  0  0  0  0  0  0  0  0  0  0  0
    0.6964   -0.9490   -2.0154 H   0  0  0  0  0  0  0  0  0  0  0  0
    1.2634    0.7566    0.4192 H   0  0  0  0  0  0  0  0  0  0  0  0
    1.1013   -0.9892    0.4486 H   0  0  0  0  0  0  0  0  0  0  0  0
    0.6344   -0.0579    2.6851 H   0  0  0  0  0  0  0  0  0  0  0  0
   -0.6292    0.9879    2.0315 H   0  0  0  0  0  0  0  0  0  0  0  0
   -0.8444   -0.7640    2.0431 H   0  0  0  0  0  0  0  0  0  0  0  0
  1  2  1  0
  1  3  1  0
  1  5  1  0
  2  6  1  0
  2  7  1  0
  2  8  1  0
  3  4  1  0
  3  9  1  0
  3 10  1  0
  4 11  1  0
  4 12  1  0
  4 13  1  0
M  END
