
     RDKit          3D

 33 33  0  0  0  0  0  0  0  0999 V2000
   -2.5172    1.3795    1.4578 O   0  0  0  0  0  0  0  0  0  0  0  0
   -4.3903   -0.4039    1.9057 O   0  0  0  0  0  0  0  0  0  0  0  0
    4.8764   -0.3712    1.8040 O   0  0  0  0  0  0  0  0  0  0  0  0
    0.1276    1.8979    1.4153 O   0  0  0  0  0  0  0  0  0  0  0  0
   -3.5808   -2.2067    0.1826 O   0  0  0  0  0  0  0  0  0  0  0  0
   -5.9765   -1.1562    0.2053 O   0  0  0  0  0  0  0  0  0  0  0  0
    6.2251   -0.0715   -0.3752 O   0  0  0  0  0  0  0  0  0  0  0  0
    4.6630   -2.1451    0.0395 O   0  0  0  0  0  0  0  0  0  0  0  0
   -0.4439    0.4937   -1.8846 C   0  0  0  0  0  0  0  0  0  0  0  0
   -1.7761    0.2763   -1.8144 C   0  0  0  0  0  0  0  0  0  0  0  0
    2.4602    0.0708   -0.3073 C   0  0  0  0  0  0  0  0  0  0  0  0
    1.7327    1.2823   -0.8677 C   0  0  0  0  0  0  0  0  0  0  0  0
   -3.9185    0.3979   -0.6580 C   0  0  0  0  0  0  0  0  0  0  0  0
    3.8679    0.2953   -0.4593 O   0  0  0  0  0  0  0  0  0  0  0  0
   -1.8764    1.1259    0.4163 C   0  0  0  0  0  0  0  0  0  0  0  0
    0.2500    1.0686   -0.7919 C   0  0  0  0  0  0  0  0  0  0  0  0
   -0.4632    1.3721    0.3329 C   0  0  0  0  0  0  0  0  0  0  0  0
   -2.4775    0.6062   -0.6912 N   0  0  0  0  0  0  0  0  0  0  0  0
   -4.3979   -0.9966    0.4301 P   0  0  1  0  0  0  0  0  0  0  0  0
    4.8979   -0.7033    0.2403 P   0  0  1  0  0  0  0  0  0  0  0  0
   -0.5424    2.0479    2.0981 H   0  0  0  0  0  0  0  0  0  0  0  0
    0.0860    0.2322   -2.7892 H   0  0  0  0  0  0  0  0  0  0  0  0
   -2.3455   -0.1464   -2.6274 H   0  0  0  0  0  0  0  0  0  0  0  0
    2.2041   -0.0682    0.7465 H   0  0  0  0  0  0  0  0  0  0  0  0
    2.1705   -0.8321   -0.8492 H   0  0  0  0  0  0  0  0  0  0  0  0
    2.0281    2.1763   -0.3163 H   0  0  0  0  0  0  0  0  0  0  0  0
    2.0223    1.4286   -1.9101 H   0  0  0  0  0  0  0  0  0  0  0  0
   -4.4255    1.3158   -0.3580 H   0  0  0  0  0  0  0  0  0  0  0  0
   -4.2475    0.1622   -1.6687 H   0  0  0  0  0  0  0  0  0  0  0  0
   -3.7260    0.3312    1.9625 H   0  0  0  0  0  0  0  0  0  0  0  0
    5.0756    0.5444    2.0413 H   0  0  0  0  0  0  0  0  0  0  0  0
   -6.2084   -1.8136   -0.4638 H   0  0  0  0  0  0  0  0  0  0  0  0
    7.0211   -0.5914   -0.1999 H   0  0  0  0  0  0  0  0  0  0  0  0
  1 15  2  0
 19  2  1  1
 20  3  1  1
  4 17  1  0
  4 21  1  0
  5 19  2  0
  6 19  1  0
  7 20  1  0
  8 20  2  0
  9 10  2  0
  9 16  1  0
  9 22  1  0
 10 18  1  0
 10 23  1  0
 11 12  1  0
 11 14  1  0
 11 24  1  0
 11 25  1  0
 12 16  1  0
 12 26  1  0
 12 27  1  0
 13 18  1  0
 13 19  1  0
 13 28  1  0
 13 29  1  0
 14 20  1  0
 15 17  1  0
 15 18  1  0
 16 17  2  0
  2 30  1  0
  3 31  1  0
  6 32  1  0
  7 33  1  0
M  END
