
     RDKit          3D

 20 20  0  0  0  0  0  0  0  0999 V2000
    3.4059   -0.0494    0.0517 O   0  0  0  0  0  0  0  0  0  0  0  0
    0.0042    3.6387   -0.0247 C   0  0  0  0  0  0  0  0  0  0  0  0
   -0.0135    2.1405   -0.0041 C   0  0  0  0  0  0  0  0  0  0  0  0
   -1.2185    1.4434   -0.0003 C   0  0  0  0  0  0  0  0  0  0  0  0
   -1.2506    0.0651    0.0557 C   0  0  0  0  0  0  0  0  0  0  0  0
   -0.0829   -0.7170    0.0759 C   0  0  0  0  0  0  0  0  0  0  0  0
    1.1249    0.0086    0.0484 C   0  0  0  0  0  0  0  0  0  0  0  0
    1.1513    1.4003    0.0174 C   0  0  0  0  0  0  0  0  0  0  0  0
    2.3870   -0.6863    0.0445 N   0  0  0  0  0  0  0  0  0  0  0  0
    2.3723   -1.9096    0.0342 O   0  0  0  0  0  0  0  0  0  0  0  0
   -2.5544   -0.5742    0.0832 N   0  0  0  0  0  0  0  0  0  0  0  0
   -3.4388   -0.0523   -0.5542 O   0  0  0  0  0  0  0  0  0  0  0  0
   -2.6900   -1.5676    0.7528 O   0  0  0  0  0  0  0  0  0  0  0  0
   -0.2853    4.0455    0.9451 H   0  0  0  0  0  0  0  0  0  0  0  0
    0.9956    4.0190   -0.2633 H   0  0  0  0  0  0  0  0  0  0  0  0
   -0.6942    4.0295   -0.7641 H   0  0  0  0  0  0  0  0  0  0  0  0
   -2.1493    1.9953   -0.0263 H   0  0  0  0  0  0  0  0  0  0  0  0
    2.1041    1.9109    0.0026 H   0  0  0  0  0  0  0  0  0  0  0  0
    0.7303   -2.4007    0.0475 H   0  0  0  0  0  0  0  0  0  0  0  0
   -0.1746   -2.0279    0.0781 O   0  0  0  0  0  0  0  0  0  0  0  0
 20  6  1  0
  1  9  2  0
 13 11  2  0
  6  7  2  0
  6  5  1  0
  9  7  1  0
  9 10  1  0
 11 12  1  0
 11  5  1  0
  7  8  1  0
  5  4  2  0
  8  3  2  0
  4  3  1  0
  3  2  1  0
  2 14  1  0
  2 15  1  0
  2 16  1  0
  4 17  1  0
  8 18  1  0
 20 19  1  0
M  CHG  4   9   1  10  -1  11   1  12  -1
M  END
