
     RDKit          3D

 43 48  0  0  0  0  0  0  0  0999 V2000
   -1.4922   -2.5192    0.3110 C   0  0  0  0  0  0  0  0  0  0  0  0
   -2.5401   -1.8563   -0.3547 C   0  0  0  0  0  0  0  0  0  0  0  0
   -3.5079   -2.6828   -0.9445 C   0  0  0  0  0  0  0  0  0  0  0  0
   -0.5308   -0.5176    0.9337 C   0  0  0  0  0  0  0  0  0  0  0  0
   -1.5386    0.2563    0.3254 C   0  0  0  0  0  0  0  0  0  0  0  0
   -2.6037   -0.3730   -0.4275 C   0  0  0  0  0  0  0  0  0  0  0  0
    0.4065    0.3015    1.5077 C   0  0  0  0  0  0  0  0  0  0  0  0
   -1.1837    1.5866    0.5441 C   0  0  0  0  0  0  0  0  0  0  0  0
   -0.4916   -1.8609    0.9268 O   0  0  0  0  0  0  0  0  0  0  0  0
   -1.8114    2.8339    0.1692 C   0  0  0  0  0  0  0  0  0  0  0  0
   -3.4609   -4.0554   -0.8973 C   0  0  0  0  0  0  0  0  0  0  0  0
   -2.3992   -4.6625   -0.2331 C   0  0  0  0  0  0  0  0  0  0  0  0
   -1.4165   -3.9075    0.3700 C   0  0  0  0  0  0  0  0  0  0  0  0
   -0.0229    1.5687    1.2420 N   0  0  0  0  0  0  0  0  0  0  0  0
   -3.4458    0.2317   -1.0623 O   0  0  0  0  0  0  0  0  0  0  0  0
    1.6743   -0.0127    2.2239 C   0  0  0  0  0  0  0  0  0  0  0  0
    2.7792   -0.4085    1.2717 C   0  0  0  0  0  0  0  0  0  0  0  0
    3.3601    0.5717    0.4493 C   0  0  0  0  0  0  0  0  0  0  0  0
    4.3442    0.1664   -0.4144 C   0  0  0  0  0  0  0  0  0  0  0  0
    4.7617   -1.1547   -0.4887 C   0  0  0  0  0  0  0  0  0  0  0  0
    4.2088   -2.1287    0.3018 C   0  0  0  0  0  0  0  0  0  0  0  0
    3.2011   -1.7262    1.1901 C   0  0  0  0  0  0  0  0  0  0  0  0
    5.0728    0.9162   -1.2759 O   0  0  0  0  0  0  0  0  0  0  0  0
    5.8321    0.0003   -2.0551 C   0  0  0  0  0  0  0  0  0  0  0  0
    5.7606   -1.2590   -1.4001 O   0  0  0  0  0  0  0  0  0  0  0  0
   -0.8424    4.2242   -0.2141 S   0  0  0  0  0  0  0  0  0  0  0  0
   -2.2722    5.1268   -0.4660 C   0  0  0  0  0  0  0  0  0  0  0  0
   -3.3549    4.3291   -0.2672 C   0  0  0  0  0  0  0  0  0  0  0  0
   -3.0887    3.0447    0.0930 N   0  0  0  0  0  0  0  0  0  0  0  0
   -4.5378   -2.1254   -1.5809 F   0  0  0  0  0  0  0  0  0  0  0  0
   -4.2390   -4.6406   -1.3680 H   0  0  0  0  0  0  0  0  0  0  0  0
   -2.3466   -5.7417   -0.1885 H   0  0  0  0  0  0  0  0  0  0  0  0
   -0.5900   -4.3756    0.8871 H   0  0  0  0  0  0  0  0  0  0  0  0
    0.4249    2.3901    1.6234 H   0  0  0  0  0  0  0  0  0  0  0  0
    1.9796    0.8569    2.8106 H   0  0  0  0  0  0  0  0  0  0  0  0
    1.4980   -0.8185    2.9381 H   0  0  0  0  0  0  0  0  0  0  0  0
    3.0475    1.6076    0.4995 H   0  0  0  0  0  0  0  0  0  0  0  0
    4.5334   -3.1592    0.2520 H   0  0  0  0  0  0  0  0  0  0  0  0
    2.7424   -2.4703    1.8289 H   0  0  0  0  0  0  0  0  0  0  0  0
    5.4024   -0.0777   -3.0595 H   0  0  0  0  0  0  0  0  0  0  0  0
   -2.2448    6.1685   -0.7431 H   0  0  0  0  0  0  0  0  0  0  0  0
   -4.3802    4.6544   -0.3687 H   0  0  0  0  0  0  0  0  0  0  0  0
    6.8689    0.3314   -2.1076 H   0  0  0  0  0  0  0  0  0  0  0  0
 25 20  1  0
 25 24  1  0
 21 20  2  0
 21 22  1  0
 20 19  1  0
 22 17  2  0
 24 23  1  0
 19 23  1  0
 19 18  2  0
 17 18  1  0
 17 16  1  0
 16  7  1  0
  7  4  2  0
  7 14  1  0
  9  4  1  0
  9  1  1  0
 13  1  2  0
 13 12  1  0
  4  5  1  0
 14  8  1  0
  1  2  1  0
 12 11  2  0
  5  8  2  0
  5  6  1  0
  8 10  1  0
  2  6  1  0
  2  3  2  0
 11  3  1  0
  6 15  2  0
  3 30  1  0
 29 10  2  0
 29 28  1  0
 10 26  1  0
 28 27  2  0
 26 27  1  0
 11 31  1  0
 12 32  1  0
 13 33  1  0
 14 34  1  0
 16 35  1  0
 16 36  1  0
 18 37  1  0
 21 38  1  0
 22 39  1  0
 24 40  1  0
 27 41  1  0
 28 42  1  0
 24 43  1  0
M  END
