
     RDKit          3D

 46 48  0  0  0  0  0  0  0  0999 V2000
   -3.4883   -2.2010   -0.5765 C   0  0  0  0  0  0  0  0  0  0  0  0
   -3.2466   -3.3776    0.1218 C   0  0  0  0  0  0  0  0  0  0  0  0
   -3.6459   -3.4939    1.4457 C   0  0  0  0  0  0  0  0  0  0  0  0
   -4.2903   -2.4295    2.0649 C   0  0  0  0  0  0  0  0  0  0  0  0
   -4.5271   -1.2555    1.3648 C   0  0  0  0  0  0  0  0  0  0  0  0
   -4.1265   -1.1269    0.0370 C   0  0  0  0  0  0  0  0  0  0  0  0
   -4.3417    0.1670   -0.6993 C   0  0  0  0  0  0  0  0  0  0  0  0
   -3.3281    1.2351   -0.2505 C   0  0  2  0  0  0  0  0  0  0  0  0
   -3.5193    2.5224   -1.0387 C   0  0  0  0  0  0  0  0  0  0  0  0
   -4.6421    3.1304   -0.6901 O   0  0  0  0  0  0  0  0  0  0  0  0
   -2.7632    2.9207   -1.8838 O   0  0  0  0  0  0  0  0  0  0  0  0
   -1.9925    0.7311   -0.4152 N   0  0  0  0  0  0  0  0  0  0  0  0
   -0.9452    1.2690    0.2155 C   0  0  0  0  0  0  0  0  0  0  0  0
   -1.0669    2.2728    0.9274 O   0  0  0  0  0  0  0  0  0  0  0  0
    0.3752    0.6185    0.0450 C   0  0  0  0  0  0  0  0  0  0  0  0
    0.4976   -0.6793   -0.4343 C   0  0  0  0  0  0  0  0  0  0  0  0
    1.7366   -1.2639   -0.5916 C   0  0  0  0  0  0  0  0  0  0  0  0
    1.8160   -2.8873   -1.1900 Cl  0  0  0  0  0  0  0  0  0  0  0  0
    2.8969   -0.5673   -0.2743 C   0  0  0  0  0  0  0  0  0  0  0  0
    4.2612   -1.1649   -0.3995 C   0  0  0  0  0  0  0  0  0  0  0  0
    5.1750   -0.5669    0.6468 C   0  0  1  0  0  0  0  0  0  0  0  0
    6.6065   -1.0302    0.5195 C   0  0  0  0  0  0  0  0  0  0  0  0
    5.1775    0.8648    0.5197 O   0  0  0  0  0  0  0  0  0  0  0  0
    4.0349    1.5340    0.3970 C   0  0  0  0  0  0  0  0  0  0  0  0
    4.0755    2.7373    0.4049 O   0  0  0  0  0  0  0  0  0  0  0  0
    2.7944    0.7443    0.1971 C   0  0  0  0  0  0  0  0  0  0  0  0
    1.5338    1.3362    0.4095 C   0  0  0  0  0  0  0  0  0  0  0  0
    1.4538    2.5339    0.9535 O   0  0  0  0  0  0  0  0  0  0  0  0
   -3.1830   -2.1224   -1.6143 H   0  0  0  0  0  0  0  0  0  0  0  0
   -2.7490   -4.2030   -0.3705 H   0  0  0  0  0  0  0  0  0  0  0  0
   -3.4596   -4.4094    1.9922 H   0  0  0  0  0  0  0  0  0  0  0  0
   -4.6106   -2.5162    3.0951 H   0  0  0  0  0  0  0  0  0  0  0  0
   -5.0288   -0.4297    1.8563 H   0  0  0  0  0  0  0  0  0  0  0  0
   -4.2519    0.0084   -1.7770 H   0  0  0  0  0  0  0  0  0  0  0  0
   -5.3472    0.5460   -0.5149 H   0  0  0  0  0  0  0  0  0  0  0  0
   -3.4985    1.4517    0.8070 H   0  0  0  0  0  0  0  0  0  0  0  0
   -4.7755    3.9259   -1.2274 H   0  0  0  0  0  0  0  0  0  0  0  0
   -1.8360    0.0589   -1.1491 H   0  0  0  0  0  0  0  0  0  0  0  0
   -0.3828   -1.2675   -0.6598 H   0  0  0  0  0  0  0  0  0  0  0  0
    4.2267   -2.2452   -0.2613 H   0  0  0  0  0  0  0  0  0  0  0  0
    4.6566   -0.9858   -1.4054 H   0  0  0  0  0  0  0  0  0  0  0  0
    4.7916   -0.8172    1.6418 H   0  0  0  0  0  0  0  0  0  0  0  0
    7.0108   -0.8018   -0.4673 H   0  0  0  0  0  0  0  0  0  0  0  0
    7.2394   -0.5643    1.2743 H   0  0  0  0  0  0  0  0  0  0  0  0
    6.6550   -2.1086    0.6663 H   0  0  0  0  0  0  0  0  0  0  0  0
    0.4918    2.7198    1.1087 H   0  0  0  0  0  0  0  0  0  0  0  0
 25 24  2  0
 23 24  1  0
 23 21  1  0
 24 26  1  0
 22 21  1  0
 21 20  1  0
 28 27  1  0
 26 27  2  0
 26 19  1  0
 27 15  1  0
 20 19  1  0
 19 17  2  0
 14 13  2  0
 15 13  1  0
 15 16  2  0
 13 12  1  0
 17 16  1  0
 17 18  1  0
 11  9  2  0
 12  8  1  0
  9  8  1  0
  9 10  1  0
  8  7  1  0
  7  6  1  0
  5  6  1  0
  5  4  2  0
  6  1  2  0
  4  3  1  0
  1  2  1  0
  3  2  2  0
  1 29  1  0
  2 30  1  0
  3 31  1  0
  4 32  1  0
  5 33  1  0
  7 34  1  0
  7 35  1  0
  8 36  1  1
 10 37  1  0
 12 38  1  0
 16 39  1  0
 20 40  1  0
 20 41  1  0
 21 42  1  1
 22 43  1  0
 22 44  1  0
 22 45  1  0
 28 46  1  0
M  END
