
     RDKit          3D

 34 37  0  0  0  0  0  0  0  0999 V2000
   -0.8076   -0.5577   -0.4541 N   0  0  0  0  0  0  0  0  0  0  0  0
   -2.0637   -1.1131   -0.8995 C   0  0  1  0  0  0  0  0  0  0  0  0
   -3.1435   -0.4109   -1.6511 C   0  0  0  0  0  0  0  0  0  0  0  0
   -2.3690   -1.5269   -2.2999 C   0  0  0  0  0  0  0  0  0  0  0  0
   -1.9108    0.3614    1.3787 N   0  0  0  0  0  0  0  0  0  0  0  0
   -1.9298    0.7572    2.6404 C   0  0  0  0  0  0  0  0  0  0  0  0
   -0.8203    0.7081    3.4630 C   0  0  0  0  0  0  0  0  0  0  0  0
    0.3655    0.1806    2.9674 C   0  0  0  0  0  0  0  0  0  0  0  0
    1.5872    0.0711    3.8272 C   0  0  0  0  0  0  0  0  0  0  0  0
   -0.7934   -0.1335    0.8850 C   0  0  0  0  0  0  0  0  0  0  0  0
    0.3686   -0.2779    1.6498 C   0  0  0  0  0  0  0  0  0  0  0  0
    1.4912   -0.9444    1.1529 N   0  0  0  0  0  0  0  0  0  0  0  0
    2.1312   -0.7732   -0.0383 C   0  0  0  0  0  0  0  0  0  0  0  0
    3.2194   -1.2688   -0.2329 O   0  0  0  0  0  0  0  0  0  0  0  0
    1.4660    0.0536   -1.0783 C   0  0  0  0  0  0  0  0  0  0  0  0
    0.0833    0.0764   -1.3198 C   0  0  0  0  0  0  0  0  0  0  0  0
    2.2931    0.7290   -1.9660 C   0  0  0  0  0  0  0  0  0  0  0  0
    1.7493    1.3950   -3.0477 C   0  0  0  0  0  0  0  0  0  0  0  0
    0.3783    1.3146   -3.2191 C   0  0  0  0  0  0  0  0  0  0  0  0
   -0.4255    0.6839   -2.3808 N   0  0  0  0  0  0  0  0  0  0  0  0
   -2.4177   -1.8075   -0.1466 H   0  0  0  0  0  0  0  0  0  0  0  0
   -4.1634   -0.5881   -1.3348 H   0  0  0  0  0  0  0  0  0  0  0  0
   -2.9437    0.5876   -2.0087 H   0  0  0  0  0  0  0  0  0  0  0  0
   -1.6970   -1.2599   -3.1012 H   0  0  0  0  0  0  0  0  0  0  0  0
   -2.8415   -2.4930   -2.4252 H   0  0  0  0  0  0  0  0  0  0  0  0
   -2.8753    1.1370    3.0102 H   0  0  0  0  0  0  0  0  0  0  0  0
   -0.8769    1.0699    4.4813 H   0  0  0  0  0  0  0  0  0  0  0  0
    1.8125   -0.9660    4.0887 H   0  0  0  0  0  0  0  0  0  0  0  0
    2.4671    0.4782    3.3278 H   0  0  0  0  0  0  0  0  0  0  0  0
    1.4540    0.6100    4.7632 H   0  0  0  0  0  0  0  0  0  0  0  0
    2.0175   -1.5045    1.8072 H   0  0  0  0  0  0  0  0  0  0  0  0
    3.3634    0.7032   -1.8111 H   0  0  0  0  0  0  0  0  0  0  0  0
    2.3667    1.9359   -3.7502 H   0  0  0  0  0  0  0  0  0  0  0  0
   -0.1012    1.7853   -4.0703 H   0  0  0  0  0  0  0  0  0  0  0  0
  1  2  1  0
  1 10  1  0
  1 16  1  0
  2  3  1  0
  2  4  1  0
  2 21  1  1
  3  4  1  0
  3 22  1  0
  3 23  1  0
  4 24  1  0
  4 25  1  0
  5  6  2  0
  5 10  1  0
  6  7  1  0
  6 26  1  0
  7  8  2  0
  7 27  1  0
  8  9  1  0
  8 11  1  0
  9 28  1  0
  9 29  1  0
  9 30  1  0
 10 11  2  0
 11 12  1  0
 12 13  1  0
 12 31  1  0
 13 14  2  0
 13 15  1  0
 15 16  2  0
 15 17  1  0
 16 20  1  0
 17 18  2  0
 17 32  1  0
 18 19  1  0
 18 33  1  0
 19 20  2  0
 19 34  1  0
M  END
