
     RDKit          3D

 26 27  0  0  0  0  0  0  0  0999 V2000
   -1.8424   -0.1060   -0.8536 C   0  0  0  0  0  0  0  0  0  0  0  0
   -1.5389   -0.0793    0.4928 C   0  0  0  0  0  0  0  0  0  0  0  0
   -0.2039    0.0158    0.8703 C   0  0  0  0  0  0  0  0  0  0  0  0
    0.8049    0.0771   -0.0739 C   0  0  0  0  0  0  0  0  0  0  0  0
    0.1979    0.0707    2.5896 S   0  0  2  0  0  0  0  0  0  0  0  0
    0.4921    0.0369   -1.4296 C   0  0  0  0  0  0  0  0  0  0  0  0
   -0.8424   -0.0465   -1.8265 C   0  0  0  0  0  0  0  0  0  0  0  0
   -0.8506    0.7767    3.3126 O   0  0  0  0  0  0  0  0  0  0  0  0
    1.5673    0.5534    2.7164 O   0  0  0  0  0  0  0  0  0  0  0  0
    0.0375   -1.5202    3.0107 N   0  0  0  0  0  0  0  0  0  0  0  0
    1.5989    0.1207   -2.4478 C   0  0  0  0  0  0  0  0  0  0  0  0
   -0.0446    0.3640   -4.1628 C   0  0  0  0  0  0  0  0  0  0  0  0
   -1.2052   -0.0760   -3.2859 C   0  0  0  0  0  0  0  0  0  0  0  0
    1.1487   -0.3455   -3.7409 N   0  0  0  0  0  0  0  0  0  0  0  0
   -2.8792   -0.1680   -1.1617 H   0  0  0  0  0  0  0  0  0  0  0  0
   -2.3284   -0.1245    1.2305 H   0  0  0  0  0  0  0  0  0  0  0  0
    1.8415    0.1538    0.2310 H   0  0  0  0  0  0  0  0  0  0  0  0
   -0.0397   -1.6292    4.0180 H   0  0  0  0  0  0  0  0  0  0  0  0
    0.7947   -2.0957    2.6559 H   0  0  0  0  0  0  0  0  0  0  0  0
    2.4422   -0.4903   -2.1173 H   0  0  0  0  0  0  0  0  0  0  0  0
    1.9621    1.1615   -2.4709 H   0  0  0  0  0  0  0  0  0  0  0  0
   -0.2553    0.1228   -5.2050 H   0  0  0  0  0  0  0  0  0  0  0  0
    0.0692    1.4579   -4.1011 H   0  0  0  0  0  0  0  0  0  0  0  0
   -1.5022   -1.0938   -3.5554 H   0  0  0  0  0  0  0  0  0  0  0  0
   -2.0756    0.5592   -3.4638 H   0  0  0  0  0  0  0  0  0  0  0  0
    1.8887   -0.2147   -4.4170 H   0  0  0  0  0  0  0  0  0  0  0  0
  1  2  2  0
  1  7  1  0
  1 15  1  0
  2  3  1  0
  2 16  1  0
  3  4  2  0
  3  5  1  0
  4  6  1  0
  4 17  1  0
  5  8  2  0
  5  9  2  0
  5 10  1  1
  6  7  2  0
  6 11  1  0
  7 13  1  0
 10 18  1  0
 10 19  1  0
 11 14  1  0
 11 20  1  0
 11 21  1  0
 12 13  1  0
 12 14  1  0
 12 22  1  0
 12 23  1  0
 13 24  1  0
 13 25  1  0
 14 26  1  0
M  END
