
     RDKit          3D

 67 69  0  0  0  0  0  0  0  0999 V2000
   -5.7588    0.5880    0.2495 N   0  0  0  0  0  0  0  0  0  0  0  0
   -4.4389    0.9327    0.6998 C   0  0  0  0  0  0  0  0  0  0  0  0
   -3.4693   -0.2355    0.5912 C   0  0  0  0  0  0  0  0  0  0  0  0
   -3.8217   -1.3934    0.7093 O   0  0  0  0  0  0  0  0  0  0  0  0
    4.4142   -5.8191    0.8902 C   0  0  0  0  0  0  0  0  0  0  0  0
    6.5185   -0.8466   -1.3839 C   0  0  0  0  0  0  0  0  0  0  0  0
    5.8629    3.8849   -0.9321 C   0  0  0  0  0  0  0  0  0  0  0  0
   -9.5473    0.6645   -1.5837 C   0  0  0  0  0  0  0  0  0  0  0  0
   -0.9738   -1.9992    0.4873 C   0  0  0  0  0  0  0  0  0  0  0  0
    0.2440   -2.6670    0.4906 C   0  0  0  0  0  0  0  0  0  0  0  0
    0.1914    0.0788    0.3084 C   0  0  0  0  0  0  0  0  0  0  0  0
    4.2240   -4.3187    0.7149 C   0  0  0  0  0  0  0  0  0  0  0  0
   -8.1427    1.0907    0.3093 C   0  0  0  0  0  0  0  0  0  0  0  0
   -7.2260    0.0747   -1.6331 C   0  0  0  0  0  0  0  0  0  0  0  0
   -6.7556    1.5186    0.7465 C   0  0  0  0  0  0  0  0  0  0  0  0
   -5.8338    0.4895   -1.1969 C   0  0  0  0  0  0  0  0  0  0  0  0
   -1.0162   -0.6108    0.4040 C   0  0  0  0  0  0  0  0  0  0  0  0
    4.6376    0.7011   -0.8485 C   0  0  0  0  0  0  0  0  0  0  0  0
    1.4489   -1.9798    0.3993 C   0  0  0  0  0  0  0  0  0  0  0  0
    1.4099   -0.5816    0.2891 C   0  0  0  0  0  0  0  0  0  0  0  0
    2.6543    0.2025    0.1574 C   0  0  0  0  0  0  0  0  0  0  0  0
    4.8876    1.7556   -0.0138 C   0  0  0  0  0  0  0  0  0  0  0  0
    3.9119    2.0842    0.9969 C   0  0  0  0  0  0  0  0  0  0  0  0
    3.5148   -0.0722   -0.7640 N   0  0  0  0  0  0  0  0  0  0  0  0
   -2.1861    0.1573    0.4029 N   0  0  0  0  0  0  0  0  0  0  0  0
    2.8233    1.2276    1.0197 N   0  0  0  0  0  0  0  0  0  0  0  0
   -8.2177    1.0056   -1.1350 N   0  0  0  0  0  0  0  0  0  0  0  0
    3.9846    3.0050    1.8000 O   0  0  0  0  0  0  0  0  0  0  0  0
    2.6576   -2.5550    0.4403 O   0  0  0  0  0  0  0  0  0  0  0  0
   -4.0340    1.8220    0.1877 H   0  0  0  0  0  0  0  0  0  0  0  0
   -4.4846    1.1925    1.7631 H   0  0  0  0  0  0  0  0  0  0  0  0
    3.9043   -6.1822    1.7839 H   0  0  0  0  0  0  0  0  0  0  0  0
    4.0230   -6.3743    0.0361 H   0  0  0  0  0  0  0  0  0  0  0  0
    5.4704   -6.0670    0.9891 H   0  0  0  0  0  0  0  0  0  0  0  0
    7.1469   -0.4809   -0.5712 H   0  0  0  0  0  0  0  0  0  0  0  0
    5.9384   -1.6896   -1.0061 H   0  0  0  0  0  0  0  0  0  0  0  0
    7.1714   -1.2150   -2.1750 H   0  0  0  0  0  0  0  0  0  0  0  0
    6.7537    4.5134   -0.9532 H   0  0  0  0  0  0  0  0  0  0  0  0
    5.6063    3.6327   -1.9619 H   0  0  0  0  0  0  0  0  0  0  0  0
    5.0459    4.4775   -0.5202 H   0  0  0  0  0  0  0  0  0  0  0  0
   -9.8829   -0.3254   -1.2370 H   0  0  0  0  0  0  0  0  0  0  0  0
  -10.2644    1.4032   -1.2222 H   0  0  0  0  0  0  0  0  0  0  0  0
   -9.5872    0.6655   -2.6742 H   0  0  0  0  0  0  0  0  0  0  0  0
   -1.8781   -2.5806    0.5554 H   0  0  0  0  0  0  0  0  0  0  0  0
    0.2263   -3.7448    0.5717 H   0  0  0  0  0  0  0  0  0  0  0  0
    0.1761    1.1600    0.2277 H   0  0  0  0  0  0  0  0  0  0  0  0
    4.6692   -3.7862    1.5590 H   0  0  0  0  0  0  0  0  0  0  0  0
    4.7416   -3.9796   -0.1860 H   0  0  0  0  0  0  0  0  0  0  0  0
    6.1932    1.0928   -2.2794 H   0  0  0  0  0  0  0  0  0  0  0  0
    5.0249   -0.1235   -2.7560 H   0  0  0  0  0  0  0  0  0  0  0  0
    6.9445    2.0683   -0.5143 H   0  0  0  0  0  0  0  0  0  0  0  0
    6.4080    2.9165    0.9096 H   0  0  0  0  0  0  0  0  0  0  0  0
    2.2887   -4.4855   -0.2232 H   0  0  0  0  0  0  0  0  0  0  0  0
    2.2322   -4.2664    1.5319 H   0  0  0  0  0  0  0  0  0  0  0  0
   -8.3947    0.1283    0.7889 H   0  0  0  0  0  0  0  0  0  0  0  0
   -8.8706    1.8251    0.6631 H   0  0  0  0  0  0  0  0  0  0  0  0
   -7.2662    0.0584   -2.7250 H   0  0  0  0  0  0  0  0  0  0  0  0
   -7.4221   -0.9556   -1.2871 H   0  0  0  0  0  0  0  0  0  0  0  0
   -6.7134    1.5362    1.8382 H   0  0  0  0  0  0  0  0  0  0  0  0
   -6.5682    2.5481    0.3970 H   0  0  0  0  0  0  0  0  0  0  0  0
   -5.5688    1.4466   -1.6778 H   0  0  0  0  0  0  0  0  0  0  0  0
   -5.1207   -0.2572   -1.5524 H   0  0  0  0  0  0  0  0  0  0  0  0
   -2.0408    1.1494    0.2912 H   0  0  0  0  0  0  0  0  0  0  0  0
    2.1331    1.3814    1.7449 H   0  0  0  0  0  0  0  0  0  0  0  0
    5.5999    0.2567   -1.9103 C   0  0  0  0  0  0  0  0  0  0  0  0
    6.1055    2.6271   -0.0984 C   0  0  0  0  0  0  0  0  0  0  0  0
    2.7559   -3.9604    0.6185 C   0  0  0  0  0  0  0  0  0  0  0  0
  7 66  1  0
 66 22  1  0
  6 65  1  0
 65 18  1  0
 22 18  2  0
 22 23  1  0
 18 24  1  0
 28 23  2  0
 23 26  1  0
 24 21  2  0
 26 21  1  0
 21 20  1  0
  5 12  1  0
 20 11  2  0
 20 19  1  0
 29 19  1  0
 29 67  1  0
 12 67  1  0
 11 17  1  0
 19 10  2  0
  4  3  2  0
 17 25  1  0
 17  9  2  0
  3 25  1  0
  3  2  1  0
 10  9  1  0
  2  1  1  0
 16  1  1  0
 16 14  1  0
  1 15  1  0
 15 13  1  0
 14 27  1  0
 27 13  1  0
 27  8  1  0
  2 30  1  0
  2 31  1  0
  5 32  1  0
  5 33  1  0
  5 34  1  0
  6 35  1  0
  6 36  1  0
  6 37  1  0
  7 38  1  0
  7 39  1  0
  7 40  1  0
  8 41  1  0
  8 42  1  0
  8 43  1  0
  9 44  1  0
 10 45  1  0
 11 46  1  0
 12 47  1  0
 12 48  1  0
 65 49  1  0
 65 50  1  0
 66 51  1  0
 66 52  1  0
 67 53  1  0
 67 54  1  0
 13 55  1  0
 13 56  1  0
 14 57  1  0
 14 58  1  0
 15 59  1  0
 15 60  1  0
 16 61  1  0
 16 62  1  0
 25 63  1  0
 26 64  1  0
M  END
