
     RDKit          3D

 50 53  0  0  0  0  0  0  0  0999 V2000
   -6.5549   -2.1759   -0.7643 O   0  0  0  0  0  0  0  0  0  0  0  0
   -4.7428    1.0135   -0.1830 C   0  0  1  0  0  0  0  0  0  0  0  0
   -5.1848    2.4235    0.1455 C   0  0  0  0  0  0  0  0  0  0  0  0
   -5.4062   -1.8116    1.7454 O   0  0  0  0  0  0  0  0  0  0  0  0
   -1.3253   -0.3572   -0.1739 C   0  0  0  0  0  0  0  0  0  0  0  0
   -0.9353    0.6189    0.7394 C   0  0  0  0  0  0  0  0  0  0  0  0
    0.3765    1.0716    0.7408 C   0  0  0  0  0  0  0  0  0  0  0  0
    1.2938    0.5870   -0.1783 C   0  0  0  0  0  0  0  0  0  0  0  0
   -2.5676   -0.8868   -0.2500 O   0  0  0  0  0  0  0  0  0  0  0  0
    0.8967   -0.3691   -1.1065 C   0  0  0  0  0  0  0  0  0  0  0  0
    7.7422   -2.3901    0.5380 O   0  0  0  0  0  0  0  0  0  0  0  0
   -0.4003   -0.8458   -1.0959 C   0  0  0  0  0  0  0  0  0  0  0  0
    2.9762    2.4022   -0.2912 C   0  0  0  0  0  0  0  0  0  0  0  0
    4.3276    2.5327   -0.2354 C   0  0  0  0  0  0  0  0  0  0  0  0
    8.5665   -0.4401    0.2904 O   0  0  0  0  0  0  0  0  0  0  0  0
    4.8563    1.2150   -0.0738 C   0  0  0  0  0  0  0  0  0  0  0  0
    3.7542    0.3288   -0.0388 C   0  0  0  0  0  0  0  0  0  0  0  0
    6.2910   -0.6533    0.2231 C   0  0  0  0  0  0  0  0  0  0  0  0
    6.1458    0.7124    0.0552 C   0  0  0  0  0  0  0  0  0  0  0  0
    5.1952   -1.5313    0.2717 C   0  0  0  0  0  0  0  0  0  0  0  0
    3.9153   -1.0451    0.1419 C   0  0  0  0  0  0  0  0  0  0  0  0
    2.6210    1.0750   -0.1775 N   0  0  0  0  0  0  0  0  0  0  0  0
   -3.4687   -0.7333    0.8240 C   0  0  1  0  0  0  0  0  0  0  0  0
   -3.9728    0.5539    0.9183 O   0  0  0  0  0  0  0  0  0  0  0  0
   -4.0449    3.2377    0.2835 O   0  0  0  0  0  0  0  0  0  0  0  0
   -5.9326    0.0828   -0.4205 C   0  0  1  0  0  0  0  0  0  0  0  0
   -6.5987    0.5260   -1.5779 O   0  0  0  0  0  0  0  0  0  0  0  0
   -5.4308   -1.3477   -0.5890 C   0  0  1  0  0  0  0  0  0  0  0  0
   -4.5824   -1.7649    0.6102 C   0  0  2  0  0  0  0  0  0  0  0  0
   -6.2825   -2.9751   -1.2252 H   0  0  0  0  0  0  0  0  0  0  0  0
   -4.1297    1.0389   -1.0950 H   0  0  0  0  0  0  0  0  0  0  0  0
   -5.8383    2.7746   -0.6598 H   0  0  0  0  0  0  0  0  0  0  0  0
   -5.7870    2.4034    1.0651 H   0  0  0  0  0  0  0  0  0  0  0  0
   -4.9430   -2.2868    2.4420 H   0  0  0  0  0  0  0  0  0  0  0  0
   -1.6283    1.0467    1.4485 H   0  0  0  0  0  0  0  0  0  0  0  0
    0.6771    1.8145    1.4687 H   0  0  0  0  0  0  0  0  0  0  0  0
    1.5975   -0.7454   -1.8407 H   0  0  0  0  0  0  0  0  0  0  0  0
   -0.7051   -1.5981   -1.8119 H   0  0  0  0  0  0  0  0  0  0  0  0
    4.8830    3.4534   -0.3092 H   0  0  0  0  0  0  0  0  0  0  0  0
    6.9985    1.3760    0.0297 H   0  0  0  0  0  0  0  0  0  0  0  0
    5.3466   -2.5912    0.4101 H   0  0  0  0  0  0  0  0  0  0  0  0
    3.0710   -1.7191    0.1805 H   0  0  0  0  0  0  0  0  0  0  0  0
   -2.9511   -0.9242    1.7722 H   0  0  0  0  0  0  0  0  0  0  0  0
   -4.3434    4.1463    0.3805 H   0  0  0  0  0  0  0  0  0  0  0  0
   -6.5951    0.1298    0.4566 H   0  0  0  0  0  0  0  0  0  0  0  0
   -7.3027   -0.1027   -1.7693 H   0  0  0  0  0  0  0  0  0  0  0  0
   -4.7902   -1.3730   -1.4811 H   0  0  0  0  0  0  0  0  0  0  0  0
   -4.1238   -2.7428    0.4099 H   0  0  0  0  0  0  0  0  0  0  0  0
    2.2137    3.1537   -0.4204 H   0  0  0  0  0  0  0  0  0  0  0  0
    7.6244   -1.1982    0.3596 N   0  0  0  0  0  0  0  0  0  0  0  0
 14 13  2  0
 14 16  1  0
 13 22  1  0
 16 19  2  0
 16 17  1  0
 22  8  1  0
 22 17  1  0
 19 18  1  0
  7  8  1  0
  7  6  2  0
  8 10  2  0
 17 21  2  0
  6  5  1  0
 10 12  1  0
 15 50  1  0
  5 12  2  0
  5  9  1  0
 18 50  1  0
 18 20  2  0
  9 23  1  0
 21 20  1  0
 23 29  1  0
 23 24  1  0
 50 11  2  0
 29  4  1  0
 29 28  1  0
 24  2  1  0
 28  1  1  0
 28 26  1  0
  2 26  1  0
  2  3  1  0
 26 27  1  0
  3 25  1  0
  1 30  1  0
  2 31  1  6
  3 32  1  0
  3 33  1  0
  4 34  1  0
  6 35  1  0
  7 36  1  0
 10 37  1  0
 12 38  1  0
 13 49  1  0
 14 39  1  0
 19 40  1  0
 20 41  1  0
 21 42  1  0
 23 43  1  1
 25 44  1  0
 26 45  1  1
 27 46  1  0
 28 47  1  6
 29 48  1  6
M  CHG  2  15  -1  50   1
M  END
