
     RDKit          3D

 19 19  0  0  0  0  0  0  0  0999 V2000
    2.2188    0.3696   -0.5428 C   0  0  0  0  0  0  0  0  0  0  0  0
   -0.2234    0.8630   -0.2320 C   0  0  0  0  0  0  0  0  0  0  0  0
    0.8018   -0.0727   -0.3150 C   0  0  0  0  0  0  0  0  0  0  0  0
   -1.5411    0.4868    0.0215 C   0  0  0  0  0  0  0  0  0  0  0  0
    0.5017   -1.4194   -0.1290 C   0  0  0  0  0  0  0  0  0  0  0  0
   -1.8165   -0.8660    0.2031 C   0  0  0  0  0  0  0  0  0  0  0  0
   -0.8034   -1.8131    0.1264 C   0  0  0  0  0  0  0  0  0  0  0  0
   -2.6340    1.5154    0.0700 C   0  0  0  0  0  0  0  0  0  0  0  0
    2.8237    0.5841    0.7176 O   0  0  0  0  0  0  0  0  0  0  0  0
    2.7536   -0.3973   -1.1158 H   0  0  0  0  0  0  0  0  0  0  0  0
    2.2235    1.2835   -1.1491 H   0  0  0  0  0  0  0  0  0  0  0  0
    1.2896   -2.1610   -0.1869 H   0  0  0  0  0  0  0  0  0  0  0  0
   -2.8329   -1.1832    0.4048 H   0  0  0  0  0  0  0  0  0  0  0  0
   -1.0360   -2.8608    0.2676 H   0  0  0  0  0  0  0  0  0  0  0  0
   -2.9604    1.7873   -0.9357 H   0  0  0  0  0  0  0  0  0  0  0  0
   -3.5074    1.1477    0.6074 H   0  0  0  0  0  0  0  0  0  0  0  0
   -2.3000    2.4310    0.5583 H   0  0  0  0  0  0  0  0  0  0  0  0
    3.7330    0.8583    0.5624 H   0  0  0  0  0  0  0  0  0  0  0  0
    0.0074    1.9140   -0.3749 H   0  0  0  0  0  0  0  0  0  0  0  0
  6  7  2  0
  6  4  1  0
  7  5  1  0
  8  4  1  0
  4  2  2  0
  5  3  2  0
  2  3  1  0
  3  1  1  0
  1  9  1  0
  1 10  1  0
  1 11  1  0
  2 19  1  0
  5 12  1  0
  6 13  1  0
  7 14  1  0
  8 15  1  0
  8 16  1  0
  8 17  1  0
  9 18  1  0
M  END
