
     RDKit          3D

 35 36  0  0  0  0  0  0  0  0999 V2000
    5.1763    0.6813   -0.0134 N   0  0  0  0  0  0  0  0  0  0  0  0
    6.2670   -0.1846   -0.0629 C   0  0  0  0  0  0  0  0  0  0  0  0
    5.8784   -1.5649   -0.0977 C   0  0  0  0  0  0  0  0  0  0  0  0
    4.5640   -1.9138   -0.0804 C   0  0  0  0  0  0  0  0  0  0  0  0
    3.5577   -0.9903   -0.0303 N   0  0  0  0  0  0  0  0  0  0  0  0
    3.8949    0.2545    0.0004 C   0  0  0  0  0  0  0  0  0  0  0  0
    7.4038    0.2591   -0.0737 O   0  0  0  0  0  0  0  0  0  0  0  0
    4.1163   -3.3359   -0.1125 C   0  0  0  0  0  0  0  0  0  0  0  0
    2.7044    1.5359    0.0632 S   0  0  0  0  0  0  0  0  0  0  0  0
    1.1921    0.5470    0.0392 C   0  0  0  0  0  0  0  0  0  0  0  0
    0.0273    1.5026    0.0638 C   0  0  0  0  0  0  0  0  0  0  0  0
    0.2103    2.6973    0.1082 O   0  0  0  0  0  0  0  0  0  0  0  0
   -1.3454    0.9280    0.0310 C   0  0  0  0  0  0  0  0  0  0  0  0
   -1.5671   -0.4448   -0.0173 C   0  0  0  0  0  0  0  0  0  0  0  0
   -2.8590   -0.9483   -0.0523 C   0  0  0  0  0  0  0  0  0  0  0  0
   -3.9232   -0.0639   -0.0347 C   0  0  0  0  0  0  0  0  0  0  0  0
   -3.7247    1.3110    0.0126 C   0  0  0  0  0  0  0  0  0  0  0  0
   -2.4346    1.8018    0.0457 C   0  0  0  0  0  0  0  0  0  0  0  0
   -5.5858   -0.6866   -0.0959 S   0  0  1  0  0  0  0  0  0  0  0  0
   -6.3924    0.1906   -0.9299 O   0  0  0  0  0  0  0  0  0  0  0  0
   -5.5120   -2.0996   -0.4360 O   0  0  0  0  0  0  0  0  0  0  0  0
   -6.0740   -0.4195    1.4549 N   0  0  0  0  0  0  0  0  0  0  0  0
    5.3822    1.6737    0.0102 H   0  0  0  0  0  0  0  0  0  0  0  0
    6.6554   -2.3149   -0.1364 H   0  0  0  0  0  0  0  0  0  0  0  0
    3.5369   -3.5675    0.7826 H   0  0  0  0  0  0  0  0  0  0  0  0
    3.4621   -3.5059   -0.9688 H   0  0  0  0  0  0  0  0  0  0  0  0
    4.9558   -4.0243   -0.1714 H   0  0  0  0  0  0  0  0  0  0  0  0
    1.1656   -0.0757   -0.8563 H   0  0  0  0  0  0  0  0  0  0  0  0
    1.1631   -0.1181    0.9039 H   0  0  0  0  0  0  0  0  0  0  0  0
   -0.7465   -1.1486   -0.0312 H   0  0  0  0  0  0  0  0  0  0  0  0
   -3.0172   -2.0166   -0.0939 H   0  0  0  0  0  0  0  0  0  0  0  0
   -4.5606    1.9969    0.0234 H   0  0  0  0  0  0  0  0  0  0  0  0
   -2.2752    2.8706    0.0805 H   0  0  0  0  0  0  0  0  0  0  0  0
   -7.0853   -0.3561    1.5256 H   0  0  0  0  0  0  0  0  0  0  0  0
   -5.7133   -1.1047    2.1110 H   0  0  0  0  0  0  0  0  0  0  0  0
  1  6  1  0
  2  1  1  0
  2  3  1  0
  3  4  2  0
  4  5  1  0
  4  8  1  0
  6  5  2  0
  6  9  1  0
  7  2  2  0
 10  9  1  0
 10 11  1  0
 11 13  1  0
 12 11  2  0
 13 18  1  0
 13 14  2  0
 14 15  1  0
 15 16  2  0
 16 19  1  0
 17 16  1  0
 18 17  2  0
 19 21  2  0
 20 19  2  0
 19 22  1  1
  1 23  1  0
  3 24  1  0
  8 25  1  0
  8 26  1  0
  8 27  1  0
 10 28  1  0
 10 29  1  0
 14 30  1  0
 15 31  1  0
 17 32  1  0
 18 33  1  0
 22 34  1  0
 22 35  1  0
M  END
