
     RDKit          3D

 32 33  0  0  0  0  0  0  0  0999 V2000
   -7.8889   -0.1644   -0.9038 N   0  0  0  0  0  0  0  0  0  0  0  0
   -6.9229   -0.3009   -0.2859 C   0  0  0  0  0  0  0  0  0  0  0  0
    6.1747   -1.6728   -0.6171 C   0  0  0  0  0  0  0  0  0  0  0  0
    6.5233   -0.5166    0.0720 C   0  0  0  0  0  0  0  0  0  0  0  0
    4.8356   -1.9310   -0.8675 C   0  0  0  0  0  0  0  0  0  0  0  0
    5.5496    0.3698    0.5025 C   0  0  0  0  0  0  0  0  0  0  0  0
    3.8448   -1.0539   -0.4402 C   0  0  0  0  0  0  0  0  0  0  0  0
   -0.2396    0.1876    0.9772 C   0  0  0  0  0  0  0  0  0  0  0  0
    0.1695    1.2852   -1.1274 C   0  0  0  0  0  0  0  0  0  0  0  0
    1.1150    0.2838    1.2777 C   0  0  0  0  0  0  0  0  0  0  0  0
    1.5139    1.3804   -0.8220 C   0  0  0  0  0  0  0  0  0  0  0  0
   -2.9594    0.0806    0.2628 C   0  0  0  0  0  0  0  0  0  0  0  0
   -4.2942    0.1871   -0.4534 C   0  0  0  0  0  0  0  0  0  0  0  0
   -5.5584   -0.5299    0.6641 S   0  0  0  0  0  0  0  0  0  0  0  0
   -0.7162    0.6860   -0.2305 C   0  0  0  0  0  0  0  0  0  0  0  0
    4.2078    0.0996    0.2460 C   0  0  0  0  0  0  0  0  0  0  0  0
    1.9856    0.8802    0.3854 C   0  0  0  0  0  0  0  0  0  0  0  0
    6.9381   -2.3618   -0.9532 H   0  0  0  0  0  0  0  0  0  0  0  0
    7.5636   -0.2978    0.2752 H   0  0  0  0  0  0  0  0  0  0  0  0
    4.5461   -2.8268   -1.4017 H   0  0  0  0  0  0  0  0  0  0  0  0
    5.8235    1.2714    1.0360 H   0  0  0  0  0  0  0  0  0  0  0  0
    2.8076   -1.2834   -0.6443 H   0  0  0  0  0  0  0  0  0  0  0  0
   -0.8954   -0.2824    1.6975 H   0  0  0  0  0  0  0  0  0  0  0  0
   -0.2034    1.6779   -2.0647 H   0  0  0  0  0  0  0  0  0  0  0  0
    1.4823   -0.1069    2.2181 H   0  0  0  0  0  0  0  0  0  0  0  0
    2.1925    1.8534   -1.5208 H   0  0  0  0  0  0  0  0  0  0  0  0
   -2.9857    0.6304    1.2101 H   0  0  0  0  0  0  0  0  0  0  0  0
   -2.7258   -0.9670    0.4818 H   0  0  0  0  0  0  0  0  0  0  0  0
   -4.5522    1.2258   -0.6502 H   0  0  0  0  0  0  0  0  0  0  0  0
   -4.2864   -0.3819   -1.3812 H   0  0  0  0  0  0  0  0  0  0  0  0
    3.3132    1.0150    0.7130 O   0  0  0  0  0  0  0  0  0  0  0  0
   -2.0098    0.6382   -0.6182 O   0  0  0  0  0  0  0  0  0  0  0  0
  2  1  3  0
 14  2  1  0
  5  3  2  0
  3  4  1  0
  3 18  1  0
  4  6  2  0
  4 19  1  0
  5  7  1  0
  5 20  1  0
 16  6  1  0
  6 21  1  0
  7 16  2  0
  7 22  1  0
 15  8  2  0
  8 10  1  0
  8 23  1  0
  9 11  2  0
  9 15  1  0
  9 24  1  0
 17 10  2  0
 10 25  1  0
 11 17  1  0
 11 26  1  0
 12 32  1  0
 12 13  1  0
 12 27  1  0
 12 28  1  0
 14 13  1  0
 13 29  1  0
 13 30  1  0
 32 15  1  0
 16 31  1  0
 17 31  1  0
M  END
