
     RDKit          3D

 34 34  0  0  0  0  0  0  0  0999 V2000
   -2.6281   -1.6419   -0.5523 C   0  0  0  0  0  0  0  0  0  0  0  0
   -3.9355   -1.9782   -0.8722 C   0  0  0  0  0  0  0  0  0  0  0  0
   -4.9930   -1.4105   -0.1713 C   0  0  0  0  0  0  0  0  0  0  0  0
   -4.7305   -0.5073    0.8490 C   0  0  0  0  0  0  0  0  0  0  0  0
   -3.4193   -0.1719    1.1639 C   0  0  0  0  0  0  0  0  0  0  0  0
   -2.3519   -0.7338    0.4688 C   0  0  0  0  0  0  0  0  0  0  0  0
   -0.9305   -0.3548    0.7843 C   0  0  0  0  0  0  0  0  0  0  0  0
   -0.3430    0.6179   -0.2547 C   0  0  1  0  0  0  0  0  0  0  0  0
   -1.2595    1.8188   -0.3583 C   0  0  0  0  0  0  0  0  0  0  0  0
   -1.4463    2.5969    0.5451 O   0  0  0  0  0  0  0  0  0  0  0  0
   -1.8392    1.9284   -1.5443 O   0  0  0  0  0  0  0  0  0  0  0  0
    1.0593    1.1334    0.0920 C   0  0  0  0  0  0  0  0  0  0  0  0
    2.1780    0.0818    0.0563 C   0  0  1  0  0  0  0  0  0  0  0  0
    2.1142   -0.8352    1.0991 O   0  0  0  0  0  0  0  0  0  0  0  0
    2.1227   -0.7277   -1.0698 O   0  0  0  0  0  0  0  0  0  0  0  0
    3.5195    0.8640    0.1145 C   0  0  0  0  0  0  0  0  0  0  0  0
    4.6505   -0.0865    0.1587 N   0  0  0  0  0  0  0  0  0  0  0  0
    5.0770   -0.5002   -0.8928 O   0  0  0  0  0  0  0  0  0  0  0  0
    5.0616   -0.4261    1.2421 O   0  0  0  0  0  0  0  0  0  0  0  0
   -1.8106   -2.0959   -1.1012 H   0  0  0  0  0  0  0  0  0  0  0  0
   -4.1286   -2.6870   -1.6673 H   0  0  0  0  0  0  0  0  0  0  0  0
   -6.0136   -1.6734   -0.4174 H   0  0  0  0  0  0  0  0  0  0  0  0
   -5.5463   -0.0638    1.4055 H   0  0  0  0  0  0  0  0  0  0  0  0
   -3.2255    0.5324    1.9643 H   0  0  0  0  0  0  0  0  0  0  0  0
   -0.8741    0.0969    1.7775 H   0  0  0  0  0  0  0  0  0  0  0  0
   -0.3106   -1.2498    0.8082 H   0  0  0  0  0  0  0  0  0  0  0  0
   -0.3137    0.1192   -1.2253 H   0  0  0  0  0  0  0  0  0  0  0  0
   -2.4188    2.7058   -1.5591 H   0  0  0  0  0  0  0  0  0  0  0  0
    1.3217    1.9235   -0.6188 H   0  0  0  0  0  0  0  0  0  0  0  0
    1.0478    1.6098    1.0764 H   0  0  0  0  0  0  0  0  0  0  0  0
    2.0128   -0.3719    1.9377 H   0  0  0  0  0  0  0  0  0  0  0  0
    2.1700   -0.1880   -1.8667 H   0  0  0  0  0  0  0  0  0  0  0  0
    3.6455    1.4918   -0.7657 H   0  0  0  0  0  0  0  0  0  0  0  0
    3.5662    1.4834    1.0083 H   0  0  0  0  0  0  0  0  0  0  0  0
  1  2  2  0
  1  6  1  0
  2  3  1  0
  3  4  2  0
  4  5  1  0
  5  6  2  0
  6  7  1  0
  7  8  1  0
  8  9  1  0
  8 12  1  0
  9 10  2  0
  9 11  1  0
 12 13  1  0
 13 14  1  1
 13 15  1  0
 13 16  1  0
 16 17  1  0
 17 18  2  0
 17 19  1  0
  1 20  1  0
  2 21  1  0
  3 22  1  0
  4 23  1  0
  5 24  1  0
  7 25  1  0
  7 26  1  0
  8 27  1  6
 11 28  1  0
 12 29  1  0
 12 30  1  0
 14 31  1  0
 15 32  1  0
 16 33  1  0
 16 34  1  0
M  CHG  2  17   1  19  -1
M  END
