
     RDKit          3D

 59 62  0  0  0  0  0  0  0  0999 V2000
    2.3512   -0.4645   -3.6106 N   0  0  0  0  0  0  0  0  0  0  0  0
    2.5792    0.1503   -2.6557 C   0  0  0  0  0  0  0  0  0  0  0  0
    2.7214    2.9327   -2.8123 N   0  0  0  0  0  0  0  0  0  0  0  0
    2.8583    1.2145    0.8876 C   0  0  0  0  0  0  0  0  0  0  0  0
    2.7579    2.5744    0.6187 C   0  0  0  0  0  0  0  0  0  0  0  0
    2.7830    2.2781   -1.6491 C   0  0  0  0  0  0  0  0  0  0  0  0
    3.0903    0.1889   -0.1805 C   0  0  2  0  0  0  0  0  0  0  0  0
   -6.1879    0.6995   -1.3295 O   0  0  0  0  0  0  0  0  0  0  0  0
   -4.5894    2.4161   -0.4039 O   0  0  0  0  0  0  0  0  0  0  0  0
   -5.8512    0.9043    1.1402 N   0  0  0  0  0  0  0  0  0  0  0  0
   -6.5802   -0.3403    1.3597 C   0  0  0  0  0  0  0  0  0  0  0  0
   -5.0090    1.2917    2.2679 C   0  0  0  0  0  0  0  0  0  0  0  0
   -3.8680   -0.0540   -0.4679 C   0  0  0  0  0  0  0  0  0  0  0  0
   -3.9561   -1.3731   -0.8104 C   0  0  0  0  0  0  0  0  0  0  0  0
   -2.7129   -2.0308   -0.6887 C   0  0  0  0  0  0  0  0  0  0  0  0
   -2.2836    0.3955    0.0094 S   0  0  0  0  0  0  0  0  0  0  0  0
   -1.7089   -1.2043   -0.2564 C   0  0  0  0  0  0  0  0  0  0  0  0
   -0.3081   -1.5449   -0.0102 C   0  0  0  0  0  0  0  0  0  0  0  0
    0.0185   -2.8165    0.4546 C   0  0  0  0  0  0  0  0  0  0  0  0
    1.3493   -3.1215    0.6988 C   0  0  0  0  0  0  0  0  0  0  0  0
    1.6913   -4.4186    1.1895 C   0  0  0  0  0  0  0  0  0  0  0  0
    1.9682   -5.4642    1.5855 N   0  0  0  0  0  0  0  0  0  0  0  0
    2.3620   -2.1829    0.4920 C   0  0  0  0  0  0  0  0  0  0  0  0
    0.7101   -0.6211   -0.2245 C   0  0  0  0  0  0  0  0  0  0  0  0
    2.0491   -0.9186    0.0185 C   0  0  0  0  0  0  0  0  0  0  0  0
    4.5564   -0.3333   -0.1166 C   0  0  1  0  0  0  0  0  0  0  0  0
    4.9174   -1.2874   -1.2550 C   0  0  0  0  0  0  0  0  0  0  0  0
    5.5683    0.8067   -0.0860 C   0  0  0  0  0  0  0  0  0  0  0  0
    2.8183    0.9121   -1.4987 C   0  0  0  0  0  0  0  0  0  0  0  0
    2.7251    1.1517    2.2632 C   0  0  0  0  0  0  0  0  0  0  0  0
    2.7236    0.0048    3.2063 C   0  0  0  0  0  0  0  0  0  0  0  0
    2.5689    2.4247    2.6673 N   0  0  0  0  0  0  0  0  0  0  0  0
    2.5825    3.3210    1.6763 N   0  0  0  0  0  0  0  0  0  0  0  0
    2.8334    3.1304   -0.6140 O   0  0  0  0  0  0  0  0  0  0  0  0
    2.6495    2.4250   -3.6780 H   0  0  0  0  0  0  0  0  0  0  0  0
    2.4094    3.8902   -2.8292 H   0  0  0  0  0  0  0  0  0  0  0  0
   -7.3086   -0.5090    0.5724 H   0  0  0  0  0  0  0  0  0  0  0  0
   -5.9164   -1.2082    1.4348 H   0  0  0  0  0  0  0  0  0  0  0  0
   -7.1204   -0.2445    2.2994 H   0  0  0  0  0  0  0  0  0  0  0  0
   -5.6444    1.3510    3.1491 H   0  0  0  0  0  0  0  0  0  0  0  0
   -4.2163    0.5637    2.4672 H   0  0  0  0  0  0  0  0  0  0  0  0
   -4.5678    2.2713    2.1089 H   0  0  0  0  0  0  0  0  0  0  0  0
   -4.8643   -1.8510   -1.1482 H   0  0  0  0  0  0  0  0  0  0  0  0
   -2.5601   -3.0712   -0.9375 H   0  0  0  0  0  0  0  0  0  0  0  0
   -0.7515   -3.5521    0.6448 H   0  0  0  0  0  0  0  0  0  0  0  0
    3.3801   -2.4655    0.7166 H   0  0  0  0  0  0  0  0  0  0  0  0
    0.4601    0.3634   -0.6035 H   0  0  0  0  0  0  0  0  0  0  0  0
    4.6584   -0.8733    0.8315 H   0  0  0  0  0  0  0  0  0  0  0  0
    5.0474   -0.7481   -2.1939 H   0  0  0  0  0  0  0  0  0  0  0  0
    5.8661   -1.7777   -1.0333 H   0  0  0  0  0  0  0  0  0  0  0  0
    4.1767   -2.0691   -1.4227 H   0  0  0  0  0  0  0  0  0  0  0  0
    5.4496    1.4503    0.7846 H   0  0  0  0  0  0  0  0  0  0  0  0
    6.5791    0.3984   -0.0557 H   0  0  0  0  0  0  0  0  0  0  0  0
    5.4965    1.4272   -0.9818 H   0  0  0  0  0  0  0  0  0  0  0  0
    3.6049   -0.6198    3.0676 H   0  0  0  0  0  0  0  0  0  0  0  0
    2.7147    0.3446    4.2410 H   0  0  0  0  0  0  0  0  0  0  0  0
    1.8484   -0.6275    3.0538 H   0  0  0  0  0  0  0  0  0  0  0  0
    2.4407    2.7419    3.6153 H   0  0  0  0  0  0  0  0  0  0  0  0
   -5.1851    1.0932   -0.3583 S   0  0  1  0  0  0  0  0  0  0  0  0
  9 59  2  0
  8 59  2  0
 59 10  1  1
 59 13  1  0
 14 13  2  0
 14 15  1  0
 32 33  1  0
 32 30  1  0
 10 12  1  0
 10 11  1  0
 13 16  1  0
 33  5  2  0
 31 30  1  0
 15 17  2  0
 30  4  2  0
  5  4  1  0
  5 34  1  0
 17 16  1  0
 17 18  1  0
  4  7  1  0
 34  6  1  0
 24 18  1  0
 24 25  2  0
 18 19  2  0
 27 26  1  0
  7 25  1  1
  7 26  1  0
  7 29  1  0
 25 23  1  0
 28 26  1  0
  6 29  2  0
  6  3  1  0
 19 20  1  0
 29  2  1  0
 23 20  2  0
 20 21  1  0
  2  1  3  0
 21 22  3  0
  3 35  1  0
  3 36  1  0
 11 37  1  0
 11 38  1  0
 11 39  1  0
 12 40  1  0
 12 41  1  0
 12 42  1  0
 14 43  1  0
 15 44  1  0
 19 45  1  0
 23 46  1  0
 24 47  1  0
 26 48  1  1
 27 49  1  0
 27 50  1  0
 27 51  1  0
 28 52  1  0
 28 53  1  0
 28 54  1  0
 31 55  1  0
 31 56  1  0
 31 57  1  0
 32 58  1  0
M  END
