
     RDKit          3D

 47 49  0  0  0  0  0  0  0  0999 V2000
    3.2011    0.5610   -2.7176 N   0  0  0  0  0  0  0  0  0  0  0  0
    3.0655    1.2662   -1.4637 C   0  0  1  0  0  0  0  0  0  0  0  0
    2.0326    0.7127   -0.4723 C   0  0  0  0  0  0  0  0  0  0  0  0
    4.3972    1.2929   -0.7273 C   0  0  0  0  0  0  0  0  0  0  0  0
    4.8771    2.5489   -0.5224 O   0  0  0  0  0  0  0  0  0  0  0  0
    5.0712    0.3507   -0.3082 O   0  0  0  0  0  0  0  0  0  0  0  0
    0.4286    1.1549   -1.0752 S   0  0  0  0  0  0  0  0  0  0  0  0
   -0.2662   -1.8087   -0.9130 C   0  0  0  0  0  0  0  0  0  0  0  0
    0.1443   -3.1329   -0.8041 C   0  0  0  0  0  0  0  0  0  0  0  0
    0.4448   -3.6636    0.4525 C   0  0  0  0  0  0  0  0  0  0  0  0
    0.3284   -2.8651    1.5906 C   0  0  0  0  0  0  0  0  0  0  0  0
   -0.0863   -1.5390    1.4721 C   0  0  0  0  0  0  0  0  0  0  0  0
   -0.4052   -0.9784    0.2194 C   0  0  0  0  0  0  0  0  0  0  0  0
   -0.2287    2.2777    1.7726 C   0  0  0  0  0  0  0  0  0  0  0  0
   -0.4900    2.9543    2.9648 C   0  0  0  0  0  0  0  0  0  0  0  0
   -1.5908    2.6164    3.7451 C   0  0  0  0  0  0  0  0  0  0  0  0
   -2.4359    1.5915    3.3272 C   0  0  0  0  0  0  0  0  0  0  0  0
   -2.1809    0.9149    2.1370 C   0  0  0  0  0  0  0  0  0  0  0  0
   -1.0663    1.2356    1.3374 C   0  0  0  0  0  0  0  0  0  0  0  0
   -2.4027    1.9322   -1.3129 C   0  0  0  0  0  0  0  0  0  0  0  0
   -3.5781    2.1545   -2.0310 C   0  0  0  0  0  0  0  0  0  0  0  0
   -4.5154    1.1377   -2.1870 C   0  0  0  0  0  0  0  0  0  0  0  0
   -4.2715   -0.1098   -1.6182 C   0  0  0  0  0  0  0  0  0  0  0  0
   -3.1013   -0.3376   -0.8979 C   0  0  0  0  0  0  0  0  0  0  0  0
   -2.1351    0.6763   -0.7362 C   0  0  0  0  0  0  0  0  0  0  0  0
    0.9511   -5.2782    0.5935 Cl  0  0  0  0  0  0  0  0  0  0  0  0
   -0.8502    0.4602    0.0502 C   0  0  1  0  0  0  0  0  0  0  0  0
    3.6302   -0.3345   -2.5836 H   0  0  0  0  0  0  0  0  0  0  0  0
    2.2989    0.4457   -3.1402 H   0  0  0  0  0  0  0  0  0  0  0  0
    2.7823    2.3357   -1.7126 H   0  0  0  0  0  0  0  0  0  0  0  0
    2.1455   -0.3936   -0.3606 H   0  0  0  0  0  0  0  0  0  0  0  0
    2.2039    1.1741    0.5312 H   0  0  0  0  0  0  0  0  0  0  0  0
    5.7254    2.5013   -0.0502 H   0  0  0  0  0  0  0  0  0  0  0  0
   -0.5036   -1.4063   -1.9111 H   0  0  0  0  0  0  0  0  0  0  0  0
    0.2337   -3.7566   -1.7070 H   0  0  0  0  0  0  0  0  0  0  0  0
    0.5636   -3.2767    2.5843 H   0  0  0  0  0  0  0  0  0  0  0  0
   -0.1653   -0.9438    2.3949 H   0  0  0  0  0  0  0  0  0  0  0  0
    0.6533    2.5771    1.1863 H   0  0  0  0  0  0  0  0  0  0  0  0
    0.1833    3.7625    3.2866 H   0  0  0  0  0  0  0  0  0  0  0  0
   -1.7927    3.1533    4.6837 H   0  0  0  0  0  0  0  0  0  0  0  0
   -3.3096    1.3154    3.9359 H   0  0  0  0  0  0  0  0  0  0  0  0
   -2.8564    0.1047    1.8238 H   0  0  0  0  0  0  0  0  0  0  0  0
   -1.6910    2.7700   -1.2136 H   0  0  0  0  0  0  0  0  0  0  0  0
   -3.7614    3.1435   -2.4765 H   0  0  0  0  0  0  0  0  0  0  0  0
   -5.4406    1.3171   -2.7542 H   0  0  0  0  0  0  0  0  0  0  0  0
   -5.0055   -0.9207   -1.7352 H   0  0  0  0  0  0  0  0  0  0  0  0
   -2.9349   -1.3334   -0.4601 H   0  0  0  0  0  0  0  0  0  0  0  0
  1  2  1  0
  2  3  1  0
  2  4  1  0
  3  7  1  0
  4  5  1  0
  4  6  2  0
 27  7  1  6
  8  9  2  0
  8 13  1  0
  9 10  1  0
 10 11  2  0
 10 26  1  0
 11 12  1  0
 12 13  2  0
 13 27  1  0
 14 15  2  0
 14 19  1  0
 15 16  1  0
 16 17  2  0
 17 18  1  0
 18 19  2  0
 19 27  1  0
 20 21  2  0
 20 25  1  0
 21 22  1  0
 22 23  2  0
 23 24  1  0
 24 25  2  0
 25 27  1  0
  1 28  1  0
  1 29  1  0
  2 30  1  6
  3 31  1  0
  3 32  1  0
  5 33  1  0
  8 34  1  0
  9 35  1  0
 11 36  1  0
 12 37  1  0
 14 38  1  0
 15 39  1  0
 16 40  1  0
 17 41  1  0
 18 42  1  0
 20 43  1  0
 21 44  1  0
 22 45  1  0
 23 46  1  0
 24 47  1  0
M  END
