
     RDKit          3D

 33 35  0  0  0  0  0  0  0  0999 V2000
   -6.0578   -1.2945    0.2414 F   0  0  0  0  0  0  0  0  0  0  0  0
   -4.7309   -1.1401    0.2036 C   0  0  0  0  0  0  0  0  0  0  0  0
   -3.9061   -2.2432    0.1103 C   0  0  0  0  0  0  0  0  0  0  0  0
   -2.5368   -2.0668    0.0745 C   0  0  0  0  0  0  0  0  0  0  0  0
   -4.1862    0.1278    0.2602 C   0  0  0  0  0  0  0  0  0  0  0  0
   -5.2369    1.4898    0.3759 Cl  0  0  0  0  0  0  0  0  0  0  0  0
   -2.8129    0.3185    0.2260 C   0  0  0  0  0  0  0  0  0  0  0  0
   -1.9692   -0.7887    0.1323 C   0  0  0  0  0  0  0  0  0  0  0  0
   -0.5783   -0.7308    0.0863 N   0  0  0  0  0  0  0  0  0  0  0  0
    0.2719    0.3240    0.1367 C   0  0  0  0  0  0  0  0  0  0  0  0
   -0.2054    1.5435    0.2581 N   0  0  0  0  0  0  0  0  0  0  0  0
    0.6710    2.5565    0.3052 C   0  0  0  0  0  0  0  0  0  0  0  0
    1.6844    0.0884    0.0569 C   0  0  0  0  0  0  0  0  0  0  0  0
    2.2895   -1.1795   -0.0746 C   0  0  0  0  0  0  0  0  0  0  0  0
    3.6498   -1.3002   -0.1415 C   0  0  0  0  0  0  0  0  0  0  0  0
    4.2073   -2.5150   -0.2651 O   0  0  0  0  0  0  0  0  0  0  0  0
    2.4931    1.2384    0.1183 C   0  0  0  0  0  0  0  0  0  0  0  0
    1.9676    2.4859    0.2445 N   0  0  0  0  0  0  0  0  0  0  0  0
    3.8950    1.1049    0.0474 C   0  0  0  0  0  0  0  0  0  0  0  0
    4.4674   -0.1333   -0.0801 C   0  0  0  0  0  0  0  0  0  0  0  0
    5.7788   -0.3857   -0.1573 O   0  0  0  0  0  0  0  0  0  0  0  0
    6.6880    0.7010   -0.1039 C   0  0  0  0  0  0  0  0  0  0  0  0
   -4.3317   -3.2369    0.0661 H   0  0  0  0  0  0  0  0  0  0  0  0
   -1.8992   -2.9390    0.0007 H   0  0  0  0  0  0  0  0  0  0  0  0
   -2.4105    1.3167    0.2723 H   0  0  0  0  0  0  0  0  0  0  0  0
   -0.1485   -1.6366   -0.0009 H   0  0  0  0  0  0  0  0  0  0  0  0
    0.2333    3.5444    0.4059 H   0  0  0  0  0  0  0  0  0  0  0  0
    1.7079   -2.0918   -0.1266 H   0  0  0  0  0  0  0  0  0  0  0  0
    5.1699   -2.4443   -0.2832 H   0  0  0  0  0  0  0  0  0  0  0  0
    4.4932    2.0048    0.0956 H   0  0  0  0  0  0  0  0  0  0  0  0
    7.6826    0.2741   -0.1939 H   0  0  0  0  0  0  0  0  0  0  0  0
    6.5212    1.4005   -0.9255 H   0  0  0  0  0  0  0  0  0  0  0  0
    6.6128    1.2371    0.8445 H   0  0  0  0  0  0  0  0  0  0  0  0
 22 21  1  0
 21 20  1  0
 16 15  1  0
 20 15  2  0
 20 19  1  0
 15 14  1  0
 19 17  2  0
 14 13  2  0
 17 13  1  0
 17 18  1  0
 13 10  1  0
 18 12  2  0
 10  9  1  0
 10 11  2  0
  9  8  1  0
 12 11  1  0
  8  7  2  0
  8  4  1  0
  7  5  1  0
  4  3  2  0
  5  6  1  0
  5  2  2  0
  3  2  1  0
  2  1  1  0
  3 23  1  0
  4 24  1  0
  7 25  1  0
  9 26  1  0
 12 27  1  0
 14 28  1  0
 16 29  1  0
 19 30  1  0
 22 31  1  0
 22 32  1  0
 22 33  1  0
M  END
