
     RDKit          3D

 32 31  0  0  0  0  0  0  0  0999 V2000
    1.5413    0.8908   -3.5916 N   0  0  0  0  0  0  0  0  0  0  0  0
    0.5690   -0.0516   -3.0814 C   0  0  1  0  0  0  0  0  0  0  0  0
   -0.1754    0.3493   -1.7942 C   0  0  0  0  0  0  0  0  0  0  0  0
    0.6150   -0.0192   -0.5589 C   0  0  0  0  0  0  0  0  0  0  0  0
   -0.2211    0.2705    0.6905 C   0  0  0  0  0  0  0  0  0  0  0  0
    0.4987    0.0066    1.9191 N   0  0  0  0  0  0  0  0  0  0  0  0
   -0.0564   -0.0409    3.2599 C   0  0  0  0  0  0  0  0  0  0  0  0
    0.6299   -0.2855    4.3657 N   0  0  0  0  0  0  0  0  0  0  0  0
    2.0285   -0.5440    4.4318 C   0  0  0  0  0  0  0  0  0  0  0  0
   -1.4721    0.1951    3.4281 N   0  0  0  0  0  0  0  0  0  0  0  0
   -2.1284    0.1725    4.7085 C   0  0  0  0  0  0  0  0  0  0  0  0
   -0.4958   -0.3245   -4.1327 C   0  0  0  0  0  0  0  0  0  0  0  0
   -1.1502    0.4782   -4.7999 O   0  0  0  0  0  0  0  0  0  0  0  0
   -0.7294   -1.6488   -4.3360 O   0  0  0  0  0  0  0  0  0  0  0  0
    1.1934    1.8295   -3.5498 H   0  0  0  0  0  0  0  0  0  0  0  0
    2.3937    0.8220   -3.0713 H   0  0  0  0  0  0  0  0  0  0  0  0
    1.1216   -1.0209   -2.8848 H   0  0  0  0  0  0  0  0  0  0  0  0
   -1.1631   -0.1827   -1.7822 H   0  0  0  0  0  0  0  0  0  0  0  0
   -0.3850    1.4505   -1.8027 H   0  0  0  0  0  0  0  0  0  0  0  0
    1.5700    0.5683   -0.5189 H   0  0  0  0  0  0  0  0  0  0  0  0
    0.8885   -1.1068   -0.5944 H   0  0  0  0  0  0  0  0  0  0  0  0
   -1.1763   -0.3275    0.6227 H   0  0  0  0  0  0  0  0  0  0  0  0
   -0.5031    1.3627    0.6832 H   0  0  0  0  0  0  0  0  0  0  0  0
    1.4806   -0.1584    1.8142 H   0  0  0  0  0  0  0  0  0  0  0  0
    2.2583   -0.7659    5.5084 H   0  0  0  0  0  0  0  0  0  0  0  0
    2.3480   -1.4301    3.8167 H   0  0  0  0  0  0  0  0  0  0  0  0
    2.6509    0.3378    4.1144 H   0  0  0  0  0  0  0  0  0  0  0  0
   -2.0397    0.3852    2.6252 H   0  0  0  0  0  0  0  0  0  0  0  0
   -3.2214    0.3583    4.5297 H   0  0  0  0  0  0  0  0  0  0  0  0
   -2.0029   -0.8394    5.1767 H   0  0  0  0  0  0  0  0  0  0  0  0
   -1.7410    0.9449    5.4274 H   0  0  0  0  0  0  0  0  0  0  0  0
   -1.4159   -1.7589   -5.0152 H   0  0  0  0  0  0  0  0  0  0  0  0
  1  2  1  0
  1 15  1  0
  1 16  1  0
  2  3  1  0
  2 12  1  0
  2 17  1  1
  3  4  1  0
  3 18  1  0
  3 19  1  0
  4  5  1  0
  4 20  1  0
  4 21  1  0
  5  6  1  0
  5 22  1  0
  5 23  1  0
  6  7  1  0
  6 24  1  0
  7  8  2  0
  7 10  1  0
  8  9  1  0
  9 25  1  0
  9 26  1  0
  9 27  1  0
 10 11  1  0
 10 28  1  0
 11 29  1  0
 11 30  1  0
 11 31  1  0
 12 13  2  0
 12 14  1  0
 14 32  1  0
M  END
