
     RDKit          3D

 31 34  0  0  0  0  0  0  0  0999 V2000
   -3.1270   -1.0131   -1.1906 C   0  0  0  0  0  0  0  0  0  0  0  0
   -4.3807   -1.5959   -1.3120 C   0  0  0  0  0  0  0  0  0  0  0  0
   -1.1356    1.0001    0.1492 C   0  0  0  0  0  0  0  0  0  0  0  0
    2.5972   -1.1299    0.2113 N   0  0  0  0  0  0  0  0  0  0  0  0
   -2.1904    1.9045    0.2076 C   0  0  0  0  0  0  0  0  0  0  0  0
   -1.9407    3.2665    0.1506 C   0  0  0  0  0  0  0  0  0  0  0  0
    4.3974   -2.2807   -0.0762 N   0  0  0  0  0  0  0  0  0  0  0  0
   -0.6445    3.7472    0.0309 C   0  0  0  0  0  0  0  0  0  0  0  0
    0.4037    2.8483   -0.0321 C   0  0  0  0  0  0  0  0  0  0  0  0
    0.1813    1.4708    0.0233 C   0  0  0  0  0  0  0  0  0  0  0  0
    1.3179    0.5613   -0.0685 C   0  0  0  0  0  0  0  0  0  0  0  0
    4.5344   -1.1352   -0.8044 N   0  0  0  0  0  0  0  0  0  0  0  0
    3.2437   -2.2776    0.5293 C   0  0  0  0  0  0  0  0  0  0  0  0
    3.4398   -0.4623   -0.6143 C   0  0  0  0  0  0  0  0  0  0  0  0
    1.4173   -0.5733    0.5277 N   0  0  0  0  0  0  0  0  0  0  0  0
    2.6967    1.0172   -1.0859 S   0  0  0  0  0  0  0  0  0  0  0  0
   -1.3088   -0.3367    0.2034 O   0  0  0  0  0  0  0  0  0  0  0  0
   -2.5740   -0.8645    0.0724 C   0  0  0  0  0  0  0  0  0  0  0  0
   -3.2471   -1.2830    1.2087 C   0  0  0  0  0  0  0  0  0  0  0  0
   -4.5001   -1.8669    1.0735 C   0  0  0  0  0  0  0  0  0  0  0  0
   -5.0693   -2.0226   -0.1833 C   0  0  0  0  0  0  0  0  0  0  0  0
   -2.5837   -0.6858   -2.0682 H   0  0  0  0  0  0  0  0  0  0  0  0
   -4.8176   -1.7201   -2.2940 H   0  0  0  0  0  0  0  0  0  0  0  0
   -3.2093    1.5538    0.3012 H   0  0  0  0  0  0  0  0  0  0  0  0
   -2.7727    3.9558    0.2033 H   0  0  0  0  0  0  0  0  0  0  0  0
   -0.4512    4.8099   -0.0064 H   0  0  0  0  0  0  0  0  0  0  0  0
    1.4169    3.2240   -0.1069 H   0  0  0  0  0  0  0  0  0  0  0  0
    2.8473   -3.0411    1.1775 H   0  0  0  0  0  0  0  0  0  0  0  0
   -2.7969   -1.1562    2.1849 H   0  0  0  0  0  0  0  0  0  0  0  0
   -5.0314   -2.1969    1.9564 H   0  0  0  0  0  0  0  0  0  0  0  0
   -6.0446   -2.4800   -0.2848 H   0  0  0  0  0  0  0  0  0  0  0  0
  8  6  1  0
  8  9  2  0
  6  5  2  0
  9 10  1  0
  5  3  1  0
 10  3  2  0
 10 11  1  0
  3 17  1  0
  1  2  2  0
  1 18  1  0
  2 21  1  0
 15 11  2  0
 15  4  1  0
 11 16  1  0
 18 17  1  0
 18 19  2  0
 21 20  2  0
 19 20  1  0
  4 13  1  0
  4 14  1  0
 16 14  1  0
 13  7  2  0
 14 12  2  0
  7 12  1  0
  1 22  1  0
  2 23  1  0
  5 24  1  0
  6 25  1  0
  8 26  1  0
  9 27  1  0
 13 28  1  0
 19 29  1  0
 20 30  1  0
 21 31  1  0
M  END
