
     RDKit          3D

 26 26  0  0  0  0  0  0  0  0999 V2000
   -5.7243   -0.8120   -0.0085 O   0  0  0  0  0  0  0  0  0  0  0  0
   -4.4039   -0.8957   -0.0293 C   0  0  0  0  0  0  0  0  0  0  0  0
   -3.7894   -1.9286   -0.0924 O   0  0  0  0  0  0  0  0  0  0  0  0
   -3.8123    0.4698    0.0340 C   0  0  0  0  0  0  0  0  0  0  0  0
   -4.6321    1.5239    0.0828 O   0  0  0  0  0  0  0  0  0  0  0  0
   -2.4809    0.7066    0.0440 C   0  0  0  0  0  0  0  0  0  0  0  0
   -2.1307    2.0016    0.0978 F   0  0  0  0  0  0  0  0  0  0  0  0
   -1.3886   -0.2183    0.0134 C   0  0  0  0  0  0  0  0  0  0  0  0
   -0.1006    0.1651    0.0343 C   0  0  0  0  0  0  0  0  0  0  0  0
    0.9725   -0.8462    0.0132 C   0  0  0  0  0  0  0  0  0  0  0  0
    0.7148   -2.0380    0.0100 O   0  0  0  0  0  0  0  0  0  0  0  0
    2.3890   -0.3900    0.0053 C   0  0  0  0  0  0  0  0  0  0  0  0
    3.3955   -1.3548    0.1133 C   0  0  0  0  0  0  0  0  0  0  0  0
    2.7609    0.9501   -0.1144 C   0  0  0  0  0  0  0  0  0  0  0  0
    4.0949    1.3238   -0.1271 C   0  0  0  0  0  0  0  0  0  0  0  0
    5.0570    0.3397   -0.0133 C   0  0  0  0  0  0  0  0  0  0  0  0
    6.3461    0.6934   -0.0209 F   0  0  0  0  0  0  0  0  0  0  0  0
    4.7310   -0.9999    0.1086 C   0  0  0  0  0  0  0  0  0  0  0  0
   -6.1320   -1.6906   -0.0574 H   0  0  0  0  0  0  0  0  0  0  0  0
   -5.5562    1.2456    0.0656 H   0  0  0  0  0  0  0  0  0  0  0  0
   -1.6338   -1.2692   -0.0278 H   0  0  0  0  0  0  0  0  0  0  0  0
    0.1588    1.2121    0.0767 H   0  0  0  0  0  0  0  0  0  0  0  0
    3.1317   -2.3992    0.2070 H   0  0  0  0  0  0  0  0  0  0  0  0
    2.0227    1.7330   -0.2070 H   0  0  0  0  0  0  0  0  0  0  0  0
    4.3784    2.3631   -0.2239 H   0  0  0  0  0  0  0  0  0  0  0  0
    5.5070   -1.7481    0.1979 H   0  0  0  0  0  0  0  0  0  0  0  0
  5  4  1  0
  4  6  2  0
  4  2  1  0
  3  2  2  0
  7  6  1  0
  6  8  1  0
  2  1  1  0
  8  9  2  0
  9 10  1  0
 11 10  2  0
 10 12  1  0
 12 13  2  0
 12 14  1  0
 13 18  1  0
 14 15  2  0
 18 16  2  0
 15 16  1  0
 16 17  1  0
  1 19  1  0
  5 20  1  0
  8 21  1  0
  9 22  1  0
 13 23  1  0
 14 24  1  0
 15 25  1  0
 18 26  1  0
M  END
