
     RDKit          3D

 24 25  0  0  0  0  0  0  0  0999 V2000
   -0.5523   -0.9683    0.0227 C   0  0  0  0  0  0  0  0  0  0  0  0
    0.0391   -2.2486    0.1134 C   0  0  0  0  0  0  0  0  0  0  0  0
    1.3987   -2.3877    0.0348 C   0  0  0  0  0  0  0  0  0  0  0  0
    2.2252   -1.2628   -0.1405 C   0  0  0  0  0  0  0  0  0  0  0  0
    1.6925    0.0013   -0.2318 C   0  0  0  0  0  0  0  0  0  0  0  0
    0.2862    0.1619   -0.1381 C   0  0  0  0  0  0  0  0  0  0  0  0
   -1.9024   -0.8818    0.0956 N   0  0  0  0  0  0  0  0  0  0  0  0
   -2.4702    0.2972    0.0076 C   0  0  0  0  0  0  0  0  0  0  0  0
   -1.7165    1.5004   -0.1494 C   0  0  0  0  0  0  0  0  0  0  0  0
   -3.8266    0.3639    0.0286 N   0  0  0  0  0  0  0  0  0  0  0  0
   -0.3634    1.4233   -0.2158 C   0  0  0  0  0  0  0  0  0  0  0  0
    2.6000    1.1887   -0.4219 C   0  0  0  0  0  0  0  0  0  0  0  0
    2.5876    2.0567    0.7479 N   0  0  0  0  0  0  0  0  0  0  0  0
   -0.6057   -3.1087    0.2436 H   0  0  0  0  0  0  0  0  0  0  0  0
    1.8463   -3.3711    0.1051 H   0  0  0  0  0  0  0  0  0  0  0  0
    3.2981   -1.3966   -0.2081 H   0  0  0  0  0  0  0  0  0  0  0  0
    3.5990    0.8186   -0.6847 H   0  0  0  0  0  0  0  0  0  0  0  0
    2.2603    1.7747   -1.2802 H   0  0  0  0  0  0  0  0  0  0  0  0
    0.2237    2.3259   -0.3123 H   0  0  0  0  0  0  0  0  0  0  0  0
   -2.2264    2.4534   -0.2117 H   0  0  0  0  0  0  0  0  0  0  0  0
   -4.3229   -0.4491    0.3542 H   0  0  0  0  0  0  0  0  0  0  0  0
   -4.2612    1.2438    0.2493 H   0  0  0  0  0  0  0  0  0  0  0  0
    3.0064    1.5679    1.5295 H   0  0  0  0  0  0  0  0  0  0  0  0
    3.1824    2.8567    0.5711 H   0  0  0  0  0  0  0  0  0  0  0  0
  1  2  2  0
  1  6  1  0
  1  7  1  0
  2  3  1  0
  3  4  2  0
  4  5  1  0
  5  6  2  0
  5 12  1  0
  6 11  1  0
  7  8  2  0
  8  9  1  0
  8 10  1  0
  9 11  2  0
 12 13  1  0
  2 14  1  0
  3 15  1  0
  4 16  1  0
 12 17  1  0
 12 18  1  0
 11 19  1  0
  9 20  1  0
 10 21  1  0
 10 22  1  0
 13 23  1  0
 13 24  1  0
M  END
