
     RDKit          3D

 20 20  0  0  0  0  0  0  0  0999 V2000
    1.1528    0.0264   -1.4054 S   0  0  0  0  0  0  0  0  0  0  0  0
   -0.0806   -0.1114   -0.2024 C   0  0  0  0  0  0  0  0  0  0  0  0
   -1.2811    0.0171   -0.6708 N   0  0  0  0  0  0  0  0  0  0  0  0
   -1.2731    0.2334   -2.0187 C   0  0  0  0  0  0  0  0  0  0  0  0
   -0.0482    0.2722   -2.6023 C   0  0  0  0  0  0  0  0  0  0  0  0
    0.2526   -0.3460    1.2404 C   0  0  1  0  0  0  0  0  0  0  0  0
   -0.1870    0.8647    2.0759 C   0  0  0  0  0  0  0  0  0  0  0  0
    0.2040    0.7647    3.5437 C   0  0  0  0  0  0  0  0  0  0  0  0
   -0.3723   -1.6571    1.7176 C   0  0  0  0  0  0  0  0  0  0  0  0
   -2.2081    0.3594   -2.5462 H   0  0  0  0  0  0  0  0  0  0  0  0
    0.1971    0.4256   -3.6408 H   0  0  0  0  0  0  0  0  0  0  0  0
    1.3404   -0.4356    1.3282 H   0  0  0  0  0  0  0  0  0  0  0  0
   -1.2695    0.9864    1.9841 H   0  0  0  0  0  0  0  0  0  0  0  0
    0.2616    1.7643    1.6459 H   0  0  0  0  0  0  0  0  0  0  0  0
   -0.0417    1.6875    4.0697 H   0  0  0  0  0  0  0  0  0  0  0  0
   -0.3166   -0.0468    4.0522 H   0  0  0  0  0  0  0  0  0  0  0  0
    1.2765    0.5948    3.6572 H   0  0  0  0  0  0  0  0  0  0  0  0
   -1.4610   -1.6081    1.6775 H   0  0  0  0  0  0  0  0  0  0  0  0
   -0.0477   -2.4935    1.0980 H   0  0  0  0  0  0  0  0  0  0  0  0
   -0.0791   -1.8753    2.7437 H   0  0  0  0  0  0  0  0  0  0  0  0
  1  2  1  0
  1  5  1  0
  2  3  2  0
  2  6  1  0
  3  4  1  0
  4  5  2  0
  4 10  1  0
  5 11  1  0
  6  7  1  0
  6  9  1  0
  6 12  1  6
  7  8  1  0
  7 13  1  0
  7 14  1  0
  8 15  1  0
  8 16  1  0
  8 17  1  0
  9 18  1  0
  9 19  1  0
  9 20  1  0
M  END
