
     RDKit          3D

 51 53  0  0  0  0  0  0  0  0999 V2000
    4.7067   -3.8504   -2.0605 N   0  0  0  0  0  0  0  0  0  0  0  0
    4.2272   -2.9925   -1.4590 C   0  0  0  0  0  0  0  0  0  0  0  0
    3.6364   -1.9278   -0.7116 C   0  0  0  0  0  0  0  0  0  0  0  0
    4.4564   -1.0565   -0.0093 C   0  0  0  0  0  0  0  0  0  0  0  0
    3.8816   -0.0151    0.7195 C   0  0  0  0  0  0  0  0  0  0  0  0
    4.7525    0.9627    1.4569 C   0  0  0  0  0  0  0  0  0  0  0  0
    5.4948    1.9321    0.5289 C   0  0  2  0  0  0  0  0  0  0  0  0
    6.3883    2.8467    1.3562 C   0  0  0  0  0  0  0  0  0  0  0  0
    4.5300    2.7030   -0.2396 N   0  0  0  0  0  0  0  0  0  0  0  0
    5.1211    3.5231   -1.2789 C   0  0  0  0  0  0  0  0  0  0  0  0
    2.2446   -1.8011   -0.7096 C   0  0  0  0  0  0  0  0  0  0  0  0
    1.6774   -0.7704    0.0267 C   0  0  0  0  0  0  0  0  0  0  0  0
    2.5023    0.1154    0.7277 C   0  0  0  0  0  0  0  0  0  0  0  0
    0.3578   -0.5443    0.1247 O   0  0  0  0  0  0  0  0  0  0  0  0
   -0.5442   -1.4257   -0.5352 C   0  0  0  0  0  0  0  0  0  0  0  0
   -1.9287   -1.0322   -0.1198 C   0  0  0  0  0  0  0  0  0  0  0  0
   -2.7748   -0.3956   -0.9928 C   0  0  0  0  0  0  0  0  0  0  0  0
   -2.3580   -1.3074    1.1938 C   0  0  0  0  0  0  0  0  0  0  0  0
   -3.6160   -0.9448    1.5983 C   0  0  0  0  0  0  0  0  0  0  0  0
   -4.5006   -0.2915    0.7173 C   0  0  0  0  0  0  0  0  0  0  0  0
   -5.8236    0.1071    1.0884 C   0  0  0  0  0  0  0  0  0  0  0  0
   -6.3457   -0.1595    2.4643 C   0  0  0  0  0  0  0  0  0  0  0  0
   -6.5866    0.7347    0.1536 C   0  0  0  0  0  0  0  0  0  0  0  0
   -6.0678    0.9715   -1.1562 C   0  0  0  0  0  0  0  0  0  0  0  0
   -6.8379    1.6321   -2.0562 N   0  0  0  0  0  0  0  0  0  0  0  0
   -4.8607    0.6077   -1.5179 N   0  0  0  0  0  0  0  0  0  0  0  0
   -4.0780   -0.0117   -0.6036 C   0  0  0  0  0  0  0  0  0  0  0  0
    5.5306   -1.1892   -0.0266 H   0  0  0  0  0  0  0  0  0  0  0  0
    4.1486    1.5395    2.1624 H   0  0  0  0  0  0  0  0  0  0  0  0
    5.4939    0.4153    2.0440 H   0  0  0  0  0  0  0  0  0  0  0  0
    6.1471    1.3354   -0.1337 H   0  0  0  0  0  0  0  0  0  0  0  0
    7.0085    3.4871    0.7298 H   0  0  0  0  0  0  0  0  0  0  0  0
    5.7872    3.4867    2.0053 H   0  0  0  0  0  0  0  0  0  0  0  0
    7.0606    2.2595    1.9824 H   0  0  0  0  0  0  0  0  0  0  0  0
    3.8840    2.0626   -0.6850 H   0  0  0  0  0  0  0  0  0  0  0  0
    5.6717    4.3608   -0.8500 H   0  0  0  0  0  0  0  0  0  0  0  0
    5.8118    2.9788   -1.9388 H   0  0  0  0  0  0  0  0  0  0  0  0
    4.3300    3.9428   -1.8998 H   0  0  0  0  0  0  0  0  0  0  0  0
    1.6476   -2.5039   -1.2732 H   0  0  0  0  0  0  0  0  0  0  0  0
    2.0406    0.9168    1.2924 H   0  0  0  0  0  0  0  0  0  0  0  0
   -0.4243   -1.3537   -1.6207 H   0  0  0  0  0  0  0  0  0  0  0  0
   -0.3439   -2.4612   -0.2408 H   0  0  0  0  0  0  0  0  0  0  0  0
   -2.4588   -0.1747   -2.0060 H   0  0  0  0  0  0  0  0  0  0  0  0
   -1.6949   -1.8171    1.8819 H   0  0  0  0  0  0  0  0  0  0  0  0
   -3.9314   -1.1681    2.6094 H   0  0  0  0  0  0  0  0  0  0  0  0
   -6.3489   -1.2285    2.6836 H   0  0  0  0  0  0  0  0  0  0  0  0
   -5.7246    0.3203    3.2224 H   0  0  0  0  0  0  0  0  0  0  0  0
   -7.3630    0.2095    2.5796 H   0  0  0  0  0  0  0  0  0  0  0  0
   -7.5918    1.0611    0.3912 H   0  0  0  0  0  0  0  0  0  0  0  0
   -7.8304    1.6809   -1.9027 H   0  0  0  0  0  0  0  0  0  0  0  0
   -6.5522    1.6049   -3.0208 H   0  0  0  0  0  0  0  0  0  0  0  0
 22 21  1  0
 21 23  2  0
 21 20  1  0
 23 24  1  0
 19 20  2  0
 19 18  1  0
 20 27  1  0
  1  2  3  0
 18 16  2  0
 24 25  1  0
 24 26  2  0
  2  3  1  0
 27 26  1  0
 27 17  2  0
 11  3  2  0
 11 12  1  0
 16 17  1  0
 16 15  1  0
 14 12  1  0
 14 15  1  0
  3  4  1  0
 12 13  2  0
  4  5  2  0
 13  5  1  0
  5  6  1  0
  8  7  1  0
  7  6  1  0
  7  9  1  0
 10  9  1  0
  4 28  1  0
  6 29  1  0
  6 30  1  0
  7 31  1  6
  8 32  1  0
  8 33  1  0
  8 34  1  0
  9 35  1  0
 10 36  1  0
 10 37  1  0
 10 38  1  0
 11 39  1  0
 13 40  1  0
 15 41  1  0
 15 42  1  0
 17 43  1  0
 18 44  1  0
 19 45  1  0
 22 46  1  0
 22 47  1  0
 22 48  1  0
 23 49  1  0
 25 50  1  0
 25 51  1  0
M  END
