
     RDKit          3D

 74 76  0  0  0  0  0  0  0  0999 V2000
   -5.6512    2.0800   -0.7507 C   0  0  0  0  0  0  0  0  0  0  0  0
   -6.8460    1.3998   -0.5520 C   0  0  0  0  0  0  0  0  0  0  0  0
   -6.8295    0.1956    0.1665 C   0  0  0  0  0  0  0  0  0  0  0  0
   -5.6255   -0.2891    0.6612 C   0  0  0  0  0  0  0  0  0  0  0  0
   -4.4263    0.3920    0.4640 C   0  0  0  0  0  0  0  0  0  0  0  0
   -4.4556    1.5823   -0.2498 C   0  0  0  0  0  0  0  0  0  0  0  0
   -8.1199   -0.5478    0.3862 C   0  0  0  0  0  0  0  0  0  0  0  0
   -7.9010   -1.7079    1.1433 O   0  0  0  0  0  0  0  0  0  0  0  0
   -8.1512    1.9321   -1.0795 C   0  0  0  0  0  0  0  0  0  0  0  0
   -7.9417    3.1115   -1.8097 O   0  0  0  0  0  0  0  0  0  0  0  0
   -3.1289   -0.1745    0.9678 C   0  0  0  0  0  0  0  0  0  0  0  0
   -2.4319   -1.0396   -0.0925 C   0  0  0  0  0  0  0  0  0  0  0  0
   -1.1376   -1.6129    0.4108 C   0  0  0  0  0  0  0  0  0  0  0  0
    0.0617   -0.9266    0.2451 C   0  0  0  0  0  0  0  0  0  0  0  0
    1.2655   -1.4215    0.7357 C   0  0  0  0  0  0  0  0  0  0  0  0
    1.2885   -2.6410    1.4234 C   0  0  0  0  0  0  0  0  0  0  0  0
    0.0878   -3.3255    1.5905 C   0  0  0  0  0  0  0  0  0  0  0  0
   -1.1067   -2.8230    1.0947 C   0  0  0  0  0  0  0  0  0  0  0  0
    2.5711   -3.1984    1.9693 C   0  0  0  0  0  0  0  0  0  0  0  0
    2.5197   -0.6493    0.5349 C   0  0  0  0  0  0  0  0  0  0  0  0
    2.9516    0.2302    1.5253 C   0  0  0  0  0  0  0  0  0  0  0  0
    3.2943   -0.8015   -0.6164 C   0  0  0  0  0  0  0  0  0  0  0  0
    4.4700   -0.0615   -0.7424 C   0  0  0  0  0  0  0  0  0  0  0  0
    4.1204    0.9581    1.3819 C   0  0  0  0  0  0  0  0  0  0  0  0
    4.9024    0.8246    0.2353 C   0  0  0  0  0  0  0  0  0  0  0  0
    2.8840   -1.7158   -1.7375 C   0  0  0  0  0  0  0  0  0  0  0  0
    6.2053    1.6053    0.0853 C   0  0  1  0  0  0  0  0  0  0  0  0
    5.9162    3.1111    0.2442 C   0  0  0  0  0  0  0  0  0  0  0  0
    7.2154    1.1191    1.1338 C   0  0  0  0  0  0  0  0  0  0  0  0
    6.8011    1.3636   -1.1734 O   0  0  0  0  0  0  0  0  0  0  0  0
    7.5234   -0.3705    1.0716 C   0  0  0  0  0  0  0  0  0  0  0  0
    7.1247    4.0224    0.0702 C   0  0  0  0  0  0  0  0  0  0  0  0
    2.0651   -0.9938   -2.8105 C   0  0  0  0  0  0  0  0  0  0  0  0
    1.6833   -1.9137   -3.9604 C   0  0  0  0  0  0  0  0  0  0  0  0
   -5.6431    3.0116   -1.2991 H   0  0  0  0  0  0  0  0  0  0  0  0
   -5.6112   -1.2172    1.2186 H   0  0  0  0  0  0  0  0  0  0  0  0
   -3.5365    2.1332   -0.4147 H   0  0  0  0  0  0  0  0  0  0  0  0
   -8.8373    0.1224    0.8821 H   0  0  0  0  0  0  0  0  0  0  0  0
   -8.5602   -0.7889   -0.5926 H   0  0  0  0  0  0  0  0  0  0  0  0
   -8.7474   -2.1477    1.2632 H   0  0  0  0  0  0  0  0  0  0  0  0
   -8.6304    1.1600   -1.7001 H   0  0  0  0  0  0  0  0  0  0  0  0
   -8.8350    2.1034   -0.2348 H   0  0  0  0  0  0  0  0  0  0  0  0
   -8.8001    3.4560   -2.0708 H   0  0  0  0  0  0  0  0  0  0  0  0
   -2.4588    0.6368    1.2642 H   0  0  0  0  0  0  0  0  0  0  0  0
   -3.3052   -0.7793    1.8607 H   0  0  0  0  0  0  0  0  0  0  0  0
   -3.1041   -1.8483   -0.3910 H   0  0  0  0  0  0  0  0  0  0  0  0
   -2.2517   -0.4349   -0.9848 H   0  0  0  0  0  0  0  0  0  0  0  0
    0.0622    0.0195   -0.2864 H   0  0  0  0  0  0  0  0  0  0  0  0
    0.0874   -4.2734    2.1163 H   0  0  0  0  0  0  0  0  0  0  0  0
   -2.0243   -3.3825    1.2372 H   0  0  0  0  0  0  0  0  0  0  0  0
    2.9530   -2.5889    2.7906 H   0  0  0  0  0  0  0  0  0  0  0  0
    2.4305   -4.2103    2.3478 H   0  0  0  0  0  0  0  0  0  0  0  0
    3.3558   -3.2282    1.2118 H   0  0  0  0  0  0  0  0  0  0  0  0
    2.3611    0.3409    2.4271 H   0  0  0  0  0  0  0  0  0  0  0  0
    5.0691   -0.2068   -1.6334 H   0  0  0  0  0  0  0  0  0  0  0  0
    4.4196    1.6230    2.1831 H   0  0  0  0  0  0  0  0  0  0  0  0
    3.7782   -2.1411   -2.2024 H   0  0  0  0  0  0  0  0  0  0  0  0
    2.3031   -2.5585   -1.3529 H   0  0  0  0  0  0  0  0  0  0  0  0
    5.1443    3.3879   -0.4825 H   0  0  0  0  0  0  0  0  0  0  0  0
    5.4752    3.2934    1.2265 H   0  0  0  0  0  0  0  0  0  0  0  0
    8.1433    1.6846    1.0143 H   0  0  0  0  0  0  0  0  0  0  0  0
    6.8317    1.3730    2.1253 H   0  0  0  0  0  0  0  0  0  0  0  0
    6.2439    1.7504   -1.8577 H   0  0  0  0  0  0  0  0  0  0  0  0
    7.9224   -0.6600    0.0997 H   0  0  0  0  0  0  0  0  0  0  0  0
    8.2676   -0.6344    1.8238 H   0  0  0  0  0  0  0  0  0  0  0  0
    6.6350   -0.9739    1.2601 H   0  0  0  0  0  0  0  0  0  0  0  0
    7.8591    3.8827    0.8633 H   0  0  0  0  0  0  0  0  0  0  0  0
    7.6252    3.8570   -0.8836 H   0  0  0  0  0  0  0  0  0  0  0  0
    6.8111    5.0662    0.1003 H   0  0  0  0  0  0  0  0  0  0  0  0
    1.1629   -0.5772   -2.3548 H   0  0  0  0  0  0  0  0  0  0  0  0
    2.6401   -0.1429   -3.1871 H   0  0  0  0  0  0  0  0  0  0  0  0
    1.1041   -1.3854   -4.7183 H   0  0  0  0  0  0  0  0  0  0  0  0
    2.5691   -2.3265   -4.4469 H   0  0  0  0  0  0  0  0  0  0  0  0
    1.0799   -2.7533   -3.6096 H   0  0  0  0  0  0  0  0  0  0  0  0
 31 29  1  0
 32 28  1  0
 29 27  1  0
 28 27  1  0
 27 30  1  6
 27 25  1  0
 24 25  1  0
 24 21  2  0
 25 23  2  0
 21 20  1  0
 23 22  1  0
 20 22  2  0
 20 15  1  0
 22 26  1  0
 14 15  2  0
 14 13  1  0
 15 16  1  0
 12 13  1  0
 12 11  1  0
 26 33  1  0
 13 18  2  0
  6  1  2  0
  6  5  1  0
  1  2  1  0
 10  9  1  0
  5  4  2  0
  5 11  1  0
 16 19  1  0
 16 17  2  0
  2  9  1  0
  2  3  2  0
  4  3  1  0
  3  7  1  0
 18 17  1  0
 33 34  1  0
  7  8  1  0
  1 35  1  0
  4 36  1  0
  6 37  1  0
  7 38  1  0
  7 39  1  0
  8 40  1  0
  9 41  1  0
  9 42  1  0
 10 43  1  0
 11 44  1  0
 11 45  1  0
 12 46  1  0
 12 47  1  0
 14 48  1  0
 17 49  1  0
 18 50  1  0
 19 51  1  0
 19 52  1  0
 19 53  1  0
 21 54  1  0
 23 55  1  0
 24 56  1  0
 26 57  1  0
 26 58  1  0
 28 59  1  0
 28 60  1  0
 29 61  1  0
 29 62  1  0
 30 63  1  0
 31 64  1  0
 31 65  1  0
 31 66  1  0
 32 67  1  0
 32 68  1  0
 32 69  1  0
 33 70  1  0
 33 71  1  0
 34 72  1  0
 34 73  1  0
 34 74  1  0
M  END
