
     RDKit          3D

 31 32  0  0  0  0  0  0  0  0999 V2000
   -1.3741    0.5453   -1.6551 C   0  0  0  0  0  0  0  0  0  0  0  0
   -0.3689    0.1732   -2.6044 C   0  0  0  0  0  0  0  0  0  0  0  0
   -1.0356   -0.2967   -3.7559 C   0  0  0  0  0  0  0  0  0  0  0  0
    1.0313    0.2045   -2.5887 C   0  0  0  0  0  0  0  0  0  0  0  0
   -2.5732    0.2883   -2.2607 C   0  0  0  0  0  0  0  0  0  0  0  0
   -2.3760   -0.2167   -3.5134 N   0  0  0  0  0  0  0  0  0  0  0  0
   -0.3445   -0.7363   -4.8822 C   0  0  0  0  0  0  0  0  0  0  0  0
    1.6873   -0.2309   -3.7117 C   0  0  0  0  0  0  0  0  0  0  0  0
    1.0341   -0.7030   -4.8553 C   0  0  0  0  0  0  0  0  0  0  0  0
    3.0351   -0.2077   -3.7271 F   0  0  0  0  0  0  0  0  0  0  0  0
   -1.1600    1.0885   -0.2821 C   0  0  0  0  0  0  0  0  0  0  0  0
   -0.6314    0.0419    0.7013 C   0  0  0  0  0  0  0  0  0  0  0  0
   -0.3903    0.6562    2.0629 C   0  0  0  0  0  0  0  0  0  0  0  0
    0.4885    0.0003    4.4438 P   0  0  1  0  0  0  0  0  0  0  0  0
    1.4478    1.0941    4.6459 O   0  0  0  0  0  0  0  0  0  0  0  0
    0.9217   -1.4683    4.8946 O   0  0  0  0  0  0  0  0  0  0  0  0
   -0.8779    0.3342    5.2116 O   0  0  0  0  0  0  0  0  0  0  0  0
    0.0959   -0.3664    2.9423 O   0  0  0  0  0  0  0  0  0  0  0  0
    1.5819    0.5663   -1.7288 H   0  0  0  0  0  0  0  0  0  0  0  0
   -3.5723    0.4350   -1.8814 H   0  0  0  0  0  0  0  0  0  0  0  0
   -3.1074   -0.4741   -4.1519 H   0  0  0  0  0  0  0  0  0  0  0  0
   -0.8713   -1.0990   -5.7550 H   0  0  0  0  0  0  0  0  0  0  0  0
    1.6159   -1.0356   -5.7031 H   0  0  0  0  0  0  0  0  0  0  0  0
   -2.1037    1.4935    0.0947 H   0  0  0  0  0  0  0  0  0  0  0  0
   -0.4615    1.9314   -0.3243 H   0  0  0  0  0  0  0  0  0  0  0  0
    0.3027   -0.3875    0.3300 H   0  0  0  0  0  0  0  0  0  0  0  0
   -1.3505   -0.7766    0.7814 H   0  0  0  0  0  0  0  0  0  0  0  0
   -1.3172    1.0826    2.4592 H   0  0  0  0  0  0  0  0  0  0  0  0
    0.3456    1.4622    1.9915 H   0  0  0  0  0  0  0  0  0  0  0  0
    1.4885   -1.4793    5.6753 H   0  0  0  0  0  0  0  0  0  0  0  0
   -1.5615   -0.3438    5.1956 H   0  0  0  0  0  0  0  0  0  0  0  0
  1  2  1  0
  1  5  2  0
  1 11  1  0
  2  3  2  0
  2  4  1  0
  3  6  1  0
  3  7  1  0
  4  8  2  0
  4 19  1  0
  5  6  1  0
  5 20  1  0
  6 21  1  0
  7  9  2  0
  7 22  1  0
  8  9  1  0
  8 10  1  0
  9 23  1  0
 11 12  1  0
 11 24  1  0
 11 25  1  0
 12 13  1  0
 12 26  1  0
 12 27  1  0
 13 18  1  0
 13 28  1  0
 13 29  1  0
 14 15  2  0
 14 16  1  1
 14 17  1  0
 14 18  1  0
 16 30  1  0
 17 31  1  0
M  END
