
     RDKit          3D

 45 44  0  0  0  0  0  0  0  0999 V2000
    9.7089   -1.4773   -0.3850 C   0  0  0  0  0  0  0  0  0  0  0  0
    8.3477   -0.8927   -0.7304 C   0  0  0  0  0  0  0  0  0  0  0  0
    7.4622   -0.7437    0.5110 C   0  0  0  0  0  0  0  0  0  0  0  0
    6.1514   -0.1832    0.2101 C   0  0  0  0  0  0  0  0  0  0  0  0
    5.0724    0.2882   -0.0571 C   0  0  0  0  0  0  0  0  0  0  0  0
    3.8024    0.8250   -0.4097 C   0  0  0  0  0  0  0  0  0  0  0  0
    2.8580    1.1711    0.4712 C   0  0  0  0  0  0  0  0  0  0  0  0
    1.5128    1.6906    0.0896 C   0  0  0  0  0  0  0  0  0  0  0  0
    0.3924    0.7327    0.5020 C   0  0  0  0  0  0  0  0  0  0  0  0
   -0.9897    1.2286    0.0980 C   0  0  0  0  0  0  0  0  0  0  0  0
   -2.0972    0.2377    0.4347 C   0  0  0  0  0  0  0  0  0  0  0  0
   -3.4791    0.7059   -0.0039 C   0  0  0  0  0  0  0  0  0  0  0  0
   -4.5684   -0.3305    0.2429 C   0  0  0  0  0  0  0  0  0  0  0  0
   -5.9479    0.1274   -0.2135 C   0  0  0  0  0  0  0  0  0  0  0  0
   -7.0237   -0.9326   -0.0102 C   0  0  0  0  0  0  0  0  0  0  0  0
   -8.3849   -0.4644   -0.4845 C   0  0  0  0  0  0  0  0  0  0  0  0
   -9.3321   -1.4886   -0.2620 O   0  0  0  0  0  0  0  0  0  0  0  0
   10.2413   -0.8455    0.3281 H   0  0  0  0  0  0  0  0  0  0  0  0
    9.6133   -2.4699    0.0587 H   0  0  0  0  0  0  0  0  0  0  0  0
   10.3324   -1.5718   -1.2740 H   0  0  0  0  0  0  0  0  0  0  0  0
    8.4695    0.0850   -1.2021 H   0  0  0  0  0  0  0  0  0  0  0  0
    7.8411   -1.5296   -1.4587 H   0  0  0  0  0  0  0  0  0  0  0  0
    7.3372   -1.7195    0.9907 H   0  0  0  0  0  0  0  0  0  0  0  0
    7.9657   -0.1089    1.2466 H   0  0  0  0  0  0  0  0  0  0  0  0
    3.6094    0.9469   -1.4724 H   0  0  0  0  0  0  0  0  0  0  0  0
    3.0513    1.0433    1.5328 H   0  0  0  0  0  0  0  0  0  0  0  0
    1.3449    2.6604    0.5706 H   0  0  0  0  0  0  0  0  0  0  0  0
    1.4721    1.8624   -0.9895 H   0  0  0  0  0  0  0  0  0  0  0  0
    0.5766   -0.2455    0.0468 H   0  0  0  0  0  0  0  0  0  0  0  0
    0.4276    0.5769    1.5850 H   0  0  0  0  0  0  0  0  0  0  0  0
   -1.1944    2.1887    0.5841 H   0  0  0  0  0  0  0  0  0  0  0  0
   -1.0012    1.4258   -0.9794 H   0  0  0  0  0  0  0  0  0  0  0  0
   -1.8733   -0.7230   -0.0424 H   0  0  0  0  0  0  0  0  0  0  0  0
   -2.1011    0.0454    1.5130 H   0  0  0  0  0  0  0  0  0  0  0  0
   -3.7352    1.6361    0.5151 H   0  0  0  0  0  0  0  0  0  0  0  0
   -3.4539    0.9525   -1.0710 H   0  0  0  0  0  0  0  0  0  0  0  0
   -4.3039   -1.2583   -0.2765 H   0  0  0  0  0  0  0  0  0  0  0  0
   -4.6020   -0.5800    1.3088 H   0  0  0  0  0  0  0  0  0  0  0  0
   -6.2263    1.0395    0.3256 H   0  0  0  0  0  0  0  0  0  0  0  0
   -5.9035    0.4033   -1.2725 H   0  0  0  0  0  0  0  0  0  0  0  0
   -6.7429   -1.8437   -0.5487 H   0  0  0  0  0  0  0  0  0  0  0  0
   -7.0803   -1.1979    1.0502 H   0  0  0  0  0  0  0  0  0  0  0  0
   -8.6580    0.4548    0.0517 H   0  0  0  0  0  0  0  0  0  0  0  0
   -8.3261   -0.1998   -1.5490 H   0  0  0  0  0  0  0  0  0  0  0  0
  -10.1844   -1.1843   -0.5860 H   0  0  0  0  0  0  0  0  0  0  0  0
  1  2  1  0
  2  3  1  0
  3  4  1  0
  4  5  3  0
  5  6  1  0
  6  7  2  0
  7  8  1  0
  8  9  1  0
  9 10  1  0
 10 11  1  0
 11 12  1  0
 12 13  1  0
 13 14  1  0
 14 15  1  0
 15 16  1  0
 16 17  1  0
  1 18  1  0
  1 19  1  0
  1 20  1  0
  2 21  1  0
  2 22  1  0
  3 23  1  0
  3 24  1  0
  6 25  1  0
  7 26  1  0
  8 27  1  0
  8 28  1  0
  9 29  1  0
  9 30  1  0
 10 31  1  0
 10 32  1  0
 11 33  1  0
 11 34  1  0
 12 35  1  0
 12 36  1  0
 13 37  1  0
 13 38  1  0
 14 39  1  0
 14 40  1  0
 15 41  1  0
 15 42  1  0
 16 43  1  0
 16 44  1  0
 17 45  1  0
M  END
