
     RDKit          3D

 41 43  0  0  0  0  0  0  0  0999 V2000
   -1.5625   -0.5459   -0.0204 C   0  0  0  0  0  0  0  0  0  0  0  0
   -0.5272   -1.4590   -0.2066 C   0  0  0  0  0  0  0  0  0  0  0  0
    0.7313   -0.9447   -0.1199 N   0  0  0  0  0  0  0  0  0  0  0  0
    0.7088    0.3265    0.1300 C   0  0  0  0  0  0  0  0  0  0  0  0
   -0.8677    1.0338    0.2912 S   0  0  0  0  0  0  0  0  0  0  0  0
   -2.9651   -0.8572   -0.0945 C   0  0  0  0  0  0  0  0  0  0  0  0
   -0.6512   -2.7689   -0.4378 N   0  0  0  0  0  0  0  0  0  0  0  0
    1.7913    1.1208    0.2744 N   0  0  0  0  0  0  0  0  0  0  0  0
   -3.3560   -2.0034   -0.3040 O   0  0  0  0  0  0  0  0  0  0  0  0
    5.8750    0.3418    0.0717 C   0  0  0  0  0  0  0  0  0  0  0  0
    4.9908   -0.7014   -0.1442 C   0  0  0  0  0  0  0  0  0  0  0  0
    3.6233   -0.4841   -0.0854 C   0  0  0  0  0  0  0  0  0  0  0  0
    3.1381    0.7939    0.1940 C   0  0  0  0  0  0  0  0  0  0  0  0
    4.0445    1.8412    0.4121 C   0  0  0  0  0  0  0  0  0  0  0  0
    5.4017    1.6198    0.3542 C   0  0  0  0  0  0  0  0  0  0  0  0
    7.8289   -1.3768   -0.1056 O   0  0  0  0  0  0  0  0  0  0  0  0
    8.0436    0.9027   -1.3254 N   0  0  0  0  0  0  0  0  0  0  0  0
    8.2520    0.7475    1.1404 O   0  0  0  0  0  0  0  0  0  0  0  0
   -3.8341    0.1924    0.0767 N   0  0  0  0  0  0  0  0  0  0  0  0
   -8.0324    0.3884    0.0829 C   0  0  0  0  0  0  0  0  0  0  0  0
   -7.3793   -0.8217   -0.0342 C   0  0  0  0  0  0  0  0  0  0  0  0
   -6.0053   -0.9653   -0.0478 C   0  0  0  0  0  0  0  0  0  0  0  0
   -5.2224    0.1861    0.0652 C   0  0  0  0  0  0  0  0  0  0  0  0
   -5.8451    1.4342    0.1863 C   0  0  0  0  0  0  0  0  0  0  0  0
   -7.2197    1.5009    0.1918 C   0  0  0  0  0  0  0  0  0  0  0  0
   -7.7984    2.7024    0.3066 F   0  0  0  0  0  0  0  0  0  0  0  0
   -1.5613   -3.1559   -0.6187 H   0  0  0  0  0  0  0  0  0  0  0  0
    0.1630   -3.2962   -0.7014 H   0  0  0  0  0  0  0  0  0  0  0  0
    1.6040    2.0923    0.4732 H   0  0  0  0  0  0  0  0  0  0  0  0
    5.3512   -1.6971   -0.3620 H   0  0  0  0  0  0  0  0  0  0  0  0
    2.9479   -1.3065   -0.2536 H   0  0  0  0  0  0  0  0  0  0  0  0
    3.6783    2.8359    0.6342 H   0  0  0  0  0  0  0  0  0  0  0  0
    6.0818    2.4433    0.5257 H   0  0  0  0  0  0  0  0  0  0  0  0
    9.0415    1.0930   -1.3432 H   0  0  0  0  0  0  0  0  0  0  0  0
    7.7590    0.4393   -2.1822 H   0  0  0  0  0  0  0  0  0  0  0  0
   -3.4367    1.1106    0.2018 H   0  0  0  0  0  0  0  0  0  0  0  0
   -9.1113    0.4626    0.0887 H   0  0  0  0  0  0  0  0  0  0  0  0
   -5.5713   -1.9463   -0.1446 H   0  0  0  0  0  0  0  0  0  0  0  0
   -5.2605    2.3415    0.2752 H   0  0  0  0  0  0  0  0  0  0  0  0
    7.6137    0.0587    0.0274 S   0  0  1  0  0  0  0  0  0  0  0  0
   -8.1220   -1.9304   -0.1431 F   0  0  0  0  0  0  0  0  0  0  0  0
  2  1  2  0
  1  6  1  0
  1  5  1  0
  7  2  1  0
  2  3  1  0
  3  4  2  0
  4  8  1  0
  4  5  1  0
  9  6  2  0
  6 19  1  0
  7 27  1  0
  7 28  1  0
  8 13  1  0
  8 29  1  0
 11 10  2  0
 15 10  1  0
 10 40  1  0
 12 11  1  0
 11 30  1  0
 13 12  2  0
 12 31  1  0
 13 14  1  0
 14 15  2  0
 14 32  1  0
 15 33  1  0
 16 40  2  0
 40 18  2  0
 40 17  1  6
 17 34  1  0
 17 35  1  0
 19 23  1  0
 19 36  1  0
 25 20  2  0
 20 21  1  0
 20 37  1  0
 22 21  2  0
 21 41  1  0
 23 22  1  0
 22 38  1  0
 24 23  2  0
 24 25  1  0
 24 39  1  0
 26 25  1  0
M  END
