
     RDKit          3D

 49 54  0  0  0  0  0  0  0  0999 V2000
   -0.7426    0.1255   -0.1448 C   0  0  0  0  0  0  0  0  0  0  0  0
   -1.2740   -1.1190    0.2725 C   0  0  0  0  0  0  0  0  0  0  0  0
   -2.5930   -1.0535    0.3718 N   0  0  0  0  0  0  0  0  0  0  0  0
   -2.9253    0.1812    0.0311 N   0  0  0  0  0  0  0  0  0  0  0  0
   -1.8564    0.9263   -0.2909 C   0  0  0  0  0  0  0  0  0  0  0  0
    0.6476    0.5388   -0.3403 C   0  0  0  0  0  0  0  0  0  0  0  0
   -0.5870   -2.3831    0.5456 C   0  0  0  0  0  0  0  0  0  0  0  0
   -1.0629   -3.2631    1.5159 C   0  0  0  0  0  0  0  0  0  0  0  0
   -0.3949   -4.4579    1.7265 C   0  0  0  0  0  0  0  0  0  0  0  0
    0.6901   -4.8252    1.0530 N   0  0  0  0  0  0  0  0  0  0  0  0
    1.1383   -3.9896    0.1234 C   0  0  0  0  0  0  0  0  0  0  0  0
    0.5432   -2.7732   -0.1695 C   0  0  0  0  0  0  0  0  0  0  0  0
   -4.3231    0.5920    0.0166 C   0  0  2  0  0  0  0  0  0  0  0  0
   -4.7815    0.9676   -1.3888 C   0  0  0  0  0  0  0  0  0  0  0  0
   -6.2475    1.4037   -1.3546 C   0  0  0  0  0  0  0  0  0  0  0  0
   -6.5243    2.4696   -0.4077 N   0  0  0  0  0  0  0  0  0  0  0  0
   -6.0603    2.1355    0.9275 C   0  0  0  0  0  0  0  0  0  0  0  0
   -4.5844    1.7365    0.9904 C   0  0  0  0  0  0  0  0  0  0  0  0
    1.0070    1.2931   -1.4478 C   0  0  0  0  0  0  0  0  0  0  0  0
    2.3264    1.7281   -1.6492 C   0  0  0  0  0  0  0  0  0  0  0  0
    3.2742    1.3825   -0.7237 C   0  0  0  0  0  0  0  0  0  0  0  0
    2.9224    0.6157    0.4126 C   0  0  0  0  0  0  0  0  0  0  0  0
    1.6321    0.1995    0.6146 C   0  0  0  0  0  0  0  0  0  0  0  0
    4.7128    1.6316   -0.5849 C   0  0  0  0  0  0  0  0  0  0  0  0
    5.1612    1.0026    0.6355 C   0  0  0  0  0  0  0  0  0  0  0  0
    4.1242    0.3962    1.2469 C   0  0  0  0  0  0  0  0  0  0  0  0
    5.6686    2.2222   -1.2002 N   0  0  0  0  0  0  0  0  0  0  0  0
    6.8438    2.0246   -0.4200 N   0  0  0  0  0  0  0  0  0  0  0  0
    6.5652    1.3288    0.6310 C   0  0  0  0  0  0  0  0  0  0  0  0
   -1.9379    1.9640   -0.5738 H   0  0  0  0  0  0  0  0  0  0  0  0
   -1.9359   -3.0213    2.1066 H   0  0  0  0  0  0  0  0  0  0  0  0
   -0.7551   -5.1489    2.4808 H   0  0  0  0  0  0  0  0  0  0  0  0
    2.0179   -4.3037   -0.4277 H   0  0  0  0  0  0  0  0  0  0  0  0
    0.9522   -2.1577   -0.9590 H   0  0  0  0  0  0  0  0  0  0  0  0
   -4.8759   -0.2900    0.3482 H   0  0  0  0  0  0  0  0  0  0  0  0
   -4.1677    1.7887   -1.7732 H   0  0  0  0  0  0  0  0  0  0  0  0
   -4.6540    0.1203   -2.0665 H   0  0  0  0  0  0  0  0  0  0  0  0
   -6.5600    1.7227   -2.3500 H   0  0  0  0  0  0  0  0  0  0  0  0
   -6.8724    0.5433   -1.0923 H   0  0  0  0  0  0  0  0  0  0  0  0
   -6.0611    3.3167   -0.7166 H   0  0  0  0  0  0  0  0  0  0  0  0
   -6.2418    2.9832    1.5899 H   0  0  0  0  0  0  0  0  0  0  0  0
   -6.6710    1.3081    1.3043 H   0  0  0  0  0  0  0  0  0  0  0  0
   -4.3149    1.4379    2.0062 H   0  0  0  0  0  0  0  0  0  0  0  0
   -3.9651    2.6009    0.7288 H   0  0  0  0  0  0  0  0  0  0  0  0
    0.2549    1.5423   -2.1851 H   0  0  0  0  0  0  0  0  0  0  0  0
    2.5758    2.3144   -2.5236 H   0  0  0  0  0  0  0  0  0  0  0  0
    1.3640   -0.3677    1.4969 H   0  0  0  0  0  0  0  0  0  0  0  0
    4.1256   -0.1608    2.1741 H   0  0  0  0  0  0  0  0  0  0  0  0
    7.3241    1.0687    1.3545 H   0  0  0  0  0  0  0  0  0  0  0  0
  2  1  1  0
  1  5  2  0
  1  6  1  0
  7  2  1  0
  3  2  2  0
  3  4  1  0
 13  4  1  0
  4  5  1  0
  5 30  1  0
 23  6  2  0
  6 19  1  0
 12  7  1  0
  7  8  2  0
  9  8  1  0
  8 31  1  0
 10  9  2  0
  9 32  1  0
 11 10  1  0
 11 12  2  0
 11 33  1  0
 12 34  1  0
 13 14  1  0
 13 18  1  0
 13 35  1  1
 14 15  1  0
 14 36  1  0
 14 37  1  0
 15 16  1  0
 15 38  1  0
 15 39  1  0
 17 16  1  0
 16 40  1  0
 18 17  1  0
 17 41  1  0
 17 42  1  0
 18 43  1  0
 18 44  1  0
 19 20  2  0
 19 45  1  0
 21 20  1  0
 20 46  1  0
 22 21  1  0
 21 24  2  0
 26 22  2  0
 23 22  1  0
 23 47  1  0
 25 24  1  0
 24 27  1  0
 26 25  1  0
 25 29  2  0
 26 48  1  0
 28 27  2  0
 29 28  1  0
 29 49  1  0
M  END
