
     RDKit          3D

 37 40  0  0  0  0  0  0  0  0999 V2000
    5.4541   -2.6990   -0.1033 C   0  0  0  0  0  0  0  0  0  0  0  0
    4.3818   -1.7795   -0.1063 O   0  0  0  0  0  0  0  0  0  0  0  0
    4.6517   -0.4566   -0.0328 C   0  0  0  0  0  0  0  0  0  0  0  0
    5.9266    0.0770    0.0282 C   0  0  0  0  0  0  0  0  0  0  0  0
    6.1103    1.4569    0.0996 C   0  0  0  0  0  0  0  0  0  0  0  0
    5.0084    2.2884    0.1086 C   0  0  0  0  0  0  0  0  0  0  0  0
    3.7199    1.7627    0.0498 C   0  0  0  0  0  0  0  0  0  0  0  0
    3.5129    0.3869   -0.0195 C   0  0  0  0  0  0  0  0  0  0  0  0
    2.2851   -0.2518   -0.0760 N   0  0  0  0  0  0  0  0  0  0  0  0
    0.9976    0.2323   -0.0604 C   0  0  0  0  0  0  0  0  0  0  0  0
    0.7971    1.5563   -0.0300 N   0  0  0  0  0  0  0  0  0  0  0  0
   -0.4352    2.0336   -0.0152 C   0  0  0  0  0  0  0  0  0  0  0  0
   -0.0436   -0.7000   -0.0798 C   0  0  0  0  0  0  0  0  0  0  0  0
   -1.3264   -0.1816   -0.0634 C   0  0  0  0  0  0  0  0  0  0  0  0
   -2.5369   -0.7925   -0.0705 N   0  0  0  0  0  0  0  0  0  0  0  0
   -3.5324    0.1650   -0.0425 C   0  0  0  0  0  0  0  0  0  0  0  0
   -2.9685    1.4100   -0.0176 C   0  0  0  0  0  0  0  0  0  0  0  0
   -1.5558    1.2136   -0.0304 C   0  0  0  0  0  0  0  0  0  0  0  0
   -4.9232   -0.1970   -0.0417 C   0  0  0  0  0  0  0  0  0  0  0  0
   -6.0884    0.4980   -0.0439 C   0  0  0  0  0  0  0  0  0  0  0  0
   -7.1365   -0.3929   -0.0407 N   0  0  0  0  0  0  0  0  0  0  0  0
   -6.5842   -1.5518   -0.0370 C   0  0  0  0  0  0  0  0  0  0  0  0
   -5.2465   -1.5144   -0.0373 O   0  0  0  0  0  0  0  0  0  0  0  0
    5.0114   -3.6895   -0.1703 H   0  0  0  0  0  0  0  0  0  0  0  0
    6.1202   -2.5512   -0.9571 H   0  0  0  0  0  0  0  0  0  0  0  0
    6.0406   -2.6367    0.8170 H   0  0  0  0  0  0  0  0  0  0  0  0
    6.7926   -0.5711    0.0210 H   0  0  0  0  0  0  0  0  0  0  0  0
    7.1129    1.8605    0.1471 H   0  0  0  0  0  0  0  0  0  0  0  0
    5.1333    3.3622    0.1613 H   0  0  0  0  0  0  0  0  0  0  0  0
    2.8703    2.4239    0.0586 H   0  0  0  0  0  0  0  0  0  0  0  0
    2.3455   -1.2572   -0.1037 H   0  0  0  0  0  0  0  0  0  0  0  0
    0.1466   -1.7656   -0.1036 H   0  0  0  0  0  0  0  0  0  0  0  0
   -0.5356    3.1138    0.0098 H   0  0  0  0  0  0  0  0  0  0  0  0
   -2.6831   -1.7889   -0.0910 H   0  0  0  0  0  0  0  0  0  0  0  0
   -3.4979    2.3490    0.0101 H   0  0  0  0  0  0  0  0  0  0  0  0
   -6.2364    1.5659   -0.0482 H   0  0  0  0  0  0  0  0  0  0  0  0
   -7.0558   -2.5222   -0.0341 H   0  0  0  0  0  0  0  0  0  0  0  0
  1  2  1  0
  2  3  1  0
  3  4  2  0
  3  8  1  0
  4  5  1  0
  5  6  2  0
  6  7  1  0
  7  8  2  0
  8  9  1  0
  9 10  1  0
 10 11  2  0
 10 13  1  0
 11 12  1  0
 12 18  2  0
 13 14  2  0
 14 15  1  0
 14 18  1  0
 15 16  1  0
 16 17  2  0
 16 19  1  0
 17 18  1  0
 19 20  2  0
 19 23  1  0
 20 21  1  0
 21 22  2  0
 22 23  1  0
  1 24  1  0
  1 25  1  0
  1 26  1  0
  4 27  1  0
  5 28  1  0
  6 29  1  0
  7 30  1  0
  9 31  1  0
 13 32  1  0
 12 33  1  0
 15 34  1  0
 17 35  1  0
 20 36  1  0
 22 37  1  0
M  END
