
     RDKit          3D

 43 45  0  0  0  0  0  0  0  0999 V2000
    0.8329    3.1536   -1.4653 C   0  0  0  0  0  0  0  0  0  0  0  0
   -2.4623   -1.3483    0.1401 C   0  0  0  0  0  0  0  0  0  0  0  0
    1.0273    2.2724   -0.4032 C   0  0  0  0  0  0  0  0  0  0  0  0
    0.9466    2.7484    0.9042 C   0  0  0  0  0  0  0  0  0  0  0  0
   -3.5349   -1.6924    0.9530 C   0  0  0  0  0  0  0  0  0  0  0  0
   -2.5114   -0.1483   -0.5665 C   0  0  0  0  0  0  0  0  0  0  0  0
    0.5849    4.4950   -1.2237 C   0  0  0  0  0  0  0  0  0  0  0  0
    0.6864    4.0899    1.1443 C   0  0  0  0  0  0  0  0  0  0  0  0
   -4.6463   -0.8671    1.0611 C   0  0  0  0  0  0  0  0  0  0  0  0
   -1.2860   -2.2698    0.0104 C   0  0  0  0  0  0  0  0  0  0  0  0
    2.5592   -3.9782   -0.1705 C   0  0  0  0  0  0  0  0  0  0  0  0
   -4.6698    0.3210    0.3513 C   0  0  0  0  0  0  0  0  0  0  0  0
   -6.0457    1.3672    0.4834 Cl  0  0  0  0  0  0  0  0  0  0  0  0
    2.1947   -1.2340    0.1224 C   0  0  0  0  0  0  0  0  0  0  0  0
    1.0843   -2.0950    0.0806 C   0  0  0  0  0  0  0  0  0  0  0  0
    3.4838   -1.7690    0.0453 C   0  0  0  0  0  0  0  0  0  0  0  0
    1.9522    0.1419    0.2388 N   0  0  0  0  0  0  0  0  0  0  0  0
   -0.1112   -1.5111    0.2387 O   0  0  0  0  0  0  0  0  0  0  0  0
    1.2738   -3.4611   -0.0831 C   0  0  0  0  0  0  0  0  0  0  0  0
    3.6588   -3.1474   -0.0988 C   0  0  0  0  0  0  0  0  0  0  0  0
    4.6727   -0.8853    0.1590 C   0  0  0  0  0  0  0  0  0  0  0  0
    1.2745    0.8363   -0.7140 C   0  0  0  0  0  0  0  0  0  0  0  0
    5.7547   -1.4191   -0.3855 O   0  0  0  0  0  0  0  0  0  0  0  0
    4.6749    0.1970    0.6980 O   0  0  0  0  0  0  0  0  0  0  0  0
    0.8961    0.3295   -1.7547 O   0  0  0  0  0  0  0  0  0  0  0  0
   -3.6085    0.6908   -0.4626 C   0  0  0  0  0  0  0  0  0  0  0  0
    0.5106    4.9656    0.0818 C   0  0  0  0  0  0  0  0  0  0  0  0
    0.8869    2.7900   -2.4829 H   0  0  0  0  0  0  0  0  0  0  0  0
    1.0577    2.0765    1.7459 H   0  0  0  0  0  0  0  0  0  0  0  0
   -3.5107   -2.6158    1.5187 H   0  0  0  0  0  0  0  0  0  0  0  0
   -1.6879    0.1429   -1.2057 H   0  0  0  0  0  0  0  0  0  0  0  0
    0.4478    5.1749   -2.0540 H   0  0  0  0  0  0  0  0  0  0  0  0
    0.6149    4.4486    2.1625 H   0  0  0  0  0  0  0  0  0  0  0  0
   -5.4747   -1.1474    1.6973 H   0  0  0  0  0  0  0  0  0  0  0  0
   -1.3706   -3.0883    0.7325 H   0  0  0  0  0  0  0  0  0  0  0  0
   -1.2564   -2.7142   -0.9911 H   0  0  0  0  0  0  0  0  0  0  0  0
    2.6945   -5.0452   -0.2825 H   0  0  0  0  0  0  0  0  0  0  0  0
    2.5157    0.6536    0.8996 H   0  0  0  0  0  0  0  0  0  0  0  0
    0.4326   -4.1392   -0.1229 H   0  0  0  0  0  0  0  0  0  0  0  0
    4.6513   -3.5706   -0.1494 H   0  0  0  0  0  0  0  0  0  0  0  0
    6.5154   -0.8345   -0.2476 H   0  0  0  0  0  0  0  0  0  0  0  0
   -3.6371    1.6209   -1.0139 H   0  0  0  0  0  0  0  0  0  0  0  0
    0.3125    6.0128    0.2700 H   0  0  0  0  0  0  0  0  0  0  0  0
 27  8  2  0
 27  7  1  0
  8  4  1  0
  7  1  2  0
  4  3  2  0
  1  3  1  0
  3 22  1  0
 13 12  1  0
  9 12  1  0
  9  5  2  0
 12 26  2  0
 22 17  1  0
 22 25  2  0
 17 14  1  0
 23 21  1  0
  5  2  1  0
 21 24  2  0
 21 16  1  0
 26  6  1  0
 14 16  2  0
 14 15  1  0
  2  6  2  0
  2 10  1  0
 16 20  1  0
 18 15  1  0
 18 10  1  0
 15 19  2  0
 20 11  2  0
 19 11  1  0
  1 28  1  0
  4 29  1  0
  5 30  1  0
  6 31  1  0
  7 32  1  0
  8 33  1  0
  9 34  1  0
 10 35  1  0
 10 36  1  0
 11 37  1  0
 17 38  1  0
 19 39  1  0
 20 40  1  0
 23 41  1  0
 26 42  1  0
 27 43  1  0
M  END
