
     RDKit          3D

 50 53  0  0  0  0  0  0  0  0999 V2000
   -1.4799    0.9156    0.1162 C   0  0  0  0  0  0  0  0  0  0  0  0
   -2.8317    0.4572    0.0078 C   0  0  0  0  0  0  0  0  0  0  0  0
   -3.8147    1.4605    0.0138 C   0  0  0  0  0  0  0  0  0  0  0  0
   -3.5016    2.7794    0.1015 N   0  0  0  0  0  0  0  0  0  0  0  0
   -1.2053    2.2010    0.2031 N   0  0  0  0  0  0  0  0  0  0  0  0
   -7.8518    0.2823   -0.2418 C   0  0  0  0  0  0  0  0  0  0  0  0
   -5.5451   -0.2203   -0.1614 C   0  0  0  0  0  0  0  0  0  0  0  0
   -5.1756    1.0961   -0.0734 C   0  0  0  0  0  0  0  0  0  0  0  0
   -4.5431   -1.2430   -0.1717 C   0  0  0  0  0  0  0  0  0  0  0  0
   -5.0180   -2.4917   -0.2647 O   0  0  0  0  0  0  0  0  0  0  0  0
   -4.0919   -3.5611   -0.2712 C   0  0  0  0  0  0  0  0  0  0  0  0
   -3.2209   -0.8982   -0.0917 C   0  0  0  0  0  0  0  0  0  0  0  0
   -2.2319    3.0581    0.1870 C   0  0  0  0  0  0  0  0  0  0  0  0
   -0.4611    0.0228    0.1436 N   0  0  0  0  0  0  0  0  0  0  0  0
    0.9121    0.2919    0.2602 C   0  0  0  0  0  0  0  0  0  0  0  0
    1.6748   -0.5408    1.0926 C   0  0  0  0  0  0  0  0  0  0  0  0
    1.0308   -1.6466    1.8759 C   0  0  0  0  0  0  0  0  0  0  0  0
    3.0437   -0.3206    1.1805 C   0  0  0  0  0  0  0  0  0  0  0  0
    1.5250    1.3148   -0.4568 C   0  0  0  0  0  0  0  0  0  0  0  0
    2.8901    1.5289   -0.3494 C   0  0  0  0  0  0  0  0  0  0  0  0
    3.6433    0.7094    0.4728 C   0  0  0  0  0  0  0  0  0  0  0  0
    4.9875    0.9487    0.6161 O   0  0  0  0  0  0  0  0  0  0  0  0
    5.8794    0.1355   -0.0175 C   0  0  0  0  0  0  0  0  0  0  0  0
    7.2112    0.2705    0.3649 C   0  0  0  0  0  0  0  0  0  0  0  0
    8.1824   -0.5073   -0.2447 C   0  0  0  0  0  0  0  0  0  0  0  0
    7.8387   -1.4235   -1.2323 C   0  0  0  0  0  0  0  0  0  0  0  0
    6.5089   -1.5477   -1.6063 C   0  0  0  0  0  0  0  0  0  0  0  0
    5.5221   -0.7737   -1.0068 C   0  0  0  0  0  0  0  0  0  0  0  0
   -7.7818    0.9641   -1.0924 H   0  0  0  0  0  0  0  0  0  0  0  0
   -8.7759   -0.2843   -0.3171 H   0  0  0  0  0  0  0  0  0  0  0  0
   -7.8675    0.8648    0.6822 H   0  0  0  0  0  0  0  0  0  0  0  0
   -5.9053    1.8936   -0.0650 H   0  0  0  0  0  0  0  0  0  0  0  0
   -4.6763   -4.4743   -0.3456 H   0  0  0  0  0  0  0  0  0  0  0  0
   -3.4130   -3.5055   -1.1261 H   0  0  0  0  0  0  0  0  0  0  0  0
   -3.5038   -3.5933    0.6496 H   0  0  0  0  0  0  0  0  0  0  0  0
   -2.4763   -1.6811   -0.1128 H   0  0  0  0  0  0  0  0  0  0  0  0
   -1.9624    4.1073    0.2569 H   0  0  0  0  0  0  0  0  0  0  0  0
   -0.7094   -0.9511    0.1829 H   0  0  0  0  0  0  0  0  0  0  0  0
    0.6495   -2.4393    1.2262 H   0  0  0  0  0  0  0  0  0  0  0  0
    1.7423   -2.1091    2.5571 H   0  0  0  0  0  0  0  0  0  0  0  0
    0.1902   -1.2808    2.4682 H   0  0  0  0  0  0  0  0  0  0  0  0
    3.6469   -0.9522    1.8220 H   0  0  0  0  0  0  0  0  0  0  0  0
    0.9399    1.9442   -1.1096 H   0  0  0  0  0  0  0  0  0  0  0  0
    3.3621    2.3274   -0.9073 H   0  0  0  0  0  0  0  0  0  0  0  0
    7.4783    0.9812    1.1371 H   0  0  0  0  0  0  0  0  0  0  0  0
    9.2150   -0.3990    0.0607 H   0  0  0  0  0  0  0  0  0  0  0  0
    8.5980   -2.0337   -1.7024 H   0  0  0  0  0  0  0  0  0  0  0  0
    6.2261   -2.2538   -2.3764 H   0  0  0  0  0  0  0  0  0  0  0  0
    4.4925   -0.8850   -1.3198 H   0  0  0  0  0  0  0  0  0  0  0  0
   -6.7998   -0.6668   -0.2439 O   0  0  0  0  0  0  0  0  0  0  0  0
 25 26  1  0
 25 24  2  0
 26 27  2  0
 24 23  1  0
 27 28  1  0
 23 28  2  0
 23 22  1  0
 22 21  1  0
 18 21  1  0
 18 16  2  0
 21 20  2  0
 17 16  1  0
 16 15  1  0
 20 19  1  0
 15 19  2  0
 15 14  1  0
  5 13  1  0
  5  1  2  0
 13  4  2  0
 14  1  1  0
  1  2  1  0
  4  3  1  0
  2  3  2  0
  2 12  1  0
  3  8  1  0
 12  9  2  0
  8  7  2  0
  9  7  1  0
  9 10  1  0
  7 50  1  0
 10 11  1  0
  6 50  1  0
  6 29  1  0
  6 30  1  0
  6 31  1  0
  8 32  1  0
 11 33  1  0
 11 34  1  0
 11 35  1  0
 12 36  1  0
 13 37  1  0
 14 38  1  0
 17 39  1  0
 17 40  1  0
 17 41  1  0
 18 42  1  0
 19 43  1  0
 20 44  1  0
 24 45  1  0
 25 46  1  0
 26 47  1  0
 27 48  1  0
 28 49  1  0
M  END
