
     RDKit          3D

102105  0  0  0  0  0  0  0  0999 V2000
   -3.7978    2.8807    0.3485 C   0  0  2  0  0  0  0  0  0  0  0  0
   -4.5414    1.5753    0.6133 C   0  0  0  0  0  0  0  0  0  0  0  0
   -4.7892    0.7930   -0.6750 C   0  0  1  0  0  0  0  0  0  0  0  0
   -5.4974   -0.5403   -0.4461 C   0  0  0  0  0  0  0  0  0  0  0  0
   -4.7479   -1.5195    0.4667 C   0  0  1  0  0  0  0  0  0  0  0  0
   -0.9573   -1.5481    0.0951 C   0  0  2  0  0  0  0  0  0  0  0  0
   -3.5104    3.6494    1.6355 C   0  0  0  0  0  0  0  0  0  0  0  0
   -2.7588    4.9482    1.3631 C   0  0  0  0  0  0  0  0  0  0  0  0
   -3.5125    5.8185    0.3632 C   0  0  0  0  0  0  0  0  0  0  0  0
   -3.7998    5.0537   -0.9249 C   0  0  0  0  0  0  0  0  0  0  0  0
   -4.5543    3.7536   -0.6566 C   0  0  1  0  0  0  0  0  0  0  0  0
   -4.8378    2.9763   -1.9389 C   0  0  0  0  0  0  0  0  0  0  0  0
   -5.5636    1.6639   -1.6629 C   0  0  0  0  0  0  0  0  0  0  0  0
   -5.4590   -2.8851    0.5016 C   0  0  1  0  0  0  0  0  0  0  0  0
   -5.3956   -3.5028   -0.7652 O   0  0  0  0  0  0  0  0  0  0  0  0
   -3.3717   -1.6476    0.0330 N   0  0  0  0  0  0  0  0  0  0  0  0
   -2.3039   -1.4095    0.7951 C   0  0  0  0  0  0  0  0  0  0  0  0
   -2.3405   -1.0731    1.9720 O   0  0  0  0  0  0  0  0  0  0  0  0
   -0.1416   -2.6971    0.7197 C   0  0  0  0  0  0  0  0  0  0  0  0
    1.2780   -2.6792    0.2342 C   0  0  0  0  0  0  0  0  0  0  0  0
    2.2556   -1.9684    0.9301 C   0  0  0  0  0  0  0  0  0  0  0  0
    3.5415   -1.8411    0.4404 C   0  0  0  0  0  0  0  0  0  0  0  0
    3.8911   -2.4331   -0.7735 C   0  0  0  0  0  0  0  0  0  0  0  0
    5.1627   -2.2498   -1.1836 O   0  0  0  0  0  0  0  0  0  0  0  0
    5.5489   -2.7649   -2.4403 C   0  0  0  0  0  0  0  0  0  0  0  0
    2.9343   -3.1651   -1.4722 C   0  0  0  0  0  0  0  0  0  0  0  0
    1.6451   -3.2748   -0.9638 C   0  0  0  0  0  0  0  0  0  0  0  0
   -0.2743   -0.2815    0.2248 N   0  0  0  0  0  0  0  0  0  0  0  0
    0.5073   -0.1799   -1.8981 O   0  0  0  0  0  0  0  0  0  0  0  0
    1.2179    1.5260   -0.3870 C   0  0  2  0  0  0  0  0  0  0  0  0
    0.4925    2.7499   -0.9445 C   0  0  0  0  0  0  0  0  0  0  0  0
    2.5528    1.3832   -0.9234 N   0  0  0  0  0  0  0  0  0  0  0  0
    3.6241    2.0310   -0.4414 C   0  0  0  0  0  0  0  0  0  0  0  0
    3.5749    2.7995    0.5062 O   0  0  0  0  0  0  0  0  0  0  0  0
    4.9035    1.7505   -1.2172 C   0  0  0  0  0  0  0  0  0  0  0  0
    6.0912    2.0274   -0.4556 N   0  0  0  0  0  0  0  0  0  0  0  0
    6.3055    1.0658    0.6127 C   0  0  0  0  0  0  0  0  0  0  0  0
    7.5594    1.4221    1.3875 C   0  0  0  0  0  0  0  0  0  0  0  0
    8.6911    1.4813    0.5480 O   0  0  0  0  0  0  0  0  0  0  0  0
    8.4941    2.4147   -0.4909 C   0  0  0  0  0  0  0  0  0  0  0  0
    7.2633    2.0839   -1.3121 C   0  0  0  0  0  0  0  0  0  0  0  0
   -2.8291    2.6198   -0.1071 H   0  0  0  0  0  0  0  0  0  0  0  0
   -3.9674    0.9785    1.3264 H   0  0  0  0  0  0  0  0  0  0  0  0
   -5.5048    1.7947    1.0933 H   0  0  0  0  0  0  0  0  0  0  0  0
   -3.8113    0.5845   -1.1274 H   0  0  0  0  0  0  0  0  0  0  0  0
   -6.4851   -0.3594   -0.0079 H   0  0  0  0  0  0  0  0  0  0  0  0
   -5.6772   -1.0148   -1.4164 H   0  0  0  0  0  0  0  0  0  0  0  0
   -4.7284   -1.1084    1.4746 H   0  0  0  0  0  0  0  0  0  0  0  0
   -1.0866   -1.7430   -0.9696 H   0  0  0  0  0  0  0  0  0  0  0  0
   -4.4589    3.8779    2.1368 H   0  0  0  0  0  0  0  0  0  0  0  0
   -2.9400    3.0171    2.3227 H   0  0  0  0  0  0  0  0  0  0  0  0
   -2.5944    5.4940    2.2956 H   0  0  0  0  0  0  0  0  0  0  0  0
   -1.7657    4.7137    0.9625 H   0  0  0  0  0  0  0  0  0  0  0  0
   -4.4594    6.1411    0.8097 H   0  0  0  0  0  0  0  0  0  0  0  0
   -2.9466    6.7279    0.1454 H   0  0  0  0  0  0  0  0  0  0  0  0
   -4.3723    5.6795   -1.6163 H   0  0  0  0  0  0  0  0  0  0  0  0
   -2.8523    4.8220   -1.4278 H   0  0  0  0  0  0  0  0  0  0  0  0
   -5.5217    4.0135   -0.1999 H   0  0  0  0  0  0  0  0  0  0  0  0
   -5.4240    3.5949   -2.6252 H   0  0  0  0  0  0  0  0  0  0  0  0
   -3.8888    2.7643   -2.4465 H   0  0  0  0  0  0  0  0  0  0  0  0
   -5.7220    1.1177   -2.5976 H   0  0  0  0  0  0  0  0  0  0  0  0
   -6.5593    1.8756   -1.2547 H   0  0  0  0  0  0  0  0  0  0  0  0
   -6.5169   -2.6754    0.6979 H   0  0  0  0  0  0  0  0  0  0  0  0
   -4.5672   -3.9962   -0.8040 H   0  0  0  0  0  0  0  0  0  0  0  0
   -4.2082   -2.4535    3.0709 H   0  0  0  0  0  0  0  0  0  0  0  0
   -5.9502   -2.7349    3.2005 H   0  0  0  0  0  0  0  0  0  0  0  0
   -4.8177   -3.9584    3.7539 H   0  0  0  0  0  0  0  0  0  0  0  0
   -5.6224   -5.7910    2.3788 H   0  0  0  0  0  0  0  0  0  0  0  0
   -6.9604   -4.7508    1.9137 H   0  0  0  0  0  0  0  0  0  0  0  0
   -6.0091   -5.5679    0.6714 H   0  0  0  0  0  0  0  0  0  0  0  0
   -3.4574   -5.0531    1.7673 H   0  0  0  0  0  0  0  0  0  0  0  0
   -3.2162   -1.8842   -0.9344 H   0  0  0  0  0  0  0  0  0  0  0  0
   -0.1698   -2.6003    1.8071 H   0  0  0  0  0  0  0  0  0  0  0  0
   -0.6344   -3.6386    0.4674 H   0  0  0  0  0  0  0  0  0  0  0  0
    2.0051   -1.4965    1.8730 H   0  0  0  0  0  0  0  0  0  0  0  0
    4.2814   -1.2738    0.9909 H   0  0  0  0  0  0  0  0  0  0  0  0
    6.5887   -2.4819   -2.5846 H   0  0  0  0  0  0  0  0  0  0  0  0
    5.4745   -3.8550   -2.4786 H   0  0  0  0  0  0  0  0  0  0  0  0
    4.9531   -2.3445   -3.2550 H   0  0  0  0  0  0  0  0  0  0  0  0
    3.1691   -3.6500   -2.4103 H   0  0  0  0  0  0  0  0  0  0  0  0
    0.9115   -3.8374   -1.5297 H   0  0  0  0  0  0  0  0  0  0  0  0
   -0.2022    0.1050    1.1539 H   0  0  0  0  0  0  0  0  0  0  0  0
    1.2905    1.6182    0.6988 H   0  0  0  0  0  0  0  0  0  0  0  0
    0.4312    2.7034   -2.0313 H   0  0  0  0  0  0  0  0  0  0  0  0
   -0.5217    2.8170   -0.5466 H   0  0  0  0  0  0  0  0  0  0  0  0
    1.0222    3.6593   -0.6646 H   0  0  0  0  0  0  0  0  0  0  0  0
    2.6641    0.7681   -1.7154 H   0  0  0  0  0  0  0  0  0  0  0  0
    4.8842    0.7205   -1.6111 H   0  0  0  0  0  0  0  0  0  0  0  0
    4.8889    2.4108   -2.0911 H   0  0  0  0  0  0  0  0  0  0  0  0
    5.4593    1.0802    1.3015 H   0  0  0  0  0  0  0  0  0  0  0  0
    6.3907    0.0390    0.2175 H   0  0  0  0  0  0  0  0  0  0  0  0
    7.4095    2.3842    1.8973 H   0  0  0  0  0  0  0  0  0  0  0  0
    7.7546    0.6654    2.1487 H   0  0  0  0  0  0  0  0  0  0  0  0
    8.3962    3.4301   -0.0808 H   0  0  0  0  0  0  0  0  0  0  0  0
    9.3824    2.3938   -1.1240 H   0  0  0  0  0  0  0  0  0  0  0  0
    7.4246    1.1335   -1.8496 H   0  0  0  0  0  0  0  0  0  0  0  0
    7.1232    2.8613   -2.0671 H   0  0  0  0  0  0  0  0  0  0  0  0
   -5.0000   -3.8635    1.6039 C   0  0  1  0  0  0  0  0  0  0  0  0
   -4.9899   -3.2057    2.9811 C   0  0  0  0  0  0  0  0  0  0  0  0
   -5.9526   -5.0616    1.6349 C   0  0  0  0  0  0  0  0  0  0  0  0
   -3.6943   -4.2871    1.2341 O   0  0  0  0  0  0  0  0  0  0  0  0
    0.4568    0.2595   -0.7600 C   0  0  0  0  0  0  0  0  0  0  0  0
 35 33  1  0
 35 36  1  0
 37 36  1  0
 37 38  1  0
 33 34  2  0
 33 32  1  0
 36 41  1  0
 38 39  1  0
 32 30  1  0
 41 40  1  0
 39 40  1  0
 31 30  1  0
 30102  1  0
102 29  2  0
102 28  1  0
 26 27  2  0
 26 23  1  0
 28  6  1  0
 27 20  1  0
 24 23  1  0
 24 25  1  0
 23 22  2  0
  6 19  1  0
  6 17  1  0
 18 17  2  0
 20 19  1  0
 20 21  2  0
  8  7  1  0
  8  9  1  0
 17 16  1  0
 22 21  1  0
  7  1  1  0
  9 10  1  0
  1  2  1  0
  1 11  1  0
100 98  1  0
 10 11  1  0
 16  5  1  0
  2  3  1  0
 11 12  1  0
  5  4  1  0
  5 14  1  0
  3  4  1  0
  3 13  1  0
 98101  1  6
 98 14  1  0
 98 99  1  0
 12 13  1  0
 14 15  1  0
  1 42  1  6
  2 43  1  0
  2 44  1  0
  3 45  1  6
  4 46  1  0
  4 47  1  0
  5 48  1  1
  6 49  1  6
  7 50  1  0
  7 51  1  0
  8 52  1  0
  8 53  1  0
  9 54  1  0
  9 55  1  0
 10 56  1  0
 10 57  1  0
 11 58  1  1
 12 59  1  0
 12 60  1  0
 13 61  1  0
 13 62  1  0
 14 63  1  1
 15 64  1  0
 99 65  1  0
 99 66  1  0
 99 67  1  0
100 68  1  0
100 69  1  0
100 70  1  0
101 71  1  0
 16 72  1  0
 19 73  1  0
 19 74  1  0
 21 75  1  0
 22 76  1  0
 25 77  1  0
 25 78  1  0
 25 79  1  0
 26 80  1  0
 27 81  1  0
 28 82  1  0
 30 83  1  1
 31 84  1  0
 31 85  1  0
 31 86  1  0
 32 87  1  0
 35 88  1  0
 35 89  1  0
 37 90  1  0
 37 91  1  0
 38 92  1  0
 38 93  1  0
 40 94  1  0
 40 95  1  0
 41 96  1  0
 41 97  1  0
M  END
