
     RDKit          3D

 49 51  0  0  0  0  0  0  0  0999 V2000
    4.4917    0.7172    0.7110 C   0  0  0  0  0  0  0  0  0  0  0  0
    5.4465    1.6121    1.1710 C   0  0  0  0  0  0  0  0  0  0  0  0
    6.7811    1.2968    1.3152 C   0  0  0  0  0  0  0  0  0  0  0  0
    7.1640    0.0124    0.9779 C   0  0  0  0  0  0  0  0  0  0  0  0
    6.2639   -0.9249    0.5154 C   0  0  0  0  0  0  0  0  0  0  0  0
    4.9296   -0.5616    0.3863 C   0  0  0  0  0  0  0  0  0  0  0  0
    3.0636    1.1712    0.6019 C   0  0  0  0  0  0  0  0  0  0  0  0
    2.3045    0.1051    0.0612 O   0  0  0  0  0  0  0  0  0  0  0  0
    0.9942    0.2353   -0.0993 C   0  0  0  0  0  0  0  0  0  0  0  0
    0.3025   -0.8330   -0.6164 C   0  0  0  0  0  0  0  0  0  0  0  0
   -1.1107   -0.8012   -0.8263 C   0  0  0  0  0  0  0  0  0  0  0  0
   -1.7272    0.4023   -0.4596 N   0  0  0  0  0  0  0  0  0  0  0  0
   -1.0587    1.4753    0.0496 C   0  0  0  0  0  0  0  0  0  0  0  0
    0.2886    1.4148    0.2359 C   0  0  0  0  0  0  0  0  0  0  0  0
   -3.1453    0.4649   -0.6500 C   0  0  0  0  0  0  0  0  0  0  0  0
   -3.9701    0.1231    0.4039 C   0  0  0  0  0  0  0  0  0  0  0  0
   -5.3518    0.2034    0.2687 C   0  0  0  0  0  0  0  0  0  0  0  0
   -5.8782    0.6062   -0.9548 C   0  0  0  0  0  0  0  0  0  0  0  0
   -5.0391    0.9295   -2.0092 C   0  0  0  0  0  0  0  0  0  0  0  0
   -3.6549    0.8663   -1.8842 C   0  0  0  0  0  0  0  0  0  0  0  0
    5.0472    2.8510    1.4953 F   0  0  0  0  0  0  0  0  0  0  0  0
    8.4537   -0.3231    1.1077 F   0  0  0  0  0  0  0  0  0  0  0  0
    1.1876   -2.4144   -1.0810 Br  0  0  0  0  0  0  0  0  0  0  0  0
   -1.7832   -1.7144   -1.2819 O   0  0  0  0  0  0  0  0  0  0  0  0
   -1.8357    2.7019    0.3908 C   0  0  0  0  0  0  0  0  0  0  0  0
   -6.1943   -0.1889    1.4407 C   0  0  0  0  0  0  0  0  0  0  0  0
   -5.7511   -0.9209    2.3173 O   0  0  0  0  0  0  0  0  0  0  0  0
   -7.4400    0.3010    1.4756 N   0  0  0  0  0  0  0  0  0  0  0  0
   -8.3563   -0.0149    2.5464 C   0  0  0  0  0  0  0  0  0  0  0  0
   -2.7585    1.1952   -3.0368 C   0  0  0  0  0  0  0  0  0  0  0  0
    7.4932    2.0273    1.6766 H   0  0  0  0  0  0  0  0  0  0  0  0
    6.5907   -1.9230    0.2574 H   0  0  0  0  0  0  0  0  0  0  0  0
    4.2273   -1.2993    0.0249 H   0  0  0  0  0  0  0  0  0  0  0  0
    2.6799    1.4487    1.5890 H   0  0  0  0  0  0  0  0  0  0  0  0
    2.9916    2.0513   -0.0450 H   0  0  0  0  0  0  0  0  0  0  0  0
    0.7909    2.2803    0.6387 H   0  0  0  0  0  0  0  0  0  0  0  0
   -3.5325   -0.1996    1.3400 H   0  0  0  0  0  0  0  0  0  0  0  0
   -6.9476    0.6529   -1.1158 H   0  0  0  0  0  0  0  0  0  0  0  0
   -5.4701    1.2343   -2.9544 H   0  0  0  0  0  0  0  0  0  0  0  0
   -2.5869    2.5006    1.1550 H   0  0  0  0  0  0  0  0  0  0  0  0
   -1.1656    3.4707    0.7663 H   0  0  0  0  0  0  0  0  0  0  0  0
   -2.3594    3.1015   -0.4785 H   0  0  0  0  0  0  0  0  0  0  0  0
   -7.7291    0.9893    0.8021 H   0  0  0  0  0  0  0  0  0  0  0  0
   -9.3189    0.4314    2.3148 H   0  0  0  0  0  0  0  0  0  0  0  0
   -8.4922   -1.0912    2.6459 H   0  0  0  0  0  0  0  0  0  0  0  0
   -8.0150    0.3782    3.5052 H   0  0  0  0  0  0  0  0  0  0  0  0
   -2.2448    0.3025   -3.3972 H   0  0  0  0  0  0  0  0  0  0  0  0
   -3.3313    1.6045   -3.8666 H   0  0  0  0  0  0  0  0  0  0  0  0
   -1.9911    1.9248   -2.7740 H   0  0  0  0  0  0  0  0  0  0  0  0
  1  2  2  0
  1  6  1  0
  1  7  1  0
  2  3  1  0
  2 21  1  0
  3  4  2  0
  4  5  1  0
  4 22  1  0
  5  6  2  0
  7  8  1  0
  8  9  1  0
  9 10  2  0
  9 14  1  0
 10 11  1  0
 10 23  1  0
 11 12  1  0
 11 24  2  0
 12 13  1  0
 12 15  1  0
 13 14  2  0
 13 25  1  0
 15 16  2  0
 15 20  1  0
 16 17  1  0
 17 18  2  0
 17 26  1  0
 18 19  1  0
 19 20  2  0
 20 30  1  0
 26 27  2  0
 26 28  1  0
 28 29  1  0
  3 31  1  0
  5 32  1  0
  6 33  1  0
  7 34  1  0
  7 35  1  0
 14 36  1  0
 16 37  1  0
 18 38  1  0
 19 39  1  0
 25 40  1  0
 25 41  1  0
 25 42  1  0
 28 43  1  0
 29 44  1  0
 29 45  1  0
 29 46  1  0
 30 47  1  0
 30 48  1  0
 30 49  1  0
M  END
