
     RDKit          3D

 59 58  0  0  0  0  0  0  0  0999 V2000
    6.4307    0.5564    0.0169 C   0  0  0  0  0  0  0  0  0  0  0  0
    5.1661   -0.2930    0.0121 C   0  0  0  0  0  0  0  0  0  0  0  0
    3.8876    0.5357    0.0186 C   0  0  0  0  0  0  0  0  0  0  0  0
    2.6217   -0.3124    0.0121 C   0  0  0  0  0  0  0  0  0  0  0  0
    1.3427    0.5157    0.0188 C   0  0  0  0  0  0  0  0  0  0  0  0
   -1.2027    0.4947    0.0140 C   0  0  0  0  0  0  0  0  0  0  0  0
   -5.0124   -0.3799   -0.0046 C   0  0  0  0  0  0  0  0  0  0  0  0
   -7.5565   -0.4111   -0.0143 C   0  0  0  0  0  0  0  0  0  0  0  0
  -10.0999   -0.4497   -0.0274 C   0  0  0  0  0  0  0  0  0  0  0  0
   10.3298   -1.3849   -0.0304 O   0  0  0  0  0  0  0  0  0  0  0  0
   10.2385   -0.1827   -0.0010 C   0  0  0  0  0  0  0  0  0  0  0  0
   11.2991    0.6211    0.0200 O   0  0  0  0  0  0  0  0  0  0  0  0
    8.9505    0.5921    0.0150 C   0  0  0  0  0  0  0  0  0  0  0  0
    7.7049   -0.2788    0.0059 C   0  0  0  0  0  0  0  0  0  0  0  0
    0.0768   -0.3325    0.0099 C   0  0  0  0  0  0  0  0  0  0  0  0
   -2.4680   -0.3543    0.0034 C   0  0  0  0  0  0  0  0  0  0  0  0
   -3.7486    0.4714    0.0046 C   0  0  0  0  0  0  0  0  0  0  0  0
   -6.2946    0.4431   -0.0047 C   0  0  0  0  0  0  0  0  0  0  0  0
   -8.8409    0.4085   -0.0161 C   0  0  0  0  0  0  0  0  0  0  0  0
  -11.3884    0.3642   -0.0289 C   0  0  0  0  0  0  0  0  0  0  0  0
  -12.6356   -0.5092   -0.0390 C   0  0  0  0  0  0  0  0  0  0  0  0
    6.4234    1.2233   -0.8525 H   0  0  0  0  0  0  0  0  0  0  0  0
    6.4275    1.2075    0.8982 H   0  0  0  0  0  0  0  0  0  0  0  0
    5.1710   -0.9462   -0.8677 H   0  0  0  0  0  0  0  0  0  0  0  0
    5.1724   -0.9580    0.8830 H   0  0  0  0  0  0  0  0  0  0  0  0
    3.8827    1.1884    0.8989 H   0  0  0  0  0  0  0  0  0  0  0  0
    3.8824    1.2015   -0.8518 H   0  0  0  0  0  0  0  0  0  0  0  0
    2.6270   -0.9648   -0.8684 H   0  0  0  0  0  0  0  0  0  0  0  0
    2.6271   -0.9787    0.8822 H   0  0  0  0  0  0  0  0  0  0  0  0
    1.3366    1.1669    0.9002 H   0  0  0  0  0  0  0  0  0  0  0  0
    1.3381    1.1833   -0.8503 H   0  0  0  0  0  0  0  0  0  0  0  0
   -1.2107    1.1467    0.8949 H   0  0  0  0  0  0  0  0  0  0  0  0
   -1.2064    1.1617   -0.8556 H   0  0  0  0  0  0  0  0  0  0  0  0
   -5.0018   -1.0344   -0.8836 H   0  0  0  0  0  0  0  0  0  0  0  0
   -5.0080   -1.0447    0.8667 H   0  0  0  0  0  0  0  0  0  0  0  0
   -7.5434   -1.0665   -0.8927 H   0  0  0  0  0  0  0  0  0  0  0  0
   -7.5511   -1.0750    0.8577 H   0  0  0  0  0  0  0  0  0  0  0  0
  -10.0849   -1.1046   -0.9062 H   0  0  0  0  0  0  0  0  0  0  0  0
  -10.0939   -1.1145    0.8441 H   0  0  0  0  0  0  0  0  0  0  0  0
   12.1124    0.0949    0.0059 H   0  0  0  0  0  0  0  0  0  0  0  0
    8.9566    1.2443    0.8944 H   0  0  0  0  0  0  0  0  0  0  0  0
    8.9517    1.2680   -0.8467 H   0  0  0  0  0  0  0  0  0  0  0  0
    7.7103   -0.9441    0.8737 H   0  0  0  0  0  0  0  0  0  0  0  0
    7.7085   -0.9228   -0.8779 H   0  0  0  0  0  0  0  0  0  0  0  0
    0.0839   -0.9849   -0.8709 H   0  0  0  0  0  0  0  0  0  0  0  0
    0.0808   -0.9991    0.8798 H   0  0  0  0  0  0  0  0  0  0  0  0
   -2.4587   -1.0071   -0.8769 H   0  0  0  0  0  0  0  0  0  0  0  0
   -2.4651   -1.0204    0.8736 H   0  0  0  0  0  0  0  0  0  0  0  0
   -3.7526    1.1359   -0.8668 H   0  0  0  0  0  0  0  0  0  0  0  0
   -3.7581    1.1259    0.8837 H   0  0  0  0  0  0  0  0  0  0  0  0
   -6.3063    1.0978    0.8741 H   0  0  0  0  0  0  0  0  0  0  0  0
   -6.2995    1.1072   -0.8765 H   0  0  0  0  0  0  0  0  0  0  0  0
   -8.8556    1.0630    0.8629 H   0  0  0  0  0  0  0  0  0  0  0  0
   -8.8466    1.0728   -0.8877 H   0  0  0  0  0  0  0  0  0  0  0  0
  -11.4043    1.0175    0.8492 H   0  0  0  0  0  0  0  0  0  0  0  0
  -11.3965    1.0273   -0.8997 H   0  0  0  0  0  0  0  0  0  0  0  0
  -12.6594   -1.1493   -0.9233 H   0  0  0  0  0  0  0  0  0  0  0  0
  -12.6670   -1.1586    0.8381 H   0  0  0  0  0  0  0  0  0  0  0  0
  -13.5479    0.0884   -0.0397 H   0  0  0  0  0  0  0  0  0  0  0  0
 21 20  1  0
 10 11  2  0
 20  9  1  0
 11 12  1  0
 11 13  1  0
  9 19  1  0
 13 14  1  0
 19  8  1  0
 18  7  1  0
 18  8  1  0
 14  1  1  0
  7 17  1  0
 16 17  1  0
 16  6  1  0
  5 15  1  0
  5  4  1  0
 15  6  1  0
  2  1  1  0
  2  3  1  0
  4  3  1  0
  1 22  1  0
  1 23  1  0
  2 24  1  0
  2 25  1  0
  3 26  1  0
  3 27  1  0
  4 28  1  0
  4 29  1  0
  5 30  1  0
  5 31  1  0
  6 32  1  0
  6 33  1  0
  7 34  1  0
  7 35  1  0
  8 36  1  0
  8 37  1  0
  9 38  1  0
  9 39  1  0
 12 40  1  0
 13 41  1  0
 13 42  1  0
 14 43  1  0
 14 44  1  0
 15 45  1  0
 15 46  1  0
 16 47  1  0
 16 48  1  0
 17 49  1  0
 17 50  1  0
 18 51  1  0
 18 52  1  0
 19 53  1  0
 19 54  1  0
 20 55  1  0
 20 56  1  0
 21 57  1  0
 21 58  1  0
 21 59  1  0
M  END
