
     RDKit          3D

 61 65  0  0  0  0  0  0  0  0999 V2000
    2.0303    0.0457   -1.9981 S   0  0  1  0  0  0  0  0  0  0  0  0
    3.0309   -0.9895   -1.8125 O   0  0  0  0  0  0  0  0  0  0  0  0
   -1.0628    0.6293    0.4800 C   0  0  0  0  0  0  0  0  0  0  0  0
   -1.8316    1.5360    0.7676 O   0  0  0  0  0  0  0  0  0  0  0  0
   -0.1717    0.8115   -0.7368 C   0  0  0  0  0  0  0  0  0  0  0  0
    0.8881   -0.1800   -0.8183 N   0  0  0  0  0  0  0  0  0  0  0  0
   -0.1022   -1.6158    0.8164 C   0  0  0  0  0  0  0  0  0  0  0  0
    0.3708   -1.5263   -0.6136 C   0  0  0  0  0  0  0  0  0  0  0  0
   -0.9963   -0.5226    1.1653 N   0  0  0  0  0  0  0  0  0  0  0  0
    2.4114    1.4454   -1.9427 O   0  0  0  0  0  0  0  0  0  0  0  0
   -1.8140   -0.6779    2.3608 C   0  0  0  0  0  0  0  0  0  0  0  0
    1.8348    0.2685    9.3329 C   0  0  0  0  0  0  0  0  0  0  0  0
   -0.3423    0.0811    6.3660 N   0  0  0  0  0  0  0  0  0  0  0  0
    0.0941    0.1322    7.6617 C   0  0  0  0  0  0  0  0  0  0  0  0
    1.4533    0.2720    8.0048 C   0  0  0  0  0  0  0  0  0  0  0  0
   -1.6987    0.4942    6.0314 C   0  0  0  0  0  0  0  0  0  0  0  0
   -0.7816    0.0216    8.7610 C   0  0  0  0  0  0  0  0  0  0  0  0
    0.6034    0.2468    5.2747 C   0  0  0  0  0  0  0  0  0  0  0  0
   -1.2735    0.0370    3.5963 C   0  0  1  0  0  0  0  0  0  0  0  0
   -2.2084   -0.1925    4.7762 C   0  0  0  0  0  0  0  0  0  0  0  0
    1.0058    0.1499   10.3645 N   0  0  0  0  0  0  0  0  0  0  0  0
   -0.2814    0.0310   10.0465 C   0  0  0  0  0  0  0  0  0  0  0  0
    0.1211   -0.4212    3.9944 C   0  0  0  0  0  0  0  0  0  0  0  0
    0.6617    0.7969   -4.2232 C   0  0  0  0  0  0  0  0  0  0  0  0
    1.2091   -0.2535   -3.5366 C   0  0  0  0  0  0  0  0  0  0  0  0
   -0.1634   -0.7727   -5.9014 C   0  0  0  0  0  0  0  0  0  0  0  0
    0.4231   -1.8283   -5.1642 C   0  0  0  0  0  0  0  0  0  0  0  0
    1.0997   -1.5813   -4.0048 C   0  0  0  0  0  0  0  0  0  0  0  0
   -0.0397    0.5562   -5.4237 C   0  0  0  0  0  0  0  0  0  0  0  0
   -0.6187    1.6115   -6.1652 C   0  0  0  0  0  0  0  0  0  0  0  0
   -0.8633   -1.0146   -7.1038 C   0  0  0  0  0  0  0  0  0  0  0  0
   -1.2927    1.3628   -7.3265 C   0  0  0  0  0  0  0  0  0  0  0  0
   -1.4084    0.0354   -7.7866 C   0  0  0  0  0  0  0  0  0  0  0  0
    0.2532    1.8112   -0.6707 H   0  0  0  0  0  0  0  0  0  0  0  0
   -0.8304    0.7829   -1.6162 H   0  0  0  0  0  0  0  0  0  0  0  0
   -0.6378   -2.5571    0.9448 H   0  0  0  0  0  0  0  0  0  0  0  0
    0.7599   -1.6319    1.4878 H   0  0  0  0  0  0  0  0  0  0  0  0
   -0.4461   -1.7452   -1.3117 H   0  0  0  0  0  0  0  0  0  0  0  0
    1.1526   -2.2679   -0.7598 H   0  0  0  0  0  0  0  0  0  0  0  0
   -2.8252   -0.3247    2.1515 H   0  0  0  0  0  0  0  0  0  0  0  0
   -1.8890   -1.7488    2.5624 H   0  0  0  0  0  0  0  0  0  0  0  0
    2.2264    0.3981    7.2627 H   0  0  0  0  0  0  0  0  0  0  0  0
   -1.7283    1.5836    5.8888 H   0  0  0  0  0  0  0  0  0  0  0  0
   -2.3757    0.2659    6.8488 H   0  0  0  0  0  0  0  0  0  0  0  0
   -1.8485   -0.0895    8.6401 H   0  0  0  0  0  0  0  0  0  0  0  0
    0.7945    1.3131    5.0903 H   0  0  0  0  0  0  0  0  0  0  0  0
    1.5537   -0.2079    5.5427 H   0  0  0  0  0  0  0  0  0  0  0  0
   -1.2421    1.1125    3.3891 H   0  0  0  0  0  0  0  0  0  0  0  0
   -3.2091    0.1886    4.5581 H   0  0  0  0  0  0  0  0  0  0  0  0
   -2.3082   -1.2663    4.9663 H   0  0  0  0  0  0  0  0  0  0  0  0
   -0.9766   -0.0665   10.8740 H   0  0  0  0  0  0  0  0  0  0  0  0
    0.1279   -1.5076    4.1339 H   0  0  0  0  0  0  0  0  0  0  0  0
    0.8503   -0.1934    3.2136 H   0  0  0  0  0  0  0  0  0  0  0  0
    0.7637    1.8155   -3.8710 H   0  0  0  0  0  0  0  0  0  0  0  0
    0.3371   -2.8423   -5.5328 H   0  0  0  0  0  0  0  0  0  0  0  0
    1.5571   -2.3977   -3.4631 H   0  0  0  0  0  0  0  0  0  0  0  0
   -0.5244    2.6274   -5.8036 H   0  0  0  0  0  0  0  0  0  0  0  0
   -0.9610   -2.0282   -7.4701 H   0  0  0  0  0  0  0  0  0  0  0  0
   -1.7345    2.1721   -7.8912 H   0  0  0  0  0  0  0  0  0  0  0  0
   -2.2690   -0.2514   -9.2588 Cl  0  0  0  0  0  0  0  0  0  0  0  0
    2.8884    0.3791    9.5692 H   0  0  0  0  0  0  0  0  0  0  0  0
  1  2  2  0
  1  6  1  0
  1 10  2  0
  1 25  1  6
  3  4  2  0
  3  5  1  0
  3  9  1  0
  5  6  1  0
  5 34  1  0
  5 35  1  0
  6  8  1  0
  7  8  1  0
  7  9  1  0
  7 36  1  0
  7 37  1  0
  8 38  1  0
  8 39  1  0
  9 11  1  0
 11 19  1  0
 11 40  1  0
 11 41  1  0
 12 15  2  0
 12 21  1  0
 12 61  1  0
 13 14  1  0
 13 16  1  0
 13 18  1  0
 14 15  1  0
 14 17  2  0
 15 42  1  0
 16 20  1  0
 16 43  1  0
 16 44  1  0
 17 22  1  0
 17 45  1  0
 18 23  1  0
 18 46  1  0
 18 47  1  0
 19 20  1  0
 19 23  1  0
 19 48  1  6
 20 49  1  0
 20 50  1  0
 21 22  2  0
 22 51  1  0
 23 52  1  0
 23 53  1  0
 24 25  2  0
 24 29  1  0
 24 54  1  0
 25 28  1  0
 26 27  1  0
 26 29  2  0
 26 31  1  0
 27 28  2  0
 27 55  1  0
 28 56  1  0
 29 30  1  0
 60 33  1  0
 30 32  2  0
 30 57  1  0
 31 33  2  0
 31 58  1  0
 32 33  1  0
 32 59  1  0
M  END
