
     RDKit          3D

 41 43  0  0  0  0  0  0  0  0999 V2000
    4.6085    0.8319    0.1680 C   0  0  0  0  0  0  0  0  0  0  0  0
   -6.0785   -0.0240    0.1673 C   0  0  0  0  0  0  0  0  0  0  0  0
    5.9812    1.0494    0.2486 C   0  0  0  0  0  0  0  0  0  0  0  0
    6.9046    0.0178    0.0616 C   0  0  0  0  0  0  0  0  0  0  0  0
   -3.3051   -0.4599   -0.0448 C   0  0  0  0  0  0  0  0  0  0  0  0
    8.3791    0.2732    0.1544 C   0  0  0  0  0  0  0  0  0  0  0  0
    1.6682   -0.0038   -0.0480 C   0  0  0  0  0  0  0  0  0  0  0  0
   -0.8544   -0.0071   -0.0301 C   0  0  0  0  0  0  0  0  0  0  0  0
    0.4055   -0.7546   -0.2038 C   0  0  0  0  0  0  0  0  0  0  0  0
   -4.2149   -1.5152   -0.1928 C   0  0  0  0  0  0  0  0  0  0  0  0
   -5.5726   -1.2996   -0.0899 C   0  0  0  0  0  0  0  0  0  0  0  0
    1.7223    1.2644    0.2133 N   0  0  0  0  0  0  0  0  0  0  0  0
    4.1237   -0.4470   -0.1044 C   0  0  0  0  0  0  0  0  0  0  0  0
   -0.9122    1.2589    0.2319 N   0  0  0  0  0  0  0  0  0  0  0  0
    6.3908   -1.2446   -0.2107 C   0  0  0  0  0  0  0  0  0  0  0  0
    5.0318   -1.4907   -0.2948 C   0  0  0  0  0  0  0  0  0  0  0  0
    6.4778    2.2755    0.5118 O   0  0  0  0  0  0  0  0  0  0  0  0
    0.4039    2.1836    0.4113 S   0  0  0  0  0  0  0  0  0  0  0  0
    0.4046   -1.9476   -0.4603 O   0  0  0  0  0  0  0  0  0  0  0  0
   -1.9648   -0.7784   -0.1688 N   0  0  0  0  0  0  0  0  0  0  0  0
   -5.1691    1.0163    0.3257 C   0  0  0  0  0  0  0  0  0  0  0  0
   -3.8029    0.8201    0.2168 C   0  0  0  0  0  0  0  0  0  0  0  0
   -7.9143    1.3202    0.8244 O   0  0  0  0  0  0  0  0  0  0  0  0
   -8.3891   -0.6507   -0.1495 N   0  0  0  0  0  0  0  0  0  0  0  0
    3.9295    1.6588    0.3140 H   0  0  0  0  0  0  0  0  0  0  0  0
    8.7086    1.0277   -0.5621 H   0  0  0  0  0  0  0  0  0  0  0  0
    8.6690    0.6285    1.1451 H   0  0  0  0  0  0  0  0  0  0  0  0
    8.9405   -0.6385   -0.0457 H   0  0  0  0  0  0  0  0  0  0  0  0
   -3.8490   -2.5165   -0.3859 H   0  0  0  0  0  0  0  0  0  0  0  0
   -6.2264   -2.1560   -0.1925 H   0  0  0  0  0  0  0  0  0  0  0  0
    2.5782   -1.7381   -0.4079 H   0  0  0  0  0  0  0  0  0  0  0  0
    7.0808   -2.0662   -0.3618 H   0  0  0  0  0  0  0  0  0  0  0  0
    4.6748   -2.4903   -0.5102 H   0  0  0  0  0  0  0  0  0  0  0  0
    5.7632    2.9110    0.6312 H   0  0  0  0  0  0  0  0  0  0  0  0
   -1.7666   -1.7481   -0.3726 H   0  0  0  0  0  0  0  0  0  0  0  0
   -5.5314    2.0140    0.5340 H   0  0  0  0  0  0  0  0  0  0  0  0
   -3.1378    1.6588    0.3357 H   0  0  0  0  0  0  0  0  0  0  0  0
   -8.0998   -1.4466   -0.6897 H   0  0  0  0  0  0  0  0  0  0  0  0
   -9.3796   -0.4790   -0.0929 H   0  0  0  0  0  0  0  0  0  0  0  0
    2.7739   -0.7684   -0.2030 N   0  0  0  0  0  0  0  0  0  0  0  0
   -7.5326    0.2762    0.3090 C   0  0  0  0  0  0  0  0  0  0  0  0
  6  4  1  0
  4 15  2  0
  4  3  1  0
 15 16  1  0
 16 13  2  0
  3 17  1  0
  3  1  2  0
 18 12  1  0
 18 14  1  0
 12  7  2  0
 13  1  1  0
 13 40  1  0
 40  7  1  0
  7  9  1  0
 14  8  2  0
  8  9  1  0
  8 20  1  0
  9 19  2  0
 10 11  1  0
 10  5  2  0
 11  2  2  0
 24 41  1  0
 20  5  1  0
  5 22  1  0
  2 41  1  0
  2 21  1  0
 41 23  2  0
 22 21  2  0
  1 25  1  0
  6 26  1  0
  6 27  1  0
  6 28  1  0
 10 29  1  0
 11 30  1  0
 40 31  1  0
 15 32  1  0
 16 33  1  0
 17 34  1  0
 20 35  1  0
 21 36  1  0
 22 37  1  0
 24 38  1  0
 24 39  1  0
M  END
