
     RDKit          3D

 29 30  0  0  0  0  0  0  0  0999 V2000
    2.4690    0.5333   -0.5244 C   0  0  0  0  0  0  0  0  0  0  0  0
    4.2867   -0.0558   -1.9881 C   0  0  0  0  0  0  0  0  0  0  0  0
    4.2746   -0.8518    0.2769 C   0  0  0  0  0  0  0  0  0  0  0  0
    1.1380    2.4700   -0.3662 O   0  0  0  0  0  0  0  0  0  0  0  0
    1.1659    1.2617   -0.3708 C   0  0  0  0  0  0  0  0  0  0  0  0
   -0.0861    0.4561   -0.3739 C   0  0  0  0  0  0  0  0  0  0  0  0
   -0.0849   -0.9099   -0.6343 C   0  0  0  0  0  0  0  0  0  0  0  0
   -1.2669   -1.6296   -0.6456 C   0  0  0  0  0  0  0  0  0  0  0  0
   -2.4758   -0.9922   -0.4166 C   0  0  0  0  0  0  0  0  0  0  0  0
   -3.9041   -1.9395   -0.3882 Cl  0  0  0  0  0  0  0  0  0  0  0  0
   -2.4732    0.3792   -0.1611 C   0  0  0  0  0  0  0  0  0  0  0  0
   -1.2935    1.0964   -0.1292 C   0  0  0  0  0  0  0  0  0  0  0  0
   -3.7057    1.1155    0.0776 N   0  0  0  0  0  0  0  0  0  0  0  0
   -3.6840    1.9605    0.9391 O   0  0  0  0  0  0  0  0  0  0  0  0
   -4.6598    0.8534   -0.6097 O   0  0  0  0  0  0  0  0  0  0  0  0
    3.0864    0.6050   -1.7656 C   0  0  0  0  0  0  0  0  0  0  0  0
    4.8799   -0.7839   -0.9681 C   0  0  0  0  0  0  0  0  0  0  0  0
    3.0677   -0.1967    0.5067 C   0  0  0  0  0  0  0  0  0  0  0  0
    2.4098   -0.2084    1.8341 C   0  0  0  0  0  0  0  0  0  0  0  0
    2.9785   -1.0268    2.6996 O   0  0  0  0  0  0  0  0  0  0  0  0
    1.4446    0.4742    2.0879 O   0  0  0  0  0  0  0  0  0  0  0  0
    4.7564   -0.0000   -2.9610 H   0  0  0  0  0  0  0  0  0  0  0  0
    4.7537   -1.4111    1.0679 H   0  0  0  0  0  0  0  0  0  0  0  0
    0.8393   -1.4352   -0.8347 H   0  0  0  0  0  0  0  0  0  0  0  0
   -1.2513   -2.6941   -0.8314 H   0  0  0  0  0  0  0  0  0  0  0  0
   -1.3120    2.1588    0.0741 H   0  0  0  0  0  0  0  0  0  0  0  0
    2.6238    1.1653   -2.5679 H   0  0  0  0  0  0  0  0  0  0  0  0
    5.8170   -1.2959   -1.1387 H   0  0  0  0  0  0  0  0  0  0  0  0
    2.5226   -0.9825    3.5538 H   0  0  0  0  0  0  0  0  0  0  0  0
 15 13  2  0
 10  9  1  0
 13 14  1  0
 13 11  1  0
  9 11  2  0
  9  8  1  0
 11 12  1  0
  8  7  2  0
 12  6  2  0
  7  6  1  0
  6  5  1  0
  5  4  2  0
  5  1  1  0
 21 19  2  0
  1 16  1  0
  1 18  2  0
 16  2  2  0
 19 18  1  0
 19 20  1  0
 18  3  1  0
  2 17  1  0
  3 17  2  0
  2 22  1  0
  3 23  1  0
  7 24  1  0
  8 25  1  0
 12 26  1  0
 16 27  1  0
 17 28  1  0
 20 29  1  0
M  CHG  2  13   1  14  -1
M  END
