
     RDKit          3D

 48 50  0  0  0  0  0  0  0  0999 V2000
    4.7184   -4.1055   -2.0931 N   0  0  0  0  0  0  0  0  0  0  0  0
    4.3016   -3.2104   -1.4992 C   0  0  0  0  0  0  0  0  0  0  0  0
    3.7871   -2.0977   -0.7656 C   0  0  0  0  0  0  0  0  0  0  0  0
    4.6732   -1.2071   -0.1729 C   0  0  0  0  0  0  0  0  0  0  0  0
    4.1722   -0.1247    0.5455 C   0  0  0  0  0  0  0  0  0  0  0  0
    5.0991    0.8811    1.1647 C   0  0  0  0  0  0  0  0  0  0  0  0
    5.3281    2.0733    0.2376 C   0  0  0  0  0  0  0  0  0  0  0  0
    6.1935    3.0520    0.8611 N   0  0  0  0  0  0  0  0  0  0  0  0
    6.4500    4.1908    0.0029 C   0  0  0  0  0  0  0  0  0  0  0  0
    2.4031   -1.9417   -0.6663 C   0  0  0  0  0  0  0  0  0  0  0  0
    1.9099   -0.8578    0.0490 C   0  0  0  0  0  0  0  0  0  0  0  0
    2.7991    0.0382    0.6469 C   0  0  0  0  0  0  0  0  0  0  0  0
    0.6043   -0.5919    0.2166 O   0  0  0  0  0  0  0  0  0  0  0  0
   -0.3546   -1.4788   -0.3478 C   0  0  0  0  0  0  0  0  0  0  0  0
   -1.7111   -0.9538    0.0092 C   0  0  0  0  0  0  0  0  0  0  0  0
   -2.5363   -0.4392   -0.9590 C   0  0  0  0  0  0  0  0  0  0  0  0
   -2.1389   -0.9749    1.3521 C   0  0  0  0  0  0  0  0  0  0  0  0
   -3.3744   -0.4866    1.6884 C   0  0  0  0  0  0  0  0  0  0  0  0
   -4.2374    0.0444    0.7090 C   0  0  0  0  0  0  0  0  0  0  0  0
   -5.5361    0.5647    1.0059 C   0  0  0  0  0  0  0  0  0  0  0  0
   -6.0599    0.5686    2.4071 C   0  0  0  0  0  0  0  0  0  0  0  0
   -6.2784    1.0547   -0.0235 C   0  0  0  0  0  0  0  0  0  0  0  0
   -5.7610    1.0374   -1.3548 C   0  0  0  0  0  0  0  0  0  0  0  0
   -6.5054    1.5728   -2.3539 N   0  0  0  0  0  0  0  0  0  0  0  0
   -4.5756    0.5583   -1.6485 N   0  0  0  0  0  0  0  0  0  0  0  0
   -3.8155    0.0690   -0.6412 C   0  0  0  0  0  0  0  0  0  0  0  0
    5.7408   -1.3584   -0.2661 H   0  0  0  0  0  0  0  0  0  0  0  0
    4.6750    1.2341    2.1089 H   0  0  0  0  0  0  0  0  0  0  0  0
    6.0598    0.4181    1.3987 H   0  0  0  0  0  0  0  0  0  0  0  0
    5.8057    1.7263   -0.6842 H   0  0  0  0  0  0  0  0  0  0  0  0
    4.3541    2.4944   -0.0618 H   0  0  0  0  0  0  0  0  0  0  0  0
    5.7527    3.3770    1.7131 H   0  0  0  0  0  0  0  0  0  0  0  0
    7.0310    3.8777   -0.8667 H   0  0  0  0  0  0  0  0  0  0  0  0
    5.5419    4.6842   -0.3717 H   0  0  0  0  0  0  0  0  0  0  0  0
    7.0381    4.9348    0.5401 H   0  0  0  0  0  0  0  0  0  0  0  0
    1.7534   -2.6621   -1.1427 H   0  0  0  0  0  0  0  0  0  0  0  0
    2.3963    0.8769    1.2033 H   0  0  0  0  0  0  0  0  0  0  0  0
   -0.2366   -1.5306   -1.4348 H   0  0  0  0  0  0  0  0  0  0  0  0
   -0.2148   -2.4885    0.0541 H   0  0  0  0  0  0  0  0  0  0  0  0
   -2.2202   -0.4139   -1.9955 H   0  0  0  0  0  0  0  0  0  0  0  0
   -1.4924   -1.3834    2.1190 H   0  0  0  0  0  0  0  0  0  0  0  0
   -3.6894   -0.5112    2.7239 H   0  0  0  0  0  0  0  0  0  0  0  0
   -6.1455   -0.4466    2.7987 H   0  0  0  0  0  0  0  0  0  0  0  0
   -5.3951    1.1151    3.0779 H   0  0  0  0  0  0  0  0  0  0  0  0
   -7.0437    1.0310    2.4567 H   0  0  0  0  0  0  0  0  0  0  0  0
   -7.2649    1.4646    0.1575 H   0  0  0  0  0  0  0  0  0  0  0  0
   -7.4950    1.6857   -2.2160 H   0  0  0  0  0  0  0  0  0  0  0  0
   -6.2224    1.3775   -3.2997 H   0  0  0  0  0  0  0  0  0  0  0  0
 21 20  1  0
 20 22  2  0
 20 19  1  0
 22 23  1  0
 18 19  2  0
 18 17  1  0
 19 26  1  0
 23 24  1  0
 23 25  2  0
  1  2  3  0
 17 15  2  0
 26 25  1  0
 26 16  2  0
  2  3  1  0
 10  3  2  0
 10 11  1  0
 15 16  1  0
 15 14  1  0
 13 11  1  0
 13 14  1  0
  3  4  1  0
 11 12  2  0
  4  5  2  0
 12  5  1  0
  5  6  1  0
  7  6  1  0
  7  8  1  0
  8  9  1  0
  4 27  1  0
  6 28  1  0
  6 29  1  0
  7 30  1  0
  7 31  1  0
  8 32  1  0
  9 33  1  0
  9 34  1  0
  9 35  1  0
 10 36  1  0
 12 37  1  0
 14 38  1  0
 14 39  1  0
 16 40  1  0
 17 41  1  0
 18 42  1  0
 21 43  1  0
 21 44  1  0
 21 45  1  0
 22 46  1  0
 24 47  1  0
 24 48  1  0
M  END
