
     RDKit          3D

 49 51  0  0  0  0  0  0  0  0999 V2000
    3.5760    3.5319   -1.6277 C   0  0  0  0  0  0  0  0  0  0  0  0
    3.0363    3.2593   -0.2537 C   0  0  0  0  0  0  0  0  0  0  0  0
    3.5604    3.9215    0.8518 C   0  0  0  0  0  0  0  0  0  0  0  0
    3.0665    3.6975    2.1306 C   0  0  0  0  0  0  0  0  0  0  0  0
    2.0312    2.7962    2.3159 C   0  0  0  0  0  0  0  0  0  0  0  0
    1.4993    2.1262    1.2213 C   0  0  0  0  0  0  0  0  0  0  0  0
    1.9895    2.3458   -0.0600 C   0  0  0  0  0  0  0  0  0  0  0  0
    1.4096    1.6376   -1.2646 C   0  0  0  0  0  0  0  0  0  0  0  0
    0.3460    0.6992   -0.9775 N   0  0  0  0  0  0  0  0  0  0  0  0
   -1.0118    1.2058   -1.1066 C   0  0  1  0  0  0  0  0  0  0  0  0
   -1.7845    0.7011   -2.3411 C   0  0  0  0  0  0  0  0  0  0  0  0
   -3.2381    0.6799   -1.8951 C   0  0  0  0  0  0  0  0  0  0  0  0
   -3.1055    0.3142   -0.4838 N   0  0  0  0  0  0  0  0  0  0  0  0
   -1.9378    0.9580    0.1088 C   0  0  0  0  0  0  0  0  0  0  0  0
   -4.4193   -0.0366    0.4439 S   0  0  1  0  0  0  0  0  0  0  0  0
   -4.2173   -1.7656    0.7885 C   0  0  0  0  0  0  0  0  0  0  0  0
   -4.3139    0.6828    1.7071 O   0  0  0  0  0  0  0  0  0  0  0  0
   -5.6127    0.1342   -0.3731 O   0  0  0  0  0  0  0  0  0  0  0  0
    0.6374   -0.5803   -0.6170 C   0  0  0  0  0  0  0  0  0  0  0  0
   -0.3541   -1.5795   -0.5016 C   0  0  0  0  0  0  0  0  0  0  0  0
   -0.0286   -2.8619   -0.1305 C   0  0  0  0  0  0  0  0  0  0  0  0
    1.2896   -3.2315    0.1476 C   0  0  0  0  0  0  0  0  0  0  0  0
    1.6050   -4.5595    0.5297 C   0  0  0  0  0  0  0  0  0  0  0  0
    1.8405   -5.6449    0.8415 N   0  0  0  0  0  0  0  0  0  0  0  0
    2.2720   -2.2445    0.0390 C   0  0  0  0  0  0  0  0  0  0  0  0
    3.9113   -2.6459    0.3918 Cl  0  0  0  0  0  0  0  0  0  0  0  0
    1.9677   -0.9550   -0.3277 C   0  0  0  0  0  0  0  0  0  0  0  0
    3.9509    2.6254   -2.1074 H   0  0  0  0  0  0  0  0  0  0  0  0
    2.8082    3.9436   -2.2871 H   0  0  0  0  0  0  0  0  0  0  0  0
    4.3959    4.2471   -1.5918 H   0  0  0  0  0  0  0  0  0  0  0  0
    4.3691    4.6288    0.7092 H   0  0  0  0  0  0  0  0  0  0  0  0
    3.4891    4.2284    2.9739 H   0  0  0  0  0  0  0  0  0  0  0  0
    1.6333    2.6125    3.3053 H   0  0  0  0  0  0  0  0  0  0  0  0
    0.6921    1.4221    1.3786 H   0  0  0  0  0  0  0  0  0  0  0  0
    1.0121    2.3811   -1.9590 H   0  0  0  0  0  0  0  0  0  0  0  0
    2.1991    1.1348   -1.8297 H   0  0  0  0  0  0  0  0  0  0  0  0
   -0.9040    2.2849   -1.1972 H   0  0  0  0  0  0  0  0  0  0  0  0
   -1.6321    1.3551   -3.1985 H   0  0  0  0  0  0  0  0  0  0  0  0
   -1.4600   -0.2988   -2.6278 H   0  0  0  0  0  0  0  0  0  0  0  0
   -3.7053    1.6612   -2.0198 H   0  0  0  0  0  0  0  0  0  0  0  0
   -3.8265   -0.0559   -2.4390 H   0  0  0  0  0  0  0  0  0  0  0  0
   -1.4815    0.3240    0.8705 H   0  0  0  0  0  0  0  0  0  0  0  0
   -2.1899    1.9115    0.5761 H   0  0  0  0  0  0  0  0  0  0  0  0
   -3.2650   -1.9210    1.2919 H   0  0  0  0  0  0  0  0  0  0  0  0
   -5.0324   -2.0847    1.4359 H   0  0  0  0  0  0  0  0  0  0  0  0
   -4.2439   -2.3213   -0.1459 H   0  0  0  0  0  0  0  0  0  0  0  0
   -1.3914   -1.3701   -0.7118 H   0  0  0  0  0  0  0  0  0  0  0  0
   -0.8110   -3.6052   -0.0595 H   0  0  0  0  0  0  0  0  0  0  0  0
    2.7688   -0.2320   -0.3554 H   0  0  0  0  0  0  0  0  0  0  0  0
  2  1  1  0
  1 28  1  0
  1 29  1  0
  1 30  1  0
  7  2  2  0
  2  3  1  0
  4  3  2  0
  3 31  1  0
  5  4  1  0
  4 32  1  0
  6  5  2  0
  5 33  1  0
  6  7  1  0
  6 34  1  0
  8  7  1  0
  9  8  1  0
  8 35  1  0
  8 36  1  0
 19  9  1  0
 10  9  1  0
 11 10  1  0
 10 14  1  0
 10 37  1  6
 11 12  1  0
 11 38  1  0
 11 39  1  0
 12 13  1  0
 12 40  1  0
 12 41  1  0
 14 13  1  0
 13 15  1  0
 14 42  1  0
 14 43  1  0
 15 16  1  1
 15 17  2  0
 15 18  2  0
 16 44  1  0
 16 45  1  0
 16 46  1  0
 27 19  1  0
 19 20  2  0
 21 20  1  0
 20 47  1  0
 22 21  2  0
 21 48  1  0
 23 22  1  0
 25 22  1  0
 24 23  3  0
 26 25  1  0
 25 27  2  0
 27 49  1  0
M  END
