
     RDKit          3D

 38 38  0  0  0  0  0  0  0  0999 V2000
   -2.8404   -6.7280   -4.6510 N   0  0  0  0  0  0  0  0  0  0  0  0
   -2.2524   -6.3606   -3.3855 C   0  0  1  0  0  0  0  0  0  0  0  0
   -2.3001   -4.8423   -3.1385 C   0  0  0  0  0  0  0  0  0  0  0  0
   -1.1130   -4.3953   -2.3174 C   0  0  0  0  0  0  0  0  0  0  0  0
   -1.2224   -2.9113   -1.9699 C   0  0  1  0  0  0  0  0  0  0  0  0
   -0.4603   -2.6796   -0.8138 O   0  0  0  0  0  0  0  0  0  0  0  0
   -0.5565   -2.1637   -2.9924 O   0  0  0  0  0  0  0  0  0  0  0  0
   -2.9199   -7.0513   -2.1972 C   0  0  0  0  0  0  0  0  0  0  0  0
   -2.0576   -7.6125   -1.3093 O   0  0  0  0  0  0  0  0  0  0  0  0
   -0.3247    2.0788   -1.5361 C   0  0  0  0  0  0  0  0  0  0  0  0
    0.1469    0.7343   -2.0881 C   0  0  1  0  0  0  0  0  0  0  0  0
   -0.9847   -0.1591   -2.0596 O   0  0  0  0  0  0  0  0  0  0  0  0
   -1.1011   -0.8950   -3.2637 C   0  0  1  0  0  0  0  0  0  0  0  0
   -0.1922   -0.2183   -4.3430 C   0  0  1  0  0  0  0  0  0  0  0  0
   -0.9244    0.3292   -5.3660 F   0  0  0  0  0  0  0  0  0  0  0  0
    0.6360    0.8423   -3.5401 C   0  0  2  0  0  0  0  0  0  0  0  0
    2.0068    0.5125   -3.5579 O   0  0  0  0  0  0  0  0  0  0  0  0
   -4.1262   -7.1572   -1.9543 O   0  0  0  0  0  0  0  0  0  0  0  0
    0.6533   -1.0955   -5.0388 O   0  0  0  0  0  0  0  0  0  0  0  0
   -3.7822   -6.3967   -4.7233 H   0  0  0  0  0  0  0  0  0  0  0  0
   -2.8252   -7.7210   -4.7761 H   0  0  0  0  0  0  0  0  0  0  0  0
   -1.1697   -6.6907   -3.4018 H   0  0  0  0  0  0  0  0  0  0  0  0
   -3.2585   -4.5798   -2.6197 H   0  0  0  0  0  0  0  0  0  0  0  0
   -2.2876   -4.3063   -4.1253 H   0  0  0  0  0  0  0  0  0  0  0  0
   -1.0477   -4.9751   -1.3579 H   0  0  0  0  0  0  0  0  0  0  0  0
   -0.1601   -4.5658   -2.8827 H   0  0  0  0  0  0  0  0  0  0  0  0
   -2.2863   -2.5674   -1.8450 H   0  0  0  0  0  0  0  0  0  0  0  0
   -0.6520   -1.7838   -0.5039 H   0  0  0  0  0  0  0  0  0  0  0  0
   -2.5536   -8.0304   -0.5853 H   0  0  0  0  0  0  0  0  0  0  0  0
   -1.4862    1.3283   -0.1897 H   0  0  0  0  0  0  0  0  0  0  0  0
    0.5386    2.7964   -1.5044 H   0  0  0  0  0  0  0  0  0  0  0  0
    0.9388    0.2851   -1.4273 H   0  0  0  0  0  0  0  0  0  0  0  0
   -2.1863   -0.9332   -3.5424 H   0  0  0  0  0  0  0  0  0  0  0  0
    0.4730    1.8667   -3.9677 H   0  0  0  0  0  0  0  0  0  0  0  0
    2.2450    0.3382   -4.4808 H   0  0  0  0  0  0  0  0  0  0  0  0
    0.9642   -1.7741   -4.4210 H   0  0  0  0  0  0  0  0  0  0  0  0
   -1.1490    2.4925   -2.1750 H   0  0  0  0  0  0  0  0  0  0  0  0
   -0.7534    1.9577   -0.1983 O   0  0  0  0  0  0  0  0  0  0  0  0
  1  2  1  0
  1 20  1  0
  1 21  1  0
  2  3  1  0
  2  8  1  0
  2 22  1  6
  3  4  1  0
  3 23  1  0
  3 24  1  0
  4  5  1  0
  4 25  1  0
  4 26  1  0
  5  6  1  0
  5  7  1  0
  5 27  1  1
  6 28  1  0
  7 13  1  0
  8  9  1  0
  8 18  2  0
  9 29  1  0
 38 10  1  0
 38 30  1  0
 10 11  1  0
 10 37  1  0
 10 31  1  0
 11 12  1  0
 11 16  1  0
 11 32  1  1
 12 13  1  0
 13 14  1  0
 13 33  1  6
 14 15  1  6
 14 16  1  0
 14 19  1  0
 16 17  1  0
 16 34  1  6
 17 35  1  0
 19 36  1  0
M  END
