
     RDKit          3D

 55 54  0  0  0  0  0  0  0  0999 V2000
    8.3184   -0.1328   -0.0831 P   0  0  1  0  0  0  0  0  0  0  0  0
    6.7926   -0.7043    0.0782 O   0  0  0  0  0  0  0  0  0  0  0  0
    8.6709    0.3941   -1.4086 O   0  0  0  0  0  0  0  0  0  0  0  0
  -13.3474   -0.2217   -0.0531 C   0  0  0  0  0  0  0  0  0  0  0  0
    5.8224    1.2526   -0.3954 O   0  0  0  0  0  0  0  0  0  0  0  0
  -12.0619    0.5928   -0.0086 C   0  0  0  0  0  0  0  0  0  0  0  0
   -0.6337   -0.5778    0.0383 C   0  0  0  0  0  0  0  0  0  0  0  0
    0.6553    0.2300   -0.0431 C   0  0  0  0  0  0  0  0  0  0  0  0
    1.9114   -0.6285    0.0338 C   0  0  0  0  0  0  0  0  0  0  0  0
    3.1884    0.1924   -0.0931 C   0  0  0  0  0  0  0  0  0  0  0  0
    4.4325   -0.6715    0.0342 C   0  0  0  0  0  0  0  0  0  0  0  0
    5.7093    0.0927   -0.1237 C   0  0  0  0  0  0  0  0  0  0  0  0
  -10.8119   -0.2795   -0.0108 C   0  0  0  0  0  0  0  0  0  0  0  0
   -9.5156    0.5201    0.0237 C   0  0  0  0  0  0  0  0  0  0  0  0
   -8.2688   -0.3563    0.0201 C   0  0  0  0  0  0  0  0  0  0  0  0
   -6.9710    0.4416    0.0413 C   0  0  0  0  0  0  0  0  0  0  0  0
   -5.7248   -0.4356    0.0411 C   0  0  0  0  0  0  0  0  0  0  0  0
   -4.4275    0.3634    0.0386 C   0  0  0  0  0  0  0  0  0  0  0  0
   -3.1796   -0.5113    0.0451 C   0  0  0  0  0  0  0  0  0  0  0  0
   -1.8852    0.2912    0.0056 C   0  0  0  0  0  0  0  0  0  0  0  0
    8.5116    0.9602    1.0516 O   0  0  0  0  0  0  0  0  0  0  0  0
    9.0165   -1.4773    0.3977 O   0  0  0  0  0  0  0  0  0  0  0  0
  -13.3884   -0.8410   -0.9515 H   0  0  0  0  0  0  0  0  0  0  0  0
  -13.4208   -0.8884    0.8084 H   0  0  0  0  0  0  0  0  0  0  0  0
  -14.2316    0.4169   -0.0524 H   0  0  0  0  0  0  0  0  0  0  0  0
  -12.0282    1.2739   -0.8647 H   0  0  0  0  0  0  0  0  0  0  0  0
  -12.0583    1.2272    0.8833 H   0  0  0  0  0  0  0  0  0  0  0  0
   -0.6664   -1.2934   -0.7909 H   0  0  0  0  0  0  0  0  0  0  0  0
   -0.6320   -1.1772    0.9558 H   0  0  0  0  0  0  0  0  0  0  0  0
    0.6638    0.8039   -0.9766 H   0  0  0  0  0  0  0  0  0  0  0  0
    0.6734    0.9685    0.7661 H   0  0  0  0  0  0  0  0  0  0  0  0
    1.9185   -1.1772    0.9821 H   0  0  0  0  0  0  0  0  0  0  0  0
    1.8850   -1.3866   -0.7564 H   0  0  0  0  0  0  0  0  0  0  0  0
    3.1917    0.7098   -1.0559 H   0  0  0  0  0  0  0  0  0  0  0  0
    3.1995    0.9688    0.6768 H   0  0  0  0  0  0  0  0  0  0  0  0
    4.4559   -1.1810    1.0027 H   0  0  0  0  0  0  0  0  0  0  0  0
    4.4307   -1.4712   -0.7145 H   0  0  0  0  0  0  0  0  0  0  0  0
  -10.8440   -0.9584    0.8490 H   0  0  0  0  0  0  0  0  0  0  0  0
  -10.8199   -0.9195   -0.9007 H   0  0  0  0  0  0  0  0  0  0  0  0
   -9.4842    1.1978   -0.8370 H   0  0  0  0  0  0  0  0  0  0  0  0
   -9.5067    1.1605    0.9131 H   0  0  0  0  0  0  0  0  0  0  0  0
   -8.2964   -1.0291    0.8847 H   0  0  0  0  0  0  0  0  0  0  0  0
   -8.2824   -1.0017   -0.8655 H   0  0  0  0  0  0  0  0  0  0  0  0
   -6.9428    1.1108   -0.8262 H   0  0  0  0  0  0  0  0  0  0  0  0
   -6.9572    1.0909    0.9241 H   0  0  0  0  0  0  0  0  0  0  0  0
   -5.7451   -1.0947    0.9165 H   0  0  0  0  0  0  0  0  0  0  0  0
   -5.7459   -1.0950   -0.8340 H   0  0  0  0  0  0  0  0  0  0  0  0
   -4.4070    1.0174   -0.8406 H   0  0  0  0  0  0  0  0  0  0  0  0
   -4.4080    1.0281    0.9098 H   0  0  0  0  0  0  0  0  0  0  0  0
   -3.1870   -1.1479    0.9371 H   0  0  0  0  0  0  0  0  0  0  0  0
   -3.2097   -1.1925   -0.8127 H   0  0  0  0  0  0  0  0  0  0  0  0
   -1.8631    0.9882    0.8511 H   0  0  0  0  0  0  0  0  0  0  0  0
   -1.8719    0.9120   -0.8976 H   0  0  0  0  0  0  0  0  0  0  0  0
    8.4212    0.6583    1.9659 H   0  0  0  0  0  0  0  0  0  0  0  0
    9.9738   -1.4937    0.2572 H   0  0  0  0  0  0  0  0  0  0  0  0
  3  1  2  0
  1 21  1  1
  1 22  1  0
  1  2  1  0
  5 12  2  0
  2 12  1  0
 12 11  1  0
 11 10  1  0
 10  9  1  0
  9  8  1  0
  8  7  1  0
  7 20  1  0
 20 19  1  0
 19 18  1  0
 18 17  1  0
 17 16  1  0
 16 15  1  0
 15 14  1  0
 14 13  1  0
 13  6  1  0
  6  4  1  0
  4 23  1  0
  4 24  1  0
  4 25  1  0
  6 26  1  0
  6 27  1  0
  7 28  1  0
  7 29  1  0
  8 30  1  0
  8 31  1  0
  9 32  1  0
  9 33  1  0
 10 34  1  0
 10 35  1  0
 11 36  1  0
 11 37  1  0
 13 38  1  0
 13 39  1  0
 14 40  1  0
 14 41  1  0
 15 42  1  0
 15 43  1  0
 16 44  1  0
 16 45  1  0
 17 46  1  0
 17 47  1  0
 18 48  1  0
 18 49  1  0
 19 50  1  0
 19 51  1  0
 20 52  1  0
 20 53  1  0
 21 54  1  0
 22 55  1  0
M  END
