
     RDKit          3D

 25 26  0  0  0  0  0  0  0  0999 V2000
    3.4761    0.0611    0.4154 C   0  0  0  0  0  0  0  0  0  0  0  0
    3.5317   -1.3131    0.2701 C   0  0  0  0  0  0  0  0  0  0  0  0
    2.4052   -2.0545   -0.1197 C   0  0  0  0  0  0  0  0  0  0  0  0
    1.1893   -1.4442   -0.3726 C   0  0  0  0  0  0  0  0  0  0  0  0
    1.1414   -0.0622   -0.2204 C   0  0  0  0  0  0  0  0  0  0  0  0
    2.2594    0.6965    0.1652 C   0  0  0  0  0  0  0  0  0  0  0  0
    1.9225    2.0285    0.2286 N   0  0  0  0  0  0  0  0  0  0  0  0
    0.6630    2.0654   -0.1007 C   0  0  0  0  0  0  0  0  0  0  0  0
    0.1313    0.8506   -0.3875 N   0  0  0  0  0  0  0  0  0  0  0  0
   -1.2461    0.5660   -0.7284 C   0  0  0  0  0  0  0  0  0  0  0  0
   -2.0003   -0.0194    0.4574 C   0  0  0  0  0  0  0  0  0  0  0  0
   -3.4390   -0.3503    0.1157 C   0  0  0  0  0  0  0  0  0  0  0  0
   -3.9161   -0.1242   -0.9869 O   0  0  0  0  0  0  0  0  0  0  0  0
   -4.1371   -0.9033    1.1175 N   0  0  0  0  0  0  0  0  0  0  0  0
    4.3479    0.6289    0.7144 H   0  0  0  0  0  0  0  0  0  0  0  0
    4.4617   -1.8321    0.4617 H   0  0  0  0  0  0  0  0  0  0  0  0
    2.4898   -3.1283   -0.2235 H   0  0  0  0  0  0  0  0  0  0  0  0
    0.3247   -2.0223   -0.6731 H   0  0  0  0  0  0  0  0  0  0  0  0
    0.0611    2.9616   -0.1587 H   0  0  0  0  0  0  0  0  0  0  0  0
   -1.7046    1.4969   -1.0574 H   0  0  0  0  0  0  0  0  0  0  0  0
   -1.2578   -0.1171   -1.5781 H   0  0  0  0  0  0  0  0  0  0  0  0
   -1.5044   -0.9252    0.8173 H   0  0  0  0  0  0  0  0  0  0  0  0
   -1.9857    0.6867    1.2924 H   0  0  0  0  0  0  0  0  0  0  0  0
   -3.7237   -1.0867    2.0155 H   0  0  0  0  0  0  0  0  0  0  0  0
   -5.1019   -1.1602    0.9876 H   0  0  0  0  0  0  0  0  0  0  0  0
  3  2  1  0
  3  4  2  0
  2  1  2  0
  4  5  1  0
  1  6  1  0
  5  6  2  0
  5  9  1  0
 10  9  1  0
 10 11  1  0
  6  7  1  0
  9  8  1  0
 11 12  1  0
  7  8  2  0
 12 13  2  0
 12 14  1  0
  1 15  1  0
  2 16  1  0
  3 17  1  0
  4 18  1  0
  8 19  1  0
 10 20  1  0
 10 21  1  0
 11 22  1  0
 11 23  1  0
 14 24  1  0
 14 25  1  0
M  END
