
     RDKit          3D

 26 26  0  0  0  0  0  0  0  0999 V2000
   -1.0606   -0.0831   -1.4744 C   0  0  1  0  0  0  0  0  0  0  0  0
    0.4562   -0.0831   -1.4744 C   0  0  0  0  0  0  0  0  0  0  0  0
    1.0114   -0.0831   -0.1045 C   0  0  1  0  0  0  0  0  0  0  0  0
    0.4449    1.0281    0.7332 C   0  0  2  0  0  0  0  0  0  0  0  0
   -1.0804    1.0286    0.7284 C   0  0  1  0  0  0  0  0  0  0  0  0
   -1.6280    1.0304   -0.6320 O   0  0  0  0  0  0  0  0  0  0  0  0
    0.6688   -1.4724    0.5871 C   0  0  0  0  0  0  0  0  0  0  0  0
    2.4635    0.0737   -0.1813 N   0  0  0  0  0  0  0  0  0  0  0  0
    0.9082    2.2770    0.2180 O   0  0  0  0  0  0  0  0  0  0  0  0
   -1.5711   -0.1967    1.4492 C   0  0  0  0  0  0  0  0  0  0  0  0
   -1.5024    0.0629   -2.7549 O   0  0  0  0  0  0  0  0  0  0  0  0
   -1.4103   -1.0307   -1.0828 H   0  0  0  0  0  0  0  0  0  0  0  0
    0.8063    0.8006   -1.9941 H   0  0  0  0  0  0  0  0  0  0  0  0
    0.8068   -0.9661   -1.9948 H   0  0  0  0  0  0  0  0  0  0  0  0
   -2.2105   -0.5390   -2.9138 H   0  0  0  0  0  0  0  0  0  0  0  0
    0.7924    0.9110    1.7526 H   0  0  0  0  0  0  0  0  0  0  0  0
    0.3866   -1.3022    1.6190 H   0  0  0  0  0  0  0  0  0  0  0  0
   -0.1521   -1.9449    0.0613 H   0  0  0  0  0  0  0  0  0  0  0  0
    1.5387   -2.1172    0.5523 H   0  0  0  0  0  0  0  0  0  0  0  0
    2.8327   -0.5658   -0.8569 H   0  0  0  0  0  0  0  0  0  0  0  0
    2.8674   -0.1171    0.7143 H   0  0  0  0  0  0  0  0  0  0  0  0
   -1.4313    1.9122    1.2477 H   0  0  0  0  0  0  0  0  0  0  0  0
    1.1296    2.8496    0.9336 H   0  0  0  0  0  0  0  0  0  0  0  0
   -0.9562   -0.3716    2.3238 H   0  0  0  0  0  0  0  0  0  0  0  0
   -2.5997   -0.0482    1.7550 H   0  0  0  0  0  0  0  0  0  0  0  0
   -1.5110   -1.0529    0.7883 H   0  0  0  0  0  0  0  0  0  0  0  0
  1  2  1  0
  1  6  1  0
  1 11  1  0
  2  3  1  0
  3  4  1  0
  3  7  1  0
  3  8  1  6
  4  5  1  0
  4  9  1  0
  5  6  1  0
  5 10  1  0
  1 12  1  1
  2 13  1  0
  2 14  1  0
 11 15  1  0
  4 16  1  1
  7 17  1  0
  7 18  1  0
  7 19  1  0
  8 20  1  0
  8 21  1  0
  5 22  1  1
  9 23  1  0
 10 24  1  0
 10 25  1  0
 10 26  1  0
M  END
