
     RDKit          3D

 14 13  0  0  0  0  0  0  0  0999 V2000
   -2.3515   -0.3281    0.2578 C   0  0  0  0  0  0  0  0  0  0  0  0
    0.0045    0.1651   -0.3413 C   0  0  0  0  0  0  0  0  0  0  0  0
    0.9884   -0.7263   -0.2944 C   0  0  0  0  0  0  0  0  0  0  0  0
   -1.3396   -0.2779   -0.8570 C   0  0  0  0  0  0  0  0  0  0  0  0
    0.0966    1.5904    0.0960 C   0  0  0  0  0  0  0  0  0  0  0  0
   -3.4355    0.1948    0.2284 O   0  0  0  0  0  0  0  0  0  0  0  0
    2.5829   -0.3806    0.2891 Cl  0  0  0  0  0  0  0  0  0  0  0  0
   -2.0215   -0.9122    1.1362 H   0  0  0  0  0  0  0  0  0  0  0  0
    0.8725   -1.7494   -0.6258 H   0  0  0  0  0  0  0  0  0  0  0  0
   -1.2773   -1.2915   -1.2684 H   0  0  0  0  0  0  0  0  0  0  0  0
   -1.6944    0.3867   -1.6476 H   0  0  0  0  0  0  0  0  0  0  0  0
   -0.2391    2.2514   -0.7054 H   0  0  0  0  0  0  0  0  0  0  0  0
   -0.5616    1.7770    0.9487 H   0  0  0  0  0  0  0  0  0  0  0  0
    1.1036    1.8823    0.3824 H   0  0  0  0  0  0  0  0  0  0  0  0
  4  2  1  0
  4  1  1  0
  2  3  2  0
  2  5  1  0
  1  6  2  0
  3  7  1  0
  1  8  1  0
  3  9  1  0
  4 10  1  0
  4 11  1  0
  5 12  1  0
  5 13  1  0
  5 14  1  0
M  END
