
     RDKit          3D

 45 47  0  0  0  0  0  0  0  0999 V2000
    0.6234   -2.6156    1.0231 Cl  0  0  0  0  0  0  0  0  0  0  0  0
    2.7063    0.1184   -1.4077 C   0  0  2  0  0  0  0  0  0  0  0  0
    1.8285   -0.8332   -0.8363 O   0  0  0  0  0  0  0  0  0  0  0  0
    4.0853   -0.5481   -1.4306 C   0  0  1  0  0  0  0  0  0  0  0  0
    4.9840    0.2552   -2.1478 O   0  0  0  0  0  0  0  0  0  0  0  0
    4.5924   -0.6927    0.0024 C   0  0  1  0  0  0  0  0  0  0  0  0
    5.9164   -1.1665    0.0560 O   0  0  0  0  0  0  0  0  0  0  0  0
    4.5548    0.6521    0.7200 C   0  0  2  0  0  0  0  0  0  0  0  0
    4.8825    0.5076    2.0810 O   0  0  0  0  0  0  0  0  0  0  0  0
    3.1456    1.2426    0.6447 C   0  0  2  0  0  0  0  0  0  0  0  0
    2.7050    1.3081   -0.7057 O   0  0  0  0  0  0  0  0  0  0  0  0
    3.0992    2.6506    1.1985 C   0  0  0  0  0  0  0  0  0  0  0  0
    1.7649    3.0973    1.2043 O   0  0  0  0  0  0  0  0  0  0  0  0
    0.5204   -0.5557   -0.7114 C   0  0  0  0  0  0  0  0  0  0  0  0
   -0.1558    0.4611   -1.3774 C   0  0  0  0  0  0  0  0  0  0  0  0
   -1.5188    0.6275   -1.1994 C   0  0  0  0  0  0  0  0  0  0  0  0
   -2.2495   -0.2017   -0.3513 C   0  0  0  0  0  0  0  0  0  0  0  0
   -1.5689   -1.2133    0.3254 C   0  0  0  0  0  0  0  0  0  0  0  0
   -0.2088   -1.3764    0.1517 C   0  0  0  0  0  0  0  0  0  0  0  0
   -3.6996   -0.0205   -0.1667 C   0  0  0  0  0  0  0  0  0  0  0  0
   -4.5418   -1.1223    0.0024 C   0  0  0  0  0  0  0  0  0  0  0  0
   -5.9024   -0.9578    0.1803 C   0  0  0  0  0  0  0  0  0  0  0  0
   -6.4472    0.3258    0.1885 C   0  0  0  0  0  0  0  0  0  0  0  0
   -5.6215    1.4370    0.0187 C   0  0  0  0  0  0  0  0  0  0  0  0
   -4.2627    1.2583   -0.1557 C   0  0  0  0  0  0  0  0  0  0  0  0
   -7.8505    0.5023    0.3703 C   0  0  0  0  0  0  0  0  0  0  0  0
   -8.9849    0.6446    0.5164 N   0  0  0  0  0  0  0  0  0  0  0  0
    2.3884    0.3640   -2.4276 H   0  0  0  0  0  0  0  0  0  0  0  0
    2.4690    0.6101    1.2375 H   0  0  0  0  0  0  0  0  0  0  0  0
    3.9840   -1.5427   -1.8855 H   0  0  0  0  0  0  0  0  0  0  0  0
    4.7959    0.1665   -3.0871 H   0  0  0  0  0  0  0  0  0  0  0  0
    3.9155   -1.3771    0.5319 H   0  0  0  0  0  0  0  0  0  0  0  0
    5.9083   -2.1245   -0.0314 H   0  0  0  0  0  0  0  0  0  0  0  0
    5.2526    1.3414    0.2211 H   0  0  0  0  0  0  0  0  0  0  0  0
    5.7383    0.0685    2.1306 H   0  0  0  0  0  0  0  0  0  0  0  0
    3.5251    2.6322    2.2070 H   0  0  0  0  0  0  0  0  0  0  0  0
    3.7451    3.2957    0.5863 H   0  0  0  0  0  0  0  0  0  0  0  0
    1.7402    3.9423    1.6622 H   0  0  0  0  0  0  0  0  0  0  0  0
    0.3620    1.1276   -2.0525 H   0  0  0  0  0  0  0  0  0  0  0  0
   -2.0158    1.4131   -1.7534 H   0  0  0  0  0  0  0  0  0  0  0  0
   -2.0907   -1.8630    1.0161 H   0  0  0  0  0  0  0  0  0  0  0  0
   -4.1373   -2.1257   -0.0249 H   0  0  0  0  0  0  0  0  0  0  0  0
   -6.5417   -1.8211    0.3043 H   0  0  0  0  0  0  0  0  0  0  0  0
   -6.0400    2.4342    0.0336 H   0  0  0  0  0  0  0  0  0  0  0  0
   -3.6321    2.1308   -0.2624 H   0  0  0  0  0  0  0  0  0  0  0  0
  1 19  1  0
  2  3  1  0
  2  4  1  0
  2 11  1  0
  2 28  1  6
  3 14  1  0
  4  5  1  0
  4  6  1  0
  4 30  1  6
  5 31  1  0
  6  7  1  0
  6  8  1  0
  6 32  1  1
  7 33  1  0
  8  9  1  0
  8 10  1  0
  8 34  1  6
  9 35  1  0
 10 11  1  0
 10 12  1  0
 10 29  1  1
 12 13  1  0
 12 36  1  0
 12 37  1  0
 13 38  1  0
 14 15  2  0
 14 19  1  0
 15 16  1  0
 15 39  1  0
 16 17  2  0
 16 40  1  0
 17 18  1  0
 17 20  1  0
 18 19  2  0
 18 41  1  0
 20 21  2  0
 20 25  1  0
 21 22  1  0
 21 42  1  0
 22 23  2  0
 22 43  1  0
 23 24  1  0
 23 26  1  0
 24 25  2  0
 24 44  1  0
 25 45  1  0
 26 27  3  0
M  END
