
     RDKit          3D

 45 48  0  0  0  0  0  0  0  0999 V2000
    5.0711    0.9332   -0.0437 C   0  0  0  0  0  0  0  0  0  0  0  0
    4.9008    1.3366    1.2958 C   0  0  0  0  0  0  0  0  0  0  0  0
    3.8308    0.8977    2.0451 C   0  0  0  0  0  0  0  0  0  0  0  0
    2.9124    0.0439    1.4360 C   0  0  0  0  0  0  0  0  0  0  0  0
    3.0975   -0.3489    0.0974 C   0  0  0  0  0  0  0  0  0  0  0  0
    4.1694    0.0779   -0.6662 C   0  0  0  0  0  0  0  0  0  0  0  0
    6.2242    1.4330   -0.8048 C   0  0  0  0  0  0  0  0  0  0  0  0
    1.3027   -1.2426    0.9492 C   0  0  0  0  0  0  0  0  0  0  0  0
    0.0287   -2.0464    1.0589 C   0  0  1  0  0  0  0  0  0  0  0  0
    6.7964    0.6578   -1.6958 N   0  0  0  0  0  0  0  0  0  0  0  0
    6.6657    2.6490   -0.5841 N   0  0  0  0  0  0  0  0  0  0  0  0
    1.7761   -0.5338    1.9343 N   0  0  0  0  0  0  0  0  0  0  0  0
    2.0419   -1.1741   -0.1752 N   0  0  0  0  0  0  0  0  0  0  0  0
   -5.0012    0.7165   -0.5510 C   0  0  0  0  0  0  0  0  0  0  0  0
   -4.1352    1.3930   -1.4329 C   0  0  0  0  0  0  0  0  0  0  0  0
   -2.7857    1.1156   -1.4619 C   0  0  0  0  0  0  0  0  0  0  0  0
   -2.2967    0.1498   -0.5823 C   0  0  0  0  0  0  0  0  0  0  0  0
   -3.1754   -0.5066    0.2984 C   0  0  0  0  0  0  0  0  0  0  0  0
   -4.5346   -0.2466    0.3340 C   0  0  0  0  0  0  0  0  0  0  0  0
   -6.4366    1.0356   -0.5656 C   0  0  0  0  0  0  0  0  0  0  0  0
   -1.1219   -1.2019    0.5486 C   0  0  0  0  0  0  0  0  0  0  0  0
   -6.8175    2.2785   -0.7322 N   0  0  0  0  0  0  0  0  0  0  0  0
   -7.3092    0.0692   -0.4126 N   0  0  0  0  0  0  0  0  0  0  0  0
   -1.0216   -0.3134   -0.4003 N   0  0  0  0  0  0  0  0  0  0  0  0
   -2.3808   -1.3563    1.0152 N   0  0  0  0  0  0  0  0  0  0  0  0
    0.1992   -3.1689    0.2726 O   0  0  0  0  0  0  0  0  0  0  0  0
   -0.1965   -2.4247    2.3741 O   0  0  0  0  0  0  0  0  0  0  0  0
    5.6342    1.9816    1.7612 H   0  0  0  0  0  0  0  0  0  0  0  0
    3.7121    1.2022    3.0759 H   0  0  0  0  0  0  0  0  0  0  0  0
    4.2738   -0.2175   -1.7019 H   0  0  0  0  0  0  0  0  0  0  0  0
    6.5407   -0.3131   -1.7760 H   0  0  0  0  0  0  0  0  0  0  0  0
    7.5626    0.9813   -2.2677 H   0  0  0  0  0  0  0  0  0  0  0  0
    7.4698    3.0199   -1.0687 H   0  0  0  0  0  0  0  0  0  0  0  0
    6.1572    3.2835    0.0102 H   0  0  0  0  0  0  0  0  0  0  0  0
    1.8486   -1.6442   -1.0472 H   0  0  0  0  0  0  0  0  0  0  0  0
   -4.5361    2.1200   -2.1273 H   0  0  0  0  0  0  0  0  0  0  0  0
   -2.1295    1.6250   -2.1544 H   0  0  0  0  0  0  0  0  0  0  0  0
   -5.1885   -0.7553    1.0297 H   0  0  0  0  0  0  0  0  0  0  0  0
   -6.1489    3.0315   -0.7185 H   0  0  0  0  0  0  0  0  0  0  0  0
   -7.7907    2.5343   -0.8030 H   0  0  0  0  0  0  0  0  0  0  0  0
   -8.3006    0.2478   -0.3563 H   0  0  0  0  0  0  0  0  0  0  0  0
   -7.0198   -0.8953   -0.4259 H   0  0  0  0  0  0  0  0  0  0  0  0
   -2.6749   -1.9797    1.7527 H   0  0  0  0  0  0  0  0  0  0  0  0
   -0.6481   -3.6015    0.1058 H   0  0  0  0  0  0  0  0  0  0  0  0
    0.0557   -1.7046    2.9694 H   0  0  0  0  0  0  0  0  0  0  0  0
  1  2  2  0
  1  6  1  0
  1  7  1  0
  2  3  1  0
  2 28  1  0
  3  4  2  0
  3 29  1  0
  4  5  1  0
  4 12  1  0
  5  6  2  0
  5 13  1  0
  6 30  1  0
  7 10  1  0
  7 11  2  0
  8  9  1  0
  8 12  2  0
  8 13  1  0
  9 21  1  0
  9 26  1  6
  9 27  1  0
 10 31  1  0
 10 32  1  0
 11 33  1  0
 11 34  1  0
 13 35  1  0
 14 15  2  0
 14 19  1  0
 14 20  1  0
 15 16  1  0
 15 36  1  0
 16 17  2  0
 16 37  1  0
 17 18  1  0
 17 24  1  0
 18 19  2  0
 18 25  1  0
 19 38  1  0
 20 22  1  0
 20 23  2  0
 21 24  2  0
 21 25  1  0
 22 39  1  0
 22 40  1  0
 23 41  1  0
 23 42  1  0
 25 43  1  0
 26 44  1  0
 27 45  1  0
M  CHG  2  11   1  23   1
M  END
