
     RDKit          3D

 31 33  0  0  0  0  0  0  0  0999 V2000
   -9.0999  -12.8888   15.9155 C   0  0  0  0  0  0  0  0  0  0  0  0
   -8.2901  -12.4304   16.9609 C   0  0  0  0  0  0  0  0  0  0  0  0
   -8.5008  -13.5267   14.8174 C   0  0  0  0  0  0  0  0  0  0  0  0
  -10.4947  -12.8776   15.6216 C   0  0  0  0  0  0  0  0  0  0  0  0
   -8.8239  -11.7682   18.0321 O   0  0  0  0  0  0  0  0  0  0  0  0
   -6.9368  -12.6371   16.8711 C   0  0  0  0  0  0  0  0  0  0  0  0
   -9.5173  -13.8423   13.9848 N   0  0  0  0  0  0  0  0  0  0  0  0
   -7.1188  -13.7279   14.7262 C   0  0  0  0  0  0  0  0  0  0  0  0
  -10.7004  -13.4555   14.4625 N   0  0  0  0  0  0  0  0  0  0  0  0
  -11.6105  -12.3257   16.4363 C   0  0  0  0  0  0  0  0  0  0  0  0
   -9.2810  -12.4843   19.0861 C   0  0  0  0  0  0  0  0  0  0  0  0
   -6.3476  -13.2719   15.7681 C   0  0  0  0  0  0  0  0  0  0  0  0
   -9.1881  -13.8646   19.1771 C   0  0  0  0  0  0  0  0  0  0  0  0
   -9.8742  -11.7495   20.1058 C   0  0  0  0  0  0  0  0  0  0  0  0
   -9.6938  -14.5023   20.3095 C   0  0  0  0  0  0  0  0  0  0  0  0
  -10.3674  -12.4100   21.2236 C   0  0  0  0  0  0  0  0  0  0  0  0
  -10.2862  -13.7936   21.3445 C   0  0  0  0  0  0  0  0  0  0  0  0
   -9.5954  -15.9246   20.4028 C   0  0  0  0  0  0  0  0  0  0  0  0
  -10.9735  -11.6499   22.2709 C   0  0  0  0  0  0  0  0  0  0  0  0
  -11.4635  -11.0372   23.1130 N   0  0  0  0  0  0  0  0  0  0  0  0
   -6.1492  -12.2205   17.8720 F   0  0  0  0  0  0  0  0  0  0  0  0
   -9.5163  -17.0705   20.4777 N   0  0  0  0  0  0  0  0  0  0  0  0
   -9.4644  -14.3096   13.0946 H   0  0  0  0  0  0  0  0  0  0  0  0
   -6.6693  -14.2185   13.8743 H   0  0  0  0  0  0  0  0  0  0  0  0
  -11.7378  -12.8786   17.3685 H   0  0  0  0  0  0  0  0  0  0  0  0
  -11.4348  -11.2824   16.6983 H   0  0  0  0  0  0  0  0  0  0  0  0
  -12.5473  -12.3840   15.8853 H   0  0  0  0  0  0  0  0  0  0  0  0
   -5.2732  -13.4000   15.7537 H   0  0  0  0  0  0  0  0  0  0  0  0
   -8.7332  -14.4539   18.3923 H   0  0  0  0  0  0  0  0  0  0  0  0
   -9.9472  -10.6732   20.0254 H   0  0  0  0  0  0  0  0  0  0  0  0
  -10.6738  -14.3002   22.2162 H   0  0  0  0  0  0  0  0  0  0  0  0
  1  2  2  0
  1  3  1  0
  1  4  1  0
  2  5  1  0
  2  6  1  0
  3  7  1  0
  3  8  2  0
  4  9  2  0
  4 10  1  0
  5 11  1  0
  6 12  2  0
  6 21  1  0
  7  9  1  0
  8 12  1  0
 11 13  2  0
 11 14  1  0
 13 15  1  0
 14 16  2  0
 15 17  2  0
 15 18  1  0
 16 17  1  0
 16 19  1  0
 18 22  3  0
 19 20  3  0
  7 23  1  0
  8 24  1  0
 10 25  1  0
 10 26  1  0
 10 27  1  0
 12 28  1  0
 13 29  1  0
 14 30  1  0
 17 31  1  0
M  END
