
     RDKit          3D

 27 27  0  0  0  0  0  0  0  0999 V2000
   -0.3015   -0.9523   -1.9457 C   0  0  1  0  0  0  0  0  0  0  0  0
    1.1635   -0.9443   -1.9384 C   0  0  0  0  0  0  0  0  0  0  0  0
    1.7132   -0.9786   -0.5998 C   0  0  2  0  0  0  0  0  0  0  0  0
    1.1768    0.0830    0.2527 C   0  0  1  0  0  0  0  0  0  0  0  0
   -0.3648    0.0745    0.3086 C   0  0  1  0  0  0  0  0  0  0  0  0
   -0.8307    1.2292    1.0173 C   0  0  2  0  0  0  0  0  0  0  0  0
   -2.1932    0.8907    1.7431 C   0  0  0  0  0  0  0  0  0  0  0  0
   -0.7525   -2.2067   -1.4506 O   0  0  0  0  0  0  0  0  0  0  0  0
    3.2212   -0.8161   -0.6874 O   0  0  0  0  0  0  0  0  0  0  0  0
    1.6837   -0.1007    1.5827 O   0  0  0  0  0  0  0  0  0  0  0  0
   -0.8722    0.1096   -1.1198 O   0  0  0  0  0  0  0  0  0  0  0  0
   -1.0347    2.3015    0.0963 O   0  0  0  0  0  0  0  0  0  0  0  0
   -2.7390    2.1147    2.3517 O   0  0  0  0  0  0  0  0  0  0  0  0
   -0.6506   -0.8253   -2.9717 H   0  0  0  0  0  0  0  0  0  0  0  0
    1.5131   -0.0369   -2.4395 H   0  0  0  0  0  0  0  0  0  0  0  0
    1.5120   -1.7942   -2.4740 H   0  0  0  0  0  0  0  0  0  0  0  0
    1.4856   -1.9208   -0.1591 H   0  0  0  0  0  0  0  0  0  0  0  0
    1.5140    1.0521   -0.1305 H   0  0  0  0  0  0  0  0  0  0  0  0
   -0.7077   -0.8203    0.7946 H   0  0  0  0  0  0  0  0  0  0  0  0
   -0.0773    1.5287    1.7708 H   0  0  0  0  0  0  0  0  0  0  0  0
   -2.0120    0.1311    2.5340 H   0  0  0  0  0  0  0  0  0  0  0  0
   -2.8811    0.5096    1.0408 H   0  0  0  0  0  0  0  0  0  0  0  0
   -1.4295   -2.5241   -1.9878 H   0  0  0  0  0  0  0  0  0  0  0  0
    3.6353   -1.6610   -0.6065 H   0  0  0  0  0  0  0  0  0  0  0  0
    2.2553    0.6140    1.8023 H   0  0  0  0  0  0  0  0  0  0  0  0
   -0.5151    3.0431    0.3578 H   0  0  0  0  0  0  0  0  0  0  0  0
   -3.5119    1.8993    2.8582 H   0  0  0  0  0  0  0  0  0  0  0  0
  2  1  1  0
  8  1  1  0
  1 11  1  0
  1 14  1  6
  3  2  1  0
  2 15  1  0
  2 16  1  0
  9  3  1  0
  3  4  1  0
  3 17  1  1
 10  4  1  0
  4  5  1  0
  4 18  1  6
  5  6  1  0
  5 11  1  0
  5 19  1  1
  6  7  1  0
  6 12  1  0
  6 20  1  1
  7 13  1  0
  7 21  1  0
  7 22  1  0
  8 23  1  0
  9 24  1  0
 10 25  1  0
 12 26  1  0
 13 27  1  0
M  END
