
     RDKit          3D

 16 15  0  0  0  0  0  0  0  0999 V2000
   -3.6244   -0.7591    0.3624 O   0  0  0  0  0  0  0  0  0  0  0  0
   -2.7034   -0.6873   -0.4094 C   0  0  0  0  0  0  0  0  0  0  0  0
   -1.5620    0.2852   -0.2526 C   0  0  1  0  0  0  0  0  0  0  0  0
   -1.7524    1.1790    0.7995 O   0  0  0  0  0  0  0  0  0  0  0  0
   -0.2688   -0.5191   -0.1221 C   0  0  0  0  0  0  0  0  0  0  0  0
    0.9547    0.3429   -0.2080 C   0  0  0  0  0  0  0  0  0  0  0  0
    2.2799   -0.3692    0.1118 C   0  0  0  0  0  0  0  0  0  0  0  0
    2.3289   -1.5322    0.4098 O   0  0  0  0  0  0  0  0  0  0  0  0
    3.3038    0.4460    0.0081 O   0  0  0  0  0  0  0  0  0  0  0  0
   -2.6279   -1.3471   -1.2897 H   0  0  0  0  0  0  0  0  0  0  0  0
   -1.5232    0.8602   -1.1866 H   0  0  0  0  0  0  0  0  0  0  0  0
   -2.1835    0.7166    1.5279 H   0  0  0  0  0  0  0  0  0  0  0  0
   -0.2570   -1.0829    0.8155 H   0  0  0  0  0  0  0  0  0  0  0  0
    4.1312   -0.0208    0.2039 H   0  0  0  0  0  0  0  0  0  0  0  0
    0.9596    1.5003   -0.5244 O   0  0  0  0  0  0  0  0  0  0  0  0
   -0.1923   -1.2725   -0.9154 H   0  0  0  0  0  0  0  0  0  0  0  0
  8  7  2  0
  1  2  2  0
  2  3  1  0
  7  9  1  0
  7  6  1  0
  5  3  1  0
  5  6  1  0
  3  4  1  0
  2 10  1  0
  3 11  1  6
  4 12  1  0
  5 13  1  0
  9 14  1  0
  6 15  2  0
  5 16  1  0
M  END
