
     RDKit          3D

 42 45  0  0  0  0  0  0  0  0999 V2000
   -0.5705    1.8378   -1.5028 C   0  0  0  0  0  0  0  0  0  0  0  0
   -1.3976    0.9841   -0.7745 C   0  0  0  0  0  0  0  0  0  0  0  0
   -2.9341    2.7838   -0.2502 C   0  0  0  0  0  0  0  0  0  0  0  0
   -2.3074   -0.7571    0.2889 C   0  0  0  0  0  0  0  0  0  0  0  0
    1.0719   -0.9729   -0.2782 C   0  0  0  0  0  0  0  0  0  0  0  0
    3.4793   -0.7536   -0.4174 C   0  0  0  0  0  0  0  0  0  0  0  0
    3.6178    0.7065   -0.0503 C   0  0  0  0  0  0  0  0  0  0  0  0
    3.1385    2.8779   -0.5580 C   0  0  0  0  0  0  0  0  0  0  0  0
    3.8568    3.3587    0.5260 C   0  0  0  0  0  0  0  0  0  0  0  0
    4.3578    1.0880    1.0631 C   0  0  0  0  0  0  0  0  0  0  0  0
   -3.5118   -4.0938    1.4181 C   0  0  0  0  0  0  0  0  0  0  0  0
    1.0498   -0.7826    0.9248 O   0  0  0  0  0  0  0  0  0  0  0  0
    2.1981   -1.0607   -0.9986 N   0  0  0  0  0  0  0  0  0  0  0  0
    4.4824    2.4371    1.3527 C   0  0  0  0  0  0  0  0  0  0  0  0
    3.0240    1.5873   -0.8458 N   0  0  0  0  0  0  0  0  0  0  0  0
   -1.2684   -0.3556   -0.5234 N   0  0  0  0  0  0  0  0  0  0  0  0
   -0.9538    3.1625   -1.5974 C   0  0  0  0  0  0  0  0  0  0  0  0
   -3.1298    0.3106    0.5344 C   0  0  0  0  0  0  0  0  0  0  0  0
   -2.5721    1.4362   -0.1374 C   0  0  0  0  0  0  0  0  0  0  0  0
   -2.1253    3.6316   -0.9808 C   0  0  0  0  0  0  0  0  0  0  0  0
   -2.4742   -2.1133    0.7792 C   0  0  0  0  0  0  0  0  0  0  0  0
   -3.6393   -2.8299    0.7873 C   0  0  0  0  0  0  0  0  0  0  0  0
   -2.2510   -4.3190    1.8799 C   0  0  0  0  0  0  0  0  0  0  0  0
   -1.2109   -2.9961    1.5688 S   0  0  0  0  0  0  0  0  0  0  0  0
    0.3540    1.4985   -1.9537 H   0  0  0  0  0  0  0  0  0  0  0  0
   -3.8312    3.1545    0.2296 H   0  0  0  0  0  0  0  0  0  0  0  0
    4.2424   -1.0182   -1.1510 H   0  0  0  0  0  0  0  0  0  0  0  0
    3.6579   -1.3772    0.4593 H   0  0  0  0  0  0  0  0  0  0  0  0
    2.6306    3.5662   -1.2250 H   0  0  0  0  0  0  0  0  0  0  0  0
    3.9173    4.4212    0.7165 H   0  0  0  0  0  0  0  0  0  0  0  0
    4.8196    0.3395    1.6942 H   0  0  0  0  0  0  0  0  0  0  0  0
   -4.3196   -4.8044    1.5140 H   0  0  0  0  0  0  0  0  0  0  0  0
    2.1328   -1.0731   -2.0028 H   0  0  0  0  0  0  0  0  0  0  0  0
    5.0478    2.7628    2.2161 H   0  0  0  0  0  0  0  0  0  0  0  0
   -0.0818   -0.9168   -2.1240 H   0  0  0  0  0  0  0  0  0  0  0  0
   -0.5013   -2.2140   -1.0361 H   0  0  0  0  0  0  0  0  0  0  0  0
   -0.3345    3.8539   -2.1539 H   0  0  0  0  0  0  0  0  0  0  0  0
   -4.0080    0.2910    1.1601 H   0  0  0  0  0  0  0  0  0  0  0  0
   -2.3904    4.6766   -1.0761 H   0  0  0  0  0  0  0  0  0  0  0  0
   -4.5536   -2.4621    0.3431 H   0  0  0  0  0  0  0  0  0  0  0  0
   -1.8754   -5.1965    2.3836 H   0  0  0  0  0  0  0  0  0  0  0  0
   -0.2160   -1.1613   -1.0686 C   0  0  0  0  0  0  0  0  0  0  0  0
 20 17  1  0
 20  3  2  0
 17  1  2  0
  3 19  1  0
  1  2  1  0
 19  2  2  0
 19 18  1  0
  2 16  1  0
 14  9  1  0
 14 10  2  0
  9  8  2  0
 12  5  2  0
 10  7  1  0
  8 15  1  0
 18  4  2  0
 16 42  1  0
 16  4  1  0
  5 42  1  0
  5 13  1  0
  7 15  2  0
  7  6  1  0
  4 21  1  0
  6 13  1  0
 21 22  2  0
 21 24  1  0
 22 11  1  0
 24 23  1  0
 11 23  2  0
  1 25  1  0
  3 26  1  0
  6 27  1  0
  6 28  1  0
  8 29  1  0
  9 30  1  0
 10 31  1  0
 11 32  1  0
 13 33  1  0
 14 34  1  0
 42 35  1  0
 42 36  1  0
 17 37  1  0
 18 38  1  0
 20 39  1  0
 22 40  1  0
 23 41  1  0
M  END
