
     RDKit          3D

 37 41  0  0  0  0  0  0  0  0999 V2000
   -1.1295   -3.4465    0.1450 C   0  0  0  0  0  0  0  0  0  0  0  0
   -2.4982   -3.6923    0.0786 C   0  0  0  0  0  0  0  0  0  0  0  0
   -0.6153   -2.1544    0.1603 C   0  0  0  0  0  0  0  0  0  0  0  0
   -3.3908   -2.6309    0.0203 C   0  0  0  0  0  0  0  0  0  0  0  0
    4.0238   -1.0102    0.8658 C   0  0  0  0  0  0  0  0  0  0  0  0
    5.2862   -0.6682    0.4200 C   0  0  0  0  0  0  0  0  0  0  0  0
    4.5775    1.1742   -0.7626 C   0  0  0  0  0  0  0  0  0  0  0  0
   -1.5021   -1.0868    0.0952 C   0  0  0  0  0  0  0  0  0  0  0  0
   -2.8701   -1.3518    0.0287 C   0  0  0  0  0  0  0  0  0  0  0  0
    2.9769   -0.1884    0.4526 C   0  0  0  0  0  0  0  0  0  0  0  0
    3.2736    0.9101   -0.3677 C   0  0  0  0  0  0  0  0  0  0  0  0
    1.1188    0.7804    0.0521 C   0  0  0  0  0  0  0  0  0  0  0  0
   -1.3387    0.3800    0.0542 C   0  0  0  0  0  0  0  0  0  0  0  0
   -3.5963   -0.0773   -0.0506 C   0  0  0  0  0  0  0  0  0  0  0  0
   -0.2710    1.2080    0.0151 C   0  0  0  0  0  0  0  0  0  0  0  0
   -0.4836    2.7017   -0.0910 C   0  0  0  0  0  0  0  0  0  0  0  0
   -1.8346    3.1216    0.4617 C   0  0  0  0  0  0  0  0  0  0  0  0
   -2.9401    2.3039   -0.1685 C   0  0  0  0  0  0  0  0  0  0  0  0
    5.5609    0.3843   -0.3658 N   0  0  0  0  0  0  0  0  0  0  0  0
    1.6363   -0.2373    0.7028 N   0  0  0  0  0  0  0  0  0  0  0  0
    2.0696    1.5094   -0.5973 N   0  0  0  0  0  0  0  0  0  0  0  0
   -2.6379    0.8948   -0.0158 N   0  0  0  0  0  0  0  0  0  0  0  0
   -4.7942    0.1106   -0.1400 O   0  0  0  0  0  0  0  0  0  0  0  0
   -0.4421   -4.2809    0.1933 H   0  0  0  0  0  0  0  0  0  0  0  0
   -2.8633   -4.7107    0.0726 H   0  0  0  0  0  0  0  0  0  0  0  0
    0.4474   -1.9945    0.2417 H   0  0  0  0  0  0  0  0  0  0  0  0
   -4.4594   -2.7953   -0.0299 H   0  0  0  0  0  0  0  0  0  0  0  0
    6.1364   -1.2758    0.7078 H   0  0  0  0  0  0  0  0  0  0  0  0
    4.8241    2.0195   -1.3958 H   0  0  0  0  0  0  0  0  0  0  0  0
    1.9105    2.3207   -1.1750 H   0  0  0  0  0  0  0  0  0  0  0  0
    0.3054    3.2228    0.4542 H   0  0  0  0  0  0  0  0  0  0  0  0
   -0.3966    3.0178   -1.1370 H   0  0  0  0  0  0  0  0  0  0  0  0
   -1.8496    2.9885    1.5458 H   0  0  0  0  0  0  0  0  0  0  0  0
   -2.0089    4.1781    0.2610 H   0  0  0  0  0  0  0  0  0  0  0  0
   -3.8978    2.5077    0.3079 H   0  0  0  0  0  0  0  0  0  0  0  0
   -3.0391    2.5446   -1.2307 H   0  0  0  0  0  0  0  0  0  0  0  0
    3.8676   -1.8724    1.4996 H   0  0  0  0  0  0  0  0  0  0  0  0
  1  2  2  0
  1  3  1  0
  2  4  1  0
  3  8  2  0
  4  9  2  0
  5  6  2  0
  5 10  1  0
  6 19  1  0
  7 11  1  0
  7 19  2  0
  8  9  1  0
  8 13  1  0
  9 14  1  0
 10 11  2  0
 10 20  1  0
 11 21  1  0
 12 15  1  0
 12 20  2  0
 12 21  1  0
 13 15  2  0
 13 22  1  0
 14 22  1  0
 14 23  2  0
 15 16  1  0
 16 17  1  0
 17 18  1  0
 18 22  1  0
  1 24  1  0
  2 25  1  0
  3 26  1  0
  4 27  1  0
  5 37  1  0
  6 28  1  0
  7 29  1  0
 21 30  1  0
 16 31  1  0
 16 32  1  0
 17 33  1  0
 17 34  1  0
 18 35  1  0
 18 36  1  0
M  END
