
     RDKit          3D

 48 51  0  0  0  0  0  0  0  0999 V2000
   -1.4422   -0.9961    0.2298 C   0  0  0  0  0  0  0  0  0  0  0  0
   -0.7176   -2.0962    0.4759 N   0  0  0  0  0  0  0  0  0  0  0  0
    0.5796   -1.8553    0.6282 N   0  0  0  0  0  0  0  0  0  0  0  0
    0.7238   -0.5544    0.4753 C   0  0  0  0  0  0  0  0  0  0  0  0
   -0.5347    0.0556    0.2235 C   0  0  0  0  0  0  0  0  0  0  0  0
   -2.8850   -1.0562   -0.0082 C   0  0  0  0  0  0  0  0  0  0  0  0
   -0.8254    1.4762    0.0771 C   0  0  0  0  0  0  0  0  0  0  0  0
    2.0688    0.0917    0.5828 C   0  0  1  0  0  0  0  0  0  0  0  0
   -3.4459   -0.4020   -1.1044 C   0  0  0  0  0  0  0  0  0  0  0  0
   -4.8085   -0.4577   -1.3409 C   0  0  0  0  0  0  0  0  0  0  0  0
   -5.6159   -1.1812   -0.4754 C   0  0  0  0  0  0  0  0  0  0  0  0
   -5.0814   -1.8462    0.6166 C   0  0  0  0  0  0  0  0  0  0  0  0
   -3.7161   -1.7785    0.8461 C   0  0  0  0  0  0  0  0  0  0  0  0
   -1.9990    2.0513    0.5674 C   0  0  0  0  0  0  0  0  0  0  0  0
   -2.1674    3.4069    0.3729 C   0  0  0  0  0  0  0  0  0  0  0  0
   -1.2576    4.1616   -0.2382 N   0  0  0  0  0  0  0  0  0  0  0  0
   -0.1695    3.5286   -0.6460 C   0  0  0  0  0  0  0  0  0  0  0  0
    0.0900    2.2373   -0.5265 N   0  0  0  0  0  0  0  0  0  0  0  0
    2.9912   -0.6220    1.5735 C   0  0  0  0  0  0  0  0  0  0  0  0
    4.3535    0.0600    1.6210 C   0  0  0  0  0  0  0  0  0  0  0  0
    4.9423    0.1194    0.2943 N   0  0  0  0  0  0  0  0  0  0  0  0
    4.1189    0.8372   -0.6635 C   0  0  0  0  0  0  0  0  0  0  0  0
    2.7481    0.1866   -0.7885 C   0  0  0  0  0  0  0  0  0  0  0  0
   -7.3204   -1.2550   -0.7657 Cl  0  0  0  0  0  0  0  0  0  0  0  0
    6.0145   -0.6358   -0.0221 C   0  0  0  0  0  0  0  0  0  0  0  0
    6.6146   -1.3167    0.7947 O   0  0  0  0  0  0  0  0  0  0  0  0
    6.4711   -0.5946   -1.4749 C   0  0  0  0  0  0  0  0  0  0  0  0
    7.6138   -1.3898   -1.5944 O   0  0  0  0  0  0  0  0  0  0  0  0
    1.9194    1.1163    0.9389 H   0  0  0  0  0  0  0  0  0  0  0  0
   -2.8149    0.1496   -1.7891 H   0  0  0  0  0  0  0  0  0  0  0  0
   -5.2335    0.0504   -2.1954 H   0  0  0  0  0  0  0  0  0  0  0  0
   -5.7182   -2.4051    1.2883 H   0  0  0  0  0  0  0  0  0  0  0  0
   -3.3046   -2.2798    1.7128 H   0  0  0  0  0  0  0  0  0  0  0  0
   -2.7445    1.4747    1.0947 H   0  0  0  0  0  0  0  0  0  0  0  0
   -3.0609    3.9062    0.7304 H   0  0  0  0  0  0  0  0  0  0  0  0
    0.5904    4.1287   -1.1351 H   0  0  0  0  0  0  0  0  0  0  0  0
    2.5522   -0.6178    2.5737 H   0  0  0  0  0  0  0  0  0  0  0  0
    3.1233   -1.6671    1.2830 H   0  0  0  0  0  0  0  0  0  0  0  0
    4.2460    1.0827    1.9978 H   0  0  0  0  0  0  0  0  0  0  0  0
    5.0277   -0.4646    2.2924 H   0  0  0  0  0  0  0  0  0  0  0  0
    4.0059    1.8688   -0.3142 H   0  0  0  0  0  0  0  0  0  0  0  0
    4.6037    0.8970   -1.6343 H   0  0  0  0  0  0  0  0  0  0  0  0
    2.8584   -0.8144   -1.2177 H   0  0  0  0  0  0  0  0  0  0  0  0
    2.1292    0.7749   -1.4667 H   0  0  0  0  0  0  0  0  0  0  0  0
    5.6522   -0.9523   -2.1148 H   0  0  0  0  0  0  0  0  0  0  0  0
    6.6619    0.4474   -1.7636 H   0  0  0  0  0  0  0  0  0  0  0  0
    7.8864   -1.3634   -2.5158 H   0  0  0  0  0  0  0  0  0  0  0  0
   -1.0536   -3.0472    0.4964 H   0  0  0  0  0  0  0  0  0  0  0  0
  6  1  1  0
  1  2  1  0
  1  5  2  0
  2  3  1  0
  3  4  2  0
  5  4  1  0
  4  8  1  0
  5  7  1  0
  9  6  2  0
  6 13  1  0
 18  7  1  0
  7 14  2  0
  8 19  1  0
  8 23  1  0
  8 29  1  1
 10  9  1  0
  9 30  1  0
 10 11  2  0
 10 31  1  0
 24 11  1  0
 11 12  1  0
 12 13  2  0
 12 32  1  0
 13 33  1  0
 14 15  1  0
 14 34  1  0
 16 15  2  0
 15 35  1  0
 17 16  1  0
 18 17  2  0
 17 36  1  0
 19 20  1  0
 19 37  1  0
 19 38  1  0
 20 21  1  0
 20 39  1  0
 20 40  1  0
 22 21  1  0
 21 25  1  0
 23 22  1  0
 22 41  1  0
 22 42  1  0
 23 43  1  0
 23 44  1  0
 26 25  2  0
 25 27  1  0
 27 28  1  0
 27 45  1  0
 27 46  1  0
 28 47  1  0
  2 48  1  0
M  END
