
     RDKit          3D

 26 26  0  0  0  0  0  0  0  0999 V2000
   -3.1944    0.0561   -0.2077 C   0  0  1  0  0  0  0  0  0  0  0  0
   -1.5259   -1.5173    0.7480 N   0  0  0  0  0  0  0  0  0  0  0  0
   -3.4161    1.4508   -0.1396 O   0  0  0  0  0  0  0  0  0  0  0  0
   -1.7264   -0.1782    0.2389 C   0  0  1  0  0  0  0  0  0  0  0  0
   -0.8218    0.2316   -0.9393 C   0  0  0  0  0  0  0  0  0  0  0  0
    0.6154    0.1996   -0.5637 C   0  0  0  0  0  0  0  0  0  0  0  0
    3.3167    0.1534    0.1401 C   0  0  0  0  0  0  0  0  0  0  0  0
    1.3869   -0.9428   -0.7999 C   0  0  0  0  0  0  0  0  0  0  0  0
    1.2128    1.3211    0.0293 C   0  0  0  0  0  0  0  0  0  0  0  0
    2.7353   -0.9755   -0.4523 C   0  0  0  0  0  0  0  0  0  0  0  0
    2.5560    1.3099    0.3840 C   0  0  0  0  0  0  0  0  0  0  0  0
   -4.1811   -0.5060    0.6157 O   0  0  0  0  0  0  0  0  0  0  0  0
   -1.8750   -2.2014    0.1059 H   0  0  0  0  0  0  0  0  0  0  0  0
   -0.5489   -1.6781    0.9042 H   0  0  0  0  0  0  0  0  0  0  0  0
   -1.5154    0.5301    1.0969 H   0  0  0  0  0  0  0  0  0  0  0  0
   -1.0066   -0.4481   -1.8130 H   0  0  0  0  0  0  0  0  0  0  0  0
   -1.1170    1.2703   -1.2495 H   0  0  0  0  0  0  0  0  0  0  0  0
    5.0441   -0.6506    0.2867 H   0  0  0  0  0  0  0  0  0  0  0  0
    0.9290   -1.8250   -1.2723 H   0  0  0  0  0  0  0  0  0  0  0  0
    0.6078    2.2224    0.2158 H   0  0  0  0  0  0  0  0  0  0  0  0
    3.3369   -1.8750   -0.6423 H   0  0  0  0  0  0  0  0  0  0  0  0
    3.0324    2.1844    0.8487 H   0  0  0  0  0  0  0  0  0  0  0  0
   -4.3656    1.5954   -0.2411 H   0  0  0  0  0  0  0  0  0  0  0  0
   -3.8903   -0.4472    1.5343 H   0  0  0  0  0  0  0  0  0  0  0  0
   -3.3914   -0.3422   -1.2425 H   0  0  0  0  0  0  0  0  0  0  0  0
    4.6406    0.2003    0.5117 O   0  0  0  0  0  0  0  0  0  0  0  0
  1  3  1  0
  1  4  1  0
  1 12  1  0
  2  4  1  0
  4  5  1  0
  5  6  1  0
  6  8  2  0
  6  9  1  0
 26  7  1  0
  7 10  2  0
  7 11  1  0
  8 10  1  0
  9 11  2  0
  2 13  1  0
  2 14  1  0
  4 15  1  1
  5 16  1  0
  5 17  1  0
 26 18  1  0
  8 19  1  0
  9 20  1  0
 10 21  1  0
 11 22  1  0
  3 23  1  0
 12 24  1  0
  1 25  1  6
M  END
