
     RDKit          3D

 58 61  0  0  0  0  0  0  0  0999 V2000
    1.7691   -0.7703   -0.6801 C   0  0  2  0  0  0  0  0  0  0  0  0
    0.5243   -1.1526    0.1305 C   0  0  2  0  0  0  0  0  0  0  0  0
    0.5282   -2.6885    0.1334 C   0  0  0  0  0  0  0  0  0  0  0  0
    1.9413   -3.0038    0.0574 N   0  0  0  0  0  0  0  0  0  0  0  0
    2.4662   -2.1170   -0.9652 C   0  0  0  0  0  0  0  0  0  0  0  0
    2.7043    0.1402    0.0956 C   0  0  0  0  0  0  0  0  0  0  0  0
   -0.7737   -0.6276   -0.4453 C   0  0  0  0  0  0  0  0  0  0  0  0
   -1.7861   -0.6173    0.4638 N   0  0  0  0  0  0  0  0  0  0  0  0
   -0.9107   -0.2977   -1.6062 O   0  0  0  0  0  0  0  0  0  0  0  0
    2.7892    0.1243    1.3089 O   0  0  0  0  0  0  0  0  0  0  0  0
    3.4651    0.9301   -0.7056 N   0  0  0  0  0  0  0  0  0  0  0  0
    4.4749    1.8295   -0.3560 C   0  0  0  0  0  0  0  0  0  0  0  0
    6.5052    3.6672    0.1479 C   0  0  0  0  0  0  0  0  0  0  0  0
    6.0287    2.8644    1.1693 C   0  0  0  0  0  0  0  0  0  0  0  0
    5.9789    3.5620   -1.1300 C   0  0  0  0  0  0  0  0  0  0  0  0
    5.0174    1.9466    0.9243 C   0  0  0  0  0  0  0  0  0  0  0  0
    7.7683    4.8111    0.4674 Cl  0  0  0  0  0  0  0  0  0  0  0  0
   -3.1091   -0.2372    0.2371 C   0  0  0  0  0  0  0  0  0  0  0  0
   -3.7788   -0.4175   -0.9719 C   0  0  0  0  0  0  0  0  0  0  0  0
   -5.7816    0.5236   -0.0389 C   0  0  0  0  0  0  0  0  0  0  0  0
   -5.1449    0.7055    1.1780 C   0  0  0  0  0  0  0  0  0  0  0  0
   -5.1035   -0.0346   -1.1086 C   0  0  0  0  0  0  0  0  0  0  0  0
   -3.8264    0.3259    1.2899 C   0  0  0  0  0  0  0  0  0  0  0  0
   -7.1523    0.8955   -0.1743 N   0  0  0  0  0  0  0  0  0  0  0  0
   -8.1104    0.0376    0.2750 C   0  0  0  0  0  0  0  0  0  0  0  0
   -9.7882    1.5704   -0.4120 C   0  0  0  0  0  0  0  0  0  0  0  0
   -8.8384    2.4309   -0.8608 C   0  0  0  0  0  0  0  0  0  0  0  0
   -9.4275    0.3341    0.1762 C   0  0  0  0  0  0  0  0  0  0  0  0
   -7.4349    2.1321   -0.7596 C   0  0  0  0  0  0  0  0  0  0  0  0
   -6.5225    2.8592   -1.1338 O   0  0  0  0  0  0  0  0  0  0  0  0
   -3.1991    0.4986    2.4626 F   0  0  0  0  0  0  0  0  0  0  0  0
    2.2025   -4.4070   -0.1331 C   0  0  0  0  0  0  0  0  0  0  0  0
    3.5434   -4.8156    0.4297 C   0  0  1  0  0  0  0  0  0  0  0  0
    3.6557   -4.5300    1.7317 F   0  0  0  0  0  0  0  0  0  0  0  0
    3.7302   -6.1380    0.2971 F   0  0  0  0  0  0  0  0  0  0  0  0
    4.5766   -4.2186   -0.1848 F   0  0  0  0  0  0  0  0  0  0  0  0
    4.9706    2.6480   -1.3740 C   0  0  0  0  0  0  0  0  0  0  0  0
    1.4919   -0.2978   -1.6238 H   0  0  0  0  0  0  0  0  0  0  0  0
    0.6361   -0.8079    1.1612 H   0  0  0  0  0  0  0  0  0  0  0  0
    2.1946   -2.4559   -1.9765 H   0  0  0  0  0  0  0  0  0  0  0  0
    3.5528   -2.0442   -0.9286 H   0  0  0  0  0  0  0  0  0  0  0  0
    0.0787   -3.1045    1.0360 H   0  0  0  0  0  0  0  0  0  0  0  0
   -0.0307   -3.0792   -0.7327 H   0  0  0  0  0  0  0  0  0  0  0  0
    1.4476   -4.9874    0.4021 H   0  0  0  0  0  0  0  0  0  0  0  0
    2.1541   -4.7206   -1.1866 H   0  0  0  0  0  0  0  0  0  0  0  0
    3.2544    0.8938   -1.6916 H   0  0  0  0  0  0  0  0  0  0  0  0
   -1.5316   -0.8058    1.4214 H   0  0  0  0  0  0  0  0  0  0  0  0
    4.6672    1.3322    1.7367 H   0  0  0  0  0  0  0  0  0  0  0  0
    4.5623    2.5736   -2.3747 H   0  0  0  0  0  0  0  0  0  0  0  0
    6.4404    2.9437    2.1663 H   0  0  0  0  0  0  0  0  0  0  0  0
    6.3439    4.1869   -1.9335 H   0  0  0  0  0  0  0  0  0  0  0  0
   -3.2753   -0.8704   -1.8107 H   0  0  0  0  0  0  0  0  0  0  0  0
   -5.6094   -0.1883   -2.0522 H   0  0  0  0  0  0  0  0  0  0  0  0
   -5.6591    1.1437    2.0235 H   0  0  0  0  0  0  0  0  0  0  0  0
   -7.7494   -0.8850    0.7064 H   0  0  0  0  0  0  0  0  0  0  0  0
  -10.1684   -0.3630    0.5364 H   0  0  0  0  0  0  0  0  0  0  0  0
  -10.8345    1.8321   -0.5046 H   0  0  0  0  0  0  0  0  0  0  0  0
   -9.1079    3.3774   -1.3089 H   0  0  0  0  0  0  0  0  0  0  0  0
  1  2  1  0
  1  5  1  0
  1  6  1  0
  2  3  1  0
  2  7  1  0
  3  4  1  0
  4  5  1  0
  4 32  1  0
  6 10  2  0
  6 11  1  0
  7  8  1  0
  7  9  2  0
  8 18  1  0
 11 12  1  0
 12 16  2  0
 12 37  1  0
 13 14  2  0
 13 15  1  0
 13 17  1  0
 14 16  1  0
 15 37  2  0
 18 19  2  0
 18 23  1  0
 19 22  1  0
 20 21  1  0
 20 22  2  0
 20 24  1  0
 21 23  2  0
 23 31  1  0
 24 25  1  0
 24 29  1  0
 25 28  2  0
 26 27  2  0
 26 28  1  0
 27 29  1  0
 29 30  2  0
 32 33  1  0
 33 34  1  1
 33 35  1  0
 33 36  1  0
  1 38  1  6
  2 39  1  1
  5 40  1  0
  5 41  1  0
  3 42  1  0
  3 43  1  0
 32 44  1  0
 32 45  1  0
 11 46  1  0
  8 47  1  0
 16 48  1  0
 37 49  1  0
 14 50  1  0
 15 51  1  0
 19 52  1  0
 22 53  1  0
 21 54  1  0
 25 55  1  0
 28 56  1  0
 26 57  1  0
 27 58  1  0
M  END
