
     RDKit          3D

 34 37  0  0  0  0  0  0  0  0999 V2000
   -1.8886    1.8127   -0.3693 C   0  0  0  0  0  0  0  0  0  0  0  0
   -0.7972    2.5100   -0.6925 N   0  0  0  0  0  0  0  0  0  0  0  0
   -1.8770    0.4280   -0.0752 C   0  0  0  0  0  0  0  0  0  0  0  0
   -3.0514    2.4671   -0.3223 N   0  0  0  0  0  0  0  0  0  0  0  0
   -4.1648    1.7891   -0.0499 C   0  0  0  0  0  0  0  0  0  0  0  0
   -4.3036    0.4991    0.1726 N   0  0  0  0  0  0  0  0  0  0  0  0
   -3.1337   -0.1451    0.1433 C   0  0  0  0  0  0  0  0  0  0  0  0
   -2.9346   -1.4650    0.3064 N   0  0  0  0  0  0  0  0  0  0  0  0
   -3.9198   -2.4852    0.5599 C   0  0  0  0  0  0  0  0  0  0  0  0
   -1.6362   -1.7776    0.2207 N   0  0  0  0  0  0  0  0  0  0  0  0
   -0.9708   -0.6662    0.0007 C   0  0  0  0  0  0  0  0  0  0  0  0
    0.4902   -0.6949   -0.1109 C   0  0  0  0  0  0  0  0  0  0  0  0
    1.2649    0.2782    0.4726 C   0  0  0  0  0  0  0  0  0  0  0  0
    1.1210   -1.7659   -0.7931 C   0  0  0  0  0  0  0  0  0  0  0  0
    2.4813   -1.8255   -0.8890 C   0  0  0  0  0  0  0  0  0  0  0  0
    3.2973   -0.8242   -0.3107 C   0  0  0  0  0  0  0  0  0  0  0  0
    2.6749    0.2445    0.3835 C   0  0  0  0  0  0  0  0  0  0  0  0
    4.7077   -0.8577   -0.3994 C   0  0  0  0  0  0  0  0  0  0  0  0
    5.4650    0.1252    0.1782 C   0  0  0  0  0  0  0  0  0  0  0  0
    4.8461    1.1866    0.8722 C   0  0  0  0  0  0  0  0  0  0  0  0
    3.4828    1.2449    0.9733 C   0  0  0  0  0  0  0  0  0  0  0  0
    0.0686    2.0529   -0.9196 H   0  0  0  0  0  0  0  0  0  0  0  0
   -0.9032    3.4667   -0.9873 H   0  0  0  0  0  0  0  0  0  0  0  0
   -5.0736    2.3817   -0.0221 H   0  0  0  0  0  0  0  0  0  0  0  0
   -3.9034   -3.2315   -0.2320 H   0  0  0  0  0  0  0  0  0  0  0  0
   -3.7294   -2.9688    1.5161 H   0  0  0  0  0  0  0  0  0  0  0  0
   -4.9004   -2.0196    0.5876 H   0  0  0  0  0  0  0  0  0  0  0  0
    0.8037    1.0779    1.0416 H   0  0  0  0  0  0  0  0  0  0  0  0
    0.5122   -2.5359   -1.2480 H   0  0  0  0  0  0  0  0  0  0  0  0
    2.9519   -2.6467   -1.4158 H   0  0  0  0  0  0  0  0  0  0  0  0
    5.1817   -1.6745   -0.9300 H   0  0  0  0  0  0  0  0  0  0  0  0
    6.5442    0.0918    0.1050 H   0  0  0  0  0  0  0  0  0  0  0  0
    5.4560    1.9577    1.3242 H   0  0  0  0  0  0  0  0  0  0  0  0
    3.0059    2.0613    1.5023 H   0  0  0  0  0  0  0  0  0  0  0  0
  4  5  1  0
  4  1  2  0
  5  6  2  0
  2  1  1  0
  1  3  1  0
  6  7  1  0
 15 14  2  0
 15 16  1  0
 14 12  1  0
  3  7  2  0
  3 11  1  0
  7  8  1  0
 18 16  1  0
 18 19  2  0
 16 17  2  0
  8  9  1  0
  8 10  1  0
 11 12  1  0
 11 10  2  0
 12 13  2  0
 19 20  1  0
 17 13  1  0
 17 21  1  0
 20 21  2  0
  2 22  1  0
  2 23  1  0
  5 24  1  0
  9 25  1  0
  9 26  1  0
  9 27  1  0
 13 28  1  0
 14 29  1  0
 15 30  1  0
 18 31  1  0
 19 32  1  0
 20 33  1  0
 21 34  1  0
M  END
