
     RDKit          3D

 41 43  0  0  0  0  0  0  0  0999 V2000
    4.0610    1.8282    0.1567 C   0  0  0  0  0  0  0  0  0  0  0  0
    5.3073    1.2019   -0.4586 C   0  0  0  0  0  0  0  0  0  0  0  0
    5.3795   -0.2803   -0.1079 C   0  0  0  0  0  0  0  0  0  0  0  0
    4.0710   -0.9775   -0.4578 C   0  0  1  0  0  0  0  0  0  0  0  0
    4.0526   -2.4329   -0.0389 C   0  0  0  0  0  0  0  0  0  0  0  0
    2.9773   -0.3344    0.1735 O   0  0  0  0  0  0  0  0  0  0  0  0
    2.8230    1.0155   -0.2055 C   0  0  1  0  0  0  0  0  0  0  0  0
    1.5709    1.5724    0.4500 C   0  0  0  0  0  0  0  0  0  0  0  0
    0.2694    0.9050    0.0450 C   0  0  2  0  0  0  0  0  0  0  0  0
   -0.9378    1.7684    0.3515 C   0  0  0  0  0  0  0  0  0  0  0  0
    0.1719   -0.3531    0.7444 O   0  0  0  0  0  0  0  0  0  0  0  0
   -0.9562   -1.0379    0.7158 C   0  0  0  0  0  0  0  0  0  0  0  0
   -0.9272   -2.2083    1.0732 O   0  0  0  0  0  0  0  0  0  0  0  0
   -2.1772   -0.3750    0.2833 C   0  0  0  0  0  0  0  0  0  0  0  0
   -2.2041    1.0140    0.0896 C   0  0  0  0  0  0  0  0  0  0  0  0
   -3.3626    1.6483   -0.2956 C   0  0  0  0  0  0  0  0  0  0  0  0
   -4.5258    0.8923   -0.4912 C   0  0  0  0  0  0  0  0  0  0  0  0
   -5.6239    1.5539   -0.8701 O   0  0  0  0  0  0  0  0  0  0  0  0
   -4.5269   -0.4823   -0.2921 C   0  0  0  0  0  0  0  0  0  0  0  0
   -3.3603   -1.1225    0.1100 C   0  0  0  0  0  0  0  0  0  0  0  0
   -3.4049   -2.4351    0.3169 O   0  0  0  0  0  0  0  0  0  0  0  0
    4.1622    1.8636    1.2469 H   0  0  0  0  0  0  0  0  0  0  0  0
    3.9343    2.8579   -0.1865 H   0  0  0  0  0  0  0  0  0  0  0  0
    5.2727    1.3168   -1.5468 H   0  0  0  0  0  0  0  0  0  0  0  0
    6.2052    1.7219   -0.1188 H   0  0  0  0  0  0  0  0  0  0  0  0
    6.2021   -0.7644   -0.6399 H   0  0  0  0  0  0  0  0  0  0  0  0
    5.5760   -0.4025    0.9632 H   0  0  0  0  0  0  0  0  0  0  0  0
    3.9373   -0.9186   -1.5511 H   0  0  0  0  0  0  0  0  0  0  0  0
    4.2027   -2.5343    1.0376 H   0  0  0  0  0  0  0  0  0  0  0  0
    3.1068   -2.9094   -0.3000 H   0  0  0  0  0  0  0  0  0  0  0  0
    4.8527   -2.9773   -0.5408 H   0  0  0  0  0  0  0  0  0  0  0  0
    2.6894    1.0730   -1.3004 H   0  0  0  0  0  0  0  0  0  0  0  0
    1.6662    1.5597    1.5404 H   0  0  0  0  0  0  0  0  0  0  0  0
    1.4970    2.6247    0.1629 H   0  0  0  0  0  0  0  0  0  0  0  0
    0.2827    0.6831   -1.0286 H   0  0  0  0  0  0  0  0  0  0  0  0
   -0.9110    2.0947    1.3970 H   0  0  0  0  0  0  0  0  0  0  0  0
   -0.8960    2.6677   -0.2637 H   0  0  0  0  0  0  0  0  0  0  0  0
   -3.3836    2.7202   -0.4463 H   0  0  0  0  0  0  0  0  0  0  0  0
   -6.3702    0.9514   -0.9729 H   0  0  0  0  0  0  0  0  0  0  0  0
   -5.4300   -1.0642   -0.4366 H   0  0  0  0  0  0  0  0  0  0  0  0
   -2.5243   -2.7153    0.6521 H   0  0  0  0  0  0  0  0  0  0  0  0
  5  4  1  0
  3  4  1  0
  3  2  1  0
  4  6  1  0
  2  1  1  0
  6  7  1  0
  1  7  1  0
  7  8  1  0
  8  9  1  0
 10  9  1  0
 10 15  1  0
  9 11  1  0
 16 15  2  0
 16 17  1  0
 15 14  1  0
 11 12  1  0
 18 17  1  0
 17 19  2  0
 14 12  1  0
 14 20  2  0
 12 13  2  0
 19 20  1  0
 20 21  1  0
  1 22  1  0
  1 23  1  0
  2 24  1  0
  2 25  1  0
  3 26  1  0
  3 27  1  0
  4 28  1  6
  5 29  1  0
  5 30  1  0
  5 31  1  0
  7 32  1  6
  8 33  1  0
  8 34  1  0
  9 35  1  6
 10 36  1  0
 10 37  1  0
 16 38  1  0
 18 39  1  0
 19 40  1  0
 21 41  1  0
M  END
