
     RDKit          3D

 29 30  0  0  0  0  0  0  0  0999 V2000
    2.8597    0.8463   -1.3844 C   0  0  0  0  0  0  0  0  0  0  0  0
    1.6554    0.2171   -1.1109 C   0  0  0  0  0  0  0  0  0  0  0  0
    0.1710   -3.2398   -0.5851 N   0  0  0  0  0  0  0  0  0  0  0  0
    3.7641    1.0994   -0.3587 C   0  0  0  0  0  0  0  0  0  0  0  0
   -3.5114   -0.0166   -0.3981 C   0  0  0  0  0  0  0  0  0  0  0  0
    1.3483   -0.1613    0.1929 C   0  0  0  0  0  0  0  0  0  0  0  0
   -2.3685   -0.8237    0.1875 C   0  0  0  0  0  0  0  0  0  0  0  0
   -1.1081   -0.1227   -0.0292 N   0  0  0  0  0  0  0  0  0  0  0  0
    3.4592    0.7217    0.9408 C   0  0  0  0  0  0  0  0  0  0  0  0
   -2.3601    1.9611   -0.0381 C   0  0  0  0  0  0  0  0  0  0  0  0
    0.0896   -2.1918   -0.1185 C   0  0  0  0  0  0  0  0  0  0  0  0
    0.0330   -0.8551    0.4911 C   0  0  1  0  0  0  0  0  0  0  0  0
   -3.5757    1.2758    0.1581 O   0  0  0  0  0  0  0  0  0  0  0  0
    2.2509    0.0919    1.2157 C   0  0  0  0  0  0  0  0  0  0  0  0
   -1.1873    1.2089    0.5592 C   0  0  0  0  0  0  0  0  0  0  0  0
    3.0945    1.1399   -2.3990 H   0  0  0  0  0  0  0  0  0  0  0  0
    0.9481    0.0281   -1.9094 H   0  0  0  0  0  0  0  0  0  0  0  0
    4.7027    1.5929   -0.5751 H   0  0  0  0  0  0  0  0  0  0  0  0
   -4.4585   -0.5144   -0.1867 H   0  0  0  0  0  0  0  0  0  0  0  0
   -2.5501   -1.0075    1.2589 H   0  0  0  0  0  0  0  0  0  0  0  0
   -2.3482   -1.7943   -0.3127 H   0  0  0  0  0  0  0  0  0  0  0  0
    4.1571    0.9199    1.7435 H   0  0  0  0  0  0  0  0  0  0  0  0
   -2.1775    2.1223   -1.1098 H   0  0  0  0  0  0  0  0  0  0  0  0
   -2.4527    2.9381    0.4379 H   0  0  0  0  0  0  0  0  0  0  0  0
   -0.0411   -1.0207    1.5798 H   0  0  0  0  0  0  0  0  0  0  0  0
    2.0080   -0.1952    2.2316 H   0  0  0  0  0  0  0  0  0  0  0  0
   -1.2957    1.1579    1.6553 H   0  0  0  0  0  0  0  0  0  0  0  0
   -0.2756    1.7683    0.3463 H   0  0  0  0  0  0  0  0  0  0  0  0
   -3.3910    0.0373   -1.4891 H   0  0  0  0  0  0  0  0  0  0  0  0
  4  9  1  0
  4  1  2  0
  9 14  2  0
  1  2  1  0
 14  6  1  0
  2  6  2  0
  6 12  1  0
 12 11  1  0
 12  8  1  0
 11  3  3  0
  8 15  1  0
  8  7  1  0
 10 15  1  0
 10 13  1  0
  7  5  1  0
  5 13  1  0
  1 16  1  0
  2 17  1  0
  4 18  1  0
  5 29  1  0
  5 19  1  0
  7 20  1  0
  7 21  1  0
  9 22  1  0
 10 23  1  0
 10 24  1  0
 12 25  1  1
 14 26  1  0
 15 27  1  0
 15 28  1  0
M  END
