
     RDKit          3D

 30 31  0  0  0  0  0  0  0  0999 V2000
    2.2756    0.3976   -0.0943 C   0  0  0  0  0  0  0  0  0  0  0  0
    4.1355    1.8856   -0.1635 N   0  0  0  0  0  0  0  0  0  0  0  0
    5.4305    2.2227   -0.4111 O   0  0  0  0  0  0  0  0  0  0  0  0
    2.0022   -1.3862   -0.0130 S   0  0  0  0  0  0  0  0  0  0  0  0
    3.7767    0.5933   -0.1681 C   0  0  0  0  0  0  0  0  0  0  0  0
   -0.2941   -2.6436    0.0651 N   0  0  0  0  0  0  0  0  0  0  0  0
    4.5551   -0.3408   -0.1991 O   0  0  0  0  0  0  0  0  0  0  0  0
    0.2539   -1.4100    0.0235 C   0  0  0  0  0  0  0  0  0  0  0  0
   -0.4411   -0.3243    0.0077 N   0  0  0  0  0  0  0  0  0  0  0  0
   -1.6684   -2.8599    0.1109 C   0  0  0  0  0  0  0  0  0  0  0  0
   -2.4288   -1.6436    0.1040 C   0  0  0  0  0  0  0  0  0  0  0  0
   -1.8012   -0.4345    0.0407 C   0  0  0  0  0  0  0  0  0  0  0  0
   -2.5353    0.8471    0.0190 C   0  0  0  0  0  0  0  0  0  0  0  0
   -1.8627    2.0381    0.2994 C   0  0  0  0  0  0  0  0  0  0  0  0
   -2.5398    3.2481    0.3001 C   0  0  0  0  0  0  0  0  0  0  0  0
   -3.8962    3.2900    0.0078 C   0  0  0  0  0  0  0  0  0  0  0  0
   -4.5723    2.1120   -0.2848 C   0  0  0  0  0  0  0  0  0  0  0  0
   -3.8986    0.9014   -0.2791 C   0  0  0  0  0  0  0  0  0  0  0  0
    1.7817    0.8110   -0.9745 H   0  0  0  0  0  0  0  0  0  0  0  0
    1.8566    0.8863    0.7858 H   0  0  0  0  0  0  0  0  0  0  0  0
    3.4671    2.6322   -0.2953 H   0  0  0  0  0  0  0  0  0  0  0  0
    5.8309    2.3980    0.4504 H   0  0  0  0  0  0  0  0  0  0  0  0
    0.2991   -3.4654    0.0675 H   0  0  0  0  0  0  0  0  0  0  0  0
   -3.5033   -1.7338    0.1626 H   0  0  0  0  0  0  0  0  0  0  0  0
   -0.8053    2.0146    0.5229 H   0  0  0  0  0  0  0  0  0  0  0  0
   -2.0048    4.1607    0.5282 H   0  0  0  0  0  0  0  0  0  0  0  0
   -4.4237    4.2349    0.0022 H   0  0  0  0  0  0  0  0  0  0  0  0
   -5.6274    2.1363   -0.5229 H   0  0  0  0  0  0  0  0  0  0  0  0
   -4.4447    0.0004   -0.5264 H   0  0  0  0  0  0  0  0  0  0  0  0
   -2.1121   -3.9961    0.1535 O   0  0  0  0  0  0  0  0  0  0  0  0
  1  4  1  0
  1  5  1  0
  2  3  1  0
  2  5  1  0
  4  8  1  0
  5  7  2  0
  6  8  1  0
  6 10  1  0
  8  9  2  0
  9 12  1  0
 30 10  2  0
 10 11  1  0
 11 12  2  0
 12 13  1  0
 13 14  2  0
 13 18  1  0
 14 15  1  0
 15 16  2  0
 16 17  1  0
 17 18  2  0
  1 19  1  0
  1 20  1  0
  2 21  1  0
  3 22  1  0
  6 23  1  0
 11 24  1  0
 14 25  1  0
 15 26  1  0
 16 27  1  0
 17 28  1  0
 18 29  1  0
M  END
