
     RDKit          3D

 23 23  0  0  0  0  0  0  0  0999 V2000
    0.2901   -2.8261    0.5139 O   0  0  0  0  0  0  0  0  0  0  0  0
    0.0408   -1.6616   -0.3137 S   0  0  1  0  0  0  0  0  0  0  0  0
   -0.2332   -1.8055   -1.7318 O   0  0  0  0  0  0  0  0  0  0  0  0
   -1.2759   -0.9148    0.3505 N   0  0  0  0  0  0  0  0  0  0  0  0
   -1.7459    0.3068   -0.2542 C   0  0  0  0  0  0  0  0  0  0  0  0
   -3.0734    0.6917    0.3059 C   0  0  0  0  0  0  0  0  0  0  0  0
   -3.6690    0.1753    1.1953 O   0  0  0  0  0  0  0  0  0  0  0  0
   -3.5929    1.9387   -0.3722 N   0  0  0  0  0  0  0  0  0  0  0  0
   -4.7621    2.0544   -0.2213 O   0  0  0  0  0  0  0  0  0  0  0  0
    1.3917   -0.5353   -0.1295 C   0  0  0  0  0  0  0  0  0  0  0  0
    2.0796   -0.4948    1.0785 C   0  0  0  0  0  0  0  0  0  0  0  0
    1.7193    0.3220   -1.1723 C   0  0  0  0  0  0  0  0  0  0  0  0
    2.7458    1.2373   -1.0060 C   0  0  0  0  0  0  0  0  0  0  0  0
    3.4170    1.2679    0.2016 C   0  0  0  0  0  0  0  0  0  0  0  0
    4.4063    2.1493    0.3642 F   0  0  0  0  0  0  0  0  0  0  0  0
    3.1055    0.4175    1.2483 C   0  0  0  0  0  0  0  0  0  0  0  0
   -1.2307   -0.8916    1.3647 H   0  0  0  0  0  0  0  0  0  0  0  0
   -1.0711    1.1651   -0.1212 H   0  0  0  0  0  0  0  0  0  0  0  0
   -1.8661    0.1786   -1.3341 H   0  0  0  0  0  0  0  0  0  0  0  0
    1.8310   -1.1682    1.8876 H   0  0  0  0  0  0  0  0  0  0  0  0
    1.1932    0.2833   -2.1160 H   0  0  0  0  0  0  0  0  0  0  0  0
    3.0189    1.9113   -1.8064 H   0  0  0  0  0  0  0  0  0  0  0  0
    3.6565    0.4641    2.1779 H   0  0  0  0  0  0  0  0  0  0  0  0
  1  2  2  0
  2  3  2  0
  2  4  1  1
  2 10  1  0
  4  5  1  0
  5  6  1  0
  6  7  2  0
  6  8  1  0
  8  9  2  0
 10 11  2  0
 10 12  1  0
 11 16  1  0
 12 13  2  0
 13 14  1  0
 14 15  1  0
 14 16  2  0
  4 17  1  0
  5 18  1  0
  5 19  1  0
 11 20  1  0
 12 21  1  0
 13 22  1  0
 16 23  1  0
M  END
