
     RDKit          3D

 49 49  0  0  0  0  0  0  0  0999 V2000
   -3.3852    1.7305    0.4538 C   0  0  0  0  0  0  0  0  0  0  0  0
   -2.1046    1.3450    0.0851 C   0  0  0  0  0  0  0  0  0  0  0  0
   -1.0183    2.3901    0.0145 C   0  0  0  0  0  0  0  0  0  0  0  0
    1.4037    1.9795   -0.1635 C   0  0  0  0  0  0  0  0  0  0  0  0
    2.6158   -0.1882    0.2071 C   0  0  2  0  0  0  0  0  0  0  0  0
    3.8066   -0.9357    0.8368 C   0  0  2  0  0  0  0  0  0  0  0  0
    3.6835   -2.4384    0.5481 C   0  0  0  0  0  0  0  0  0  0  0  0
   -2.8667   -0.9147   -0.2121 C   0  0  0  0  0  0  0  0  0  0  0  0
   -3.5224   -3.1788   -0.5271 C   0  0  0  0  0  0  0  0  0  0  0  0
    2.6164   -0.3595   -1.2970 C   0  0  0  0  0  0  0  0  0  0  0  0
    3.5610   -0.1018   -2.0047 O   0  0  0  0  0  0  0  0  0  0  0  0
    3.8883   -0.6743    2.3376 C   0  0  0  0  0  0  0  0  0  0  0  0
    4.9010   -3.2534    0.9652 C   0  0  0  0  0  0  0  0  0  0  0  0
    2.5999    1.3266    0.5341 C   0  0  1  0  0  0  0  0  0  0  0  0
    3.7848    1.9825    0.2099 O   0  0  0  0  0  0  0  0  0  0  0  0
    1.5282    2.4714   -1.2752 O   0  0  0  0  0  0  0  0  0  0  0  0
    0.2491    1.9114    0.5123 N   0  0  0  0  0  0  0  0  0  0  0  0
   -1.8390    0.0239   -0.2491 C   0  0  0  0  0  0  0  0  0  0  0  0
   -4.4120    0.7887    0.4825 C   0  0  0  0  0  0  0  0  0  0  0  0
   -5.6234    1.2452    0.8490 O   0  0  0  0  0  0  0  0  0  0  0  0
   -6.7080    0.3395    0.9015 C   0  0  0  0  0  0  0  0  0  0  0  0
   -4.1606   -0.5417    0.1527 C   0  0  0  0  0  0  0  0  0  0  0  0
   -2.5284   -2.1740   -0.5464 O   0  0  0  0  0  0  0  0  0  0  0  0
   -3.5961    2.7589    0.7216 H   0  0  0  0  0  0  0  0  0  0  0  0
   -0.8744    2.7036   -1.0197 H   0  0  0  0  0  0  0  0  0  0  0  0
   -1.3270    3.2772    0.5724 H   0  0  0  0  0  0  0  0  0  0  0  0
    1.6928   -0.6153    0.6134 H   0  0  0  0  0  0  0  0  0  0  0  0
    4.7272   -0.5730    0.3692 H   0  0  0  0  0  0  0  0  0  0  0  0
    2.7888   -2.8250    1.0473 H   0  0  0  0  0  0  0  0  0  0  0  0
    3.5238   -2.6010   -0.5216 H   0  0  0  0  0  0  0  0  0  0  0  0
   -3.0318   -4.1032   -0.8219 H   0  0  0  0  0  0  0  0  0  0  0  0
   -3.9507   -3.3124    0.4696 H   0  0  0  0  0  0  0  0  0  0  0  0
   -4.3304   -2.9701   -1.2331 H   0  0  0  0  0  0  0  0  0  0  0  0
    4.1135    0.3662    2.5676 H   0  0  0  0  0  0  0  0  0  0  0  0
    2.9508   -0.9361    2.8346 H   0  0  0  0  0  0  0  0  0  0  0  0
    4.6777   -1.2721    2.7911 H   0  0  0  0  0  0  0  0  0  0  0  0
    4.7929   -4.2926    0.6536 H   0  0  0  0  0  0  0  0  0  0  0  0
    5.8105   -2.8635    0.5042 H   0  0  0  0  0  0  0  0  0  0  0  0
    5.0519   -3.2543    2.0448 H   0  0  0  0  0  0  0  0  0  0  0  0
    2.4780    1.4258    1.6154 H   0  0  0  0  0  0  0  0  0  0  0  0
    3.9052    1.9619   -0.7468 H   0  0  0  0  0  0  0  0  0  0  0  0
    0.2653    1.5559    1.4559 H   0  0  0  0  0  0  0  0  0  0  0  0
   -0.8448   -0.2893   -0.5418 H   0  0  0  0  0  0  0  0  0  0  0  0
   -7.5750    0.9152    1.2160 H   0  0  0  0  0  0  0  0  0  0  0  0
   -6.9169   -0.1050   -0.0749 H   0  0  0  0  0  0  0  0  0  0  0  0
   -6.5368   -0.4618    1.6247 H   0  0  0  0  0  0  0  0  0  0  0  0
   -4.9539   -1.2738    0.1826 H   0  0  0  0  0  0  0  0  0  0  0  0
    1.4865   -0.8621   -2.7330 H   0  0  0  0  0  0  0  0  0  0  0  0
    1.4601   -0.8058   -1.7649 O   0  0  0  0  0  0  0  0  0  0  0  0
 16  4  2  0
 12  6  1  0
  4 14  1  0
  4 17  1  0
 14 15  1  0
 14  5  1  0
 17  3  1  0
  3  2  1  0
  6  5  1  0
  6  7  1  0
  5 10  1  0
 13  7  1  0
 18  2  1  0
 18  8  2  0
  2  1  2  0
 23  8  1  0
 23  9  1  0
  8 22  1  0
 10 11  2  0
  1 19  1  0
 22 19  2  0
 19 20  1  0
 20 21  1  0
  1 24  1  0
  3 25  1  0
  3 26  1  0
  5 27  1  1
  6 28  1  6
  7 29  1  0
  7 30  1  0
  9 31  1  0
  9 32  1  0
  9 33  1  0
 12 34  1  0
 12 35  1  0
 12 36  1  0
 13 37  1  0
 13 38  1  0
 13 39  1  0
 14 40  1  1
 15 41  1  0
 17 42  1  0
 18 43  1  0
 21 44  1  0
 21 45  1  0
 21 46  1  0
 22 47  1  0
 10 49  1  0
 49 48  1  0
M  END
