
     RDKit          3D

 35 37  0  0  0  0  0  0  0  0999 V2000
   -2.7414   -0.2341    0.0116 C   0  0  0  0  0  0  0  0  0  0  0  0
   -1.4110    0.2797    0.0053 C   0  0  0  0  0  0  0  0  0  0  0  0
   -3.8336    0.6742    0.0076 C   0  0  0  0  0  0  0  0  0  0  0  0
   -2.2989    2.5315   -0.0047 C   0  0  0  0  0  0  0  0  0  0  0  0
   -5.3968   -1.1742    0.0220 C   0  0  0  0  0  0  0  0  0  0  0  0
    2.1036   -0.6645   -0.0047 C   0  0  0  0  0  0  0  0  0  0  0  0
    3.3090    0.0706   -0.0084 C   0  0  0  0  0  0  0  0  0  0  0  0
    2.1541   -2.0598   -0.0032 C   0  0  0  0  0  0  0  0  0  0  0  0
    4.5188   -0.6298   -0.0120 C   0  0  0  0  0  0  0  0  0  0  0  0
    3.3228    1.5536   -0.0071 C   0  0  0  0  0  0  0  0  0  0  0  0
    3.3709   -2.7205   -0.0067 C   0  0  0  0  0  0  0  0  0  0  0  0
    4.5621   -2.0112   -0.0116 C   0  0  0  0  0  0  0  0  0  0  0  0
   -3.0266   -1.6219    0.0221 C   0  0  0  0  0  0  0  0  0  0  0  0
   -0.2684   -0.6973    0.0073 C   0  0  0  0  0  0  0  0  0  0  0  0
   -1.2094    1.6352   -0.0021 C   0  0  0  0  0  0  0  0  0  0  0  0
   -3.5814    2.0663   -0.0008 C   0  0  0  0  0  0  0  0  0  0  0  0
   -5.1556    0.1722    0.0123 C   0  0  0  0  0  0  0  0  0  0  0  0
   -4.3174   -2.0790    0.0273 C   0  0  0  0  0  0  0  0  0  0  0  0
    0.9503    0.0116   -0.0031 O   0  0  0  0  0  0  0  0  0  0  0  0
    4.5616    2.0437   -0.0112 O   0  0  0  0  0  0  0  0  0  0  0  0
    2.3552    2.2756   -0.0027 O   0  0  0  0  0  0  0  0  0  0  0  0
   -2.1058    3.5963   -0.0105 H   0  0  0  0  0  0  0  0  0  0  0  0
   -6.4127   -1.5471    0.0257 H   0  0  0  0  0  0  0  0  0  0  0  0
    1.2489   -2.6498    0.0005 H   0  0  0  0  0  0  0  0  0  0  0  0
    5.4497   -0.0819   -0.0151 H   0  0  0  0  0  0  0  0  0  0  0  0
    3.3798   -3.8025   -0.0053 H   0  0  0  0  0  0  0  0  0  0  0  0
    5.5126   -2.5263   -0.0143 H   0  0  0  0  0  0  0  0  0  0  0  0
   -2.2223   -2.3456    0.0269 H   0  0  0  0  0  0  0  0  0  0  0  0
   -0.3266   -1.3387    0.8952 H   0  0  0  0  0  0  0  0  0  0  0  0
   -0.3355   -1.3521   -0.8700 H   0  0  0  0  0  0  0  0  0  0  0  0
   -0.2062    2.0369   -0.0062 H   0  0  0  0  0  0  0  0  0  0  0  0
   -4.4187    2.7533   -0.0041 H   0  0  0  0  0  0  0  0  0  0  0  0
   -5.9788    0.8766    0.0082 H   0  0  0  0  0  0  0  0  0  0  0  0
   -4.5091   -3.1441    0.0359 H   0  0  0  0  0  0  0  0  0  0  0  0
    4.5212    3.0111   -0.0106 H   0  0  0  0  0  0  0  0  0  0  0  0
 21 10  2  0
 20 10  1  0
 10  7  1  0
  7  9  2  0
  7  6  1  0
  4 16  2  0
  4 15  1  0
 16  3  1  0
  9 12  1  0
 19  6  1  0
 19 14  1  0
 15  2  2  0
  3 17  2  0
  3  1  1  0
 17  5  1  0
  6  8  2  0
  2  1  1  0
  2 14  1  0
  1 13  2  0
  5 18  2  0
 12 11  2  0
 13 18  1  0
  8 11  1  0
  4 22  1  0
  5 23  1  0
  8 24  1  0
  9 25  1  0
 11 26  1  0
 12 27  1  0
 13 28  1  0
 14 29  1  0
 14 30  1  0
 15 31  1  0
 16 32  1  0
 17 33  1  0
 18 34  1  0
 20 35  1  0
M  END
