
     RDKit          3D

 28 29  0  0  0  0  0  0  0  0999 V2000
    2.3511    2.6792    0.0251 C   0  0  0  0  0  0  0  0  0  0  0  0
    3.3102   -0.9577   -0.0188 C   0  0  0  0  0  0  0  0  0  0  0  0
   -3.4799   -0.2099    1.1457 C   0  0  0  0  0  0  0  0  0  0  0  0
   -4.1514    0.0307   -0.0517 C   0  0  0  0  0  0  0  0  0  0  0  0
   -3.4469   -0.1213   -1.2448 C   0  0  0  0  0  0  0  0  0  0  0  0
   -2.1117   -0.4954   -1.2447 C   0  0  0  0  0  0  0  0  0  0  0  0
   -1.4534   -0.7204   -0.0423 C   0  0  0  0  0  0  0  0  0  0  0  0
    0.2219   -1.2955   -0.0386 S   0  0  0  0  0  0  0  0  0  0  0  0
    1.1023    0.2437   -0.0118 C   0  0  0  0  0  0  0  0  0  0  0  0
    0.3729    1.3452    0.0011 N   0  0  0  0  0  0  0  0  0  0  0  0
    0.9748    2.5249    0.0191 C   0  0  0  0  0  0  0  0  0  0  0  0
    3.1218    1.5328    0.0127 C   0  0  0  0  0  0  0  0  0  0  0  0
    2.5102    0.2813   -0.0059 C   0  0  0  0  0  0  0  0  0  0  0  0
    2.8233   -2.0641   -0.0339 O   0  0  0  0  0  0  0  0  0  0  0  0
    4.6152   -0.7370   -0.0118 O   0  0  0  0  0  0  0  0  0  0  0  0
   -2.1443   -0.5834    1.1549 C   0  0  0  0  0  0  0  0  0  0  0  0
    2.8001    3.6617    0.0391 H   0  0  0  0  0  0  0  0  0  0  0  0
   -4.0088   -0.1068    2.0858 H   0  0  0  0  0  0  0  0  0  0  0  0
   -5.6670    1.5495   -0.0020 H   0  0  0  0  0  0  0  0  0  0  0  0
   -6.1001    0.1433   -0.9626 H   0  0  0  0  0  0  0  0  0  0  0  0
   -6.1292    0.0567    0.8001 H   0  0  0  0  0  0  0  0  0  0  0  0
   -3.9490    0.0513   -2.1893 H   0  0  0  0  0  0  0  0  0  0  0  0
   -1.5831   -0.6136   -2.1820 H   0  0  0  0  0  0  0  0  0  0  0  0
    0.3234    3.3914    0.0293 H   0  0  0  0  0  0  0  0  0  0  0  0
    4.1997    1.6132    0.0170 H   0  0  0  0  0  0  0  0  0  0  0  0
    5.0952   -1.5787   -0.0197 H   0  0  0  0  0  0  0  0  0  0  0  0
   -1.6421   -0.7703    2.0954 H   0  0  0  0  0  0  0  0  0  0  0  0
   -5.5885    0.4615   -0.0548 C   0  0  0  0  0  0  0  0  0  0  0  0
  3 16  2  0
  3  4  1  0
 16  7  1  0
 14  2  2  0
 15  2  1  0
  2 13  1  0
 13 12  1  0
 13  9  2  0
  4 28  1  0
  4  5  2  0
  8  7  1  0
  8  9  1  0
  7  6  2  0
 12  1  2  0
  9 10  1  0
  1 11  1  0
 10 11  2  0
  6  5  1  0
  1 17  1  0
  3 18  1  0
 28 19  1  0
 28 20  1  0
 28 21  1  0
  5 22  1  0
  6 23  1  0
 11 24  1  0
 12 25  1  0
 15 26  1  0
 16 27  1  0
M  END
