
     RDKit          3D

 41 42  0  0  0  0  0  0  0  0999 V2000
    3.8414   -1.9443    0.2559 O   0  0  0  0  0  0  0  0  0  0  0  0
    4.0934   -0.8948   -0.3096 C   0  0  0  0  0  0  0  0  0  0  0  0
    4.9226   -0.7773   -1.3536 N   0  0  0  0  0  0  0  0  0  0  0  0
    5.6740   -1.8350   -1.7578 O   0  0  0  0  0  0  0  0  0  0  0  0
    3.4629    0.4195    0.1287 C   0  0  2  0  0  0  0  0  0  0  0  0
    4.0162    0.8484    1.5031 C   0  0  2  0  0  0  0  0  0  0  0  0
    3.3732    2.0240    1.9293 O   0  0  0  0  0  0  0  0  0  0  0  0
    5.5054    1.1249    1.4411 C   0  0  0  0  0  0  0  0  0  0  0  0
    2.0312    0.2424    0.1928 N   0  0  0  0  0  0  0  0  0  0  0  0
    1.1606    0.9476   -0.5636 C   0  0  0  0  0  0  0  0  0  0  0  0
    1.5119    1.8144   -1.3489 O   0  0  0  0  0  0  0  0  0  0  0  0
   -0.2819    0.6064   -0.3858 C   0  0  0  0  0  0  0  0  0  0  0  0
   -1.1679    0.9505   -1.4042 C   0  0  0  0  0  0  0  0  0  0  0  0
   -2.5163    0.6642   -1.2930 C   0  0  0  0  0  0  0  0  0  0  0  0
   -3.0267    0.0396   -0.1531 C   0  0  0  0  0  0  0  0  0  0  0  0
   -2.1375   -0.2852    0.8722 C   0  0  0  0  0  0  0  0  0  0  0  0
   -0.7856   -0.0086    0.7583 C   0  0  0  0  0  0  0  0  0  0  0  0
   -4.4660   -0.2633   -0.0329 C   0  0  0  0  0  0  0  0  0  0  0  0
   -4.8998   -1.4330    0.5943 C   0  0  0  0  0  0  0  0  0  0  0  0
   -6.2528   -1.7177    0.7044 C   0  0  0  0  0  0  0  0  0  0  0  0
   -7.1969   -0.8376    0.1915 C   0  0  0  0  0  0  0  0  0  0  0  0
   -6.7774    0.3298   -0.4327 C   0  0  0  0  0  0  0  0  0  0  0  0
   -5.4244    0.6132   -0.5452 C   0  0  0  0  0  0  0  0  0  0  0  0
    5.1671    0.1118   -1.7663 H   0  0  0  0  0  0  0  0  0  0  0  0
    5.1780   -2.2647   -2.4677 H   0  0  0  0  0  0  0  0  0  0  0  0
    3.6669    1.2158   -0.5902 H   0  0  0  0  0  0  0  0  0  0  0  0
    3.8352    0.0282    2.2117 H   0  0  0  0  0  0  0  0  0  0  0  0
    2.4437    1.8245    2.0808 H   0  0  0  0  0  0  0  0  0  0  0  0
    5.7357    1.8895    0.6967 H   0  0  0  0  0  0  0  0  0  0  0  0
    5.8685    1.4675    2.4096 H   0  0  0  0  0  0  0  0  0  0  0  0
    6.0653    0.2261    1.1853 H   0  0  0  0  0  0  0  0  0  0  0  0
    1.7016   -0.5741    0.6858 H   0  0  0  0  0  0  0  0  0  0  0  0
   -0.7993    1.4313   -2.3002 H   0  0  0  0  0  0  0  0  0  0  0  0
   -3.1752    0.9148   -2.1145 H   0  0  0  0  0  0  0  0  0  0  0  0
   -2.5050   -0.7366    1.7846 H   0  0  0  0  0  0  0  0  0  0  0  0
   -0.1418   -0.2539    1.5933 H   0  0  0  0  0  0  0  0  0  0  0  0
   -4.1754   -2.1388    0.9819 H   0  0  0  0  0  0  0  0  0  0  0  0
   -6.5699   -2.6336    1.1855 H   0  0  0  0  0  0  0  0  0  0  0  0
   -8.2522   -1.0610    0.2782 H   0  0  0  0  0  0  0  0  0  0  0  0
   -7.5054    1.0267   -0.8276 H   0  0  0  0  0  0  0  0  0  0  0  0
   -5.1134    1.5373   -1.0159 H   0  0  0  0  0  0  0  0  0  0  0  0
  7  6  1  0
  8  6  1  0
  6  5  1  0
  1  2  2  0
  2  3  1  0
  2  5  1  0
  4  3  1  0
  5  9  1  0
  9 10  1  0
 10 11  2  0
 10 12  1  0
 17 12  2  0
 17 16  1  0
 12 13  1  0
 16 15  2  0
 13 14  2  0
 15 14  1  0
 15 18  1  0
 23 18  1  0
 23 22  2  0
 18 19  2  0
 22 21  1  0
 19 20  1  0
 21 20  2  0
  3 24  1  0
  4 25  1  0
  5 26  1  6
  6 27  1  1
  7 28  1  0
  8 29  1  0
  8 30  1  0
  8 31  1  0
  9 32  1  0
 13 33  1  0
 14 34  1  0
 16 35  1  0
 17 36  1  0
 19 37  1  0
 20 38  1  0
 21 39  1  0
 22 40  1  0
 23 41  1  0
M  END
