
     RDKit          3D

 93 92  0  0  0  0  0  0  0  0999 V2000
  -15.0381   -4.1414   -0.5049 Br  0  0  0  0  0  0  0  0  0  0  0  0
  -13.7347   -3.0553    0.5048 C   0  0  0  0  0  0  0  0  0  0  0  0
  -12.4811   -2.7925   -0.2999 C   0  0  0  0  0  0  0  0  0  0  0  0
  -11.5001   -1.9458    0.5084 C   0  0  0  0  0  0  0  0  0  0  0  0
  -10.2110   -1.6565   -0.2518 C   0  0  0  0  0  0  0  0  0  0  0  0
   -9.2315   -0.8105    0.5509 C   0  0  0  0  0  0  0  0  0  0  0  0
   -7.9336   -0.5155   -0.1908 C   0  0  0  0  0  0  0  0  0  0  0  0
   -6.9658    0.3332    0.6233 C   0  0  0  0  0  0  0  0  0  0  0  0
   -5.6576    0.6318   -0.0986 C   0  0  0  0  0  0  0  0  0  0  0  0
   -4.7085    1.4885    0.7288 C   0  0  0  0  0  0  0  0  0  0  0  0
   -3.3893    1.7897    0.0288 C   0  0  0  0  0  0  0  0  0  0  0  0
   -2.4726    2.6672    0.8712 C   0  0  0  0  0  0  0  0  0  0  0  0
   -1.1510    2.9558    0.1778 C   0  0  0  0  0  0  0  0  0  0  0  0
   -0.2482    3.8659    0.9652 C   0  0  0  0  0  0  0  0  0  0  0  0
   -0.5161    4.3580    2.0334 O   0  0  0  0  0  0  0  0  0  0  0  0
    0.9008    4.0803    0.3342 O   0  0  0  0  0  0  0  0  0  0  0  0
    1.8321    4.9654    0.9493 C   0  0  0  0  0  0  0  0  0  0  0  0
    3.0526    5.1283    0.0732 C   0  0  2  0  0  0  0  0  0  0  0  0
    2.8051    5.7277   -1.3007 C   0  0  0  0  0  0  0  0  0  0  0  0
    2.1216    4.8229   -2.1276 O   0  0  0  0  0  0  0  0  0  0  0  0
    3.6835    3.8454   -0.0170 O   0  0  0  0  0  0  0  0  0  0  0  0
    5.0029    3.7865   -0.1816 C   0  0  0  0  0  0  0  0  0  0  0  0
    5.7027    4.7607   -0.3014 O   0  0  0  0  0  0  0  0  0  0  0  0
    5.4948    2.3645   -0.1752 C   0  0  0  0  0  0  0  0  0  0  0  0
    6.9890    2.2404   -0.4265 C   0  0  0  0  0  0  0  0  0  0  0  0
    7.4831    0.8057   -0.2929 C   0  0  0  0  0  0  0  0  0  0  0  0
    8.9824    0.6820   -0.5368 C   0  0  0  0  0  0  0  0  0  0  0  0
    9.5289   -0.7152   -0.2729 C   0  0  0  0  0  0  0  0  0  0  0  0
   11.0337   -0.8190   -0.4917 C   0  0  0  0  0  0  0  0  0  0  0  0
   11.6065   -2.1798   -0.1149 C   0  0  0  0  0  0  0  0  0  0  0  0
   13.1165   -2.2703   -0.3000 C   0  0  0  0  0  0  0  0  0  0  0  0
   13.6962   -3.6103    0.1365 C   0  0  0  0  0  0  0  0  0  0  0  0
   15.2097   -3.6925   -0.0183 C   0  0  0  0  0  0  0  0  0  0  0  0
   15.7891   -5.0245    0.4421 C   0  0  0  0  0  0  0  0  0  0  0  0
   17.3029   -5.1109    0.2916 C   0  0  0  0  0  0  0  0  0  0  0  0
   17.8677   -6.4440    0.7630 C   0  0  0  0  0  0  0  0  0  0  0  0
  -14.2498   -2.1318    0.7673 H   0  0  0  0  0  0  0  0  0  0  0  0
  -13.5221   -3.6107    1.4175 H   0  0  0  0  0  0  0  0  0  0  0  0
  -12.0078   -3.7376   -0.5775 H   0  0  0  0  0  0  0  0  0  0  0  0
  -12.7329   -2.2738   -1.2280 H   0  0  0  0  0  0  0  0  0  0  0  0
  -11.9769   -1.0006    0.7883 H   0  0  0  0  0  0  0  0  0  0  0  0
  -11.2605   -2.4574    1.4463 H   0  0  0  0  0  0  0  0  0  0  0  0
   -9.7338   -2.6017   -0.5318 H   0  0  0  0  0  0  0  0  0  0  0  0
  -10.4497   -1.1466   -1.1913 H   0  0  0  0  0  0  0  0  0  0  0  0
   -9.7123    0.1339    0.8296 H   0  0  0  0  0  0  0  0  0  0  0  0
   -9.0007   -1.3201    1.4930 H   0  0  0  0  0  0  0  0  0  0  0  0
   -7.4493   -1.4589   -0.4666 H   0  0  0  0  0  0  0  0  0  0  0  0
   -8.1612   -0.0061   -1.1338 H   0  0  0  0  0  0  0  0  0  0  0  0
   -7.4525    1.2768    0.8949 H   0  0  0  0  0  0  0  0  0  0  0  0
   -6.7470   -0.1745    1.5694 H   0  0  0  0  0  0  0  0  0  0  0  0
   -5.1643   -0.3101   -0.3632 H   0  0  0  0  0  0  0  0  0  0  0  0
   -5.8722    1.1372   -1.0468 H   0  0  0  0  0  0  0  0  0  0  0  0
   -5.2040    2.4312    0.9863 H   0  0  0  0  0  0  0  0  0  0  0  0
   -4.5039    0.9869    1.6811 H   0  0  0  0  0  0  0  0  0  0  0  0
   -2.8817    0.8499   -0.2144 H   0  0  0  0  0  0  0  0  0  0  0  0
   -3.5892    2.2829   -0.9288 H   0  0  0  0  0  0  0  0  0  0  0  0
   -2.9839    3.6064    1.0980 H   0  0  0  0  0  0  0  0  0  0  0  0
   -2.2854    2.1794    1.8317 H   0  0  0  0  0  0  0  0  0  0  0  0
   -0.6119    2.0260   -0.0293 H   0  0  0  0  0  0  0  0  0  0  0  0
   -1.3227    3.4156   -0.8010 H   0  0  0  0  0  0  0  0  0  0  0  0
    1.3842    5.9506    1.1001 H   0  0  0  0  0  0  0  0  0  0  0  0
    2.1324    4.5829    1.9281 H   0  0  0  0  0  0  0  0  0  0  0  0
    3.7013    5.8292    0.6083 H   0  0  0  0  0  0  0  0  0  0  0  0
    2.2468    6.6621   -1.1470 H   0  0  0  0  0  0  0  0  0  0  0  0
    3.7713    6.0131   -1.7301 H   0  0  0  0  0  0  0  0  0  0  0  0
    2.1551    5.1671   -3.0243 H   0  0  0  0  0  0  0  0  0  0  0  0
    5.2330    1.9269    0.7939 H   0  0  0  0  0  0  0  0  0  0  0  0
    4.9249    1.7955   -0.9159 H   0  0  0  0  0  0  0  0  0  0  0  0
    7.2285    2.6203   -1.4238 H   0  0  0  0  0  0  0  0  0  0  0  0
    7.5329    2.8701    0.2823 H   0  0  0  0  0  0  0  0  0  0  0  0
    7.2484    0.4338    0.7107 H   0  0  0  0  0  0  0  0  0  0  0  0
    6.9431    0.1577   -0.9913 H   0  0  0  0  0  0  0  0  0  0  0  0
    9.2080    0.9787   -1.5670 H   0  0  0  0  0  0  0  0  0  0  0  0
    9.5094    1.3967    0.1051 H   0  0  0  0  0  0  0  0  0  0  0  0
    9.2956   -1.0028    0.7585 H   0  0  0  0  0  0  0  0  0  0  0  0
    9.0156   -1.4414   -0.9127 H   0  0  0  0  0  0  0  0  0  0  0  0
   11.2663   -0.5992   -1.5395 H   0  0  0  0  0  0  0  0  0  0  0  0
   11.5362   -0.0440    0.0981 H   0  0  0  0  0  0  0  0  0  0  0  0
   11.3591   -2.3957    0.9306 H   0  0  0  0  0  0  0  0  0  0  0  0
   11.1194   -2.9615   -0.7083 H   0  0  0  0  0  0  0  0  0  0  0  0
   13.3669   -2.0887   -1.3511 H   0  0  0  0  0  0  0  0  0  0  0  0
   13.5976   -1.4666    0.2688 H   0  0  0  0  0  0  0  0  0  0  0  0
   13.4296   -3.7942    1.1834 H   0  0  0  0  0  0  0  0  0  0  0  0
   13.2281   -4.4160   -0.4400 H   0  0  0  0  0  0  0  0  0  0  0  0
   15.4781   -3.5220   -1.0670 H   0  0  0  0  0  0  0  0  0  0  0  0
   15.6758   -2.8789    0.5488 H   0  0  0  0  0  0  0  0  0  0  0  0
   15.5204   -5.1931    1.4912 H   0  0  0  0  0  0  0  0  0  0  0  0
   15.3220   -5.8392   -0.1227 H   0  0  0  0  0  0  0  0  0  0  0  0
   17.5724   -4.9483   -0.7567 H   0  0  0  0  0  0  0  0  0  0  0  0
   17.7686   -4.2953    0.8536 H   0  0  0  0  0  0  0  0  0  0  0  0
   17.6551   -6.6098    1.8209 H   0  0  0  0  0  0  0  0  0  0  0  0
   17.4312   -7.2755    0.2063 H   0  0  0  0  0  0  0  0  0  0  0  0
   18.9496   -6.4918    0.6334 H   0  0  0  0  0  0  0  0  0  0  0  0
 20 19  1  0
 19 18  1  0
 15 14  2  0
 16 14  1  0
 16 17  1  0
 14 13  1  0
 17 18  1  0
 18 21  1  0
 23 22  2  0
 13 12  1  0
 21 22  1  0
 22 24  1  0
 12 11  1  0
 24 25  1  0
 11 10  1  0
 25 26  1  0
 10  9  1  0
 26 27  1  0
 27 28  1  0
  9  8  1  0
 28 29  1  0
  8  7  1  0
 29 30  1  0
 30 31  1  0
  7  6  1  0
  6  5  1  0
  5  4  1  0
 32 31  1  0
 32 33  1  0
  4  3  1  0
 33 34  1  0
  3  2  1  0
 34 35  1  0
  2  1  1  0
 35 36  1  0
  2 37  1  0
  2 38  1  0
  3 39  1  0
  3 40  1  0
  4 41  1  0
  4 42  1  0
  5 43  1  0
  5 44  1  0
  6 45  1  0
  6 46  1  0
  7 47  1  0
  7 48  1  0
  8 49  1  0
  8 50  1  0
  9 51  1  0
  9 52  1  0
 10 53  1  0
 10 54  1  0
 11 55  1  0
 11 56  1  0
 12 57  1  0
 12 58  1  0
 13 59  1  0
 13 60  1  0
 17 61  1  0
 17 62  1  0
 18 63  1  1
 19 64  1  0
 19 65  1  0
 20 66  1  0
 24 67  1  0
 24 68  1  0
 25 69  1  0
 25 70  1  0
 26 71  1  0
 26 72  1  0
 27 73  1  0
 27 74  1  0
 28 75  1  0
 28 76  1  0
 29 77  1  0
 29 78  1  0
 30 79  1  0
 30 80  1  0
 31 81  1  0
 31 82  1  0
 32 83  1  0
 32 84  1  0
 33 85  1  0
 33 86  1  0
 34 87  1  0
 34 88  1  0
 35 89  1  0
 35 90  1  0
 36 91  1  0
 36 92  1  0
 36 93  1  0
M  END
