
     RDKit          3D

 28 28  0  0  0  0  0  0  0  0999 V2000
   -0.6558   -0.1165   -0.0839 N   0  0  0  0  0  0  0  0  0  0  0  0
   -6.6824    0.6160    0.0095 C   0  0  0  0  0  0  0  0  0  0  0  0
   -5.2939    0.9488   -0.0317 O   0  0  0  0  0  0  0  0  0  0  0  0
   -4.4231   -0.0482   -0.0086 C   0  0  0  0  0  0  0  0  0  0  0  0
   -3.0076    0.4608   -0.0494 C   0  0  0  0  0  0  0  0  0  0  0  0
   -1.9961   -0.6697   -0.0523 C   0  0  0  0  0  0  0  0  0  0  0  0
    0.4180   -0.8730    0.1272 C   0  0  0  0  0  0  0  0  0  0  0  0
    1.7539   -0.1776    0.0702 C   0  0  0  0  0  0  0  0  0  0  0  0
    1.9499    1.1520    0.1293 C   0  0  0  0  0  0  0  0  0  0  0  0
    3.2995    1.6781    0.0844 C   0  0  0  0  0  0  0  0  0  0  0  0
    4.1105   -0.6508   -0.0575 C   0  0  0  0  0  0  0  0  0  0  0  0
    4.2841    0.7100   -0.0122 N   0  0  0  0  0  0  0  0  0  0  0  0
    2.7998   -1.0417   -0.0195 N   0  0  0  0  0  0  0  0  0  0  0  0
   -4.7364   -1.2110    0.0411 O   0  0  0  0  0  0  0  0  0  0  0  0
    0.3834   -2.0714    0.3598 O   0  0  0  0  0  0  0  0  0  0  0  0
    3.5875    2.8584    0.1271 O   0  0  0  0  0  0  0  0  0  0  0  0
    5.0324   -1.4342   -0.1277 O   0  0  0  0  0  0  0  0  0  0  0  0
   -0.5432    0.8385   -0.3840 H   0  0  0  0  0  0  0  0  0  0  0  0
   -6.9397    0.0976    0.9328 H   0  0  0  0  0  0  0  0  0  0  0  0
   -7.2156    1.5611   -0.0327 H   0  0  0  0  0  0  0  0  0  0  0  0
   -6.9708    0.0004   -0.8421 H   0  0  0  0  0  0  0  0  0  0  0  0
   -2.8914    1.0898   -0.9373 H   0  0  0  0  0  0  0  0  0  0  0  0
   -2.8486    1.1165    0.8117 H   0  0  0  0  0  0  0  0  0  0  0  0
   -2.1507   -1.3230   -0.9143 H   0  0  0  0  0  0  0  0  0  0  0  0
   -2.1061   -1.2823    0.8427 H   0  0  0  0  0  0  0  0  0  0  0  0
    1.1400    1.8582    0.2298 H   0  0  0  0  0  0  0  0  0  0  0  0
    5.2439    1.0330   -0.0401 H   0  0  0  0  0  0  0  0  0  0  0  0
    2.6055   -2.0355   -0.0244 H   0  0  0  0  0  0  0  0  0  0  0  0
 16 10  2  0
 10  9  1  0
 10 12  1  0
  9  8  2  0
 12 11  1  0
 15  7  2  0
  8 13  1  0
  8  7  1  0
 11 13  1  0
 11 17  2  0
  7  1  1  0
  3  2  1  0
  3  4  1  0
  5  4  1  0
  5  6  1  0
  1  6  1  0
  4 14  2  0
  1 18  1  0
  2 19  1  0
  2 20  1  0
  2 21  1  0
  5 22  1  0
  5 23  1  0
  6 24  1  0
  6 25  1  0
  9 26  1  0
 12 27  1  0
 13 28  1  0
M  END
