
     RDKit          3D

 63 65  0  0  0  0  0  0  0  0999 V2000
    5.8602   -3.6278   -0.0946 C   0  0  0  0  0  0  0  0  0  0  0  0
    4.7937   -3.3750    0.6179 N   0  0  0  0  0  0  0  0  0  0  0  0
    4.2203   -2.1542    0.5005 C   0  0  0  0  0  0  0  0  0  0  0  0
    4.7339   -1.1535   -0.3601 C   0  0  0  0  0  0  0  0  0  0  0  0
    5.8844   -1.4683   -1.1139 C   0  0  0  0  0  0  0  0  0  0  0  0
    6.4509   -2.7052   -0.9820 C   0  0  0  0  0  0  0  0  0  0  0  0
    4.0874    0.1025   -0.4338 C   0  0  0  0  0  0  0  0  0  0  0  0
    2.9747    0.3693    0.3172 C   0  0  0  0  0  0  0  0  0  0  0  0
    2.4615   -0.6417    1.1682 C   0  0  0  0  0  0  0  0  0  0  0  0
    3.0645   -1.8631    1.2635 C   0  0  0  0  0  0  0  0  0  0  0  0
    2.2937    1.7108    0.2730 C   0  0  0  0  0  0  0  0  0  0  0  0
    0.8788    1.5309    0.0246 N   0  0  0  0  0  0  0  0  0  0  0  0
   -0.0108    2.6835    0.1907 C   0  0  2  0  0  0  0  0  0  0  0  0
   -1.3991    2.1099    0.0644 C   0  0  0  0  0  0  0  0  0  0  0  0
   -2.5224    2.8379   -0.1161 N   0  0  0  0  0  0  0  0  0  0  0  0
   -3.5450    2.0554   -0.1398 N   0  0  0  0  0  0  0  0  0  0  0  0
   -3.1107    0.8159    0.0187 N   0  0  0  0  0  0  0  0  0  0  0  0
   -1.7748    0.7927    0.1659 C   0  0  0  0  0  0  0  0  0  0  0  0
   -4.0726   -0.2600    0.1345 C   0  0  2  0  0  0  0  0  0  0  0  0
   -4.4691   -0.4101    1.6084 C   0  0  0  0  0  0  0  0  0  0  0  0
   -3.6161   -0.4263    2.4612 O   0  0  0  0  0  0  0  0  0  0  0  0
   -5.9345   -0.5141    1.8882 C   0  0  0  0  0  0  0  0  0  0  0  0
   -3.5211   -1.5733   -0.4217 C   0  0  0  0  0  0  0  0  0  0  0  0
   -4.5405   -2.7068   -0.4137 C   0  0  0  0  0  0  0  0  0  0  0  0
   -3.9973   -3.9649   -1.0811 C   0  0  0  0  0  0  0  0  0  0  0  0
   -5.0057   -5.1048   -1.0809 C   0  0  0  0  0  0  0  0  0  0  0  0
    0.2807    3.8000   -0.8568 C   0  0  1  0  0  0  0  0  0  0  0  0
   -0.0081    3.3515   -2.2874 C   0  0  0  0  0  0  0  0  0  0  0  0
   -0.4012    5.1395   -0.5833 C   0  0  0  0  0  0  0  0  0  0  0  0
    0.1395    3.2287    1.6166 C   0  0  0  0  0  0  0  0  0  0  0  0
    6.3001   -4.6132    0.0195 H   0  0  0  0  0  0  0  0  0  0  0  0
    6.3063   -0.7297   -1.7846 H   0  0  0  0  0  0  0  0  0  0  0  0
    7.3345   -2.9851   -1.5386 H   0  0  0  0  0  0  0  0  0  0  0  0
    4.4911    0.8580   -1.0991 H   0  0  0  0  0  0  0  0  0  0  0  0
    1.5705   -0.4319    1.7461 H   0  0  0  0  0  0  0  0  0  0  0  0
    2.6711   -2.6285    1.9203 H   0  0  0  0  0  0  0  0  0  0  0  0
    2.4247    2.1885    1.2466 H   0  0  0  0  0  0  0  0  0  0  0  0
    2.8088    2.3524   -0.4553 H   0  0  0  0  0  0  0  0  0  0  0  0
    0.7540    1.1344   -0.8991 H   0  0  0  0  0  0  0  0  0  0  0  0
   -1.2047   -0.1054    0.3191 H   0  0  0  0  0  0  0  0  0  0  0  0
   -4.9414    0.0434   -0.4532 H   0  0  0  0  0  0  0  0  0  0  0  0
   -6.4068   -1.2490    1.2345 H   0  0  0  0  0  0  0  0  0  0  0  0
   -6.1315   -0.7662    2.9273 H   0  0  0  0  0  0  0  0  0  0  0  0
   -6.4017    0.4459    1.6540 H   0  0  0  0  0  0  0  0  0  0  0  0
   -3.1920   -1.3879   -1.4472 H   0  0  0  0  0  0  0  0  0  0  0  0
   -2.6397   -1.8781    0.1483 H   0  0  0  0  0  0  0  0  0  0  0  0
   -4.8297   -2.9530    0.6126 H   0  0  0  0  0  0  0  0  0  0  0  0
   -5.4535   -2.3872   -0.9267 H   0  0  0  0  0  0  0  0  0  0  0  0
   -3.7069   -3.7314   -2.1094 H   0  0  0  0  0  0  0  0  0  0  0  0
   -3.0830   -4.2780   -0.5686 H   0  0  0  0  0  0  0  0  0  0  0  0
   -4.6069   -5.9907   -1.5757 H   0  0  0  0  0  0  0  0  0  0  0  0
   -5.2811   -5.3906   -0.0643 H   0  0  0  0  0  0  0  0  0  0  0  0
   -5.9209   -4.8191   -1.6028 H   0  0  0  0  0  0  0  0  0  0  0  0
    1.3593    3.9800   -0.7809 H   0  0  0  0  0  0  0  0  0  0  0  0
   -1.0768    3.2113   -2.4564 H   0  0  0  0  0  0  0  0  0  0  0  0
    0.3391    4.1060   -2.9948 H   0  0  0  0  0  0  0  0  0  0  0  0
    0.4957    2.4197   -2.5502 H   0  0  0  0  0  0  0  0  0  0  0  0
   -0.1325    5.5490    0.3906 H   0  0  0  0  0  0  0  0  0  0  0  0
   -0.0912    5.8692   -1.3339 H   0  0  0  0  0  0  0  0  0  0  0  0
   -1.4855    5.0561   -0.6266 H   0  0  0  0  0  0  0  0  0  0  0  0
    1.0644    3.7941    1.7436 H   0  0  0  0  0  0  0  0  0  0  0  0
   -0.6857    3.8943    1.8640 H   0  0  0  0  0  0  0  0  0  0  0  0
    0.1354    2.4051    2.3316 H   0  0  0  0  0  0  0  0  0  0  0  0
  1  6  2  0
  1  2  1  0
  1 31  1  0
  2  3  2  0
  3  4  1  0
  3 10  1  0
  5  4  2  0
  4  7  1  0
  6  5  1  0
  5 32  1  0
  6 33  1  0
  7  8  2  0
  7 34  1  0
  9  8  1  0
  8 11  1  0
 10  9  2  0
  9 35  1  0
 10 36  1  0
 11 12  1  0
 11 37  1  0
 11 38  1  0
 13 12  1  6
 12 39  1  0
 27 13  1  0
 13 14  1  0
 13 30  1  0
 15 14  1  0
 14 18  2  0
 15 16  2  0
 16 17  1  0
 17 18  1  0
 17 19  1  0
 18 40  1  0
 19 23  1  0
 19 20  1  0
 19 41  1  6
 20 21  2  0
 20 22  1  0
 22 42  1  0
 22 43  1  0
 22 44  1  0
 24 23  1  0
 23 45  1  0
 23 46  1  0
 25 24  1  0
 24 47  1  0
 24 48  1  0
 25 26  1  0
 25 49  1  0
 25 50  1  0
 26 51  1  0
 26 52  1  0
 26 53  1  0
 28 27  1  0
 27 29  1  0
 27 54  1  6
 28 55  1  0
 28 56  1  0
 28 57  1  0
 29 58  1  0
 29 59  1  0
 29 60  1  0
 30 61  1  0
 30 62  1  0
 30 63  1  0
M  END
