
     RDKit          3D

 61 65  0  0  0  0  0  0  0  0999 V2000
    4.9695    1.7644   -0.8494 N   0  0  0  0  0  0  0  0  0  0  0  0
   -5.2824    2.2316    1.4129 N   0  0  0  0  0  0  0  0  0  0  0  0
    8.9877   -2.7079    1.3939 C   0  0  0  0  0  0  0  0  0  0  0  0
    8.8347   -2.5762    0.0198 C   0  0  0  0  0  0  0  0  0  0  0  0
    8.2365   -1.4398   -0.5078 C   0  0  0  0  0  0  0  0  0  0  0  0
    2.9372    0.5375   -0.5752 C   0  0  0  0  0  0  0  0  0  0  0  0
    3.5726    1.7715   -0.9707 C   0  0  0  0  0  0  0  0  0  0  0  0
    3.7244   -0.4771   -0.1270 C   0  0  0  0  0  0  0  0  0  0  0  0
    0.7955   -0.1635    0.4460 C   0  0  0  0  0  0  0  0  0  0  0  0
    0.7385    0.8200   -1.7453 C   0  0  0  0  0  0  0  0  0  0  0  0
   -4.8134    0.2623    0.0680 C   0  0  0  0  0  0  0  0  0  0  0  0
   -7.5089   -0.4398    0.3625 C   0  0  0  0  0  0  0  0  0  0  0  0
   -7.0404    0.7061    0.9438 C   0  0  0  0  0  0  0  0  0  0  0  0
   -5.6836    1.0885    0.8124 C   0  0  0  0  0  0  0  0  0  0  0  0
   -3.0642    1.8375    0.5801 C   0  0  0  0  0  0  0  0  0  0  0  0
   -6.3774   -3.2438   -1.6711 C   0  0  0  0  0  0  0  0  0  0  0  0
   -9.7002   -0.1287    1.1817 C   0  0  0  0  0  0  0  0  0  0  0  0
   -8.7679   -0.8839    0.4311 O   0  0  0  0  0  0  0  0  0  0  0  0
   -6.6204   -1.2734   -0.3937 C   0  0  0  0  0  0  0  0  0  0  0  0
   -7.1909   -2.3677   -0.9151 O   0  0  0  0  0  0  0  0  0  0  0  0
   -5.3062   -0.9230   -0.5310 C   0  0  0  0  0  0  0  0  0  0  0  0
   -4.0256    2.5735    1.2891 C   0  0  0  0  0  0  0  0  0  0  0  0
   -3.4661    0.6759   -0.0305 C   0  0  0  0  0  0  0  0  0  0  0  0
   -1.3023    0.0861   -0.7160 C   0  0  0  0  0  0  0  0  0  0  0  0
   -0.5715   -0.3240    0.3877 C   0  0  0  0  0  0  0  0  0  0  0  0
   -1.2221   -0.8684    1.4213 F   0  0  0  0  0  0  0  0  0  0  0  0
   -0.6376    0.6603   -1.7855 C   0  0  0  0  0  0  0  0  0  0  0  0
    1.4721    0.4112   -0.6308 C   0  0  0  0  0  0  0  0  0  0  0  0
    2.9867    2.7639   -1.3714 O   0  0  0  0  0  0  0  0  0  0  0  0
    5.6917    2.9743   -1.2315 C   0  0  0  0  0  0  0  0  0  0  0  0
    5.0671   -0.4122   -0.0148 N   0  0  0  0  0  0  0  0  0  0  0  0
    5.6490    0.6904   -0.3693 C   0  0  0  0  0  0  0  0  0  0  0  0
    7.7856   -0.4236    0.3277 C   0  0  0  0  0  0  0  0  0  0  0  0
    7.9452   -0.5617    1.7024 C   0  0  0  0  0  0  0  0  0  0  0  0
    8.5422   -1.6961    2.2348 C   0  0  0  0  0  0  0  0  0  0  0  0
    9.4554   -3.5919    1.8072 H   0  0  0  0  0  0  0  0  0  0  0  0
    9.1835   -3.3581   -0.6424 H   0  0  0  0  0  0  0  0  0  0  0  0
    8.1218   -1.3411   -1.5811 H   0  0  0  0  0  0  0  0  0  0  0  0
    3.2791   -1.4235    0.1617 H   0  0  0  0  0  0  0  0  0  0  0  0
    1.3248   -0.4753    1.3377 H   0  0  0  0  0  0  0  0  0  0  0  0
    1.2371    1.2550   -2.5987 H   0  0  0  0  0  0  0  0  0  0  0  0
   -7.6845    1.3532    1.5236 H   0  0  0  0  0  0  0  0  0  0  0  0
   -2.0486    2.2038    0.5247 H   0  0  0  0  0  0  0  0  0  0  0  0
   -7.0201   -4.0564   -1.9994 H   0  0  0  0  0  0  0  0  0  0  0  0
   -5.9546   -2.7471   -2.5482 H   0  0  0  0  0  0  0  0  0  0  0  0
   -5.5621   -3.6556   -1.0708 H   0  0  0  0  0  0  0  0  0  0  0  0
    7.5670    1.0275   -1.2285 H   0  0  0  0  0  0  0  0  0  0  0  0
    7.3784    1.6749    0.3777 H   0  0  0  0  0  0  0  0  0  0  0  0
  -10.6455   -0.6616    1.1245 H   0  0  0  0  0  0  0  0  0  0  0  0
   -9.4011   -0.0463    2.2294 H   0  0  0  0  0  0  0  0  0  0  0  0
   -9.8325    0.8755    0.7711 H   0  0  0  0  0  0  0  0  0  0  0  0
   -4.6303   -1.5471   -1.0979 H   0  0  0  0  0  0  0  0  0  0  0  0
   -3.7196    3.4949    1.7728 H   0  0  0  0  0  0  0  0  0  0  0  0
   -1.2003    0.9767   -2.6542 H   0  0  0  0  0  0  0  0  0  0  0  0
    4.9962    3.6754   -1.6746 H   0  0  0  0  0  0  0  0  0  0  0  0
    6.1496    3.4385   -0.3603 H   0  0  0  0  0  0  0  0  0  0  0  0
    6.4617    2.7423   -1.9632 H   0  0  0  0  0  0  0  0  0  0  0  0
    7.6026    0.2262    2.3630 H   0  0  0  0  0  0  0  0  0  0  0  0
    8.6620   -1.7890    3.3067 H   0  0  0  0  0  0  0  0  0  0  0  0
    7.1430    0.8061   -0.2445 C   0  0  0  0  0  0  0  0  0  0  0  0
   -2.6532   -0.1219   -0.7606 O   0  0  0  0  0  0  0  0  0  0  0  0
  1  7  1  0
  1 30  1  0
  1 32  1  0
  2 14  2  0
  2 22  1  0
  3  4  2  0
  3 35  1  0
  4  5  1  0
  5 33  2  0
  6  7  1  0
  6  8  2  0
  6 28  1  0
  7 29  2  0
  8 31  1  0
  9 25  2  0
  9 28  1  0
 10 27  1  0
 10 28  2  0
 11 14  1  0
 11 21  1  0
 11 23  2  0
 12 13  2  0
 12 18  1  0
 12 19  1  0
 13 14  1  0
 15 22  2  0
 15 23  1  0
 16 20  1  0
 60 32  1  0
 60 33  1  0
 17 18  1  0
 19 20  1  0
 19 21  2  0
 23 61  1  0
 61 24  1  0
 24 25  1  0
 24 27  2  0
 25 26  1  0
 31 32  2  0
 33 34  1  0
 34 35  2  0
  3 36  1  0
  4 37  1  0
  5 38  1  0
  8 39  1  0
  9 40  1  0
 10 41  1  0
 13 42  1  0
 15 43  1  0
 16 44  1  0
 16 45  1  0
 16 46  1  0
 60 47  1  0
 60 48  1  0
 17 49  1  0
 17 50  1  0
 17 51  1  0
 21 52  1  0
 22 53  1  0
 27 54  1  0
 30 55  1  0
 30 56  1  0
 30 57  1  0
 34 58  1  0
 35 59  1  0
M  END
