
     RDKit          3D

 72 76  0  0  0  0  0  0  0  0999 V2000
   -0.7900   -4.6142    2.3862 C   0  0  0  0  0  0  0  0  0  0  0  0
   -1.7137   -3.5999    2.6620 C   0  0  0  0  0  0  0  0  0  0  0  0
   -1.5017   -2.3138    2.2165 C   0  0  0  0  0  0  0  0  0  0  0  0
   -0.3540   -2.0063    1.4745 C   0  0  0  0  0  0  0  0  0  0  0  0
    0.5729   -3.0233    1.2090 C   0  0  0  0  0  0  0  0  0  0  0  0
    0.3480   -4.3254    1.6658 C   0  0  0  0  0  0  0  0  0  0  0  0
    1.7775   -2.7036    0.4590 C   0  0  0  0  0  0  0  0  0  0  0  0
    2.6552   -3.4887    0.1641 O   0  0  0  0  0  0  0  0  0  0  0  0
    1.8732   -1.3660    0.0796 N   0  0  0  0  0  0  0  0  0  0  0  0
   -0.1692   -0.7180    1.0372 N   0  0  0  0  0  0  0  0  0  0  0  0
    0.8953   -0.4450    0.3824 C   0  0  0  0  0  0  0  0  0  0  0  0
    1.2299    1.1768   -0.1849 S   0  0  0  0  0  0  0  0  0  0  0  0
   -0.3237    2.0008    0.2440 C   0  0  2  0  0  0  0  0  0  0  0  0
   -1.4434    1.5126   -0.6809 C   0  0  0  0  0  0  0  0  0  0  0  0
   -0.1122    3.5118    0.0774 C   0  0  0  0  0  0  0  0  0  0  0  0
   -1.1695    1.0188   -1.7640 O   0  0  0  0  0  0  0  0  0  0  0  0
   -2.7091    1.7250   -0.2726 N   0  0  0  0  0  0  0  0  0  0  0  0
    0.9103    4.1092    1.0374 C   0  0  0  0  0  0  0  0  0  0  0  0
    0.9369    5.6315    0.9708 C   0  0  0  0  0  0  0  0  0  0  0  0
    1.9663    6.2410    1.9116 C   0  0  0  0  0  0  0  0  0  0  0  0
   -3.1253    2.2743    1.0077 C   0  0  0  0  0  0  0  0  0  0  0  0
   -3.9649    1.2644    1.7755 C   0  0  0  0  0  0  0  0  0  0  0  0
   -5.1297    0.7658    0.9272 C   0  0  0  0  0  0  0  0  0  0  0  0
   -4.6753    0.2394   -0.4391 C   0  0  2  0  0  0  0  0  0  0  0  0
   -3.8299    1.3305   -1.1103 C   0  0  0  0  0  0  0  0  0  0  0  0
   -5.9080   -0.0438   -1.2998 C   0  0  0  0  0  0  0  0  0  0  0  0
   -3.8820   -1.0641   -0.2808 C   0  0  0  0  0  0  0  0  0  0  0  0
   -3.6196   -1.7652   -1.6091 C   0  0  0  0  0  0  0  0  0  0  0  0
   -5.5351   -0.6253   -2.5760 N   0  0  0  0  0  0  0  0  0  0  0  0
   -4.9068   -1.9239   -2.4021 C   0  0  0  0  0  0  0  0  0  0  0  0
    3.0322   -0.9697   -0.6548 C   0  0  0  0  0  0  0  0  0  0  0  0
    3.0278   -1.0516   -2.0380 C   0  0  0  0  0  0  0  0  0  0  0  0
    4.1541   -0.6510   -2.7395 C   0  0  0  0  0  0  0  0  0  0  0  0
    5.2713   -0.1750   -2.0682 C   0  0  0  0  0  0  0  0  0  0  0  0
    5.2497   -0.1061   -0.6836 C   0  0  0  0  0  0  0  0  0  0  0  0
    4.1366   -0.5020    0.0398 C   0  0  0  0  0  0  0  0  0  0  0  0
    6.6368    0.4886    0.1622 Cl  0  0  0  0  0  0  0  0  0  0  0  0
   -0.9684   -5.6201    2.7410 H   0  0  0  0  0  0  0  0  0  0  0  0
   -2.6042   -3.8269    3.2335 H   0  0  0  0  0  0  0  0  0  0  0  0
   -2.2112   -1.5262    2.4333 H   0  0  0  0  0  0  0  0  0  0  0  0
    1.0724   -5.0998    1.4515 H   0  0  0  0  0  0  0  0  0  0  0  0
   -0.5307    1.7673    1.2876 H   0  0  0  0  0  0  0  0  0  0  0  0
    0.1610    3.7350   -0.9581 H   0  0  0  0  0  0  0  0  0  0  0  0
   -1.0763    3.9997    0.2465 H   0  0  0  0  0  0  0  0  0  0  0  0
    0.6758    3.7912    2.0588 H   0  0  0  0  0  0  0  0  0  0  0  0
    1.9099    3.7233    0.8173 H   0  0  0  0  0  0  0  0  0  0  0  0
    1.1476    5.9459   -0.0558 H   0  0  0  0  0  0  0  0  0  0  0  0
   -0.0567    6.0214    1.2114 H   0  0  0  0  0  0  0  0  0  0  0  0
    1.9619    7.3300    1.8543 H   0  0  0  0  0  0  0  0  0  0  0  0
    1.7675    5.9631    2.9482 H   0  0  0  0  0  0  0  0  0  0  0  0
    2.9743    5.9012    1.6675 H   0  0  0  0  0  0  0  0  0  0  0  0
   -2.2722    2.5896    1.6023 H   0  0  0  0  0  0  0  0  0  0  0  0
   -3.7177    3.1753    0.8152 H   0  0  0  0  0  0  0  0  0  0  0  0
   -3.3296    0.4305    2.0859 H   0  0  0  0  0  0  0  0  0  0  0  0
   -4.3342    1.7345    2.6892 H   0  0  0  0  0  0  0  0  0  0  0  0
   -5.6804   -0.0130    1.4624 H   0  0  0  0  0  0  0  0  0  0  0  0
   -5.8344    1.5914    0.7709 H   0  0  0  0  0  0  0  0  0  0  0  0
   -4.4578    2.2144   -1.2775 H   0  0  0  0  0  0  0  0  0  0  0  0
   -3.4627    1.0093   -2.0794 H   0  0  0  0  0  0  0  0  0  0  0  0
   -6.5807   -0.7035   -0.7226 H   0  0  0  0  0  0  0  0  0  0  0  0
   -6.4541    0.8871   -1.4807 H   0  0  0  0  0  0  0  0  0  0  0  0
   -2.9347   -0.8834    0.2297 H   0  0  0  0  0  0  0  0  0  0  0  0
   -4.4573   -1.7362    0.3678 H   0  0  0  0  0  0  0  0  0  0  0  0
   -2.8917   -1.2004   -2.1968 H   0  0  0  0  0  0  0  0  0  0  0  0
   -3.1780   -2.7476   -1.4246 H   0  0  0  0  0  0  0  0  0  0  0  0
   -6.3606   -0.7214   -3.1520 H   0  0  0  0  0  0  0  0  0  0  0  0
   -4.6997   -2.3526   -3.3852 H   0  0  0  0  0  0  0  0  0  0  0  0
   -5.5646   -2.6353   -1.8727 H   0  0  0  0  0  0  0  0  0  0  0  0
    2.1524   -1.4191   -2.5564 H   0  0  0  0  0  0  0  0  0  0  0  0
    4.1655   -0.7065   -3.8193 H   0  0  0  0  0  0  0  0  0  0  0  0
    6.1474    0.1399   -2.6183 H   0  0  0  0  0  0  0  0  0  0  0  0
    4.1218   -0.4453    1.1200 H   0  0  0  0  0  0  0  0  0  0  0  0
  6  1  2  0
  1  2  1  0
  1 38  1  0
  2  3  2  0
  2 39  1  0
  4  3  1  0
  3 40  1  0
  5  4  2  0
  4 10  1  0
  7  5  1  0
  6  5  1  0
  6 41  1  0
  8  7  2  0
  7  9  1  0
 31  9  1  0
  9 11  1  0
 11 10  2  0
 11 12  1  0
 12 13  1  0
 15 13  1  0
 13 14  1  0
 13 42  1  1
 14 16  2  0
 14 17  1  0
 15 18  1  0
 15 43  1  0
 15 44  1  0
 21 17  1  0
 17 25  1  0
 19 18  1  0
 18 45  1  0
 18 46  1  0
 19 20  1  0
 19 47  1  0
 19 48  1  0
 20 49  1  0
 20 50  1  0
 20 51  1  0
 21 22  1  0
 21 52  1  0
 21 53  1  0
 22 23  1  0
 22 54  1  0
 22 55  1  0
 24 23  1  1
 23 56  1  0
 23 57  1  0
 25 24  1  0
 24 26  1  0
 24 27  1  0
 25 58  1  0
 25 59  1  0
 26 29  1  0
 26 60  1  0
 26 61  1  0
 27 28  1  0
 27 62  1  0
 27 63  1  0
 28 30  1  0
 28 64  1  0
 28 65  1  0
 29 30  1  0
 29 66  1  0
 30 67  1  0
 30 68  1  0
 32 31  2  0
 36 31  1  0
 33 32  1  0
 32 69  1  0
 34 33  2  0
 33 70  1  0
 34 35  1  0
 34 71  1  0
 35 37  1  0
 35 36  2  0
 36 72  1  0
M  END
