
     RDKit          3D

 22 22  0  0  0  0  0  0  0  0999 V2000
   -2.4143    2.8792    0.0858 O   0  0  0  0  0  0  0  0  0  0  0  0
   -1.8396    1.8084    0.1456 C   0  0  0  0  0  0  0  0  0  0  0  0
   -0.5314    1.6047   -0.4962 C   0  0  0  0  0  0  0  0  0  0  0  0
   -2.4049    0.6665    0.8806 C   0  0  0  0  0  0  0  0  0  0  0  0
   -1.8016   -0.5173    0.8922 C   0  0  0  0  0  0  0  0  0  0  0  0
   -0.5264   -0.7930    0.1432 C   0  0  2  0  0  0  0  0  0  0  0  0
   -0.8162   -1.6030   -0.9905 O   0  0  0  0  0  0  0  0  0  0  0  0
   -1.3409   -2.8355   -0.5567 O   0  0  0  0  0  0  0  0  0  0  0  0
    0.4358   -1.3603    0.9560 O   0  0  0  0  0  0  0  0  0  0  0  0
    0.0974    0.4315   -0.4888 C   0  0  0  0  0  0  0  0  0  0  0  0
    1.4592    0.2463   -1.0806 C   0  0  0  0  0  0  0  0  0  0  0  0
    2.5365    0.3379   -0.0217 C   0  0  0  0  0  0  0  0  0  0  0  0
    2.4974    1.0889    0.9178 O   0  0  0  0  0  0  0  0  0  0  0  0
    3.5592   -0.4619   -0.2856 O   0  0  0  0  0  0  0  0  0  0  0  0
   -0.0782    2.4688   -0.9680 H   0  0  0  0  0  0  0  0  0  0  0  0
   -3.3337    0.8256    1.4137 H   0  0  0  0  0  0  0  0  0  0  0  0
   -2.2398   -1.3444    1.4401 H   0  0  0  0  0  0  0  0  0  0  0  0
    0.0389   -1.9749    1.5854 H   0  0  0  0  0  0  0  0  0  0  0  0
    1.5390   -0.6909   -1.6310 H   0  0  0  0  0  0  0  0  0  0  0  0
    1.6554    1.0507   -1.7956 H   0  0  0  0  0  0  0  0  0  0  0  0
    4.2587   -0.3343    0.3737 H   0  0  0  0  0  0  0  0  0  0  0  0
   -0.5810   -3.4290   -0.6489 H   0  0  0  0  0  0  0  0  0  0  0  0
  1  2  2  0
  2  3  1  0
  2  4  1  0
  3 10  2  0
  4  5  2  0
  5  6  1  0
  6  7  1  6
  6  9  1  0
  6 10  1  0
  7  8  1  0
 10 11  1  0
 11 12  1  0
 12 13  2  0
 12 14  1  0
  3 15  1  0
  4 16  1  0
  5 17  1  0
  9 18  1  0
 11 19  1  0
 11 20  1  0
 14 21  1  0
  8 22  1  0
M  END
