
     RDKit          3D

 21 21  0  0  0  0  0  0  0  0999 V2000
   -0.9364   -0.0207    0.3395 C   0  0  1  0  0  0  0  0  0  0  0  0
   -0.2649   -1.2829   -0.1757 C   0  0  0  0  0  0  0  0  0  0  0  0
    1.2131   -1.2816    0.2055 C   0  0  0  0  0  0  0  0  0  0  0  0
    1.9134   -0.0231   -0.2942 C   0  0  0  0  0  0  0  0  0  0  0  0
    1.2173    1.2342    0.2146 C   0  0  0  0  0  0  0  0  0  0  0  0
   -0.2608    1.2430   -0.1665 C   0  0  0  0  0  0  0  0  0  0  0  0
   -2.3748   -0.0168   -0.0636 N   0  0  0  0  0  0  0  0  0  0  0  0
   -0.9425   -0.0244    1.4311 H   0  0  0  0  0  0  0  0  0  0  0  0
   -0.7623   -2.1661    0.2324 H   0  0  0  0  0  0  0  0  0  0  0  0
   -0.3645   -1.3308   -1.2655 H   0  0  0  0  0  0  0  0  0  0  0  0
    1.3077   -1.3501    1.2940 H   0  0  0  0  0  0  0  0  0  0  0  0
    1.6903   -2.1739   -0.2031 H   0  0  0  0  0  0  0  0  0  0  0  0
    2.9600   -0.0261    0.0164 H   0  0  0  0  0  0  0  0  0  0  0  0
    1.9102   -0.0190   -1.3890 H   0  0  0  0  0  0  0  0  0  0  0  0
    1.3119    1.2946    1.3036 H   0  0  0  0  0  0  0  0  0  0  0  0
    1.6974    2.1278   -0.1875 H   0  0  0  0  0  0  0  0  0  0  0  0
   -0.3600    1.2994   -1.2560 H   0  0  0  0  0  0  0  0  0  0  0  0
   -0.7551    2.1250    0.2483 H   0  0  0  0  0  0  0  0  0  0  0  0
   -2.8711   -0.8348    0.2904 H   0  0  0  0  0  0  0  0  0  0  0  0
   -2.4866   -0.0162   -1.0779 H   0  0  0  0  0  0  0  0  0  0  0  0
   -2.8668    0.8036    0.2912 H   0  0  0  0  0  0  0  0  0  0  0  0
  1  2  1  0
  1  6  1  0
  1  7  1  0
  1  8  1  1
  2  3  1  0
  2  9  1  0
  2 10  1  0
  3  4  1  0
  3 11  1  0
  3 12  1  0
  4  5  1  0
  4 13  1  0
  4 14  1  0
  5  6  1  0
  5 15  1  0
  5 16  1  0
  6 17  1  0
  6 18  1  0
  7 19  1  0
  7 20  1  0
  7 21  1  0
M  CHG  1   7   1
M  END
