
     RDKit          3D

 33 35  0  0  0  0  0  0  0  0999 V2000
    1.7552   -1.1513   -0.1333 O   0  0  0  0  0  0  0  0  0  0  0  0
    1.8753    0.0438    0.0576 C   0  0  0  0  0  0  0  0  0  0  0  0
    3.0776    0.6728    0.2254 N   0  0  0  0  0  0  0  0  0  0  0  0
    4.3413    0.0734    0.1573 C   0  0  0  0  0  0  0  0  0  0  0  0
    5.4000    0.8533   -0.3106 C   0  0  0  0  0  0  0  0  0  0  0  0
    6.6860    0.3395   -0.3582 C   0  0  0  0  0  0  0  0  0  0  0  0
    6.9362   -0.9644    0.0481 C   0  0  0  0  0  0  0  0  0  0  0  0
    5.8836   -1.7387    0.5159 C   0  0  0  0  0  0  0  0  0  0  0  0
    4.5931   -1.2315    0.5820 C   0  0  0  0  0  0  0  0  0  0  0  0
    0.8179    0.9170    0.1371 N   0  0  0  0  0  0  0  0  0  0  0  0
   -0.5363    0.6433    0.0238 C   0  0  0  0  0  0  0  0  0  0  0  0
   -1.4118    1.7071    0.2804 C   0  0  0  0  0  0  0  0  0  0  0  0
   -2.7762    1.5434    0.1927 C   0  0  0  0  0  0  0  0  0  0  0  0
   -3.3211    0.3068   -0.1560 C   0  0  0  0  0  0  0  0  0  0  0  0
   -2.4511   -0.7476   -0.4178 C   0  0  0  0  0  0  0  0  0  0  0  0
   -1.0782   -0.5952   -0.3331 C   0  0  0  0  0  0  0  0  0  0  0  0
   -4.7631    0.1567   -0.2379 C   0  0  0  0  0  0  0  0  0  0  0  0
   -5.4413   -0.9782   -0.4371 N   0  0  0  0  0  0  0  0  0  0  0  0
   -6.7375   -0.7154   -0.4468 N   0  0  0  0  0  0  0  0  0  0  0  0
   -6.8498    0.5389   -0.2590 N   0  0  0  0  0  0  0  0  0  0  0  0
   -5.6583    1.1155   -0.1256 N   0  0  0  0  0  0  0  0  0  0  0  0
    3.0855    1.6816    0.2106 H   0  0  0  0  0  0  0  0  0  0  0  0
    5.2136    1.8683   -0.6414 H   0  0  0  0  0  0  0  0  0  0  0  0
    7.4932    0.9622   -0.7219 H   0  0  0  0  0  0  0  0  0  0  0  0
    7.9388   -1.3688    0.0074 H   0  0  0  0  0  0  0  0  0  0  0  0
    6.0658   -2.7526    0.8483 H   0  0  0  0  0  0  0  0  0  0  0  0
    3.8008   -1.8502    0.9734 H   0  0  0  0  0  0  0  0  0  0  0  0
    1.0314    1.8779    0.3583 H   0  0  0  0  0  0  0  0  0  0  0  0
   -1.0130    2.6744    0.5608 H   0  0  0  0  0  0  0  0  0  0  0  0
   -3.4240    2.3836    0.4036 H   0  0  0  0  0  0  0  0  0  0  0  0
   -2.8271   -1.7210   -0.7064 H   0  0  0  0  0  0  0  0  0  0  0  0
   -0.4462   -1.4399   -0.5481 H   0  0  0  0  0  0  0  0  0  0  0  0
   -5.1148   -1.9262   -0.5582 H   0  0  0  0  0  0  0  0  0  0  0  0
  8  7  2  0
  8  9  1  0
  7  6  1  0
  9  4  2  0
  6  5  2  0
  1  2  2  0
  4  5  1  0
  4  3  1  0
  2  3  1  0
  2 10  1  0
 16 15  2  0
 16 11  1  0
 15 14  1  0
 10 11  1  0
 11 12  2  0
 21 20  1  0
 21 17  2  0
 14 17  1  0
 14 13  2  0
 20 19  2  0
 17 18  1  0
 12 13  1  0
 19 18  1  0
  3 22  1  0
  5 23  1  0
  6 24  1  0
  7 25  1  0
  8 26  1  0
  9 27  1  0
 10 28  1  0
 12 29  1  0
 13 30  1  0
 15 31  1  0
 16 32  1  0
 18 33  1  0
M  END
