
     RDKit          3D

 45 47  0  0  0  0  0  0  0  0999 V2000
    4.5329   -2.1613    1.2197 F   0  0  0  0  0  0  0  0  0  0  0  0
    4.9081   -0.9469    0.7893 C   0  0  0  0  0  0  0  0  0  0  0  0
    6.2501   -0.7543    0.5124 C   0  0  0  0  0  0  0  0  0  0  0  0
    6.6530    0.4873    0.0722 C   0  0  0  0  0  0  0  0  0  0  0  0
    7.9385    0.7157   -0.2038 F   0  0  0  0  0  0  0  0  0  0  0  0
    5.7304    1.5077   -0.0824 C   0  0  0  0  0  0  0  0  0  0  0  0
    6.1460    2.7068   -0.5045 F   0  0  0  0  0  0  0  0  0  0  0  0
    4.4013    1.2905    0.2037 C   0  0  0  0  0  0  0  0  0  0  0  0
    3.9533    0.0486    0.6527 C   0  0  0  0  0  0  0  0  0  0  0  0
    2.4952   -0.1737    0.9261 C   0  0  0  0  0  0  0  0  0  0  0  0
    1.6935   -0.4635   -0.3579 C   0  0  1  0  0  0  0  0  0  0  0  0
    2.1355   -1.6277   -1.1040 N   0  0  0  0  0  0  0  0  0  0  0  0
    0.2145   -0.5979   -0.0089 C   0  0  0  0  0  0  0  0  0  0  0  0
   -0.6445   -0.8092   -1.2474 C   0  0  0  0  0  0  0  0  0  0  0  0
   -2.0595   -0.8128   -0.9234 N   0  0  0  0  0  0  0  0  0  0  0  0
   -2.8782    0.2397   -0.7829 C   0  0  0  0  0  0  0  0  0  0  0  0
   -2.6874   -1.9396   -0.6425 N   0  0  0  0  0  0  0  0  0  0  0  0
   -3.9022   -1.6512   -0.3302 N   0  0  0  0  0  0  0  0  0  0  0  0
   -4.0797   -0.3116   -0.3992 C   0  0  0  0  0  0  0  0  0  0  0  0
   -5.3542    0.3390   -0.1029 C   0  0  0  0  0  0  0  0  0  0  0  0
   -6.4746   -0.4227    0.2336 C   0  0  0  0  0  0  0  0  0  0  0  0
   -7.6977    0.1711    0.5231 C   0  0  0  0  0  0  0  0  0  0  0  0
   -8.8848   -0.6632    0.9080 C   0  0  0  0  0  0  0  0  0  0  0  0
   -7.7946    1.5609    0.4679 C   0  0  0  0  0  0  0  0  0  0  0  0
   -6.6894    2.3298    0.1342 C   0  0  0  0  0  0  0  0  0  0  0  0
   -5.4734    1.7271   -0.1493 C   0  0  0  0  0  0  0  0  0  0  0  0
    6.9678   -1.5546    0.6366 H   0  0  0  0  0  0  0  0  0  0  0  0
    3.6969    2.1043    0.0823 H   0  0  0  0  0  0  0  0  0  0  0  0
    2.3517   -0.9953    1.6312 H   0  0  0  0  0  0  0  0  0  0  0  0
    2.0882    0.7202    1.4048 H   0  0  0  0  0  0  0  0  0  0  0  0
    1.8042    0.4011   -1.0223 H   0  0  0  0  0  0  0  0  0  0  0  0
    3.0677   -1.4844   -1.4712 H   0  0  0  0  0  0  0  0  0  0  0  0
    2.1850   -2.4380   -0.4972 H   0  0  0  0  0  0  0  0  0  0  0  0
    0.0698   -1.4325    0.6846 H   0  0  0  0  0  0  0  0  0  0  0  0
   -0.1122    0.3073    0.5085 H   0  0  0  0  0  0  0  0  0  0  0  0
   -0.4759   -0.0176   -1.9775 H   0  0  0  0  0  0  0  0  0  0  0  0
   -0.4157   -1.7574   -1.7261 H   0  0  0  0  0  0  0  0  0  0  0  0
   -2.5565    1.2507   -0.9662 H   0  0  0  0  0  0  0  0  0  0  0  0
   -6.3901   -1.5022    0.2691 H   0  0  0  0  0  0  0  0  0  0  0  0
   -9.0569   -0.6229    1.9854 H   0  0  0  0  0  0  0  0  0  0  0  0
   -9.7953   -0.3085    0.4249 H   0  0  0  0  0  0  0  0  0  0  0  0
   -8.7440   -1.7091    0.6382 H   0  0  0  0  0  0  0  0  0  0  0  0
   -8.7398    2.0434    0.6874 H   0  0  0  0  0  0  0  0  0  0  0  0
   -6.7749    3.4080    0.0938 H   0  0  0  0  0  0  0  0  0  0  0  0
   -4.6213    2.3444   -0.4052 H   0  0  0  0  0  0  0  0  0  0  0  0
 24 25  2  0
 24 22  1  0
 25 26  1  0
 23 22  1  0
 22 21  2  0
 26 20  2  0
 21 20  1  0
 20 19  1  0
 18 19  1  0
 18 17  2  0
 19 16  2  0
 17 15  1  0
 16 15  1  0
 15 14  1  0
 14 13  1  0
 13 11  1  0
 11 10  1  0
 11 12  1  0
 10  9  1  0
  8  9  1  0
  8  6  2  0
  7  6  1  0
  9  2  2  0
  6  4  1  0
  2  1  1  0
  2  3  1  0
  4  3  2  0
  4  5  1  0
  3 27  1  0
  8 28  1  0
 10 29  1  0
 10 30  1  0
 11 31  1  6
 12 32  1  0
 12 33  1  0
 13 34  1  0
 13 35  1  0
 14 36  1  0
 14 37  1  0
 16 38  1  0
 21 39  1  0
 23 40  1  0
 23 41  1  0
 23 42  1  0
 24 43  1  0
 25 44  1  0
 26 45  1  0
M  END
