
     RDKit          3D

 53 55  0  0  0  0  0  0  0  0999 V2000
   -4.1860    3.3283    0.0282 C   0  0  0  0  0  0  0  0  0  0  0  0
    3.9945    0.4178   -0.1538 C   0  0  0  0  0  0  0  0  0  0  0  0
    2.9027    1.4795   -0.2324 C   0  0  1  0  0  0  0  0  0  0  0  0
    3.1449    2.5057    0.8789 C   0  0  0  0  0  0  0  0  0  0  0  0
    2.9429    2.1242   -1.6216 C   0  0  0  0  0  0  0  0  0  0  0  0
   -0.7099    0.0599    0.2371 C   0  0  0  0  0  0  0  0  0  0  0  0
   -2.0460    0.3978    0.2815 C   0  0  0  0  0  0  0  0  0  0  0  0
   -2.7882   -1.8500    0.6468 C   0  0  1  0  0  0  0  0  0  0  0  0
   -4.0944   -2.4957    1.0803 C   0  0  0  0  0  0  0  0  0  0  0  0
   -4.8949   -2.5993   -0.2154 C   0  0  0  0  0  0  0  0  0  0  0  0
   -3.8421   -2.9675   -1.2746 C   0  0  0  0  0  0  0  0  0  0  0  0
   -2.4268    1.7513    0.1131 C   0  0  0  0  0  0  0  0  0  0  0  0
   -2.4796   -2.5197   -0.6973 C   0  0  0  0  0  0  0  0  0  0  0  0
   -1.4485    2.7099   -0.0797 C   0  0  0  0  0  0  0  0  0  0  0  0
   -0.1021    2.3541   -0.1177 C   0  0  0  0  0  0  0  0  0  0  0  0
    0.2852    1.0333    0.0374 C   0  0  0  0  0  0  0  0  0  0  0  0
    1.6856    0.6173   -0.0013 C   0  0  0  0  0  0  0  0  0  0  0  0
    3.6770   -2.5759    1.6749 C   0  0  0  0  0  0  0  0  0  0  0  0
    3.4639   -3.0275   -0.8051 C   0  0  0  0  0  0  0  0  0  0  0  0
    1.9998   -0.6136    0.1688 N   0  0  0  0  0  0  0  0  0  0  0  0
    3.3559   -0.7495    0.0807 N   0  0  0  0  0  0  0  0  0  0  0  0
   -3.7453    1.9911    0.1599 O   0  0  0  0  0  0  0  0  0  0  0  0
    5.1939    0.5834   -0.2736 O   0  0  0  0  0  0  0  0  0  0  0  0
   -3.0598   -0.4569    0.4901 O   0  0  0  0  0  0  0  0  0  0  0  0
   -5.2709    3.3035    0.0916 H   0  0  0  0  0  0  0  0  0  0  0  0
   -3.7996    3.9635    0.8294 H   0  0  0  0  0  0  0  0  0  0  0  0
   -3.8978    3.7599   -0.9339 H   0  0  0  0  0  0  0  0  0  0  0  0
    4.1241    2.9648    0.7431 H   0  0  0  0  0  0  0  0  0  0  0  0
    2.3996    3.2991    0.8622 H   0  0  0  0  0  0  0  0  0  0  0  0
    3.1207    2.0426    1.8658 H   0  0  0  0  0  0  0  0  0  0  0  0
    2.7695    1.3906   -2.4095 H   0  0  0  0  0  0  0  0  0  0  0  0
    2.1961    2.9103   -1.7225 H   0  0  0  0  0  0  0  0  0  0  0  0
    3.9222    2.5745   -1.7856 H   0  0  0  0  0  0  0  0  0  0  0  0
   -0.3991   -0.9686    0.3548 H   0  0  0  0  0  0  0  0  0  0  0  0
   -1.9940   -1.9882    1.3875 H   0  0  0  0  0  0  0  0  0  0  0  0
   -3.8686   -3.4926    1.4682 H   0  0  0  0  0  0  0  0  0  0  0  0
   -4.5954   -1.9418    1.8761 H   0  0  0  0  0  0  0  0  0  0  0  0
   -5.6996   -3.3321   -0.1529 H   0  0  0  0  0  0  0  0  0  0  0  0
   -5.3548   -1.6366   -0.4471 H   0  0  0  0  0  0  0  0  0  0  0  0
   -3.8389   -4.0439   -1.4514 H   0  0  0  0  0  0  0  0  0  0  0  0
   -4.0543   -2.4950   -2.2337 H   0  0  0  0  0  0  0  0  0  0  0  0
   -1.9366   -1.8567   -1.3723 H   0  0  0  0  0  0  0  0  0  0  0  0
   -1.8291   -3.3782   -0.5223 H   0  0  0  0  0  0  0  0  0  0  0  0
   -1.7097    3.7515   -0.2055 H   0  0  0  0  0  0  0  0  0  0  0  0
    0.6250    3.1382   -0.2651 H   0  0  0  0  0  0  0  0  0  0  0  0
    5.0220   -1.9081    0.1467 H   0  0  0  0  0  0  0  0  0  0  0  0
    4.1951   -3.5212    1.8351 H   0  0  0  0  0  0  0  0  0  0  0  0
    4.0293   -1.8683    2.4257 H   0  0  0  0  0  0  0  0  0  0  0  0
    2.6113   -2.7453    1.8334 H   0  0  0  0  0  0  0  0  0  0  0  0
    2.3854   -3.1763   -0.7412 H   0  0  0  0  0  0  0  0  0  0  0  0
    3.7035   -2.6611   -1.8035 H   0  0  0  0  0  0  0  0  0  0  0  0
    3.9451   -3.9973   -0.6786 H   0  0  0  0  0  0  0  0  0  0  0  0
    3.9488   -2.0620    0.2674 C   0  0  1  0  0  0  0  0  0  0  0  0
 23  2  2  0
  3  5  1  6
  2 21  1  0
  2  3  1  0
 53 18  1  0
 53 21  1  0
 53 19  1  0
 21 20  1  0
  3 17  1  0
  3  4  1  0
 11 10  1  0
 11 13  1  0
 20 17  2  0
 17 16  1  0
 10  9  1  0
 13  8  1  0
  8  9  1  0
  8 24  1  0
 16  6  2  0
 16 15  1  0
  6  7  1  0
 24  7  1  0
 15 14  2  0
  7 12  2  0
 14 12  1  0
 12 22  1  0
 22  1  1  0
  1 25  1  0
  1 26  1  0
  1 27  1  0
  4 28  1  0
  4 29  1  0
  4 30  1  0
  5 31  1  0
  5 32  1  0
  5 33  1  0
  6 34  1  0
  8 35  1  1
  9 36  1  0
  9 37  1  0
 10 38  1  0
 10 39  1  0
 11 40  1  0
 11 41  1  0
 13 42  1  0
 13 43  1  0
 14 44  1  0
 15 45  1  0
 53 46  1  1
 18 47  1  0
 18 48  1  0
 18 49  1  0
 19 50  1  0
 19 51  1  0
 19 52  1  0
M  END
