
     RDKit          3D

 47 49  0  0  0  0  0  0  0  0999 V2000
    1.6024   -0.0484   -3.7818 C   0  0  0  0  0  0  0  0  0  0  0  0
    0.9778    0.0790   -2.3898 C   0  0  1  0  0  0  0  0  0  0  0  0
    1.9281   -0.5777   -1.3856 C   0  0  0  0  0  0  0  0  0  0  0  0
    1.3830   -0.6003   -0.0484 N   0  0  0  0  0  0  0  0  0  0  0  0
    1.9149    0.0512    0.9966 C   0  0  0  0  0  0  0  0  0  0  0  0
    2.9650    0.6753    0.9536 O   0  0  0  0  0  0  0  0  0  0  0  0
    1.1332   -0.0307    2.2731 C   0  0  0  0  0  0  0  0  0  0  0  0
    1.8332   -0.0134    3.4750 C   0  0  0  0  0  0  0  0  0  0  0  0
    1.1576   -0.0646    4.6832 C   0  0  0  0  0  0  0  0  0  0  0  0
   -0.2294   -0.0984    4.6781 C   0  0  0  0  0  0  0  0  0  0  0  0
   -0.9466   -0.0956    3.4908 C   0  0  0  0  0  0  0  0  0  0  0  0
   -0.2593   -0.0692    2.2891 C   0  0  0  0  0  0  0  0  0  0  0  0
   -1.1145   -0.1498    6.2140 S   0  0  1  0  0  0  0  0  0  0  0  0
   -2.3519   -0.8922    6.0275 O   0  0  0  0  0  0  0  0  0  0  0  0
   -0.1828   -0.5909    7.2419 O   0  0  0  0  0  0  0  0  0  0  0  0
   -1.5525    1.4320    6.3813 N   0  0  0  0  0  0  0  0  0  0  0  0
    0.7653    0.4670   -4.8392 N   0  0  0  0  0  0  0  0  0  0  0  0
    0.8983    1.6907   -5.4385 C   0  0  0  0  0  0  0  0  0  0  0  0
   -0.1017    1.8872   -6.3450 C   0  0  0  0  0  0  0  0  0  0  0  0
   -0.3438   -0.1505   -5.3509 C   0  0  0  0  0  0  0  0  0  0  0  0
   -0.8879   -1.4031   -5.0657 C   0  0  0  0  0  0  0  0  0  0  0  0
   -2.0235   -1.7791   -5.7576 C   0  0  0  0  0  0  0  0  0  0  0  0
   -2.6109   -0.9321   -6.7120 C   0  0  0  0  0  0  0  0  0  0  0  0
   -2.0688    0.3064   -6.9939 C   0  0  0  0  0  0  0  0  0  0  0  0
   -0.9179    0.7152   -6.3099 C   0  0  0  0  0  0  0  0  0  0  0  0
    0.6754    1.5261   -2.0325 C   0  0  0  0  0  0  0  0  0  0  0  0
    2.5489    0.4946   -3.8152 H   0  0  0  0  0  0  0  0  0  0  0  0
    1.8326   -1.0947   -3.9972 H   0  0  0  0  0  0  0  0  0  0  0  0
    0.0414   -0.4905   -2.3826 H   0  0  0  0  0  0  0  0  0  0  0  0
    2.1447   -1.6030   -1.6970 H   0  0  0  0  0  0  0  0  0  0  0  0
    2.8770   -0.0430   -1.3563 H   0  0  0  0  0  0  0  0  0  0  0  0
    0.5685   -1.1742    0.1004 H   0  0  0  0  0  0  0  0  0  0  0  0
    2.9138    0.0253    3.4735 H   0  0  0  0  0  0  0  0  0  0  0  0
    1.7155   -0.0756    5.6092 H   0  0  0  0  0  0  0  0  0  0  0  0
   -2.0279   -0.1118    3.4889 H   0  0  0  0  0  0  0  0  0  0  0  0
   -0.8296   -0.0548    1.3693 H   0  0  0  0  0  0  0  0  0  0  0  0
   -2.3546    1.5353    6.9960 H   0  0  0  0  0  0  0  0  0  0  0  0
   -0.7880    2.0212    6.6951 H   0  0  0  0  0  0  0  0  0  0  0  0
    1.7178    2.3385   -5.1683 H   0  0  0  0  0  0  0  0  0  0  0  0
   -0.2350    2.7589   -6.9657 H   0  0  0  0  0  0  0  0  0  0  0  0
   -0.4442   -2.0652   -4.3327 H   0  0  0  0  0  0  0  0  0  0  0  0
   -2.4683   -2.7457   -5.5593 H   0  0  0  0  0  0  0  0  0  0  0  0
   -3.5021   -1.2593   -7.2320 H   0  0  0  0  0  0  0  0  0  0  0  0
   -2.5272    0.9517   -7.7332 H   0  0  0  0  0  0  0  0  0  0  0  0
    1.5780    2.1402   -2.0751 H   0  0  0  0  0  0  0  0  0  0  0  0
   -0.0588    1.9593   -2.7121 H   0  0  0  0  0  0  0  0  0  0  0  0
    0.2641    1.6053   -1.0261 H   0  0  0  0  0  0  0  0  0  0  0  0
  1  2  1  0
  1 17  1  0
  1 27  1  0
  1 28  1  0
  2  3  1  0
  2 26  1  0
  2 29  1  6
  3  4  1  0
  3 30  1  0
  3 31  1  0
  4  5  1  0
  4 32  1  0
  5  6  2  0
  5  7  1  0
  7  8  2  0
  7 12  1  0
  8  9  1  0
  8 33  1  0
  9 10  2  0
  9 34  1  0
 10 11  1  0
 10 13  1  0
 11 12  2  0
 11 35  1  0
 12 36  1  0
 13 14  2  0
 13 15  2  0
 13 16  1  1
 16 37  1  0
 16 38  1  0
 17 18  1  0
 17 20  1  0
 18 19  2  0
 18 39  1  0
 19 25  1  0
 19 40  1  0
 20 21  2  0
 20 25  1  0
 21 22  1  0
 21 41  1  0
 22 23  2  0
 22 42  1  0
 23 24  1  0
 23 43  1  0
 24 25  2  0
 24 44  1  0
 26 45  1  0
 26 46  1  0
 26 47  1  0
M  END
