
     RDKit          3D

 53 56  0  0  0  0  0  0  0  0999 V2000
   -6.8539    1.5704   -0.3497 N   0  0  0  0  0  0  0  0  0  0  0  0
   -6.1302    0.6770   -0.2744 C   0  0  0  0  0  0  0  0  0  0  0  0
   -5.2421   -0.4229   -0.1859 C   0  0  0  0  0  0  0  0  0  0  0  0
   -5.5732   -1.7583   -0.1229 C   0  0  0  0  0  0  0  0  0  0  0  0
   -4.3941   -2.4009   -0.0509 N   0  0  0  0  0  0  0  0  0  0  0  0
   -3.4099   -1.4732   -0.0709 C   0  0  0  0  0  0  0  0  0  0  0  0
   -3.8918   -0.2626   -0.1520 N   0  0  0  0  0  0  0  0  0  0  0  0
   -1.9754   -1.8391   -0.0087 C   0  0  0  0  0  0  0  0  0  0  0  0
   -1.6360   -3.0070    0.0744 O   0  0  0  0  0  0  0  0  0  0  0  0
   -1.1820   -0.7554   -0.0575 N   0  0  0  0  0  0  0  0  0  0  0  0
    0.2117   -0.6522   -0.0233 C   0  0  0  0  0  0  0  0  0  0  0  0
    1.0649   -1.7531    0.0605 C   0  0  0  0  0  0  0  0  0  0  0  0
    2.4365   -1.5659    0.1040 C   0  0  0  0  0  0  0  0  0  0  0  0
    3.0049   -0.2951    0.0763 C   0  0  0  0  0  0  0  0  0  0  0  0
    2.1392    0.7895    0.0011 C   0  0  0  0  0  0  0  0  0  0  0  0
    0.7580    0.6409   -0.0629 C   0  0  0  0  0  0  0  0  0  0  0  0
   -0.1139    1.8415   -0.1376 C   0  0  0  0  0  0  0  0  0  0  0  0
   -0.8118    2.1199   -1.2425 C   0  0  0  0  0  0  0  0  0  0  0  0
   -1.7789    3.2580   -1.3546 C   0  0  0  0  0  0  0  0  0  0  0  0
   -2.1541    3.8171    0.0118 C   0  0  0  0  0  0  0  0  0  0  0  0
   -0.9054    4.0203    0.8594 C   0  0  0  0  0  0  0  0  0  0  0  0
   -0.1884    2.6969    1.1002 C   0  0  0  0  0  0  0  0  0  0  0  0
    4.4971   -0.0948    0.1068 C   0  0  2  0  0  0  0  0  0  0  0  0
    5.1797   -0.6690   -1.1393 C   0  0  0  0  0  0  0  0  0  0  0  0
    6.6914   -0.4629   -1.0712 C   0  0  0  0  0  0  0  0  0  0  0  0
    7.3050   -0.9849    0.1395 N   0  0  0  0  0  0  0  0  0  0  0  0
    6.6604   -0.4681    1.3363 C   0  0  0  0  0  0  0  0  0  0  0  0
    5.1473   -0.6766    1.3657 C   0  0  0  0  0  0  0  0  0  0  0  0
   -4.2676   -3.4023    0.0034 H   0  0  0  0  0  0  0  0  0  0  0  0
   -6.5239   -2.2633   -0.1252 H   0  0  0  0  0  0  0  0  0  0  0  0
   -1.6706    0.1293   -0.1462 H   0  0  0  0  0  0  0  0  0  0  0  0
    0.6693   -2.7556    0.0916 H   0  0  0  0  0  0  0  0  0  0  0  0
    3.0709   -2.4425    0.1605 H   0  0  0  0  0  0  0  0  0  0  0  0
    2.5481    1.7942   -0.0214 H   0  0  0  0  0  0  0  0  0  0  0  0
   -0.6938    1.4834   -2.1152 H   0  0  0  0  0  0  0  0  0  0  0  0
   -1.3454    4.0461   -1.9811 H   0  0  0  0  0  0  0  0  0  0  0  0
   -2.6708    2.9172   -1.8874 H   0  0  0  0  0  0  0  0  0  0  0  0
   -2.6995    4.7559   -0.1026 H   0  0  0  0  0  0  0  0  0  0  0  0
   -2.8292    3.1178    0.5155 H   0  0  0  0  0  0  0  0  0  0  0  0
   -0.2308    4.7115    0.3445 H   0  0  0  0  0  0  0  0  0  0  0  0
   -1.1550    4.4829    1.8163 H   0  0  0  0  0  0  0  0  0  0  0  0
   -0.6885    2.1278    1.8927 H   0  0  0  0  0  0  0  0  0  0  0  0
    0.8255    2.8780    1.4703 H   0  0  0  0  0  0  0  0  0  0  0  0
    4.6831    0.9867    0.1134 H   0  0  0  0  0  0  0  0  0  0  0  0
    4.9636   -1.7401   -1.2217 H   0  0  0  0  0  0  0  0  0  0  0  0
    4.7765   -0.1974   -2.0397 H   0  0  0  0  0  0  0  0  0  0  0  0
    7.1738   -0.9240   -1.9358 H   0  0  0  0  0  0  0  0  0  0  0  0
    6.9101    0.6093   -1.1291 H   0  0  0  0  0  0  0  0  0  0  0  0
    7.2222   -1.9956    0.1362 H   0  0  0  0  0  0  0  0  0  0  0  0
    7.1213   -0.9319    2.2110 H   0  0  0  0  0  0  0  0  0  0  0  0
    6.8762    0.6042    1.4035 H   0  0  0  0  0  0  0  0  0  0  0  0
    4.7211   -0.2113    2.2586 H   0  0  0  0  0  0  0  0  0  0  0  0
    4.9343   -1.7489    1.4377 H   0  0  0  0  0  0  0  0  0  0  0  0
  1  2  3  0
  2  3  1  0
  3  7  1  0
  3  4  2  0
 30  4  1  0
  4  5  1  0
  6  5  1  0
  5 29  1  0
  7  6  2  0
  6  8  1  0
 10  8  1  0
  8  9  2  0
 31 10  1  0
 10 11  1  0
 16 11  1  0
 11 12  2  0
 12 32  1  0
 12 13  1  0
 14 13  2  0
 13 33  1  0
 15 14  1  0
 14 23  1  0
 16 15  2  0
 34 15  1  0
 17 16  1  0
 22 17  1  0
 18 17  2  0
 19 18  1  0
 18 35  1  0
 20 19  1  0
 37 19  1  0
 36 19  1  0
 39 20  1  0
 20 38  1  0
 20 21  1  0
 41 21  1  0
 40 21  1  0
 21 22  1  0
 22 43  1  0
 22 42  1  0
 28 23  1  0
 23 24  1  0
 23 44  1  1
 45 24  1  0
 24 25  1  0
 24 46  1  0
 48 25  1  0
 25 47  1  0
 25 26  1  0
 27 26  1  0
 26 49  1  0
 50 27  1  0
 28 27  1  0
 27 51  1  0
 52 28  1  0
 28 53  1  0
M  END
