
     RDKit          3D

 37 38  0  0  0  0  0  0  0  0999 V2000
    1.2688   -0.4613   -0.1286 C   0  0  1  0  0  0  0  0  0  0  0  0
    2.2024   -2.6009   -0.8957 C   0  0  0  0  0  0  0  0  0  0  0  0
   -2.8717    1.2230   -0.5225 C   0  0  0  0  0  0  0  0  0  0  0  0
   -3.7374    0.2737    0.0196 C   0  0  0  0  0  0  0  0  0  0  0  0
   -3.2276   -0.6884    0.8901 C   0  0  0  0  0  0  0  0  0  0  0  0
   -1.8788   -0.6950    1.2078 C   0  0  0  0  0  0  0  0  0  0  0  0
   -1.0073    0.2479    0.6681 C   0  0  0  0  0  0  0  0  0  0  0  0
   -1.5269    1.2067   -0.2018 C   0  0  0  0  0  0  0  0  0  0  0  0
    0.4617    0.2202    0.9765 C   0  0  0  0  0  0  0  0  0  0  0  0
    3.4190    0.9076   -0.0551 C   0  0  0  0  0  0  0  0  0  0  0  0
    2.7841   -0.4628    0.1048 C   0  0  2  0  0  0  0  0  0  0  0  0
    3.2720   -1.4982   -0.9093 C   0  0  0  0  0  0  0  0  0  0  0  0
    4.8863    0.9477    0.2714 C   0  0  0  0  0  0  0  0  0  0  0  0
    0.9311   -1.9461   -0.3150 C   0  0  0  0  0  0  0  0  0  0  0  0
    5.4698    2.0435   -0.2066 O   0  0  0  0  0  0  0  0  0  0  0  0
    5.4814    0.1168    0.9118 O   0  0  0  0  0  0  0  0  0  0  0  0
   -5.6396    1.1607   -1.0958 O   0  0  0  0  0  0  0  0  0  0  0  0
   -5.8948   -0.6239    0.2149 O   0  0  0  0  0  0  0  0  0  0  0  0
    1.0748    0.0642   -1.0731 H   0  0  0  0  0  0  0  0  0  0  0  0
    2.0353   -3.0041   -1.8951 H   0  0  0  0  0  0  0  0  0  0  0  0
    2.5201   -3.4384   -0.2728 H   0  0  0  0  0  0  0  0  0  0  0  0
   -3.2525    1.9803   -1.1948 H   0  0  0  0  0  0  0  0  0  0  0  0
   -3.8724   -1.4366    1.3299 H   0  0  0  0  0  0  0  0  0  0  0  0
   -1.4981   -1.4469    1.8883 H   0  0  0  0  0  0  0  0  0  0  0  0
   -0.8698    1.9536   -0.6316 H   0  0  0  0  0  0  0  0  0  0  0  0
    0.6355   -0.3046    1.9202 H   0  0  0  0  0  0  0  0  0  0  0  0
    0.8142    1.2461    1.1156 H   0  0  0  0  0  0  0  0  0  0  0  0
    3.2620    1.2832   -1.0704 H   0  0  0  0  0  0  0  0  0  0  0  0
    2.9372    1.6396    0.6039 H   0  0  0  0  0  0  0  0  0  0  0  0
    2.9742   -0.8355    1.1188 H   0  0  0  0  0  0  0  0  0  0  0  0
    4.2694   -1.8773   -0.6854 H   0  0  0  0  0  0  0  0  0  0  0  0
    3.3208   -1.0300   -1.8977 H   0  0  0  0  0  0  0  0  0  0  0  0
    0.6840   -2.3888    0.6540 H   0  0  0  0  0  0  0  0  0  0  0  0
    0.0583   -2.0875   -0.9530 H   0  0  0  0  0  0  0  0  0  0  0  0
    6.4043    2.0580    0.0490 H   0  0  0  0  0  0  0  0  0  0  0  0
   -6.8203   -0.5408   -0.0584 H   0  0  0  0  0  0  0  0  0  0  0  0
   -5.1696    0.3318   -0.3520 C   0  0  0  0  0  0  0  0  0  0  0  0
 16 13  2  0
 11 12  1  0
 11 10  1  0
 11  1  1  0
 13 10  1  0
 13 15  1  0
  9  1  1  0
  9  7  1  0
 12  2  1  0
  8  7  1  0
  8  3  2  0
  2 14  1  0
  1 14  1  0
  7  6  2  0
  3  4  1  0
  6  5  1  0
  4  5  2  0
  4 37  1  0
 17 37  2  0
 37 18  1  0
  1 19  1  6
  2 20  1  0
  2 21  1  0
  3 22  1  0
  5 23  1  0
  6 24  1  0
  8 25  1  0
  9 26  1  0
  9 27  1  0
 10 28  1  0
 10 29  1  0
 11 30  1  1
 12 31  1  0
 12 32  1  0
 14 33  1  0
 14 34  1  0
 15 35  1  0
 18 36  1  0
M  END
