
     RDKit          3D

 38 40  0  0  0  0  0  0  0  0999 V2000
    5.4317    1.6642    1.6042 C   0  0  0  0  0  0  0  0  0  0  0  0
    5.0701    0.9989    0.4130 O   0  0  0  0  0  0  0  0  0  0  0  0
    3.8124    0.5128    0.3043 C   0  0  0  0  0  0  0  0  0  0  0  0
    2.8192    0.6589    1.2596 C   0  0  0  0  0  0  0  0  0  0  0  0
    1.5545    0.1172    1.0597 C   0  0  0  0  0  0  0  0  0  0  0  0
    1.2723   -0.5652   -0.1138 C   0  0  0  0  0  0  0  0  0  0  0  0
   -0.0266   -1.1085   -0.2877 N   0  0  0  0  0  0  0  0  0  0  0  0
   -0.1226   -2.3714   -1.0111 C   0  0  0  0  0  0  0  0  0  0  0  0
   -1.0866   -0.2288   -0.3684 C   0  0  0  0  0  0  0  0  0  0  0  0
   -0.9467    1.0469   -0.8218 C   0  0  0  0  0  0  0  0  0  0  0  0
   -2.0623    1.9330   -0.9752 C   0  0  0  0  0  0  0  0  0  0  0  0
   -2.0224    3.0606   -1.4112 O   0  0  0  0  0  0  0  0  0  0  0  0
   -3.2921    1.4465   -0.6499 O   0  0  0  0  0  0  0  0  0  0  0  0
   -3.4677    0.2263   -0.0961 C   0  0  0  0  0  0  0  0  0  0  0  0
   -4.7571   -0.0962    0.3109 C   0  0  0  0  0  0  0  0  0  0  0  0
   -4.9790   -1.2980    0.9542 C   0  0  0  0  0  0  0  0  0  0  0  0
   -3.9182   -2.1645    1.2145 C   0  0  0  0  0  0  0  0  0  0  0  0
   -2.6455   -1.8409    0.7926 C   0  0  0  0  0  0  0  0  0  0  0  0
   -2.4015   -0.6542    0.0899 C   0  0  0  0  0  0  0  0  0  0  0  0
    2.2688   -0.7183   -1.0747 C   0  0  0  0  0  0  0  0  0  0  0  0
    3.5448   -0.1952   -0.8843 C   0  0  0  0  0  0  0  0  0  0  0  0
    4.5173   -0.2978   -1.8601 N   0  0  0  0  0  0  0  0  0  0  0  0
    4.8302    2.5615    1.7723 H   0  0  0  0  0  0  0  0  0  0  0  0
    5.3420    1.0135    2.4785 H   0  0  0  0  0  0  0  0  0  0  0  0
    6.4722    1.9592    1.4920 H   0  0  0  0  0  0  0  0  0  0  0  0
    3.0166    1.1865    2.1834 H   0  0  0  0  0  0  0  0  0  0  0  0
    0.7963    0.2268    1.8238 H   0  0  0  0  0  0  0  0  0  0  0  0
    0.5013   -3.1224   -0.5300 H   0  0  0  0  0  0  0  0  0  0  0  0
   -1.1458   -2.7329   -1.0221 H   0  0  0  0  0  0  0  0  0  0  0  0
    0.1892   -2.2678   -2.0534 H   0  0  0  0  0  0  0  0  0  0  0  0
    0.0130    1.4242   -1.1450 H   0  0  0  0  0  0  0  0  0  0  0  0
   -5.5657    0.6015    0.1360 H   0  0  0  0  0  0  0  0  0  0  0  0
   -5.9797   -1.5535    1.2758 H   0  0  0  0  0  0  0  0  0  0  0  0
   -4.0889   -3.0851    1.7553 H   0  0  0  0  0  0  0  0  0  0  0  0
   -1.8246   -2.5035    1.0297 H   0  0  0  0  0  0  0  0  0  0  0  0
    2.0653   -1.2465   -1.9978 H   0  0  0  0  0  0  0  0  0  0  0  0
    5.4686   -0.2918   -1.5283 H   0  0  0  0  0  0  0  0  0  0  0  0
    4.3678   -1.0394   -2.5257 H   0  0  0  0  0  0  0  0  0  0  0  0
 12 11  2  0
 11 13  1  0
 11 10  1  0
 13 14  1  0
 10  9  2  0
 14 15  1  0
 14 19  2  0
 15 16  2  0
  9 19  1  0
  9  7  1  0
 19 18  1  0
 16 17  1  0
  8  7  1  0
  7  6  1  0
 18 17  2  0
  5  6  2  0
  5  4  1  0
  6 20  1  0
  4  3  2  0
 20 21  2  0
  3 21  1  0
  3  2  1  0
 21 22  1  0
  1  2  1  0
  1 23  1  0
  1 24  1  0
  1 25  1  0
  4 26  1  0
  5 27  1  0
  8 28  1  0
  8 29  1  0
  8 30  1  0
 10 31  1  0
 15 32  1  0
 16 33  1  0
 17 34  1  0
 18 35  1  0
 20 36  1  0
 22 37  1  0
 22 38  1  0
M  END
