
     RDKit          3D

 51 54  0  0  0  0  0  0  0  0999 V2000
    3.7125    1.6007    0.8740 C   0  0  0  0  0  0  0  0  0  0  0  0
    3.9924   -0.5967   -0.1509 C   0  0  0  0  0  0  0  0  0  0  0  0
    1.8673    0.0205    0.8461 C   0  0  0  0  0  0  0  0  0  0  0  0
    1.2348   -1.1435    0.5514 C   0  0  0  0  0  0  0  0  0  0  0  0
    2.0117   -2.1279   -0.1377 C   0  0  0  0  0  0  0  0  0  0  0  0
    1.7549   -3.4224   -0.6570 C   0  0  0  0  0  0  0  0  0  0  0  0
    2.9209   -3.8449   -1.2519 C   0  0  0  0  0  0  0  0  0  0  0  0
    3.3334   -1.8273   -0.4509 C   0  0  0  0  0  0  0  0  0  0  0  0
    3.5558    2.6052   -0.2669 C   0  0  0  0  0  0  0  0  0  0  0  0
   -3.2700    0.5795   -1.3956 C   0  0  0  0  0  0  0  0  0  0  0  0
   -2.8281   -1.7113    1.7459 C   0  0  0  0  0  0  0  0  0  0  0  0
   -1.9074   -2.7389    1.8890 C   0  0  0  0  0  0  0  0  0  0  0  0
    3.1748    0.2876    0.5295 N   0  0  0  0  0  0  0  0  0  0  0  0
    4.0227    3.9639    0.1493 C   0  0  0  0  0  0  0  0  0  0  0  0
   -3.9270    1.0317    2.1217 O   0  0  0  0  0  0  0  0  0  0  0  0
   -0.1704   -1.3531    0.9366 C   0  0  0  0  0  0  0  0  0  0  0  0
   -3.6278    1.1740   -0.1177 N   0  0  0  0  0  0  0  0  0  0  0  0
   -4.5284    0.3480   -2.2180 C   0  0  0  0  0  0  0  0  0  0  0  0
   -4.4495    2.3648   -0.2609 C   0  0  0  0  0  0  0  0  0  0  0  0
   -2.4308   -0.5103    1.1688 C   0  0  0  0  0  0  0  0  0  0  0  0
   -0.5899   -2.5617    1.4950 C   0  0  0  0  0  0  0  0  0  0  0  0
    3.8637   -2.8834   -1.1247 N   0  0  0  0  0  0  0  0  0  0  0  0
   -5.6606    2.0628   -1.1254 C   0  0  0  0  0  0  0  0  0  0  0  0
   -3.4037    0.6252    1.0924 C   0  0  0  0  0  0  0  0  0  0  0  0
   -5.2773    1.5312   -2.3751 O   0  0  0  0  0  0  0  0  0  0  0  0
   -1.1119   -0.3386    0.7655 C   0  0  0  0  0  0  0  0  0  0  0  0
    4.7610    1.4924    1.1436 H   0  0  0  0  0  0  0  0  0  0  0  0
    3.1853    1.9496    1.7621 H   0  0  0  0  0  0  0  0  0  0  0  0
    1.3645    0.8098    1.3876 H   0  0  0  0  0  0  0  0  0  0  0  0
    0.8343   -3.9817   -0.6163 H   0  0  0  0  0  0  0  0  0  0  0  0
    3.1390   -4.7701   -1.7600 H   0  0  0  0  0  0  0  0  0  0  0  0
    4.1120    2.2620   -1.1410 H   0  0  0  0  0  0  0  0  0  0  0  0
    2.4991    2.6517   -0.5492 H   0  0  0  0  0  0  0  0  0  0  0  0
   -2.7617   -0.3710   -1.2533 H   0  0  0  0  0  0  0  0  0  0  0  0
   -3.8524   -1.8507    2.0670 H   0  0  0  0  0  0  0  0  0  0  0  0
   -2.2152   -3.6805    2.3241 H   0  0  0  0  0  0  0  0  0  0  0  0
    3.4645    4.4343    0.9547 H   0  0  0  0  0  0  0  0  0  0  0  0
   -4.2545   -0.0029   -3.2137 H   0  0  0  0  0  0  0  0  0  0  0  0
   -5.1342   -0.4332   -1.7367 H   0  0  0  0  0  0  0  0  0  0  0  0
   -4.7646    2.7200    0.7167 H   0  0  0  0  0  0  0  0  0  0  0  0
   -3.8462    3.1496   -0.7283 H   0  0  0  0  0  0  0  0  0  0  0  0
    0.1230   -3.3623    1.6452 H   0  0  0  0  0  0  0  0  0  0  0  0
    4.8043   -2.9351   -1.4811 H   0  0  0  0  0  0  0  0  0  0  0  0
   -6.3240    1.3653   -0.5956 H   0  0  0  0  0  0  0  0  0  0  0  0
   -6.2175    2.9811   -1.3164 H   0  0  0  0  0  0  0  0  0  0  0  0
   -0.8079    0.5943    0.3050 H   0  0  0  0  0  0  0  0  0  0  0  0
    5.1530   -0.3235   -0.4504 O   0  0  0  0  0  0  0  0  0  0  0  0
    5.0571    4.6049   -0.3816 C   0  0  0  0  0  0  0  0  0  0  0  0
   -2.5877    1.2479   -1.9294 H   0  0  0  0  0  0  0  0  0  0  0  0
    5.6436    4.1752   -1.1858 H   0  0  0  0  0  0  0  0  0  0  0  0
    5.3532    5.5866   -0.0358 H   0  0  0  0  0  0  0  0  0  0  0  0
  1 13  1  0
  1  9  1  0
 13  2  1  0
 13  3  1  0
 47  2  2  0
 18 25  1  0
 18 10  1  0
 48 14  2  0
 14  9  1  0
  2  8  1  0
  3  4  2  0
  8  5  2  0
  8 22  1  0
 25 23  1  0
 10 17  1  0
  4  5  1  0
  4 16  1  0
 21 16  2  0
 21 12  1  0
  5  6  1  0
 22  7  1  0
 16 26  1  0
 12 11  2  0
  7  6  2  0
 26 20  2  0
 11 20  1  0
 23 19  1  0
 20 24  1  0
 17 24  1  0
 17 19  1  0
 24 15  2  0
  1 27  1  0
  1 28  1  0
  3 29  1  0
  6 30  1  0
  7 31  1  0
  9 32  1  0
  9 33  1  0
 10 49  1  0
 10 34  1  0
 11 35  1  0
 12 36  1  0
 48 50  1  0
 48 51  1  0
 14 37  1  0
 18 38  1  0
 18 39  1  0
 19 40  1  0
 19 41  1  0
 21 42  1  0
 22 43  1  0
 23 44  1  0
 23 45  1  0
 26 46  1  0
M  END
