
     RDKit          3D

 50 50  0  0  0  0  0  0  0  0999 V2000
    0.3149    0.3376   -3.1602 C   0  0  1  0  0  0  0  0  0  0  0  0
    1.4145   -0.1051   -4.1308 C   0  0  1  0  0  0  0  0  0  0  0  0
    1.0574    0.3572   -5.5369 C   0  0  2  0  0  0  0  0  0  0  0  0
   -0.3356   -0.1315   -5.9218 C   0  0  2  0  0  0  0  0  0  0  0  0
   -1.3228    0.3094   -4.8481 C   0  0  1  0  0  0  0  0  0  0  0  0
   -2.7316   -0.1679   -5.1293 C   0  0  0  0  0  0  0  0  0  0  0  0
    2.6504    0.4774   -3.7960 O   0  0  0  0  0  0  0  0  0  0  0  0
    1.9655   -0.1173   -6.4992 O   0  0  0  0  0  0  0  0  0  0  0  0
   -0.3846   -1.5315   -6.0434 O   0  0  0  0  0  0  0  0  0  0  0  0
   -0.9361   -0.1613   -3.5730 O   0  0  0  0  0  0  0  0  0  0  0  0
   -3.6074    0.4575   -4.2214 O   0  0  0  0  0  0  0  0  0  0  0  0
    0.5876   -0.1393   -1.8463 N   0  0  0  0  0  0  0  0  0  0  0  0
   -0.0348    1.7279   -0.7311 O   0  0  0  0  0  0  0  0  0  0  0  0
    0.3934    0.5871   -0.7168 C   0  0  0  0  0  0  0  0  0  0  0  0
    0.8030   -0.1207    0.5553 C   0  0  0  0  0  0  0  0  0  0  0  0
    0.1061    0.4085    1.7993 C   0  0  0  0  0  0  0  0  0  0  0  0
    0.5949   -0.2872    3.0631 C   0  0  0  0  0  0  0  0  0  0  0  0
   -0.0955    0.2337    4.3161 C   0  0  0  0  0  0  0  0  0  0  0  0
    0.4143   -0.4511    5.5734 C   0  0  0  0  0  0  0  0  0  0  0  0
   -0.2644    0.0710    6.7408 N   0  0  0  0  0  0  0  0  0  0  0  0
    0.0319   -0.3402    7.9823 C   0  0  0  0  0  0  0  0  0  0  0  0
    0.8829   -1.1637    8.2578 O   0  0  0  0  0  0  0  0  0  0  0  0
   -0.7321    0.2762    8.8923 O   0  0  0  0  0  0  0  0  0  0  0  0
   -0.5228   -0.0777   10.2537 C   0  0  0  0  0  0  0  0  0  0  0  0
    0.2948    1.4348   -3.1281 H   0  0  0  0  0  0  0  0  0  0  0  0
    1.4737   -1.2029   -4.1192 H   0  0  0  0  0  0  0  0  0  0  0  0
    1.0300    1.4591   -5.5328 H   0  0  0  0  0  0  0  0  0  0  0  0
   -0.6254    0.3600   -6.8626 H   0  0  0  0  0  0  0  0  0  0  0  0
   -1.3270    1.4119   -4.8563 H   0  0  0  0  0  0  0  0  0  0  0  0
   -2.9722    0.0906   -6.1688 H   0  0  0  0  0  0  0  0  0  0  0  0
   -2.7771   -1.2600   -5.0492 H   0  0  0  0  0  0  0  0  0  0  0  0
    3.0231    0.0092   -3.0428 H   0  0  0  0  0  0  0  0  0  0  0  0
    2.8584    0.1058   -6.2148 H   0  0  0  0  0  0  0  0  0  0  0  0
    0.3043   -1.7996   -6.6608 H   0  0  0  0  0  0  0  0  0  0  0  0
   -4.4949    0.1302   -4.3917 H   0  0  0  0  0  0  0  0  0  0  0  0
    0.8619   -1.1056   -1.7459 H   0  0  0  0  0  0  0  0  0  0  0  0
    1.8871    0.0050    0.6564 H   0  0  0  0  0  0  0  0  0  0  0  0
    0.6379   -1.1970    0.4560 H   0  0  0  0  0  0  0  0  0  0  0  0
   -0.9748    0.2719    1.7030 H   0  0  0  0  0  0  0  0  0  0  0  0
    0.2763    1.4836    1.8890 H   0  0  0  0  0  0  0  0  0  0  0  0
    1.6772   -0.1493    3.1579 H   0  0  0  0  0  0  0  0  0  0  0  0
    0.4304   -1.3662    2.9774 H   0  0  0  0  0  0  0  0  0  0  0  0
   -1.1757    0.0793    4.2287 H   0  0  0  0  0  0  0  0  0  0  0  0
    0.0628    1.3136    4.3995 H   0  0  0  0  0  0  0  0  0  0  0  0
    1.4926   -0.2941    5.6649 H   0  0  0  0  0  0  0  0  0  0  0  0
    0.2554   -1.5307    5.4931 H   0  0  0  0  0  0  0  0  0  0  0  0
   -0.9982    0.7491    6.6122 H   0  0  0  0  0  0  0  0  0  0  0  0
   -1.2318    0.5134   10.8270 H   0  0  0  0  0  0  0  0  0  0  0  0
   -0.7170   -1.1354   10.4325 H   0  0  0  0  0  0  0  0  0  0  0  0
    0.4881    0.1604   10.5848 H   0  0  0  0  0  0  0  0  0  0  0  0
  1  2  1  0
  1 10  1  0
  1 12  1  0
  1 25  1  1
  2  3  1  0
  2  7  1  0
  2 26  1  6
  3  4  1  0
  3  8  1  0
  3 27  1  1
  4  5  1  0
  4  9  1  0
  4 28  1  6
  5  6  1  0
  5 10  1  0
  5 29  1  1
  6 11  1  0
  6 30  1  0
  6 31  1  0
  7 32  1  0
  8 33  1  0
  9 34  1  0
 11 35  1  0
 12 14  1  0
 12 36  1  0
 13 14  2  0
 14 15  1  0
 15 16  1  0
 15 37  1  0
 15 38  1  0
 16 17  1  0
 16 39  1  0
 16 40  1  0
 17 18  1  0
 17 41  1  0
 17 42  1  0
 18 19  1  0
 18 43  1  0
 18 44  1  0
 19 20  1  0
 19 45  1  0
 19 46  1  0
 20 21  1  0
 20 47  1  0
 21 22  2  0
 21 23  1  0
 23 24  1  0
 24 48  1  0
 24 49  1  0
 24 50  1  0
M  END
