
     RDKit          3D

 20 21  0  0  0  0  0  0  0  0999 V2000
    4.8851   -0.5792    0.4652 O   0  0  0  0  0  0  0  0  0  0  0  0
    3.6681   -0.1042    0.1583 C   0  0  0  0  0  0  0  0  0  0  0  0
    2.5736   -0.9007    0.4649 C   0  0  0  0  0  0  0  0  0  0  0  0
    1.3148   -0.4078    0.1530 C   0  0  0  0  0  0  0  0  0  0  0  0
   -0.2226   -1.1626    0.4000 S   0  0  0  0  0  0  0  0  0  0  0  0
   -0.9534    0.2462   -0.3019 C   0  0  0  0  0  0  0  0  0  0  0  0
   -2.7228    0.3425   -0.4149 S   0  0  1  0  0  0  0  0  0  0  0  0
   -3.1349    1.1892    0.9139 N   0  0  0  0  0  0  0  0  0  0  0  0
   -3.0247    1.1134   -1.6023 O   0  0  0  0  0  0  0  0  0  0  0  0
   -3.1772   -1.0262   -0.2518 O   0  0  0  0  0  0  0  0  0  0  0  0
   -0.1797    1.1832   -0.6945 N   0  0  0  0  0  0  0  0  0  0  0  0
    1.1282    0.8474   -0.4534 C   0  0  0  0  0  0  0  0  0  0  0  0
    2.2441    1.6292   -0.7567 C   0  0  0  0  0  0  0  0  0  0  0  0
    3.4981    1.1533   -0.4512 C   0  0  0  0  0  0  0  0  0  0  0  0
    5.5698    0.0571    0.2294 H   0  0  0  0  0  0  0  0  0  0  0  0
    2.7089   -1.8665    0.9338 H   0  0  0  0  0  0  0  0  0  0  0  0
   -3.4462    2.1379    0.7499 H   0  0  0  0  0  0  0  0  0  0  0  0
   -3.6825    0.6829    1.5977 H   0  0  0  0  0  0  0  0  0  0  0  0
    2.1186    2.5961   -1.2253 H   0  0  0  0  0  0  0  0  0  0  0  0
    4.3689    1.7561   -0.6816 H   0  0  0  0  0  0  0  0  0  0  0  0
  1  2  1  0
  1 15  1  0
  2  3  2  0
  2 14  1  0
  3  4  1  0
  3 16  1  0
  4  5  1  0
  4 12  2  0
  5  6  1  0
  6  7  1  0
  6 11  2  0
  7  8  1  1
  7  9  2  0
  7 10  2  0
  8 17  1  0
  8 18  1  0
 11 12  1  0
 12 13  1  0
 13 14  2  0
 13 19  1  0
 14 20  1  0
M  END
