
     RDKit          3D

 67 70  0  0  0  0  0  0  0  0999 V2000
    0.9509    0.9582   -3.6661 C   0  0  0  0  0  0  0  0  0  0  0  0
    1.8961   -0.0533   -3.7740 C   0  0  0  0  0  0  0  0  0  0  0  0
    0.0827    1.1819   -4.7315 C   0  0  0  0  0  0  0  0  0  0  0  0
    0.1652    0.4058   -5.8770 C   0  0  0  0  0  0  0  0  0  0  0  0
    1.1162   -0.6003   -5.9763 C   0  0  0  0  0  0  0  0  0  0  0  0
    1.9955   -0.8356   -4.9220 C   0  0  0  0  0  0  0  0  0  0  0  0
    3.0313   -1.9052   -4.9834 C   0  0  0  0  0  0  0  0  0  0  0  0
    3.4014   -2.2869   -6.2409 N   0  0  0  0  0  0  0  0  0  0  0  0
    3.4548   -2.4096   -3.8884 N   0  0  0  0  0  0  0  0  0  0  0  0
    0.8566    1.7644   -2.4038 C   0  0  0  0  0  0  0  0  0  0  0  0
   -0.1003    1.1189   -1.3852 C   0  0  1  0  0  0  0  0  0  0  0  0
   -0.0255    1.8781   -0.0517 C   0  0  0  0  0  0  0  0  0  0  0  0
   -0.8454    2.7609    0.1626 O   0  0  0  0  0  0  0  0  0  0  0  0
    0.9657    1.5718    0.8012 N   0  0  0  0  0  0  0  0  0  0  0  0
    2.0117    0.5840    0.5918 C   0  0  0  0  0  0  0  0  0  0  0  0
    2.0025   -0.4688    1.6892 C   0  0  0  0  0  0  0  0  0  0  0  0
    1.0215    1.2500    3.2306 C   0  0  0  0  0  0  0  0  0  0  0  0
    1.0761    2.2498    2.0833 C   0  0  0  0  0  0  0  0  0  0  0  0
    2.1042    0.1802    3.0658 C   0  0  1  0  0  0  0  0  0  0  0  0
    2.0923   -0.8615    4.1617 C   0  0  0  0  0  0  0  0  0  0  0  0
    2.2392   -2.0450    3.9845 O   0  0  0  0  0  0  0  0  0  0  0  0
    1.9376   -0.3205    5.3619 O   0  0  0  0  0  0  0  0  0  0  0  0
    1.9368   -1.1985    6.4866 C   0  0  0  0  0  0  0  0  0  0  0  0
   -1.4520    1.1683   -1.9080 N   0  0  0  0  0  0  0  0  0  0  0  0
   -2.4958   -0.0544   -1.5451 S   0  0  1  0  0  0  0  0  0  0  0  0
   -3.7882    0.3672   -2.0583 O   0  0  0  0  0  0  0  0  0  0  0  0
   -1.8923   -1.2902   -2.0117 O   0  0  0  0  0  0  0  0  0  0  0  0
   -2.5871   -0.1234    0.2213 C   0  0  0  0  0  0  0  0  0  0  0  0
   -3.3450    0.8589    0.8960 C   0  0  0  0  0  0  0  0  0  0  0  0
   -3.3706    0.8582    2.2590 C   0  0  0  0  0  0  0  0  0  0  0  0
   -1.9015   -1.0942    2.3109 C   0  0  0  0  0  0  0  0  0  0  0  0
   -2.6493   -0.1073    3.0027 C   0  0  0  0  0  0  0  0  0  0  0  0
   -1.8829   -1.0794    0.8982 C   0  0  0  0  0  0  0  0  0  0  0  0
   -2.6446   -0.1108    4.4151 C   0  0  0  0  0  0  0  0  0  0  0  0
   -1.9294   -1.0529    5.1046 C   0  0  0  0  0  0  0  0  0  0  0  0
   -1.1935   -2.0381    4.4157 C   0  0  0  0  0  0  0  0  0  0  0  0
   -1.1785   -2.0588    3.0480 C   0  0  0  0  0  0  0  0  0  0  0  0
    2.5870   -0.2382   -2.9598 H   0  0  0  0  0  0  0  0  0  0  0  0
   -0.6578    1.9683   -4.6643 H   0  0  0  0  0  0  0  0  0  0  0  0
   -0.5160    0.5825   -6.6992 H   0  0  0  0  0  0  0  0  0  0  0  0
    1.1508   -1.2051   -6.8733 H   0  0  0  0  0  0  0  0  0  0  0  0
    4.2004   -2.8949   -6.3256 H   0  0  0  0  0  0  0  0  0  0  0  0
    3.3231   -1.6179   -6.9890 H   0  0  0  0  0  0  0  0  0  0  0  0
    4.1766   -3.1053   -4.0572 H   0  0  0  0  0  0  0  0  0  0  0  0
    0.5062    2.7780   -2.6137 H   0  0  0  0  0  0  0  0  0  0  0  0
    1.8464    1.8642   -1.9524 H   0  0  0  0  0  0  0  0  0  0  0  0
    0.1741    0.0700   -1.2622 H   0  0  0  0  0  0  0  0  0  0  0  0
    2.9753    1.1047    0.5847 H   0  0  0  0  0  0  0  0  0  0  0  0
    1.9176    0.1011   -0.3769 H   0  0  0  0  0  0  0  0  0  0  0  0
    2.8356   -1.1522    1.5214 H   0  0  0  0  0  0  0  0  0  0  0  0
    1.0848   -1.0579    1.6196 H   0  0  0  0  0  0  0  0  0  0  0  0
    0.0332    0.7826    3.2516 H   0  0  0  0  0  0  0  0  0  0  0  0
    1.1429    1.7951    4.1664 H   0  0  0  0  0  0  0  0  0  0  0  0
    2.0229    2.8006    2.1083 H   0  0  0  0  0  0  0  0  0  0  0  0
    0.2740    2.9755    2.1777 H   0  0  0  0  0  0  0  0  0  0  0  0
    3.0815    0.6794    3.1380 H   0  0  0  0  0  0  0  0  0  0  0  0
    1.8263   -0.5647    7.3616 H   0  0  0  0  0  0  0  0  0  0  0  0
    1.1031   -1.8986    6.4415 H   0  0  0  0  0  0  0  0  0  0  0  0
    2.8696   -1.7570    6.5593 H   0  0  0  0  0  0  0  0  0  0  0  0
   -1.8812    2.0823   -1.7904 H   0  0  0  0  0  0  0  0  0  0  0  0
   -3.8969    1.6062    0.3427 H   0  0  0  0  0  0  0  0  0  0  0  0
   -3.9436    1.6091    2.7886 H   0  0  0  0  0  0  0  0  0  0  0  0
   -1.3110   -1.8346    0.3736 H   0  0  0  0  0  0  0  0  0  0  0  0
   -3.2105    0.6446    4.9459 H   0  0  0  0  0  0  0  0  0  0  0  0
   -1.9288   -1.0462    6.1868 H   0  0  0  0  0  0  0  0  0  0  0  0
   -0.6399   -2.7815    4.9733 H   0  0  0  0  0  0  0  0  0  0  0  0
   -0.6136   -2.8152    2.5173 H   0  0  0  0  0  0  0  0  0  0  0  0
  1  2  2  0
  1  3  1  0
  1 10  1  0
  2  6  1  0
  2 38  1  0
  3  4  2  0
  3 39  1  0
  4  5  1  0
  4 40  1  0
  5  6  2  0
  5 41  1  0
  6  7  1  0
  7  8  1  0
  7  9  2  0
  8 42  1  0
  8 43  1  0
  9 44  1  0
 10 11  1  0
 10 45  1  0
 10 46  1  0
 11 12  1  0
 11 24  1  0
 11 47  1  1
 12 13  2  0
 12 14  1  0
 14 15  1  0
 14 18  1  0
 15 16  1  0
 15 48  1  0
 15 49  1  0
 16 19  1  0
 16 50  1  0
 16 51  1  0
 17 18  1  0
 17 19  1  0
 17 52  1  0
 17 53  1  0
 18 54  1  0
 18 55  1  0
 19 20  1  0
 19 56  1  6
 20 21  2  0
 20 22  1  0
 22 23  1  0
 23 57  1  0
 23 58  1  0
 23 59  1  0
 25 24  1  1
 24 60  1  0
 25 26  2  0
 25 27  2  0
 25 28  1  0
 28 29  2  0
 28 33  1  0
 29 30  1  0
 29 61  1  0
 30 32  2  0
 30 62  1  0
 31 32  1  0
 31 33  2  0
 31 37  1  0
 32 34  1  0
 33 63  1  0
 34 35  2  0
 34 64  1  0
 35 36  1  0
 35 65  1  0
 36 37  2  0
 36 66  1  0
 37 67  1  0
M  END
