
     RDKit          3D

 55 59  0  0  0  0  0  0  0  0999 V2000
   -1.9578    1.7739    0.5546 C   0  0  0  0  0  0  0  0  0  0  0  0
   -1.6766    3.1385    0.5897 C   0  0  0  0  0  0  0  0  0  0  0  0
   -0.3597    3.4608    0.3335 C   0  0  0  0  0  0  0  0  0  0  0  0
    0.5860    2.5678    0.0710 N   0  0  0  0  0  0  0  0  0  0  0  0
   -1.0466    0.8631    0.2935 N   0  0  0  0  0  0  0  0  0  0  0  0
   -6.9702   -0.8761   -1.0290 C   0  0  0  0  0  0  0  0  0  0  0  0
   -7.7131   -2.1335   -1.4926 C   0  0  1  0  0  0  0  0  0  0  0  0
   -7.1547   -2.6383   -2.6759 O   0  0  0  0  0  0  0  0  0  0  0  0
   -7.1876   -2.7739   -0.1949 C   0  0  0  0  0  0  0  0  0  0  0  0
   -6.1940   -1.7013   -0.1003 N   0  0  0  0  0  0  0  0  0  0  0  0
   -4.9786    0.0086    1.1113 C   0  0  0  0  0  0  0  0  0  0  0  0
   -3.6499    0.0004    0.7971 C   0  0  0  0  0  0  0  0  0  0  0  0
   -5.2950    1.3852    1.2863 C   0  0  0  0  0  0  0  0  0  0  0  0
   -6.6169    1.9729    1.6356 C   0  0  0  0  0  0  0  0  0  0  0  0
   -4.2382    2.1404    1.0991 N   0  0  0  0  0  0  0  0  0  0  0  0
   -3.2398    1.2959    0.8005 N   0  0  0  0  0  0  0  0  0  0  0  0
    0.1969    1.2963    0.0605 C   0  0  0  0  0  0  0  0  0  0  0  0
    1.0963    0.3159   -0.1975 N   0  0  0  0  0  0  0  0  0  0  0  0
    2.4783    0.4187   -0.4171 C   0  0  0  0  0  0  0  0  0  0  0  0
    3.2818   -0.5956    0.0803 C   0  0  0  0  0  0  0  0  0  0  0  0
    4.6516   -0.5594   -0.1750 C   0  0  0  0  0  0  0  0  0  0  0  0
    5.7487   -1.3970    0.1602 C   0  0  0  0  0  0  0  0  0  0  0  0
    5.6386   -2.8505    1.0701 Cl  0  0  0  0  0  0  0  0  0  0  0  0
    6.8948   -0.8493   -0.3527 C   0  0  0  0  0  0  0  0  0  0  0  0
    8.2899   -1.3469   -0.2761 C   0  0  0  0  0  0  0  0  0  0  0  0
    6.5579    0.3146   -0.9973 N   0  0  0  0  0  0  0  0  0  0  0  0
    7.4550    1.1745   -1.7309 C   0  0  0  0  0  0  0  0  0  0  0  0
    5.2049    0.5056   -0.9100 C   0  0  0  0  0  0  0  0  0  0  0  0
    4.3998    1.5215   -1.4165 C   0  0  0  0  0  0  0  0  0  0  0  0
    3.0413    1.4660   -1.1733 C   0  0  0  0  0  0  0  0  0  0  0  0
   -2.4222    3.8874    0.7998 H   0  0  0  0  0  0  0  0  0  0  0  0
   -0.0481    4.4993    0.3417 H   0  0  0  0  0  0  0  0  0  0  0  0
   -6.3917   -0.3267   -1.7761 H   0  0  0  0  0  0  0  0  0  0  0  0
   -7.6532   -0.1753   -0.5292 H   0  0  0  0  0  0  0  0  0  0  0  0
   -8.8011   -2.0448   -1.5620 H   0  0  0  0  0  0  0  0  0  0  0  0
   -7.5390   -3.5044   -2.8440 H   0  0  0  0  0  0  0  0  0  0  0  0
   -7.9436   -2.7390    0.6010 H   0  0  0  0  0  0  0  0  0  0  0  0
   -6.7831   -3.7884   -0.2524 H   0  0  0  0  0  0  0  0  0  0  0  0
   -6.8164   -0.8584    1.7400 H   0  0  0  0  0  0  0  0  0  0  0  0
   -5.4419   -1.9534    1.8057 H   0  0  0  0  0  0  0  0  0  0  0  0
   -2.9738   -0.8099    0.5829 H   0  0  0  0  0  0  0  0  0  0  0  0
   -7.0321    1.5038    2.5280 H   0  0  0  0  0  0  0  0  0  0  0  0
   -6.5305    3.0421    1.8194 H   0  0  0  0  0  0  0  0  0  0  0  0
   -7.3387    1.8269    0.8306 H   0  0  0  0  0  0  0  0  0  0  0  0
    0.7388   -0.6163   -0.0556 H   0  0  0  0  0  0  0  0  0  0  0  0
    2.8501   -1.4052    0.6572 H   0  0  0  0  0  0  0  0  0  0  0  0
    8.6935   -1.5693   -1.2653 H   0  0  0  0  0  0  0  0  0  0  0  0
    8.9524   -0.6184    0.1944 H   0  0  0  0  0  0  0  0  0  0  0  0
    8.3292   -2.2605    0.3126 H   0  0  0  0  0  0  0  0  0  0  0  0
    7.3494    1.0345   -2.8072 H   0  0  0  0  0  0  0  0  0  0  0  0
    7.2535    2.2173   -1.4916 H   0  0  0  0  0  0  0  0  0  0  0  0
    8.4834    0.9622   -1.4535 H   0  0  0  0  0  0  0  0  0  0  0  0
    4.8112    2.3365   -1.9981 H   0  0  0  0  0  0  0  0  0  0  0  0
    2.4063    2.2402   -1.5745 H   0  0  0  0  0  0  0  0  0  0  0  0
   -5.9002   -1.1627    1.2057 C   0  0  0  0  0  0  0  0  0  0  0  0
 30 29  2  0
 30 19  1  0
 29 28  1  0
 18 19  1  0
 18 17  1  0
 19 20  2  0
 27 26  1  0
  4 17  2  0
  4  3  1  0
 28 26  1  0
 28 21  2  0
 17  5  1  0
 26 24  1  0
  3  2  2  0
 20 21  1  0
 21 22  1  0
  5  1  2  0
 24 22  2  0
 24 25  1  0
  2  1  1  0
 22 23  1  0
  1 16  1  0
 16 12  1  0
 16 15  1  0
 12 11  2  0
 15 13  2  0
 11 13  1  0
 11 55  1  0
 13 14  1  0
 55 10  1  0
  9 10  1  0
  9  7  1  0
 10  6  1  0
  8  7  1  0
  7  6  1  0
  2 31  1  0
  3 32  1  0
  6 33  1  0
  6 34  1  0
  7 35  1  6
  8 36  1  0
  9 37  1  0
  9 38  1  0
 55 39  1  0
 55 40  1  0
 12 41  1  0
 14 42  1  0
 14 43  1  0
 14 44  1  0
 18 45  1  0
 20 46  1  0
 25 47  1  0
 25 48  1  0
 25 49  1  0
 27 50  1  0
 27 51  1  0
 27 52  1  0
 29 53  1  0
 30 54  1  0
M  END
