
     RDKit          3D

 72 75  0  0  0  0  0  0  0  0999 V2000
    2.6631    3.1853   -0.1858 C   0  0  0  0  0  0  0  0  0  0  0  0
    3.7718    3.1355    0.6455 C   0  0  0  0  0  0  0  0  0  0  0  0
    3.7991    2.3119    1.7603 C   0  0  0  0  0  0  0  0  0  0  0  0
    2.6919    1.5290    2.0443 C   0  0  0  0  0  0  0  0  0  0  0  0
   -1.4655   -0.7040    0.7374 C   0  0  1  0  0  0  0  0  0  0  0  0
   -4.5496    0.8435   -0.8823 C   0  0  1  0  0  0  0  0  0  0  0  0
   -5.4286    2.4270   -2.6311 C   0  0  0  0  0  0  0  0  0  0  0  0
   -5.8235    0.0104   -0.9955 C   0  0  0  0  0  0  0  0  0  0  0  0
   -3.0800   -2.2206    1.9377 C   0  0  0  0  0  0  0  0  0  0  0  0
   -3.3536   -3.0468    3.1911 C   0  0  0  0  0  0  0  0  0  0  0  0
   -0.8884   -3.3000    3.5720 C   0  0  0  0  0  0  0  0  0  0  0  0
    0.6087   -0.4122   -0.5381 C   0  0  0  0  0  0  0  0  0  0  0  0
    2.6022   -1.3705   -1.5176 C   0  0  0  0  0  0  0  0  0  0  0  0
   -0.0609    0.8278    2.7153 O   0  0  0  0  0  0  0  0  0  0  0  0
    1.5840    1.5383    1.2047 C   0  0  0  0  0  0  0  0  0  0  0  0
    1.5744    2.3758    0.0944 C   0  0  0  0  0  0  0  0  0  0  0  0
    5.1463    4.1260    0.2875 Cl  0  0  0  0  0  0  0  0  0  0  0  0
   -0.1393   -0.0852    0.6263 N   0  0  0  0  0  0  0  0  0  0  0  0
   -1.7412   -1.4801    2.0386 C   0  0  1  0  0  0  0  0  0  0  0  0
   -2.2241   -4.0276    3.4785 C   0  0  0  0  0  0  0  0  0  0  0  0
   -0.6159   -2.4777    2.3170 C   0  0  0  0  0  0  0  0  0  0  0  0
   -2.5254    0.3610    0.4456 C   0  0  0  0  0  0  0  0  0  0  0  0
   -2.5144    1.4442    1.0091 O   0  0  0  0  0  0  0  0  0  0  0  0
   -3.4380    0.0068   -0.4703 N   0  0  0  0  0  0  0  0  0  0  0  0
   -4.2467    1.5653   -2.1950 C   0  0  0  0  0  0  0  0  0  0  0  0
   -6.7054    1.5997   -2.7419 C   0  0  0  0  0  0  0  0  0  0  0  0
   -7.0025    0.8749   -1.4331 C   0  0  0  0  0  0  0  0  0  0  0  0
    1.8329   -1.0440   -0.3996 C   0  0  0  0  0  0  0  0  0  0  0  0
    2.1042   -1.0852   -2.7898 C   0  0  0  0  0  0  0  0  0  0  0  0
    0.8595   -0.4839   -2.9124 C   0  0  0  0  0  0  0  0  0  0  0  0
    0.1053   -0.1369   -1.8042 C   0  0  0  0  0  0  0  0  0  0  0  0
    3.8370   -1.9708   -1.2677 N   0  0  0  0  0  0  0  0  0  0  0  0
    4.7132   -2.5424   -2.1390 C   0  0  0  0  0  0  0  0  0  0  0  0
    4.5463   -2.5732   -3.3444 O   0  0  0  0  0  0  0  0  0  0  0  0
    5.9074   -3.1734   -1.4692 C   0  0  0  0  0  0  0  0  0  0  0  0
    2.6462    3.8437   -1.0432 H   0  0  0  0  0  0  0  0  0  0  0  0
    4.6681    2.2836    2.4032 H   0  0  0  0  0  0  0  0  0  0  0  0
    2.7072    0.8923    2.9194 H   0  0  0  0  0  0  0  0  0  0  0  0
   -1.4905   -1.4538   -0.0583 H   0  0  0  0  0  0  0  0  0  0  0  0
   -4.6925    1.5915   -0.0988 H   0  0  0  0  0  0  0  0  0  0  0  0
   -5.2030    2.9116   -3.5836 H   0  0  0  0  0  0  0  0  0  0  0  0
   -5.6693   -0.7900   -1.7289 H   0  0  0  0  0  0  0  0  0  0  0  0
   -6.0355   -0.4698   -0.0369 H   0  0  0  0  0  0  0  0  0  0  0  0
   -3.0723   -2.8789    1.0600 H   0  0  0  0  0  0  0  0  0  0  0  0
   -3.9014   -1.5151    1.7916 H   0  0  0  0  0  0  0  0  0  0  0  0
   -3.4710   -2.3709    4.0454 H   0  0  0  0  0  0  0  0  0  0  0  0
   -4.3028   -3.5767    3.0823 H   0  0  0  0  0  0  0  0  0  0  0  0
   -0.8924   -2.6395    4.4461 H   0  0  0  0  0  0  0  0  0  0  0  0
   -0.0761   -4.0144    3.7271 H   0  0  0  0  0  0  0  0  0  0  0  0
    0.7128    2.4141   -0.5591 H   0  0  0  0  0  0  0  0  0  0  0  0
   -1.8101   -0.7825    2.8743 H   0  0  0  0  0  0  0  0  0  0  0  0
   -2.4236   -4.5772    4.4017 H   0  0  0  0  0  0  0  0  0  0  0  0
   -2.1745   -4.7710    2.6754 H   0  0  0  0  0  0  0  0  0  0  0  0
    0.3420   -1.9640    2.4177 H   0  0  0  0  0  0  0  0  0  0  0  0
   -0.5172   -3.1552    1.4593 H   0  0  0  0  0  0  0  0  0  0  0  0
   -3.3531   -0.8959   -0.9113 H   0  0  0  0  0  0  0  0  0  0  0  0
   -3.3499    2.1792   -2.0783 H   0  0  0  0  0  0  0  0  0  0  0  0
   -4.0292    0.8202   -2.9686 H   0  0  0  0  0  0  0  0  0  0  0  0
   -7.5476    2.2377   -3.0196 H   0  0  0  0  0  0  0  0  0  0  0  0
   -6.5898    0.8635   -3.5445 H   0  0  0  0  0  0  0  0  0  0  0  0
   -7.8965    0.2557   -1.5330 H   0  0  0  0  0  0  0  0  0  0  0  0
   -7.2191    1.6115   -0.6519 H   0  0  0  0  0  0  0  0  0  0  0  0
    2.1929   -1.2925    0.5920 H   0  0  0  0  0  0  0  0  0  0  0  0
    2.6682   -1.3230   -3.6756 H   0  0  0  0  0  0  0  0  0  0  0  0
    0.4792   -0.2681   -3.9020 H   0  0  0  0  0  0  0  0  0  0  0  0
   -0.8503    0.3562   -1.9298 H   0  0  0  0  0  0  0  0  0  0  0  0
    4.0852   -2.0352   -0.2924 H   0  0  0  0  0  0  0  0  0  0  0  0
    5.6673   -4.2050   -1.2045 H   0  0  0  0  0  0  0  0  0  0  0  0
    6.7511   -3.1906   -2.1546 H   0  0  0  0  0  0  0  0  0  0  0  0
    6.2020   -2.6569   -0.5570 H   0  0  0  0  0  0  0  0  0  0  0  0
    0.3851    0.7274    1.5886 C   0  0  0  0  0  0  0  0  0  0  0  0
   -5.5779    3.2298   -1.9013 H   0  0  0  0  0  0  0  0  0  0  0  0
 10 20  1  0
 10  9  1  0
 20 11  1  0
  9 19  1  0
  7 25  1  0
  7 26  1  0
 25  6  1  0
 11 21  1  0
 26 27  1  0
 19 21  1  0
 19  5  1  0
  6 24  1  0
  6  8  1  0
 23 22  2  0
 24 22  1  0
 22  5  1  0
  5 18  1  0
 27  8  1  0
 34 33  2  0
 35 33  1  0
 33 32  1  0
 18 12  1  0
 18 71  1  0
 28 12  1  0
 28 13  2  0
 12 31  2  0
 32 13  1  0
 14 71  2  0
 13 29  1  0
 71 15  1  0
 31 30  1  0
 29 30  2  0
 15  4  2  0
 15 16  1  0
  4  3  1  0
 16  1  2  0
  3  2  2  0
  1  2  1  0
  2 17  1  0
  1 36  1  0
  3 37  1  0
  4 38  1  0
  5 39  1  6
  6 40  1  1
  7 72  1  0
  7 41  1  0
  8 42  1  0
  8 43  1  0
  9 44  1  0
  9 45  1  0
 10 46  1  0
 10 47  1  0
 11 48  1  0
 11 49  1  0
 16 50  1  0
 19 51  1  1
 20 52  1  0
 20 53  1  0
 21 54  1  0
 21 55  1  0
 24 56  1  0
 25 57  1  0
 25 58  1  0
 26 59  1  0
 26 60  1  0
 27 61  1  0
 27 62  1  0
 28 63  1  0
 29 64  1  0
 30 65  1  0
 31 66  1  0
 32 67  1  0
 35 68  1  0
 35 69  1  0
 35 70  1  0
M  END
