
     RDKit          3D

 38 40  0  0  0  0  0  0  0  0999 V2000
    3.3144    0.7874    0.5383 C   0  0  0  0  0  0  0  0  0  0  0  0
   -1.9470    0.0107   -1.3847 C   0  0  0  0  0  0  0  0  0  0  0  0
   -3.0003    0.1280   -0.2754 C   0  0  1  0  0  0  0  0  0  0  0  0
   -3.9649   -0.9094    1.8202 C   0  0  0  0  0  0  0  0  0  0  0  0
   -5.3539   -0.9184    1.1914 C   0  0  0  0  0  0  0  0  0  0  0  0
   -5.4927    0.1945    0.1586 C   0  0  0  0  0  0  0  0  0  0  0  0
   -4.3965    0.1162   -0.8973 C   0  0  0  0  0  0  0  0  0  0  0  0
   -2.8677   -0.9841    0.7632 C   0  0  0  0  0  0  0  0  0  0  0  0
    4.2837   -0.1948    0.4346 C   0  0  0  0  0  0  0  0  0  0  0  0
    3.9682   -1.4248   -0.1454 C   0  0  0  0  0  0  0  0  0  0  0  0
    2.6885   -1.6899   -0.6299 C   0  0  0  0  0  0  0  0  0  0  0  0
    1.7118   -0.7108   -0.5317 C   0  0  0  0  0  0  0  0  0  0  0  0
    0.3734   -0.9092   -1.0168 C   0  0  0  0  0  0  0  0  0  0  0  0
   -0.5387    0.0653   -0.9119 C   0  0  0  0  0  0  0  0  0  0  0  0
    0.9928    1.5437    0.1567 C   0  0  0  0  0  0  0  0  0  0  0  0
    2.0089    0.5355    0.0536 C   0  0  0  0  0  0  0  0  0  0  0  0
    3.6452    1.9494    1.0938 O   0  0  0  0  0  0  0  0  0  0  0  0
    4.9505   -2.3276   -0.2106 O   0  0  0  0  0  0  0  0  0  0  0  0
   -0.2274    1.2576   -0.3328 O   0  0  0  0  0  0  0  0  0  0  0  0
    1.1426    2.6488    0.6529 O   0  0  0  0  0  0  0  0  0  0  0  0
   -2.0851   -0.9310   -1.9209 H   0  0  0  0  0  0  0  0  0  0  0  0
   -2.1038    0.8130   -2.1139 H   0  0  0  0  0  0  0  0  0  0  0  0
   -2.8682    1.0921    0.2308 H   0  0  0  0  0  0  0  0  0  0  0  0
   -3.8422    0.0072    2.4078 H   0  0  0  0  0  0  0  0  0  0  0  0
   -3.8607   -1.7402    2.5223 H   0  0  0  0  0  0  0  0  0  0  0  0
   -5.5299   -1.8873    0.7114 H   0  0  0  0  0  0  0  0  0  0  0  0
   -6.1191   -0.8136    1.9646 H   0  0  0  0  0  0  0  0  0  0  0  0
   -6.4744    0.1518   -0.3198 H   0  0  0  0  0  0  0  0  0  0  0  0
   -5.4374    1.1648    0.6647 H   0  0  0  0  0  0  0  0  0  0  0  0
   -4.4937    0.9463   -1.6032 H   0  0  0  0  0  0  0  0  0  0  0  0
   -4.5161   -0.8029   -1.4840 H   0  0  0  0  0  0  0  0  0  0  0  0
   -2.9161   -1.9540    0.2526 H   0  0  0  0  0  0  0  0  0  0  0  0
   -1.8870   -0.9420    1.2453 H   0  0  0  0  0  0  0  0  0  0  0  0
    5.2848   -0.0091    0.8030 H   0  0  0  0  0  0  0  0  0  0  0  0
    2.4544   -2.6478   -1.0795 H   0  0  0  0  0  0  0  0  0  0  0  0
    0.0942   -1.8469   -1.4760 H   0  0  0  0  0  0  0  0  0  0  0  0
    2.8550    2.5287    1.0983 H   0  0  0  0  0  0  0  0  0  0  0  0
    4.6429   -3.1396   -0.6309 H   0  0  0  0  0  0  0  0  0  0  0  0
 18 10  1  0
 10 11  2  0
 10  9  1  0
 11 12  1  0
  9  1  2  0
 12 13  1  0
 12 16  2  0
  1 16  1  0
  1 17  1  0
 13 14  2  0
 16 15  1  0
 14  2  1  0
 14 19  1  0
 15 19  1  0
 15 20  2  0
  2  3  1  0
  8  3  1  0
  8  4  1  0
  3  7  1  0
  4  5  1  0
  7  6  1  0
  5  6  1  0
  2 21  1  0
  2 22  1  0
  3 23  1  1
  4 24  1  0
  4 25  1  0
  5 26  1  0
  5 27  1  0
  6 28  1  0
  6 29  1  0
  7 30  1  0
  7 31  1  0
  8 32  1  0
  8 33  1  0
  9 34  1  0
 11 35  1  0
 13 36  1  0
 17 37  1  0
 18 38  1  0
M  END
