
     RDKit          3D

 57 59  0  0  0  0  0  0  0  0999 V2000
    1.6005   -0.8351    0.7176 C   0  0  0  0  0  0  0  0  0  0  0  0
    0.2783   -1.2045    0.8886 C   0  0  0  0  0  0  0  0  0  0  0  0
    1.9005    0.3047   -0.0362 C   0  0  0  0  0  0  0  0  0  0  0  0
    2.6925   -1.6842    1.3139 C   0  0  0  0  0  0  0  0  0  0  0  0
   -0.7891   -0.5045    0.3204 C   0  0  0  0  0  0  0  0  0  0  0  0
    0.8648    1.0376   -0.6079 C   0  0  0  0  0  0  0  0  0  0  0  0
    3.2046    0.6376   -0.1406 O   0  0  0  0  0  0  0  0  0  0  0  0
    3.1975   -2.6675    0.3697 N   0  0  0  0  0  0  0  0  0  0  0  0
   -0.4524    0.6176   -0.4223 C   0  0  0  0  0  0  0  0  0  0  0  0
   -2.2294   -0.9732    0.5832 C   0  0  1  0  0  0  0  0  0  0  0  0
    1.1009    2.3077   -1.3834 C   0  0  0  0  0  0  0  0  0  0  0  0
    4.1796   -2.4931   -0.5646 C   0  0  0  0  0  0  0  0  0  0  0  0
    2.7050   -3.9122    0.1953 C   0  0  0  0  0  0  0  0  0  0  0  0
   -3.2086   -0.1029   -0.2363 C   0  0  0  0  0  0  0  0  0  0  0  0
   -2.3425   -2.4566    0.2127 C   0  0  0  0  0  0  0  0  0  0  0  0
   -2.4709   -0.8031    2.0931 C   0  0  0  0  0  0  0  0  0  0  0  0
    0.9108    3.4872   -0.5599 N   0  0  0  0  0  0  0  0  0  0  0  0
    4.2342   -3.6673   -1.2603 C   0  0  0  0  0  0  0  0  0  0  0  0
    3.3086   -4.5479   -0.7758 N   0  0  0  0  0  0  0  0  0  0  0  0
   -4.7182   -0.4143   -0.4118 C   0  0  1  0  0  0  0  0  0  0  0  0
    1.6594    3.8636    0.5199 C   0  0  0  0  0  0  0  0  0  0  0  0
   -0.0891    4.3865   -0.6799 C   0  0  0  0  0  0  0  0  0  0  0  0
   -5.4548   -0.7886    0.8746 C   0  0  0  0  0  0  0  0  0  0  0  0
   -5.3392    0.8836   -0.9492 C   0  0  0  0  0  0  0  0  0  0  0  0
   -4.9580   -1.4975   -1.4699 C   0  0  0  0  0  0  0  0  0  0  0  0
    1.0654    4.9968    0.9970 C   0  0  0  0  0  0  0  0  0  0  0  0
   -0.0263    5.3144    0.2397 N   0  0  0  0  0  0  0  0  0  0  0  0
    0.0835   -2.0795    1.4985 H   0  0  0  0  0  0  0  0  0  0  0  0
    3.5319   -1.0895    1.6690 H   0  0  0  0  0  0  0  0  0  0  0  0
    2.3035   -2.2278    2.1744 H   0  0  0  0  0  0  0  0  0  0  0  0
    3.3531    1.3192   -0.8037 H   0  0  0  0  0  0  0  0  0  0  0  0
   -1.2224    1.2190   -0.8874 H   0  0  0  0  0  0  0  0  0  0  0  0
    2.0872    2.3574   -1.8483 H   0  0  0  0  0  0  0  0  0  0  0  0
    0.3912    2.3709   -2.2076 H   0  0  0  0  0  0  0  0  0  0  0  0
    4.7395   -1.5778   -0.6486 H   0  0  0  0  0  0  0  0  0  0  0  0
    1.9106   -4.3053    0.8127 H   0  0  0  0  0  0  0  0  0  0  0  0
   -3.1379    0.9104    0.1747 H   0  0  0  0  0  0  0  0  0  0  0  0
   -2.8205   -0.0329   -1.2582 H   0  0  0  0  0  0  0  0  0  0  0  0
   -1.5998   -3.0619    0.7332 H   0  0  0  0  0  0  0  0  0  0  0  0
   -3.3186   -2.8559    0.4884 H   0  0  0  0  0  0  0  0  0  0  0  0
   -2.2006   -2.6111   -0.8579 H   0  0  0  0  0  0  0  0  0  0  0  0
   -2.4280    0.2499    2.3788 H   0  0  0  0  0  0  0  0  0  0  0  0
   -3.4399   -1.1926    2.3952 H   0  0  0  0  0  0  0  0  0  0  0  0
   -1.7171   -1.3341    2.6763 H   0  0  0  0  0  0  0  0  0  0  0  0
    4.8943   -3.9219   -2.0755 H   0  0  0  0  0  0  0  0  0  0  0  0
    2.5263    3.3144    0.8487 H   0  0  0  0  0  0  0  0  0  0  0  0
   -0.8296    4.3135   -1.4626 H   0  0  0  0  0  0  0  0  0  0  0  0
   -5.2946   -0.0502    1.6625 H   0  0  0  0  0  0  0  0  0  0  0  0
   -6.5301   -0.8368    0.6867 H   0  0  0  0  0  0  0  0  0  0  0  0
   -5.1557   -1.7642    1.2616 H   0  0  0  0  0  0  0  0  0  0  0  0
   -4.8270    1.2171   -1.8546 H   0  0  0  0  0  0  0  0  0  0  0  0
   -6.3929    0.7410   -1.1980 H   0  0  0  0  0  0  0  0  0  0  0  0
   -5.2748    1.6896   -0.2147 H   0  0  0  0  0  0  0  0  0  0  0  0
   -4.5928   -2.4773   -1.1691 H   0  0  0  0  0  0  0  0  0  0  0  0
   -6.0269   -1.5985   -1.6713 H   0  0  0  0  0  0  0  0  0  0  0  0
   -4.4711   -1.2345   -2.4120 H   0  0  0  0  0  0  0  0  0  0  0  0
    1.3712    5.5964    1.8408 H   0  0  0  0  0  0  0  0  0  0  0  0
  1  2  2  0
  1  3  1  0
  1  4  1  0
  2  5  1  0
  3  6  2  0
  3  7  1  0
  4  8  1  0
  5  9  2  0
  5 10  1  0
  6  9  1  0
  6 11  1  0
  8 12  1  0
  8 13  1  0
 10 14  1  6
 10 15  1  0
 10 16  1  0
 11 17  1  0
 12 18  2  0
 13 19  2  0
 20 14  1  1
 17 21  1  0
 17 22  1  0
 18 19  1  0
 20 23  1  0
 20 24  1  0
 20 25  1  0
 21 26  2  0
 22 27  2  0
 26 27  1  0
  2 28  1  0
  4 29  1  0
  4 30  1  0
  7 31  1  0
  9 32  1  0
 11 33  1  0
 11 34  1  0
 12 35  1  0
 13 36  1  0
 14 37  1  0
 14 38  1  0
 15 39  1  0
 15 40  1  0
 15 41  1  0
 16 42  1  0
 16 43  1  0
 16 44  1  0
 18 45  1  0
 21 46  1  0
 22 47  1  0
 23 48  1  0
 23 49  1  0
 23 50  1  0
 24 51  1  0
 24 52  1  0
 24 53  1  0
 25 54  1  0
 25 55  1  0
 25 56  1  0
 26 57  1  0
M  END
