
     RDKit          3D

 23 24  0  0  0  0  0  0  0  0999 V2000
   -0.4867   -1.5402    0.5589 C   0  0  0  0  0  0  0  0  0  0  0  0
   -2.6197   -0.3657    0.1374 C   0  0  0  0  0  0  0  0  0  0  0  0
   -3.9161    0.0958   -0.0741 C   0  0  0  0  0  0  0  0  0  0  0  0
   -4.0899    1.4336   -0.3701 C   0  0  0  0  0  0  0  0  0  0  0  0
   -2.9909    2.2971   -0.4574 C   0  0  0  0  0  0  0  0  0  0  0  0
   -1.7075    1.8327   -0.2527 C   0  0  0  0  0  0  0  0  0  0  0  0
   -1.5051    0.4829    0.0545 C   0  0  0  0  0  0  0  0  0  0  0  0
    3.3877    0.9313    0.2404 C   0  0  0  0  0  0  0  0  0  0  0  0
    4.5375    0.3596   -0.0786 O   0  0  0  0  0  0  0  0  0  0  0  0
    2.2349    0.0163    0.0152 C   0  0  0  0  0  0  0  0  0  0  0  0
   -0.2649   -0.2205    0.2999 C   0  0  0  0  0  0  0  0  0  0  0  0
    3.2926    2.0525    0.6752 O   0  0  0  0  0  0  0  0  0  0  0  0
    2.6584   -1.5490   -0.6736 S   0  0  0  0  0  0  0  0  0  0  0  0
   -2.1451   -1.9874    0.5236 S   0  0  0  0  0  0  0  0  0  0  0  0
    0.2459   -2.2876    0.8244 H   0  0  0  0  0  0  0  0  0  0  0  0
   -4.7636   -0.5735   -0.0073 H   0  0  0  0  0  0  0  0  0  0  0  0
   -5.0875    1.8172   -0.5374 H   0  0  0  0  0  0  0  0  0  0  0  0
   -3.1514    3.3413   -0.6909 H   0  0  0  0  0  0  0  0  0  0  0  0
   -0.8678    2.5108   -0.3337 H   0  0  0  0  0  0  0  0  0  0  0  0
    5.2741    0.9671    0.0880 H   0  0  0  0  0  0  0  0  0  0  0  0
    0.9670    1.4980    0.6727 H   0  0  0  0  0  0  0  0  0  0  0  0
    1.4311   -1.8832   -1.0924 H   0  0  0  0  0  0  0  0  0  0  0  0
    1.0119    0.4659    0.3406 C   0  0  0  0  0  0  0  0  0  0  0  0
 13 10  1  0
 12  8  2  0
  1 14  1  0
  1 11  2  0
 14  2  1  0
 10  8  1  0
 10 23  2  0
  8  9  1  0
 11 23  1  0
 11  7  1  0
  2  7  2  0
  2  3  1  0
  7  6  1  0
  3  4  2  0
  6  5  2  0
  4  5  1  0
  1 15  1  0
  3 16  1  0
  4 17  1  0
  5 18  1  0
  6 19  1  0
  9 20  1  0
 23 21  1  0
 13 22  1  0
M  END
