
     RDKit          3D

 69 73  0  0  0  0  0  0  0  0999 V2000
  -10.4844   -1.1198   -0.9212 S   0  0  0  0  0  0  0  0  0  0  0  0
  -11.7266   -1.4165   -2.0562 C   0  0  0  0  0  0  0  0  0  0  0  0
  -11.5220   -0.7349   -3.2191 C   0  0  0  0  0  0  0  0  0  0  0  0
  -10.3399    0.0452   -3.1904 C   0  0  0  0  0  0  0  0  0  0  0  0
   -9.6693   -0.0534   -2.0043 C   0  0  0  0  0  0  0  0  0  0  0  0
   -8.4037    0.6070   -1.6501 C   0  0  0  0  0  0  0  0  0  0  0  0
   -8.2175    0.7530   -0.2886 N   0  0  0  0  0  0  0  0  0  0  0  0
   -7.6221    0.9600   -2.5907 N   0  0  0  0  0  0  0  0  0  0  0  0
   -0.2368   -0.4075    2.6686 N   0  0  0  0  0  0  0  0  0  0  0  0
   -7.0550    1.2195    0.3324 C   0  0  0  0  0  0  0  0  0  0  0  0
   -7.1671    2.0788    1.4246 C   0  0  0  0  0  0  0  0  0  0  0  0
   -6.0267    2.5053    2.0845 C   0  0  0  0  0  0  0  0  0  0  0  0
   -4.7655    2.1098    1.6595 C   0  0  0  0  0  0  0  0  0  0  0  0
   -4.6454    1.2503    0.5725 C   0  0  0  0  0  0  0  0  0  0  0  0
   -5.7901    0.7968   -0.0736 C   0  0  0  0  0  0  0  0  0  0  0  0
   -3.3044    0.8236    0.0439 C   0  0  0  0  0  0  0  0  0  0  0  0
   -2.3405    0.8663    1.0576 O   0  0  0  0  0  0  0  0  0  0  0  0
   -1.0403    0.6325    0.5783 C   0  0  0  0  0  0  0  0  0  0  0  0
   -0.0508    0.7043    1.7218 C   0  0  2  0  0  0  0  0  0  0  0  0
    9.5995    1.9800   -0.7709 S   0  0  0  0  0  0  0  0  0  0  0  0
   10.0975    3.1062   -1.9559 C   0  0  0  0  0  0  0  0  0  0  0  0
    9.2585    3.1138   -3.0307 C   0  0  0  0  0  0  0  0  0  0  0  0
    8.1931    2.1901   -2.8937 C   0  0  0  0  0  0  0  0  0  0  0  0
    8.2456    1.4921   -1.7209 C   0  0  0  0  0  0  0  0  0  0  0  0
    7.2913    0.4745   -1.2544 C   0  0  0  0  0  0  0  0  0  0  0  0
    6.0958    0.5201   -1.6893 N   0  0  0  0  0  0  0  0  0  0  0  0
    1.3923    0.6052    1.1895 C   0  0  0  0  0  0  0  0  0  0  0  0
    5.9147   -1.1423    0.9482 C   0  0  0  0  0  0  0  0  0  0  0  0
    7.1278   -1.4206    0.3223 C   0  0  0  0  0  0  0  0  0  0  0  0
    7.6714   -2.7015    0.4169 C   0  0  0  0  0  0  0  0  0  0  0  0
    7.0007   -3.6846    1.1242 C   0  0  0  0  0  0  0  0  0  0  0  0
    5.7766   -3.4135    1.7209 C   0  0  0  0  0  0  0  0  0  0  0  0
    5.2306   -2.1380    1.6378 C   0  0  0  0  0  0  0  0  0  0  0  0
    3.9334   -1.8175    2.3276 C   0  0  0  0  0  0  0  0  0  0  0  0
    3.1526   -1.0040    1.4887 O   0  0  0  0  0  0  0  0  0  0  0  0
    2.0699   -0.3814    2.1303 C   0  0  2  0  0  0  0  0  0  0  0  0
    0.9024   -1.2980    2.5124 C   0  0  0  0  0  0  0  0  0  0  0  0
  -12.5396   -2.0820   -1.8096 H   0  0  0  0  0  0  0  0  0  0  0  0
  -12.1916   -0.7873   -4.0651 H   0  0  0  0  0  0  0  0  0  0  0  0
   -9.9989    0.6655   -4.0066 H   0  0  0  0  0  0  0  0  0  0  0  0
   -9.0595    0.8555    0.2585 H   0  0  0  0  0  0  0  0  0  0  0  0
   -6.8151    1.4737   -2.2505 H   0  0  0  0  0  0  0  0  0  0  0  0
   -0.2438   -0.0430    3.6110 H   0  0  0  0  0  0  0  0  0  0  0  0
   -8.1446    2.4055    1.7583 H   0  0  0  0  0  0  0  0  0  0  0  0
   -6.1232    3.1663    2.9361 H   0  0  0  0  0  0  0  0  0  0  0  0
   -3.8871    2.4655    2.1798 H   0  0  0  0  0  0  0  0  0  0  0  0
   -5.6885    0.0824   -0.8820 H   0  0  0  0  0  0  0  0  0  0  0  0
   -3.3798   -0.1841   -0.3898 H   0  0  0  0  0  0  0  0  0  0  0  0
   -3.0231    1.4902   -0.7861 H   0  0  0  0  0  0  0  0  0  0  0  0
   -0.9728   -0.3549    0.0963 H   0  0  0  0  0  0  0  0  0  0  0  0
   -0.7737    1.3779   -0.1863 H   0  0  0  0  0  0  0  0  0  0  0  0
   -0.1995    1.6521    2.2457 H   0  0  0  0  0  0  0  0  0  0  0  0
    9.3982    3.7531   -3.8901 H   0  0  0  0  0  0  0  0  0  0  0  0
    7.4223    2.0342   -3.6343 H   0  0  0  0  0  0  0  0  0  0  0  0
    5.5392   -0.2642   -1.3641 H   0  0  0  0  0  0  0  0  0  0  0  0
    1.4040    0.1911    0.1756 H   0  0  0  0  0  0  0  0  0  0  0  0
    1.8904    1.5736    1.1504 H   0  0  0  0  0  0  0  0  0  0  0  0
    5.5083   -0.1394    0.9191 H   0  0  0  0  0  0  0  0  0  0  0  0
    8.6158   -2.9259   -0.0639 H   0  0  0  0  0  0  0  0  0  0  0  0
    7.4263   -4.6772    1.1916 H   0  0  0  0  0  0  0  0  0  0  0  0
    5.2488   -4.1954    2.2527 H   0  0  0  0  0  0  0  0  0  0  0  0
    3.4157   -2.7496    2.5882 H   0  0  0  0  0  0  0  0  0  0  0  0
    4.1442   -1.3008    3.2756 H   0  0  0  0  0  0  0  0  0  0  0  0
    2.4171    0.1397    3.0363 H   0  0  0  0  0  0  0  0  0  0  0  0
    1.0645   -1.8725    3.4252 H   0  0  0  0  0  0  0  0  0  0  0  0
    0.7287   -2.0130    1.6991 H   0  0  0  0  0  0  0  0  0  0  0  0
    7.8381   -0.4261   -0.3600 N   0  0  0  0  0  0  0  0  0  0  0  0
   10.9795    3.7074   -1.7968 H   0  0  0  0  0  0  0  0  0  0  0  0
    8.8236   -0.6121   -0.4755 H   0  0  0  0  0  0  0  0  0  0  0  0
  1  2  1  0
  1  5  1  0
  2  3  2  0
  3  4  1  0
  4  5  2  0
  5  6  1  0
  6  7  1  0
  6  8  2  0
  7 10  1  0
  9 19  1  0
  9 37  1  0
 10 11  2  0
 10 15  1  0
 11 12  1  0
 12 13  2  0
 13 14  1  0
 14 15  2  0
 14 16  1  0
 16 17  1  0
 17 18  1  0
 18 19  1  0
 19 27  1  0
 20 21  1  0
 20 24  1  0
 21 22  2  0
 22 23  1  0
 23 24  2  0
 24 25  1  0
 25 67  1  0
 25 26  2  0
 67 29  1  0
 27 36  1  0
 28 29  2  0
 28 33  1  0
 29 30  1  0
 30 31  2  0
 31 32  1  0
 32 33  2  0
 33 34  1  0
 34 35  1  0
 35 36  1  0
 36 37  1  0
  2 38  1  0
  3 39  1  0
  4 40  1  0
  7 41  1  0
  8 42  1  0
  9 43  1  0
 11 44  1  0
 12 45  1  0
 13 46  1  0
 15 47  1  0
 16 48  1  0
 16 49  1  0
 18 50  1  0
 18 51  1  0
 19 52  1  1
 21 68  1  0
 22 53  1  0
 23 54  1  0
 26 55  1  0
 67 69  1  0
 27 56  1  0
 27 57  1  0
 28 58  1  0
 30 59  1  0
 31 60  1  0
 32 61  1  0
 34 62  1  0
 34 63  1  0
 36 64  1  1
 37 65  1  0
 37 66  1  0
M  END
