
     RDKit          3D

 43 45  0  0  0  0  0  0  0  0999 V2000
    2.8595    0.7818   -0.4431 C   0  0  0  0  0  0  0  0  0  0  0  0
    6.4397    0.2528   -1.4106 C   0  0  0  0  0  0  0  0  0  0  0  0
   -2.2813    1.3647   -1.6244 C   0  0  0  0  0  0  0  0  0  0  0  0
   -3.4433   -0.8121   -1.7244 C   0  0  0  0  0  0  0  0  0  0  0  0
   -4.3422   -2.8766   -0.9423 C   0  0  0  0  0  0  0  0  0  0  0  0
   -2.9926   -0.4888   -0.4349 C   0  0  0  0  0  0  0  0  0  0  0  0
   -1.5874    3.1548    0.9298 P   0  0  1  0  0  0  0  0  0  0  0  0
   -0.6630    3.6869   -0.1150 O   0  0  0  0  0  0  0  0  0  0  0  0
   -3.0764    3.7072    0.6897 O   0  0  0  0  0  0  0  0  0  0  0  0
   -1.7333    1.3213    0.8775 C   0  0  2  0  0  0  0  0  0  0  0  0
   -0.4004    0.6315    1.1656 C   0  0  0  0  0  0  0  0  0  0  0  0
   -0.2828   -0.1849    2.0576 O   0  0  0  0  0  0  0  0  0  0  0  0
    0.6091    0.9763    0.3286 N   0  0  0  0  0  0  0  0  0  0  0  0
    1.8653    0.3996    0.3646 C   0  0  0  0  0  0  0  0  0  0  0  0
    4.2004    0.2070   -0.4695 C   0  0  0  0  0  0  0  0  0  0  0  0
    5.1478    0.7536   -1.3377 C   0  0  0  0  0  0  0  0  0  0  0  0
    6.7976   -0.8082   -0.6089 C   0  0  0  0  0  0  0  0  0  0  0  0
    8.0349   -1.3142   -0.6509 F   0  0  0  0  0  0  0  0  0  0  0  0
    5.8682   -1.3630    0.2574 C   0  0  0  0  0  0  0  0  0  0  0  0
    6.2378   -2.3943    1.0247 F   0  0  0  0  0  0  0  0  0  0  0  0
    4.5862   -0.8724    0.3344 C   0  0  0  0  0  0  0  0  0  0  0  0
   -2.3235    0.7881   -0.3992 C   0  0  0  0  0  0  0  0  0  0  0  0
   -3.0404    0.4305   -2.8585 S   0  0  0  0  0  0  0  0  0  0  0  0
   -4.1190   -2.0008   -1.9843 C   0  0  0  0  0  0  0  0  0  0  0  0
   -3.8895   -2.5575    0.3420 C   0  0  0  0  0  0  0  0  0  0  0  0
   -4.1833   -3.6816    1.6287 Cl  0  0  0  0  0  0  0  0  0  0  0  0
   -3.2190   -1.3858    0.6144 C   0  0  0  0  0  0  0  0  0  0  0  0
    2.6836    1.5881   -1.1488 H   0  0  0  0  0  0  0  0  0  0  0  0
    7.1638    0.6867   -2.0875 H   0  0  0  0  0  0  0  0  0  0  0  0
   -1.8361    2.3104   -1.8934 H   0  0  0  0  0  0  0  0  0  0  0  0
   -4.8641   -3.8068   -1.1193 H   0  0  0  0  0  0  0  0  0  0  0  0
   -1.1200    4.6238    2.7545 H   0  0  0  0  0  0  0  0  0  0  0  0
   -1.8500    3.1141    3.3335 H   0  0  0  0  0  0  0  0  0  0  0  0
   -0.1472    3.1514    2.8483 H   0  0  0  0  0  0  0  0  0  0  0  0
   -2.3970    1.0546    1.7060 H   0  0  0  0  0  0  0  0  0  0  0  0
    0.4488    1.7226   -0.3374 H   0  0  0  0  0  0  0  0  0  0  0  0
    1.9733   -0.3905    1.0948 H   0  0  0  0  0  0  0  0  0  0  0  0
    4.8744    1.5898   -1.9680 H   0  0  0  0  0  0  0  0  0  0  0  0
    3.8990   -1.3440    1.0255 H   0  0  0  0  0  0  0  0  0  0  0  0
   -4.4634   -2.2428   -2.9808 H   0  0  0  0  0  0  0  0  0  0  0  0
   -2.8754   -1.1702    1.6173 H   0  0  0  0  0  0  0  0  0  0  0  0
   -3.7291    3.4952    1.3699 H   0  0  0  0  0  0  0  0  0  0  0  0
   -1.1399    3.5417    2.6263 C   0  0  0  0  0  0  0  0  0  0  0  0
  1 14  2  0
  1 15  1  0
  1 28  1  0
  2 16  2  0
  2 17  1  0
  2 29  1  0
  3 22  2  0
  3 23  1  0
  3 30  1  0
  4  6  2  0
  4 23  1  0
  4 24  1  0
  5 24  2  0
  5 25  1  0
  5 31  1  0
  6 22  1  0
  6 27  1  0
 43  7  1  0
 43 32  1  0
 43 33  1  0
 43 34  1  0
  7  8  2  0
  7  9  1  6
  7 10  1  0
 10 11  1  0
 10 22  1  0
 10 35  1  1
 11 12  2  0
 11 13  1  0
 13 14  1  0
 13 36  1  0
 14 37  1  0
 15 16  1  0
 15 21  2  0
 16 38  1  0
 17 18  1  0
 17 19  2  0
 19 20  1  0
 19 21  1  0
 21 39  1  0
 24 40  1  0
 25 26  1  0
 25 27  2  0
 27 41  1  0
  9 42  1  0
M  END
