
     RDKit          3D

 24 24  0  0  0  0  0  0  0  0999 V2000
   -0.1870   -0.4561   -0.3194 C   0  0  0  0  0  0  0  0  0  0  0  0
    0.9916   -0.7419   -1.0051 C   0  0  0  0  0  0  0  0  0  0  0  0
    1.1506   -0.3816   -2.3378 C   0  0  0  0  0  0  0  0  0  0  0  0
    0.1281    0.2748   -3.0092 C   0  0  0  0  0  0  0  0  0  0  0  0
   -1.0532    0.5660   -2.3374 C   0  0  0  0  0  0  0  0  0  0  0  0
   -1.2063    0.2023   -1.0067 C   0  0  0  0  0  0  0  0  0  0  0  0
   -0.3588   -0.8231    1.1278 C   0  0  0  0  0  0  0  0  0  0  0  0
   -0.1980    0.3612    2.0924 C   0  0  1  0  0  0  0  0  0  0  0  0
   -0.5191   -0.0804    3.5160 C   0  0  0  0  0  0  0  0  0  0  0  0
    1.1965    0.9704    2.0120 C   0  0  0  0  0  0  0  0  0  0  0  0
    1.7963   -1.2533   -0.4895 H   0  0  0  0  0  0  0  0  0  0  0  0
    2.0745   -0.6166   -2.8513 H   0  0  0  0  0  0  0  0  0  0  0  0
    0.2496    0.5554   -4.0475 H   0  0  0  0  0  0  0  0  0  0  0  0
   -1.8592    1.0736   -2.8522 H   0  0  0  0  0  0  0  0  0  0  0  0
   -2.1350    0.4297   -0.4945 H   0  0  0  0  0  0  0  0  0  0  0  0
    0.3639   -1.5987    1.4001 H   0  0  0  0  0  0  0  0  0  0  0  0
   -1.3520   -1.2576    1.2750 H   0  0  0  0  0  0  0  0  0  0  0  0
   -0.9253    1.1297    1.8056 H   0  0  0  0  0  0  0  0  0  0  0  0
   -0.4289    0.7508    4.2167 H   0  0  0  0  0  0  0  0  0  0  0  0
   -1.5351   -0.4720    3.5919 H   0  0  0  0  0  0  0  0  0  0  0  0
    0.1635   -0.8670    3.8471 H   0  0  0  0  0  0  0  0  0  0  0  0
    1.9600    0.2263    2.2539 H   0  0  0  0  0  0  0  0  0  0  0  0
    1.4158    1.3565    1.0159 H   0  0  0  0  0  0  0  0  0  0  0  0
    1.3035    1.7960    2.7177 H   0  0  0  0  0  0  0  0  0  0  0  0
  1  2  2  0
  1  6  1  0
  1  7  1  0
  2  3  1  0
  2 11  1  0
  3  4  2  0
  3 12  1  0
  4  5  1  0
  4 13  1  0
  5  6  2  0
  5 14  1  0
  6 15  1  0
  7  8  1  0
  7 16  1  0
  7 17  1  0
  8  9  1  0
  8 10  1  0
  8 18  1  6
  9 19  1  0
  9 20  1  0
  9 21  1  0
 10 22  1  0
 10 23  1  0
 10 24  1  0
M  END
