
     RDKit          3D

 55 57  0  0  0  0  0  0  0  0999 V2000
    7.9005   -0.5832   -0.9074 C   0  0  0  0  0  0  0  0  0  0  0  0
    6.6069   -1.1479   -0.3095 C   0  0  1  0  0  0  0  0  0  0  0  0
    6.1106   -2.2816   -1.2074 C   0  0  0  0  0  0  0  0  0  0  0  0
    6.9221   -1.6668    1.0951 C   0  0  0  0  0  0  0  0  0  0  0  0
    5.6030    0.0129   -0.2710 C   0  0  0  0  0  0  0  0  0  0  0  0
    4.2087   -0.2563    0.2539 C   0  0  0  0  0  0  0  0  0  0  0  0
    3.8488   -1.3112    0.7626 O   0  0  0  0  0  0  0  0  0  0  0  0
    3.3407    0.7691    0.1453 N   0  0  0  0  0  0  0  0  0  0  0  0
    3.6037    2.0983   -0.3813 C   0  0  0  0  0  0  0  0  0  0  0  0
    2.5126    2.9432    0.2682 C   0  0  2  0  0  0  0  0  0  0  0  0
    2.8191    3.2685    1.6042 O   0  0  0  0  0  0  0  0  0  0  0  0
    1.3403    1.9771    0.2818 C   0  0  0  0  0  0  0  0  0  0  0  0
    1.9848    0.6269    0.6330 C   0  0  1  0  0  0  0  0  0  0  0  0
    1.2451   -0.5016   -0.0709 C   0  0  0  0  0  0  0  0  0  0  0  0
    1.4050   -0.7282   -1.2593 O   0  0  0  0  0  0  0  0  0  0  0  0
    0.3586   -1.1434    0.7061 N   0  0  0  0  0  0  0  0  0  0  0  0
   -0.6036   -2.1076    0.2218 C   0  0  0  0  0  0  0  0  0  0  0  0
   -1.9827   -1.5126    0.0884 C   0  0  0  0  0  0  0  0  0  0  0  0
   -2.2240   -0.4715   -0.8059 C   0  0  0  0  0  0  0  0  0  0  0  0
   -3.4796    0.0996   -0.9089 C   0  0  0  0  0  0  0  0  0  0  0  0
   -3.0383   -1.9726    0.8663 C   0  0  0  0  0  0  0  0  0  0  0  0
   -4.3022   -1.4127    0.7597 C   0  0  0  0  0  0  0  0  0  0  0  0
   -4.5408   -0.3604   -0.1239 C   0  0  0  0  0  0  0  0  0  0  0  0
   -5.8680    0.2432   -0.2038 C   0  0  0  0  0  0  0  0  0  0  0  0
   -6.4530    1.0387   -1.6189 S   0  0  0  0  0  0  0  0  0  0  0  0
   -7.9293    1.3699   -0.8091 C   0  0  0  0  0  0  0  0  0  0  0  0
   -7.9942    0.9290    0.4054 N   0  0  0  0  0  0  0  0  0  0  0  0
   -6.8410    0.2952    0.7540 C   0  0  0  0  0  0  0  0  0  0  0  0
    7.7461   -0.2104   -1.9226 H   0  0  0  0  0  0  0  0  0  0  0  0
    8.2857    0.2431   -0.3055 H   0  0  0  0  0  0  0  0  0  0  0  0
    8.6754   -1.3511   -0.9511 H   0  0  0  0  0  0  0  0  0  0  0  0
    6.8722   -3.0596   -1.2978 H   0  0  0  0  0  0  0  0  0  0  0  0
    5.2060   -2.7460   -0.8184 H   0  0  0  0  0  0  0  0  0  0  0  0
    5.8947   -1.9159   -2.2143 H   0  0  0  0  0  0  0  0  0  0  0  0
    7.7103   -2.4214    1.0515 H   0  0  0  0  0  0  0  0  0  0  0  0
    7.2797   -0.8569    1.7361 H   0  0  0  0  0  0  0  0  0  0  0  0
    6.0550   -2.1169    1.5725 H   0  0  0  0  0  0  0  0  0  0  0  0
    6.0307    0.8220    0.3341 H   0  0  0  0  0  0  0  0  0  0  0  0
    5.5106    0.4319   -1.2795 H   0  0  0  0  0  0  0  0  0  0  0  0
    4.6038    2.4515   -0.1273 H   0  0  0  0  0  0  0  0  0  0  0  0
    3.5052    2.1248   -1.4711 H   0  0  0  0  0  0  0  0  0  0  0  0
    2.3007    3.8380   -0.3275 H   0  0  0  0  0  0  0  0  0  0  0  0
    3.6064    3.8221    1.6131 H   0  0  0  0  0  0  0  0  0  0  0  0
    0.5549    2.2618    0.9808 H   0  0  0  0  0  0  0  0  0  0  0  0
    0.9047    1.9418   -0.7187 H   0  0  0  0  0  0  0  0  0  0  0  0
    1.9814    0.4674    1.7162 H   0  0  0  0  0  0  0  0  0  0  0  0
    0.2870   -0.8739    1.6744 H   0  0  0  0  0  0  0  0  0  0  0  0
   -0.2555   -2.4866   -0.7386 H   0  0  0  0  0  0  0  0  0  0  0  0
   -0.6294   -2.9541    0.9095 H   0  0  0  0  0  0  0  0  0  0  0  0
   -1.4229   -0.0977   -1.4321 H   0  0  0  0  0  0  0  0  0  0  0  0
   -3.6256    0.9210   -1.6003 H   0  0  0  0  0  0  0  0  0  0  0  0
   -2.8785   -2.7855    1.5645 H   0  0  0  0  0  0  0  0  0  0  0  0
   -5.1084   -1.8082    1.3639 H   0  0  0  0  0  0  0  0  0  0  0  0
   -8.7245    1.9091   -1.3050 H   0  0  0  0  0  0  0  0  0  0  0  0
   -6.7382   -0.1127    1.7502 H   0  0  0  0  0  0  0  0  0  0  0  0
 27 26  2  0
 27 28  1  0
 26 25  1  0
 28 24  2  0
 25 24  1  0
 24 23  1  0
 23 20  1  0
 23 22  2  0
 20 19  2  0
 22 21  1  0
 19 18  1  0
 21 18  2  0
 18 17  1  0
 17 16  1  0
 16 14  1  0
 12 13  1  0
 12 10  1  0
 14 15  2  0
 14 13  1  0
 13  8  1  0
 10 11  1  0
 10  9  1  0
  8  9  1  0
  8  6  1  0
  7  6  2  0
  6  5  1  0
  2  4  1  1
  5  2  1  0
  2  3  1  0
  2  1  1  0
  1 29  1  0
  1 30  1  0
  1 31  1  0
  3 32  1  0
  3 33  1  0
  3 34  1  0
  4 35  1  0
  4 36  1  0
  4 37  1  0
  5 38  1  0
  5 39  1  0
  9 40  1  0
  9 41  1  0
 10 42  1  6
 11 43  1  0
 12 44  1  0
 12 45  1  0
 13 46  1  1
 16 47  1  0
 17 48  1  0
 17 49  1  0
 19 50  1  0
 20 51  1  0
 21 52  1  0
 22 53  1  0
 26 54  1  0
 28 55  1  0
M  END
