
     RDKit          3D

 26 27  0  0  0  0  0  0  0  0999 V2000
    9.7587    2.1818  -15.8851 F   0  0  0  0  0  0  0  0  0  0  0  0
    9.6209    3.0174  -14.8473 C   0  0  0  0  0  0  0  0  0  0  0  0
   10.7426    3.2838  -14.0873 C   0  0  0  0  0  0  0  0  0  0  0  0
   10.5925    4.1244  -13.0019 C   0  0  0  0  0  0  0  0  0  0  0  0
   11.6687    4.3980  -12.2543 F   0  0  0  0  0  0  0  0  0  0  0  0
    9.3754    4.6846  -12.6671 C   0  0  0  0  0  0  0  0  0  0  0  0
    8.2779    4.3905  -13.4608 C   0  0  0  0  0  0  0  0  0  0  0  0
    8.3684    3.5544  -14.5741 C   0  0  0  0  0  0  0  0  0  0  0  0
    7.1788    3.2400  -15.3896 C   0  0  0  0  0  0  0  0  0  0  0  0
    7.1850    3.3600  -16.7707 C   0  0  0  0  0  0  0  0  0  0  0  0
    6.0575    3.0873  -17.5506 C   0  0  0  0  0  0  0  0  0  0  0  0
    6.1211    3.2357  -19.0230 C   0  0  0  0  0  0  0  0  0  0  0  0
    7.3216    3.6302  -19.4414 O   0  0  0  0  0  0  0  0  0  0  0  0
    5.2089    3.0299  -19.7859 O   0  0  0  0  0  0  0  0  0  0  0  0
    5.9927    2.8348  -14.7750 C   0  0  0  0  0  0  0  0  0  0  0  0
    4.8648    2.5596  -15.5180 C   0  0  0  0  0  0  0  0  0  0  0  0
    4.8757    2.6758  -16.9093 C   0  0  0  0  0  0  0  0  0  0  0  0
    3.7822    2.4022  -17.6248 O   0  0  0  0  0  0  0  0  0  0  0  0
   11.6988    2.8391  -14.3304 H   0  0  0  0  0  0  0  0  0  0  0  0
    9.2844    5.3409  -11.8127 H   0  0  0  0  0  0  0  0  0  0  0  0
    7.3211    4.8339  -13.2164 H   0  0  0  0  0  0  0  0  0  0  0  0
    8.0847    3.7020  -17.2609 H   0  0  0  0  0  0  0  0  0  0  0  0
    7.3157    3.7095  -20.4065 H   0  0  0  0  0  0  0  0  0  0  0  0
    5.9514    2.7216  -13.6990 H   0  0  0  0  0  0  0  0  0  0  0  0
    3.9594    2.2373  -15.0167 H   0  0  0  0  0  0  0  0  0  0  0  0
    3.0641    2.1394  -17.0364 H   0  0  0  0  0  0  0  0  0  0  0  0
  1  2  1  0
  2  3  2  0
  2  8  1  0
  3  4  1  0
  3 19  1  0
  4  5  1  0
  4  6  2  0
  6  7  1  0
  6 20  1  0
  7  8  2  0
  7 21  1  0
  8  9  1  0
  9 10  2  0
  9 15  1  0
 10 11  1  0
 10 22  1  0
 11 12  1  0
 11 17  2  0
 12 13  1  0
 12 14  2  0
 13 23  1  0
 15 16  2  0
 15 24  1  0
 16 17  1  0
 16 25  1  0
 17 18  1  0
 18 26  1  0
M  END
