
     RDKit          3D

 45 47  0  0  0  0  0  0  0  0999 V2000
   -1.8327    0.4359   -0.0015 C   0  0  0  0  0  0  0  0  0  0  0  0
   -2.9674   -0.4316    0.1645 C   0  0  0  0  0  0  0  0  0  0  0  0
   -4.0211   -2.2715    0.4713 C   0  0  0  0  0  0  0  0  0  0  0  0
   -6.5698    0.9764    0.0585 C   0  0  0  0  0  0  0  0  0  0  0  0
   -4.7329    1.7744   -1.4162 C   0  0  0  0  0  0  0  0  0  0  0  0
   -4.6479    2.1857    1.0656 C   0  0  0  0  0  0  0  0  0  0  0  0
   -4.3161   -0.1072    0.1513 C   0  0  0  0  0  0  0  0  0  0  0  0
   -4.9457   -1.2975    0.3477 N   0  0  0  0  0  0  0  0  0  0  0  0
   -2.8185   -1.7864    0.3663 N   0  0  0  0  0  0  0  0  0  0  0  0
   -0.5361    0.0670    0.0310 C   0  0  0  0  0  0  0  0  0  0  0  0
    0.5144    1.0822   -0.1701 C   0  0  0  0  0  0  0  0  0  0  0  0
    0.2753    2.2541   -0.4077 O   0  0  0  0  0  0  0  0  0  0  0  0
    1.7899    0.6249   -0.0794 N   0  0  0  0  0  0  0  0  0  0  0  0
   -0.1341   -1.2476    0.2305 N   0  0  0  0  0  0  0  0  0  0  0  0
    1.1307   -1.7058    0.3082 C   0  0  0  0  0  0  0  0  0  0  0  0
    1.3817   -2.8863    0.4884 O   0  0  0  0  0  0  0  0  0  0  0  0
    2.1975   -0.6771    0.1766 C   0  0  0  0  0  0  0  0  0  0  0  0
    3.4812   -1.0556    0.2812 C   0  0  0  0  0  0  0  0  0  0  0  0
    4.6728   -0.2105    0.2155 C   0  0  0  0  0  0  0  0  0  0  0  0
    4.7496    1.0483    0.8210 C   0  0  0  0  0  0  0  0  0  0  0  0
    5.9104    1.8037    0.7378 C   0  0  0  0  0  0  0  0  0  0  0  0
    7.0157    1.3180    0.0529 C   0  0  0  0  0  0  0  0  0  0  0  0
    6.9593    0.0603   -0.5361 C   0  0  0  0  0  0  0  0  0  0  0  0
    5.8038   -0.6984   -0.4477 C   0  0  0  0  0  0  0  0  0  0  0  0
   -2.0159    1.4862   -0.1764 H   0  0  0  0  0  0  0  0  0  0  0  0
   -4.2831   -3.3045    0.6348 H   0  0  0  0  0  0  0  0  0  0  0  0
   -6.9404    0.3061   -0.7199 H   0  0  0  0  0  0  0  0  0  0  0  0
   -6.8696    0.5822    1.0317 H   0  0  0  0  0  0  0  0  0  0  0  0
   -7.0814    1.9300   -0.0747 H   0  0  0  0  0  0  0  0  0  0  0  0
   -5.2858    2.7021   -1.5738 H   0  0  0  0  0  0  0  0  0  0  0  0
   -3.6729    1.9984   -1.5326 H   0  0  0  0  0  0  0  0  0  0  0  0
   -5.0151    1.0775   -2.2064 H   0  0  0  0  0  0  0  0  0  0  0  0
   -4.8993    1.7997    2.0541 H   0  0  0  0  0  0  0  0  0  0  0  0
   -3.5807    2.4046    1.0535 H   0  0  0  0  0  0  0  0  0  0  0  0
   -5.1781    3.1304    0.9304 H   0  0  0  0  0  0  0  0  0  0  0  0
   -5.9427   -1.4412    0.3928 H   0  0  0  0  0  0  0  0  0  0  0  0
   -0.8982   -1.9190    0.3377 H   0  0  0  0  0  0  0  0  0  0  0  0
    3.6499   -2.1195    0.3902 H   0  0  0  0  0  0  0  0  0  0  0  0
    3.9180    1.4302    1.4004 H   0  0  0  0  0  0  0  0  0  0  0  0
    5.9532    2.7709    1.2213 H   0  0  0  0  0  0  0  0  0  0  0  0
    7.9195    1.9099   -0.0097 H   0  0  0  0  0  0  0  0  0  0  0  0
    7.8196   -0.3319   -1.0625 H   0  0  0  0  0  0  0  0  0  0  0  0
    5.7691   -1.6799   -0.9048 H   0  0  0  0  0  0  0  0  0  0  0  0
    2.5067    1.3141   -0.2657 H   0  0  0  0  0  0  0  0  0  0  0  0
   -5.0565    1.1950   -0.0329 C   0  0  1  0  0  0  0  0  0  0  0  0
 22 23  2  0
 22 21  1  0
 23 24  1  0
 21 20  2  0
 24 19  2  0
 20 19  1  0
 19 18  1  0
 18 17  2  0
 13 17  1  0
 13 11  1  0
 17 15  1  0
 12 11  2  0
 11 10  1  0
 15 16  2  0
 15 14  1  0
 10 14  1  0
 10  1  2  0
  1  2  1  0
  2  9  1  0
  2  7  2  0
  9  3  2  0
 45  6  1  1
  7 45  1  0
  7  8  1  0
  5 45  1  0
 45  4  1  0
  3  8  1  0
  1 25  1  0
  3 26  1  0
  4 27  1  0
  4 28  1  0
  4 29  1  0
  5 30  1  0
  5 31  1  0
  5 32  1  0
  6 33  1  0
  6 34  1  0
  6 35  1  0
  8 36  1  0
 14 37  1  0
 18 38  1  0
 20 39  1  0
 21 40  1  0
 22 41  1  0
 23 42  1  0
 24 43  1  0
 13 44  1  0
M  END
