
     RDKit          3D

  9  8  0  0  0  0  0  0  0  0999 V2000
    1.4355   -0.0595    0.6487 N   0  0  0  0  0  0  0  0  0  0  0  0
   -0.0018    0.0139   -0.1322 S   0  0  1  0  0  0  0  0  0  0  0  0
   -0.0585    1.3300   -0.7446 O   0  0  0  0  0  0  0  0  0  0  0  0
   -0.1247   -1.1599   -0.9745 O   0  0  0  0  0  0  0  0  0  0  0  0
   -1.1335   -0.1834    1.0624 N   0  0  0  0  0  0  0  0  0  0  0  0
    1.6652    0.7847    1.1598 H   0  0  0  0  0  0  0  0  0  0  0  0
    1.5464   -0.8837    1.2280 H   0  0  0  0  0  0  0  0  0  0  0  0
   -1.1947    0.6254    1.6729 H   0  0  0  0  0  0  0  0  0  0  0  0
   -2.0491   -0.3874    0.6737 H   0  0  0  0  0  0  0  0  0  0  0  0
  2  5  1  1
  3  2  2  0
  1  2  1  0
  2  4  2  0
  1  6  1  0
  1  7  1  0
  5  8  1  0
  5  9  1  0
M  END
