
     RDKit          3D

 79 81  0  0  0  0  0  0  0  0999 V2000
    0.5251    2.1647    4.0471 N   0  0  0  0  0  0  0  0  0  0  0  0
   -0.6671    3.2681    2.2975 C   0  0  0  0  0  0  0  0  0  0  0  0
   -1.9139    2.7373    2.6125 C   0  0  0  0  0  0  0  0  0  0  0  0
    0.5866    2.6098    2.7771 C   0  0  0  0  0  0  0  0  0  0  0  0
   -4.1287    2.9420    4.8286 C   0  0  0  0  0  0  0  0  0  0  0  0
   -3.4620    1.8302    5.6342 C   0  0  0  0  0  0  0  0  0  0  0  0
    1.5585    1.4007    4.7035 C   0  0  1  0  0  0  0  0  0  0  0  0
    1.9159    2.0255    6.0577 C   0  0  0  0  0  0  0  0  0  0  0  0
   -1.7575   -3.4349    6.8561 C   0  0  0  0  0  0  0  0  0  0  0  0
   -0.7045   -4.3272    7.0431 C   0  0  0  0  0  0  0  0  0  0  0  0
   -0.9546   -5.6716    7.2696 C   0  0  0  0  0  0  0  0  0  0  0  0
   -3.2989   -5.2619    7.1246 C   0  0  0  0  0  0  0  0  0  0  0  0
    4.2352    4.8990    5.3172 C   0  0  0  0  0  0  0  0  0  0  0  0
    2.4517    3.4177    5.8913 C   0  0  0  0  0  0  0  0  0  0  0  0
   -3.0686    3.3523    2.1506 C   0  0  0  0  0  0  0  0  0  0  0  0
   -2.9659    4.4949    1.3633 C   0  0  0  0  0  0  0  0  0  0  0  0
   -1.7279    5.0427    1.0433 C   0  0  0  0  0  0  0  0  0  0  0  0
   -0.5797    4.4060    1.5070 C   0  0  0  0  0  0  0  0  0  0  0  0
   -5.1329    2.5267    1.3971 O   0  0  0  0  0  0  0  0  0  0  0  0
   -4.8115    2.4753    3.6325 N   0  0  0  0  0  0  0  0  0  0  0  0
   -6.1067    1.8408    3.8389 C   0  0  0  0  0  0  0  0  0  0  0  0
   -7.2693    2.8264    3.8725 C   0  0  0  0  0  0  0  0  0  0  0  0
   -8.5893    2.1133    4.1302 C   0  0  0  0  0  0  0  0  0  0  0  0
   -2.5988    2.3969    6.7515 C   0  0  0  0  0  0  0  0  0  0  0  0
    1.5734    2.5131    2.0665 O   0  0  0  0  0  0  0  0  0  0  0  0
    1.1735   -0.0854    4.8103 C   0  0  1  0  0  0  0  0  0  0  0  0
   -0.0748   -0.3188    5.6423 C   0  0  0  0  0  0  0  0  0  0  0  0
   -0.3535   -1.7294    5.8006 N   0  0  0  0  0  0  0  0  0  0  0  0
   -1.5028   -1.9651    6.6486 C   0  0  0  0  0  0  0  0  0  0  0  0
   -2.2567   -6.1555    7.3140 C   0  0  0  0  0  0  0  0  0  0  0  0
   -3.0639   -3.9141    6.8928 C   0  0  0  0  0  0  0  0  0  0  0  0
   -5.2843   -5.9644    7.1761 I   0  0  0  0  0  0  0  0  0  0  0  0
    3.7784    3.6121    5.5163 C   0  0  0  0  0  0  0  0  0  0  0  0
    1.6159    4.5167    6.0594 C   0  0  0  0  0  0  0  0  0  0  0  0
    2.1228    5.7839    5.8461 C   0  0  0  0  0  0  0  0  0  0  0  0
    3.4319    6.0133    5.4723 C   0  0  0  0  0  0  0  0  0  0  0  0
    1.3137    6.8391    6.0079 F   0  0  0  0  0  0  0  0  0  0  0  0
    0.9258   -0.6221    3.5326 O   0  0  0  0  0  0  0  0  0  0  0  0
   -0.2990    2.3898    4.5804 H   0  0  0  0  0  0  0  0  0  0  0  0
   -1.9800    1.8151    3.1758 H   0  0  0  0  0  0  0  0  0  0  0  0
   -2.6023    6.7124    0.0025 H   0  0  0  0  0  0  0  0  0  0  0  0
   -1.0150    7.0414    0.6932 H   0  0  0  0  0  0  0  0  0  0  0  0
   -1.1514    6.0619   -0.7570 H   0  0  0  0  0  0  0  0  0  0  0  0
   -4.8582    3.4573    5.4608 H   0  0  0  0  0  0  0  0  0  0  0  0
   -3.3903    3.6953    4.5563 H   0  0  0  0  0  0  0  0  0  0  0  0
   -4.2159    1.1624    6.0576 H   0  0  0  0  0  0  0  0  0  0  0  0
   -2.8555    1.2085    4.9707 H   0  0  0  0  0  0  0  0  0  0  0  0
    2.4462    1.4583    4.0682 H   0  0  0  0  0  0  0  0  0  0  0  0
    1.0442    2.0447    6.7167 H   0  0  0  0  0  0  0  0  0  0  0  0
    2.6580    1.3886    6.5443 H   0  0  0  0  0  0  0  0  0  0  0  0
    0.3146   -3.9652    7.0039 H   0  0  0  0  0  0  0  0  0  0  0  0
   -0.1307   -6.3584    7.4139 H   0  0  0  0  0  0  0  0  0  0  0  0
   -3.8666    4.9730    0.9972 H   0  0  0  0  0  0  0  0  0  0  0  0
    0.3943    4.8120    1.2609 H   0  0  0  0  0  0  0  0  0  0  0  0
   -6.0619    1.2929    4.7830 H   0  0  0  0  0  0  0  0  0  0  0  0
   -6.2688    1.0981    3.0579 H   0  0  0  0  0  0  0  0  0  0  0  0
   -7.0969    3.5731    4.6522 H   0  0  0  0  0  0  0  0  0  0  0  0
   -7.3150    3.3653    2.9243 H   0  0  0  0  0  0  0  0  0  0  0  0
   -8.5808    1.5988    5.0928 H   0  0  0  0  0  0  0  0  0  0  0  0
   -9.4228    2.8153    4.1385 H   0  0  0  0  0  0  0  0  0  0  0  0
   -8.7930    1.3676    3.3595 H   0  0  0  0  0  0  0  0  0  0  0  0
   -3.1874    2.9926    7.4502 H   0  0  0  0  0  0  0  0  0  0  0  0
   -2.1135    1.6034    7.3200 H   0  0  0  0  0  0  0  0  0  0  0  0
   -1.8158    3.0516    6.3575 H   0  0  0  0  0  0  0  0  0  0  0  0
    2.0098   -0.6022    5.3016 H   0  0  0  0  0  0  0  0  0  0  0  0
   -0.9232    0.2233    5.1922 H   0  0  0  0  0  0  0  0  0  0  0  0
    0.0741    0.1059    6.6385 H   0  0  0  0  0  0  0  0  0  0  0  0
   -0.5215   -2.1411    4.8905 H   0  0  0  0  0  0  0  0  0  0  0  0
   -2.4224   -1.4871    6.2764 H   0  0  0  0  0  0  0  0  0  0  0  0
   -1.3013   -1.5053    7.6226 H   0  0  0  0  0  0  0  0  0  0  0  0
   -2.4392   -7.2070    7.4884 H   0  0  0  0  0  0  0  0  0  0  0  0
   -3.8873   -3.2279    6.7387 H   0  0  0  0  0  0  0  0  0  0  0  0
    4.4475    2.7710    5.3847 H   0  0  0  0  0  0  0  0  0  0  0  0
    0.5825    4.3917    6.3578 H   0  0  0  0  0  0  0  0  0  0  0  0
    3.8101    7.0141    5.3117 H   0  0  0  0  0  0  0  0  0  0  0  0
    1.7505   -0.6436    3.0370 H   0  0  0  0  0  0  0  0  0  0  0  0
    5.5131    5.0842    4.9604 F   0  0  0  0  0  0  0  0  0  0  0  0
   -4.4258    2.7542    2.3711 C   0  0  0  0  0  0  0  0  0  0  0  0
   -1.6229    6.2808    0.2025 C   0  0  0  0  0  0  0  0  0  0  0  0
  1  7  1  0
  1  4  1  0
  1 39  1  0
  2  3  2  0
  2  4  1  0
  2 18  1  0
  3 15  1  0
  3 40  1  0
 78 19  2  0
 78 20  1  0
 78 15  1  0
 79 17  1  0
 79 41  1  0
 79 42  1  0
 79 43  1  0
  4 25  2  0
  5 20  1  0
  5  6  1  0
  5 44  1  0
  5 45  1  0
  6 24  1  0
  6 46  1  0
  6 47  1  0
  7  8  1  0
  7 26  1  0
  7 48  1  6
  8 14  1  0
  8 49  1  0
  8 50  1  0
  9 29  1  0
  9 31  1  0
  9 10  2  0
 10 11  1  0
 10 51  1  0
 11 30  2  0
 11 52  1  0
 12 32  1  0
 12 31  2  0
 12 30  1  0
 13 33  2  0
 13 36  1  0
 13 77  1  0
 14 34  2  0
 14 33  1  0
 15 16  2  0
 16 17  1  0
 16 53  1  0
 17 18  2  0
 18 54  1  0
 20 21  1  0
 21 22  1  0
 21 55  1  0
 21 56  1  0
 22 23  1  0
 22 57  1  0
 22 58  1  0
 23 59  1  0
 23 60  1  0
 23 61  1  0
 24 62  1  0
 24 63  1  0
 24 64  1  0
 26 38  1  0
 26 27  1  0
 26 65  1  1
 27 28  1  0
 27 66  1  0
 27 67  1  0
 28 29  1  0
 28 68  1  0
 29 69  1  0
 29 70  1  0
 30 71  1  0
 31 72  1  0
 33 73  1  0
 34 35  1  0
 34 74  1  0
 35 37  1  0
 35 36  2  0
 36 75  1  0
 38 76  1  0
M  END
