
     RDKit          3D

 26 27  0  0  0  0  0  0  0  0999 V2000
    6.2350   -0.0735   -0.1535 O   0  0  0  0  0  0  0  0  0  0  0  0
    5.0074    0.4130   -0.1969 C   0  0  0  0  0  0  0  0  0  0  0  0
    4.7412    1.5782   -0.3464 O   0  0  0  0  0  0  0  0  0  0  0  0
    3.9852   -0.6839   -0.0446 C   0  0  0  0  0  0  0  0  0  0  0  0
    2.6615   -0.1288   -0.0524 N   0  0  0  0  0  0  0  0  0  0  0  0
    1.5802   -0.8912    0.1827 C   0  0  0  0  0  0  0  0  0  0  0  0
    1.6733   -2.0924    0.4035 O   0  0  0  0  0  0  0  0  0  0  0  0
    0.2570   -0.2046    0.1571 C   0  0  0  0  0  0  0  0  0  0  0  0
    0.1100    1.1807    0.3024 C   0  0  0  0  0  0  0  0  0  0  0  0
   -0.8751   -1.0034    0.0078 C   0  0  0  0  0  0  0  0  0  0  0  0
   -2.1131   -0.3960   -0.0165 C   0  0  0  0  0  0  0  0  0  0  0  0
   -3.6781   -1.1331   -0.2043 S   0  0  0  0  0  0  0  0  0  0  0  0
   -2.2739    0.9955    0.1203 C   0  0  0  0  0  0  0  0  0  0  0  0
   -1.1348    1.7815    0.2878 C   0  0  0  0  0  0  0  0  0  0  0  0
   -3.5606    1.4535    0.0774 N   0  0  0  0  0  0  0  0  0  0  0  0
   -4.3942    0.4735   -0.0866 C   0  0  0  0  0  0  0  0  0  0  0  0
   -5.7217    0.6097   -0.1360 N   0  0  0  0  0  0  0  0  0  0  0  0
    6.8846    0.6374   -0.2643 H   0  0  0  0  0  0  0  0  0  0  0  0
    4.1314   -1.4085   -0.8529 H   0  0  0  0  0  0  0  0  0  0  0  0
    4.1804   -1.2187    0.8885 H   0  0  0  0  0  0  0  0  0  0  0  0
    2.5643    0.8276   -0.3525 H   0  0  0  0  0  0  0  0  0  0  0  0
    0.9729    1.8155    0.4569 H   0  0  0  0  0  0  0  0  0  0  0  0
   -0.7779   -2.0759   -0.0933 H   0  0  0  0  0  0  0  0  0  0  0  0
   -1.2305    2.8523    0.4090 H   0  0  0  0  0  0  0  0  0  0  0  0
   -6.3129   -0.1447   -0.4397 H   0  0  0  0  0  0  0  0  0  0  0  0
   -6.1015    1.5391   -0.2126 H   0  0  0  0  0  0  0  0  0  0  0  0
  3  2  2  0
  1  2  1  0
 12 16  1  0
 12 11  1  0
  2  4  1  0
 17 16  1  0
 16 15  2  0
 11 10  1  0
 11 13  2  0
 10  8  2  0
  4  5  1  0
  5  6  1  0
 15 13  1  0
 13 14  1  0
  8  6  1  0
  8  9  1  0
  6  7  2  0
 14  9  2  0
  1 18  1  0
  4 19  1  0
  4 20  1  0
  5 21  1  0
  9 22  1  0
 10 23  1  0
 14 24  1  0
 17 25  1  0
 17 26  1  0
M  END
