
     RDKit          3D

 36 37  0  0  0  0  0  0  0  0999 V2000
    0.2057   -1.3789   -1.1486 C   0  0  0  0  0  0  0  0  0  0  0  0
    0.5840   -0.9256    0.1127 C   0  0  0  0  0  0  0  0  0  0  0  0
    1.7234   -1.4320    0.7179 C   0  0  0  0  0  0  0  0  0  0  0  0
    2.5004   -2.3898    0.0680 C   0  0  0  0  0  0  0  0  0  0  0  0
    2.1232   -2.8432   -1.1925 C   0  0  0  0  0  0  0  0  0  0  0  0
    0.9774   -2.3347   -1.7897 C   0  0  0  0  0  0  0  0  0  0  0  0
   -0.2621    0.0999    0.8463 C   0  0  2  0  0  0  0  0  0  0  0  0
   -1.5148   -0.5013    1.2851 N   0  0  0  0  0  0  0  0  0  0  0  0
   -2.6992   -0.3538    0.7099 C   0  0  0  0  0  0  0  0  0  0  0  0
   -2.7813    0.6219   -0.2330 N   0  0  0  0  0  0  0  0  0  0  0  0
   -1.7749    1.5131   -0.5285 C   0  0  0  0  0  0  0  0  0  0  0  0
   -0.5461    1.3178   -0.0006 C   0  0  0  0  0  0  0  0  0  0  0  0
    3.6016   -2.8367    0.7038 O   0  0  0  0  0  0  0  0  0  0  0  0
    0.5688    2.2215   -0.2909 C   0  0  0  0  0  0  0  0  0  0  0  0
    1.6425    1.8944    0.4192 O   0  0  0  0  0  0  0  0  0  0  0  0
    2.8595    2.6170    0.2002 C   0  0  0  0  0  0  0  0  0  0  0  0
    3.9330    1.9636    1.0370 C   0  0  0  0  0  0  0  0  0  0  0  0
   -2.1997    2.6222   -1.4381 C   0  0  0  0  0  0  0  0  0  0  0  0
    0.5560    3.1456   -1.0754 O   0  0  0  0  0  0  0  0  0  0  0  0
   -4.0433   -1.2631    1.1144 S   0  0  0  0  0  0  0  0  0  0  0  0
   -0.6796   -0.9888   -1.6361 H   0  0  0  0  0  0  0  0  0  0  0  0
    2.0224   -1.0767    1.6976 H   0  0  0  0  0  0  0  0  0  0  0  0
    2.7210   -3.5850   -1.7096 H   0  0  0  0  0  0  0  0  0  0  0  0
    0.6914   -2.6907   -2.7708 H   0  0  0  0  0  0  0  0  0  0  0  0
    0.2694    0.3964    1.7524 H   0  0  0  0  0  0  0  0  0  0  0  0
   -1.4493   -1.2192    1.9905 H   0  0  0  0  0  0  0  0  0  0  0  0
   -3.6921    0.7645   -0.6408 H   0  0  0  0  0  0  0  0  0  0  0  0
    4.0610   -3.4877    0.1620 H   0  0  0  0  0  0  0  0  0  0  0  0
    2.7246    3.6636    0.4823 H   0  0  0  0  0  0  0  0  0  0  0  0
    3.1209    2.5876   -0.8597 H   0  0  0  0  0  0  0  0  0  0  0  0
    3.7012    2.0155    2.1010 H   0  0  0  0  0  0  0  0  0  0  0  0
    4.0693    0.9176    0.7613 H   0  0  0  0  0  0  0  0  0  0  0  0
    4.8781    2.4812    0.8754 H   0  0  0  0  0  0  0  0  0  0  0  0
   -1.7454    2.5112   -2.4219 H   0  0  0  0  0  0  0  0  0  0  0  0
   -3.2812    2.6212   -1.5638 H   0  0  0  0  0  0  0  0  0  0  0  0
   -1.9046    3.5927   -1.0500 H   0  0  0  0  0  0  0  0  0  0  0  0
  1  2  2  0
  1  6  1  0
  1 21  1  0
  2  3  1  0
  2  7  1  0
  3  4  2  0
  3 22  1  0
  4  5  1  0
  4 13  1  0
  5  6  2  0
  5 23  1  0
  6 24  1  0
  7  8  1  0
  7 12  1  0
  7 25  1  1
  8  9  1  0
  8 26  1  0
  9 10  1  0
  9 20  2  0
 10 11  1  0
 10 27  1  0
 11 12  2  0
 11 18  1  0
 12 14  1  0
 13 28  1  0
 14 15  1  0
 14 19  2  0
 15 16  1  0
 16 17  1  0
 16 29  1  0
 16 30  1  0
 17 31  1  0
 17 32  1  0
 17 33  1  0
 18 34  1  0
 18 35  1  0
 18 36  1  0
M  END
