
     RDKit          3D

 41 40  0  0  0  0  0  0  0  0999 V2000
    0.5414   -0.3903   -6.1427 C   0  0  0  0  0  0  0  0  0  0  0  0
   -0.2662    0.4190   -6.5272 O   0  0  0  0  0  0  0  0  0  0  0  0
    1.2626   -1.1409   -6.9715 O   0  0  0  0  0  0  0  0  0  0  0  0
    0.8618   -0.6820   -4.7031 C   0  0  0  0  0  0  0  0  0  0  0  0
    0.0696    0.1594   -3.7170 C   0  0  0  0  0  0  0  0  0  0  0  0
    0.4294   -0.1704   -2.2727 C   0  0  0  0  0  0  0  0  0  0  0  0
   -0.3597    0.6894   -1.2897 C   0  0  0  0  0  0  0  0  0  0  0  0
   -0.1393    0.3210    0.1720 C   0  0  1  0  0  0  0  0  0  0  0  0
    1.2806    0.6125    0.6546 C   0  0  0  0  0  0  0  0  0  0  0  0
    1.5546    0.1370    2.0754 C   0  0  0  0  0  0  0  0  0  0  0  0
    3.3254    0.3016    2.4411 S   0  0  0  0  0  0  0  0  0  0  0  0
    3.3366   -0.2918    4.1673 C   0  0  0  0  0  0  0  0  0  0  0  0
    4.7012   -0.5932    4.5187 N   0  0  0  0  0  0  0  0  0  0  0  0
   -1.2824    1.2723    1.2556 S   0  0  0  0  0  0  0  0  0  0  0  0
   -3.1205    0.4961    0.7849 S   0  0  0  0  0  0  0  0  0  0  0  0
   -3.2544   -0.9398    1.8883 C   0  0  0  0  0  0  0  0  0  0  0  0
   -3.4567   -0.5316    3.3334 C   0  0  0  0  0  0  0  0  0  0  0  0
   -3.5971   -1.7074    4.0990 O   0  0  0  0  0  0  0  0  0  0  0  0
    1.0342   -0.9330   -7.8898 H   0  0  0  0  0  0  0  0  0  0  0  0
    1.9370   -0.5354   -4.5583 H   0  0  0  0  0  0  0  0  0  0  0  0
    0.6869   -1.7486   -4.5277 H   0  0  0  0  0  0  0  0  0  0  0  0
   -1.0011   -0.0006   -3.8674 H   0  0  0  0  0  0  0  0  0  0  0  0
    0.2560    1.2204   -3.9014 H   0  0  0  0  0  0  0  0  0  0  0  0
    1.5045   -0.0287   -2.1305 H   0  0  0  0  0  0  0  0  0  0  0  0
    0.2287   -1.2291   -2.0781 H   0  0  0  0  0  0  0  0  0  0  0  0
   -1.4243    0.5833   -1.5178 H   0  0  0  0  0  0  0  0  0  0  0  0
   -0.1109    1.7453   -1.4341 H   0  0  0  0  0  0  0  0  0  0  0  0
   -0.3593   -0.7397    0.3272 H   0  0  0  0  0  0  0  0  0  0  0  0
    1.4928    1.6822    0.5637 H   0  0  0  0  0  0  0  0  0  0  0  0
    1.9677    0.1037   -0.0261 H   0  0  0  0  0  0  0  0  0  0  0  0
    1.2625   -0.9106    2.1858 H   0  0  0  0  0  0  0  0  0  0  0  0
    0.9851    0.7171    2.8025 H   0  0  0  0  0  0  0  0  0  0  0  0
    2.6381   -1.1343    4.2323 H   0  0  0  0  0  0  0  0  0  0  0  0
    2.9630    0.4982    4.8191 H   0  0  0  0  0  0  0  0  0  0  0  0
    4.7875   -0.6612    5.5239 H   0  0  0  0  0  0  0  0  0  0  0  0
    4.9707   -1.4900    4.1373 H   0  0  0  0  0  0  0  0  0  0  0  0
   -4.1203   -1.4927    1.5149 H   0  0  0  0  0  0  0  0  0  0  0  0
   -2.3755   -1.5749    1.7671 H   0  0  0  0  0  0  0  0  0  0  0  0
   -2.5970    0.0647    3.6619 H   0  0  0  0  0  0  0  0  0  0  0  0
   -4.3436    0.1102    3.4018 H   0  0  0  0  0  0  0  0  0  0  0  0
   -3.6546   -1.4551    5.0249 H   0  0  0  0  0  0  0  0  0  0  0  0
  1  2  2  0
  1  3  1  0
  1  4  1  0
  3 19  1  0
  4  5  1  0
  4 20  1  0
  4 21  1  0
  5  6  1  0
  5 22  1  0
  5 23  1  0
  6  7  1  0
  6 24  1  0
  6 25  1  0
  7  8  1  0
  7 26  1  0
  7 27  1  0
  8  9  1  0
  8 14  1  0
  8 28  1  6
  9 10  1  0
  9 29  1  0
  9 30  1  0
 10 11  1  0
 10 31  1  0
 10 32  1  0
 11 12  1  0
 12 13  1  0
 12 33  1  0
 12 34  1  0
 13 35  1  0
 13 36  1  0
 14 15  1  0
 15 16  1  0
 16 17  1  0
 16 37  1  0
 16 38  1  0
 17 18  1  0
 17 39  1  0
 17 40  1  0
 18 41  1  0
M  END
