
     RDKit          3D

 24 25  0  0  0  0  0  0  0  0999 V2000
    3.4111    0.9791    0.1591 N   0  0  0  0  0  0  0  0  0  0  0  0
    4.5830    0.4110    0.1511 N   0  0  0  0  0  0  0  0  0  0  0  0
    4.5556   -0.8811    0.0284 N   0  0  0  0  0  0  0  0  0  0  0  0
    3.3098   -1.2074   -0.0510 N   0  0  0  0  0  0  0  0  0  0  0  0
    2.6089   -0.0614    0.0297 C   0  0  0  0  0  0  0  0  0  0  0  0
    1.1534    0.0186   -0.0203 C   0  0  0  0  0  0  0  0  0  0  0  0
    0.3960   -1.1440   -0.1417 C   0  0  0  0  0  0  0  0  0  0  0  0
   -0.9846   -1.0748   -0.1907 C   0  0  0  0  0  0  0  0  0  0  0  0
    0.5095    1.2535    0.0462 C   0  0  0  0  0  0  0  0  0  0  0  0
   -0.8691    1.3232   -0.0101 C   0  0  0  0  0  0  0  0  0  0  0  0
   -1.6274    0.1595   -0.1203 C   0  0  0  0  0  0  0  0  0  0  0  0
   -3.1004    0.3000   -0.1923 C   0  0  0  0  0  0  0  0  0  0  0  0
   -3.6679    1.3250   -0.5047 O   0  0  0  0  0  0  0  0  0  0  0  0
   -3.8116   -0.8390    0.0814 N   0  0  0  0  0  0  0  0  0  0  0  0
   -5.2003   -0.7262    0.1216 N   0  0  0  0  0  0  0  0  0  0  0  0
    5.4488    0.9287    0.2359 H   0  0  0  0  0  0  0  0  0  0  0  0
    0.8824   -2.1077   -0.2064 H   0  0  0  0  0  0  0  0  0  0  0  0
   -1.5423   -1.9941   -0.3119 H   0  0  0  0  0  0  0  0  0  0  0  0
    1.0857    2.1640    0.1407 H   0  0  0  0  0  0  0  0  0  0  0  0
   -1.3562    2.2875    0.0404 H   0  0  0  0  0  0  0  0  0  0  0  0
   -3.4540   -1.5801    0.6666 H   0  0  0  0  0  0  0  0  0  0  0  0
   -5.5507   -0.3937    1.0254 H   0  0  0  0  0  0  0  0  0  0  0  0
   -5.5185   -0.0709   -0.5987 H   0  0  0  0  0  0  0  0  0  0  0  0
   -5.6267   -1.6337   -0.0758 H   0  0  0  0  0  0  0  0  0  0  0  0
 13 12  2  0
  9 10  2  0
  9  6  1  0
 10 11  1  0
  3  2  1  0
  3  4  2  0
  2  1  1  0
  4  5  1  0
  1  5  2  0
  5  6  1  0
 12 11  1  0
 12 14  1  0
  6  7  2  0
 11  8  2  0
  8  7  1  0
 15 14  1  0
  2 16  1  0
  7 17  1  0
  8 18  1  0
  9 19  1  0
 10 20  1  0
 14 21  1  0
 15 22  1  0
 15 23  1  0
 15 24  1  0
M  CHG  1  15   1
M  END
