
     RDKit          3D

 84 87  0  0  0  0  0  0  0  0999 V2000
    3.9562    7.6834   -0.3162 O   0  0  0  0  0  0  0  0  0  0  0  0
    2.7827    6.9441   -0.0618 C   0  0  0  0  0  0  0  0  0  0  0  0
    3.0898    5.4713   -0.2474 C   0  0  0  0  0  0  0  0  0  0  0  0
    1.8564    4.6189    0.0010 C   0  0  0  0  0  0  0  0  0  0  0  0
    2.1829    3.2211   -0.1680 N   0  0  0  0  0  0  0  0  0  0  0  0
    1.3069    2.2107   -0.0723 C   0  0  0  0  0  0  0  0  0  0  0  0
   -0.0525    2.4961    0.2308 C   0  0  0  0  0  0  0  0  0  0  0  0
   -0.9938    1.5128    0.3446 C   0  0  0  0  0  0  0  0  0  0  0  0
   -2.3804    1.9029    0.6677 C   0  0  0  0  0  0  0  0  0  0  0  0
   -2.7097    3.0636    0.8072 O   0  0  0  0  0  0  0  0  0  0  0  0
   -3.2930    0.8804    0.8114 N   0  0  0  0  0  0  0  0  0  0  0  0
   -4.6714    1.2496    1.1409 C   0  0  0  0  0  0  0  0  0  0  0  0
   -5.5077    1.5497   -0.0967 C   0  0  0  0  0  0  0  0  0  0  0  0
   -6.9352    1.8956    0.3060 C   0  0  0  0  0  0  0  0  0  0  0  0
   -7.7285    2.4443   -0.7768 N   0  0  0  0  0  0  0  0  0  0  0  0
   -7.9410    1.4963   -1.8496 C   0  0  0  0  0  0  0  0  0  0  0  0
   -8.9910    2.9473   -0.2798 C   0  0  0  0  0  0  0  0  0  0  0  0
   -3.0159   -0.4663    0.5979 C   0  0  0  0  0  0  0  0  0  0  0  0
   -3.9291   -1.2761    0.6863 O   0  0  0  0  0  0  0  0  0  0  0  0
    1.6566    0.8547   -0.2607 C   0  0  0  0  0  0  0  0  0  0  0  0
    3.0249    0.4708   -0.5768 C   0  0  0  0  0  0  0  0  0  0  0  0
    3.9383    1.2805   -0.6644 O   0  0  0  0  0  0  0  0  0  0  0  0
    3.3015   -0.8756   -0.7924 N   0  0  0  0  0  0  0  0  0  0  0  0
    4.6799   -1.2448   -1.1228 C   0  0  0  0  0  0  0  0  0  0  0  0
    5.5170   -1.5452    0.1141 C   0  0  0  0  0  0  0  0  0  0  0  0
    6.9458   -1.8853   -0.2891 C   0  0  0  0  0  0  0  0  0  0  0  0
    7.7405   -2.4346    0.7923 N   0  0  0  0  0  0  0  0  0  0  0  0
    9.0043   -2.9329    0.2941 C   0  0  0  0  0  0  0  0  0  0  0  0
    7.9506   -1.4887    1.8675 C   0  0  0  0  0  0  0  0  0  0  0  0
    0.6725   -0.1484   -0.1419 C   0  0  0  0  0  0  0  0  0  0  0  0
    1.0028   -1.5084   -0.3234 C   0  0  0  0  0  0  0  0  0  0  0  0
    2.3892   -1.8983   -0.6477 C   0  0  0  0  0  0  0  0  0  0  0  0
    2.7184   -3.0589   -0.7875 O   0  0  0  0  0  0  0  0  0  0  0  0
   -0.6634    0.1529    0.1636 C   0  0  0  0  0  0  0  0  0  0  0  0
   -1.6474   -0.8502    0.2824 C   0  0  0  0  0  0  0  0  0  0  0  0
   -1.2975   -2.2064    0.0953 C   0  0  0  0  0  0  0  0  0  0  0  0
    0.0617   -2.4918   -0.2092 C   0  0  0  0  0  0  0  0  0  0  0  0
   -2.1730   -3.2169    0.1940 N   0  0  0  0  0  0  0  0  0  0  0  0
   -1.8485   -4.6138    0.0160 C   0  0  0  0  0  0  0  0  0  0  0  0
   -3.0810   -5.4666    0.2675 C   0  0  0  0  0  0  0  0  0  0  0  0
   -2.7774   -6.9384    0.0686 C   0  0  0  0  0  0  0  0  0  0  0  0
   -3.9489   -7.6783    0.3300 O   0  0  0  0  0  0  0  0  0  0  0  0
    3.7493    8.6168   -0.2162 H   0  0  0  0  0  0  0  0  0  0  0  0
    2.4160    7.1119    0.9595 H   0  0  0  0  0  0  0  0  0  0  0  0
    1.9700    7.2342   -0.7406 H   0  0  0  0  0  0  0  0  0  0  0  0
    3.4532    5.2976   -1.2640 H   0  0  0  0  0  0  0  0  0  0  0  0
    3.8851    5.1735    0.4420 H   0  0  0  0  0  0  0  0  0  0  0  0
    1.4766    4.8047    1.0119 H   0  0  0  0  0  0  0  0  0  0  0  0
    1.0625    4.9107   -0.6944 H   0  0  0  0  0  0  0  0  0  0  0  0
    3.1377    2.9669   -0.3744 H   0  0  0  0  0  0  0  0  0  0  0  0
   -0.3569    3.5214    0.3832 H   0  0  0  0  0  0  0  0  0  0  0  0
   -5.1110    0.4363    1.7135 H   0  0  0  0  0  0  0  0  0  0  0  0
   -4.6351    2.1184    1.7946 H   0  0  0  0  0  0  0  0  0  0  0  0
   -5.0746    2.3915   -0.6422 H   0  0  0  0  0  0  0  0  0  0  0  0
   -5.4871    0.6845   -0.7623 H   0  0  0  0  0  0  0  0  0  0  0  0
   -7.4144    1.0039    0.7495 H   0  0  0  0  0  0  0  0  0  0  0  0
   -6.8978    2.6489    1.0994 H   0  0  0  0  0  0  0  0  0  0  0  0
   -8.4552    0.5783   -1.5213 H   0  0  0  0  0  0  0  0  0  0  0  0
   -8.5499    1.9548   -2.6299 H   0  0  0  0  0  0  0  0  0  0  0  0
   -6.9958    1.2033   -2.3064 H   0  0  0  0  0  0  0  0  0  0  0  0
   -8.8176    3.7099    0.4811 H   0  0  0  0  0  0  0  0  0  0  0  0
   -9.5558    3.4071   -1.0919 H   0  0  0  0  0  0  0  0  0  0  0  0
   -9.6269    2.1668    0.1679 H   0  0  0  0  0  0  0  0  0  0  0  0
    4.6428   -2.1135   -1.7766 H   0  0  0  0  0  0  0  0  0  0  0  0
    5.1191   -0.4315   -1.6956 H   0  0  0  0  0  0  0  0  0  0  0  0
    5.4931   -0.6821    0.7823 H   0  0  0  0  0  0  0  0  0  0  0  0
    5.0865   -2.3901    0.6569 H   0  0  0  0  0  0  0  0  0  0  0  0
    6.9105   -2.6366   -1.0845 H   0  0  0  0  0  0  0  0  0  0  0  0
    7.4220   -0.9909   -0.7302 H   0  0  0  0  0  0  0  0  0  0  0  0
    9.6374   -2.1496   -0.1528 H   0  0  0  0  0  0  0  0  0  0  0  0
    9.5711   -3.3920    1.1052 H   0  0  0  0  0  0  0  0  0  0  0  0
    8.8332   -3.6950   -0.4678 H   0  0  0  0  0  0  0  0  0  0  0  0
    7.0047   -1.1980    2.3242 H   0  0  0  0  0  0  0  0  0  0  0  0
    8.5595   -1.9482    2.6474 H   0  0  0  0  0  0  0  0  0  0  0  0
    8.4640   -0.5695    1.5416 H   0  0  0  0  0  0  0  0  0  0  0  0
    0.3662   -3.5171   -0.3621 H   0  0  0  0  0  0  0  0  0  0  0  0
   -3.1289   -2.9622    0.3946 H   0  0  0  0  0  0  0  0  0  0  0  0
   -1.4742   -4.7953   -0.9978 H   0  0  0  0  0  0  0  0  0  0  0  0
   -1.0511   -4.9097    0.7058 H   0  0  0  0  0  0  0  0  0  0  0  0
   -3.4366   -5.2997    1.2880 H   0  0  0  0  0  0  0  0  0  0  0  0
   -3.8811   -5.1625   -0.4135 H   0  0  0  0  0  0  0  0  0  0  0  0
   -2.4213   -7.0995   -0.9575 H   0  0  0  0  0  0  0  0  0  0  0  0
   -1.9580   -7.2339    0.7371 H   0  0  0  0  0  0  0  0  0  0  0  0
   -3.7459   -8.6109    0.2158 H   0  0  0  0  0  0  0  0  0  0  0  0
  1  2  1  0
  2  3  1  0
  3  4  1  0
  4  5  1  0
  5  6  1  0
  6  7  2  0
  6 20  1  0
  7  8  1  0
  8  9  1  0
  8 34  2  0
  9 10  2  0
  9 11  1  0
 11 12  1  0
 11 18  1  0
 12 13  1  0
 13 14  1  0
 14 15  1  0
 15 16  1  0
 15 17  1  0
 18 19  2  0
 18 35  1  0
 20 21  1  0
 20 30  2  0
 21 22  2  0
 21 23  1  0
 23 24  1  0
 23 32  1  0
 24 25  1  0
 25 26  1  0
 26 27  1  0
 27 28  1  0
 27 29  1  0
 30 31  1  0
 30 34  1  0
 31 32  1  0
 31 37  2  0
 32 33  2  0
 34 35  1  0
 35 36  2  0
 36 37  1  0
 36 38  1  0
 38 39  1  0
 39 40  1  0
 40 41  1  0
 41 42  1  0
  1 43  1  0
  2 44  1  0
  2 45  1  0
  3 46  1  0
  3 47  1  0
  4 48  1  0
  4 49  1  0
  5 50  1  0
  7 51  1  0
 12 52  1  0
 12 53  1  0
 13 54  1  0
 13 55  1  0
 14 56  1  0
 14 57  1  0
 16 58  1  0
 16 59  1  0
 16 60  1  0
 17 61  1  0
 17 62  1  0
 17 63  1  0
 24 64  1  0
 24 65  1  0
 25 66  1  0
 25 67  1  0
 26 68  1  0
 26 69  1  0
 28 70  1  0
 28 71  1  0
 28 72  1  0
 29 73  1  0
 29 74  1  0
 29 75  1  0
 37 76  1  0
 38 77  1  0
 39 78  1  0
 39 79  1  0
 40 80  1  0
 40 81  1  0
 41 82  1  0
 41 83  1  0
 42 84  1  0
M  END
