
     RDKit          3D

 16 15  0  0  0  0  0  0  0  0999 V2000
    2.6820   -1.1082    0.0280 N   0  0  0  0  0  0  0  0  0  0  0  0
    1.3965   -1.0703   -0.6332 C   0  0  2  0  0  0  0  0  0  0  0  0
    1.5385   -0.7420   -2.1105 C   0  0  0  0  0  0  0  0  0  0  0  0
    2.3732   -0.0485   -2.6916 O   0  0  0  0  0  0  0  0  0  0  0  0
    0.3392   -0.1420   -0.0196 C   0  0  0  0  0  0  0  0  0  0  0  0
    0.7730    1.5500    0.1510 S   0  0  0  0  0  0  0  0  0  0  0  0
    1.6182    1.5456    1.6639 O   0  0  0  0  0  0  0  0  0  0  0  0
    2.8734    1.3656    1.5314 O   0  0  0  0  0  0  0  0  0  0  0  0
    0.5727   -1.3248   -2.8773 O   0  0  0  0  0  0  0  0  0  0  0  0
    3.2793   -0.3689   -0.2956 H   0  0  0  0  0  0  0  0  0  0  0  0
    2.5630   -1.0205    1.0200 H   0  0  0  0  0  0  0  0  0  0  0  0
    0.9750   -2.1248   -0.5774 H   0  0  0  0  0  0  0  0  0  0  0  0
    0.0503   -0.5513    0.9821 H   0  0  0  0  0  0  0  0  0  0  0  0
   -0.5725   -0.1527   -0.6734 H   0  0  0  0  0  0  0  0  0  0  0  0
    3.3283    2.2367    1.6231 H   0  0  0  0  0  0  0  0  0  0  0  0
    0.7090   -1.0839   -3.8091 H   0  0  0  0  0  0  0  0  0  0  0  0
  1  2  1  0
  1 10  1  0
  1 11  1  0
  2  3  1  0
  2  5  1  0
  2 12  1  6
  3  4  2  0
  3  9  1  0
  5  6  1  0
  5 13  1  0
  5 14  1  0
  6  7  1  0
  7  8  1  0
  8 15  1  0
  9 16  1  0
M  END
