
     RDKit          3D

 63 67  0  0  0  0  0  0  0  0999 V2000
    0.9907   -1.3757   -4.6474 C   0  0  0  0  0  0  0  0  0  0  0  0
   -0.1520   -1.3507   -5.6486 C   0  0  0  0  0  0  0  0  0  0  0  0
   -0.2262   -0.1140   -6.3238 O   0  0  0  0  0  0  0  0  0  0  0  0
   -0.3840    0.9615   -5.4273 C   0  0  0  0  0  0  0  0  0  0  0  0
    0.7536    1.0169   -4.4210 C   0  0  0  0  0  0  0  0  0  0  0  0
    0.8482   -0.2578   -3.7291 N   0  0  0  0  0  0  0  0  0  0  0  0
    0.6841   -0.4544   -2.4093 C   0  0  0  0  0  0  0  0  0  0  0  0
    0.7287   -1.5549   -1.8829 O   0  0  0  0  0  0  0  0  0  0  0  0
    0.4219    0.7906   -1.5596 C   0  0  0  0  0  0  0  0  0  0  0  0
    0.2831    0.4614   -0.1743 N   0  0  0  0  0  0  0  0  0  0  0  0
    1.3252    0.2792    0.6887 C   0  0  0  0  0  0  0  0  0  0  0  0
    2.6883    0.3459    0.4507 C   0  0  0  0  0  0  0  0  0  0  0  0
    3.5464    0.1407    1.5231 C   0  0  0  0  0  0  0  0  0  0  0  0
    4.9988    0.2159    1.2594 C   0  0  0  0  0  0  0  0  0  0  0  0
    5.4812    0.4420    0.1727 O   0  0  0  0  0  0  0  0  0  0  0  0
    5.7393    0.0098    2.3424 O   0  0  0  0  0  0  0  0  0  0  0  0
    3.0333   -0.1304    2.8081 C   0  0  0  0  0  0  0  0  0  0  0  0
    1.6761   -0.1974    3.0322 C   0  0  0  0  0  0  0  0  0  0  0  0
    0.7883    0.0067    1.9670 C   0  0  0  0  0  0  0  0  0  0  0  0
   -0.6352    0.0151    1.8377 C   0  0  0  0  0  0  0  0  0  0  0  0
   -1.6523   -0.2266    2.9092 C   0  0  1  0  0  0  0  0  0  0  0  0
   -1.5160   -1.6145    3.5502 C   0  0  0  0  0  0  0  0  0  0  0  0
   -2.5780   -1.8353    4.6234 C   0  0  0  0  0  0  0  0  0  0  0  0
   -2.5417   -0.7399    5.6832 C   0  0  0  0  0  0  0  0  0  0  0  0
   -2.6856    0.6401    5.0504 C   0  0  0  0  0  0  0  0  0  0  0  0
   -1.6247    0.8714    3.9795 C   0  0  0  0  0  0  0  0  0  0  0  0
   -0.8957    0.2906    0.5167 C   0  0  0  0  0  0  0  0  0  0  0  0
   -2.2006    0.4184   -0.1476 C   0  0  0  0  0  0  0  0  0  0  0  0
   -2.5734   -0.4464   -1.1778 C   0  0  0  0  0  0  0  0  0  0  0  0
   -3.8098   -0.3142   -1.7930 C   0  0  0  0  0  0  0  0  0  0  0  0
   -4.6913    0.6776   -1.3830 C   0  0  0  0  0  0  0  0  0  0  0  0
   -4.3318    1.5368   -0.3532 C   0  0  0  0  0  0  0  0  0  0  0  0
   -3.0930    1.4100    0.2590 C   0  0  0  0  0  0  0  0  0  0  0  0
    1.9511   -1.2922   -5.1652 H   0  0  0  0  0  0  0  0  0  0  0  0
    0.9871   -2.3130   -4.0970 H   0  0  0  0  0  0  0  0  0  0  0  0
   -0.0027   -2.1248   -6.4021 H   0  0  0  0  0  0  0  0  0  0  0  0
   -1.0962   -1.5633   -5.1273 H   0  0  0  0  0  0  0  0  0  0  0  0
   -0.4043    1.8794   -6.0159 H   0  0  0  0  0  0  0  0  0  0  0  0
   -1.3389    0.8826   -4.8873 H   0  0  0  0  0  0  0  0  0  0  0  0
    0.5916    1.8418   -3.7322 H   0  0  0  0  0  0  0  0  0  0  0  0
    1.7011    1.2095   -4.9331 H   0  0  0  0  0  0  0  0  0  0  0  0
   -0.4883    1.2911   -1.8931 H   0  0  0  0  0  0  0  0  0  0  0  0
    1.2275    1.5185   -1.6798 H   0  0  0  0  0  0  0  0  0  0  0  0
    3.0852    0.5510   -0.5352 H   0  0  0  0  0  0  0  0  0  0  0  0
    6.6782    0.0688    2.1122 H   0  0  0  0  0  0  0  0  0  0  0  0
    3.7065   -0.2902    3.6383 H   0  0  0  0  0  0  0  0  0  0  0  0
    1.3097   -0.4034    4.0290 H   0  0  0  0  0  0  0  0  0  0  0  0
   -2.6425   -0.1926    2.4385 H   0  0  0  0  0  0  0  0  0  0  0  0
   -1.5958   -2.3825    2.7764 H   0  0  0  0  0  0  0  0  0  0  0  0
   -0.5222   -1.7293    3.9956 H   0  0  0  0  0  0  0  0  0  0  0  0
   -3.5664   -1.8443    4.1503 H   0  0  0  0  0  0  0  0  0  0  0  0
   -2.4454   -2.8171    5.0842 H   0  0  0  0  0  0  0  0  0  0  0  0
   -3.3329   -0.9011    6.4200 H   0  0  0  0  0  0  0  0  0  0  0  0
   -1.5939   -0.7906    6.2313 H   0  0  0  0  0  0  0  0  0  0  0  0
   -3.6813    0.7297    4.6018 H   0  0  0  0  0  0  0  0  0  0  0  0
   -2.6192    1.4186    5.8142 H   0  0  0  0  0  0  0  0  0  0  0  0
   -0.6372    0.9009    4.4528 H   0  0  0  0  0  0  0  0  0  0  0  0
   -1.7683    1.8472    3.5076 H   0  0  0  0  0  0  0  0  0  0  0  0
   -1.9054   -1.2399   -1.4870 H   0  0  0  0  0  0  0  0  0  0  0  0
   -4.0878   -0.9936   -2.5881 H   0  0  0  0  0  0  0  0  0  0  0  0
   -5.6569    0.7777   -1.8612 H   0  0  0  0  0  0  0  0  0  0  0  0
   -5.0145    2.3103   -0.0269 H   0  0  0  0  0  0  0  0  0  0  0  0
   -2.8124    2.0908    1.0531 H   0  0  0  0  0  0  0  0  0  0  0  0
  1  2  1  0
  1  6  1  0
  1 34  1  0
  1 35  1  0
  2  3  1  0
  2 36  1  0
  2 37  1  0
  3  4  1  0
  4  5  1  0
  4 38  1  0
  4 39  1  0
  5  6  1  0
  5 40  1  0
  5 41  1  0
  6  7  1  0
  7  8  2  0
  7  9  1  0
  9 10  1  0
  9 42  1  0
  9 43  1  0
 10 11  1  0
 10 27  1  0
 11 12  2  0
 11 19  1  0
 12 13  1  0
 12 44  1  0
 13 14  1  0
 13 17  2  0
 14 15  2  0
 14 16  1  0
 16 45  1  0
 17 18  1  0
 17 46  1  0
 18 19  2  0
 18 47  1  0
 19 20  1  0
 20 21  1  0
 20 27  2  0
 21 22  1  0
 21 26  1  0
 21 48  1  6
 22 23  1  0
 22 49  1  0
 22 50  1  0
 23 24  1  0
 23 51  1  0
 23 52  1  0
 24 25  1  0
 24 53  1  0
 24 54  1  0
 25 26  1  0
 25 55  1  0
 25 56  1  0
 26 57  1  0
 26 58  1  0
 27 28  1  0
 28 29  2  0
 28 33  1  0
 29 30  1  0
 29 59  1  0
 30 31  2  0
 30 60  1  0
 31 32  1  0
 31 61  1  0
 32 33  2  0
 32 62  1  0
 33 63  1  0
M  END
