
     RDKit          3D

 56 60  0  0  0  0  0  0  0  0999 V2000
   -7.6696    0.6664   -2.4671 C   0  0  0  0  0  0  0  0  0  0  0  0
   -7.0496    1.1493   -1.3972 C   0  0  0  0  0  0  0  0  0  0  0  0
   -6.1268    0.3106   -0.5869 C   0  0  0  0  0  0  0  0  0  0  0  0
   -5.8759   -0.8554   -0.8643 O   0  0  0  0  0  0  0  0  0  0  0  0
   -5.6058    0.9451    0.4793 N   0  0  0  0  0  0  0  0  0  0  0  0
   -4.6794    0.3379    1.4081 C   0  0  0  0  0  0  0  0  0  0  0  0
   -3.2402    0.6603    1.0884 C   0  0  0  0  0  0  0  0  0  0  0  0
   -2.5278    1.5596    1.8733 C   0  0  0  0  0  0  0  0  0  0  0  0
   -1.2058    1.8648    1.5877 C   0  0  0  0  0  0  0  0  0  0  0  0
   -0.5970    1.2696    0.4954 C   0  0  0  0  0  0  0  0  0  0  0  0
   -1.2935    0.3855   -0.3170 C   0  0  0  0  0  0  0  0  0  0  0  0
   -2.6079    0.0791   -0.0095 C   0  0  0  0  0  0  0  0  0  0  0  0
    0.7616    1.5759    0.2146 N   0  0  0  0  0  0  0  0  0  0  0  0
    1.7736    0.6991   -0.0226 C   0  0  0  0  0  0  0  0  0  0  0  0
    2.8837    1.4916   -0.2798 C   0  0  0  0  0  0  0  0  0  0  0  0
    2.4153    2.8047   -0.1437 C   0  0  0  0  0  0  0  0  0  0  0  0
    1.1332    2.8460    0.1577 N   0  0  0  0  0  0  0  0  0  0  0  0
    3.3012    3.9487   -0.2922 C   0  0  0  0  0  0  0  0  0  0  0  0
    4.5710    3.5465   -0.5509 N   0  0  0  0  0  0  0  0  0  0  0  0
    5.0679    2.2920   -0.7008 N   0  0  0  0  0  0  0  0  0  0  0  0
    4.2792    1.2792   -0.5620 C   0  0  0  0  0  0  0  0  0  0  0  0
    2.9754    5.1239   -0.1931 O   0  0  0  0  0  0  0  0  0  0  0  0
    4.8025    0.0159   -0.6169 N   0  0  0  0  0  0  0  0  0  0  0  0
    1.6127   -0.7374    0.0540 C   0  0  0  0  0  0  0  0  0  0  0  0
    1.0985   -1.5426    1.0149 C   0  0  0  0  0  0  0  0  0  0  0  0
    1.2053   -2.8749    0.4831 C   0  0  0  0  0  0  0  0  0  0  0  0
    1.8012   -2.7462   -0.7676 C   0  0  0  0  0  0  0  0  0  0  0  0
    2.0485   -1.4439   -1.0342 O   0  0  0  0  0  0  0  0  0  0  0  0
    0.5402   -1.1676    2.3400 C   0  0  0  0  0  0  0  0  0  0  0  0
    0.8593   -4.1430    0.9539 C   0  0  0  0  0  0  0  0  0  0  0  0
    1.1224   -5.2494    0.1617 C   0  0  0  0  0  0  0  0  0  0  0  0
    1.7299   -5.0719   -1.0963 C   0  0  0  0  0  0  0  0  0  0  0  0
    2.0818   -3.8262   -1.5858 C   0  0  0  0  0  0  0  0  0  0  0  0
    0.7858   -6.6356    0.6329 C   0  0  0  0  0  0  0  0  0  0  0  0
   -8.3410    1.2814   -3.0498 H   0  0  0  0  0  0  0  0  0  0  0  0
   -7.5292   -0.3556   -2.7942 H   0  0  0  0  0  0  0  0  0  0  0  0
   -7.2072    2.1772   -1.0897 H   0  0  0  0  0  0  0  0  0  0  0  0
   -5.8278    1.9174    0.6208 H   0  0  0  0  0  0  0  0  0  0  0  0
   -4.9222    0.6925    2.4098 H   0  0  0  0  0  0  0  0  0  0  0  0
   -4.8357   -0.7401    1.4004 H   0  0  0  0  0  0  0  0  0  0  0  0
   -3.0022    2.0221    2.7298 H   0  0  0  0  0  0  0  0  0  0  0  0
   -0.6523    2.5485    2.2174 H   0  0  0  0  0  0  0  0  0  0  0  0
   -0.8235   -0.0570   -1.1850 H   0  0  0  0  0  0  0  0  0  0  0  0
   -3.1489   -0.6174   -0.6371 H   0  0  0  0  0  0  0  0  0  0  0  0
    5.2706    4.2649   -0.6699 H   0  0  0  0  0  0  0  0  0  0  0  0
    5.7586   -0.0203   -0.9378 H   0  0  0  0  0  0  0  0  0  0  0  0
    4.2299   -0.6803   -1.0670 H   0  0  0  0  0  0  0  0  0  0  0  0
   -0.5515   -1.1815    2.3242 H   0  0  0  0  0  0  0  0  0  0  0  0
    0.8643   -1.8741    3.1048 H   0  0  0  0  0  0  0  0  0  0  0  0
    0.8559   -0.1731    2.6505 H   0  0  0  0  0  0  0  0  0  0  0  0
    0.3889   -4.2602    1.9230 H   0  0  0  0  0  0  0  0  0  0  0  0
    1.9273   -5.9449   -1.7067 H   0  0  0  0  0  0  0  0  0  0  0  0
    2.5474   -3.7093   -2.5554 H   0  0  0  0  0  0  0  0  0  0  0  0
    0.3106   -7.2200   -0.1555 H   0  0  0  0  0  0  0  0  0  0  0  0
    1.6844   -7.1769    0.9356 H   0  0  0  0  0  0  0  0  0  0  0  0
    0.1120   -6.6148    1.4882 H   0  0  0  0  0  0  0  0  0  0  0  0
 29 25  1  0
 22 18  2  0
 12 11  1  0
 12  7  2  0
 11 10  2  0
 19 18  1  0
 19 20  1  0
 18 16  1  0
 20 21  2  0
 16 17  2  0
 16 15  1  0
 25 24  2  0
 25 26  1  0
 21 15  1  0
 21 23  1  0
 17 13  1  0
 15 14  2  0
 14 13  1  0
 14 24  1  0
 13 10  1  0
  6  7  1  0
  6  5  1  0
 10  9  1  0
  7  8  1  0
 24 28  1  0
 30 26  2  0
 30 31  1  0
 26 27  1  0
  5  3  1  0
  9  8  2  0
 31 34  1  0
 31 32  2  0
 28 27  1  0
 27 33  2  0
  3  4  2  0
  3  2  1  0
 32 33  1  0
  2  1  2  0
  1 35  1  0
  1 36  1  0
  2 37  1  0
  5 38  1  0
  6 39  1  0
  6 40  1  0
  8 41  1  0
  9 42  1  0
 11 43  1  0
 12 44  1  0
 19 45  1  0
 23 46  1  0
 23 47  1  0
 29 48  1  0
 29 49  1  0
 29 50  1  0
 30 51  1  0
 32 52  1  0
 33 53  1  0
 34 54  1  0
 34 55  1  0
 34 56  1  0
M  END
