
     RDKit          3D

 26 28  0  0  0  0  0  0  0  0999 V2000
   -3.7536   -0.1585    0.0363 C   0  0  0  0  0  0  0  0  0  0  0  0
   -1.9676    1.1649   -1.2744 C   0  0  0  0  0  0  0  0  0  0  0  0
   -2.4292    0.1634   -0.3893 C   0  0  0  0  0  0  0  0  0  0  0  0
    3.0720   -1.4236   -0.9624 C   0  0  0  0  0  0  0  0  0  0  0  0
    1.7241   -1.1525   -1.1259 C   0  0  0  0  0  0  0  0  0  0  0  0
    1.1198   -0.1233   -0.4200 C   0  0  0  0  0  0  0  0  0  0  0  0
    1.8782    0.6383    0.4651 C   0  0  0  0  0  0  0  0  0  0  0  0
    3.2289    0.3875    0.6381 C   0  0  0  0  0  0  0  0  0  0  0  0
    3.8087   -0.6454   -0.0828 C   0  0  0  0  0  0  0  0  0  0  0  0
   -1.2702   -0.4794    0.0431 C   0  0  0  0  0  0  0  0  0  0  0  0
   -0.2525    0.1430   -0.5874 N   0  0  0  0  0  0  0  0  0  0  0  0
   -0.6688    1.1587   -1.3883 N   0  0  0  0  0  0  0  0  0  0  0  0
   -4.8904    0.4382   -0.3366 N   0  0  0  0  0  0  0  0  0  0  0  0
   -5.9099   -0.1422    0.2853 N   0  0  0  0  0  0  0  0  0  0  0  0
   -5.4134   -1.0595    1.0102 N   0  0  0  0  0  0  0  0  0  0  0  0
   -4.0872   -1.1093    0.8900 N   0  0  0  0  0  0  0  0  0  0  0  0
   -1.1055   -1.5424    0.8570 N   0  0  0  0  0  0  0  0  0  0  0  0
    5.4911   -0.9653    0.1280 Cl  0  0  0  0  0  0  0  0  0  0  0  0
    1.1264    1.8983    1.3613 Cl  0  0  0  0  0  0  0  0  0  0  0  0
    3.5390   -2.2262   -1.5153 H   0  0  0  0  0  0  0  0  0  0  0  0
    1.1315   -1.7430   -1.8117 H   0  0  0  0  0  0  0  0  0  0  0  0
    3.8142    0.9827    1.3247 H   0  0  0  0  0  0  0  0  0  0  0  0
   -5.0473    1.2087   -0.9704 H   0  0  0  0  0  0  0  0  0  0  0  0
   -1.9085   -1.7930    1.4141 H   0  0  0  0  0  0  0  0  0  0  0  0
   -0.2215   -1.6539    1.3285 H   0  0  0  0  0  0  0  0  0  0  0  0
   -2.5577    1.8830   -1.8247 H   0  0  0  0  0  0  0  0  0  0  0  0
 18  9  1  0
  9  8  1  0
  9  4  2  0
  8  7  2  0
  4  5  1  0
  7 19  1  0
  7  6  1  0
  5  6  2  0
  6 11  1  0
 17 10  1  0
 11 10  1  0
 11 12  1  0
 10  3  2  0
 12  2  2  0
  3  1  1  0
  3  2  1  0
 16  1  2  0
 16 15  1  0
  1 13  1  0
 15 14  2  0
 13 14  1  0
  2 26  1  0
  4 20  1  0
  5 21  1  0
  8 22  1  0
 13 23  1  0
 17 24  1  0
 17 25  1  0
M  END
