
     RDKit          3D

 24 25  0  0  0  0  0  0  0  0999 V2000
   -2.6483    1.0404   -0.4935 C   0  0  0  0  0  0  0  0  0  0  0  0
   -2.7202   -1.0340    0.3260 C   0  0  0  0  0  0  0  0  0  0  0  0
    2.3031   -0.0255    0.3028 C   0  0  0  0  0  0  0  0  0  0  0  0
    1.6058   -1.1861   -0.0171 C   0  0  0  0  0  0  0  0  0  0  0  0
    0.2254   -1.1851   -0.1385 C   0  0  0  0  0  0  0  0  0  0  0  0
   -0.4872   -0.0094    0.0751 C   0  0  0  0  0  0  0  0  0  0  0  0
    0.1953    1.1589    0.3992 C   0  0  0  0  0  0  0  0  0  0  0  0
    1.5777    1.1451    0.4980 C   0  0  0  0  0  0  0  0  0  0  0  0
   -3.9647    0.6729   -0.4355 C   0  0  0  0  0  0  0  0  0  0  0  0
   -4.0105   -0.6466    0.0891 C   0  0  0  0  0  0  0  0  0  0  0  0
   -1.8901   -0.0029   -0.0295 N   0  0  0  0  0  0  0  0  0  0  0  0
    4.3068    0.2461   -0.9159 O   0  0  0  0  0  0  0  0  0  0  0  0
   -2.1889    1.9451   -0.8553 H   0  0  0  0  0  0  0  0  0  0  0  0
   -2.3307   -1.9452    0.7487 H   0  0  0  0  0  0  0  0  0  0  0  0
    4.1318    0.7271    1.1022 H   0  0  0  0  0  0  0  0  0  0  0  0
    4.1473   -0.9992    0.7446 H   0  0  0  0  0  0  0  0  0  0  0  0
    2.1475   -2.1095   -0.1838 H   0  0  0  0  0  0  0  0  0  0  0  0
   -0.2898   -2.0957   -0.4147 H   0  0  0  0  0  0  0  0  0  0  0  0
   -0.3478    2.0745    0.5939 H   0  0  0  0  0  0  0  0  0  0  0  0
    2.0947    2.0615    0.7559 H   0  0  0  0  0  0  0  0  0  0  0  0
   -4.8023    1.2798   -0.7411 H   0  0  0  0  0  0  0  0  0  0  0  0
   -4.8906   -1.2398    0.2806 H   0  0  0  0  0  0  0  0  0  0  0  0
    5.2675    0.2269   -0.8649 H   0  0  0  0  0  0  0  0  0  0  0  0
    3.8018   -0.0260    0.3766 C   0  0  0  0  0  0  0  0  0  0  0  0
  9  1  2  0
  9 10  1  0
  1 11  1  0
 10  2  2  0
 11  2  1  0
 11  6  1  0
  7  6  2  0
  7  8  1  0
  6  5  1  0
  8  3  2  0
  5  4  2  0
  3  4  1  0
  3 24  1  0
 24 12  1  0
  1 13  1  0
  2 14  1  0
 24 15  1  0
 24 16  1  0
  4 17  1  0
  5 18  1  0
  7 19  1  0
  8 20  1  0
  9 21  1  0
 10 22  1  0
 12 23  1  0
M  END
