
     RDKit          3D

 17 17  0  0  0  0  0  0  0  0999 V2000
   -2.7759    0.2804   -1.5155 N   0  0  0  0  0  0  0  0  0  0  0  0
    1.4286   -1.1820    0.0171 C   0  0  0  0  0  0  0  0  0  0  0  0
    2.1040    0.0258   -0.0238 C   0  0  0  0  0  0  0  0  0  0  0  0
    1.3651    1.2005   -0.0428 C   0  0  0  0  0  0  0  0  0  0  0  0
   -0.0178    1.1873   -0.0223 C   0  0  0  0  0  0  0  0  0  0  0  0
   -0.6537   -0.0448    0.0174 C   0  0  0  0  0  0  0  0  0  0  0  0
    0.0430   -1.2398    0.0422 C   0  0  0  0  0  0  0  0  0  0  0  0
    2.1963    2.7108   -0.0894 Cl  0  0  0  0  0  0  0  0  0  0  0  0
   -2.4315   -0.0751    0.0538 S   0  0  1  0  0  0  0  0  0  0  0  0
   -2.9071    1.0522    0.8388 O   0  0  0  0  0  0  0  0  0  0  0  0
   -2.8344   -1.4180    0.4416 O   0  0  0  0  0  0  0  0  0  0  0  0
   -2.6376   -0.5043   -2.1438 H   0  0  0  0  0  0  0  0  0  0  0  0
   -3.7114    0.6623   -1.6185 H   0  0  0  0  0  0  0  0  0  0  0  0
    3.1845    0.0544   -0.0397 H   0  0  0  0  0  0  0  0  0  0  0  0
   -0.5795    2.1113   -0.0372 H   0  0  0  0  0  0  0  0  0  0  0  0
   -0.4687   -2.1910    0.0815 H   0  0  0  0  0  0  0  0  0  0  0  0
    2.3335   -2.6496    0.0436 Cl  0  0  0  0  0  0  0  0  0  0  0  0
  9  1  1  6
 11  9  2  0
  9  6  1  0
  9 10  2  0
 17  2  1  0
  7  6  1  0
  7  2  2  0
  6  5  2  0
  2  3  1  0
  5  4  1  0
  3  4  2  0
  4  8  1  0
  1 12  1  0
  1 13  1  0
  3 14  1  0
  5 15  1  0
  7 16  1  0
M  END
