
     RDKit          3D

 53 57  0  0  0  0  0  0  0  0999 V2000
   -8.9007    1.9936   -0.1889 N   0  0  0  0  0  0  0  0  0  0  0  0
    3.7447    0.7916   -0.8885 N   0  0  0  0  0  0  0  0  0  0  0  0
    6.2301   -2.5614    0.2770 C   0  0  0  0  0  0  0  0  0  0  0  0
   -6.5998   -0.1463    1.3258 C   0  0  0  0  0  0  0  0  0  0  0  0
    7.0724    0.0701    0.0416 C   0  0  0  0  0  0  0  0  0  0  0  0
    5.4857   -1.6584   -0.4668 C   0  0  0  0  0  0  0  0  0  0  0  0
   -5.4647   -0.9155    1.4953 C   0  0  0  0  0  0  0  0  0  0  0  0
   -6.7905    0.5473    0.1323 C   0  0  0  0  0  0  0  0  0  0  0  0
   -4.5120   -1.0074    0.4832 C   0  0  0  0  0  0  0  0  0  0  0  0
    1.6802    0.4657   -0.7201 C   0  0  0  0  0  0  0  0  0  0  0  0
    0.3256   -0.0585   -0.9593 C   0  0  0  0  0  0  0  0  0  0  0  0
   -0.3529    1.7533    0.5831 C   0  0  0  0  0  0  0  0  0  0  0  0
   -2.6254    0.2274   -1.6048 C   0  0  0  0  0  0  0  0  0  0  0  0
   -1.9898    0.0467   -0.2147 C   0  0  1  0  0  0  0  0  0  0  0  0
    5.0942    0.6443   -1.4009 C   0  0  0  0  0  0  0  0  0  0  0  0
   -7.9576    1.3470   -0.0472 C   0  0  0  0  0  0  0  0  0  0  0  0
    7.4014   -2.1513    0.9035 C   0  0  0  0  0  0  0  0  0  0  0  0
    7.8230   -0.8353    0.7819 C   0  0  0  0  0  0  0  0  0  0  0  0
   -5.8485    0.4643   -0.8910 C   0  0  0  0  0  0  0  0  0  0  0  0
    2.0095    1.2781    0.3682 C   0  0  0  0  0  0  0  0  0  0  0  0
    5.9025   -0.3347   -0.5894 C   0  0  0  0  0  0  0  0  0  0  0  0
   -4.7260   -0.3231   -0.7188 C   0  0  0  0  0  0  0  0  0  0  0  0
    3.3579    1.4589    0.2257 C   0  0  0  0  0  0  0  0  0  0  0  0
   -2.1064   -1.3674    0.3637 C   0  0  0  0  0  0  0  0  0  0  0  0
    0.9721    1.7151    1.3325 C   0  0  0  0  0  0  0  0  0  0  0  0
    2.7303    0.1719   -1.4681 N   0  0  0  0  0  0  0  0  0  0  0  0
   -3.3725   -1.8092    0.6366 N   0  0  0  0  0  0  0  0  0  0  0  0
   -0.6255    0.5212   -0.1738 N   0  0  0  0  0  0  0  0  0  0  0  0
    0.1069   -0.9467   -1.7643 O   0  0  0  0  0  0  0  0  0  0  0  0
   -1.1362   -2.0336    0.6496 O   0  0  0  0  0  0  0  0  0  0  0  0
   -3.8451   -0.4832   -1.7338 O   0  0  0  0  0  0  0  0  0  0  0  0
    4.4456    2.3460    1.1794 Cl  0  0  0  0  0  0  0  0  0  0  0  0
    5.8986   -3.5880    0.3655 H   0  0  0  0  0  0  0  0  0  0  0  0
   -7.3298   -0.0784    2.1199 H   0  0  0  0  0  0  0  0  0  0  0  0
    7.4023    1.0984   -0.0448 H   0  0  0  0  0  0  0  0  0  0  0  0
    4.5758   -1.9881   -0.9544 H   0  0  0  0  0  0  0  0  0  0  0  0
   -5.3178   -1.4418    2.4288 H   0  0  0  0  0  0  0  0  0  0  0  0
   -1.1639    1.8940    1.2937 H   0  0  0  0  0  0  0  0  0  0  0  0
   -0.3634    2.6113   -0.0954 H   0  0  0  0  0  0  0  0  0  0  0  0
   -2.7813    1.2980   -1.7744 H   0  0  0  0  0  0  0  0  0  0  0  0
   -1.9802   -0.1596   -2.3855 H   0  0  0  0  0  0  0  0  0  0  0  0
   -2.5459    0.6868    0.4765 H   0  0  0  0  0  0  0  0  0  0  0  0
    4.9895    0.3116   -2.4324 H   0  0  0  0  0  0  0  0  0  0  0  0
    5.5738    1.6229   -1.4210 H   0  0  0  0  0  0  0  0  0  0  0  0
    7.9815   -2.8564    1.4847 H   0  0  0  0  0  0  0  0  0  0  0  0
    8.7335   -0.5088    1.2672 H   0  0  0  0  0  0  0  0  0  0  0  0
   -5.9993    0.9851   -1.8276 H   0  0  0  0  0  0  0  0  0  0  0  0
    1.1768    2.7057    1.7396 H   0  0  0  0  0  0  0  0  0  0  0  0
    0.9158    1.0213    2.1759 H   0  0  0  0  0  0  0  0  0  0  0  0
   -2.8694   -3.8313    0.8467 H   0  0  0  0  0  0  0  0  0  0  0  0
   -3.2435   -3.0216    2.3740 H   0  0  0  0  0  0  0  0  0  0  0  0
   -4.5378   -3.4287    1.2338 H   0  0  0  0  0  0  0  0  0  0  0  0
   -3.5092   -3.0906    1.3189 C   0  0  0  0  0  0  0  0  0  0  0  0
  3 17  2  0
  3  6  1  0
 17 18  1  0
  6 21  2  0
 18  5  2  0
 21  5  1  0
 21 15  1  0
 15  2  1  0
 26  2  1  0
 26 10  2  0
  2 23  1  0
 29 11  2  0
 10 11  1  0
 10 20  1  0
 23 32  1  0
 23 20  2  0
 11 28  1  0
  1 16  3  0
 20 25  1  0
 16  8  1  0
 28 12  1  0
 28 14  1  0
 13 14  1  0
 13 31  1  0
 12 25  1  0
 19  8  1  0
 19 22  2  0
  8  4  2  0
 14 24  1  0
 31 22  1  0
  4  7  1  0
 22  9  1  0
  7  9  2  0
  9 27  1  0
 24 27  1  0
 24 30  2  0
 27 53  1  0
  3 33  1  0
  4 34  1  0
  5 35  1  0
  6 36  1  0
  7 37  1  0
 12 38  1  0
 12 39  1  0
 13 40  1  0
 13 41  1  0
 14 42  1  1
 15 43  1  0
 15 44  1  0
 17 45  1  0
 18 46  1  0
 19 47  1  0
 25 48  1  0
 25 49  1  0
 53 50  1  0
 53 51  1  0
 53 52  1  0
M  END
