
     RDKit          3D

 85 88  0  0  0  0  0  0  0  0999 V2000
   -4.3761   -4.1882   -1.4557 O   0  0  0  0  0  0  0  0  0  0  0  0
   -4.8115   -3.7640   -0.3990 C   0  0  0  0  0  0  0  0  0  0  0  0
   -6.0691   -4.3091    0.2265 C   0  0  0  0  0  0  0  0  0  0  0  0
   -4.2132   -2.7660    0.2956 N   0  0  0  0  0  0  0  0  0  0  0  0
   -3.0151   -2.1215   -0.1177 C   0  0  1  0  0  0  0  0  0  0  0  0
   -3.0488   -0.6378    0.2584 C   0  0  2  0  0  0  0  0  0  0  0  0
   -4.1342    0.0425   -0.4042 N   0  0  0  0  0  0  0  0  0  0  0  0
   -5.3137    0.3230    0.1889 C   0  0  0  0  0  0  0  0  0  0  0  0
   -6.3605    0.9199   -0.6970 C   0  0  0  0  0  0  0  0  0  0  0  0
   -6.4337    0.6421   -2.0627 C   0  0  0  0  0  0  0  0  0  0  0  0
   -7.4488    1.2080   -2.8142 C   0  0  0  0  0  0  0  0  0  0  0  0
   -8.3885    2.0522   -2.2363 C   0  0  0  0  0  0  0  0  0  0  0  0
   -8.3175    2.3246   -0.8714 C   0  0  0  0  0  0  0  0  0  0  0  0
   -9.1734    3.1228   -0.2098 O   0  0  0  0  0  0  0  0  0  0  0  0
  -10.2229    3.7377   -0.9322 C   0  0  0  0  0  0  0  0  0  0  0  0
   -7.3068    1.7440   -0.1063 C   0  0  0  0  0  0  0  0  0  0  0  0
   -5.5251    0.1247    1.3756 O   0  0  0  0  0  0  0  0  0  0  0  0
   -1.9196   -2.7345    0.5166 O   0  0  0  0  0  0  0  0  0  0  0  0
   -0.6728   -2.2294    0.0873 C   0  0  2  0  0  0  0  0  0  0  0  0
    0.4045   -3.0940    0.7086 C   0  0  0  0  0  0  0  0  0  0  0  0
    0.2404   -4.4124    0.2460 O   0  0  0  0  0  0  0  0  0  0  0  0
   -0.5538   -0.7513    0.4888 C   0  0  2  0  0  0  0  0  0  0  0  0
   -1.7198    0.0332   -0.1002 C   0  0  2  0  0  0  0  0  0  0  0  0
   -1.6661    1.3467    0.3776 O   0  0  0  0  0  0  0  0  0  0  0  0
    0.6448   -0.2058   -0.0266 O   0  0  0  0  0  0  0  0  0  0  0  0
    1.6430    0.0876    0.8838 C   0  0  1  0  0  0  0  0  0  0  0  0
    2.9599    0.2195    0.1148 C   0  0  2  0  0  0  0  0  0  0  0  0
    3.3336   -1.0027   -0.4686 O   0  0  0  0  0  0  0  0  0  0  0  0
    4.0511    0.6296    1.0972 C   0  0  2  0  0  0  0  0  0  0  0  0
    3.6449    1.8844    1.8644 C   0  0  1  0  0  0  0  0  0  0  0  0
    3.6195    2.9673    0.9662 O   0  0  0  0  0  0  0  0  0  0  0  0
    2.2797    1.6368    2.5138 C   0  0  1  0  0  0  0  0  0  0  0  0
    1.7721    2.8495    3.2621 C   0  0  0  0  0  0  0  0  0  0  0  0
    0.6400    2.4854    4.0126 O   0  0  0  0  0  0  0  0  0  0  0  0
    1.3246    1.2824    1.5349 O   0  0  0  0  0  0  0  0  0  0  0  0
    5.2626    0.8393    0.4188 O   0  0  0  0  0  0  0  0  0  0  0  0
    6.2801   -0.0987    0.6951 C   0  0  0  0  0  0  0  0  0  0  0  0
    7.2926   -0.0448   -0.4125 C   0  0  0  0  0  0  0  0  0  0  0  0
    6.8910   -0.2816   -1.7293 C   0  0  0  0  0  0  0  0  0  0  0  0
    7.8290   -0.2463   -2.7433 C   0  0  0  0  0  0  0  0  0  0  0  0
    9.1701    0.0225   -2.4790 C   0  0  0  0  0  0  0  0  0  0  0  0
    9.5703    0.2601   -1.1686 C   0  0  0  0  0  0  0  0  0  0  0  0
    8.6213    0.2291   -0.1412 C   0  0  0  0  0  0  0  0  0  0  0  0
   10.8357    0.5330   -0.7952 O   0  0  0  0  0  0  0  0  0  0  0  0
   11.8408    0.5544   -1.7887 C   0  0  0  0  0  0  0  0  0  0  0  0
   -5.9220   -5.3605    0.4740 H   0  0  0  0  0  0  0  0  0  0  0  0
   -6.3723   -3.7829    1.1293 H   0  0  0  0  0  0  0  0  0  0  0  0
   -6.8829   -4.2561   -0.4960 H   0  0  0  0  0  0  0  0  0  0  0  0
   -4.6062   -2.4973    1.1845 H   0  0  0  0  0  0  0  0  0  0  0  0
   -2.9237   -2.2219   -1.2070 H   0  0  0  0  0  0  0  0  0  0  0  0
   -3.2003   -0.5524    1.3381 H   0  0  0  0  0  0  0  0  0  0  0  0
   -4.0236    0.2468   -1.3860 H   0  0  0  0  0  0  0  0  0  0  0  0
   -5.7358   -0.0310   -2.5436 H   0  0  0  0  0  0  0  0  0  0  0  0
   -7.5202    0.9871   -3.8709 H   0  0  0  0  0  0  0  0  0  0  0  0
   -9.1626    2.4794   -2.8592 H   0  0  0  0  0  0  0  0  0  0  0  0
   -9.8444    4.3998   -1.7151 H   0  0  0  0  0  0  0  0  0  0  0  0
  -10.8926    3.0018   -1.3845 H   0  0  0  0  0  0  0  0  0  0  0  0
  -10.7864    4.3285   -0.2149 H   0  0  0  0  0  0  0  0  0  0  0  0
   -7.2621    1.9539    0.9551 H   0  0  0  0  0  0  0  0  0  0  0  0
   -0.5968   -2.2994   -1.0107 H   0  0  0  0  0  0  0  0  0  0  0  0
    1.3847   -2.6950    0.4289 H   0  0  0  0  0  0  0  0  0  0  0  0
    0.3274   -3.0300    1.8033 H   0  0  0  0  0  0  0  0  0  0  0  0
    0.9601   -4.9410    0.6015 H   0  0  0  0  0  0  0  0  0  0  0  0
   -0.5839   -0.6708    1.5841 H   0  0  0  0  0  0  0  0  0  0  0  0
   -1.6121    0.0042   -1.1986 H   0  0  0  0  0  0  0  0  0  0  0  0
   -2.3603    1.8546   -0.0555 H   0  0  0  0  0  0  0  0  0  0  0  0
    1.7498   -0.7207    1.6327 H   0  0  0  0  0  0  0  0  0  0  0  0
    2.8377    1.0051   -0.6437 H   0  0  0  0  0  0  0  0  0  0  0  0
    2.7853   -1.1496   -1.2450 H   0  0  0  0  0  0  0  0  0  0  0  0
    4.1586   -0.1754    1.8397 H   0  0  0  0  0  0  0  0  0  0  0  0
    4.3788    2.0467    2.6652 H   0  0  0  0  0  0  0  0  0  0  0  0
    3.7378    3.7831    1.4602 H   0  0  0  0  0  0  0  0  0  0  0  0
    2.4072    0.8147    3.2384 H   0  0  0  0  0  0  0  0  0  0  0  0
    2.5853    3.2117    3.9060 H   0  0  0  0  0  0  0  0  0  0  0  0
    1.5439    3.6505    2.5477 H   0  0  0  0  0  0  0  0  0  0  0  0
    0.3077    3.2742    4.4501 H   0  0  0  0  0  0  0  0  0  0  0  0
    6.7593    0.1114    1.6598 H   0  0  0  0  0  0  0  0  0  0  0  0
    5.8682   -1.1122    0.7561 H   0  0  0  0  0  0  0  0  0  0  0  0
    5.8535   -0.4990   -1.9482 H   0  0  0  0  0  0  0  0  0  0  0  0
    7.5252   -0.4319   -3.7656 H   0  0  0  0  0  0  0  0  0  0  0  0
    9.8744    0.0412   -3.2991 H   0  0  0  0  0  0  0  0  0  0  0  0
    8.9406    0.4262    0.8761 H   0  0  0  0  0  0  0  0  0  0  0  0
   11.9360   -0.4106   -2.2935 H   0  0  0  0  0  0  0  0  0  0  0  0
   11.6570    1.3269   -2.5403 H   0  0  0  0  0  0  0  0  0  0  0  0
   12.7754    0.7759   -1.2795 H   0  0  0  0  0  0  0  0  0  0  0  0
 21 20  1  0
 20 19  1  0
 39 40  2  0
 39 38  1  0
 40 41  1  0
  3  2  1  0
 28 27  1  0
 18 19  1  0
 18  5  1  0
 19 22  1  0
  1  2  2  0
 37 38  1  0
 37 36  1  0
 38 43  2  0
 41 42  2  0
  2  4  1  0
 29 36  1  0
 29 27  1  0
 29 30  1  0
 43 42  1  0
 42 44  1  0
 26 27  1  0
 26 25  1  0
 26 35  1  0
  4  5  1  0
  5  6  1  0
 22 25  1  0
 22 23  1  0
 32 30  1  0
 32 35  1  0
 32 33  1  0
 30 31  1  0
 44 45  1  0
 34 33  1  0
  6 23  1  0
  6  7  1  0
 23 24  1  0
  7  8  1  0
 17  8  2  0
  8  9  1  0
  9 10  2  0
  9 16  1  0
 10 11  1  0
 16 13  2  0
 11 12  2  0
 15 14  1  0
 13 12  1  0
 13 14  1  0
  3 46  1  0
  3 47  1  0
  3 48  1  0
  4 49  1  0
  5 50  1  6
  6 51  1  1
  7 52  1  0
 10 53  1  0
 11 54  1  0
 12 55  1  0
 15 56  1  0
 15 57  1  0
 15 58  1  0
 16 59  1  0
 19 60  1  6
 20 61  1  0
 20 62  1  0
 21 63  1  0
 22 64  1  1
 23 65  1  6
 24 66  1  0
 26 67  1  1
 27 68  1  6
 28 69  1  0
 29 70  1  1
 30 71  1  1
 31 72  1  0
 32 73  1  1
 33 74  1  0
 33 75  1  0
 34 76  1  0
 37 77  1  0
 37 78  1  0
 39 79  1  0
 40 80  1  0
 41 81  1  0
 43 82  1  0
 45 83  1  0
 45 84  1  0
 45 85  1  0
M  END
