
     RDKit          3D

 43 45  0  0  0  0  0  0  0  0999 V2000
   -0.4694   -2.1217   -0.2443 O   0  0  0  0  0  0  0  0  0  0  0  0
   -0.5768   -0.9321   -0.5075 C   0  0  0  0  0  0  0  0  0  0  0  0
   -1.7208   -0.3258   -0.8622 N   0  0  0  0  0  0  0  0  0  0  0  0
   -2.9701   -1.0549   -1.0325 C   0  0  2  0  0  0  0  0  0  0  0  0
   -3.0779   -1.6869   -2.4171 C   0  0  0  0  0  0  0  0  0  0  0  0
   -4.1192   -0.1207   -0.7270 C   0  0  0  0  0  0  0  0  0  0  0  0
   -4.4326    0.9335   -1.5864 C   0  0  0  0  0  0  0  0  0  0  0  0
   -5.4744    1.7875   -1.2704 C   0  0  0  0  0  0  0  0  0  0  0  0
   -6.2236    1.6142   -0.1117 C   0  0  0  0  0  0  0  0  0  0  0  0
   -5.9164    0.5606    0.7442 C   0  0  0  0  0  0  0  0  0  0  0  0
   -6.5729    0.2962    1.8893 O   0  0  0  0  0  0  0  0  0  0  0  0
   -7.6347    1.1486    2.2695 C   0  0  0  0  0  0  0  0  0  0  0  0
   -4.8600   -0.2987    0.4292 C   0  0  0  0  0  0  0  0  0  0  0  0
    0.5180   -0.0958   -0.4406 N   0  0  0  0  0  0  0  0  0  0  0  0
    1.7740   -0.5146   -0.1074 C   0  0  0  0  0  0  0  0  0  0  0  0
    2.7727    0.3043   -0.0656 N   0  0  0  0  0  0  0  0  0  0  0  0
    3.9293   -0.3436    0.2839 C   0  0  0  0  0  0  0  0  0  0  0  0
    5.1726    0.4250    0.3831 C   0  0  0  0  0  0  0  0  0  0  0  0
    5.1735    1.8083    0.2149 C   0  0  0  0  0  0  0  0  0  0  0  0
    6.3700    2.4997    0.3189 C   0  0  0  0  0  0  0  0  0  0  0  0
    7.5385    1.9223    0.5714 N   0  0  0  0  0  0  0  0  0  0  0  0
    7.5372    0.6020    0.7289 C   0  0  0  0  0  0  0  0  0  0  0  0
    6.4005   -0.1822    0.6456 C   0  0  0  0  0  0  0  0  0  0  0  0
    3.7904   -1.6764    0.5115 C   0  0  0  0  0  0  0  0  0  0  0  0
    2.1560   -2.1617    0.2845 S   0  0  0  0  0  0  0  0  0  0  0  0
   -1.7016    0.6433   -1.1401 H   0  0  0  0  0  0  0  0  0  0  0  0
   -2.9786   -1.8540   -0.2893 H   0  0  0  0  0  0  0  0  0  0  0  0
   -4.0239   -2.2194   -2.5169 H   0  0  0  0  0  0  0  0  0  0  0  0
   -3.0225   -0.9387   -3.2084 H   0  0  0  0  0  0  0  0  0  0  0  0
   -2.2708   -2.4029   -2.5719 H   0  0  0  0  0  0  0  0  0  0  0  0
   -3.8738    1.0892   -2.5010 H   0  0  0  0  0  0  0  0  0  0  0  0
   -5.7188    2.6057   -1.9355 H   0  0  0  0  0  0  0  0  0  0  0  0
   -7.0316    2.3014    0.0990 H   0  0  0  0  0  0  0  0  0  0  0  0
   -7.2992    2.1785    2.4157 H   0  0  0  0  0  0  0  0  0  0  0  0
   -8.4464    1.1437    1.5375 H   0  0  0  0  0  0  0  0  0  0  0  0
   -8.0140    0.7670    3.2140 H   0  0  0  0  0  0  0  0  0  0  0  0
   -4.6250   -1.1122    1.1063 H   0  0  0  0  0  0  0  0  0  0  0  0
    0.4260    0.8921   -0.6323 H   0  0  0  0  0  0  0  0  0  0  0  0
    4.2579    2.3433    0.0060 H   0  0  0  0  0  0  0  0  0  0  0  0
    6.3792    3.5766    0.1908 H   0  0  0  0  0  0  0  0  0  0  0  0
    8.4955    0.1367    0.9318 H   0  0  0  0  0  0  0  0  0  0  0  0
    6.4868   -1.2522    0.7789 H   0  0  0  0  0  0  0  0  0  0  0  0
    4.5408   -2.3955    0.7998 H   0  0  0  0  0  0  0  0  0  0  0  0
 11 12  1  0
 11 10  1  0
 10  9  2  0
 10 13  1  0
  9  8  1  0
 13  6  2  0
  8  7  2  0
  6  7  1  0
  6  4  1  0
  4  3  1  0
  4  5  1  0
  3  2  1  0
  2  1  2  0
  2 14  1  0
 14 15  1  0
 15 25  1  0
 15 16  2  0
 25 24  1  0
 16 17  1  0
 24 17  2  0
 17 18  1  0
 18 19  2  0
 18 23  1  0
 19 20  1  0
 23 22  2  0
 20 21  2  0
 22 21  1  0
  3 26  1  0
  4 27  1  1
  5 28  1  0
  5 29  1  0
  5 30  1  0
  7 31  1  0
  8 32  1  0
  9 33  1  0
 12 34  1  0
 12 35  1  0
 12 36  1  0
 13 37  1  0
 14 38  1  0
 19 39  1  0
 20 40  1  0
 22 41  1  0
 23 42  1  0
 24 43  1  0
M  END
