
     RDKit          3D

 10  9  0  0  0  0  0  0  0  0999 V2000
    1.0419   -0.4180    1.1241 N   0  0  0  0  0  0  0  0  0  0  0  0
    0.3320   -0.7507   -1.3159 N   0  0  0  0  0  0  0  0  0  0  0  0
    0.0171    1.6688   -0.0474 O   0  0  0  0  0  0  0  0  0  0  0  0
   -0.0286    0.1839    0.0126 P   0  0  2  0  0  0  0  0  0  0  0  0
   -1.5562   -0.2473    0.3243 O   0  0  0  0  0  0  0  0  0  0  0  0
    1.0515   -1.4136    1.2915 H   0  0  0  0  0  0  0  0  0  0  0  0
    1.1350    0.1058    1.9821 H   0  0  0  0  0  0  0  0  0  0  0  0
   -0.2936   -0.6562   -2.1045 H   0  0  0  0  0  0  0  0  0  0  0  0
    1.2945   -0.7177   -1.6224 H   0  0  0  0  0  0  0  0  0  0  0  0
   -1.7087   -1.2001    0.3319 H   0  0  0  0  0  0  0  0  0  0  0  0
  1  4  1  0
  1  6  1  0
  1  7  1  0
  2  4  1  0
  2  8  1  0
  2  9  1  0
  3  4  2  0
  4  5  1  1
  5 10  1  0
M  END
