
     RDKit          3D

 25 26  0  0  0  0  0  0  0  0999 V2000
    0.0909   -1.4545    1.6017 N   0  0  0  0  0  0  0  0  0  0  0  0
   -0.0077   -0.2489    1.9570 C   0  0  0  0  0  0  0  0  0  0  0  0
   -0.5475    0.9034    1.1438 C   0  0  0  0  0  0  0  0  0  0  0  0
   -0.8694    0.5357   -0.2620 C   0  0  0  0  0  0  0  0  0  0  0  0
   -2.1108    0.3433   -0.8015 C   0  0  0  0  0  0  0  0  0  0  0  0
   -2.0028    0.0036   -2.1178 N   0  0  0  0  0  0  0  0  0  0  0  0
   -0.6847   -0.0389   -2.4689 C   0  0  0  0  0  0  0  0  0  0  0  0
   -0.0807   -0.3394   -3.6888 C   0  0  0  0  0  0  0  0  0  0  0  0
    1.2994   -0.3033   -3.7414 C   0  0  0  0  0  0  0  0  0  0  0  0
    2.0660    0.0243   -2.6103 C   0  0  0  0  0  0  0  0  0  0  0  0
    1.4639    0.3196   -1.4031 C   0  0  0  0  0  0  0  0  0  0  0  0
    0.0669    0.2921   -1.3201 C   0  0  0  0  0  0  0  0  0  0  0  0
    0.4397    0.1097    3.3538 C   0  0  0  0  0  0  0  0  0  0  0  0
    0.3174    1.2202    3.8063 O   0  0  0  0  0  0  0  0  0  0  0  0
    0.9654   -0.9067    4.0083 O   0  0  0  0  0  0  0  0  0  0  0  0
   -0.2506   -1.5732    0.6477 H   0  0  0  0  0  0  0  0  0  0  0  0
   -1.4362    1.2905    1.6504 H   0  0  0  0  0  0  0  0  0  0  0  0
    0.1812    1.7195    1.1729 H   0  0  0  0  0  0  0  0  0  0  0  0
   -3.0796    0.4336   -0.3351 H   0  0  0  0  0  0  0  0  0  0  0  0
   -2.7799   -0.1830   -2.7292 H   0  0  0  0  0  0  0  0  0  0  0  0
   -0.6681   -0.5957   -4.5614 H   0  0  0  0  0  0  0  0  0  0  0  0
    1.8004   -0.5348   -4.6725 H   0  0  0  0  0  0  0  0  0  0  0  0
    3.1453    0.0412   -2.6903 H   0  0  0  0  0  0  0  0  0  0  0  0
    2.0651    0.5680   -0.5365 H   0  0  0  0  0  0  0  0  0  0  0  0
    1.2317   -0.6222    4.8957 H   0  0  0  0  0  0  0  0  0  0  0  0
  1  2  2  0
  1 16  1  0
  2  3  1  0
  2 13  1  0
  3  4  1  0
  3 17  1  0
  3 18  1  0
  4  5  2  0
  4 12  1  0
  5  6  1  0
  5 19  1  0
  6  7  1  0
  6 20  1  0
  7  8  1  0
  7 12  2  0
  8  9  2  0
  8 21  1  0
  9 10  1  0
  9 22  1  0
 10 11  2  0
 10 23  1  0
 11 12  1  0
 11 24  1  0
 13 14  2  0
 13 15  1  0
 15 25  1  0
M  END
