
     RDKit          3D

 47 49  0  0  0  0  0  0  0  0999 V2000
    3.7948    0.3631   -0.2384 C   0  0  0  0  0  0  0  0  0  0  0  0
    3.9696   -1.0218   -0.2039 C   0  0  0  0  0  0  0  0  0  0  0  0
    5.2373   -1.5776   -0.1945 C   0  0  0  0  0  0  0  0  0  0  0  0
    6.3520   -0.7594   -0.2246 C   0  0  0  0  0  0  0  0  0  0  0  0
    6.2141    0.6206   -0.2614 C   0  0  0  0  0  0  0  0  0  0  0  0
    4.9495    1.1664   -0.2695 C   0  0  0  0  0  0  0  0  0  0  0  0
   -4.5135    1.5251    0.1254 C   0  0  0  0  0  0  0  0  0  0  0  0
   -4.5695    2.9122    0.0002 C   0  0  0  0  0  0  0  0  0  0  0  0
   -3.3779    3.5906   -0.1382 C   0  0  0  0  0  0  0  0  0  0  0  0
   -2.1433    2.9535   -0.1622 C   0  0  0  0  0  0  0  0  0  0  0  0
   -2.1242    1.5698   -0.0361 C   0  0  0  0  0  0  0  0  0  0  0  0
   -3.3096    0.8460    0.1098 C   0  0  0  0  0  0  0  0  0  0  0  0
   -5.9120   -2.5293   -0.8942 C   0  0  0  0  0  0  0  0  0  0  0  0
   -5.8044   -1.1478   -0.9190 C   0  0  0  0  0  0  0  0  0  0  0  0
   -5.7727   -0.4583    0.2846 C   0  0  0  0  0  0  0  0  0  0  0  0
   -5.8380   -1.1187    1.4979 C   0  0  0  0  0  0  0  0  0  0  0  0
   -5.9482   -2.5067    1.4892 C   0  0  0  0  0  0  0  0  0  0  0  0
   -5.9839   -3.2275    0.2989 C   0  0  0  0  0  0  0  0  0  0  0  0
   -3.4140    5.3138   -0.2948 Cl  0  0  0  0  0  0  0  0  0  0  0  0
   -1.0002    0.8317   -0.0437 O   0  0  0  0  0  0  0  0  0  0  0  0
    0.2293    1.4881   -0.1717 C   0  0  0  0  0  0  0  0  0  0  0  0
    1.3170    0.4288   -0.1502 C   0  0  0  0  0  0  0  0  0  0  0  0
    2.5588    0.9859   -0.2450 N   0  0  0  0  0  0  0  0  0  0  0  0
    1.0844   -0.7530   -0.0614 O   0  0  0  0  0  0  0  0  0  0  0  0
    7.9770   -1.4517   -0.1908 S   0  0  1  0  0  0  0  0  0  0  0  0
    8.4705   -1.1773   -1.7415 N   0  0  0  0  0  0  0  0  0  0  0  0
    8.8342   -0.6290    0.6495 O   0  0  0  0  0  0  0  0  0  0  0  0
    7.8460   -2.8666    0.1258 O   0  0  0  0  0  0  0  0  0  0  0  0
    4.8004    2.8914   -0.3124 Cl  0  0  0  0  0  0  0  0  0  0  0  0
   -6.0238   -3.2099    2.7303 C   0  0  0  0  0  0  0  0  0  0  0  0
   -6.0832   -3.7776    3.7302 N   0  0  0  0  0  0  0  0  0  0  0  0
    3.1165   -1.6775   -0.1825 H   0  0  0  0  0  0  0  0  0  0  0  0
    5.3364   -2.6534   -0.1641 H   0  0  0  0  0  0  0  0  0  0  0  0
    7.0768    1.2726   -0.2833 H   0  0  0  0  0  0  0  0  0  0  0  0
   -5.5187    3.4297    0.0132 H   0  0  0  0  0  0  0  0  0  0  0  0
   -1.2418    3.5375   -0.2764 H   0  0  0  0  0  0  0  0  0  0  0  0
   -3.2539   -0.2300    0.2094 H   0  0  0  0  0  0  0  0  0  0  0  0
   -5.7520   -0.6107   -1.8572 H   0  0  0  0  0  0  0  0  0  0  0  0
   -5.8096   -0.5669    2.4279 H   0  0  0  0  0  0  0  0  0  0  0  0
   -6.0682   -4.3048    0.3091 H   0  0  0  0  0  0  0  0  0  0  0  0
    0.2950    2.0502   -1.1116 H   0  0  0  0  0  0  0  0  0  0  0  0
    0.3976    2.1971    0.6481 H   0  0  0  0  0  0  0  0  0  0  0  0
    2.5834    1.9949   -0.2999 H   0  0  0  0  0  0  0  0  0  0  0  0
    8.0272   -1.7967   -2.4127 H   0  0  0  0  0  0  0  0  0  0  0  0
    9.4814   -1.2353   -1.8259 H   0  0  0  0  0  0  0  0  0  0  0  0
   -5.7169    0.9059    0.2737 O   0  0  0  0  0  0  0  0  0  0  0  0
   -5.9591   -3.3974   -2.3829 Cl  0  0  0  0  0  0  0  0  0  0  0  0
  1  2  2  0
  1  6  1  0
  1 23  1  0
  2  3  1  0
  3  4  2  0
  4  5  1  0
  4 25  1  0
  5  6  2  0
  6 29  1  0
  7  8  2  0
  7 12  1  0
  7 46  1  0
  8  9  1  0
  9 10  2  0
  9 19  1  0
 10 11  1  0
 11 12  2  0
 11 20  1  0
 13 14  2  0
 13 18  1  0
 13 47  1  0
 14 15  1  0
 15 16  2  0
 15 46  1  0
 16 17  1  0
 17 18  2  0
 17 30  1  0
 20 21  1  0
 21 22  1  0
 22 23  1  0
 22 24  2  0
 25 26  1  6
 25 27  2  0
 25 28  2  0
 30 31  3  0
  2 32  1  0
  3 33  1  0
  5 34  1  0
  8 35  1  0
 10 36  1  0
 12 37  1  0
 14 38  1  0
 16 39  1  0
 18 40  1  0
 21 41  1  0
 21 42  1  0
 23 43  1  0
 26 44  1  0
 26 45  1  0
M  END
