
     RDKit          3D

 27 29  0  0  0  0  0  0  0  0999 V2000
   -1.8156    1.6123   -0.2482 C   0  0  0  0  0  0  0  0  0  0  0  0
   -3.2568    1.7202   -0.2773 C   0  0  0  0  0  0  0  0  0  0  0  0
   -3.8477    2.7797   -0.4391 O   0  0  0  0  0  0  0  0  0  0  0  0
   -3.9587    0.4413   -0.1073 C   0  0  0  0  0  0  0  0  0  0  0  0
   -5.3547    0.3562   -0.1223 C   0  0  0  0  0  0  0  0  0  0  0  0
   -5.9827   -0.8597    0.0376 C   0  0  0  0  0  0  0  0  0  0  0  0
   -5.2220   -2.0188    0.2159 C   0  0  0  0  0  0  0  0  0  0  0  0
   -3.8436   -1.9629    0.2332 C   0  0  0  0  0  0  0  0  0  0  0  0
   -3.2242   -0.7275    0.0700 C   0  0  0  0  0  0  0  0  0  0  0  0
   -1.8715   -0.7158    0.1006 O   0  0  0  0  0  0  0  0  0  0  0  0
   -1.1956    0.4276   -0.0570 C   0  0  0  0  0  0  0  0  0  0  0  0
    0.2582    0.2332   -0.0148 C   0  0  0  0  0  0  0  0  0  0  0  0
    1.0992    1.2899    0.3337 C   0  0  0  0  0  0  0  0  0  0  0  0
    2.4730    1.1260    0.3615 C   0  0  0  0  0  0  0  0  0  0  0  0
    3.0134   -0.1106    0.0377 C   0  0  0  0  0  0  0  0  0  0  0  0
    4.8819   -0.3437    0.0723 Br  0  0  0  0  0  0  0  0  0  0  0  0
    2.1975   -1.1785   -0.3058 C   0  0  0  0  0  0  0  0  0  0  0  0
    0.8235   -1.0039   -0.3257 C   0  0  0  0  0  0  0  0  0  0  0  0
   -1.2260    2.5050   -0.4026 H   0  0  0  0  0  0  0  0  0  0  0  0
   -5.9340    1.2591   -0.2621 H   0  0  0  0  0  0  0  0  0  0  0  0
   -7.0622   -0.9199    0.0260 H   0  0  0  0  0  0  0  0  0  0  0  0
   -5.7152   -2.9729    0.3451 H   0  0  0  0  0  0  0  0  0  0  0  0
   -3.2473   -2.8550    0.3731 H   0  0  0  0  0  0  0  0  0  0  0  0
    0.6897    2.2521    0.6108 H   0  0  0  0  0  0  0  0  0  0  0  0
    3.1042    1.9578    0.6426 H   0  0  0  0  0  0  0  0  0  0  0  0
    2.6154   -2.1426   -0.5608 H   0  0  0  0  0  0  0  0  0  0  0  0
    0.2035   -1.8452   -0.6029 H   0  0  0  0  0  0  0  0  0  0  0  0
  6  5  2  0
  6  7  1  0
  5  4  1  0
  7  8  2  0
  3  2  2  0
  4  2  1  0
  4  9  2  0
  2  1  1  0
  8  9  1  0
  9 10  1  0
  1 11  2  0
 10 11  1  0
 11 12  1  0
 12 18  1  0
 12 13  2  0
 18 17  2  0
 13 14  1  0
 17 15  1  0
 14 15  2  0
 15 16  1  0
  1 19  1  0
  5 20  1  0
  6 21  1  0
  7 22  1  0
  8 23  1  0
 13 24  1  0
 14 25  1  0
 17 26  1  0
 18 27  1  0
M  END
