
     RDKit          3D

 70 73  0  0  0  0  0  0  0  0999 V2000
    2.0844   -0.5325   -0.4595 C   0  0  0  0  0  0  0  0  0  0  0  0
    3.3812   -1.2634   -0.1295 C   0  0  0  0  0  0  0  0  0  0  0  0
    4.5757   -0.3049   -0.1387 C   0  0  1  0  0  0  0  0  0  0  0  0
    3.0444    1.6021    0.4840 C   0  0  0  0  0  0  0  0  0  0  0  0
    8.1388   -1.5752   -0.3751 C   0  0  0  0  0  0  0  0  0  0  0  0
    7.2754   -2.3543    1.5684 C   0  0  0  0  0  0  0  0  0  0  0  0
   -1.5465    3.2146    0.9700 C   0  0  0  0  0  0  0  0  0  0  0  0
   -2.2902    4.0432   -0.0293 C   0  0  0  0  0  0  0  0  0  0  0  0
   -3.2043    4.9853    0.2124 C   0  0  0  0  0  0  0  0  0  0  0  0
   -3.6833    5.3971    1.5724 C   0  0  0  0  0  0  0  0  0  0  0  0
   -3.9529    1.6806    1.4753 C   0  0  0  0  0  0  0  0  0  0  0  0
   -5.3559   -0.1742    0.8090 C   0  0  0  0  0  0  0  0  0  0  0  0
    0.6027    1.3409    0.1925 N   0  0  0  0  0  0  0  0  0  0  0  0
    1.8540    0.6458    0.4870 C   0  0  1  0  0  0  0  0  0  0  0  0
    4.3304    0.8582    0.8296 C   0  0  0  0  0  0  0  0  0  0  0  0
    5.8707   -1.0052    0.1673 C   0  0  0  0  0  0  0  0  0  0  0  0
    6.9551   -0.9291   -0.6999 C   0  0  0  0  0  0  0  0  0  0  0  0
    8.3097   -2.2806    0.7363 N   0  0  0  0  0  0  0  0  0  0  0  0
    6.0541   -1.7439    1.3343 C   0  0  0  0  0  0  0  0  0  0  0  0
   -0.5574   -0.0074    1.5975 O   0  0  0  0  0  0  0  0  0  0  0  0
   -1.6398    1.7858    0.6665 N   0  0  0  0  0  0  0  0  0  0  0  0
   -3.8492    5.7338   -0.9172 C   0  0  0  0  0  0  0  0  0  0  0  0
   -2.8925    1.1594    0.7376 C   0  0  0  0  0  0  0  0  0  0  0  0
   -5.1731    1.0175    1.4903 C   0  0  0  0  0  0  0  0  0  0  0  0
   -4.2937   -0.6845    0.0717 C   0  0  0  0  0  0  0  0  0  0  0  0
   -4.5187   -1.8342   -0.6316 O   0  0  0  0  0  0  0  0  0  0  0  0
   -3.5109   -2.7413   -0.8114 C   0  0  0  0  0  0  0  0  0  0  0  0
   -2.6092   -3.0631    0.1978 C   0  0  0  0  0  0  0  0  0  0  0  0
   -1.6430   -4.0300   -0.0398 C   0  0  0  0  0  0  0  0  0  0  0  0
   -1.5750   -4.6803   -1.2655 C   0  0  0  0  0  0  0  0  0  0  0  0
   -2.4866   -4.3558   -2.2609 C   0  0  0  0  0  0  0  0  0  0  0  0
   -3.4521   -3.3827   -2.0413 C   0  0  0  0  0  0  0  0  0  0  0  0
   -3.0857   -0.0130    0.0053 C   0  0  0  0  0  0  0  0  0  0  0  0
    2.1268   -0.1774   -1.4943 H   0  0  0  0  0  0  0  0  0  0  0  0
    1.2401   -1.2221   -0.3933 H   0  0  0  0  0  0  0  0  0  0  0  0
    3.2938   -1.7353    0.8545 H   0  0  0  0  0  0  0  0  0  0  0  0
    3.5429   -2.0683   -0.8497 H   0  0  0  0  0  0  0  0  0  0  0  0
    4.6565    0.1171   -1.1476 H   0  0  0  0  0  0  0  0  0  0  0  0
    3.1632    2.0723   -0.4968 H   0  0  0  0  0  0  0  0  0  0  0  0
    2.8742    2.4045    1.2059 H   0  0  0  0  0  0  0  0  0  0  0  0
    8.9872   -1.5166   -1.0483 H   0  0  0  0  0  0  0  0  0  0  0  0
    7.4242   -2.9313    2.4748 H   0  0  0  0  0  0  0  0  0  0  0  0
   -0.4902    3.4863    0.9627 H   0  0  0  0  0  0  0  0  0  0  0  0
   -1.8799    3.4062    1.9932 H   0  0  0  0  0  0  0  0  0  0  0  0
   -2.0305    3.8404   -1.0653 H   0  0  0  0  0  0  0  0  0  0  0  0
   -3.5020    6.4627    1.7302 H   0  0  0  0  0  0  0  0  0  0  0  0
   -4.7634    5.2520    1.6524 H   0  0  0  0  0  0  0  0  0  0  0  0
   -3.2109    4.8611    2.3933 H   0  0  0  0  0  0  0  0  0  0  0  0
   -3.8429    2.5882    2.0503 H   0  0  0  0  0  0  0  0  0  0  0  0
   -6.3029   -0.6970    0.8395 H   0  0  0  0  0  0  0  0  0  0  0  0
    0.9123    3.1976   -0.7987 H   0  0  0  0  0  0  0  0  0  0  0  0
    1.2029    1.7514   -1.7640 H   0  0  0  0  0  0  0  0  0  0  0  0
   -0.4400    2.2271   -1.3942 H   0  0  0  0  0  0  0  0  0  0  0  0
    1.7630    0.2464    1.4986 H   0  0  0  0  0  0  0  0  0  0  0  0
    4.2730    0.4761    1.8544 H   0  0  0  0  0  0  0  0  0  0  0  0
    5.1749    1.5502    0.8005 H   0  0  0  0  0  0  0  0  0  0  0  0
    6.8866   -0.3694   -1.6246 H   0  0  0  0  0  0  0  0  0  0  0  0
    5.2620   -1.8509    2.0647 H   0  0  0  0  0  0  0  0  0  0  0  0
   -4.9346    5.6080   -0.8928 H   0  0  0  0  0  0  0  0  0  0  0  0
   -3.6603    6.8068   -0.8325 H   0  0  0  0  0  0  0  0  0  0  0  0
   -3.4907    5.4027   -1.8910 H   0  0  0  0  0  0  0  0  0  0  0  0
   -5.9901    1.4308    2.0672 H   0  0  0  0  0  0  0  0  0  0  0  0
   -2.6478   -2.5639    1.1574 H   0  0  0  0  0  0  0  0  0  0  0  0
   -0.9415   -4.2785    0.7459 H   0  0  0  0  0  0  0  0  0  0  0  0
   -0.8184   -5.4334   -1.4406 H   0  0  0  0  0  0  0  0  0  0  0  0
   -2.4451   -4.8548   -3.2204 H   0  0  0  0  0  0  0  0  0  0  0  0
   -4.1601   -3.1241   -2.8185 H   0  0  0  0  0  0  0  0  0  0  0  0
   -2.2848   -0.3991   -0.6125 H   0  0  0  0  0  0  0  0  0  0  0  0
   -0.5124    0.9683    0.8653 C   0  0  0  0  0  0  0  0  0  0  0  0
    0.5670    2.1800   -0.9899 C   0  0  0  0  0  0  0  0  0  0  0  0
  4 15  1  0
  4 14  1  0
 31 30  2  0
 31 32  1  0
  7 21  1  0
  7  8  1  0
 15  3  1  0
 30 29  1  0
 21 69  1  0
 21 23  1  0
 70 13  1  0
 69 13  1  0
 69 20  2  0
 32 27  2  0
 13 14  1  0
 14  1  1  0
  8  9  2  0
 33 23  1  0
 33 25  2  0
 29 28  2  0
  3 16  1  0
  3  2  1  0
 23 11  2  0
 27 28  1  0
 27 26  1  0
 22  9  1  0
  9 10  1  0
 19 16  2  0
 19  6  1  0
 16 17  1  0
  1  2  1  0
 26 25  1  0
 25 12  1  0
  6 18  2  0
 17  5  2  0
 11 24  1  0
 18  5  1  0
 12 24  2  0
  1 34  1  0
  1 35  1  0
  2 36  1  0
  2 37  1  0
  3 38  1  6
  4 39  1  0
  4 40  1  0
  5 41  1  0
  6 42  1  0
  7 43  1  0
  7 44  1  0
  8 45  1  0
 10 46  1  0
 10 47  1  0
 10 48  1  0
 11 49  1  0
 12 50  1  0
 70 51  1  0
 70 52  1  0
 70 53  1  0
 14 54  1  1
 15 55  1  0
 15 56  1  0
 17 57  1  0
 19 58  1  0
 22 59  1  0
 22 60  1  0
 22 61  1  0
 24 62  1  0
 28 63  1  0
 29 64  1  0
 30 65  1  0
 31 66  1  0
 32 67  1  0
 33 68  1  0
M  END
