
     RDKit          3D

 17 16  0  0  0  0  0  0  0  0999 V2000
   -2.1725    0.6043    1.5646 O   0  0  0  0  0  0  0  0  0  0  0  0
   -1.7685   -0.1952    0.7615 C   0  0  0  0  0  0  0  0  0  0  0  0
   -2.5644   -0.9146   -0.0172 O   0  0  0  0  0  0  0  0  0  0  0  0
   -0.3321   -0.4999    0.4962 C   0  0  0  0  0  0  0  0  0  0  0  0
    0.0337   -1.0641   -0.8472 C   0  0  0  0  0  0  0  0  0  0  0  0
    0.2380    0.2897   -2.0359 P   0  0  1  0  0  0  0  0  0  0  0  0
    0.4366   -0.5324   -3.3968 O   0  0  0  0  0  0  0  0  0  0  0  0
   -1.1893    1.0262   -2.1230 O   0  0  0  0  0  0  0  0  0  0  0  0
    1.2773    1.2832   -1.6896 O   0  0  0  0  0  0  0  0  0  0  0  0
    0.6024   -0.2273    1.4165 C   0  0  0  0  0  0  0  0  0  0  0  0
    2.2674   -0.5135    1.1290 Cl  0  0  0  0  0  0  0  0  0  0  0  0
    0.3108    0.3776    2.9842 Cl  0  0  0  0  0  0  0  0  0  0  0  0
   -3.4905   -0.6835    0.1531 H   0  0  0  0  0  0  0  0  0  0  0  0
    0.9684   -1.6233   -0.8112 H   0  0  0  0  0  0  0  0  0  0  0  0
   -0.7246   -1.7598   -1.2050 H   0  0  0  0  0  0  0  0  0  0  0  0
    0.6862    0.0102   -4.1583 H   0  0  0  0  0  0  0  0  0  0  0  0
   -1.9281    0.4795   -2.4211 H   0  0  0  0  0  0  0  0  0  0  0  0
  1  2  2  0
  2  3  1  0
  2  4  1  0
  3 13  1  0
  4  5  1  0
  4 10  2  0
  5  6  1  0
  5 14  1  0
  5 15  1  0
  6  7  1  6
  6  8  1  0
  6  9  2  0
  7 16  1  0
  8 17  1  0
 10 11  1  0
 10 12  1  0
M  END
