
     RDKit          3D

 27 27  0  0  0  0  0  0  0  0999 V2000
    4.4779   -1.4359   -1.0845 O   0  0  0  0  0  0  0  0  0  0  0  0
    4.1832   -0.9221   -0.0368 C   0  0  0  0  0  0  0  0  0  0  0  0
    4.0243   -1.5692    1.1037 O   0  0  0  0  0  0  0  0  0  0  0  0
    4.0876    0.5562    0.1403 C   0  0  0  0  0  0  0  0  0  0  0  0
    2.9669    1.2681    0.1301 C   0  0  0  0  0  0  0  0  0  0  0  0
    1.6401    0.6267   -0.0320 C   0  0  0  0  0  0  0  0  0  0  0  0
    1.5281   -0.5682   -0.2495 O   0  0  0  0  0  0  0  0  0  0  0  0
    0.6035    1.4914    0.0829 N   0  0  0  0  0  0  0  0  0  0  0  0
   -0.7684    1.2443   -0.0076 C   0  0  0  0  0  0  0  0  0  0  0  0
   -1.3254   -0.0170   -0.2031 C   0  0  0  0  0  0  0  0  0  0  0  0
   -1.6129    2.3518    0.1100 C   0  0  0  0  0  0  0  0  0  0  0  0
   -2.9840    2.1976    0.0349 C   0  0  0  0  0  0  0  0  0  0  0  0
   -3.5430    0.9405   -0.1473 C   0  0  0  0  0  0  0  0  0  0  0  0
   -2.7087   -0.1664   -0.2589 C   0  0  0  0  0  0  0  0  0  0  0  0
   -3.2363   -1.5528   -0.4762 C   0  0  0  0  0  0  0  0  0  0  0  0
   -2.5440   -2.4164   -0.9972 O   0  0  0  0  0  0  0  0  0  0  0  0
   -4.4944   -1.7781   -0.0710 N   0  0  0  0  0  0  0  0  0  0  0  0
    4.1359   -2.5230    0.9673 H   0  0  0  0  0  0  0  0  0  0  0  0
    5.0395    1.0653    0.2459 H   0  0  0  0  0  0  0  0  0  0  0  0
    3.0236    2.3447    0.2350 H   0  0  0  0  0  0  0  0  0  0  0  0
    0.8461    2.4539    0.2641 H   0  0  0  0  0  0  0  0  0  0  0  0
   -0.6980   -0.8870   -0.3026 H   0  0  0  0  0  0  0  0  0  0  0  0
   -1.1911    3.3388    0.2597 H   0  0  0  0  0  0  0  0  0  0  0  0
   -3.6235    3.0661    0.1157 H   0  0  0  0  0  0  0  0  0  0  0  0
   -4.6182    0.8477   -0.2224 H   0  0  0  0  0  0  0  0  0  0  0  0
   -5.0150   -1.1175    0.4787 H   0  0  0  0  0  0  0  0  0  0  0  0
   -4.8906   -2.6986   -0.1721 H   0  0  0  0  0  0  0  0  0  0  0  0
 17 15  1  0
 16 15  2  0
 15 14  1  0
 14 10  1  0
 14 13  2  0
  7  6  2  0
 10  9  2  0
 13 12  1  0
  6  8  1  0
  6  5  1  0
  9  8  1  0
  9 11  1  0
  5  4  2  0
 12 11  2  0
  4  2  1  0
  1  2  2  0
  2  3  1  0
  3 18  1  0
  4 19  1  0
  5 20  1  0
  8 21  1  0
 10 22  1  0
 11 23  1  0
 12 24  1  0
 13 25  1  0
 17 26  1  0
 17 27  1  0
M  END
