
     RDKit          3D

 41 43  0  0  0  0  0  0  0  0999 V2000
   -4.6447   -1.2178   -0.5690 C   0  0  0  0  0  0  0  0  0  0  0  0
   -4.5713    0.1193   -0.8914 C   0  0  0  0  0  0  0  0  0  0  0  0
   -2.4810    0.2656    0.3000 C   0  0  0  0  0  0  0  0  0  0  0  0
   -1.1369    2.2299    0.3515 C   0  0  0  0  0  0  0  0  0  0  0  0
    0.2387    2.6072    0.8638 C   0  0  0  0  0  0  0  0  0  0  0  0
    1.7982    1.7183   -0.8734 C   0  0  0  0  0  0  0  0  0  0  0  0
    2.6156   -0.1859    0.1988 C   0  0  2  0  0  0  0  0  0  0  0  0
    1.9869   -1.5547   -0.1056 C   0  0  0  0  0  0  0  0  0  0  0  0
    2.8931   -2.3955   -0.9971 C   0  0  0  0  0  0  0  0  0  0  0  0
    4.2786   -2.5603   -0.3821 C   0  0  0  0  0  0  0  0  0  0  0  0
    1.6957    0.6019    1.1168 C   0  0  0  0  0  0  0  0  0  0  0  0
   -2.5780   -1.0914    0.6125 C   0  0  0  0  0  0  0  0  0  0  0  0
   -3.6606   -1.8367    0.1813 C   0  0  0  0  0  0  0  0  0  0  0  0
   -5.6980   -1.9415   -0.9926 F   0  0  0  0  0  0  0  0  0  0  0  0
   -3.4837    0.8683   -0.4540 C   0  0  0  0  0  0  0  0  0  0  0  0
   -1.3949    0.9079    0.7747 O   0  0  0  0  0  0  0  0  0  0  0  0
    1.2495    1.6805    0.4121 N   0  0  0  0  0  0  0  0  0  0  0  0
    2.6352    0.6715   -0.9694 N   0  0  0  0  0  0  0  0  0  0  0  0
    4.9093   -1.2077   -0.0659 C   0  0  0  0  0  0  0  0  0  0  0  0
    4.0037   -0.3598    0.8206 C   0  0  0  0  0  0  0  0  0  0  0  0
    1.4153    0.3213    2.2575 O   0  0  0  0  0  0  0  0  0  0  0  0
   -5.3510    0.5878   -1.4772 H   0  0  0  0  0  0  0  0  0  0  0  0
   -1.8736    2.9327    0.7561 H   0  0  0  0  0  0  0  0  0  0  0  0
   -1.1693    2.3020   -0.7410 H   0  0  0  0  0  0  0  0  0  0  0  0
    0.4853    3.6110    0.5206 H   0  0  0  0  0  0  0  0  0  0  0  0
    0.2546    2.6210    1.9526 H   0  0  0  0  0  0  0  0  0  0  0  0
    1.8212   -2.0722    0.8429 H   0  0  0  0  0  0  0  0  0  0  0  0
    1.0065   -1.4139   -0.5685 H   0  0  0  0  0  0  0  0  0  0  0  0
    2.4293   -3.3697   -1.1629 H   0  0  0  0  0  0  0  0  0  0  0  0
    2.9817   -1.9316   -1.9854 H   0  0  0  0  0  0  0  0  0  0  0  0
    4.2007   -3.1492    0.5380 H   0  0  0  0  0  0  0  0  0  0  0  0
    4.9242   -3.1254   -1.0578 H   0  0  0  0  0  0  0  0  0  0  0  0
   -1.7969   -1.5608    1.1967 H   0  0  0  0  0  0  0  0  0  0  0  0
   -3.7342   -2.8885    0.4256 H   0  0  0  0  0  0  0  0  0  0  0  0
   -3.4464    1.9182   -0.7099 H   0  0  0  0  0  0  0  0  0  0  0  0
    3.0849    0.4363   -1.8396 H   0  0  0  0  0  0  0  0  0  0  0  0
    5.8711   -1.3450    0.4322 H   0  0  0  0  0  0  0  0  0  0  0  0
    5.1261   -0.6744   -0.9977 H   0  0  0  0  0  0  0  0  0  0  0  0
    4.4498    0.6200    1.0058 H   0  0  0  0  0  0  0  0  0  0  0  0
    3.8820   -0.8464    1.7921 H   0  0  0  0  0  0  0  0  0  0  0  0
    1.5399    2.5643   -1.7027 O   0  0  0  0  0  0  0  0  0  0  0  0
 14  1  1  0
  2  1  2  0
  2 15  1  0
  1 13  1  0
 15  3  2  0
  9  8  1  0
  9 10  1  0
 13 12  2  0
  8  7  1  0
  3 12  1  0
  3 16  1  0
  4 16  1  0
  4  5  1  0
 10 19  1  0
 18  7  1  0
 18  6  1  0
 41  6  2  0
  7 11  1  1
  7 20  1  0
  6 17  1  0
 11 17  1  0
 11 21  2  0
 17  5  1  0
 19 20  1  0
  2 22  1  0
  4 23  1  0
  4 24  1  0
  5 25  1  0
  5 26  1  0
  8 27  1  0
  8 28  1  0
  9 29  1  0
  9 30  1  0
 10 31  1  0
 10 32  1  0
 12 33  1  0
 13 34  1  0
 15 35  1  0
 18 36  1  0
 19 37  1  0
 19 38  1  0
 20 39  1  0
 20 40  1  0
M  END
