
     RDKit          3D

 18 17  0  0  0  0  0  0  0  0999 V2000
   -1.8016    0.3276    0.0634 C   0  0  0  0  0  0  0  0  0  0  0  0
   -2.8449   -0.4349   -0.1647 O   0  0  0  0  0  0  0  0  0  0  0  0
   -1.8381    1.4725    0.4328 O   0  0  0  0  0  0  0  0  0  0  0  0
   -0.4924   -0.4308   -0.2018 C   0  0  0  0  0  0  0  0  0  0  0  0
   -0.5015   -1.6010   -0.5370 O   0  0  0  0  0  0  0  0  0  0  0  0
    0.5826    0.3330   -0.0325 N   0  0  0  0  0  0  0  0  0  0  0  0
    1.9473   -0.1477   -0.1943 C   0  0  1  0  0  0  0  0  0  0  0  0
    2.8375    1.0145   -0.6052 C   0  0  0  0  0  0  0  0  0  0  0  0
    2.4469   -0.8198    1.0792 C   0  0  0  0  0  0  0  0  0  0  0  0
   -3.6640    0.0577   -0.0005 H   0  0  0  0  0  0  0  0  0  0  0  0
    0.4464    1.2821    0.2834 H   0  0  0  0  0  0  0  0  0  0  0  0
    1.9364   -0.8833   -1.0009 H   0  0  0  0  0  0  0  0  0  0  0  0
    2.8651    1.7849    0.1684 H   0  0  0  0  0  0  0  0  0  0  0  0
    3.8577    0.6651   -0.7593 H   0  0  0  0  0  0  0  0  0  0  0  0
    2.4937    1.4718   -1.5332 H   0  0  0  0  0  0  0  0  0  0  0  0
    3.4580   -1.2010    0.9321 H   0  0  0  0  0  0  0  0  0  0  0  0
    2.4695   -0.1117    1.9093 H   0  0  0  0  0  0  0  0  0  0  0  0
    1.8125   -1.6597    1.3618 H   0  0  0  0  0  0  0  0  0  0  0  0
  5  4  2  0
  3  1  2  0
  4  1  1  0
  4  6  1  0
  1  2  1  0
  6  7  1  0
  7  9  1  0
  7  8  1  0
  2 10  1  0
  6 11  1  0
  7 12  1  6
  8 13  1  0
  8 14  1  0
  8 15  1  0
  9 16  1  0
  9 17  1  0
  9 18  1  0
M  END
