
     RDKit          3D

 20 19  0  0  0  0  0  0  0  0999 V2000
   -1.8652    0.1931    0.5041 S   0  0  2  0  0  0  0  0  0  0  0  0
    2.3886   -0.1495    0.0632 C   0  0  0  0  0  0  0  0  0  0  0  0
    2.7109   -1.2531   -0.3007 O   0  0  0  0  0  0  0  0  0  0  0  0
    0.9802    0.3849    0.1148 C   0  0  0  0  0  0  0  0  0  0  0  0
    3.2766    0.7591    0.4683 O   0  0  0  0  0  0  0  0  0  0  0  0
   -0.1071   -0.6116   -0.2089 C   0  0  0  0  0  0  0  0  0  0  0  0
   -1.8686    1.4495   -0.8084 C   0  0  0  0  0  0  0  0  0  0  0  0
   -2.7737   -1.2713   -0.0321 C   0  0  0  0  0  0  0  0  0  0  0  0
    0.8268    0.8111    1.1155 H   0  0  0  0  0  0  0  0  0  0  0  0
    0.9492    1.2452   -0.5636 H   0  0  0  0  0  0  0  0  0  0  0  0
    4.1715    0.3927    0.4126 H   0  0  0  0  0  0  0  0  0  0  0  0
    0.0278   -1.5301    0.3688 H   0  0  0  0  0  0  0  0  0  0  0  0
   -0.1262   -0.8756   -1.2694 H   0  0  0  0  0  0  0  0  0  0  0  0
   -1.1689    1.1843   -1.5951 H   0  0  0  0  0  0  0  0  0  0  0  0
   -2.8736    1.5348   -1.2098 H   0  0  0  0  0  0  0  0  0  0  0  0
   -1.5812    2.3948   -0.3504 H   0  0  0  0  0  0  0  0  0  0  0  0
   -2.1078   -2.1296   -0.0487 H   0  0  0  0  0  0  0  0  0  0  0  0
   -3.5980   -1.4205    0.6620 H   0  0  0  0  0  0  0  0  0  0  0  0
   -3.1725   -1.1033   -1.0305 H   0  0  0  0  0  0  0  0  0  0  0  0
   -3.2436    0.7733    0.8682 H   0  0  0  0  0  0  0  0  0  0  0  0
  7  1  1  0
  8  1  1  0
  1  6  1  0
  4  2  1  0
  2  3  2  0
  2  5  1  0
  6  4  1  0
  4  9  1  0
  4 10  1  0
  5 11  1  0
  6 12  1  0
  6 13  1  0
  7 14  1  0
  7 15  1  0
  7 16  1  0
  8 17  1  0
  8 18  1  0
  8 19  1  0
  1 20  1  1
M  END
