
     RDKit          3D

 22 22  0  0  0  0  0  0  0  0999 V2000
   -1.4235    0.3437    0.2648 C   0  0  0  0  0  0  0  0  0  0  0  0
   -0.8849    1.5743    0.5858 C   0  0  0  0  0  0  0  0  0  0  0  0
    0.4919    1.6565    0.7716 C   0  0  0  0  0  0  0  0  0  0  0  0
    1.3163    0.5540    0.6443 C   0  0  0  0  0  0  0  0  0  0  0  0
    2.7945    0.6454    0.8596 C   0  0  0  0  0  0  0  0  0  0  0  0
    3.5815    0.3871   -0.4025 C   0  0  0  0  0  0  0  0  0  0  0  0
   -0.6351   -0.7926    0.1270 C   0  0  0  0  0  0  0  0  0  0  0  0
    1.0980   -2.9809   -0.1667 C   0  0  0  0  0  0  0  0  0  0  0  0
    0.7383   -0.6819    0.3192 C   0  0  0  0  0  0  0  0  0  0  0  0
   -3.2891    0.1869    0.0041 Br  0  0  0  0  0  0  0  0  0  0  0  0
    4.8423    0.0667   -0.1366 O   0  0  0  0  0  0  0  0  0  0  0  0
    3.1442    0.4922   -1.5191 O   0  0  0  0  0  0  0  0  0  0  0  0
   -1.5031    2.4543    0.6944 H   0  0  0  0  0  0  0  0  0  0  0  0
    0.9278    2.6147    1.0260 H   0  0  0  0  0  0  0  0  0  0  0  0
    3.0568    1.6511    1.2019 H   0  0  0  0  0  0  0  0  0  0  0  0
    3.1300   -0.0344    1.6460 H   0  0  0  0  0  0  0  0  0  0  0  0
   -1.0888   -1.7413   -0.1246 H   0  0  0  0  0  0  0  0  0  0  0  0
    0.3892   -3.3781    0.5640 H   0  0  0  0  0  0  0  0  0  0  0  0
    0.6179   -2.9486   -1.1477 H   0  0  0  0  0  0  0  0  0  0  0  0
    1.9582   -3.6428   -0.2170 H   0  0  0  0  0  0  0  0  0  0  0  0
    5.3347   -0.0524   -0.9627 H   0  0  0  0  0  0  0  0  0  0  0  0
    1.5923   -1.7110    0.2154 O   0  0  0  0  0  0  0  0  0  0  0  0
 12  6  2  0
 11  6  1  0
  6  5  1  0
  5  4  1  0
  4  3  2  0
  4  9  1  0
 22  9  1  0
 22  8  1  0
  3  2  1  0
  9  7  2  0
  2  1  2  0
  7  1  1  0
  1 10  1  0
  2 13  1  0
  3 14  1  0
  5 15  1  0
  5 16  1  0
  7 17  1  0
  8 18  1  0
  8 19  1  0
  8 20  1  0
 11 21  1  0
M  END
