
     RDKit          3D

 20 19  0  0  0  0  0  0  0  0999 V2000
    1.3942   -0.6862    1.0835 N   0  0  0  0  0  0  0  0  0  0  0  0
    0.0279   -1.1337    0.9870 C   0  0  1  0  0  0  0  0  0  0  0  0
   -0.3138   -2.1729   -0.0984 C   0  0  0  0  0  0  0  0  0  0  0  0
   -0.3646   -1.5477   -1.4653 C   0  0  0  0  0  0  0  0  0  0  0  0
   -1.3112   -1.5961   -2.2491 O   0  0  0  0  0  0  0  0  0  0  0  0
    0.8330   -1.0132   -1.8179 O   0  0  0  0  0  0  0  0  0  0  0  0
    1.0743    0.3097   -2.1930 C   0  0  0  0  0  0  0  0  0  0  0  0
    0.1134    1.0177   -2.4459 O   0  0  0  0  0  0  0  0  0  0  0  0
    2.6200    0.5636   -2.1526 C   0  0  0  0  0  0  0  0  0  0  0  0
    3.1401    0.9557   -3.2148 O   0  0  0  0  0  0  0  0  0  0  0  0
    3.1487    0.3371   -1.0394 O   0  0  0  0  0  0  0  0  0  0  0  0
   -0.3837   -1.7702    2.3115 C   0  0  0  0  0  0  0  0  0  0  0  0
   -0.0211   -2.8304    2.8285 O   0  0  0  0  0  0  0  0  0  0  0  0
   -1.2924   -1.0336    3.0111 O   0  0  0  0  0  0  0  0  0  0  0  0
    1.4970    0.2552    0.7296 H   0  0  0  0  0  0  0  0  0  0  0  0
    2.0062   -1.2926    0.5738 H   0  0  0  0  0  0  0  0  0  0  0  0
   -0.6264   -0.2242    0.8260 H   0  0  0  0  0  0  0  0  0  0  0  0
    0.4565   -2.9886   -0.1037 H   0  0  0  0  0  0  0  0  0  0  0  0
   -1.3145   -2.6288    0.1193 H   0  0  0  0  0  0  0  0  0  0  0  0
   -1.5126   -1.4889    3.8388 H   0  0  0  0  0  0  0  0  0  0  0  0
  1  2  1  0
  1 15  1  0
  1 16  1  0
  2  3  1  0
  2 12  1  0
  2 17  1  6
  3  4  1  0
  3 18  1  0
  3 19  1  0
  4  5  2  0
  4  6  1  0
  6  7  1  0
  7  8  2  0
  7  9  1  0
  9 10  1  0
  9 11  2  0
 12 13  2  0
 12 14  1  0
 14 20  1  0
M  CHG  1  10  -1
M  END
