
     RDKit          3D

 51 54  0  0  0  0  0  0  0  0999 V2000
    9.5003   -3.2117   -0.7153 N   0  0  0  0  0  0  0  0  0  0  0  0
   -7.0955   -2.5184   -0.1134 S   0  0  1  0  0  0  0  0  0  0  0  0
    8.5289   -2.1337    0.9306 N   0  0  0  0  0  0  0  0  0  0  0  0
    4.8247    0.1946    0.0670 N   0  0  0  0  0  0  0  0  0  0  0  0
    0.1025    4.5084    0.0226 N   0  0  0  0  0  0  0  0  0  0  0  0
   -1.7616    1.5192    0.0546 N   0  0  0  0  0  0  0  0  0  0  0  0
   -6.8513   -3.2047   -1.5973 N   0  0  0  0  0  0  0  0  0  0  0  0
   -3.0360    1.7739   -0.0631 N   0  0  0  0  0  0  0  0  0  0  0  0
    3.1255   -0.9062    1.0527 O   0  0  0  0  0  0  0  0  0  0  0  0
   -2.2019    4.5039   -0.1522 O   0  0  0  0  0  0  0  0  0  0  0  0
   -8.4074   -1.8964    0.0136 O   0  0  0  0  0  0  0  0  0  0  0  0
   -6.7200   -3.5383    0.8562 O   0  0  0  0  0  0  0  0  0  0  0  0
   -5.3082    1.0820   -0.2185 C   0  0  0  0  0  0  0  0  0  0  0  0
   -3.5793   -0.5913    0.0365 C   0  0  0  0  0  0  0  0  0  0  0  0
   -6.2704    0.0899   -0.2361 C   0  0  0  0  0  0  0  0  0  0  0  0
   -4.5428   -1.5775    0.0173 C   0  0  0  0  0  0  0  0  0  0  0  0
    3.2718    2.6199    0.3538 C   0  0  0  0  0  0  0  0  0  0  0  0
    2.4728    3.7520    0.2398 C   0  0  0  0  0  0  0  0  0  0  0  0
    9.3557   -3.0993    0.6178 C   0  0  0  0  0  0  0  0  0  0  0  0
    8.7152   -2.2581   -1.2959 C   0  0  0  0  0  0  0  0  0  0  0  0
    1.3411    1.1681    0.3193 C   0  0  0  0  0  0  0  0  0  0  0  0
    5.7492   -0.9188    0.1218 C   0  0  0  0  0  0  0  0  0  0  0  0
    3.5687    0.1114    0.5345 C   0  0  0  0  0  0  0  0  0  0  0  0
   -3.9602    0.7493   -0.0809 C   0  0  0  0  0  0  0  0  0  0  0  0
    2.7257    1.3348    0.3874 C   0  0  0  0  0  0  0  0  0  0  0  0
    8.1190   -1.5946   -0.2595 C   0  0  0  0  0  0  0  0  0  0  0  0
   -5.8857   -1.2382   -0.1191 C   0  0  0  0  0  0  0  0  0  0  0  0
   -1.1312    3.9324   -0.0364 C   0  0  0  0  0  0  0  0  0  0  0  0
   -0.8931    2.4660    0.0686 C   0  0  0  0  0  0  0  0  0  0  0  0
    1.1084    3.5635    0.1508 C   0  0  0  0  0  0  0  0  0  0  0  0
    0.5405    2.2832    0.1878 C   0  0  0  0  0  0  0  0  0  0  0  0
    5.0765    0.9774   -0.5150 H   0  0  0  0  0  0  0  0  0  0  0  0
    0.2555    5.5048   -0.0251 H   0  0  0  0  0  0  0  0  0  0  0  0
   -7.1944   -2.6247   -2.3563 H   0  0  0  0  0  0  0  0  0  0  0  0
   -7.2691   -4.1294   -1.6505 H   0  0  0  0  0  0  0  0  0  0  0  0
   -3.3614    2.7325   -0.1503 H   0  0  0  0  0  0  0  0  0  0  0  0
   -5.6066    2.1188   -0.3109 H   0  0  0  0  0  0  0  0  0  0  0  0
   -2.5381   -0.8571    0.1464 H   0  0  0  0  0  0  0  0  0  0  0  0
   -7.3113    0.3623   -0.3415 H   0  0  0  0  0  0  0  0  0  0  0  0
   -4.2392   -2.6116    0.1116 H   0  0  0  0  0  0  0  0  0  0  0  0
    4.3407    2.7620    0.4468 H   0  0  0  0  0  0  0  0  0  0  0  0
    2.9109    4.7409    0.2279 H   0  0  0  0  0  0  0  0  0  0  0  0
    9.8748   -3.7415    1.3126 H   0  0  0  0  0  0  0  0  0  0  0  0
    8.6493   -2.1321   -2.3635 H   0  0  0  0  0  0  0  0  0  0  0  0
    0.9052    0.1782    0.3576 H   0  0  0  0  0  0  0  0  0  0  0  0
    5.7960   -1.3016    1.1424 H   0  0  0  0  0  0  0  0  0  0  0  0
    5.4040   -1.7404   -0.5136 H   0  0  0  0  0  0  0  0  0  0  0  0
    7.0924   -0.0931   -1.3475 H   0  0  0  0  0  0  0  0  0  0  0  0
    7.4713    0.3532    0.3093 H   0  0  0  0  0  0  0  0  0  0  0  0
   10.0830   -3.8777   -1.1966 H   0  0  0  0  0  0  0  0  0  0  0  0
    7.1380   -0.4743   -0.3240 C   0  0  0  0  0  0  0  0  0  0  0  0
 20  1  1  0
  1 19  1  0
 27  2  1  0
 12  2  2  0
  2 11  2  0
  2  7  1  6
 26  3  1  0
  3 19  2  0
 23  4  1  0
  4 22  1  0
  4 32  1  0
  5 30  1  0
  5 28  1  0
  5 33  1  0
 29  6  2  0
  8  6  1  0
  7 34  1  0
  7 35  1  0
  8 24  1  0
  8 36  1  0
  9 23  2  0
 10 28  2  0
 24 13  2  0
 13 15  1  0
 13 37  1  0
 24 14  1  0
 14 16  2  0
 14 38  1  0
 15 27  2  0
 15 39  1  0
 16 27  1  0
 16 40  1  0
 18 17  1  0
 17 25  2  0
 17 41  1  0
 18 30  2  0
 18 42  1  0
 19 43  1  0
 20 26  2  0
 20 44  1  0
 31 21  2  0
 25 21  1  0
 21 45  1  0
 22 51  1  0
 22 46  1  0
 22 47  1  0
 51 26  1  0
 51 48  1  0
 51 49  1  0
 25 23  1  0
 28 29  1  0
 31 29  1  0
 30 31  1  0
  1 50  1  0
M  END
