
     RDKit          3D

 41 43  0  0  0  0  0  0  0  0999 V2000
    0.4994   -1.1198   -0.2741 N   0  0  0  0  0  0  0  0  0  0  0  0
   -0.7097   -1.7155   -0.4315 C   0  0  0  0  0  0  0  0  0  0  0  0
   -0.7545   -3.0287   -0.6246 N   0  0  0  0  0  0  0  0  0  0  0  0
   -1.8216   -0.8618   -0.3716 C   0  0  0  0  0  0  0  0  0  0  0  0
   -3.1814   -1.2523   -0.4709 C   0  0  0  0  0  0  0  0  0  0  0  0
   -4.2289   -0.1823   -0.4676 C   0  0  0  0  0  0  0  0  0  0  0  0
   -5.3169   -0.3158    0.3855 C   0  0  0  0  0  0  0  0  0  0  0  0
   -6.3032    0.6557    0.3676 C   0  0  0  0  0  0  0  0  0  0  0  0
   -6.2550    1.7394   -0.4986 C   0  0  0  0  0  0  0  0  0  0  0  0
   -5.1793    1.8476   -1.3619 C   0  0  0  0  0  0  0  0  0  0  0  0
   -4.1672    0.8979   -1.3438 C   0  0  0  0  0  0  0  0  0  0  0  0
   -3.5345   -2.4311   -0.5464 O   0  0  0  0  0  0  0  0  0  0  0  0
   -1.2532    0.7705   -0.0639 S   0  0  0  0  0  0  0  0  0  0  0  0
    0.3709    0.1583   -0.0716 C   0  0  0  0  0  0  0  0  0  0  0  0
    1.3862    1.0215    0.1271 N   0  0  0  0  0  0  0  0  0  0  0  0
    2.7562    0.7906    0.1349 C   0  0  0  0  0  0  0  0  0  0  0  0
   -7.4308    0.5319    1.2828 N   0  0  0  0  0  0  0  0  0  0  0  0
   -7.4364   -0.3970    2.0547 O   0  0  0  0  0  0  0  0  0  0  0  0
   -8.3020    1.3662    1.2236 O   0  0  0  0  0  0  0  0  0  0  0  0
    3.5685    1.8979    0.3991 C   0  0  0  0  0  0  0  0  0  0  0  0
    4.9426    1.7761    0.4227 C   0  0  0  0  0  0  0  0  0  0  0  0
    5.5208    0.5369    0.1830 C   0  0  0  0  0  0  0  0  0  0  0  0
    4.7264   -0.5697   -0.0826 C   0  0  0  0  0  0  0  0  0  0  0  0
    3.3489   -0.4524   -0.1083 C   0  0  0  0  0  0  0  0  0  0  0  0
    7.2747    0.3608    0.2030 S   0  0  1  0  0  0  0  0  0  0  0  0
    7.6864   -0.5976   -0.8130 O   0  0  0  0  0  0  0  0  0  0  0  0
    7.8538    1.6975    0.1669 O   0  0  0  0  0  0  0  0  0  0  0  0
    7.5073   -0.4006    1.6518 N   0  0  0  0  0  0  0  0  0  0  0  0
    0.0982   -3.5533   -0.7154 H   0  0  0  0  0  0  0  0  0  0  0  0
   -1.6379   -3.4908   -0.7577 H   0  0  0  0  0  0  0  0  0  0  0  0
   -5.3755   -1.1605    1.0573 H   0  0  0  0  0  0  0  0  0  0  0  0
   -7.0358    2.4853   -0.5086 H   0  0  0  0  0  0  0  0  0  0  0  0
   -5.1307    2.6759   -2.0545 H   0  0  0  0  0  0  0  0  0  0  0  0
   -3.3420    0.9910   -2.0385 H   0  0  0  0  0  0  0  0  0  0  0  0
    1.1221    1.9812    0.2978 H   0  0  0  0  0  0  0  0  0  0  0  0
    3.1197    2.8654    0.5877 H   0  0  0  0  0  0  0  0  0  0  0  0
    5.5486    2.6476    0.6276 H   0  0  0  0  0  0  0  0  0  0  0  0
    5.1697   -1.5376   -0.2757 H   0  0  0  0  0  0  0  0  0  0  0  0
    2.7461   -1.3207   -0.3166 H   0  0  0  0  0  0  0  0  0  0  0  0
    7.3735    0.2183    2.4453 H   0  0  0  0  0  0  0  0  0  0  0  0
    8.4249   -0.8346    1.6985 H   0  0  0  0  0  0  0  0  0  0  0  0
  1  2  1  0
  1 14  2  0
  2  3  1  0
  2  4  2  0
  3 29  1  0
  3 30  1  0
  4  5  1  0
  4 13  1  0
  5  6  1  0
  5 12  2  0
  6  7  2  0
  6 11  1  0
  7  8  1  0
  7 31  1  0
  8  9  2  0
  8 17  1  0
  9 10  1  0
  9 32  1  0
 10 11  2  0
 10 33  1  0
 11 34  1  0
 13 14  1  0
 14 15  1  0
 15 16  1  0
 15 35  1  0
 16 20  2  0
 16 24  1  0
 17 18  2  0
 17 19  1  0
 20 21  1  0
 20 36  1  0
 21 22  2  0
 21 37  1  0
 22 23  1  0
 22 25  1  0
 23 24  2  0
 23 38  1  0
 24 39  1  0
 25 26  2  0
 25 27  2  0
 25 28  1  1
 28 40  1  0
 28 41  1  0
M  CHG  2  17   1  19  -1
M  END
