
     RDKit          3D

 36 38  0  0  0  0  0  0  0  0999 V2000
    5.1589    1.3971    0.3384 C   0  0  0  0  0  0  0  0  0  0  0  0
    4.6794    0.1022    0.4160 C   0  0  0  0  0  0  0  0  0  0  0  0
    5.8065   -1.2039    0.6109 Cl  0  0  0  0  0  0  0  0  0  0  0  0
    3.3296   -0.2080    0.3441 C   0  0  0  0  0  0  0  0  0  0  0  0
    4.2312    2.4194    0.1820 C   0  0  0  0  0  0  0  0  0  0  0  0
    2.8792    2.1476    0.1075 C   0  0  0  0  0  0  0  0  0  0  0  0
    2.4101    0.8305    0.1876 C   0  0  0  0  0  0  0  0  0  0  0  0
    1.0304    0.6673    0.1076 N   0  0  0  0  0  0  0  0  0  0  0  0
    0.2547   -0.4460    0.1380 C   0  0  0  0  0  0  0  0  0  0  0  0
    0.8167   -1.6329    0.2258 N   0  0  0  0  0  0  0  0  0  0  0  0
    0.0139   -2.7046    0.2381 C   0  0  0  0  0  0  0  0  0  0  0  0
   -1.2851   -2.7229    0.1691 N   0  0  0  0  0  0  0  0  0  0  0  0
   -1.1699   -0.3087    0.0717 C   0  0  0  0  0  0  0  0  0  0  0  0
   -1.8952   -1.5120    0.0861 C   0  0  0  0  0  0  0  0  0  0  0  0
   -1.8643    0.9212   -0.0005 C   0  0  0  0  0  0  0  0  0  0  0  0
   -3.2310    0.9496   -0.0673 C   0  0  0  0  0  0  0  0  0  0  0  0
   -3.9834    2.0541   -0.1422 O   0  0  0  0  0  0  0  0  0  0  0  0
   -3.3294    3.3086   -0.1541 C   0  0  0  0  0  0  0  0  0  0  0  0
   -3.9686   -0.2772   -0.0582 C   0  0  0  0  0  0  0  0  0  0  0  0
   -3.3041   -1.4730    0.0170 C   0  0  0  0  0  0  0  0  0  0  0  0
   -5.2925   -0.1322   -0.1240 O   0  0  0  0  0  0  0  0  0  0  0  0
   -6.0980   -1.2972   -0.1091 C   0  0  0  0  0  0  0  0  0  0  0  0
    6.2177    1.6065    0.3963 H   0  0  0  0  0  0  0  0  0  0  0  0
    2.9986   -1.2310    0.4064 H   0  0  0  0  0  0  0  0  0  0  0  0
    4.5710    3.4445    0.1177 H   0  0  0  0  0  0  0  0  0  0  0  0
    2.1767    2.9637   -0.0126 H   0  0  0  0  0  0  0  0  0  0  0  0
    0.5390    1.5375   -0.0098 H   0  0  0  0  0  0  0  0  0  0  0  0
    0.5187   -3.6625    0.3117 H   0  0  0  0  0  0  0  0  0  0  0  0
   -1.3239    1.8580    0.0019 H   0  0  0  0  0  0  0  0  0  0  0  0
   -4.1086    4.0615   -0.2349 H   0  0  0  0  0  0  0  0  0  0  0  0
   -2.7650    3.4788    0.7664 H   0  0  0  0  0  0  0  0  0  0  0  0
   -2.6536    3.4045   -1.0077 H   0  0  0  0  0  0  0  0  0  0  0  0
   -3.8341   -2.4159    0.0285 H   0  0  0  0  0  0  0  0  0  0  0  0
   -7.1284   -0.9576   -0.1658 H   0  0  0  0  0  0  0  0  0  0  0  0
   -5.8883   -1.9443   -0.9640 H   0  0  0  0  0  0  0  0  0  0  0  0
   -5.9615   -1.8705    0.8109 H   0  0  0  0  0  0  0  0  0  0  0  0
  3  2  1  0
  2  4  1  0
  2  1  2  0
 11 10  2  0
 11 12  1  0
  4  7  2  0
  1  5  1  0
 10  9  1  0
 12 14  2  0
  7  8  1  0
  7  6  1  0
  5  6  2  0
  9  8  1  0
  9 13  2  0
 14 13  1  0
 14 20  1  0
 13 15  1  0
 20 19  2  0
 15 16  2  0
 19 16  1  0
 19 21  1  0
 16 17  1  0
 22 21  1  0
 18 17  1  0
  1 23  1  0
  4 24  1  0
  5 25  1  0
  6 26  1  0
  8 27  1  0
 11 28  1  0
 15 29  1  0
 18 30  1  0
 18 31  1  0
 18 32  1  0
 20 33  1  0
 22 34  1  0
 22 35  1  0
 22 36  1  0
M  END
