
     RDKit          3D

 27 28  0  0  0  0  0  0  0  0999 V2000
   -4.3756    0.0362    0.4322 O   0  0  0  0  0  0  0  0  0  0  0  0
   -3.0229    0.0342    0.4538 C   0  0  0  0  0  0  0  0  0  0  0  0
   -2.3876    0.8647   -0.4793 C   0  0  0  0  0  0  0  0  0  0  0  0
   -3.0929    1.6326   -1.3351 O   0  0  0  0  0  0  0  0  0  0  0  0
   -1.0043    0.8934   -0.5365 C   0  0  0  0  0  0  0  0  0  0  0  0
   -2.2593   -0.7337    1.3177 C   0  0  0  0  0  0  0  0  0  0  0  0
   -0.8723   -0.6890    1.2639 C   0  0  0  0  0  0  0  0  0  0  0  0
   -0.2300    0.1169    0.3289 C   0  0  0  0  0  0  0  0  0  0  0  0
    1.2356    0.1714    0.2530 C   0  0  0  0  0  0  0  0  0  0  0  0
    2.0372    1.6994    0.3627 S   0  0  0  0  0  0  0  0  0  0  0  0
    3.5779    0.9817    0.1645 C   0  0  0  0  0  0  0  0  0  0  0  0
    3.4770   -0.3667    0.0234 C   0  0  0  0  0  0  0  0  0  0  0  0
    2.1344   -0.8474    0.0740 C   0  0  0  0  0  0  0  0  0  0  0  0
    1.7806   -2.2849   -0.1715 C   0  0  0  0  0  0  0  0  0  0  0  0
    1.5419   -2.5642   -1.6545 C   0  0  0  0  0  0  0  0  0  0  0  0
   -4.7350   -0.3457    1.2406 H   0  0  0  0  0  0  0  0  0  0  0  0
   -4.0380    1.5477   -1.1619 H   0  0  0  0  0  0  0  0  0  0  0  0
   -0.5271    1.5270   -1.2752 H   0  0  0  0  0  0  0  0  0  0  0  0
   -2.7500   -1.3673    2.0478 H   0  0  0  0  0  0  0  0  0  0  0  0
   -0.2939   -1.2719    1.9685 H   0  0  0  0  0  0  0  0  0  0  0  0
    4.4713    1.5868    0.1716 H   0  0  0  0  0  0  0  0  0  0  0  0
    4.3315   -1.0153   -0.1178 H   0  0  0  0  0  0  0  0  0  0  0  0
    2.5912   -2.9197    0.1938 H   0  0  0  0  0  0  0  0  0  0  0  0
    0.8930   -2.5688    0.3935 H   0  0  0  0  0  0  0  0  0  0  0  0
    2.4324   -2.3502   -2.2466 H   0  0  0  0  0  0  0  0  0  0  0  0
    1.2745   -3.6091   -1.8157 H   0  0  0  0  0  0  0  0  0  0  0  0
    0.7297   -1.9463   -2.0398 H   0  0  0  0  0  0  0  0  0  0  0  0
  2  1  1  0
  1 16  1  0
  3  2  2  0
  2  6  1  0
  4  3  1  0
  5  3  1  0
  4 17  1  0
  5  8  2  0
  5 18  1  0
  7  6  2  0
  6 19  1  0
  8  7  1  0
  7 20  1  0
  9  8  1  0
 10  9  1  0
  9 13  2  0
 10 11  1  0
 11 12  2  0
 11 21  1  0
 12 13  1  0
 12 22  1  0
 13 14  1  0
 14 15  1  0
 14 23  1  0
 14 24  1  0
 15 25  1  0
 15 26  1  0
 15 27  1  0
M  END
