
     RDKit          3D

 38 40  0  0  0  0  0  0  0  0999 V2000
   11.3154   -3.0551    7.7928 C   0  0  0  0  0  0  0  0  0  0  0  0
   10.5526   -3.1356    6.6761 C   0  0  0  0  0  0  0  0  0  0  0  0
    9.5822   -2.2246    6.6958 O   0  0  0  0  0  0  0  0  0  0  0  0
    9.6670   -1.4963    7.8476 N   0  0  0  0  0  0  0  0  0  0  0  0
   10.6847   -1.9861    8.4937 C   0  0  0  0  0  0  0  0  0  0  0  0
   10.6174   -4.0230    5.5399 C   0  0  0  0  0  0  0  0  0  0  0  0
    9.9406   -3.8777    4.3905 N   0  0  0  0  0  0  0  0  0  0  0  0
   10.2800   -4.8831    3.6523 N   0  0  0  0  0  0  0  0  0  0  0  0
   11.1241   -5.5907    4.3474 N   0  0  0  0  0  0  0  0  0  0  0  0
   11.3716   -5.1032    5.5281 N   0  0  0  0  0  0  0  0  0  0  0  0
   11.7593   -6.8081    3.8591 C   0  0  0  0  0  0  0  0  0  0  0  0
   15.9819   -6.2162    3.4207 C   0  0  0  0  0  0  0  0  0  0  0  0
   15.1407   -6.0603    2.3273 C   0  0  0  0  0  0  0  0  0  0  0  0
   13.7738   -6.2578    2.4699 C   0  0  0  0  0  0  0  0  0  0  0  0
   13.2416   -6.6154    3.7038 C   0  0  0  0  0  0  0  0  0  0  0  0
   14.0883   -6.7694    4.7983 C   0  0  0  0  0  0  0  0  0  0  0  0
   15.4539   -6.5699    4.6564 C   0  0  0  0  0  0  0  0  0  0  0  0
   11.0106   -1.4672    9.6694 O   0  0  0  0  0  0  0  0  0  0  0  0
   12.5185   -3.8261    8.2070 C   0  0  0  0  0  0  0  0  0  0  0  0
   12.2566   -4.9902    9.1860 C   0  0  1  0  0  0  0  0  0  0  0  0
   11.5050   -6.1139    8.4974 C   0  0  0  0  0  0  0  0  0  0  0  0
   11.9947   -7.1513    8.1347 O   0  0  0  0  0  0  0  0  0  0  0  0
   10.2186   -5.8196    8.3552 O   0  0  0  0  0  0  0  0  0  0  0  0
   13.5365   -5.4799    9.6442 N   0  0  0  0  0  0  0  0  0  0  0  0
   11.7973   -1.8904   10.0319 H   0  0  0  0  0  0  0  0  0  0  0  0
   11.2780   -7.0481    2.9138 H   0  0  0  0  0  0  0  0  0  0  0  0
   11.5299   -7.5984    4.5728 H   0  0  0  0  0  0  0  0  0  0  0  0
   15.5471   -5.7859    1.3629 H   0  0  0  0  0  0  0  0  0  0  0  0
   13.1188   -6.1369    1.6153 H   0  0  0  0  0  0  0  0  0  0  0  0
   13.6803   -7.0433    5.7639 H   0  0  0  0  0  0  0  0  0  0  0  0
   16.1074   -6.6935    5.5101 H   0  0  0  0  0  0  0  0  0  0  0  0
   13.0481   -4.2065    7.3330 H   0  0  0  0  0  0  0  0  0  0  0  0
   13.2172   -3.1465    8.7069 H   0  0  0  0  0  0  0  0  0  0  0  0
   11.6098   -4.6181    9.9950 H   0  0  0  0  0  0  0  0  0  0  0  0
    9.7646   -6.5382    7.8898 H   0  0  0  0  0  0  0  0  0  0  0  0
   13.4094   -6.2387   10.3018 H   0  0  0  0  0  0  0  0  0  0  0  0
   14.0036   -4.7437   10.1585 H   0  0  0  0  0  0  0  0  0  0  0  0
   17.0480   -6.0662    3.3101 H   0  0  0  0  0  0  0  0  0  0  0  0
  1 19  1  0
  1  5  1  0
  1  2  2  0
  2  6  1  0
  2  3  1  0
  3  4  1  0
  4  5  2  0
  5 18  1  0
  6 10  2  0
  6  7  1  0
  7  8  2  0
  8  9  1  0
  9 10  1  0
  9 11  1  0
 11 15  1  0
 11 26  1  0
 11 27  1  0
 12 13  2  0
 12 17  1  0
 12 38  1  0
 13 14  1  0
 13 28  1  0
 14 15  2  0
 14 29  1  0
 15 16  1  0
 16 17  2  0
 16 30  1  0
 17 31  1  0
 18 25  1  0
 19 20  1  0
 19 32  1  0
 19 33  1  0
 20 21  1  0
 20 24  1  0
 20 34  1  1
 21 22  2  0
 21 23  1  0
 23 35  1  0
 24 36  1  0
 24 37  1  0
M  END
