
     RDKit          3D

 17 17  0  0  0  0  0  0  0  0999 V2000
   -0.0293    0.1604   -0.2326 C   0  0  0  0  0  0  0  0  0  0  0  0
   -1.1415   -0.0660   -1.0409 C   0  0  0  0  0  0  0  0  0  0  0  0
   -0.9927   -0.1985   -2.4123 C   0  0  0  0  0  0  0  0  0  0  0  0
    0.2654   -0.0851   -2.9916 C   0  0  0  0  0  0  0  0  0  0  0  0
    1.3741    0.1602   -2.1936 C   0  0  0  0  0  0  0  0  0  0  0  0
    1.2293    0.2813   -0.8187 C   0  0  0  0  0  0  0  0  0  0  0  0
   -0.2492    0.3143    1.2362 C   0  0  0  0  0  0  0  0  0  0  0  0
   -1.2753    0.7872    1.6956 O   0  0  0  0  0  0  0  0  0  0  0  0
    0.7602   -0.1418    1.9976 N   0  0  0  0  0  0  0  0  0  0  0  0
    0.7619    0.0820    3.3382 O   0  0  0  0  0  0  0  0  0  0  0  0
   -2.1244   -0.1476   -0.5954 H   0  0  0  0  0  0  0  0  0  0  0  0
   -1.8601   -0.3865   -3.0312 H   0  0  0  0  0  0  0  0  0  0  0  0
    0.3793   -0.1808   -4.0634 H   0  0  0  0  0  0  0  0  0  0  0  0
    2.3539    0.2656   -2.6402 H   0  0  0  0  0  0  0  0  0  0  0  0
    2.1045    0.4955   -0.2181 H   0  0  0  0  0  0  0  0  0  0  0  0
    1.6036   -0.5544    1.6277 H   0  0  0  0  0  0  0  0  0  0  0  0
    0.3540   -0.6936    3.7462 H   0  0  0  0  0  0  0  0  0  0  0  0
  1  2  2  0
  1  6  1  0
  1  7  1  0
  2  3  1  0
  2 11  1  0
  3  4  2  0
  3 12  1  0
  4  5  1  0
  4 13  1  0
  5  6  2  0
  5 14  1  0
  6 15  1  0
  7  8  2  0
  7  9  1  0
  9 10  1  0
  9 16  1  0
 10 17  1  0
M  END
