
     RDKit          3D

 46 47  0  0  0  0  0  0  0  0999 V2000
    2.2660    0.0798   -0.0256 N   0  0  0  0  0  0  0  0  0  0  0  0
    2.9496   -4.0406    0.4187 N   0  0  0  0  0  0  0  0  0  0  0  0
    5.3089    3.1675    1.1159 N   0  0  0  0  0  0  0  0  0  0  0  0
   -2.4276   -0.6075   -0.1391 N   0  0  0  0  0  0  0  0  0  0  0  0
   -1.9723   -3.5143   -0.3003 N   0  0  0  0  0  0  0  0  0  0  0  0
    0.3680   -3.0162   -0.1386 C   0  0  0  0  0  0  0  0  0  0  0  0
    1.4642   -2.1962   -0.0464 C   0  0  0  0  0  0  0  0  0  0  0  0
    1.2357   -0.7755   -0.0548 C   0  0  0  0  0  0  0  0  0  0  0  0
   -0.0776   -0.3037   -0.0705 C   0  0  0  0  0  0  0  0  0  0  0  0
   -1.1999   -1.1392   -0.1320 C   0  0  0  0  0  0  0  0  0  0  0  0
   -0.9454   -2.5486   -0.1927 C   0  0  0  0  0  0  0  0  0  0  0  0
    2.1309    1.5186   -0.0261 C   0  0  0  0  0  0  0  0  0  0  0  0
    3.4899    2.1526   -0.0724 C   0  0  0  0  0  0  0  0  0  0  0  0
    4.1019    2.6172    1.0860 C   0  0  0  0  0  0  0  0  0  0  0  0
    5.9694    3.2748   -0.0307 C   0  0  0  0  0  0  0  0  0  0  0  0
    5.4574    2.8420   -1.2456 C   0  0  0  0  0  0  0  0  0  0  0  0
    4.1957    2.2708   -1.2639 C   0  0  0  0  0  0  0  0  0  0  0  0
   -2.7060    0.8072   -0.0553 C   0  0  0  0  0  0  0  0  0  0  0  0
   -4.2078    1.0379   -0.0096 C   0  0  0  0  0  0  0  0  0  0  0  0
   -4.5193    2.5208    0.0905 C   0  0  0  0  0  0  0  0  0  0  0  0
   -5.9927    2.8151    0.1468 C   0  0  0  0  0  0  0  0  0  0  0  0
    3.8320   -2.0852   -0.2298 O   0  0  0  0  0  0  0  0  0  0  0  0
   -6.2325    4.1217    0.1949 O   0  0  0  0  0  0  0  0  0  0  0  0
   -6.8672    1.9850    0.1492 O   0  0  0  0  0  0  0  0  0  0  0  0
   -3.1412   -3.1464   -0.3193 O   0  0  0  0  0  0  0  0  0  0  0  0
   -1.6802   -4.6941   -0.3714 O   0  0  0  0  0  0  0  0  0  0  0  0
    3.1879   -0.3320   -0.0920 H   0  0  0  0  0  0  0  0  0  0  0  0
    2.1911   -4.5661    0.8149 H   0  0  0  0  0  0  0  0  0  0  0  0
    3.8689   -4.4429    0.5024 H   0  0  0  0  0  0  0  0  0  0  0  0
   -3.2042   -1.2454   -0.1984 H   0  0  0  0  0  0  0  0  0  0  0  0
    0.5061   -4.0867   -0.1860 H   0  0  0  0  0  0  0  0  0  0  0  0
   -0.2376    0.7628   -0.0459 H   0  0  0  0  0  0  0  0  0  0  0  0
    1.5431    1.8489   -0.8896 H   0  0  0  0  0  0  0  0  0  0  0  0
    1.5956    1.8534    0.8684 H   0  0  0  0  0  0  0  0  0  0  0  0
    3.5801    2.5414    2.0355 H   0  0  0  0  0  0  0  0  0  0  0  0
    6.9524    3.7301    0.0160 H   0  0  0  0  0  0  0  0  0  0  0  0
    6.0344    2.9560   -2.1528 H   0  0  0  0  0  0  0  0  0  0  0  0
    3.7619    1.9282   -2.1956 H   0  0  0  0  0  0  0  0  0  0  0  0
   -2.2402    1.2294    0.8421 H   0  0  0  0  0  0  0  0  0  0  0  0
   -2.2759    1.3351   -0.9143 H   0  0  0  0  0  0  0  0  0  0  0  0
   -4.6676    0.6190   -0.9081 H   0  0  0  0  0  0  0  0  0  0  0  0
   -4.6290    0.5065    0.8470 H   0  0  0  0  0  0  0  0  0  0  0  0
   -4.0533    2.9537    0.9816 H   0  0  0  0  0  0  0  0  0  0  0  0
   -4.0945    3.0658   -0.7582 H   0  0  0  0  0  0  0  0  0  0  0  0
   -7.1875    4.2813    0.2316 H   0  0  0  0  0  0  0  0  0  0  0  0
    2.8347   -2.7589    0.0384 C   0  0  0  0  0  0  0  0  0  0  0  0
  1  8  1  0
  1 12  1  0
  1 27  1  0
  2 46  1  0
  2 28  1  0
  2 29  1  0
  3 15  2  0
  4 18  1  0
  4 30  1  0
  5 26  2  0
  6 11  2  0
  6 31  1  0
  7  6  1  0
  7  8  2  0
  8  9  1  0
  9 10  2  0
  9 32  1  0
 10  4  1  0
 11  5  1  0
 11 10  1  0
 46  7  1  0
 12 13  1  0
 12 33  1  0
 12 34  1  0
 13 17  1  0
 14 13  2  0
 14  3  1  0
 14 35  1  0
 15 16  1  0
 15 36  1  0
 16 37  1  0
 17 16  2  0
 17 38  1  0
 18 19  1  0
 18 39  1  0
 18 40  1  0
 19 20  1  0
 19 41  1  0
 19 42  1  0
 20 21  1  0
 20 43  1  0
 20 44  1  0
 21 24  2  0
 21 23  1  0
 22 46  2  0
 25  5  1  0
 23 45  1  0
M  CHG  2   5   1  25  -1
M  END
