
     RDKit          3D

 28 27  0  0  0  0  0  0  0  0999 V2000
   38.6565   70.2837   46.3066 N   0  0  0  0  0  0  0  0  0  0  0  0
   39.3182   71.5435   46.0672 C   0  0  2  0  0  0  0  0  0  0  0  0
   39.0889   72.1930   44.7054 C   0  0  0  0  0  0  0  0  0  0  0  0
   39.3932   73.3383   44.3649 O   0  0  0  0  0  0  0  0  0  0  0  0
   40.8408   71.4506   46.2713 C   0  0  0  0  0  0  0  0  0  0  0  0
   41.1888   70.9802   47.6785 C   0  0  1  0  0  0  0  0  0  0  0  0
   41.4687   69.5912   47.7314 O   0  0  0  0  0  0  0  0  0  0  0  0
   42.4895   71.6972   48.1219 C   0  0  0  0  0  0  0  0  0  0  0  0
   42.9763   71.2043   49.3962 N   0  0  0  0  0  0  0  0  0  0  0  0
   44.1668   71.5731   50.0022 C   0  0  0  0  0  0  0  0  0  0  0  0
   45.0519   72.4763   49.4498 N   0  0  0  0  0  0  0  0  0  0  0  0
   44.4833   71.0086   51.2199 N   0  0  0  0  0  0  0  0  0  0  0  0
   38.4810   71.4021   43.7839 O   0  0  0  0  0  0  0  0  0  0  0  0
   39.0255   69.5629   45.7165 H   0  0  0  0  0  0  0  0  0  0  0  0
   37.6702   70.3664   46.1439 H   0  0  0  0  0  0  0  0  0  0  0  0
   38.9007   72.2919   46.8129 H   0  0  0  0  0  0  0  0  0  0  0  0
   41.2927   70.7478   45.5225 H   0  0  0  0  0  0  0  0  0  0  0  0
   41.2717   72.4718   46.0906 H   0  0  0  0  0  0  0  0  0  0  0  0
   40.3549   71.2224   48.3969 H   0  0  0  0  0  0  0  0  0  0  0  0
   40.6787   69.1424   48.0653 H   0  0  0  0  0  0  0  0  0  0  0  0
   43.2692   71.5393   47.3207 H   0  0  0  0  0  0  0  0  0  0  0  0
   42.2621   72.7980   48.2160 H   0  0  0  0  0  0  0  0  0  0  0  0
   42.3801   70.5398   49.8578 H   0  0  0  0  0  0  0  0  0  0  0  0
   45.8947   72.7084   49.9250 H   0  0  0  0  0  0  0  0  0  0  0  0
   44.8795   72.9165   48.5748 H   0  0  0  0  0  0  0  0  0  0  0  0
   43.8722   70.3531   51.6523 H   0  0  0  0  0  0  0  0  0  0  0  0
   45.3276   71.2447   51.6903 H   0  0  0  0  0  0  0  0  0  0  0  0
   38.3723   71.8886   42.9472 H   0  0  0  0  0  0  0  0  0  0  0  0
  1  2  1  0
  1 14  1  0
  1 15  1  0
  2  3  1  0
  2  5  1  0
  2 16  1  1
  3  4  2  0
  3 13  1  0
  5  6  1  0
  5 17  1  0
  5 18  1  0
  6  7  1  0
  6  8  1  0
  6 19  1  1
  7 20  1  0
  8  9  1  0
  8 21  1  0
  8 22  1  0
  9 10  1  0
  9 23  1  0
 10 11  1  0
 10 12  2  0
 11 24  1  0
 11 25  1  0
 12 26  1  0
 12 27  1  0
 13 28  1  0
M  CHG  1  12   1
M  END
