
     RDKit          3D

 24 25  0  0  0  0  0  0  0  0999 V2000
    0.5920   -1.1906    0.0918 C   0  0  0  0  0  0  0  0  0  0  0  0
    0.5824    1.1534   -0.4172 C   0  0  0  0  0  0  0  0  0  0  0  0
    1.9748   -1.2005   -0.0016 C   0  0  0  0  0  0  0  0  0  0  0  0
    1.9648    1.1364   -0.5070 C   0  0  0  0  0  0  0  0  0  0  0  0
   -2.3818   -1.0482   -0.4730 C   0  0  0  0  0  0  0  0  0  0  0  0
   -2.2925    1.0766    0.5240 C   0  0  0  0  0  0  0  0  0  0  0  0
   -4.2582    0.0389    0.1454 C   0  0  0  0  0  0  0  0  0  0  0  0
   -0.1237   -0.0114   -0.1146 C   0  0  0  0  0  0  0  0  0  0  0  0
   -1.5907    0.0048   -0.0214 C   0  0  0  0  0  0  0  0  0  0  0  0
    2.6799   -0.0405   -0.3059 C   0  0  0  0  0  0  0  0  0  0  0  0
    4.1800   -0.0450   -0.3587 C   0  0  0  0  0  0  0  0  0  0  0  0
   -3.7042   -1.0382   -0.3897 N   0  0  0  0  0  0  0  0  0  0  0  0
   -3.6146    1.1005    0.6063 N   0  0  0  0  0  0  0  0  0  0  0  0
    4.6634    0.3113    0.9209 O   0  0  0  0  0  0  0  0  0  0  0  0
    0.0722   -2.1057    0.3474 H   0  0  0  0  0  0  0  0  0  0  0  0
    0.0502    2.0771   -0.6077 H   0  0  0  0  0  0  0  0  0  0  0  0
    2.5116   -2.1263    0.1677 H   0  0  0  0  0  0  0  0  0  0  0  0
    2.4914    2.0502   -0.7549 H   0  0  0  0  0  0  0  0  0  0  0  0
   -1.7637    1.9376    0.9197 H   0  0  0  0  0  0  0  0  0  0  0  0
   -5.3402    0.0529    0.2126 H   0  0  0  0  0  0  0  0  0  0  0  0
    4.5302   -1.0395   -0.6587 H   0  0  0  0  0  0  0  0  0  0  0  0
    4.5202    0.6605   -1.1262 H   0  0  0  0  0  0  0  0  0  0  0  0
    5.6250    0.3029    0.8840 H   0  0  0  0  0  0  0  0  0  0  0  0
   -1.9295   -1.9218   -0.9305 H   0  0  0  0  0  0  0  0  0  0  0  0
  4  2  2  0
  4 10  1  0
 11 10  1  0
 11 14  1  0
  2  8  1  0
 10  3  2  0
  5 12  2  0
  5  9  1  0
  8  9  1  0
  8  1  2  0
 12  7  1  0
  9  6  2  0
  3  1  1  0
  7 13  2  0
  6 13  1  0
  1 15  1  0
  2 16  1  0
  3 17  1  0
  4 18  1  0
  5 24  1  0
  6 19  1  0
  7 20  1  0
 11 21  1  0
 11 22  1  0
 14 23  1  0
M  END
