
     RDKit          3D

 39 40  0  0  0  0  0  0  0  0999 V2000
    1.3206    1.7139    1.0506 C   0  0  0  0  0  0  0  0  0  0  0  0
    2.7614    1.2653    0.9996 C   0  0  0  0  0  0  0  0  0  0  0  0
    3.1768    0.2748    0.1217 C   0  0  0  0  0  0  0  0  0  0  0  0
    4.5099   -0.1227    0.0697 C   0  0  0  0  0  0  0  0  0  0  0  0
    5.0390    1.4782    1.7780 C   0  0  0  0  0  0  0  0  0  0  0  0
    3.7064    1.8621    1.8291 C   0  0  0  0  0  0  0  0  0  0  0  0
   -0.4101    0.5440   -0.2584 C   0  0  0  0  0  0  0  0  0  0  0  0
   -0.4935    1.3977   -1.1256 O   0  0  0  0  0  0  0  0  0  0  0  0
   -1.1963   -0.7292   -0.3208 C   0  0  0  0  0  0  0  0  0  0  0  0
   -1.2297   -3.1422   -0.5542 C   0  0  0  0  0  0  0  0  0  0  0  0
   -2.5976   -0.7053   -0.3396 C   0  0  0  0  0  0  0  0  0  0  0  0
   -4.5703    0.5817   -0.1307 C   0  0  0  0  0  0  0  0  0  0  0  0
   -4.9257    2.0318    0.0910 C   0  0  0  0  0  0  0  0  0  0  0  0
    0.3901    0.6367    0.8188 N   0  0  0  0  0  0  0  0  0  0  0  0
    5.4475    0.4847    0.9021 C   0  0  0  0  0  0  0  0  0  0  0  0
   -0.5383   -1.9459   -0.4201 C   0  0  0  0  0  0  0  0  0  0  0  0
   -2.6053   -3.0796   -0.5710 C   0  0  0  0  0  0  0  0  0  0  0  0
   -3.3072   -4.2126   -0.6981 F   0  0  0  0  0  0  0  0  0  0  0  0
   -3.3100   -1.8934   -0.4615 C   0  0  0  0  0  0  0  0  0  0  0  0
   -3.1717    0.4998   -0.2063 O   0  0  0  0  0  0  0  0  0  0  0  0
   -6.2412    2.1725    0.1437 O   0  0  0  0  0  0  0  0  0  0  0  0
   -4.1342    2.9267    0.2039 O   0  0  0  0  0  0  0  0  0  0  0  0
    1.1135    2.1694    2.0209 H   0  0  0  0  0  0  0  0  0  0  0  0
    1.1442    2.4841    0.2993 H   0  0  0  0  0  0  0  0  0  0  0  0
    2.4611   -0.2034   -0.5345 H   0  0  0  0  0  0  0  0  0  0  0  0
    5.7596    1.9475    2.4341 H   0  0  0  0  0  0  0  0  0  0  0  0
    3.3981    2.6300    2.5286 H   0  0  0  0  0  0  0  0  0  0  0  0
   -0.7093   -4.0856   -0.6441 H   0  0  0  0  0  0  0  0  0  0  0  0
   -4.9710   -0.0100    0.7010 H   0  0  0  0  0  0  0  0  0  0  0  0
   -5.0541    0.2308   -1.0498 H   0  0  0  0  0  0  0  0  0  0  0  0
    0.3332   -0.0850    1.5208 H   0  0  0  0  0  0  0  0  0  0  0  0
    6.4866    0.1877    0.8823 H   0  0  0  0  0  0  0  0  0  0  0  0
    0.5442   -1.9730   -0.4092 H   0  0  0  0  0  0  0  0  0  0  0  0
   -4.3905   -1.9239   -0.4721 H   0  0  0  0  0  0  0  0  0  0  0  0
   -6.4752    3.1003    0.2955 H   0  0  0  0  0  0  0  0  0  0  0  0
    4.8720   -1.2060   -0.8788 C   0  0  0  0  0  0  0  0  0  0  0  0
    6.1687   -1.4845   -0.8775 O   0  0  0  0  0  0  0  0  0  0  0  0
    4.0727   -1.7780   -1.5805 O   0  0  0  0  0  0  0  0  0  0  0  0
    6.3530   -2.1983   -1.5061 H   0  0  0  0  0  0  0  0  0  0  0  0
 15  4  1  0
 15  5  2  0
  4  3  2  0
  5  6  1  0
  3  2  1  0
  6  2  2  0
  2  1  1  0
  1 14  1  0
 14  7  1  0
  8  7  2  0
  7  9  1  0
 16  9  1  0
 16 10  2  0
  9 11  2  0
 10 17  1  0
 22 13  2  0
 11 20  1  0
 11 19  1  0
 20 12  1  0
 17 19  2  0
 17 18  1  0
 13 12  1  0
 13 21  1  0
  1 23  1  0
  1 24  1  0
  3 25  1  0
  5 26  1  0
  6 27  1  0
 10 28  1  0
 12 29  1  0
 12 30  1  0
 14 31  1  0
 15 32  1  0
 16 33  1  0
 19 34  1  0
 21 35  1  0
  4 36  1  0
 36 37  1  0
 36 38  2  0
 37 39  1  0
M  END
