
     RDKit          3D

 81 85  0  0  0  0  0  0  0  0999 V2000
   -5.9336    2.8257   -2.4690 O   0  0  0  0  0  0  0  0  0  0  0  0
   -5.3139    3.2239   -1.5125 C   0  0  0  0  0  0  0  0  0  0  0  0
   -4.0601    3.6523   -1.5911 O   0  0  0  0  0  0  0  0  0  0  0  0
   -5.8845    3.3207   -0.1180 C   0  0  1  0  0  0  0  0  0  0  0  0
   -6.9589    4.4201   -0.1006 C   0  0  0  0  0  0  0  0  0  0  0  0
   -7.4179    4.7842    1.3042 C   0  0  0  0  0  0  0  0  0  0  0  0
   -6.4397    1.9552    0.3086 C   0  0  0  0  0  0  0  0  0  0  0  0
   -5.3964    0.8718    0.3059 C   0  0  0  0  0  0  0  0  0  0  0  0
   -5.3033   -0.0533   -0.7229 C   0  0  0  0  0  0  0  0  0  0  0  0
   -4.3204   -1.0382   -0.7287 C   0  0  0  0  0  0  0  0  0  0  0  0
   -3.4038   -1.1128    0.3137 C   0  0  0  0  0  0  0  0  0  0  0  0
   -2.4291   -2.0345    0.4011 O   0  0  0  0  0  0  0  0  0  0  0  0
   -2.1665   -2.8829   -0.7044 C   0  0  0  0  0  0  0  0  0  0  0  0
   -0.8611   -3.6051   -0.4456 C   0  0  0  0  0  0  0  0  0  0  0  0
   -0.5114   -4.5658   -1.5754 C   0  0  0  0  0  0  0  0  0  0  0  0
    0.8243   -5.2602   -1.3499 C   0  0  0  0  0  0  0  0  0  0  0  0
   -4.4645    0.7811    1.3404 C   0  0  0  0  0  0  0  0  0  0  0  0
   -3.4768   -0.1887    1.3690 C   0  0  0  0  0  0  0  0  0  0  0  0
   -2.5130   -0.2595    2.5221 C   0  0  0  0  0  0  0  0  0  0  0  0
   -1.1397   -0.0989    2.0995 N   0  0  0  0  0  0  0  0  0  0  0  0
   -0.1592   -0.9618    2.4099 C   0  0  0  0  0  0  0  0  0  0  0  0
   -0.2907   -1.8734    3.2167 O   0  0  0  0  0  0  0  0  0  0  0  0
    1.1447   -0.7275    1.7239 C   0  0  0  0  0  0  0  0  0  0  0  0
    1.2303   -0.3009    0.4003 C   0  0  0  0  0  0  0  0  0  0  0  0
    2.4647   -0.1360   -0.2045 C   0  0  0  0  0  0  0  0  0  0  0  0
    3.6570   -0.3647    0.4873 C   0  0  0  0  0  0  0  0  0  0  0  0
    3.5546   -0.7972    1.8090 C   0  0  0  0  0  0  0  0  0  0  0  0
    2.3215   -0.9926    2.4128 C   0  0  0  0  0  0  0  0  0  0  0  0
    4.9899   -0.1595   -0.2099 C   0  0  2  0  0  0  0  0  0  0  0  0
    6.1827   -0.2990    0.7487 C   0  0  0  0  0  0  0  0  0  0  0  0
    7.5059   -0.0867    0.0109 C   0  0  1  0  0  0  0  0  0  0  0  0
    7.6419   -1.1374   -1.0913 C   0  0  0  0  0  0  0  0  0  0  0  0
    7.5338    1.3136   -0.6001 C   0  0  0  0  0  0  0  0  0  0  0  0
    6.3725    1.4525   -1.5835 C   0  0  2  0  0  0  0  0  0  0  0  0
    5.0504    1.2474   -0.8407 C   0  0  0  0  0  0  0  0  0  0  0  0
    6.5021    0.4032   -2.6894 C   0  0  0  0  0  0  0  0  0  0  0  0
    6.4766   -0.9962   -2.0725 C   0  0  2  0  0  0  0  0  0  0  0  0
    5.1533   -1.2055   -1.3326 C   0  0  0  0  0  0  0  0  0  0  0  0
   -3.7517    3.6011   -2.5089 H   0  0  0  0  0  0  0  0  0  0  0  0
   -5.0834    3.6069    0.5697 H   0  0  0  0  0  0  0  0  0  0  0  0
   -6.5623    5.3183   -0.5816 H   0  0  0  0  0  0  0  0  0  0  0  0
   -7.8114    4.0968   -0.7038 H   0  0  0  0  0  0  0  0  0  0  0  0
   -8.1606    5.5811    1.2690 H   0  0  0  0  0  0  0  0  0  0  0  0
   -7.8714    3.9396    1.8225 H   0  0  0  0  0  0  0  0  0  0  0  0
   -6.5823    5.1366    1.9110 H   0  0  0  0  0  0  0  0  0  0  0  0
   -6.8597    2.0518    1.3121 H   0  0  0  0  0  0  0  0  0  0  0  0
   -7.2685    1.6819   -0.3486 H   0  0  0  0  0  0  0  0  0  0  0  0
   -6.0112   -0.0224   -1.5421 H   0  0  0  0  0  0  0  0  0  0  0  0
   -4.2972   -1.7441   -1.5479 H   0  0  0  0  0  0  0  0  0  0  0  0
   -2.9861   -3.5995   -0.8371 H   0  0  0  0  0  0  0  0  0  0  0  0
   -2.0924   -2.2943   -1.6260 H   0  0  0  0  0  0  0  0  0  0  0  0
   -0.0618   -2.8665   -0.3314 H   0  0  0  0  0  0  0  0  0  0  0  0
   -0.9224   -4.1543    0.4984 H   0  0  0  0  0  0  0  0  0  0  0  0
   -1.3012   -5.3162   -1.6761 H   0  0  0  0  0  0  0  0  0  0  0  0
   -0.4847   -4.0218   -2.5244 H   0  0  0  0  0  0  0  0  0  0  0  0
    1.0517   -5.9557   -2.1583 H   0  0  0  0  0  0  0  0  0  0  0  0
    1.6408   -4.5382   -1.2943 H   0  0  0  0  0  0  0  0  0  0  0  0
    0.8211   -5.8272   -0.4172 H   0  0  0  0  0  0  0  0  0  0  0  0
   -4.5103    1.4922    2.1593 H   0  0  0  0  0  0  0  0  0  0  0  0
   -2.7723    0.5119    3.2521 H   0  0  0  0  0  0  0  0  0  0  0  0
   -2.5912   -1.2163    3.0381 H   0  0  0  0  0  0  0  0  0  0  0  0
   -0.9343    0.6733    1.4861 H   0  0  0  0  0  0  0  0  0  0  0  0
    0.3327   -0.1226   -0.1799 H   0  0  0  0  0  0  0  0  0  0  0  0
    2.4932    0.1771   -1.2405 H   0  0  0  0  0  0  0  0  0  0  0  0
    4.4431   -0.9925    2.3930 H   0  0  0  0  0  0  0  0  0  0  0  0
    2.2803   -1.3391    3.4374 H   0  0  0  0  0  0  0  0  0  0  0  0
    6.0928    0.4264    1.5653 H   0  0  0  0  0  0  0  0  0  0  0  0
    6.1863   -1.2934    1.2068 H   0  0  0  0  0  0  0  0  0  0  0  0
    8.3276   -0.1941    0.7253 H   0  0  0  0  0  0  0  0  0  0  0  0
    8.5948   -1.0168   -1.6169 H   0  0  0  0  0  0  0  0  0  0  0  0
    7.6456   -2.1404   -0.6525 H   0  0  0  0  0  0  0  0  0  0  0  0
    7.4467    2.0672    0.1892 H   0  0  0  0  0  0  0  0  0  0  0  0
    8.4887    1.4910   -1.1050 H   0  0  0  0  0  0  0  0  0  0  0  0
    6.3792    2.4539   -2.0247 H   0  0  0  0  0  0  0  0  0  0  0  0
    4.2213    1.3904   -1.5406 H   0  0  0  0  0  0  0  0  0  0  0  0
    4.9342    2.0047   -0.0575 H   0  0  0  0  0  0  0  0  0  0  0  0
    5.6849    0.5140   -3.4098 H   0  0  0  0  0  0  0  0  0  0  0  0
    7.4335    0.5497   -3.2458 H   0  0  0  0  0  0  0  0  0  0  0  0
    6.5647   -1.7488   -2.8619 H   0  0  0  0  0  0  0  0  0  0  0  0
    5.1148   -2.2121   -0.9031 H   0  0  0  0  0  0  0  0  0  0  0  0
    4.3173   -1.1315   -2.0349 H   0  0  0  0  0  0  0  0  0  0  0  0
  1  2  2  0
  2  3  1  0
  2  4  1  0
  6  5  1  0
  5  4  1  0
  4  7  1  0
  7  8  1  0
  9 10  1  0
  9  8  2  0
 10 11  2  0
  8 17  1  0
 13 12  1  0
 13 14  1  0
 15 14  1  0
 15 16  1  0
 11 12  1  0
 11 18  1  0
 17 18  2  0
 18 19  1  0
 19 20  1  0
 20 21  1  0
 21 22  2  0
 21 23  1  0
 23 28  1  0
 23 24  2  0
 28 27  2  0
 24 25  1  0
 27 26  1  0
 38 37  1  0
 38 29  1  0
 25 26  2  0
 29 26  1  1
 37 32  1  0
 37 36  1  0
 29 30  1  0
 29 35  1  0
 32 31  1  0
 36 34  1  0
 30 31  1  0
 35 34  1  0
 31 33  1  0
 34 33  1  0
  3 39  1  0
  4 40  1  1
  5 41  1  0
  5 42  1  0
  6 43  1  0
  6 44  1  0
  6 45  1  0
  7 46  1  0
  7 47  1  0
  9 48  1  0
 10 49  1  0
 13 50  1  0
 13 51  1  0
 14 52  1  0
 14 53  1  0
 15 54  1  0
 15 55  1  0
 16 56  1  0
 16 57  1  0
 16 58  1  0
 17 59  1  0
 19 60  1  0
 19 61  1  0
 20 62  1  0
 24 63  1  0
 25 64  1  0
 27 65  1  0
 28 66  1  0
 30 67  1  0
 30 68  1  0
 31 69  1  1
 32 70  1  0
 32 71  1  0
 33 72  1  0
 33 73  1  0
 34 74  1  6
 35 75  1  0
 35 76  1  0
 36 77  1  0
 36 78  1  0
 37 79  1  6
 38 80  1  0
 38 81  1  0
M  END
