
     RDKit          3D

 30 31  0  0  0  0  0  0  0  0999 V2000
   -3.4708   -1.5553    0.4142 C   0  0  0  0  0  0  0  0  0  0  0  0
   -1.7878   -0.0770   -0.0306 C   0  0  0  0  0  0  0  0  0  0  0  0
    0.4674   -0.9789   -0.4272 C   0  0  0  0  0  0  0  0  0  0  0  0
   -0.4302    0.1481   -0.2063 N   0  0  0  0  0  0  0  0  0  0  0  0
    1.9003   -0.5240   -0.3666 C   0  0  0  0  0  0  0  0  0  0  0  0
    2.8113   -0.9044   -1.3446 C   0  0  0  0  0  0  0  0  0  0  0  0
    4.1528   -0.5568   -1.2608 C   0  0  0  0  0  0  0  0  0  0  0  0
    4.5908    0.1951   -0.1793 C   0  0  0  0  0  0  0  0  0  0  0  0
    3.6971    0.6042    0.7995 C   0  0  0  0  0  0  0  0  0  0  0  0
    2.3536    0.2503    0.7115 C   0  0  0  0  0  0  0  0  0  0  0  0
    1.5177    0.6571    1.6883 O   0  0  0  0  0  0  0  0  0  0  0  0
   -2.6756    1.0205   -0.0548 C   0  0  0  0  0  0  0  0  0  0  0  0
   -2.1820    2.4135   -0.2954 C   0  0  0  0  0  0  0  0  0  0  0  0
   -2.1787   -1.3198    0.1941 N   0  0  0  0  0  0  0  0  0  0  0  0
   -4.4307   -0.5664    0.4061 C   0  0  0  0  0  0  0  0  0  0  0  0
   -4.0096    0.7401    0.1648 C   0  0  0  0  0  0  0  0  0  0  0  0
   -3.7427   -2.5886    0.5989 H   0  0  0  0  0  0  0  0  0  0  0  0
    0.2781   -1.7165    0.3545 H   0  0  0  0  0  0  0  0  0  0  0  0
    0.2698   -1.4776   -1.3811 H   0  0  0  0  0  0  0  0  0  0  0  0
   -0.2249    0.9286   -0.8162 H   0  0  0  0  0  0  0  0  0  0  0  0
    2.4604   -1.4912   -2.1858 H   0  0  0  0  0  0  0  0  0  0  0  0
    4.8457   -0.8686   -2.0308 H   0  0  0  0  0  0  0  0  0  0  0  0
    5.6329    0.4765   -0.0977 H   0  0  0  0  0  0  0  0  0  0  0  0
    4.0351    1.1994    1.6389 H   0  0  0  0  0  0  0  0  0  0  0  0
    0.6028    0.5998    1.3492 H   0  0  0  0  0  0  0  0  0  0  0  0
   -1.7423    2.5260   -1.2901 H   0  0  0  0  0  0  0  0  0  0  0  0
   -2.9958    3.1320   -0.2188 H   0  0  0  0  0  0  0  0  0  0  0  0
   -1.4156    2.6992    0.4284 H   0  0  0  0  0  0  0  0  0  0  0  0
   -5.4712   -0.8007    0.5813 H   0  0  0  0  0  0  0  0  0  0  0  0
   -4.7307    1.5485    0.1542 H   0  0  0  0  0  0  0  0  0  0  0  0
  7  6  2  0
  7  8  1  0
  6  5  1  0
 13 12  1  0
  8  9  2  0
  4  3  1  0
  4  2  1  0
  5  3  1  0
  5 10  2  0
 12  2  2  0
 12 16  1  0
  2 14  1  0
  9 10  1  0
 10 11  1  0
 16 15  2  0
 14  1  2  0
 15  1  1  0
  1 17  1  0
  3 18  1  0
  3 19  1  0
  4 20  1  0
  6 21  1  0
  7 22  1  0
  8 23  1  0
  9 24  1  0
 11 25  1  0
 13 26  1  0
 13 27  1  0
 13 28  1  0
 15 29  1  0
 16 30  1  0
M  END
