
     RDKit          3D

 30 32  0  0  0  0  0  0  0  0999 V2000
   -4.6928    1.7865   -0.0405 Br  0  0  0  0  0  0  0  0  0  0  0  0
   -2.8062    1.7553   -0.0373 C   0  0  0  0  0  0  0  0  0  0  0  0
   -2.1115    2.9579   -0.0421 C   0  0  0  0  0  0  0  0  0  0  0  0
   -0.7212    2.9517   -0.0394 C   0  0  0  0  0  0  0  0  0  0  0  0
   -0.0551    1.7408   -0.0326 C   0  0  0  0  0  0  0  0  0  0  0  0
    1.3775    1.4470   -0.0291 C   0  0  0  0  0  0  0  0  0  0  0  0
   -2.1578    0.5240   -0.0302 C   0  0  0  0  0  0  0  0  0  0  0  0
   -0.7712    0.5308   -0.0280 C   0  0  0  0  0  0  0  0  0  0  0  0
    0.2110   -0.5676   -0.0210 C   0  0  0  0  0  0  0  0  0  0  0  0
    0.0801   -1.8349   -0.0138 N   0  0  0  0  0  0  0  0  0  0  0  0
   -1.2064   -2.2293   -0.0139 O   0  0  0  0  0  0  0  0  0  0  0  0
   -1.3023   -3.6348   -0.0024 C   0  0  0  0  0  0  0  0  0  0  0  0
   -2.7723   -3.9712   -0.0034 C   0  0  0  0  0  0  0  0  0  0  0  0
   -2.9435   -5.2829    0.0076 O   0  0  0  0  0  0  0  0  0  0  0  0
   -3.6608   -3.1623   -0.0130 O   0  0  0  0  0  0  0  0  0  0  0  0
    1.5417    0.0580   -0.0223 C   0  0  0  0  0  0  0  0  0  0  0  0
    2.7946   -0.5250   -0.0179 C   0  0  0  0  0  0  0  0  0  0  0  0
    3.8927    0.3271   -0.0201 C   0  0  0  0  0  0  0  0  0  0  0  0
    5.6262   -0.4172   -0.0140 Br  0  0  0  0  0  0  0  0  0  0  0  0
    3.7515    1.7113   -0.0265 C   0  0  0  0  0  0  0  0  0  0  0  0
    2.4829    2.2794   -0.0313 C   0  0  0  0  0  0  0  0  0  0  0  0
   -2.6401    3.9016   -0.0478 H   0  0  0  0  0  0  0  0  0  0  0  0
   -0.1840    3.8910   -0.0431 H   0  0  0  0  0  0  0  0  0  0  0  0
   -2.7225   -0.3964   -0.0266 H   0  0  0  0  0  0  0  0  0  0  0  0
   -0.8237   -4.0766   -0.8824 H   0  0  0  0  0  0  0  0  0  0  0  0
   -0.8285   -4.0617    0.8876 H   0  0  0  0  0  0  0  0  0  0  0  0
   -3.8884   -5.5003    0.0058 H   0  0  0  0  0  0  0  0  0  0  0  0
    2.9099   -1.6008   -0.0130 H   0  0  0  0  0  0  0  0  0  0  0  0
    4.6216    2.3535   -0.0275 H   0  0  0  0  0  0  0  0  0  0  0  0
    2.3816    3.3569   -0.0363 H   0  0  0  0  0  0  0  0  0  0  0  0
 15 13  2  0
 14 13  1  0
 13 12  1  0
 12 11  1  0
 11 10  1  0
 10  9  2  0
  9 16  1  0
  9  8  1  0
 17 16  1  0
 17 18  2  0
  7  8  1  0
  7  2  2  0
 16  6  2  0
  8  5  2  0
 19 18  1  0
 18 20  1  0
  1  2  1  0
  2  3  1  0
  6  5  1  0
  6 21  1  0
  5  4  1  0
 20 21  2  0
  3  4  2  0
  3 22  1  0
  4 23  1  0
  7 24  1  0
 12 25  1  0
 12 26  1  0
 14 27  1  0
 17 28  1  0
 20 29  1  0
 21 30  1  0
M  END
