
     RDKit          3D

 22 22  0  0  0  0  0  0  0  0999 V2000
    1.6922   -0.2094    2.6417 N   0  0  0  0  0  0  0  0  0  0  0  0
    0.5394    0.6539    2.4443 C   0  0  0  0  0  0  0  0  0  0  0  0
   -0.2083    0.3157    1.1787 C   0  0  0  0  0  0  0  0  0  0  0  0
    0.4747    0.0231    0.0014 C   0  0  0  0  0  0  0  0  0  0  0  0
   -1.6011    0.3121    1.1652 C   0  0  0  0  0  0  0  0  0  0  0  0
   -0.2048   -0.2663   -1.1789 C   0  0  0  0  0  0  0  0  0  0  0  0
   -2.2920    0.0303   -0.0047 C   0  0  0  0  0  0  0  0  0  0  0  0
   -1.5971   -0.2552   -1.1716 C   0  0  0  0  0  0  0  0  0  0  0  0
    0.5472   -0.6087   -2.4409 C   0  0  0  0  0  0  0  0  0  0  0  0
    1.7024    0.2519   -2.6355 N   0  0  0  0  0  0  0  0  0  0  0  0
    2.1996    0.0969    3.4619 H   0  0  0  0  0  0  0  0  0  0  0  0
    1.3761   -1.1495    2.8450 H   0  0  0  0  0  0  0  0  0  0  0  0
   -0.1711    0.6454    3.2818 H   0  0  0  0  0  0  0  0  0  0  0  0
    0.9043    1.6831    2.3726 H   0  0  0  0  0  0  0  0  0  0  0  0
    1.5573    0.0203    0.0037 H   0  0  0  0  0  0  0  0  0  0  0  0
   -2.1476    0.5313    2.0754 H   0  0  0  0  0  0  0  0  0  0  0  0
   -3.3747    0.0333   -0.0071 H   0  0  0  0  0  0  0  0  0  0  0  0
   -2.1408   -0.4723   -2.0840 H   0  0  0  0  0  0  0  0  0  0  0  0
    0.9097   -1.6385   -2.3660 H   0  0  0  0  0  0  0  0  0  0  0  0
   -0.1602   -0.6003   -3.2810 H   0  0  0  0  0  0  0  0  0  0  0  0
    2.2207   -0.0655   -3.4445 H   0  0  0  0  0  0  0  0  0  0  0  0
    1.3896    1.1893   -2.8550 H   0  0  0  0  0  0  0  0  0  0  0  0
  1  2  1  0
  1 11  1  0
  1 12  1  0
  2  3  1  0
  2 13  1  0
  2 14  1  0
  3  4  2  0
  3  5  1  0
  4  6  1  0
  4 15  1  0
  5  7  2  0
  5 16  1  0
  6  8  2  0
  6  9  1  0
  7  8  1  0
  7 17  1  0
  8 18  1  0
  9 10  1  0
  9 19  1  0
  9 20  1  0
 10 21  1  0
 10 22  1  0
M  END
