
     RDKit          3D

 24 26  0  0  0  0  0  0  0  0999 V2000
   -1.4483   -2.7894   -0.0007 O   0  0  0  0  0  0  0  0  0  0  0  0
    3.6400    0.1891   -0.0317 C   0  0  0  0  0  0  0  0  0  0  0  0
   -3.3841    0.9321    0.0195 C   0  0  0  0  0  0  0  0  0  0  0  0
    3.1230    1.4840   -0.0234 C   0  0  0  0  0  0  0  0  0  0  0  0
   -2.5942    2.0817    0.0153 C   0  0  0  0  0  0  0  0  0  0  0  0
    2.7895   -0.8964   -0.0285 C   0  0  0  0  0  0  0  0  0  0  0  0
   -2.7789   -0.3061    0.0133 C   0  0  0  0  0  0  0  0  0  0  0  0
    1.7568    1.6776   -0.0130 C   0  0  0  0  0  0  0  0  0  0  0  0
   -1.2181    1.9869    0.0055 C   0  0  0  0  0  0  0  0  0  0  0  0
    0.5672   -1.7894   -0.0138 N   0  0  0  0  0  0  0  0  0  0  0  0
   -0.7913   -1.7583   -0.0036 C   0  0  0  0  0  0  0  0  0  0  0  0
    1.4076   -0.6964   -0.0174 C   0  0  0  0  0  0  0  0  0  0  0  0
   -1.3862   -0.4125    0.0033 C   0  0  0  0  0  0  0  0  0  0  0  0
    0.8679    0.5960   -0.0099 C   0  0  0  0  0  0  0  0  0  0  0  0
   -0.5821    0.7381   -0.0002 C   0  0  0  0  0  0  0  0  0  0  0  0
   -4.4627    1.0117    0.0273 H   0  0  0  0  0  0  0  0  0  0  0  0
    3.7891    2.3357   -0.0259 H   0  0  0  0  0  0  0  0  0  0  0  0
   -3.0606    3.0582    0.0204 H   0  0  0  0  0  0  0  0  0  0  0  0
    3.1853   -1.9048   -0.0355 H   0  0  0  0  0  0  0  0  0  0  0  0
   -3.3805   -1.2047    0.0159 H   0  0  0  0  0  0  0  0  0  0  0  0
    1.3770    2.6901   -0.0059 H   0  0  0  0  0  0  0  0  0  0  0  0
   -0.6348    2.8973    0.0020 H   0  0  0  0  0  0  0  0  0  0  0  0
    0.9913   -2.7078   -0.0191 H   0  0  0  0  0  0  0  0  0  0  0  0
    4.7100    0.0304   -0.0406 H   0  0  0  0  0  0  0  0  0  0  0  0
 11  1  2  0
  4  2  2  0
  2  6  1  0
  2 24  1  0
  5  3  2  0
  3  7  1  0
  3 16  1  0
  4  8  1  0
  4 17  1  0
  9  5  1  0
  5 18  1  0
  6 12  2  0
  6 19  1  0
 13  7  2  0
  7 20  1  0
  8 14  2  0
  8 21  1  0
  9 15  2  0
  9 22  1  0
 12 10  1  0
 10 11  1  0
 10 23  1  0
 13 11  1  0
 14 12  1  0
 15 13  1  0
 14 15  1  0
M  END
