
     RDKit          3D

 50 54  0  0  0  0  0  0  0  0999 V2000
    0.6078   -1.5883   -0.3932 C   0  0  0  0  0  0  0  0  0  0  0  0
    0.4374   -0.1778   -0.4187 C   0  0  0  0  0  0  0  0  0  0  0  0
    1.7434    0.3173   -0.3304 C   0  0  0  0  0  0  0  0  0  0  0  0
    3.9531   -0.7561   -0.1534 C   0  0  0  0  0  0  0  0  0  0  0  0
    4.7339   -0.0097   -1.0252 C   0  0  0  0  0  0  0  0  0  0  0  0
    6.1142   -0.0315   -0.8837 C   0  0  0  0  0  0  0  0  0  0  0  0
    6.7054   -0.8007    0.1090 C   0  0  0  0  0  0  0  0  0  0  0  0
    5.9129   -1.5529    0.9672 C   0  0  0  0  0  0  0  0  0  0  0  0
    4.5325   -1.5314    0.8425 C   0  0  0  0  0  0  0  0  0  0  0  0
   -0.9447    1.8534   -0.4586 C   0  0  0  0  0  0  0  0  0  0  0  0
   -1.2926    2.5470    0.6971 C   0  0  0  0  0  0  0  0  0  0  0  0
   -1.2922    3.9304    0.7347 C   0  0  0  0  0  0  0  0  0  0  0  0
   -0.9330    4.6450   -0.4002 C   0  0  0  0  0  0  0  0  0  0  0  0
   -0.5708    3.9751   -1.5582 C   0  0  0  0  0  0  0  0  0  0  0  0
   -0.5708    2.5865   -1.5823 C   0  0  0  0  0  0  0  0  0  0  0  0
   -1.6184   -1.9342   -0.5181 C   0  0  0  0  0  0  0  0  0  0  0  0
   -0.8425    0.3766   -0.4825 C   0  0  0  0  0  0  0  0  0  0  0  0
   -1.8959   -0.5194   -0.5503 C   0  0  0  0  0  0  0  0  0  0  0  0
   -3.2915   -0.0376   -0.6356 C   0  0  0  0  0  0  0  0  0  0  0  0
   -4.3968   -1.0629   -0.6387 C   0  0  0  0  0  0  0  0  0  0  0  0
   -4.0434   -2.3767    0.0537 C   0  0  1  0  0  0  0  0  0  0  0  0
   -2.7619   -2.9020   -0.5907 C   0  0  0  0  0  0  0  0  0  0  0  0
   -0.4237   -2.4544   -0.4379 N   0  0  0  0  0  0  0  0  0  0  0  0
    2.5415   -0.7529   -0.2781 N   0  0  0  0  0  0  0  0  0  0  0  0
    1.8745   -1.9373   -0.3036 N   0  0  0  0  0  0  0  0  0  0  0  0
   -3.5467    1.1464   -0.7306 O   0  0  0  0  0  0  0  0  0  0  0  0
    2.2448    1.5346   -0.2667 O   0  0  0  0  0  0  0  0  0  0  0  0
   -1.7343    1.6651    2.1180 Cl  0  0  0  0  0  0  0  0  0  0  0  0
    4.2795    0.5690   -1.8179 H   0  0  0  0  0  0  0  0  0  0  0  0
    6.7270    0.5474   -1.5613 H   0  0  0  0  0  0  0  0  0  0  0  0
    7.7822   -0.8174    0.2127 H   0  0  0  0  0  0  0  0  0  0  0  0
    6.3696   -2.1531    1.7428 H   0  0  0  0  0  0  0  0  0  0  0  0
    3.9090   -2.1074    1.5127 H   0  0  0  0  0  0  0  0  0  0  0  0
   -4.7677   -1.8019    2.0176 H   0  0  0  0  0  0  0  0  0  0  0  0
   -3.5547   -3.0811    2.0498 H   0  0  0  0  0  0  0  0  0  0  0  0
   -3.0702   -1.4116    1.7733 H   0  0  0  0  0  0  0  0  0  0  0  0
   -6.1000   -3.0350    0.2849 H   0  0  0  0  0  0  0  0  0  0  0  0
   -5.3446   -3.5736   -1.2162 H   0  0  0  0  0  0  0  0  0  0  0  0
   -4.9169   -4.3432    0.3134 H   0  0  0  0  0  0  0  0  0  0  0  0
   -1.5665    4.4481    1.6437 H   0  0  0  0  0  0  0  0  0  0  0  0
   -0.9307    5.7260   -0.3693 H   0  0  0  0  0  0  0  0  0  0  0  0
   -0.2832    4.5262   -2.4430 H   0  0  0  0  0  0  0  0  0  0  0  0
   -0.2895    2.0615   -2.4868 H   0  0  0  0  0  0  0  0  0  0  0  0
   -5.2895   -0.6078   -0.2021 H   0  0  0  0  0  0  0  0  0  0  0  0
   -4.6347   -1.2591   -1.6925 H   0  0  0  0  0  0  0  0  0  0  0  0
   -2.9584   -3.1197   -1.6479 H   0  0  0  0  0  0  0  0  0  0  0  0
   -2.4511   -3.8425   -0.1321 H   0  0  0  0  0  0  0  0  0  0  0  0
    1.5500    2.1980   -0.3859 H   0  0  0  0  0  0  0  0  0  0  0  0
   -3.8431   -2.1518    1.5546 C   0  0  0  0  0  0  0  0  0  0  0  0
   -5.1657   -3.3887   -0.1552 C   0  0  0  0  0  0  0  0  0  0  0  0
 13 12  1  0
 13 14  2  0
 12 11  2  0
 14 15  1  0
 11 28  1  0
 11 10  1  0
 27  3  1  0
  6  5  2  0
  6  7  1  0
 15 10  2  0
  5  4  1  0
  7  8  2  0
 10 17  1  0
  3 24  1  0
  3  2  2  0
  4 24  1  0
  4  9  2  0
  8  9  1  0
 24 25  1  0
 17  2  1  0
 17 18  2  0
  2  1  1  0
 26 19  2  0
 18 19  1  0
 18 16  1  0
 19 20  1  0
 25  1  2  0
  1 23  1  0
 16 23  2  0
 16 22  1  0
 20 21  1  0
 21 49  1  1
 21 22  1  0
 21 50  1  0
  5 29  1  0
  6 30  1  0
  7 31  1  0
  8 32  1  0
  9 33  1  0
 49 34  1  0
 49 35  1  0
 49 36  1  0
 50 37  1  0
 50 38  1  0
 50 39  1  0
 12 40  1  0
 13 41  1  0
 14 42  1  0
 15 43  1  0
 20 44  1  0
 20 45  1  0
 22 46  1  0
 22 47  1  0
 27 48  1  0
M  END
