
     RDKit          3D

 22 21  0  0  0  0  0  0  0  0999 V2000
   -3.1154   -0.1642   -0.2474 C   0  0  0  0  0  0  0  0  0  0  0  0
   -2.0250   -0.7489    1.9086 N   0  0  0  0  0  0  0  0  0  0  0  0
   -3.9072   -1.1056   -0.3448 O   0  0  0  0  0  0  0  0  0  0  0  0
   -1.8856   -0.0591    0.6500 C   0  0  1  0  0  0  0  0  0  0  0  0
   -0.6712   -0.5355   -0.1649 C   0  0  0  0  0  0  0  0  0  0  0  0
    0.6331    0.0429    0.3489 C   0  0  1  0  0  0  0  0  0  0  0  0
    1.9108   -1.6142   -0.9689 F   0  0  0  0  0  0  0  0  0  0  0  0
    3.0066   -0.5594    0.5893 F   0  0  0  0  0  0  0  0  0  0  0  0
    1.5581   -2.0844    1.1230 F   0  0  0  0  0  0  0  0  0  0  0  0
    0.1273    2.3444   -0.3279 F   0  0  0  0  0  0  0  0  0  0  0  0
    2.2185    1.8864    0.0042 F   0  0  0  0  0  0  0  0  0  0  0  0
    1.2180    1.1551   -1.7831 F   0  0  0  0  0  0  0  0  0  0  0  0
    1.7636   -1.0346    0.2638 C   0  0  1  0  0  0  0  0  0  0  0  0
    1.0458    1.3309   -0.4353 C   0  0  1  0  0  0  0  0  0  0  0  0
   -3.3412    0.9275   -1.0229 O   0  0  0  0  0  0  0  0  0  0  0  0
   -2.7006   -0.2923    2.4892 H   0  0  0  0  0  0  0  0  0  0  0  0
   -2.2948   -1.7044    1.7739 H   0  0  0  0  0  0  0  0  0  0  0  0
   -1.7524    1.0453    0.8752 H   0  0  0  0  0  0  0  0  0  0  0  0
   -0.6127   -1.6576   -0.1352 H   0  0  0  0  0  0  0  0  0  0  0  0
   -0.8247   -0.2317   -1.2371 H   0  0  0  0  0  0  0  0  0  0  0  0
    0.5514    0.3364    1.4340 H   0  0  0  0  0  0  0  0  0  0  0  0
   -4.1373    0.7880   -1.5645 H   0  0  0  0  0  0  0  0  0  0  0  0
  1  3  2  0
  1  4  1  0
  1 15  1  0
  2  4  1  0
  2 16  1  0
  2 17  1  0
  4  5  1  0
  4 18  1  1
  5  6  1  0
  5 19  1  0
  5 20  1  0
  6 13  1  0
  6 14  1  0
  6 21  1  1
 13  7  1  6
  8 13  1  0
  9 13  1  0
 14 10  1  6
 11 14  1  0
 12 14  1  0
 15 22  1  0
M  END
