
     RDKit          3D

 32 33  0  0  0  0  0  0  0  0999 V2000
    4.8661   -0.0329   -1.3859 C   0  0  0  0  0  0  0  0  0  0  0  0
    4.4477    0.4910   -0.0180 C   0  0  1  0  0  0  0  0  0  0  0  0
    5.3561    1.6106    0.4634 C   0  0  0  0  0  0  0  0  0  0  0  0
    3.0714    0.9779   -0.0386 N   0  0  0  0  0  0  0  0  0  0  0  0
    2.0131    0.1848    0.0600 C   0  0  0  0  0  0  0  0  0  0  0  0
    2.0888   -1.1046    0.2832 N   0  0  0  0  0  0  0  0  0  0  0  0
    0.8595   -1.6589    0.3624 C   0  0  0  0  0  0  0  0  0  0  0  0
   -0.2321   -0.7837    0.2065 C   0  0  0  0  0  0  0  0  0  0  0  0
    0.4024    0.8351   -0.0820 S   0  0  0  0  0  0  0  0  0  0  0  0
    0.7539   -2.9664    0.5798 N   0  0  0  0  0  0  0  0  0  0  0  0
   -1.5971   -1.1505    0.2010 C   0  0  0  0  0  0  0  0  0  0  0  0
   -2.6259   -0.0759    0.0600 C   0  0  0  0  0  0  0  0  0  0  0  0
   -2.6314    1.0751    0.8398 C   0  0  0  0  0  0  0  0  0  0  0  0
   -3.6541    1.9948    0.6706 C   0  0  0  0  0  0  0  0  0  0  0  0
   -4.6298    1.7322   -0.2780 C   0  0  0  0  0  0  0  0  0  0  0  0
   -4.6423    0.6329   -1.0252 N   0  0  0  0  0  0  0  0  0  0  0  0
   -3.6704   -0.2492   -0.8464 C   0  0  0  0  0  0  0  0  0  0  0  0
   -1.9785   -2.3253    0.2875 O   0  0  0  0  0  0  0  0  0  0  0  0
    5.8890   -0.4092   -1.3485 H   0  0  0  0  0  0  0  0  0  0  0  0
    4.2209   -0.8485   -1.7119 H   0  0  0  0  0  0  0  0  0  0  0  0
    4.8241    0.7599   -2.1344 H   0  0  0  0  0  0  0  0  0  0  0  0
    4.4839   -0.3274    0.7024 H   0  0  0  0  0  0  0  0  0  0  0  0
    5.3487    2.4535   -0.2313 H   0  0  0  0  0  0  0  0  0  0  0  0
    5.0576    1.9718    1.4475 H   0  0  0  0  0  0  0  0  0  0  0  0
    6.3817    1.2500    0.5322 H   0  0  0  0  0  0  0  0  0  0  0  0
    2.9251    1.9468   -0.2776 H   0  0  0  0  0  0  0  0  0  0  0  0
    1.5801   -3.5274    0.6915 H   0  0  0  0  0  0  0  0  0  0  0  0
   -0.1553   -3.3957    0.6160 H   0  0  0  0  0  0  0  0  0  0  0  0
   -1.8668    1.2442    1.5880 H   0  0  0  0  0  0  0  0  0  0  0  0
   -3.6985    2.8965    1.2651 H   0  0  0  0  0  0  0  0  0  0  0  0
   -5.4383    2.4368   -0.4375 H   0  0  0  0  0  0  0  0  0  0  0  0
   -3.7066   -1.1406   -1.4634 H   0  0  0  0  0  0  0  0  0  0  0  0
  1  2  1  0
  2  3  1  0
  2  4  1  0
  4  5  1  0
  5  6  2  0
  5  9  1  0
  6  7  1  0
  7  8  2  0
  7 10  1  0
  8  9  1  0
  8 11  1  0
 11 12  1  0
 11 18  2  0
 12 13  2  0
 12 17  1  0
 13 14  1  0
 14 15  2  0
 15 16  1  0
 16 17  2  0
  1 19  1  0
  1 20  1  0
  1 21  1  0
  2 22  1  1
  3 23  1  0
  3 24  1  0
  3 25  1  0
  4 26  1  0
 10 27  1  0
 10 28  1  0
 13 29  1  0
 14 30  1  0
 15 31  1  0
 17 32  1  0
M  END
