
     RDKit          3D

 53 52  0  0  0  0  0  0  0  0999 V2000
  -10.0430   -0.6487   -0.0017 O   0  0  0  0  0  0  0  0  0  0  0  0
   -8.9852    0.1591    0.0017 C   0  0  0  0  0  0  0  0  0  0  0  0
   -9.0806    1.3613    0.0101 O   0  0  0  0  0  0  0  0  0  0  0  0
   -7.6944   -0.6114   -0.0040 C   0  0  0  0  0  0  0  0  0  0  0  0
   -6.4517    0.2635   -0.0041 C   0  0  0  0  0  0  0  0  0  0  0  0
   -5.1752   -0.5686   -0.0097 C   0  0  0  0  0  0  0  0  0  0  0  0
   -3.9125    0.2837   -0.0079 C   0  0  0  0  0  0  0  0  0  0  0  0
   -2.6324   -0.5426   -0.0121 C   0  0  0  0  0  0  0  0  0  0  0  0
   -1.3680    0.3077   -0.0190 C   0  0  0  0  0  0  0  0  0  0  0  0
   -0.0876   -0.5183   -0.0184 C   0  0  0  0  0  0  0  0  0  0  0  0
    1.1770    0.3318   -0.0239 C   0  0  0  0  0  0  0  0  0  0  0  0
    3.7217    0.3576   -0.0280 C   0  0  0  0  0  0  0  0  0  0  0  0
    5.0038   -0.4657   -0.0250 C   0  0  0  0  0  0  0  0  0  0  0  0
    6.2659    0.3880   -0.0272 C   0  0  0  0  0  0  0  0  0  0  0  0
    7.5499   -0.4324   -0.0234 C   0  0  0  0  0  0  0  0  0  0  0  0
    8.8096    0.4247   -0.0268 C   0  0  0  0  0  0  0  0  0  0  0  0
   10.0973   -0.3904   -0.0233 C   0  0  0  0  0  0  0  0  0  0  0  0
   11.3452    0.4820   -0.0219 C   0  0  0  0  0  0  0  0  0  0  0  0
    2.4578   -0.4936   -0.0247 C   0  0  0  0  0  0  0  0  0  0  0  0
  -10.8580   -0.1251    0.0051 H   0  0  0  0  0  0  0  0  0  0  0  0
   -7.6943   -1.2777    0.8650 H   0  0  0  0  0  0  0  0  0  0  0  0
   -7.6976   -1.2734   -0.8762 H   0  0  0  0  0  0  0  0  0  0  0  0
   -6.4599    0.9212   -0.8777 H   0  0  0  0  0  0  0  0  0  0  0  0
   -6.4561    0.9149    0.8741 H   0  0  0  0  0  0  0  0  0  0  0  0
   -5.1668   -1.2313    0.8628 H   0  0  0  0  0  0  0  0  0  0  0  0
   -5.1697   -1.2237   -0.8881 H   0  0  0  0  0  0  0  0  0  0  0  0
   -3.9203    0.9462   -0.8806 H   0  0  0  0  0  0  0  0  0  0  0  0
   -3.9184    0.9391    0.8702 H   0  0  0  0  0  0  0  0  0  0  0  0
   -2.6225   -1.2006    0.8644 H   0  0  0  0  0  0  0  0  0  0  0  0
   -2.6299   -1.2035   -0.8863 H   0  0  0  0  0  0  0  0  0  0  0  0
   -1.3764    0.9631   -0.8973 H   0  0  0  0  0  0  0  0  0  0  0  0
   -1.3726    0.9711    0.8534 H   0  0  0  0  0  0  0  0  0  0  0  0
   -0.0793   -1.1744    0.8594 H   0  0  0  0  0  0  0  0  0  0  0  0
   -0.0829   -1.1810   -0.8912 H   0  0  0  0  0  0  0  0  0  0  0  0
    1.1687    0.9888   -0.9011 H   0  0  0  0  0  0  0  0  0  0  0  0
    1.1729    0.9939    0.8494 H   0  0  0  0  0  0  0  0  0  0  0  0
    3.7145    1.0201    0.8451 H   0  0  0  0  0  0  0  0  0  0  0  0
    3.7140    1.0145   -0.9053 H   0  0  0  0  0  0  0  0  0  0  0  0
    5.0110   -1.1223    0.8525 H   0  0  0  0  0  0  0  0  0  0  0  0
    5.0120   -1.1281   -0.8981 H   0  0  0  0  0  0  0  0  0  0  0  0
    6.2579    1.0446   -0.9047 H   0  0  0  0  0  0  0  0  0  0  0  0
    6.2563    1.0506    0.8457 H   0  0  0  0  0  0  0  0  0  0  0  0
    7.5593   -1.0878    0.8550 H   0  0  0  0  0  0  0  0  0  0  0  0
    7.5595   -1.0958   -0.8956 H   0  0  0  0  0  0  0  0  0  0  0  0
    8.7997    1.0811   -0.9045 H   0  0  0  0  0  0  0  0  0  0  0  0
    8.7998    1.0881    0.8457 H   0  0  0  0  0  0  0  0  0  0  0  0
   10.1069   -1.0480    0.8517 H   0  0  0  0  0  0  0  0  0  0  0  0
   10.1105   -1.0495   -0.8971 H   0  0  0  0  0  0  0  0  0  0  0  0
   11.3771    1.1232   -0.9050 H   0  0  0  0  0  0  0  0  0  0  0  0
   11.3696    1.1304    0.8561 H   0  0  0  0  0  0  0  0  0  0  0  0
   12.2571   -0.1163   -0.0159 H   0  0  0  0  0  0  0  0  0  0  0  0
    2.4661   -1.1517    0.8516 H   0  0  0  0  0  0  0  0  0  0  0  0
    2.4634   -1.1545   -0.8989 H   0  0  0  0  0  0  0  0  0  0  0  0
  2  1  1  0
  1 20  1  0
  4  2  1  0
  2  3  2  0
  5  4  1  0
  4 21  1  0
  4 22  1  0
  6  5  1  0
  5 23  1  0
  5 24  1  0
  7  6  1  0
  6 25  1  0
  6 26  1  0
  8  7  1  0
  7 27  1  0
  7 28  1  0
  9  8  1  0
  8 29  1  0
  8 30  1  0
 10  9  1  0
  9 31  1  0
  9 32  1  0
 11 10  1  0
 10 33  1  0
 10 34  1  0
 19 11  1  0
 11 35  1  0
 11 36  1  0
 13 12  1  0
 12 19  1  0
 12 37  1  0
 12 38  1  0
 14 13  1  0
 13 39  1  0
 13 40  1  0
 15 14  1  0
 14 41  1  0
 14 42  1  0
 16 15  1  0
 15 43  1  0
 15 44  1  0
 17 16  1  0
 16 45  1  0
 16 46  1  0
 18 17  1  0
 17 47  1  0
 17 48  1  0
 18 49  1  0
 18 50  1  0
 18 51  1  0
 19 52  1  0
 19 53  1  0
M  END
