
     RDKit          3D

 40 42  0  0  0  0  0  0  0  0999 V2000
    3.9267   -2.5987   -0.9600 C   0  0  0  0  0  0  0  0  0  0  0  0
    2.8009   -1.7965   -0.9477 C   0  0  0  0  0  0  0  0  0  0  0  0
   -3.0639    0.5178   -0.8806 C   0  0  0  0  0  0  0  0  0  0  0  0
   -2.3149   -0.7714    1.0078 C   0  0  0  0  0  0  0  0  0  0  0  0
   -4.3259   -0.0337   -0.7526 C   0  0  0  0  0  0  0  0  0  0  0  0
   -3.5806   -1.3142    1.1437 C   0  0  0  0  0  0  0  0  0  0  0  0
    5.1130   -2.1865   -0.3651 C   0  0  0  0  0  0  0  0  0  0  0  0
    4.0443   -0.1220    0.2682 C   0  0  0  0  0  0  0  0  0  0  0  0
   -2.0478    0.1540    0.0009 C   0  0  0  0  0  0  0  0  0  0  0  0
    2.8633   -0.5463   -0.3285 C   0  0  0  0  0  0  0  0  0  0  0  0
   -4.5953   -0.9495    0.2610 C   0  0  0  0  0  0  0  0  0  0  0  0
    5.1741   -0.9402    0.2550 C   0  0  0  0  0  0  0  0  0  0  0  0
    0.4038   -0.1733   -0.1639 C   0  0  0  0  0  0  0  0  0  0  0  0
   -0.4617    2.0690   -0.2362 C   0  0  0  0  0  0  0  0  0  0  0  0
   -0.6891    0.7095   -0.1402 C   0  0  0  0  0  0  0  0  0  0  0  0
    1.6749    0.3172   -0.3076 C   0  0  0  0  0  0  0  0  0  0  0  0
    0.8694    2.6102   -0.3930 C   0  0  0  0  0  0  0  0  0  0  0  0
   -5.9681   -1.5113    0.3544 C   0  0  0  0  0  0  0  0  0  0  0  0
   -2.3257    3.8295   -0.0474 N   0  0  0  0  0  0  0  0  0  0  0  0
    1.8617    1.6492   -0.4244 N   0  0  0  0  0  0  0  0  0  0  0  0
    1.1362    3.7965   -0.4948 O   0  0  0  0  0  0  0  0  0  0  0  0
   -6.8649   -1.2081   -0.3946 O   0  0  0  0  0  0  0  0  0  0  0  0
   -6.1040   -2.3809    1.3435 O   0  0  0  0  0  0  0  0  0  0  0  0
    6.2634   -0.4465    0.8647 O   0  0  0  0  0  0  0  0  0  0  0  0
    3.8912   -3.5632   -1.4486 H   0  0  0  0  0  0  0  0  0  0  0  0
    1.8941   -2.1248   -1.4368 H   0  0  0  0  0  0  0  0  0  0  0  0
    5.9706   -2.8437   -0.3952 H   0  0  0  0  0  0  0  0  0  0  0  0
   -2.8679    1.2116   -1.6875 H   0  0  0  0  0  0  0  0  0  0  0  0
   -5.1018    0.2478   -1.4512 H   0  0  0  0  0  0  0  0  0  0  0  0
   -1.5351   -1.0579    1.7015 H   0  0  0  0  0  0  0  0  0  0  0  0
   -3.7626   -2.0210    1.9406 H   0  0  0  0  0  0  0  0  0  0  0  0
    4.1032    0.8314    0.7808 H   0  0  0  0  0  0  0  0  0  0  0  0
    0.2473   -1.2364   -0.0638 H   0  0  0  0  0  0  0  0  0  0  0  0
    2.8008    1.9971   -0.5813 H   0  0  0  0  0  0  0  0  0  0  0  0
   -7.0095   -2.7258    1.3612 H   0  0  0  0  0  0  0  0  0  0  0  0
    7.8086   -1.4298   -0.1342 H   0  0  0  0  0  0  0  0  0  0  0  0
    8.1945   -0.6352    1.4021 H   0  0  0  0  0  0  0  0  0  0  0  0
    7.3081   -2.1694    1.4048 H   0  0  0  0  0  0  0  0  0  0  0  0
   -1.5006    3.0289   -0.1385 C   0  0  0  0  0  0  0  0  0  0  0  0
    7.4468   -1.2233    0.8762 C   0  0  0  0  0  0  0  0  0  0  0  0
 39 14  1  0
 39 19  3  0
  1  2  2  0
  1  7  1  0
  2 10  1  0
  3  5  2  0
  3  9  1  0
  4  6  1  0
  4  9  2  0
  5 11  1  0
  6 11  2  0
  7 12  2  0
  8 10  2  0
  8 12  1  0
  9 15  1  0
 10 16  1  0
 11 18  1  0
 12 24  1  0
 13 15  1  0
 13 16  2  0
 14 15  2  0
 14 17  1  0
 16 20  1  0
 17 20  1  0
 17 21  2  0
 18 22  2  0
 18 23  1  0
 40 24  1  0
  1 25  1  0
  2 26  1  0
  7 27  1  0
  3 28  1  0
  5 29  1  0
  4 30  1  0
  6 31  1  0
  8 32  1  0
 13 33  1  0
 20 34  1  0
 23 35  1  0
 40 36  1  0
 40 37  1  0
 40 38  1  0
M  END
