
     RDKit          3D

 19 20  0  0  0  0  0  0  0  0999 V2000
   -2.6649   -0.0917   -0.1095 Br  0  0  0  0  0  0  0  0  0  0  0  0
   -0.7932   -0.3246   -0.0562 C   0  0  0  0  0  0  0  0  0  0  0  0
   -0.2876   -1.6309   -0.0292 C   0  0  0  0  0  0  0  0  0  0  0  0
    0.9828   -1.9252    0.0102 N   0  0  0  0  0  0  0  0  0  0  0  0
    1.8621   -0.8927    0.0176 C   0  0  0  0  0  0  0  0  0  0  0  0
    3.2400   -1.2024    0.0533 C   0  0  0  0  0  0  0  0  0  0  0  0
    4.1839   -0.2114    0.0532 C   0  0  0  0  0  0  0  0  0  0  0  0
    3.7902    1.1379    0.0153 C   0  0  0  0  0  0  0  0  0  0  0  0
    2.4605    1.4676   -0.0169 C   0  0  0  0  0  0  0  0  0  0  0  0
    1.4656    0.4659   -0.0114 C   0  0  0  0  0  0  0  0  0  0  0  0
    0.0600    0.7722   -0.0408 C   0  0  0  0  0  0  0  0  0  0  0  0
   -0.3692    2.0441   -0.0843 N   0  0  0  0  0  0  0  0  0  0  0  0
   -0.9832   -2.4645   -0.0376 H   0  0  0  0  0  0  0  0  0  0  0  0
    3.5250   -2.2465    0.0786 H   0  0  0  0  0  0  0  0  0  0  0  0
    5.2362   -0.4625    0.0796 H   0  0  0  0  0  0  0  0  0  0  0  0
    4.5380    1.9190    0.0095 H   0  0  0  0  0  0  0  0  0  0  0  0
    2.1958    2.5160   -0.0533 H   0  0  0  0  0  0  0  0  0  0  0  0
   -1.3437    2.2596    0.0394 H   0  0  0  0  0  0  0  0  0  0  0  0
    0.2566    2.8013    0.1237 H   0  0  0  0  0  0  0  0  0  0  0  0
  1  2  1  0
  3  4  1  0
  3  2  2  0
  4  5  2  0
  2 11  1  0
  5  6  1  0
  5 10  1  0
 11 10  2  0
 11 12  1  0
  6  7  2  0
 10  9  1  0
  7  8  1  0
  9  8  2  0
  3 13  1  0
  6 14  1  0
  7 15  1  0
  8 16  1  0
  9 17  1  0
 12 18  1  0
 12 19  1  0
M  END
