
     RDKit          3D

 64 69  0  0  0  0  0  0  0  0999 V2000
    2.7073    2.7284   -0.8443 C   0  0  0  0  0  0  0  0  0  0  0  0
    3.1512    3.5635   -2.0290 C   0  0  0  0  0  0  0  0  0  0  0  0
    4.4750    4.0212   -1.8770 O   0  0  0  0  0  0  0  0  0  0  0  0
    5.3535    2.9301   -1.7275 C   0  0  0  0  0  0  0  0  0  0  0  0
    4.9934    2.0676   -0.5322 C   0  0  0  0  0  0  0  0  0  0  0  0
    3.6213    1.6110   -0.6415 N   0  0  0  0  0  0  0  0  0  0  0  0
    3.2031    0.5880    0.2136 C   0  0  0  0  0  0  0  0  0  0  0  0
    1.9048    0.0658    0.0714 C   0  0  0  0  0  0  0  0  0  0  0  0
    1.4899   -0.9447    0.9173 C   0  0  0  0  0  0  0  0  0  0  0  0
    4.0448    0.0444    1.1913 C   0  0  0  0  0  0  0  0  0  0  0  0
    3.6125   -1.0079    2.0016 C   0  0  0  0  0  0  0  0  0  0  0  0
    2.3347   -1.5002    1.8793 C   0  0  0  0  0  0  0  0  0  0  0  0
    1.6440   -2.6601    2.5579 C   0  0  1  0  0  0  0  0  0  0  0  0
    2.1487   -3.9805    1.9665 C   0  0  0  0  0  0  0  0  0  0  0  0
    1.8025   -2.6692    4.0735 C   0  0  0  0  0  0  0  0  0  0  0  0
    0.1764   -2.4109    2.1486 C   0  0  0  0  0  0  0  0  0  0  0  0
    0.2671   -1.5953    0.9329 N   0  0  0  0  0  0  0  0  0  0  0  0
   -0.9037   -1.0832    0.3580 C   0  0  0  0  0  0  0  0  0  0  0  0
   -1.3881    0.1733    0.6591 C   0  0  0  0  0  0  0  0  0  0  0  0
   -0.7282    1.0418    1.6888 C   0  0  0  0  0  0  0  0  0  0  0  0
   -1.6268   -1.9295   -0.5227 C   0  0  0  0  0  0  0  0  0  0  0  0
   -1.1820   -3.2172   -0.8939 C   0  0  0  0  0  0  0  0  0  0  0  0
   -1.9373   -4.0069   -1.7161 C   0  0  0  0  0  0  0  0  0  0  0  0
   -3.1620   -3.5142   -2.1929 C   0  0  0  0  0  0  0  0  0  0  0  0
   -3.8870   -4.3102   -2.9909 F   0  0  0  0  0  0  0  0  0  0  0  0
   -3.6256   -2.2713   -1.8869 C   0  0  0  0  0  0  0  0  0  0  0  0
   -2.8490   -1.4469   -1.0422 C   0  0  0  0  0  0  0  0  0  0  0  0
   -3.2943   -0.2029   -0.7758 N   0  0  0  0  0  0  0  0  0  0  0  0
   -2.5914    0.5761    0.0071 C   0  0  0  0  0  0  0  0  0  0  0  0
   -3.1595    1.9282    0.2092 C   0  0  0  0  0  0  0  0  0  0  0  0
   -2.4044    3.0877    0.0717 C   0  0  0  0  0  0  0  0  0  0  0  0
   -3.0229    4.3172    0.2263 C   0  0  0  0  0  0  0  0  0  0  0  0
   -4.3772    4.3441    0.5218 C   0  0  0  0  0  0  0  0  0  0  0  0
   -5.1134    3.2459    0.6543 N   0  0  0  0  0  0  0  0  0  0  0  0
   -4.5163    2.0744    0.4932 C   0  0  0  0  0  0  0  0  0  0  0  0
    2.6542    3.3578    0.0568 H   0  0  0  0  0  0  0  0  0  0  0  0
    1.7001    2.3711   -1.0508 H   0  0  0  0  0  0  0  0  0  0  0  0
    3.0539    2.9688   -2.9482 H   0  0  0  0  0  0  0  0  0  0  0  0
    2.5064    4.4384   -2.1220 H   0  0  0  0  0  0  0  0  0  0  0  0
    5.3517    2.3097   -2.6349 H   0  0  0  0  0  0  0  0  0  0  0  0
    6.3594    3.3318   -1.5978 H   0  0  0  0  0  0  0  0  0  0  0  0
    5.6686    1.2105   -0.5242 H   0  0  0  0  0  0  0  0  0  0  0  0
    5.1656    2.6292    0.3990 H   0  0  0  0  0  0  0  0  0  0  0  0
    1.2385    0.4385   -0.6954 H   0  0  0  0  0  0  0  0  0  0  0  0
    5.0404    0.4326    1.3472 H   0  0  0  0  0  0  0  0  0  0  0  0
    4.2938   -1.4195    2.7376 H   0  0  0  0  0  0  0  0  0  0  0  0
    3.2162   -4.1038    2.1556 H   0  0  0  0  0  0  0  0  0  0  0  0
    1.6256   -4.8295    2.4120 H   0  0  0  0  0  0  0  0  0  0  0  0
    1.9958   -4.0183    0.8862 H   0  0  0  0  0  0  0  0  0  0  0  0
    2.8419   -2.8412    4.3585 H   0  0  0  0  0  0  0  0  0  0  0  0
    1.4867   -1.7214    4.5116 H   0  0  0  0  0  0  0  0  0  0  0  0
    1.2043   -3.4664    4.5194 H   0  0  0  0  0  0  0  0  0  0  0  0
   -0.3702   -3.3376    1.9659 H   0  0  0  0  0  0  0  0  0  0  0  0
   -0.3579   -1.8572    2.9315 H   0  0  0  0  0  0  0  0  0  0  0  0
    0.0214    1.7054    1.2529 H   0  0  0  0  0  0  0  0  0  0  0  0
   -1.4567    1.6623    2.2072 H   0  0  0  0  0  0  0  0  0  0  0  0
   -0.2173    0.4444    2.4418 H   0  0  0  0  0  0  0  0  0  0  0  0
   -0.2293   -3.5767   -0.5296 H   0  0  0  0  0  0  0  0  0  0  0  0
   -1.6032   -4.9944   -2.0051 H   0  0  0  0  0  0  0  0  0  0  0  0
   -4.5648   -1.9040   -2.2789 H   0  0  0  0  0  0  0  0  0  0  0  0
   -1.3513    3.0369   -0.1727 H   0  0  0  0  0  0  0  0  0  0  0  0
   -2.4686    5.2384    0.1136 H   0  0  0  0  0  0  0  0  0  0  0  0
   -4.8890    5.2905    0.6552 H   0  0  0  0  0  0  0  0  0  0  0  0
   -5.1382    1.1925    0.6019 H   0  0  0  0  0  0  0  0  0  0  0  0
 25 24  1  0
 24 23  2  0
 24 26  1  0
 23 22  1  0
 26 27  2  0
 22 21  2  0
 13 15  1  1
 27 21  1  0
 27 28  1  0
 21 18  1  0
 28 29  2  0
 16 13  1  0
 16 17  1  0
 13 14  1  0
 13 12  1  0
 18 17  1  0
 18 19  2  0
 17  9  1  0
 29 19  1  0
 29 30  1  0
 12  9  1  0
 12 11  2  0
 19 20  1  0
  9  8  2  0
 11 10  1  0
 30 35  1  0
 30 31  2  0
 35 34  2  0
  8  7  1  0
 31 32  1  0
 10  7  2  0
  7  6  1  0
 34 33  1  0
 32 33  2  0
  6  5  1  0
  6  1  1  0
  5  4  1  0
  4  3  1  0
  1  2  1  0
  2  3  1  0
  1 36  1  0
  1 37  1  0
  2 38  1  0
  2 39  1  0
  4 40  1  0
  4 41  1  0
  5 42  1  0
  5 43  1  0
  8 44  1  0
 10 45  1  0
 11 46  1  0
 14 47  1  0
 14 48  1  0
 14 49  1  0
 15 50  1  0
 15 51  1  0
 15 52  1  0
 16 53  1  0
 16 54  1  0
 20 55  1  0
 20 56  1  0
 20 57  1  0
 22 58  1  0
 23 59  1  0
 26 60  1  0
 31 61  1  0
 32 62  1  0
 33 63  1  0
 35 64  1  0
M  END
