
     RDKit          3D

 27 28  0  0  0  0  0  0  0  0999 V2000
    3.2199   -0.9406   -1.0303 O   0  0  0  0  0  0  0  0  0  0  0  0
    2.7397   -0.1094   -0.2947 C   0  0  0  0  0  0  0  0  0  0  0  0
    3.4640    0.8342    0.2944 O   0  0  0  0  0  0  0  0  0  0  0  0
    1.3018   -0.0204    0.0653 C   0  0  0  0  0  0  0  0  0  0  0  0
    0.8110    1.1123    0.9228 C   0  0  0  0  0  0  0  0  0  0  0  0
    0.4961   -0.9892   -0.3733 C   0  0  0  0  0  0  0  0  0  0  0  0
   -0.9754   -1.0795   -0.0671 C   0  0  2  0  0  0  0  0  0  0  0  0
   -1.2838   -2.3810    0.3916 O   0  0  0  0  0  0  0  0  0  0  0  0
   -1.7767   -0.8089   -1.3236 C   0  0  0  0  0  0  0  0  0  0  0  0
   -2.3692    0.3245   -1.6848 C   0  0  0  0  0  0  0  0  0  0  0  0
   -2.2396    1.6440   -0.9832 C   0  0  0  0  0  0  0  0  0  0  0  0
   -0.9607    1.8218   -0.4243 O   0  0  0  0  0  0  0  0  0  0  0  0
   -0.7006    1.2486    0.8363 C   0  0  1  0  0  0  0  0  0  0  0  0
   -1.3664   -0.1163    1.0554 C   0  0  2  0  0  0  0  0  0  0  0  0
   -0.9268   -0.6556    2.2753 O   0  0  0  0  0  0  0  0  0  0  0  0
    4.3948    0.7426    0.0418 H   0  0  0  0  0  0  0  0  0  0  0  0
    1.1187    0.9615    1.9604 H   0  0  0  0  0  0  0  0  0  0  0  0
    1.2613    2.0582    0.6147 H   0  0  0  0  0  0  0  0  0  0  0  0
    0.8996   -1.7845   -0.9929 H   0  0  0  0  0  0  0  0  0  0  0  0
   -1.0552    1.9233    1.6310 H   0  0  0  0  0  0  0  0  0  0  0  0
   -1.1072   -3.0071   -0.3199 H   0  0  0  0  0  0  0  0  0  0  0  0
   -1.8912   -1.6707   -1.9757 H   0  0  0  0  0  0  0  0  0  0  0  0
   -2.9661    0.3239   -2.5907 H   0  0  0  0  0  0  0  0  0  0  0  0
   -2.3672    2.4431   -1.7161 H   0  0  0  0  0  0  0  0  0  0  0  0
   -3.0387    1.7825   -0.2420 H   0  0  0  0  0  0  0  0  0  0  0  0
   -2.4602   -0.0112    1.0607 H   0  0  0  0  0  0  0  0  0  0  0  0
   -1.1889   -0.0539    2.9801 H   0  0  0  0  0  0  0  0  0  0  0  0
  1  2  2  0
  2  3  1  0
  2  4  1  0
  4  5  1  0
  4  6  2  0
  5 13  1  0
  6  7  1  0
  7  8  1  1
  7  9  1  0
  7 14  1  0
  9 10  2  0
 10 11  1  0
 11 12  1  0
 12 13  1  0
 13 14  1  0
 14 15  1  0
  3 16  1  0
  5 17  1  0
  5 18  1  0
  6 19  1  0
 13 20  1  1
  8 21  1  0
  9 22  1  0
 10 23  1  0
 11 24  1  0
 11 25  1  0
 14 26  1  1
 15 27  1  0
M  END
