
     RDKit          3D

 19 19  0  0  0  0  0  0  0  0999 V2000
   -1.3530   -1.0965   -0.0167 N   0  0  0  0  0  0  0  0  0  0  0  0
    1.2261   -0.2447   -0.0034 C   0  0  0  0  0  0  0  0  0  0  0  0
    2.7605    1.5464   -0.0055 C   0  0  0  0  0  0  0  0  0  0  0  0
   -1.9649    1.1116   -0.0404 N   0  0  0  0  0  0  0  0  0  0  0  0
   -3.3683    0.7973   -0.0420 C   0  0  0  0  0  0  0  0  0  0  0  0
    2.4923    0.1509    0.0014 O   0  0  0  0  0  0  0  0  0  0  0  0
   -0.9926    0.1856   -0.0250 C   0  0  0  0  0  0  0  0  0  0  0  0
   -0.3523   -1.9743    0.0004 C   0  0  0  0  0  0  0  0  0  0  0  0
    0.9762   -1.6253    0.0086 C   0  0  0  0  0  0  0  0  0  0  0  0
    0.2679    0.6479   -0.0195 N   0  0  0  0  0  0  0  0  0  0  0  0
    2.3556    2.0321   -0.8935 H   0  0  0  0  0  0  0  0  0  0  0  0
    2.3558    2.0410    0.8777 H   0  0  0  0  0  0  0  0  0  0  0  0
    3.8430    1.6395   -0.0063 H   0  0  0  0  0  0  0  0  0  0  0  0
   -1.6779    2.0732   -0.0381 H   0  0  0  0  0  0  0  0  0  0  0  0
   -3.6612    0.2314   -0.9274 H   0  0  0  0  0  0  0  0  0  0  0  0
   -3.6604    0.2209    0.8368 H   0  0  0  0  0  0  0  0  0  0  0  0
   -3.9250    1.7303   -0.0366 H   0  0  0  0  0  0  0  0  0  0  0  0
   -0.6356   -3.0213    0.0091 H   0  0  0  0  0  0  0  0  0  0  0  0
    1.7685   -2.3572    0.0249 H   0  0  0  0  0  0  0  0  0  0  0  0
  6  3  1  0
  6  2  1  0
 10  2  2  0
 10  7  1  0
  4  7  1  0
  4  5  1  0
  2  9  1  0
  7  1  2  0
  9  8  2  0
  1  8  1  0
  3 11  1  0
  3 12  1  0
  3 13  1  0
  4 14  1  0
  5 15  1  0
  5 16  1  0
  5 17  1  0
  8 18  1  0
  9 19  1  0
M  END
