
     RDKit          3D

 58 61  0  0  0  0  0  0  0  0999 V2000
   -2.9726    4.8577   -0.0155 S   0  0  1  0  0  0  0  0  0  0  0  0
   -0.9578    1.6103   -0.0566 C   0  0  1  0  0  0  0  0  0  0  0  0
   -2.2499    1.0895   -0.6679 C   0  0  1  0  0  0  0  0  0  0  0  0
   -2.4138    3.3973   -0.5058 N   0  0  0  0  0  0  0  0  0  0  0  0
    0.2788    0.9097   -0.5779 C   0  0  0  0  0  0  0  0  0  0  0  0
    6.5581   -1.0018   -0.2358 N   0  0  0  0  0  0  0  0  0  0  0  0
   -2.6379   -0.2754   -0.1385 C   0  0  0  0  0  0  0  0  0  0  0  0
   -3.2460    2.2052   -0.3486 C   0  0  0  0  0  0  0  0  0  0  0  0
   -0.9786    3.0951   -0.4370 C   0  0  0  0  0  0  0  0  0  0  0  0
    7.0702   -1.8756    0.7286 C   0  0  0  0  0  0  0  0  0  0  0  0
    5.2088   -0.5638   -0.0951 C   0  0  0  0  0  0  0  0  0  0  0  0
    1.2793    0.8200    0.3343 N   0  0  0  0  0  0  0  0  0  0  0  0
    4.8814    0.3504    0.8955 C   0  0  0  0  0  0  0  0  0  0  0  0
   -3.8604   -0.6929   -0.5485 N   0  0  0  0  0  0  0  0  0  0  0  0
    2.5692    0.3294    0.1312 C   0  0  0  0  0  0  0  0  0  0  0  0
    3.5785    0.7763    0.9852 C   0  0  0  0  0  0  0  0  0  0  0  0
   -2.0240    5.8528   -0.4904 O   0  0  0  0  0  0  0  0  0  0  0  0
   -4.3668    4.9334   -0.4232 O   0  0  0  0  0  0  0  0  0  0  0  0
    7.2722   -0.5721   -1.3142 C   0  0  0  0  0  0  0  0  0  0  0  0
    0.3626    0.5146   -1.7236 O   0  0  0  0  0  0  0  0  0  0  0  0
   -1.8927   -0.9189    0.5754 O   0  0  0  0  0  0  0  0  0  0  0  0
    8.4316   -2.2790    0.4987 C   0  0  0  0  0  0  0  0  0  0  0  0
    6.3707   -2.2372    1.6667 O   0  0  0  0  0  0  0  0  0  0  0  0
    4.2361   -1.0343   -0.9581 C   0  0  0  0  0  0  0  0  0  0  0  0
    2.9245   -0.5929   -0.8494 C   0  0  0  0  0  0  0  0  0  0  0  0
    8.5509   -0.9654   -1.5199 C   0  0  0  0  0  0  0  0  0  0  0  0
    9.1367   -1.8443   -0.5772 C   0  0  0  0  0  0  0  0  0  0  0  0
   -4.5306   -1.8869   -0.2658 C   0  0  0  0  0  0  0  0  0  0  0  0
   -2.9202    4.8471    1.7632 C   0  0  0  0  0  0  0  0  0  0  0  0
    3.2509    1.6673    1.9336 F   0  0  0  0  0  0  0  0  0  0  0  0
   -6.0194   -4.1938    0.1859 C   0  0  0  0  0  0  0  0  0  0  0  0
   -6.9435   -5.6327    0.4705 Cl  0  0  0  0  0  0  0  0  0  0  0  0
   -5.7660   -2.0748   -0.8892 C   0  0  0  0  0  0  0  0  0  0  0  0
   -4.0502   -2.8767    0.5917 C   0  0  0  0  0  0  0  0  0  0  0  0
   -4.7975   -4.0249    0.8128 C   0  0  0  0  0  0  0  0  0  0  0  0
   -6.5101   -3.2188   -0.6685 C   0  0  0  0  0  0  0  0  0  0  0  0
   -1.8972    4.6923    2.1007 H   0  0  0  0  0  0  0  0  0  0  0  0
   -3.2794    5.8124    2.1159 H   0  0  0  0  0  0  0  0  0  0  0  0
   -3.5647    4.0567    2.1417 H   0  0  0  0  0  0  0  0  0  0  0  0
   -1.0149    1.5253    1.0325 H   0  0  0  0  0  0  0  0  0  0  0  0
   -2.1381    1.0186   -1.7555 H   0  0  0  0  0  0  0  0  0  0  0  0
   -0.4548    3.7012    0.3028 H   0  0  0  0  0  0  0  0  0  0  0  0
   -0.5130    3.2741   -1.4077 H   0  0  0  0  0  0  0  0  0  0  0  0
   -4.0892    2.2283   -1.0370 H   0  0  0  0  0  0  0  0  0  0  0  0
   -3.6329    2.0952    0.6709 H   0  0  0  0  0  0  0  0  0  0  0  0
    1.0888    1.2039    1.2473 H   0  0  0  0  0  0  0  0  0  0  0  0
    6.7542    0.1026   -1.9807 H   0  0  0  0  0  0  0  0  0  0  0  0
   -4.3512   -0.0796   -1.1823 H   0  0  0  0  0  0  0  0  0  0  0  0
    8.8715   -2.9528    1.2210 H   0  0  0  0  0  0  0  0  0  0  0  0
    5.6266    0.7423    1.5749 H   0  0  0  0  0  0  0  0  0  0  0  0
    4.4896   -1.7564   -1.7229 H   0  0  0  0  0  0  0  0  0  0  0  0
    2.1847   -0.9842   -1.5279 H   0  0  0  0  0  0  0  0  0  0  0  0
    9.0964   -0.6049   -2.3782 H   0  0  0  0  0  0  0  0  0  0  0  0
   10.1586   -2.1724   -0.7174 H   0  0  0  0  0  0  0  0  0  0  0  0
   -3.1027   -2.7711    1.0927 H   0  0  0  0  0  0  0  0  0  0  0  0
   -6.1569   -1.3167   -1.5574 H   0  0  0  0  0  0  0  0  0  0  0  0
   -7.4642   -3.3426   -1.1619 H   0  0  0  0  0  0  0  0  0  0  0  0
   -4.4130   -4.7845    1.4798 H   0  0  0  0  0  0  0  0  0  0  0  0
  1  4  1  0
  1 17  2  0
  1 18  2  0
  1 29  1  1
  2  3  1  0
  2  5  1  0
  2  9  1  0
  3  7  1  0
  3  8  1  0
  4  8  1  0
  4  9  1  0
  5 12  1  0
  5 20  2  0
  6 10  1  0
  6 11  1  0
  6 19  1  0
  7 14  1  0
  7 21  2  0
 10 22  1  0
 10 23  2  0
 11 13  2  0
 11 24  1  0
 12 15  1  0
 13 16  1  0
 14 28  1  0
 15 16  2  0
 15 25  1  0
 16 30  1  0
 19 26  2  0
 22 27  2  0
 24 25  2  0
 26 27  1  0
 28 34  1  0
 28 33  2  0
 31 32  1  0
 31 36  2  0
 31 35  1  0
 34 35  2  0
 33 36  1  0
 29 37  1  0
 29 38  1  0
 29 39  1  0
  2 40  1  1
  3 41  1  6
  9 42  1  0
  9 43  1  0
  8 44  1  0
  8 45  1  0
 12 46  1  0
 19 47  1  0
 14 48  1  0
 22 49  1  0
 13 50  1  0
 24 51  1  0
 25 52  1  0
 26 53  1  0
 27 54  1  0
 34 55  1  0
 33 56  1  0
 36 57  1  0
 35 58  1  0
M  END
