
     RDKit          3D

 43 45  0  0  0  0  0  0  0  0999 V2000
    2.8966   -2.4370    0.0842 C   0  0  0  0  0  0  0  0  0  0  0  0
    3.9533   -1.5334    0.1152 C   0  0  0  0  0  0  0  0  0  0  0  0
    3.6796   -0.1746    0.0473 C   0  0  0  0  0  0  0  0  0  0  0  0
    2.3664    0.2802   -0.0519 C   0  0  0  0  0  0  0  0  0  0  0  0
    1.2878   -0.6100   -0.0881 C   0  0  0  0  0  0  0  0  0  0  0  0
    1.6011   -1.9686   -0.0147 C   0  0  0  0  0  0  0  0  0  0  0  0
   -0.1701   -0.2132   -0.1854 C   0  0  2  0  0  0  0  0  0  0  0  0
   -0.9361   -0.6147    1.0796 C   0  0  0  0  0  0  0  0  0  0  0  0
   -2.4175   -0.2546    1.0165 C   0  0  2  0  0  0  0  0  0  0  0  0
   -3.1270   -0.7479   -0.2612 C   0  0  2  0  0  0  0  0  0  0  0  0
   -2.3042   -0.3753   -1.5059 C   0  0  0  0  0  0  0  0  0  0  0  0
   -0.8445   -0.8061   -1.4253 C   0  0  0  0  0  0  0  0  0  0  0  0
   -2.7213    1.2551    1.0811 C   0  0  0  0  0  0  0  0  0  0  0  0
   -3.9576    1.4814    0.1883 C   0  0  0  0  0  0  0  0  0  0  0  0
   -4.4160    0.0880   -0.2604 C   0  0  2  0  0  0  0  0  0  0  0  0
   -3.3882   -2.2502   -0.2459 C   0  0  0  0  0  0  0  0  0  0  0  0
   -5.3218   -0.4828    0.6640 O   0  0  0  0  0  0  0  0  0  0  0  0
    5.2047   -2.0200    0.2108 O   0  0  0  0  0  0  0  0  0  0  0  0
    2.1459    1.7645   -0.1195 C   0  0  1  0  0  0  0  0  0  0  0  0
    1.5457    2.1359   -1.2617 F   0  0  0  0  0  0  0  0  0  0  0  0
    1.3770    2.2099    0.8870 F   0  0  0  0  0  0  0  0  0  0  0  0
    3.2858    2.4607   -0.0536 F   0  0  0  0  0  0  0  0  0  0  0  0
    3.0898   -3.5011    0.1370 H   0  0  0  0  0  0  0  0  0  0  0  0
    4.5048    0.5253    0.0720 H   0  0  0  0  0  0  0  0  0  0  0  0
    0.8010   -2.6976   -0.0348 H   0  0  0  0  0  0  0  0  0  0  0  0
   -0.2593    0.8680   -0.2838 H   0  0  0  0  0  0  0  0  0  0  0  0
   -0.8362   -1.6937    1.2365 H   0  0  0  0  0  0  0  0  0  0  0  0
   -0.4781   -0.1398    1.9523 H   0  0  0  0  0  0  0  0  0  0  0  0
   -2.9058   -0.7344    1.8706 H   0  0  0  0  0  0  0  0  0  0  0  0
   -2.7714   -0.8188   -2.3900 H   0  0  0  0  0  0  0  0  0  0  0  0
   -2.3282    0.7066   -1.6694 H   0  0  0  0  0  0  0  0  0  0  0  0
   -0.3188   -0.4720   -2.3235 H   0  0  0  0  0  0  0  0  0  0  0  0
   -0.7658   -1.8965   -1.4144 H   0  0  0  0  0  0  0  0  0  0  0  0
   -2.8964    1.5674    2.1113 H   0  0  0  0  0  0  0  0  0  0  0  0
   -1.8776    1.8486    0.7220 H   0  0  0  0  0  0  0  0  0  0  0  0
   -4.7602    2.0144    0.7038 H   0  0  0  0  0  0  0  0  0  0  0  0
   -3.7039    2.0914   -0.6798 H   0  0  0  0  0  0  0  0  0  0  0  0
   -4.8678    0.1195   -1.2633 H   0  0  0  0  0  0  0  0  0  0  0  0
   -2.4571   -2.8182   -0.2801 H   0  0  0  0  0  0  0  0  0  0  0  0
   -3.9179   -2.5601    0.6542 H   0  0  0  0  0  0  0  0  0  0  0  0
   -3.9832   -2.5583   -1.1089 H   0  0  0  0  0  0  0  0  0  0  0  0
   -6.0671    0.1177    0.7568 H   0  0  0  0  0  0  0  0  0  0  0  0
    5.8483   -1.3026    0.2264 H   0  0  0  0  0  0  0  0  0  0  0  0
  1  6  2  0
  1  2  1  0
 18  2  1  0
  6  5  1  0
  2  3  2  0
 10 16  1  1
 12  7  1  0
 12 11  1  0
  5  7  1  0
  5  4  2  0
  3  4  1  0
  8  7  1  0
  8  9  1  0
 10 11  1  0
 10  9  1  0
 10 15  1  0
  4 19  1  0
  9 13  1  0
 17 15  1  0
 15 14  1  0
 19 22  1  1
 19 20  1  0
 19 21  1  0
 13 14  1  0
  1 23  1  0
  3 24  1  0
  6 25  1  0
  7 26  1  6
  8 27  1  0
  8 28  1  0
  9 29  1  1
 11 30  1  0
 11 31  1  0
 12 32  1  0
 12 33  1  0
 13 34  1  0
 13 35  1  0
 14 36  1  0
 14 37  1  0
 15 38  1  6
 16 39  1  0
 16 40  1  0
 16 41  1  0
 17 42  1  0
 18 43  1  0
M  END
