
     RDKit          3D

 27 28  0  0  0  0  0  0  0  0999 V2000
    2.1321   -0.0132    1.9084 N   0  0  0  0  0  0  0  0  0  0  0  0
    0.8907   -0.0091    2.4440 C   0  0  0  0  0  0  0  0  0  0  0  0
    0.7699   -0.0126    3.7608 N   0  0  0  0  0  0  0  0  0  0  0  0
   -0.4523   -0.0111    4.3023 C   0  0  0  0  0  0  0  0  0  0  0  0
   -1.6088   -0.0053    3.5614 C   0  0  0  0  0  0  0  0  0  0  0  0
   -1.4966   -0.0004    2.1637 C   0  0  0  0  0  0  0  0  0  0  0  0
   -0.2482   -0.0025    1.5906 C   0  0  0  0  0  0  0  0  0  0  0  0
    0.0267    0.0019    0.2684 O   0  0  0  0  0  0  0  0  0  0  0  0
   -1.0614   -0.0070   -0.6453 C   0  0  0  0  0  0  0  0  0  0  0  0
   -0.4795   -0.0107   -2.0257 C   0  0  0  0  0  0  0  0  0  0  0  0
   -0.1904   -1.2121   -2.6657 C   0  0  0  0  0  0  0  0  0  0  0  0
    0.3900   -1.2178   -3.9268 C   0  0  0  0  0  0  0  0  0  0  0  0
    0.6915   -0.0178   -4.5580 C   0  0  0  0  0  0  0  0  0  0  0  0
    0.4053    1.1859   -3.9261 C   0  0  0  0  0  0  0  0  0  0  0  0
   -0.1753    1.1875   -2.6653 C   0  0  0  0  0  0  0  0  0  0  0  0
    2.9331   -0.0062    2.5135 H   0  0  0  0  0  0  0  0  0  0  0  0
    2.2823    0.0003    0.9172 H   0  0  0  0  0  0  0  0  0  0  0  0
   -0.4909   -0.0150    5.3859 H   0  0  0  0  0  0  0  0  0  0  0  0
   -2.5785   -0.0037    4.0384 H   0  0  0  0  0  0  0  0  0  0  0  0
   -2.3915    0.0048    1.5553 H   0  0  0  0  0  0  0  0  0  0  0  0
   -1.6850   -0.8931   -0.4836 H   0  0  0  0  0  0  0  0  0  0  0  0
   -1.6930    0.8749   -0.4919 H   0  0  0  0  0  0  0  0  0  0  0  0
   -0.4243   -2.1508   -2.1779 H   0  0  0  0  0  0  0  0  0  0  0  0
    0.6066   -2.1585   -4.4161 H   0  0  0  0  0  0  0  0  0  0  0  0
    1.1442   -0.0202   -5.5411 H   0  0  0  0  0  0  0  0  0  0  0  0
    0.6328    2.1237   -4.4160 H   0  0  0  0  0  0  0  0  0  0  0  0
   -0.3982    2.1291   -2.1779 H   0  0  0  0  0  0  0  0  0  0  0  0
  1  2  1  0
  1 16  1  0
  1 17  1  0
  2  3  2  0
  2  7  1  0
  3  4  1  0
  4  5  2  0
  4 18  1  0
  5  6  1  0
  5 19  1  0
  6  7  2  0
  6 20  1  0
  7  8  1  0
  8  9  1  0
  9 10  1  0
  9 21  1  0
  9 22  1  0
 10 11  2  0
 10 15  1  0
 11 12  1  0
 11 23  1  0
 12 13  2  0
 12 24  1  0
 13 14  1  0
 13 25  1  0
 14 15  2  0
 14 26  1  0
 15 27  1  0
M  END
