
     RDKit          3D

 19 19  0  0  0  0  0  0  0  0999 V2000
    2.2693   -0.1841   -0.0117 C   0  0  0  0  0  0  0  0  0  0  0  0
   -4.0180   -1.4787   -0.0379 O   0  0  0  0  0  0  0  0  0  0  0  0
   -3.3857   -0.3169    0.0109 C   0  0  0  0  0  0  0  0  0  0  0  0
   -3.9222    0.7545    0.0369 O   0  0  0  0  0  0  0  0  0  0  0  0
   -1.8930   -0.5409    0.0144 C   0  0  0  0  0  0  0  0  0  0  0  0
   -1.2736    0.7089    0.0804 O   0  0  0  0  0  0  0  0  0  0  0  0
    0.0718    0.7601    0.0498 C   0  0  0  0  0  0  0  0  0  0  0  0
    0.6360    2.0363    0.0606 C   0  0  0  0  0  0  0  0  0  0  0  0
    2.0087    2.1783    0.0336 C   0  0  0  0  0  0  0  0  0  0  0  0
    2.8475    1.0694   -0.0033 C   0  0  0  0  0  0  0  0  0  0  0  0
    3.2803   -1.5883   -0.0540 Cl  0  0  0  0  0  0  0  0  0  0  0  0
    0.8918   -0.3627    0.0133 C   0  0  0  0  0  0  0  0  0  0  0  0
   -4.9719   -1.3261   -0.0568 H   0  0  0  0  0  0  0  0  0  0  0  0
   -1.6369   -1.1809    0.8682 H   0  0  0  0  0  0  0  0  0  0  0  0
   -1.6143   -1.0873   -0.8956 H   0  0  0  0  0  0  0  0  0  0  0  0
   -0.0141    2.9001    0.0879 H   0  0  0  0  0  0  0  0  0  0  0  0
    2.4413    3.1699    0.0412 H   0  0  0  0  0  0  0  0  0  0  0  0
    3.9215    1.1834   -0.0239 H   0  0  0  0  0  0  0  0  0  0  0  0
    0.4895   -1.3659    0.0077 H   0  0  0  0  0  0  0  0  0  0  0  0
 11  1  1  0
  1 12  2  0
  1 10  1  0
 12  7  1  0
 10  9  2  0
  7  6  1  0
  7  8  2  0
  9  8  1  0
  6  5  1  0
  5  3  1  0
  4  3  2  0
  3  2  1  0
  2 13  1  0
  5 14  1  0
  5 15  1  0
  8 16  1  0
  9 17  1  0
 10 18  1  0
 12 19  1  0
M  END
