
     RDKit          3D

 22 23  0  0  0  0  0  0  0  0999 V2000
   -4.4569    0.7651    0.0003 C   0  0  0  0  0  0  0  0  0  0  0  0
   -3.2972   -0.0716    0.0011 O   0  0  0  0  0  0  0  0  0  0  0  0
   -2.1183    0.5162    0.0001 C   0  0  0  0  0  0  0  0  0  0  0  0
   -1.9650    1.7173   -0.0008 O   0  0  0  0  0  0  0  0  0  0  0  0
   -0.9951   -0.4440    0.0013 C   0  0  0  0  0  0  0  0  0  0  0  0
   -1.1871   -1.8335   -0.0075 C   0  0  0  0  0  0  0  0  0  0  0  0
   -0.1289   -2.7287   -0.0046 C   0  0  0  0  0  0  0  0  0  0  0  0
    1.1791   -2.2585    0.0070 C   0  0  0  0  0  0  0  0  0  0  0  0
    1.3867   -0.8930    0.0147 C   0  0  0  0  0  0  0  0  0  0  0  0
    0.3180    0.0123    0.0123 C   0  0  0  0  0  0  0  0  0  0  0  0
    0.7864    1.3165    0.0238 N   0  0  0  0  0  0  0  0  0  0  0  0
    2.1453    1.3675    0.0303 C   0  0  0  0  0  0  0  0  0  0  0  0
    2.8565    2.3374    0.0389 O   0  0  0  0  0  0  0  0  0  0  0  0
    2.6142   -0.1097    0.0256 C   0  0  0  0  0  0  0  0  0  0  0  0
    3.7671   -0.4473    0.0302 O   0  0  0  0  0  0  0  0  0  0  0  0
   -5.3072    0.0905   -0.0030 H   0  0  0  0  0  0  0  0  0  0  0  0
   -4.4923    1.3909    0.8913 H   0  0  0  0  0  0  0  0  0  0  0  0
   -4.4881    1.3952   -0.8876 H   0  0  0  0  0  0  0  0  0  0  0  0
   -2.1948   -2.2247   -0.0176 H   0  0  0  0  0  0  0  0  0  0  0  0
   -0.3256   -3.7911   -0.0101 H   0  0  0  0  0  0  0  0  0  0  0  0
    2.0172   -2.9428    0.0096 H   0  0  0  0  0  0  0  0  0  0  0  0
    0.1764    2.1214    0.0182 H   0  0  0  0  0  0  0  0  0  0  0  0
  7  6  1  0
  7  8  2  0
  6  5  2  0
  4  3  2  0
  8  9  1  0
  5  3  1  0
  5 10  1  0
  3  2  1  0
  9 10  2  0
  9 14  1  0
 10 11  1  0
  2  1  1  0
 15 14  2  0
 14 12  1  0
 11 12  1  0
 12 13  2  0
  1 16  1  0
  1 17  1  0
  1 18  1  0
  6 19  1  0
  7 20  1  0
  8 21  1  0
 11 22  1  0
M  END
