
     RDKit          3D

 81 83  0  0  0  0  0  0  0  0999 V2000
   -1.5013   -0.8696    1.5420 C   0  0  0  0  0  0  0  0  0  0  0  0
   -2.9057   -4.8646    5.3417 C   0  0  0  0  0  0  0  0  0  0  0  0
    0.9108    2.5077    0.5495 C   0  0  1  0  0  0  0  0  0  0  0  0
    1.8785    1.8957   -0.4210 C   0  0  0  0  0  0  0  0  0  0  0  0
   -4.1389   -1.5070   -5.1874 N   0  0  0  0  0  0  0  0  0  0  0  0
   -4.7696   -0.7286   -4.1429 C   0  0  0  0  0  0  0  0  0  0  0  0
   -4.3219   -1.1862   -2.7649 C   0  0  0  0  0  0  0  0  0  0  0  0
   -2.8754   -1.1499   -2.6693 N   0  0  0  0  0  0  0  0  0  0  0  0
   -2.1594   -0.8364   -1.5479 C   0  0  0  0  0  0  0  0  0  0  0  0
   -0.9434   -0.9837   -1.4901 O   0  0  0  0  0  0  0  0  0  0  0  0
   -2.8503   -0.3501   -0.4796 N   0  0  0  0  0  0  0  0  0  0  0  0
   -2.1391    0.1974    0.6468 C   0  0  2  0  0  0  0  0  0  0  0  0
   -2.4874   -1.9565    1.9499 C   0  0  0  0  0  0  0  0  0  0  0  0
   -1.8227   -2.9462    2.8840 C   0  0  0  0  0  0  0  0  0  0  0  0
   -2.7807   -3.9464    3.2114 O   0  0  0  0  0  0  0  0  0  0  0  0
   -2.2487   -4.8495    4.1077 N   0  0  0  0  0  0  0  0  0  0  0  0
   -2.5051   -5.9167    6.1209 N   0  0  0  0  0  0  0  0  0  0  0  0
   -3.6987   -3.9710    5.7841 N   0  0  0  0  0  0  0  0  0  0  0  0
   -1.1994    1.3170    0.1713 C   0  0  0  0  0  0  0  0  0  0  0  0
   -1.5110    2.0351   -0.7610 O   0  0  0  0  0  0  0  0  0  0  0  0
   -0.0828    1.5144    0.8999 N   0  0  0  0  0  0  0  0  0  0  0  0
    2.0182    2.3143   -1.6709 C   0  0  0  0  0  0  0  0  0  0  0  0
    3.1986    1.5633   -2.7320 S   0  0  1  0  0  0  0  0  0  0  0  0
    3.8081    2.6091   -3.5454 O   0  0  0  0  0  0  0  0  0  0  0  0
    4.0426    0.6545   -1.9695 O   0  0  0  0  0  0  0  0  0  0  0  0
    2.1795    0.5701   -3.8439 C   0  0  0  0  0  0  0  0  0  0  0  0
    2.3721   -0.7252   -3.8238 N   0  0  0  0  0  0  0  0  0  0  0  0
    1.6498   -1.4212   -4.6994 C   0  0  0  0  0  0  0  0  0  0  0  0
    0.7557   -0.8043   -5.5569 C   0  0  0  0  0  0  0  0  0  0  0  0
    0.6303    0.5726   -5.4547 C   0  0  0  0  0  0  0  0  0  0  0  0
    1.3573    1.2723   -4.5918 N   0  0  0  0  0  0  0  0  0  0  0  0
    1.6366    2.9966    1.8007 C   0  0  0  0  0  0  0  0  0  0  0  0
    0.7255    3.7988    2.7302 C   0  0  0  0  0  0  0  0  0  0  0  0
    1.4427    4.2200    3.9822 C   0  0  0  0  0  0  0  0  0  0  0  0
    1.3611    3.4545    5.1430 C   0  0  0  0  0  0  0  0  0  0  0  0
    2.0510    3.8237    6.2906 C   0  0  0  0  0  0  0  0  0  0  0  0
    2.8384    4.9675    6.2928 C   0  0  0  0  0  0  0  0  0  0  0  0
    2.9282    5.7389    5.1407 C   0  0  0  0  0  0  0  0  0  0  0  0
    2.2359    5.3657    3.9968 C   0  0  0  0  0  0  0  0  0  0  0  0
   -2.2182   -1.8853   -3.7325 C   0  0  0  0  0  0  0  0  0  0  0  0
   -2.6985   -1.4034   -5.0868 C   0  0  0  0  0  0  0  0  0  0  0  0
   -0.6409   -1.3182    1.0422 H   0  0  0  0  0  0  0  0  0  0  0  0
   -1.1336   -0.3860    2.4527 H   0  0  0  0  0  0  0  0  0  0  0  0
    0.4003    3.3480    0.0765 H   0  0  0  0  0  0  0  0  0  0  0  0
    2.4686    1.0646   -0.0458 H   0  0  0  0  0  0  0  0  0  0  0  0
   -4.1507   -1.7491   -7.2603 H   0  0  0  0  0  0  0  0  0  0  0  0
   -5.6936   -1.2605   -6.5597 H   0  0  0  0  0  0  0  0  0  0  0  0
   -4.3938   -0.0723   -6.7457 H   0  0  0  0  0  0  0  0  0  0  0  0
   -5.8534   -0.8467   -4.2124 H   0  0  0  0  0  0  0  0  0  0  0  0
   -4.7925   -0.5260   -2.0402 H   0  0  0  0  0  0  0  0  0  0  0  0
   -4.6916   -2.2001   -2.5709 H   0  0  0  0  0  0  0  0  0  0  0  0
   -3.8115   -0.0773   -0.5689 H   0  0  0  0  0  0  0  0  0  0  0  0
   -2.8974    0.7089    1.2489 H   0  0  0  0  0  0  0  0  0  0  0  0
   -3.3529   -1.5069    2.4467 H   0  0  0  0  0  0  0  0  0  0  0  0
   -2.8575   -2.4756    1.0635 H   0  0  0  0  0  0  0  0  0  0  0  0
   -0.9512   -3.4023    2.4005 H   0  0  0  0  0  0  0  0  0  0  0  0
   -1.4743   -2.4427    3.7928 H   0  0  0  0  0  0  0  0  0  0  0  0
   -2.1754   -5.7556    3.6585 H   0  0  0  0  0  0  0  0  0  0  0  0
   -2.1761   -6.7511    5.6623 H   0  0  0  0  0  0  0  0  0  0  0  0
   -3.1064   -6.1070    6.9053 H   0  0  0  0  0  0  0  0  0  0  0  0
   -3.8580   -3.2582    5.0831 H   0  0  0  0  0  0  0  0  0  0  0  0
    0.1863    0.8278    1.5863 H   0  0  0  0  0  0  0  0  0  0  0  0
    1.4516    3.1257   -2.1112 H   0  0  0  0  0  0  0  0  0  0  0  0
    1.7932   -2.4944   -4.7116 H   0  0  0  0  0  0  0  0  0  0  0  0
    0.1796   -1.3724   -6.2722 H   0  0  0  0  0  0  0  0  0  0  0  0
   -0.0589    1.1248   -6.0812 H   0  0  0  0  0  0  0  0  0  0  0  0
    2.0618    2.1407    2.3349 H   0  0  0  0  0  0  0  0  0  0  0  0
    2.4821    3.6163    1.4924 H   0  0  0  0  0  0  0  0  0  0  0  0
    0.3598    4.6793    2.1954 H   0  0  0  0  0  0  0  0  0  0  0  0
   -0.1524    3.2041    2.9927 H   0  0  0  0  0  0  0  0  0  0  0  0
    0.7455    2.5621    5.1527 H   0  0  0  0  0  0  0  0  0  0  0  0
    1.9695    3.2189    7.1848 H   0  0  0  0  0  0  0  0  0  0  0  0
    3.3762    5.2578    7.1862 H   0  0  0  0  0  0  0  0  0  0  0  0
    3.5360    6.6348    5.1336 H   0  0  0  0  0  0  0  0  0  0  0  0
    2.3080    5.9748    3.1029 H   0  0  0  0  0  0  0  0  0  0  0  0
   -1.1442   -1.7465   -3.6513 H   0  0  0  0  0  0  0  0  0  0  0  0
   -2.4246   -2.9584   -3.6342 H   0  0  0  0  0  0  0  0  0  0  0  0
   -2.2408   -2.0222   -5.8630 H   0  0  0  0  0  0  0  0  0  0  0  0
   -2.3510   -0.3664   -5.2486 H   0  0  0  0  0  0  0  0  0  0  0  0
   -4.5529    0.3489   -4.2483 H   0  0  0  0  0  0  0  0  0  0  0  0
   -4.6133   -1.1221   -6.4968 C   0  0  0  0  0  0  0  0  0  0  0  0
 36 37  1  0
 36 35  2  0
 37 38  2  0
 81  5  1  0
 35 34  1  0
  6  5  1  0
  6  7  1  0
 38 39  1  0
  5 41  1  0
 18  2  2  0
 34 39  2  0
 34 33  1  0
  7  8  1  0
 41 40  1  0
 33 32  1  0
  2 17  1  0
  2 16  1  0
 10  9  2  0
  8  9  1  0
  8 40  1  0
 28 27  2  0
 28 29  1  0
 32  3  1  0
  9 11  1  0
 27 26  1  0
 16 15  1  0
 29 30  2  0
 11 12  1  0
 22  4  2  0
 23 22  1  1
 21  3  1  0
 21 19  1  0
 12 19  1  0
 12  1  1  0
 26 23  1  0
 26 31  2  0
 24 23  2  0
  3  4  1  0
 19 20  2  0
 15 14  1  0
 23 25  2  0
 30 31  1  0
 14 13  1  0
  1 13  1  0
  1 42  1  0
  1 43  1  0
  3 44  1  6
  4 45  1  0
 81 46  1  0
 81 47  1  0
 81 48  1  0
  6 80  1  0
  6 49  1  0
  7 50  1  0
  7 51  1  0
 11 52  1  0
 12 53  1  1
 13 54  1  0
 13 55  1  0
 14 56  1  0
 14 57  1  0
 16 58  1  0
 17 59  1  0
 17 60  1  0
 18 61  1  0
 21 62  1  0
 22 63  1  0
 28 64  1  0
 29 65  1  0
 30 66  1  0
 32 67  1  0
 32 68  1  0
 33 69  1  0
 33 70  1  0
 35 71  1  0
 36 72  1  0
 37 73  1  0
 38 74  1  0
 39 75  1  0
 40 76  1  0
 40 77  1  0
 41 78  1  0
 41 79  1  0
M  END
