
     RDKit          3D

 53 57  0  0  0  0  0  0  0  0999 V2000
    2.9901    3.4910    0.3753 C   0  0  0  0  0  0  0  0  0  0  0  0
   -1.8202   -1.5660    2.6784 C   0  0  0  0  0  0  0  0  0  0  0  0
    5.4222    1.3262   -2.2137 C   0  0  0  0  0  0  0  0  0  0  0  0
   -2.9883   -2.2500    2.8527 C   0  0  0  0  0  0  0  0  0  0  0  0
    5.2664    0.3971   -1.2026 C   0  0  0  0  0  0  0  0  0  0  0  0
   -5.2810   -0.3395   -2.3651 C   0  0  0  0  0  0  0  0  0  0  0  0
   -6.1741   -1.7142    0.2654 C   0  0  0  0  0  0  0  0  0  0  0  0
   -5.2693    0.6713   -3.3211 C   0  0  0  0  0  0  0  0  0  0  0  0
   -6.1976   -2.6133    1.3493 C   0  0  0  0  0  0  0  0  0  0  0  0
   -2.7129   -0.4511    0.7444 C   0  0  0  0  0  0  0  0  0  0  0  0
    3.0854    1.0551   -2.8033 C   0  0  0  0  0  0  0  0  0  0  0  0
    0.8425   -0.5454    1.6636 C   0  0  0  0  0  0  0  0  0  0  0  0
   -4.8234    1.3861   -0.8308 C   0  0  0  0  0  0  0  0  0  0  0  0
   -0.3608    1.3951    1.0274 C   0  0  0  0  0  0  0  0  0  0  0  0
   -1.6628   -0.6511    1.6088 C   0  0  0  0  0  0  0  0  0  0  0  0
    4.3235    1.6367   -2.9944 C   0  0  0  0  0  0  0  0  0  0  0  0
   -5.0404    0.0223   -1.0576 C   0  0  0  0  0  0  0  0  0  0  0  0
   -5.0568   -0.9528    0.0472 C   0  0  0  0  0  0  0  0  0  0  0  0
   -4.0774   -2.0556    1.9739 C   0  0  0  0  0  0  0  0  0  0  0  0
    4.0363   -0.2129   -0.9778 C   0  0  0  0  0  0  0  0  0  0  0  0
   -0.3915    0.0672    1.4294 C   0  0  0  0  0  0  0  0  0  0  0  0
   -3.9417   -1.1241    0.9130 C   0  0  0  0  0  0  0  0  0  0  0  0
    2.0085    0.1590    1.4696 C   0  0  0  0  0  0  0  0  0  0  0  0
    2.9601    0.1304   -1.7871 C   0  0  0  0  0  0  0  0  0  0  0  0
    1.9101    1.5006    1.0528 C   0  0  0  0  0  0  0  0  0  0  0  0
   -5.2033   -2.7774    2.1782 N   0  0  0  0  0  0  0  0  0  0  0  0
   -5.0480    1.9407   -3.0337 N   0  0  0  0  0  0  0  0  0  0  0  0
    0.7558    2.0923    0.8506 N   0  0  0  0  0  0  0  0  0  0  0  0
   -4.8322    2.2951   -1.7854 N   0  0  0  0  0  0  0  0  0  0  0  0
    2.8987   -2.3507    0.0313 O   0  0  0  0  0  0  0  0  0  0  0  0
    5.2161   -1.7346    0.7877 O   0  0  0  0  0  0  0  0  0  0  0  0
    3.0475    2.1603    0.8757 O   0  0  0  0  0  0  0  0  0  0  0  0
    1.7651   -0.4171   -1.5903 F   0  0  0  0  0  0  0  0  0  0  0  0
    3.8809   -1.3459    0.3768 S   0  0  1  0  0  0  0  0  0  0  0  0
    2.4938    3.5316   -0.5948 H   0  0  0  0  0  0  0  0  0  0  0  0
    2.4734    4.1580    1.0653 H   0  0  0  0  0  0  0  0  0  0  0  0
    4.0231    3.8093    0.2665 H   0  0  0  0  0  0  0  0  0  0  0  0
   -1.0058   -1.7188    3.3753 H   0  0  0  0  0  0  0  0  0  0  0  0
    6.3787    1.7978   -2.3909 H   0  0  0  0  0  0  0  0  0  0  0  0
   -3.1039   -2.9529    3.6674 H   0  0  0  0  0  0  0  0  0  0  0  0
    6.1172    0.1454   -0.5851 H   0  0  0  0  0  0  0  0  0  0  0  0
   -5.4620   -1.3667   -2.6520 H   0  0  0  0  0  0  0  0  0  0  0  0
   -7.0479   -1.6168   -0.3650 H   0  0  0  0  0  0  0  0  0  0  0  0
   -5.4420    0.4467   -4.3657 H   0  0  0  0  0  0  0  0  0  0  0  0
   -7.0892   -3.2047    1.5265 H   0  0  0  0  0  0  0  0  0  0  0  0
   -2.5817    0.2064   -0.1054 H   0  0  0  0  0  0  0  0  0  0  0  0
    2.2378    1.3094   -3.4264 H   0  0  0  0  0  0  0  0  0  0  0  0
    0.9000   -1.5786    1.9814 H   0  0  0  0  0  0  0  0  0  0  0  0
   -4.6514    1.7614    0.1714 H   0  0  0  0  0  0  0  0  0  0  0  0
   -1.2855    1.9365    0.8586 H   0  0  0  0  0  0  0  0  0  0  0  0
    3.9803    0.1203    2.0734 H   0  0  0  0  0  0  0  0  0  0  0  0
    3.2663   -0.4619    1.6453 N   0  0  0  0  0  0  0  0  0  0  0  0
    4.4563    2.5318   -3.9714 F   0  0  0  0  0  0  0  0  0  0  0  0
  1 32  1  0
  1 35  1  0
  1 36  1  0
  1 37  1  0
 15  2  2  0
  2  4  1  0
  2 38  1  0
  5  3  2  0
  3 16  1  0
  3 39  1  0
 19  4  2  0
  4 40  1  0
 20  5  1  0
  5 41  1  0
  8  6  2  0
  6 17  1  0
  6 42  1  0
 18  7  2  0
  7  9  1  0
  7 43  1  0
  8 27  1  0
  8 44  1  0
  9 26  2  0
  9 45  1  0
 10 15  1  0
 10 22  2  0
 10 46  1  0
 24 11  1  0
 11 16  2  0
 11 47  1  0
 23 12  2  0
 12 21  1  0
 12 48  1  0
 29 13  1  0
 17 13  2  0
 13 49  1  0
 21 14  2  0
 28 14  1  0
 14 50  1  0
 21 15  1  0
 16 53  1  0
 17 18  1  0
 18 22  1  0
 22 19  1  0
 19 26  1  0
 34 20  1  0
 20 24  2  0
 52 23  1  0
 23 25  1  0
 33 24  1  0
 32 25  1  0
 25 28  2  0
 27 29  2  0
 34 52  1  1
 52 51  1  0
 30 34  2  0
 34 31  2  0
M  END
