
     RDKit          3D

 43 46  0  0  0  0  0  0  0  0999 V2000
    0.1445   -1.6644   -0.5424 O   0  0  0  0  0  0  0  0  0  0  0  0
    0.5977   -0.7163    0.0668 C   0  0  0  0  0  0  0  0  0  0  0  0
    2.0656   -0.3146    0.0437 C   0  0  1  0  0  0  0  0  0  0  0  0
    2.8944   -1.4304   -0.6071 C   0  0  0  0  0  0  0  0  0  0  0  0
    4.3675   -1.0235   -0.6765 C   0  0  1  0  0  0  0  0  0  0  0  0
    4.5071    0.2487   -1.5137 C   0  0  0  0  0  0  0  0  0  0  0  0
    3.6968    1.3717   -0.8659 C   0  0  1  0  0  0  0  0  0  0  0  0
    2.2211    0.9688   -0.8001 C   0  0  0  0  0  0  0  0  0  0  0  0
    4.8983   -0.7666    0.7342 C   0  0  0  0  0  0  0  0  0  0  0  0
    4.0870    0.3548    1.3828 C   0  0  1  0  0  0  0  0  0  0  0  0
    4.2179    1.6312    0.5486 C   0  0  0  0  0  0  0  0  0  0  0  0
    2.6135   -0.0514    1.4595 C   0  0  0  0  0  0  0  0  0  0  0  0
   -0.2050    0.0781    0.8309 N   0  0  0  0  0  0  0  0  0  0  0  0
   -1.5552   -0.0686    0.8007 N   0  0  0  0  0  0  0  0  0  0  0  0
   -2.2725    0.3972   -0.2495 C   0  0  0  0  0  0  0  0  0  0  0  0
   -1.7768    0.9991   -1.1797 O   0  0  0  0  0  0  0  0  0  0  0  0
   -3.7416    0.1250   -0.1757 C   0  0  0  0  0  0  0  0  0  0  0  0
   -4.4605    0.0341   -1.3608 C   0  0  0  0  0  0  0  0  0  0  0  0
   -5.8228   -0.2097   -1.2932 C   0  0  0  0  0  0  0  0  0  0  0  0
   -6.4867   -0.3447   -0.1507 N   0  0  0  0  0  0  0  0  0  0  0  0
   -5.7991   -0.2389    0.9784 C   0  0  0  0  0  0  0  0  0  0  0  0
   -4.4314   -0.0082    1.0234 C   0  0  0  0  0  0  0  0  0  0  0  0
    2.7917   -2.3577   -0.0353 H   0  0  0  0  0  0  0  0  0  0  0  0
    2.5205   -1.6337   -1.6140 H   0  0  0  0  0  0  0  0  0  0  0  0
    4.9360   -1.8340   -1.1421 H   0  0  0  0  0  0  0  0  0  0  0  0
    5.5600    0.5385   -1.5888 H   0  0  0  0  0  0  0  0  0  0  0  0
    4.1543    0.0709   -2.5350 H   0  0  0  0  0  0  0  0  0  0  0  0
    3.7834    2.2825   -1.4654 H   0  0  0  0  0  0  0  0  0  0  0  0
    1.8314    0.7966   -1.8087 H   0  0  0  0  0  0  0  0  0  0  0  0
    1.6342    1.7873   -0.3717 H   0  0  0  0  0  0  0  0  0  0  0  0
    4.8320   -1.6784    1.3366 H   0  0  0  0  0  0  0  0  0  0  0  0
    5.9569   -0.4904    0.6953 H   0  0  0  0  0  0  0  0  0  0  0  0
    4.4528    0.5389    2.3971 H   0  0  0  0  0  0  0  0  0  0  0  0
    5.2637    1.9517    0.5117 H   0  0  0  0  0  0  0  0  0  0  0  0
    3.6541    2.4463    1.0134 H   0  0  0  0  0  0  0  0  0  0  0  0
    2.0577    0.7465    1.9609 H   0  0  0  0  0  0  0  0  0  0  0  0
    2.4998   -0.9486    2.0756 H   0  0  0  0  0  0  0  0  0  0  0  0
    0.1378    0.9275    1.2511 H   0  0  0  0  0  0  0  0  0  0  0  0
   -1.9578   -0.7094    1.4677 H   0  0  0  0  0  0  0  0  0  0  0  0
   -3.9752    0.1419   -2.3207 H   0  0  0  0  0  0  0  0  0  0  0  0
   -6.4021   -0.2991   -2.2049 H   0  0  0  0  0  0  0  0  0  0  0  0
   -6.3587   -0.3400    1.9011 H   0  0  0  0  0  0  0  0  0  0  0  0
   -3.9440    0.0858    1.9848 H   0  0  0  0  0  0  0  0  0  0  0  0
  1  2  2  0
  8  7  1  0
  8  3  1  0
  3  2  1  1
  2 13  1  0
 11  7  1  0
 11 10  1  0
  7  6  1  0
 12  3  1  0
 12 10  1  0
  3  4  1  0
 22 21  2  0
 22 17  1  0
 10  9  1  0
 13 14  1  0
 14 15  1  0
 21 20  1  0
 15 17  1  0
 15 16  2  0
  6  5  1  0
 17 18  2  0
  4  5  1  0
 20 19  2  0
  9  5  1  0
 18 19  1  0
  4 23  1  0
  4 24  1  0
  5 25  1  6
  6 26  1  0
  6 27  1  0
  7 28  1  6
  8 29  1  0
  8 30  1  0
  9 31  1  0
  9 32  1  0
 10 33  1  1
 11 34  1  0
 11 35  1  0
 12 36  1  0
 12 37  1  0
 13 38  1  0
 14 39  1  0
 18 40  1  0
 19 41  1  0
 21 42  1  0
 22 43  1  0
M  END
