
     RDKit          3D

 10  9  0  0  0  0  0  0  0  0999 V2000
   -0.5982   -0.2549    0.6888 C   0  0  0  0  0  0  0  0  0  0  0  0
    0.5039    0.2362    1.4182 O   0  0  0  0  0  0  0  0  0  0  0  0
   -0.5788    0.3169   -0.7061 C   0  0  0  0  0  0  0  0  0  0  0  0
    0.5540   -0.1569   -1.3989 O   0  0  0  0  0  0  0  0  0  0  0  0
   -0.5915   -1.3516    0.6304 H   0  0  0  0  0  0  0  0  0  0  0  0
   -1.5528    0.0333    1.1472 H   0  0  0  0  0  0  0  0  0  0  0  0
    0.4724   -0.1470    2.2989 H   0  0  0  0  0  0  0  0  0  0  0  0
   -1.5133    0.0163   -1.1968 H   0  0  0  0  0  0  0  0  0  0  0  0
   -0.5900    1.4139   -0.6480 H   0  0  0  0  0  0  0  0  0  0  0  0
    0.5239    0.1943   -2.2929 H   0  0  0  0  0  0  0  0  0  0  0  0
  1  2  1  0
  1  3  1  0
  1  5  1  0
  1  6  1  0
  2  7  1  0
  3  4  1  0
  3  8  1  0
  3  9  1  0
  4 10  1  0
M  END
