
     RDKit          3D

 32 32  0  0  0  0  0  0  0  0999 V2000
   -0.6573   -0.6117   -0.6697 C   0  0  1  0  0  0  0  0  0  0  0  0
   -1.9523   -0.0576   -0.1223 C   0  0  0  0  0  0  0  0  0  0  0  0
   -3.0103    0.2161   -0.9807 C   0  0  0  0  0  0  0  0  0  0  0  0
   -4.2115    0.7129   -0.4957 C   0  0  0  0  0  0  0  0  0  0  0  0
   -4.3330    0.9316    0.8621 C   0  0  0  0  0  0  0  0  0  0  0  0
   -3.3006    0.6728    1.7442 C   0  0  0  0  0  0  0  0  0  0  0  0
   -2.1090    0.1730    1.2428 C   0  0  0  0  0  0  0  0  0  0  0  0
   -5.4897    1.4109    1.3413 F   0  0  0  0  0  0  0  0  0  0  0  0
    0.4526    0.2355   -0.3255 N   0  0  0  0  0  0  0  0  0  0  0  0
    1.6930   -0.0561   -0.7512 C   0  0  0  0  0  0  0  0  0  0  0  0
    1.9225   -1.0464   -1.4298 O   0  0  0  0  0  0  0  0  0  0  0  0
    2.7808    0.9213   -0.3452 C   0  0  1  0  0  0  0  0  0  0  0  0
    3.8103    0.1596    0.4904 C   0  0  0  0  0  0  0  0  0  0  0  0
    5.0538    1.3260    1.1409 S   0  0  0  0  0  0  0  0  0  0  0  0
    3.3835    1.5565   -1.5964 C   0  0  0  0  0  0  0  0  0  0  0  0
   -0.4580   -2.0128   -0.0996 C   0  0  0  0  0  0  0  0  0  0  0  0
    0.1621   -2.2576    0.9003 O   0  0  0  0  0  0  0  0  0  0  0  0
   -1.1150   -2.9096   -0.8167 O   0  0  0  0  0  0  0  0  0  0  0  0
   -0.7441   -0.6938   -1.7566 H   0  0  0  0  0  0  0  0  0  0  0  0
   -2.9005    0.0452   -2.0440 H   0  0  0  0  0  0  0  0  0  0  0  0
   -5.0338    0.9278   -1.1650 H   0  0  0  0  0  0  0  0  0  0  0  0
   -3.4242    0.8525    2.8039 H   0  0  0  0  0  0  0  0  0  0  0  0
   -1.3022   -0.0370    1.9342 H   0  0  0  0  0  0  0  0  0  0  0  0
    0.2854    1.0658    0.2197 H   0  0  0  0  0  0  0  0  0  0  0  0
    2.3437    1.7079    0.2773 H   0  0  0  0  0  0  0  0  0  0  0  0
    3.3223   -0.3339    1.3312 H   0  0  0  0  0  0  0  0  0  0  0  0
    4.3030   -0.5984   -0.1177 H   0  0  0  0  0  0  0  0  0  0  0  0
    5.7306    0.4456    1.8850 H   0  0  0  0  0  0  0  0  0  0  0  0
    2.6139    2.0426   -2.1964 H   0  0  0  0  0  0  0  0  0  0  0  0
    4.1192    2.3161   -1.3345 H   0  0  0  0  0  0  0  0  0  0  0  0
    3.8785    0.8088   -2.2163 H   0  0  0  0  0  0  0  0  0  0  0  0
   -1.0402   -3.7866   -0.4105 H   0  0  0  0  0  0  0  0  0  0  0  0
 15 12  1  0
 12 10  1  0
 12 13  1  0
  8  5  1  0
 11 10  2  0
  6  5  2  0
  6  7  1  0
 10  9  1  0
  5  4  1  0
  7  2  2  0
  4  3  2  0
  9  1  1  0
  2  3  1  0
  2  1  1  0
 13 14  1  0
  1 16  1  0
 16 17  2  0
 16 18  1  0
  1 19  1  6
  3 20  1  0
  4 21  1  0
  6 22  1  0
  7 23  1  0
  9 24  1  0
 12 25  1  1
 13 26  1  0
 13 27  1  0
 14 28  1  0
 15 29  1  0
 15 30  1  0
 15 31  1  0
 18 32  1  0
M  END
