
     RDKit          3D

 28 29  0  0  0  0  0  0  0  0999 V2000
    3.2398   -1.0335    1.4699 N   0  0  0  0  0  0  0  0  0  0  0  0
    3.0107   -0.7141   -0.1347 S   0  0  1  0  0  0  0  0  0  0  0  0
    4.1370   -0.0182   -0.7417 O   0  0  0  0  0  0  0  0  0  0  0  0
    2.5723   -1.9672   -0.7319 O   0  0  0  0  0  0  0  0  0  0  0  0
    1.6521    0.4226   -0.0599 C   0  0  0  0  0  0  0  0  0  0  0  0
    0.3673   -0.0927   -0.0357 C   0  0  0  0  0  0  0  0  0  0  0  0
   -0.7160    0.7833    0.0233 C   0  0  0  0  0  0  0  0  0  0  0  0
   -0.4754    2.1599    0.0720 C   0  0  0  0  0  0  0  0  0  0  0  0
    0.8234    2.6408    0.0461 C   0  0  0  0  0  0  0  0  0  0  0  0
    1.9096    1.7834   -0.0283 C   0  0  0  0  0  0  0  0  0  0  0  0
   -2.0111    0.2561    0.0277 N   0  0  0  0  0  0  0  0  0  0  0  0
   -2.1541   -1.1200    0.0406 N   0  0  0  0  0  0  0  0  0  0  0  0
   -3.3960   -1.4031    0.0057 C   0  0  0  0  0  0  0  0  0  0  0  0
   -4.2505   -0.1879   -0.0350 C   0  0  0  0  0  0  0  0  0  0  0  0
   -3.2221    0.9119   -0.0227 C   0  0  0  0  0  0  0  0  0  0  0  0
   -3.4020    2.1080   -0.0515 O   0  0  0  0  0  0  0  0  0  0  0  0
    3.6489   -0.2509    1.9708 H   0  0  0  0  0  0  0  0  0  0  0  0
    3.8082   -1.8659    1.6018 H   0  0  0  0  0  0  0  0  0  0  0  0
    0.2036   -1.1593   -0.0690 H   0  0  0  0  0  0  0  0  0  0  0  0
   -1.2889    2.8634    0.1256 H   0  0  0  0  0  0  0  0  0  0  0  0
    0.9858    3.7095    0.0794 H   0  0  0  0  0  0  0  0  0  0  0  0
    2.9177    2.1716   -0.0601 H   0  0  0  0  0  0  0  0  0  0  0  0
   -3.0819   -3.5097    0.0624 H   0  0  0  0  0  0  0  0  0  0  0  0
   -4.5742   -2.9570    0.8458 H   0  0  0  0  0  0  0  0  0  0  0  0
   -4.4730   -2.9879   -0.9044 H   0  0  0  0  0  0  0  0  0  0  0  0
   -4.8754   -0.1376   -0.9304 H   0  0  0  0  0  0  0  0  0  0  0  0
   -4.9204   -0.1134    0.8256 H   0  0  0  0  0  0  0  0  0  0  0  0
   -3.8997   -2.7951    0.0037 C   0  0  0  0  0  0  0  0  0  0  0  0
  2  1  1  1
  1 17  1  0
  1 18  1  0
  4  2  2  0
  5  2  1  0
  2  3  2  0
  6  5  2  0
  5 10  1  0
  7  6  1  0
  6 19  1  0
 11  7  1  0
  7  8  2  0
  8  9  1  0
  8 20  1  0
  9 10  2  0
  9 21  1  0
 10 22  1  0
 15 11  1  0
 12 11  1  0
 13 12  2  0
 28 13  1  0
 28 23  1  0
 28 24  1  0
 28 25  1  0
 14 13  1  0
 14 15  1  0
 14 26  1  0
 14 27  1  0
 15 16  2  0
M  END
