
     RDKit          3D

 30 29  0  0  0  0  0  0  0  0999 V2000
    2.5879    1.8668    0.1561 N   0  0  0  0  0  0  0  0  0  0  0  0
    2.4622    0.4477    0.3852 C   0  0  1  0  0  0  0  0  0  0  0  0
    1.2233   -0.1747   -0.2783 C   0  0  0  0  0  0  0  0  0  0  0  0
   -0.0568    0.3631    0.3226 C   0  0  0  0  0  0  0  0  0  0  0  0
   -1.2612   -0.3328   -0.2750 C   0  0  0  0  0  0  0  0  0  0  0  0
   -2.5445    0.2259    0.3381 C   0  0  0  0  0  0  0  0  0  0  0  0
   -3.7399   -0.4323   -0.1489 N   0  0  0  0  0  0  0  0  0  0  0  0
   -4.9620    0.2036    0.3035 C   0  0  0  0  0  0  0  0  0  0  0  0
   -6.2103   -0.3396   -0.3727 C   0  0  0  0  0  0  0  0  0  0  0  0
    3.6830   -0.3507   -0.0666 C   0  0  0  0  0  0  0  0  0  0  0  0
    4.4997   -0.0712   -0.9498 O   0  0  0  0  0  0  0  0  0  0  0  0
    3.8755   -1.5173    0.6053 O   0  0  0  0  0  0  0  0  0  0  0  0
    3.4592    2.2080    0.5145 H   0  0  0  0  0  0  0  0  0  0  0  0
    2.5255    2.0833   -0.8192 H   0  0  0  0  0  0  0  0  0  0  0  0
    2.3816    0.2932    1.5058 H   0  0  0  0  0  0  0  0  0  0  0  0
    1.2388    0.0206   -1.3821 H   0  0  0  0  0  0  0  0  0  0  0  0
    1.2764   -1.2863   -0.1275 H   0  0  0  0  0  0  0  0  0  0  0  0
   -0.0449    0.2085    1.4339 H   0  0  0  0  0  0  0  0  0  0  0  0
   -0.1302    1.4682    0.1430 H   0  0  0  0  0  0  0  0  0  0  0  0
   -1.2691   -0.1839   -1.3871 H   0  0  0  0  0  0  0  0  0  0  0  0
   -1.1958   -1.4357   -0.0853 H   0  0  0  0  0  0  0  0  0  0  0  0
   -2.5120    0.0756    1.4546 H   0  0  0  0  0  0  0  0  0  0  0  0
   -2.5679    1.3429    0.1560 H   0  0  0  0  0  0  0  0  0  0  0  0
   -3.7252   -0.4988   -1.1496 H   0  0  0  0  0  0  0  0  0  0  0  0
   -5.0370    0.0228    1.4144 H   0  0  0  0  0  0  0  0  0  0  0  0
   -4.9363    1.3253    0.1538 H   0  0  0  0  0  0  0  0  0  0  0  0
   -6.1937   -0.1383   -1.4713 H   0  0  0  0  0  0  0  0  0  0  0  0
   -6.3044   -1.4406   -0.2166 H   0  0  0  0  0  0  0  0  0  0  0  0
   -7.1061    0.1606    0.0662 H   0  0  0  0  0  0  0  0  0  0  0  0
    4.6670   -1.9659    0.2631 H   0  0  0  0  0  0  0  0  0  0  0  0
  1  2  1  0
  1 13  1  0
  1 14  1  0
  2  3  1  0
  2 10  1  0
  2 15  1  1
  3  4  1  0
  3 16  1  0
  3 17  1  0
  4  5  1  0
  4 18  1  0
  4 19  1  0
  5  6  1  0
  5 20  1  0
  5 21  1  0
  6  7  1  0
  6 22  1  0
  6 23  1  0
  7  8  1  0
  7 24  1  0
  8  9  1  0
  8 25  1  0
  8 26  1  0
  9 27  1  0
  9 28  1  0
  9 29  1  0
 10 11  2  0
 10 12  1  0
 12 30  1  0
M  END
