
     RDKit          3D

 62 61  0  0  0  0  0  0  0  0999 V2000
   11.7996   -0.4727   -0.0038 C   0  0  0  0  0  0  0  0  0  0  0  0
   10.5510    0.3983    0.0218 C   0  0  0  0  0  0  0  0  0  0  0  0
    9.2640   -0.4175   -0.0024 C   0  0  0  0  0  0  0  0  0  0  0  0
    8.0034    0.4379    0.0203 C   0  0  0  0  0  0  0  0  0  0  0  0
    6.7203   -0.3834   -0.0100 C   0  0  0  0  0  0  0  0  0  0  0  0
    5.4571    0.4684    0.0155 C   0  0  0  0  0  0  0  0  0  0  0  0
    4.1763   -0.3565   -0.0132 C   0  0  0  0  0  0  0  0  0  0  0  0
    2.9108    0.4922    0.0058 C   0  0  0  0  0  0  0  0  0  0  0  0
    1.6320   -0.3359   -0.0176 C   0  0  0  0  0  0  0  0  0  0  0  0
    0.3651    0.5105   -0.0009 C   0  0  0  0  0  0  0  0  0  0  0  0
   -0.9120   -0.3201   -0.0241 C   0  0  0  0  0  0  0  0  0  0  0  0
   -2.1798    0.5248   -0.0074 C   0  0  0  0  0  0  0  0  0  0  0  0
   -3.4538   -0.3102   -0.0293 C   0  0  0  0  0  0  0  0  0  0  0  0
   -4.7197    0.5370   -0.0156 C   0  0  0  0  0  0  0  0  0  0  0  0
   -5.9868   -0.3151   -0.0315 C   0  0  0  0  0  0  0  0  0  0  0  0
   -7.2057    0.5863   -0.0209 C   0  0  0  0  0  0  0  0  0  0  0  0
   -8.5407   -0.1142   -0.0281 N   0  0  1  0  0  0  0  0  0  0  0  0
   -8.7010   -0.9680    1.1798 C   0  0  0  0  0  0  0  0  0  0  0  0
   -9.6025    0.9304   -0.0173 C   0  0  0  0  0  0  0  0  0  0  0  0
   -8.7015   -0.9430   -1.2532 C   0  0  0  0  0  0  0  0  0  0  0  0
   12.7111    0.1259    0.0132 H   0  0  0  0  0  0  0  0  0  0  0  0
   11.8287   -1.1427    0.8578 H   0  0  0  0  0  0  0  0  0  0  0  0
   11.8280   -1.0917   -0.9028 H   0  0  0  0  0  0  0  0  0  0  0  0
   10.5618    1.0312    0.9150 H   0  0  0  0  0  0  0  0  0  0  0  0
   10.5621    1.0816   -0.8332 H   0  0  0  0  0  0  0  0  0  0  0  0
    9.2556   -1.0525   -0.8960 H   0  0  0  0  0  0  0  0  0  0  0  0
    9.2537   -1.1019    0.8535 H   0  0  0  0  0  0  0  0  0  0  0  0
    8.0092    1.0697    0.9159 H   0  0  0  0  0  0  0  0  0  0  0  0
    8.0153    1.1244   -0.8338 H   0  0  0  0  0  0  0  0  0  0  0  0
    6.7144   -1.0135   -0.9067 H   0  0  0  0  0  0  0  0  0  0  0  0
    6.7101   -1.0717    0.8428 H   0  0  0  0  0  0  0  0  0  0  0  0
    5.4628    1.0993    0.9116 H   0  0  0  0  0  0  0  0  0  0  0  0
    5.4657    1.1558   -0.8380 H   0  0  0  0  0  0  0  0  0  0  0  0
    4.1735   -0.9912   -0.9067 H   0  0  0  0  0  0  0  0  0  0  0  0
    4.1664   -1.0405    0.8430 H   0  0  0  0  0  0  0  0  0  0  0  0
    2.9145    1.1294    0.8975 H   0  0  0  0  0  0  0  0  0  0  0  0
    2.9180    1.1736   -0.8525 H   0  0  0  0  0  0  0  0  0  0  0  0
    1.6298   -0.9745   -0.9083 H   0  0  0  0  0  0  0  0  0  0  0  0
    1.6247   -1.0158    0.8418 H   0  0  0  0  0  0  0  0  0  0  0  0
    0.3669    1.1491    0.8898 H   0  0  0  0  0  0  0  0  0  0  0  0
    0.3716    1.1904   -0.8603 H   0  0  0  0  0  0  0  0  0  0  0  0
   -0.9133   -0.9589   -0.9145 H   0  0  0  0  0  0  0  0  0  0  0  0
   -0.9181   -0.9997    0.8356 H   0  0  0  0  0  0  0  0  0  0  0  0
   -2.1793    1.1632    0.8832 H   0  0  0  0  0  0  0  0  0  0  0  0
   -2.1751    1.2038   -0.8674 H   0  0  0  0  0  0  0  0  0  0  0  0
   -3.4547   -0.9496   -0.9187 H   0  0  0  0  0  0  0  0  0  0  0  0
   -3.4602   -0.9863    0.8325 H   0  0  0  0  0  0  0  0  0  0  0  0
   -4.7206    1.1770    0.8728 H   0  0  0  0  0  0  0  0  0  0  0  0
   -4.7187    1.2083   -0.8804 H   0  0  0  0  0  0  0  0  0  0  0  0
   -5.9763   -0.9484   -0.9214 H   0  0  0  0  0  0  0  0  0  0  0  0
   -5.9793   -0.9754    0.8384 H   0  0  0  0  0  0  0  0  0  0  0  0
   -7.2034    1.2187    0.8678 H   0  0  0  0  0  0  0  0  0  0  0  0
   -7.2036    1.2380   -0.8955 H   0  0  0  0  0  0  0  0  0  0  0  0
   -8.5471   -0.3604    2.0678 H   0  0  0  0  0  0  0  0  0  0  0  0
   -9.7078   -1.3771    1.1884 H   0  0  0  0  0  0  0  0  0  0  0  0
   -7.9846   -1.7830    1.1586 H   0  0  0  0  0  0  0  0  0  0  0  0
   -9.4951    1.5568   -0.8986 H   0  0  0  0  0  0  0  0  0  0  0  0
  -10.5761    0.4479   -0.0244 H   0  0  0  0  0  0  0  0  0  0  0  0
   -9.4987    1.5361    0.8788 H   0  0  0  0  0  0  0  0  0  0  0  0
   -7.9818   -1.7553   -1.2512 H   0  0  0  0  0  0  0  0  0  0  0  0
   -9.7066   -1.3560   -1.2678 H   0  0  0  0  0  0  0  0  0  0  0  0
   -8.5524   -0.3164   -2.1287 H   0  0  0  0  0  0  0  0  0  0  0  0
  1  2  1  0
  1 21  1  0
  1 22  1  0
  1 23  1  0
  2  3  1  0
  2 24  1  0
  2 25  1  0
  3  4  1  0
  3 26  1  0
  3 27  1  0
  4  5  1  0
  4 28  1  0
  4 29  1  0
  5  6  1  0
  5 30  1  0
  5 31  1  0
  6  7  1  0
  6 32  1  0
  6 33  1  0
  7  8  1  0
  7 34  1  0
  7 35  1  0
  8  9  1  0
  8 36  1  0
  8 37  1  0
  9 10  1  0
  9 38  1  0
  9 39  1  0
 10 11  1  0
 10 40  1  0
 10 41  1  0
 11 12  1  0
 11 42  1  0
 11 43  1  0
 12 13  1  0
 12 44  1  0
 12 45  1  0
 13 14  1  0
 13 46  1  0
 13 47  1  0
 14 15  1  0
 14 48  1  0
 14 49  1  0
 15 16  1  0
 15 50  1  0
 15 51  1  0
 17 16  1  6
 16 52  1  0
 16 53  1  0
 17 18  1  0
 17 19  1  0
 17 20  1  0
 18 54  1  0
 18 55  1  0
 18 56  1  0
 19 57  1  0
 19 58  1  0
 19 59  1  0
 20 60  1  0
 20 61  1  0
 20 62  1  0
M  CHG  1  17   1
M  END
