
     RDKit          3D

 24 24  0  0  0  0  0  0  0  0999 V2000
   -0.7374   -0.6185   -1.5133 C   0  0  2  0  0  0  0  0  0  0  0  0
    0.7867   -0.6185   -1.5133 C   0  0  1  0  0  0  0  0  0  0  0  0
    1.3441   -0.6185   -0.1374 C   0  0  1  0  0  0  0  0  0  0  0  0
    0.7787    0.4903    0.6984 C   0  0  1  0  0  0  0  0  0  0  0  0
   -0.7531    0.4908    0.6939 C   0  0  1  0  0  0  0  0  0  0  0  0
   -1.2414    1.7124    1.4171 C   0  0  0  0  0  0  0  0  0  0  0  0
    1.2519   -1.7950   -2.2039 O   0  0  0  0  0  0  0  0  0  0  0  0
    1.0311   -1.8905    0.4961 O   0  0  0  0  0  0  0  0  0  0  0  0
    1.2365    0.3342    2.0432 O   0  0  0  0  0  0  0  0  0  0  0  0
   -1.3035    0.4928   -0.6719 O   0  0  0  0  0  0  0  0  0  0  0  0
   -2.6341    1.8145    1.2753 O   0  0  0  0  0  0  0  0  0  0  0  0
   -1.1780   -1.8082   -1.0260 O   0  0  0  0  0  0  0  0  0  0  0  0
   -1.0870   -0.4990   -2.5316 H   0  0  0  0  0  0  0  0  0  0  0  0
    1.1376    0.2641   -2.0341 H   0  0  0  0  0  0  0  0  0  0  0  0
    2.4196   -0.5021   -0.1943 H   0  0  0  0  0  0  0  0  0  0  0  0
    1.1309    1.4378    0.3087 H   0  0  0  0  0  0  0  0  0  0  0  0
   -1.1045   -0.3938    1.2112 H   0  0  0  0  0  0  0  0  0  0  0  0
   -0.7702    2.5930    0.9975 H   0  0  0  0  0  0  0  0  0  0  0  0
   -0.9902    1.6345    2.4680 H   0  0  0  0  0  0  0  0  0  0  0  0
    1.7292   -1.5384   -2.9756 H   0  0  0  0  0  0  0  0  0  0  0  0
    1.8303   -2.3143    0.7621 H   0  0  0  0  0  0  0  0  0  0  0  0
    1.9932    0.8790    2.1830 H   0  0  0  0  0  0  0  0  0  0  0  0
   -2.9478    2.5505    1.7743 H   0  0  0  0  0  0  0  0  0  0  0  0
   -1.9226   -2.0969   -1.5273 H   0  0  0  0  0  0  0  0  0  0  0  0
 11  6  1  0
  6  5  1  0
  4  9  1  0
  4  5  1  0
  4  3  1  0
  1 12  1  0
  1 10  1  0
  1  2  1  0
 10  5  1  0
  3  2  1  0
  3  8  1  0
  2  7  1  0
  1 13  1  6
  2 14  1  6
  3 15  1  6
  4 16  1  6
  5 17  1  1
  6 18  1  0
  6 19  1  0
  7 20  1  0
  8 21  1  0
  9 22  1  0
 11 23  1  0
 12 24  1  0
M  END
