
     RDKit          3D

 36 37  0  0  0  0  0  0  0  0999 V2000
   -6.2693    0.3394   -0.5821 C   0  0  0  0  0  0  0  0  0  0  0  0
   -5.6438   -0.8813   -0.3542 C   0  0  0  0  0  0  0  0  0  0  0  0
   -5.5850    1.5210   -0.3356 C   0  0  0  0  0  0  0  0  0  0  0  0
   -4.3400   -0.9171    0.1170 C   0  0  0  0  0  0  0  0  0  0  0  0
   -4.2768    1.4813    0.1320 C   0  0  0  0  0  0  0  0  0  0  0  0
    2.0222   -1.0467   -0.9521 C   0  0  0  0  0  0  0  0  0  0  0  0
    1.9382   -0.2055    1.2720 C   0  0  0  0  0  0  0  0  0  0  0  0
    0.6537   -0.8864   -1.0731 C   0  0  0  0  0  0  0  0  0  0  0  0
    0.5609   -0.0357    1.1727 C   0  0  0  0  0  0  0  0  0  0  0  0
    2.6950   -0.7098    0.2228 C   0  0  0  0  0  0  0  0  0  0  0  0
   -3.6449    0.2651    0.3641 C   0  0  0  0  0  0  0  0  0  0  0  0
   -0.0911   -0.3746   -0.0091 C   0  0  0  0  0  0  0  0  0  0  0  0
   -2.2287    0.2207    0.8537 C   0  0  0  0  0  0  0  0  0  0  0  0
    4.9139    0.4072   -0.1791 C   0  0  0  0  0  0  0  0  0  0  0  0
    6.4180    0.2734   -0.0470 C   0  0  0  0  0  0  0  0  0  0  0  0
    7.0306    1.4428   -0.5470 O   0  0  0  0  0  0  0  0  0  0  0  0
   -1.4197   -0.2447   -0.2163 O   0  0  0  0  0  0  0  0  0  0  0  0
   -7.2876    0.3674   -0.9483 H   0  0  0  0  0  0  0  0  0  0  0  0
   -6.1746   -1.8057   -0.5414 H   0  0  0  0  0  0  0  0  0  0  0  0
   -6.0660    2.4747   -0.5095 H   0  0  0  0  0  0  0  0  0  0  0  0
   -3.8624   -1.8723    0.3008 H   0  0  0  0  0  0  0  0  0  0  0  0
   -3.7458    2.4068    0.3203 H   0  0  0  0  0  0  0  0  0  0  0  0
    2.5768   -1.4491   -1.7920 H   0  0  0  0  0  0  0  0  0  0  0  0
    2.4266    0.0666    2.2007 H   0  0  0  0  0  0  0  0  0  0  0  0
    0.1511   -1.1615   -1.9923 H   0  0  0  0  0  0  0  0  0  0  0  0
    0.0248    0.3608    2.0240 H   0  0  0  0  0  0  0  0  0  0  0  0
    4.4666   -1.0213    1.3719 H   0  0  0  0  0  0  0  0  0  0  0  0
    4.5280   -1.7105   -0.2375 H   0  0  0  0  0  0  0  0  0  0  0  0
   -1.9080    1.2168    1.1766 H   0  0  0  0  0  0  0  0  0  0  0  0
   -2.1392   -0.4525    1.7139 H   0  0  0  0  0  0  0  0  0  0  0  0
    4.6509    0.5789   -1.2274 H   0  0  0  0  0  0  0  0  0  0  0  0
    4.5717    1.2822    0.3818 H   0  0  0  0  0  0  0  0  0  0  0  0
    6.6738    0.1065    1.0082 H   0  0  0  0  0  0  0  0  0  0  0  0
    6.7504   -0.6186   -0.5956 H   0  0  0  0  0  0  0  0  0  0  0  0
    7.9819    1.3496   -0.4461 H   0  0  0  0  0  0  0  0  0  0  0  0
    4.1885   -0.8390    0.3300 C   0  0  0  0  0  0  0  0  0  0  0  0
  1  2  2  0
  1  3  1  0
  2  4  1  0
  3  5  2  0
  4 11  2  0
  5 11  1  0
 11 13  1  0
 17 13  1  0
 17 12  1  0
  8 12  1  0
  8  6  2  0
 12  9  2  0
  6 10  1  0
  9  7  1  0
 10  7  2  0
 10 36  1  0
 36 14  1  0
 15 14  1  0
 15 16  1  0
  1 18  1  0
  2 19  1  0
  3 20  1  0
  4 21  1  0
  5 22  1  0
  6 23  1  0
  7 24  1  0
  8 25  1  0
  9 26  1  0
 36 27  1  0
 36 28  1  0
 13 29  1  0
 13 30  1  0
 14 31  1  0
 14 32  1  0
 15 33  1  0
 15 34  1  0
 16 35  1  0
M  END
