
     RDKit          3D

 42 44  0  0  0  0  0  0  0  0999 V2000
    4.2613   -0.0898    0.5786 C   0  0  0  0  0  0  0  0  0  0  0  0
    4.6434    1.2024    0.2157 C   0  0  0  0  0  0  0  0  0  0  0  0
    3.9153    1.8794   -0.7567 C   0  0  0  0  0  0  0  0  0  0  0  0
    2.8269    1.2566   -1.3532 C   0  0  0  0  0  0  0  0  0  0  0  0
    2.4454   -0.0315   -1.0187 C   0  0  0  0  0  0  0  0  0  0  0  0
    3.1788   -0.7082   -0.0296 C   0  0  0  0  0  0  0  0  0  0  0  0
    2.8374   -2.1085    0.3418 C   0  0  0  0  0  0  0  0  0  0  0  0
    3.0991   -2.3715    1.6142 O   0  0  0  0  0  0  0  0  0  0  0  0
    2.3878   -2.9239   -0.4248 O   0  0  0  0  0  0  0  0  0  0  0  0
    5.7113    1.7043    0.8560 O   0  0  0  0  0  0  0  0  0  0  0  0
    6.1436    3.0113    0.5277 C   0  0  0  0  0  0  0  0  0  0  0  0
    1.3043   -0.5844   -1.6454 N   0  0  0  0  0  0  0  0  0  0  0  0
    0.0876   -0.6225   -0.9857 C   0  0  0  0  0  0  0  0  0  0  0  0
   -0.1898    0.1939    0.1149 C   0  0  0  0  0  0  0  0  0  0  0  0
   -1.4369    0.1619    0.7216 C   0  0  0  0  0  0  0  0  0  0  0  0
   -2.4234   -0.6850    0.2465 C   0  0  0  0  0  0  0  0  0  0  0  0
   -2.1635   -1.5047   -0.8420 C   0  0  0  0  0  0  0  0  0  0  0  0
   -0.9204   -1.4769   -1.4482 C   0  0  0  0  0  0  0  0  0  0  0  0
   -3.6465   -0.7477    0.8760 O   0  0  0  0  0  0  0  0  0  0  0  0
   -4.6266    0.1204    0.5039 C   0  0  0  0  0  0  0  0  0  0  0  0
   -4.4899    1.0483   -0.5230 C   0  0  0  0  0  0  0  0  0  0  0  0
   -5.5560    1.8869   -0.8284 C   0  0  0  0  0  0  0  0  0  0  0  0
   -6.7493    1.8106   -0.1260 C   0  0  0  0  0  0  0  0  0  0  0  0
   -6.8731    0.8784    0.8983 C   0  0  0  0  0  0  0  0  0  0  0  0
   -5.8207    0.0361    1.2167 C   0  0  0  0  0  0  0  0  0  0  0  0
    4.8397   -0.6053    1.3347 H   0  0  0  0  0  0  0  0  0  0  0  0
    4.1713    2.8845   -1.0623 H   0  0  0  0  0  0  0  0  0  0  0  0
    2.2526    1.7906   -2.0990 H   0  0  0  0  0  0  0  0  0  0  0  0
    2.9147   -3.3044    1.8026 H   0  0  0  0  0  0  0  0  0  0  0  0
    7.0110    3.2143    1.1505 H   0  0  0  0  0  0  0  0  0  0  0  0
    6.4365    3.0912   -0.5220 H   0  0  0  0  0  0  0  0  0  0  0  0
    5.3756    3.7590    0.7405 H   0  0  0  0  0  0  0  0  0  0  0  0
    1.4871   -1.3947   -2.2175 H   0  0  0  0  0  0  0  0  0  0  0  0
    0.5634    0.8634    0.5083 H   0  0  0  0  0  0  0  0  0  0  0  0
   -1.6302    0.8004    1.5749 H   0  0  0  0  0  0  0  0  0  0  0  0
   -2.9285   -2.1744   -1.2152 H   0  0  0  0  0  0  0  0  0  0  0  0
   -0.7279   -2.1265   -2.2937 H   0  0  0  0  0  0  0  0  0  0  0  0
   -3.5697    1.1260   -1.0866 H   0  0  0  0  0  0  0  0  0  0  0  0
   -5.4444    2.6060   -1.6296 H   0  0  0  0  0  0  0  0  0  0  0  0
   -7.5728    2.4676   -0.3721 H   0  0  0  0  0  0  0  0  0  0  0  0
   -7.7971    0.8050    1.4574 H   0  0  0  0  0  0  0  0  0  0  0  0
   -5.9169   -0.6884    2.0158 H   0  0  0  0  0  0  0  0  0  0  0  0
  1  6  2  0
  1  2  1  0
  1 26  1  0
  2  3  2  0
  2 10  1  0
  3  4  1  0
  3 27  1  0
  4  5  2  0
  4 28  1  0
  5 12  1  0
  5  6  1  0
  6  7  1  0
  7  9  2  0
  7  8  1  0
  8 29  1  0
 10 11  1  0
 11 30  1  0
 11 31  1  0
 11 32  1  0
 12 13  1  0
 12 33  1  0
 13 18  1  0
 13 14  2  0
 14 15  1  0
 14 34  1  0
 15 16  2  0
 15 35  1  0
 16 17  1  0
 16 19  1  0
 17 18  2  0
 17 36  1  0
 18 37  1  0
 19 20  1  0
 20 21  2  0
 20 25  1  0
 21 22  1  0
 21 38  1  0
 22 23  2  0
 22 39  1  0
 23 24  1  0
 23 40  1  0
 24 25  2  0
 24 41  1  0
 25 42  1  0
M  END
