
     RDKit          3D

 56 60  0  0  0  0  0  0  0  0999 V2000
   -2.8778    3.0497   -3.9747 C   0  0  0  0  0  0  0  0  0  0  0  0
   -4.1663    3.1397   -3.4687 C   0  0  0  0  0  0  0  0  0  0  0  0
   -5.2451    2.6548   -4.1983 C   0  0  0  0  0  0  0  0  0  0  0  0
   -5.0309    2.0764   -5.4417 C   0  0  0  0  0  0  0  0  0  0  0  0
   -3.7442    1.9713   -5.9552 C   0  0  0  0  0  0  0  0  0  0  0  0
   -2.6788    2.4630   -5.2178 C   0  0  0  0  0  0  0  0  0  0  0  0
   -1.4236    2.4076   -5.7722 O   0  0  0  0  0  0  0  0  0  0  0  0
   -0.4466    1.6889   -5.1614 C   0  0  0  0  0  0  0  0  0  0  0  0
    0.8616    1.9861   -5.5191 C   0  0  0  0  0  0  0  0  0  0  0  0
    1.9114    1.2710   -4.9646 C   0  0  0  0  0  0  0  0  0  0  0  0
   -0.7005    0.6718   -4.2459 C   0  0  0  0  0  0  0  0  0  0  0  0
    0.3570   -0.0328   -3.6995 C   0  0  0  0  0  0  0  0  0  0  0  0
    1.6756    0.2599   -4.0403 C   0  0  0  0  0  0  0  0  0  0  0  0
    2.7913   -0.5974   -3.4316 C   0  0  2  0  0  0  0  0  0  0  0  0
    4.1399    0.0985   -3.6556 C   0  0  0  0  0  0  0  0  0  0  0  0
    4.5407    0.9589   -2.9116 O   0  0  0  0  0  0  0  0  0  0  0  0
    4.8621   -0.2722   -4.7573 N   0  0  0  0  0  0  0  0  0  0  0  0
    4.5649   -1.2798   -5.6441 C   0  0  0  0  0  0  0  0  0  0  0  0
    5.2417   -1.5022   -6.6172 O   0  0  0  0  0  0  0  0  0  0  0  0
    3.4572   -2.0291   -5.3314 N   0  0  0  0  0  0  0  0  0  0  0  0
    2.6607   -1.9138   -4.2219 C   0  0  0  0  0  0  0  0  0  0  0  0
    1.8503   -2.7599   -3.9476 O   0  0  0  0  0  0  0  0  0  0  0  0
    2.5412   -0.8786   -2.0443 N   0  0  0  0  0  0  0  0  0  0  0  0
    3.4683   -1.7939   -1.4023 C   0  0  0  0  0  0  0  0  0  0  0  0
    2.8096   -2.3946   -0.1727 C   0  0  0  0  0  0  0  0  0  0  0  0
    2.2330    0.2168   -1.1384 C   0  0  0  0  0  0  0  0  0  0  0  0
    1.5328   -0.3388    0.0904 C   0  0  0  0  0  0  0  0  0  0  0  0
    2.3570   -1.3502    0.7226 N   0  0  0  0  0  0  0  0  0  0  0  0
    2.5152   -1.4262    2.0649 C   0  0  0  0  0  0  0  0  0  0  0  0
    3.2210   -2.4561    2.5522 N   0  0  0  0  0  0  0  0  0  0  0  0
    3.3898   -2.5023    3.8614 C   0  0  0  0  0  0  0  0  0  0  0  0
    2.8726   -1.5507    4.7256 C   0  0  0  0  0  0  0  0  0  0  0  0
    2.1491   -0.5361    4.1199 C   0  0  0  0  0  0  0  0  0  0  0  0
    1.9624   -0.4622    2.8143 N   0  0  0  0  0  0  0  0  0  0  0  0
   -2.0387    3.4371   -3.4102 H   0  0  0  0  0  0  0  0  0  0  0  0
   -4.3276    3.5986   -2.5021 H   0  0  0  0  0  0  0  0  0  0  0  0
   -6.2481    2.7332   -3.8009 H   0  0  0  0  0  0  0  0  0  0  0  0
   -5.8664    1.6994   -6.0169 H   0  0  0  0  0  0  0  0  0  0  0  0
   -3.5687    1.5171   -6.9221 H   0  0  0  0  0  0  0  0  0  0  0  0
    1.0603    2.7770   -6.2305 H   0  0  0  0  0  0  0  0  0  0  0  0
    2.9122    1.5417   -5.2746 H   0  0  0  0  0  0  0  0  0  0  0  0
   -1.7110    0.4155   -3.9570 H   0  0  0  0  0  0  0  0  0  0  0  0
    0.1509   -0.8191   -2.9860 H   0  0  0  0  0  0  0  0  0  0  0  0
    5.7223    0.2324   -4.9387 H   0  0  0  0  0  0  0  0  0  0  0  0
    3.2815   -2.8203   -5.9393 H   0  0  0  0  0  0  0  0  0  0  0  0
    4.4019   -1.2912   -1.1092 H   0  0  0  0  0  0  0  0  0  0  0  0
    3.7376   -2.6149   -2.0681 H   0  0  0  0  0  0  0  0  0  0  0  0
    1.9571   -3.0047   -0.4930 H   0  0  0  0  0  0  0  0  0  0  0  0
    3.5117   -3.0417    0.3441 H   0  0  0  0  0  0  0  0  0  0  0  0
    1.5736    0.9388   -1.6180 H   0  0  0  0  0  0  0  0  0  0  0  0
    3.1335    0.7533   -0.8160 H   0  0  0  0  0  0  0  0  0  0  0  0
    1.3428    0.4660    0.7941 H   0  0  0  0  0  0  0  0  0  0  0  0
    0.5680   -0.7716   -0.2005 H   0  0  0  0  0  0  0  0  0  0  0  0
    3.9636   -3.3412    4.2413 H   0  0  0  0  0  0  0  0  0  0  0  0
    3.0160   -1.6009    5.7941 H   0  0  0  0  0  0  0  0  0  0  0  0
    1.6967    0.2516    4.7135 H   0  0  0  0  0  0  0  0  0  0  0  0
  1  2  2  0
  1  6  1  0
  1 35  1  0
  2  3  1  0
  2 36  1  0
  3  4  2  0
  3 37  1  0
  4  5  1  0
  4 38  1  0
  5  6  2  0
  5 39  1  0
  6  7  1  0
  7  8  1  0
  8  9  2  0
  8 11  1  0
  9 10  1  0
  9 40  1  0
 10 13  2  0
 10 41  1  0
 11 12  2  0
 11 42  1  0
 12 13  1  0
 12 43  1  0
 14 13  1  6
 14 15  1  0
 14 21  1  0
 14 23  1  0
 15 17  1  0
 15 16  2  0
 17 18  1  0
 17 44  1  0
 18 19  2  0
 18 20  1  0
 20 21  1  0
 20 45  1  0
 21 22  2  0
 23 26  1  0
 23 24  1  0
 24 25  1  0
 24 46  1  0
 24 47  1  0
 25 28  1  0
 25 48  1  0
 25 49  1  0
 26 27  1  0
 26 50  1  0
 26 51  1  0
 27 28  1  0
 27 52  1  0
 27 53  1  0
 28 29  1  0
 29 34  1  0
 29 30  2  0
 30 31  1  0
 31 32  2  0
 31 54  1  0
 32 33  1  0
 32 55  1  0
 33 34  2  0
 33 56  1  0
M  END
