
     RDKit          3D

 38 41  0  0  0  0  0  0  0  0999 V2000
    1.4389    1.8842    0.8649 C   0  0  0  0  0  0  0  0  0  0  0  0
   -0.9762    1.4674   -0.3767 C   0  0  0  0  0  0  0  0  0  0  0  0
   -3.2261   -0.7170   -0.7089 C   0  0  0  0  0  0  0  0  0  0  0  0
   -3.5059   -3.0622   -0.3324 C   0  0  0  0  0  0  0  0  0  0  0  0
   -3.1494   -2.0216   -1.1771 C   0  0  0  0  0  0  0  0  0  0  0  0
   -1.8854    3.5144    0.0491 C   0  0  0  0  0  0  0  0  0  0  0  0
    4.0511   -1.6374    0.2508 C   0  0  0  0  0  0  0  0  0  0  0  0
    2.9506   -2.3953    0.2664 N   0  0  0  0  0  0  0  0  0  0  0  0
    1.8047   -1.6853    0.2780 N   0  0  0  0  0  0  0  0  0  0  0  0
    2.1645   -0.4271    0.2634 C   0  0  0  0  0  0  0  0  0  0  0  0
    3.5867   -0.3170    0.2469 C   0  0  0  0  0  0  0  0  0  0  0  0
    4.3988    0.8211    0.1647 C   0  0  0  0  0  0  0  0  0  0  0  0
    5.0888    1.7463    0.0929 N   0  0  0  0  0  0  0  0  0  0  0  0
    1.1706    0.6484    0.2408 C   0  0  0  0  0  0  0  0  0  0  0  0
    0.5132    2.9066    0.8699 C   0  0  0  0  0  0  0  0  0  0  0  0
   -0.7209    2.7113    0.2420 C   0  0  0  0  0  0  0  0  0  0  0  0
   -0.0495    0.4323   -0.3851 C   0  0  0  0  0  0  0  0  0  0  0  0
   -2.2298    1.5222   -0.9225 N   0  0  0  0  0  0  0  0  0  0  0  0
   -2.8825    0.4398   -1.6119 C   0  0  0  0  0  0  0  0  0  0  0  0
   -3.6538   -0.5257    0.5990 C   0  0  0  0  0  0  0  0  0  0  0  0
   -3.9861   -1.6337    1.3624 C   0  0  0  0  0  0  0  0  0  0  0  0
   -3.9181   -2.8836    0.9164 N   0  0  0  0  0  0  0  0  0  0  0  0
   -2.7701    2.7525   -0.6558 C   0  0  0  0  0  0  0  0  0  0  0  0
    2.3815    2.0323    1.3755 H   0  0  0  0  0  0  0  0  0  0  0  0
   -3.4494   -4.0863   -0.6842 H   0  0  0  0  0  0  0  0  0  0  0  0
   -2.8107   -2.2347   -2.1832 H   0  0  0  0  0  0  0  0  0  0  0  0
   -2.0471    4.5256    0.3862 H   0  0  0  0  0  0  0  0  0  0  0  0
    5.4575   -3.0731    0.0009 H   0  0  0  0  0  0  0  0  0  0  0  0
    6.0441   -1.4968    0.0007 H   0  0  0  0  0  0  0  0  0  0  0  0
    2.9115   -3.4024    0.2909 H   0  0  0  0  0  0  0  0  0  0  0  0
    0.7410    3.8433    1.3628 H   0  0  0  0  0  0  0  0  0  0  0  0
   -0.2573   -0.5136   -0.8694 H   0  0  0  0  0  0  0  0  0  0  0  0
   -2.2567    0.0952   -2.4382 H   0  0  0  0  0  0  0  0  0  0  0  0
   -3.7970    0.8331   -2.0591 H   0  0  0  0  0  0  0  0  0  0  0  0
   -3.7321    0.4643    1.0299 H   0  0  0  0  0  0  0  0  0  0  0  0
   -4.3239   -1.5017    2.3844 H   0  0  0  0  0  0  0  0  0  0  0  0
   -3.7636    2.9908   -1.0027 H   0  0  0  0  0  0  0  0  0  0  0  0
    5.3097   -2.1205    0.2938 N   0  0  0  0  0  0  0  0  0  0  0  0
 38  7  1  0
  7  8  1  0
  7 11  2  0
  8  9  1  0
 13 12  3  0
 12 11  1  0
 11 10  1  0
  9 10  2  0
 10 14  1  0
 14  1  2  0
 14 17  1  0
  1 15  1  0
 17  2  2  0
 15 16  2  0
  2 16  1  0
  2 18  1  0
 16  6  1  0
 19 18  1  0
 19  3  1  0
 18 23  1  0
  6 23  2  0
  5  3  1  0
  5  4  2  0
  3 20  2  0
  4 22  1  0
 20 21  1  0
 22 21  2  0
  1 24  1  0
  4 25  1  0
  5 26  1  0
  6 27  1  0
 38 28  1  0
 38 29  1  0
  8 30  1  0
 15 31  1  0
 17 32  1  0
 19 33  1  0
 19 34  1  0
 20 35  1  0
 21 36  1  0
 23 37  1  0
M  END
