
     RDKit          3D

 47 50  0  0  0  0  0  0  0  0999 V2000
    0.3346    0.4399   -7.4212 C   0  0  0  0  0  0  0  0  0  0  0  0
   -0.7916    0.0198   -8.1133 C   0  0  0  0  0  0  0  0  0  0  0  0
   -1.9035   -0.3857   -7.5123 N   0  0  0  0  0  0  0  0  0  0  0  0
   -1.9327   -0.3711   -6.1881 C   0  0  0  0  0  0  0  0  0  0  0  0
   -0.8668    0.0402   -5.3913 C   0  0  0  0  0  0  0  0  0  0  0  0
    0.2977    0.4438   -6.0398 C   0  0  0  0  0  0  0  0  0  0  0  0
   -0.9481    0.0357   -3.9188 C   0  0  0  0  0  0  0  0  0  0  0  0
    0.1999    0.0132   -3.2654 N   0  0  0  0  0  0  0  0  0  0  0  0
    0.1608    0.0082   -1.9301 C   0  0  0  0  0  0  0  0  0  0  0  0
   -0.9422    0.0289   -1.1898 N   0  0  0  0  0  0  0  0  0  0  0  0
   -2.0856    0.0618   -1.8563 C   0  0  0  0  0  0  0  0  0  0  0  0
   -2.1645    0.0684   -3.2339 C   0  0  0  0  0  0  0  0  0  0  0  0
    1.3898   -0.0253   -1.3494 N   0  0  0  0  0  0  0  0  0  0  0  0
    1.8002   -0.0620   -0.0191 C   0  0  0  0  0  0  0  0  0  0  0  0
    0.9213   -0.0120    1.0548 C   0  0  0  0  0  0  0  0  0  0  0  0
    1.3908   -0.0503    2.3675 C   0  0  0  0  0  0  0  0  0  0  0  0
    2.7542   -0.1420    2.6166 C   0  0  0  0  0  0  0  0  0  0  0  0
    3.6157   -0.1873    1.5309 C   0  0  0  0  0  0  0  0  0  0  0  0
    3.1852   -0.1494    0.2160 C   0  0  0  0  0  0  0  0  0  0  0  0
    4.1754   -0.1960   -0.9119 C   0  0  0  0  0  0  0  0  0  0  0  0
    0.4088    0.0222    3.3632 N   0  0  0  0  0  0  0  0  0  0  0  0
    0.5470   -0.0443    4.7147 C   0  0  0  0  0  0  0  0  0  0  0  0
   -0.7273    0.1420    5.4745 C   0  0  0  0  0  0  0  0  0  0  0  0
   -0.8513   -0.4518    6.7262 C   0  0  0  0  0  0  0  0  0  0  0  0
   -2.0211   -0.2700    7.4389 C   0  0  0  0  0  0  0  0  0  0  0  0
   -3.0206    0.5171    6.8831 C   0  0  0  0  0  0  0  0  0  0  0  0
   -2.9049    1.1154    5.7073 N   0  0  0  0  0  0  0  0  0  0  0  0
   -1.7844    0.9299    5.0275 C   0  0  0  0  0  0  0  0  0  0  0  0
    1.5925   -0.2488    5.2932 O   0  0  0  0  0  0  0  0  0  0  0  0
    1.2167    0.7594   -7.9568 H   0  0  0  0  0  0  0  0  0  0  0  0
   -0.7939    0.0091   -9.1969 H   0  0  0  0  0  0  0  0  0  0  0  0
   -2.8509   -0.7286   -5.7350 H   0  0  0  0  0  0  0  0  0  0  0  0
    1.1549    0.7613   -5.4625 H   0  0  0  0  0  0  0  0  0  0  0  0
   -2.9871    0.0903   -1.2544 H   0  0  0  0  0  0  0  0  0  0  0  0
   -3.1184    0.1218   -3.7354 H   0  0  0  0  0  0  0  0  0  0  0  0
    2.1239   -0.0461   -2.0373 H   0  0  0  0  0  0  0  0  0  0  0  0
   -0.1391    0.0578    0.8645 H   0  0  0  0  0  0  0  0  0  0  0  0
    3.1456   -0.1806    3.6187 H   0  0  0  0  0  0  0  0  0  0  0  0
    4.6794   -0.2575    1.7230 H   0  0  0  0  0  0  0  0  0  0  0  0
    4.0215   -1.0538   -1.5723 H   0  0  0  0  0  0  0  0  0  0  0  0
    4.1455    0.7052   -1.5309 H   0  0  0  0  0  0  0  0  0  0  0  0
    5.1899   -0.2757   -0.5267 H   0  0  0  0  0  0  0  0  0  0  0  0
   -0.5332    0.0686    3.0116 H   0  0  0  0  0  0  0  0  0  0  0  0
   -0.0411   -1.0474    7.1250 H   0  0  0  0  0  0  0  0  0  0  0  0
   -2.1605   -0.7235    8.4102 H   0  0  0  0  0  0  0  0  0  0  0  0
   -3.9520    0.6776    7.4145 H   0  0  0  0  0  0  0  0  0  0  0  0
   -1.7183    1.4707    4.0876 H   0  0  0  0  0  0  0  0  0  0  0  0
  1  2  2  0
  1  6  1  0
  1 30  1  0
  2  3  1  0
  2 31  1  0
  3  4  2  0
  4  5  1  0
  4 32  1  0
  5  6  2  0
  5  7  1  0
  6 33  1  0
  7  8  2  0
  7 12  1  0
  8  9  1  0
  9 10  2  0
  9 13  1  0
 10 11  1  0
 11 12  2  0
 11 34  1  0
 12 35  1  0
 13 14  1  0
 13 36  1  0
 14 15  2  0
 14 19  1  0
 15 16  1  0
 15 37  1  0
 16 17  2  0
 16 21  1  0
 17 18  1  0
 17 38  1  0
 18 19  2  0
 18 39  1  0
 19 20  1  0
 20 40  1  0
 20 41  1  0
 20 42  1  0
 21 22  1  0
 21 43  1  0
 22 23  1  0
 22 29  2  0
 23 24  2  0
 23 28  1  0
 24 25  1  0
 24 44  1  0
 25 26  2  0
 25 45  1  0
 26 27  1  0
 26 46  1  0
 27 28  2  0
 28 47  1  0
M  END
