
     RDKit          3D

 61 60  0  0  0  0  0  0  0  0999 V2000
   13.4976   -0.4755    0.1860 C   0  0  0  0  0  0  0  0  0  0  0  0
    3.3237   -0.3674    0.0510 C   0  0  0  0  0  0  0  0  0  0  0  0
    2.0652    0.4743   -0.1169 C   0  0  0  0  0  0  0  0  0  0  0  0
   12.2426    0.3698    0.0189 C   0  0  0  0  0  0  0  0  0  0  0  0
    4.6084    0.4393   -0.0887 C   0  0  0  0  0  0  0  0  0  0  0  0
    0.7776   -0.3274    0.0246 C   0  0  0  0  0  0  0  0  0  0  0  0
   -7.8967    0.5445   -0.0539 C   0  0  0  0  0  0  0  0  0  0  0  0
   10.9603   -0.4440    0.1414 C   0  0  0  0  0  0  0  0  0  0  0  0
    5.8697   -0.3984    0.0786 C   0  0  0  0  0  0  0  0  0  0  0  0
   -0.4765    0.5205   -0.1434 C   0  0  0  0  0  0  0  0  0  0  0  0
    9.6967    0.3904   -0.0237 C   0  0  0  0  0  0  0  0  0  0  0  0
    7.1523    0.4122   -0.0579 C   0  0  0  0  0  0  0  0  0  0  0  0
   -1.7675   -0.2742    0.0030 C   0  0  0  0  0  0  0  0  0  0  0  0
    8.4153   -0.4229    0.1090 C   0  0  0  0  0  0  0  0  0  0  0  0
   -3.0107    0.5890   -0.1689 C   0  0  0  0  0  0  0  0  0  0  0  0
   -4.2917   -0.2131   -0.0072 C   0  0  0  0  0  0  0  0  0  0  0  0
  -10.3271    0.2377    0.3210 C   0  0  0  0  0  0  0  0  0  0  0  0
   -8.9740   -0.4569    0.3255 C   0  0  1  0  0  0  0  0  0  0  0  0
   -5.5729    1.7682   -0.5039 O   0  0  0  0  0  0  0  0  0  0  0  0
   -5.5410    0.6076   -0.1781 C   0  0  0  0  0  0  0  0  0  0  0  0
   -6.6334   -0.1076    0.0713 O   0  0  0  0  0  0  0  0  0  0  0  0
   -8.9485   -1.5991   -0.4951 O   0  0  0  0  0  0  0  0  0  0  0  0
   14.4031    0.1278    0.1103 H   0  0  0  0  0  0  0  0  0  0  0  0
   13.5117   -0.9698    1.1595 H   0  0  0  0  0  0  0  0  0  0  0  0
   13.5545   -1.2541   -0.5772 H   0  0  0  0  0  0  0  0  0  0  0  0
    3.3067   -0.8551    1.0323 H   0  0  0  0  0  0  0  0  0  0  0  0
    3.3210   -1.1765   -0.6880 H   0  0  0  0  0  0  0  0  0  0  0  0
    2.0699    1.2841    0.6214 H   0  0  0  0  0  0  0  0  0  0  0  0
    2.0825    0.9613   -1.0985 H   0  0  0  0  0  0  0  0  0  0  0  0
   12.2369    1.1684    0.7674 H   0  0  0  0  0  0  0  0  0  0  0  0
   12.2625    0.8693   -0.9550 H   0  0  0  0  0  0  0  0  0  0  0  0
    4.6245    0.9275   -1.0698 H   0  0  0  0  0  0  0  0  0  0  0  0
    4.6101    1.2484    0.6505 H   0  0  0  0  0  0  0  0  0  0  0  0
    0.7708   -1.1372   -0.7137 H   0  0  0  0  0  0  0  0  0  0  0  0
    0.7592   -0.8138    1.0065 H   0  0  0  0  0  0  0  0  0  0  0  0
   -8.0403    0.8954   -1.0809 H   0  0  0  0  0  0  0  0  0  0  0  0
   -7.9382    1.4137    0.6069 H   0  0  0  0  0  0  0  0  0  0  0  0
   10.9675   -1.2451   -0.6065 H   0  0  0  0  0  0  0  0  0  0  0  0
   10.9416   -0.9432    1.1170 H   0  0  0  0  0  0  0  0  0  0  0  0
    5.8533   -0.8885    1.0587 H   0  0  0  0  0  0  0  0  0  0  0  0
    5.8703   -1.2059   -0.6623 H   0  0  0  0  0  0  0  0  0  0  0  0
   -0.4664    1.3321    0.5928 H   0  0  0  0  0  0  0  0  0  0  0  0
   -0.4588    1.0045   -1.1263 H   0  0  0  0  0  0  0  0  0  0  0  0
    9.6936    1.1948    0.7207 H   0  0  0  0  0  0  0  0  0  0  0  0
    9.7128    0.8848   -1.0017 H   0  0  0  0  0  0  0  0  0  0  0  0
    7.1682    0.9028   -1.0378 H   0  0  0  0  0  0  0  0  0  0  0  0
    7.1510    1.2195    0.6833 H   0  0  0  0  0  0  0  0  0  0  0  0
   -1.7806   -1.0859   -0.7329 H   0  0  0  0  0  0  0  0  0  0  0  0
   -1.7878   -0.7566    0.9865 H   0  0  0  0  0  0  0  0  0  0  0  0
    8.4185   -1.2288   -0.6337 H   0  0  0  0  0  0  0  0  0  0  0  0
    8.3985   -0.9152    1.0880 H   0  0  0  0  0  0  0  0  0  0  0  0
   -2.9907    1.4024    0.5618 H   0  0  0  0  0  0  0  0  0  0  0  0
   -2.9912    1.0603   -1.1550 H   0  0  0  0  0  0  0  0  0  0  0  0
   -4.3253   -1.0319   -0.7341 H   0  0  0  0  0  0  0  0  0  0  0  0
   -4.3244   -0.6946    0.9750 H   0  0  0  0  0  0  0  0  0  0  0  0
  -10.2696    1.1241    0.9661 H   0  0  0  0  0  0  0  0  0  0  0  0
  -10.5447    0.5996   -0.6949 H   0  0  0  0  0  0  0  0  0  0  0  0
   -8.7732   -0.8134    1.3413 H   0  0  0  0  0  0  0  0  0  0  0  0
   -9.1957   -1.3416   -1.3904 H   0  0  0  0  0  0  0  0  0  0  0  0
  -12.1563   -0.2289    0.7344 H   0  0  0  0  0  0  0  0  0  0  0  0
  -11.3029   -0.6699    0.7687 O   0  0  0  0  0  0  0  0  0  0  0  0
 61 17  1  0
 17 18  1  0
 18  7  1  0
 18 22  1  0
  7 21  1  0
 21 20  1  0
 20 19  2  0
 20 16  1  0
 16 15  1  0
 15 13  1  0
  1  4  1  0
 13 10  1  0
  4  8  1  0
 10  6  1  0
  8 11  1  0
  6  3  1  0
 11 14  1  0
 12 14  1  0
 12  9  1  0
  2  3  1  0
  2  5  1  0
  5  9  1  0
  1 23  1  0
  1 24  1  0
  1 25  1  0
  2 26  1  0
  2 27  1  0
  3 28  1  0
  3 29  1  0
  4 30  1  0
  4 31  1  0
  5 32  1  0
  5 33  1  0
  6 34  1  0
  6 35  1  0
  7 36  1  0
  7 37  1  0
  8 38  1  0
  8 39  1  0
  9 40  1  0
  9 41  1  0
 10 42  1  0
 10 43  1  0
 11 44  1  0
 11 45  1  0
 12 46  1  0
 12 47  1  0
 13 48  1  0
 13 49  1  0
 14 50  1  0
 14 51  1  0
 15 52  1  0
 15 53  1  0
 16 54  1  0
 16 55  1  0
 17 56  1  0
 17 57  1  0
 18 58  1  1
 22 59  1  0
 61 60  1  0
M  END
