
     RDKit          3D

 34 36  0  0  0  0  0  0  0  0999 V2000
    2.3649    3.2197   -0.5790 C   0  0  0  0  0  0  0  0  0  0  0  0
   -4.1837   -0.2372    0.7301 C   0  0  0  0  0  0  0  0  0  0  0  0
   -3.1718   -1.0262    1.2587 C   0  0  0  0  0  0  0  0  0  0  0  0
   -1.8967   -0.9932    0.7071 C   0  0  0  0  0  0  0  0  0  0  0  0
   -1.6213   -0.1738   -0.3849 C   0  0  0  0  0  0  0  0  0  0  0  0
   -2.6498    0.6041   -0.9202 C   0  0  0  0  0  0  0  0  0  0  0  0
   -3.9186    0.5819   -0.3610 C   0  0  0  0  0  0  0  0  0  0  0  0
    0.6945    1.4761   -0.4513 C   0  0  0  0  0  0  0  0  0  0  0  0
    1.7887    2.0639   -1.0871 C   0  0  0  0  0  0  0  0  0  0  0  0
    1.8417    3.8117    0.5636 C   0  0  0  0  0  0  0  0  0  0  0  0
    0.7451    3.2407    1.1959 C   0  0  0  0  0  0  0  0  0  0  0  0
    0.1756    2.0778    0.6935 C   0  0  0  0  0  0  0  0  0  0  0  0
    0.9732   -1.3633   -0.3425 C   0  0  0  0  0  0  0  0  0  0  0  0
    1.7419   -1.1499    0.7999 C   0  0  0  0  0  0  0  0  0  0  0  0
    2.4407   -2.1985    1.3839 C   0  0  0  0  0  0  0  0  0  0  0  0
    2.3751   -3.4730    0.8369 C   0  0  0  0  0  0  0  0  0  0  0  0
    1.6122   -3.6957   -0.3024 C   0  0  0  0  0  0  0  0  0  0  0  0
    0.9245   -2.6449   -0.8928 C   0  0  0  0  0  0  0  0  0  0  0  0
    0.0171   -0.0550   -1.1960 P   0  0  0  0  0  0  0  0  0  0  0  0
    3.2142    3.6639   -1.0818 H   0  0  0  0  0  0  0  0  0  0  0  0
   -3.3699   -1.6666    2.1087 H   0  0  0  0  0  0  0  0  0  0  0  0
   -1.1189   -1.6100    1.1384 H   0  0  0  0  0  0  0  0  0  0  0  0
   -2.4593    1.2381   -1.7791 H   0  0  0  0  0  0  0  0  0  0  0  0
   -4.7022    1.1987   -0.7815 H   0  0  0  0  0  0  0  0  0  0  0  0
    2.1936    1.6171   -1.9880 H   0  0  0  0  0  0  0  0  0  0  0  0
    2.2840    4.7183    0.9560 H   0  0  0  0  0  0  0  0  0  0  0  0
    0.3322    3.7002    2.0848 H   0  0  0  0  0  0  0  0  0  0  0  0
   -0.6754    1.6429    1.2022 H   0  0  0  0  0  0  0  0  0  0  0  0
    1.8009   -0.1635    1.2424 H   0  0  0  0  0  0  0  0  0  0  0  0
    3.0354   -2.0189    2.2703 H   0  0  0  0  0  0  0  0  0  0  0  0
    2.9217   -4.2883    1.2928 H   0  0  0  0  0  0  0  0  0  0  0  0
    1.5596   -4.6852   -0.7375 H   0  0  0  0  0  0  0  0  0  0  0  0
    0.3458   -2.8261   -1.7915 H   0  0  0  0  0  0  0  0  0  0  0  0
   -5.1754   -0.2626    1.1626 H   0  0  0  0  0  0  0  0  0  0  0  0
  7  6  1  0
  7  2  2  0
  6  5  2  0
 14 15  2  0
 14 13  1  0
 15 16  1  0
  2  3  1  0
  5 19  1  0
  5  4  1  0
 19 13  1  0
 19  8  1  0
 13 18  2  0
 16 17  2  0
  3  4  2  0
 18 17  1  0
  8  9  1  0
  8 12  2  0
  9  1  2  0
 12 11  1  0
  1 10  1  0
 11 10  2  0
  1 20  1  0
  2 34  1  0
  3 21  1  0
  4 22  1  0
  6 23  1  0
  7 24  1  0
  9 25  1  0
 10 26  1  0
 11 27  1  0
 12 28  1  0
 14 29  1  0
 15 30  1  0
 16 31  1  0
 17 32  1  0
 18 33  1  0
M  END
