
     RDKit          3D

 28 29  0  0  0  0  0  0  0  0999 V2000
   -2.6924    2.1224   -0.0518 C   0  0  0  0  0  0  0  0  0  0  0  0
   -2.6198    0.7504    0.1254 C   0  0  0  0  0  0  0  0  0  0  0  0
   -1.5160    2.8133   -0.2818 C   0  0  0  0  0  0  0  0  0  0  0  0
   -1.3793    0.1304    0.0832 C   0  0  0  0  0  0  0  0  0  0  0  0
   -0.2398    0.9236   -0.1101 C   0  0  0  0  0  0  0  0  0  0  0  0
    3.1096   -0.1988   -1.2198 C   0  0  0  0  0  0  0  0  0  0  0  0
    2.9265   -0.5184    1.1446 C   0  0  0  0  0  0  0  0  0  0  0  0
    1.9063    0.7267   -1.1963 C   0  0  0  0  0  0  0  0  0  0  0  0
    1.7166    0.3959    1.1773 C   0  0  0  0  0  0  0  0  0  0  0  0
   -1.2680   -1.3627    0.1681 C   0  0  1  0  0  0  0  0  0  0  0  0
   -0.3240    2.2305   -0.3018 N   0  0  0  0  0  0  0  0  0  0  0  0
    3.8000   -0.1242    0.0549 N   0  0  0  0  0  0  0  0  0  0  0  0
    1.0270    0.3189   -0.1087 N   0  0  0  0  0  0  0  0  0  0  0  0
   -2.4763   -1.9362    0.2645 F   0  0  0  0  0  0  0  0  0  0  0  0
   -0.6858   -1.8883   -0.9139 F   0  0  0  0  0  0  0  0  0  0  0  0
   -0.5720   -1.7796    1.2338 F   0  0  0  0  0  0  0  0  0  0  0  0
   -3.6412    2.6389   -0.0299 H   0  0  0  0  0  0  0  0  0  0  0  0
   -3.5277    0.1834    0.2773 H   0  0  0  0  0  0  0  0  0  0  0  0
   -1.5341    3.8838   -0.4518 H   0  0  0  0  0  0  0  0  0  0  0  0
    3.7886    0.1136   -2.0155 H   0  0  0  0  0  0  0  0  0  0  0  0
    3.4683   -0.4347    2.0889 H   0  0  0  0  0  0  0  0  0  0  0  0
    2.5716   -1.5570    1.0567 H   0  0  0  0  0  0  0  0  0  0  0  0
    2.2454    1.7657   -1.0877 H   0  0  0  0  0  0  0  0  0  0  0  0
    1.3659    0.6507   -2.1413 H   0  0  0  0  0  0  0  0  0  0  0  0
    1.0440    0.0914    1.9784 H   0  0  0  0  0  0  0  0  0  0  0  0
    2.0378    1.4265    1.3909 H   0  0  0  0  0  0  0  0  0  0  0  0
    4.6145   -0.7235    0.0376 H   0  0  0  0  0  0  0  0  0  0  0  0
    2.7631   -1.2159   -1.4593 H   0  0  0  0  0  0  0  0  0  0  0  0
 12  6  1  0
 12  7  1  0
  6  8  1  0
  7  9  1  0
 10 16  1  1
  8 13  1  0
  9 13  1  0
 13  5  1  0
 15 10  1  0
 10 14  1  0
 10  4  1  0
  5  4  2  0
  5 11  1  0
  4  2  1  0
 11  3  2  0
  2  1  2  0
  3  1  1  0
  1 17  1  0
  2 18  1  0
  3 19  1  0
  6 28  1  0
  6 20  1  0
  7 21  1  0
  7 22  1  0
  8 23  1  0
  8 24  1  0
  9 25  1  0
  9 26  1  0
 12 27  1  0
M  END
