
     RDKit          3D

 21 21  0  0  0  0  0  0  0  0999 V2000
    0.5607    1.1518    0.1588 C   0  0  0  0  0  0  0  0  0  0  0  0
    1.2234   -0.0546   -0.0002 C   0  0  0  0  0  0  0  0  0  0  0  0
    0.5294   -1.2117   -0.3241 C   0  0  0  0  0  0  0  0  0  0  0  0
   -0.8460   -1.1460   -0.4824 C   0  0  0  0  0  0  0  0  0  0  0  0
    3.0991   -0.1251    0.2182 Br  0  0  0  0  0  0  0  0  0  0  0  0
   -0.8177    1.1961   -0.0085 C   0  0  0  0  0  0  0  0  0  0  0  0
   -1.5393    0.0514   -0.3252 C   0  0  0  0  0  0  0  0  0  0  0  0
   -3.0464    0.0590   -0.4666 C   0  0  2  0  0  0  0  0  0  0  0  0
   -3.5593    1.3183   -0.8348 O   0  0  0  0  0  0  0  0  0  0  0  0
   -3.7000   -0.4619    0.8122 C   0  0  0  0  0  0  0  0  0  0  0  0
   -5.1269   -0.6496    0.6247 N   0  0  0  0  0  0  0  0  0  0  0  0
    1.0992    2.0563    0.4085 H   0  0  0  0  0  0  0  0  0  0  0  0
    1.0430   -2.1541   -0.4597 H   0  0  0  0  0  0  0  0  0  0  0  0
   -1.3844   -2.0503   -0.7417 H   0  0  0  0  0  0  0  0  0  0  0  0
   -1.3131    2.1512    0.1110 H   0  0  0  0  0  0  0  0  0  0  0  0
   -3.3165   -0.6222   -1.2803 H   0  0  0  0  0  0  0  0  0  0  0  0
   -3.5773    1.8907   -0.0599 H   0  0  0  0  0  0  0  0  0  0  0  0
   -3.2521   -1.4259    1.0623 H   0  0  0  0  0  0  0  0  0  0  0  0
   -3.4361    0.2225    1.6357 H   0  0  0  0  0  0  0  0  0  0  0  0
   -5.5318   -1.0143    1.4769 H   0  0  0  0  0  0  0  0  0  0  0  0
   -5.5732    0.2455    0.4706 H   0  0  0  0  0  0  0  0  0  0  0  0
  5  2  1  0
  3  2  1  0
  3  4  2  0
  2  1  2  0
  4  7  1  0
  1  6  1  0
 11 10  1  0
  7  6  2  0
  7  8  1  0
  8 10  1  0
  8  9  1  0
  1 12  1  0
  3 13  1  0
  4 14  1  0
  6 15  1  0
  8 16  1  6
  9 17  1  0
 10 18  1  0
 10 19  1  0
 11 20  1  0
 11 21  1  0
M  END
