
     RDKit          3D

 28 29  0  0  0  0  0  0  0  0999 V2000
    0.8189   -2.7838    1.5602 Cl  0  0  0  0  0  0  0  0  0  0  0  0
    1.5883   -1.4780    0.7484 C   0  0  0  0  0  0  0  0  0  0  0  0
    2.9637   -1.3452    0.8656 C   0  0  0  0  0  0  0  0  0  0  0  0
    3.6114   -0.2947    0.2423 C   0  0  0  0  0  0  0  0  0  0  0  0
    2.8627    0.6183   -0.4816 C   0  0  0  0  0  0  0  0  0  0  0  0
    3.5341    1.7268   -1.1434 N   0  0  0  0  0  0  0  0  0  0  0  0
    4.7334    1.8066   -1.0317 O   0  0  0  0  0  0  0  0  0  0  0  0
    2.8562    2.5067   -1.7682 O   0  0  0  0  0  0  0  0  0  0  0  0
    1.4867    0.5035   -0.5917 C   0  0  0  0  0  0  0  0  0  0  0  0
    0.8365   -0.5561    0.0218 C   0  0  0  0  0  0  0  0  0  0  0  0
   -0.6424   -0.7254   -0.1746 C   0  0  0  0  0  0  0  0  0  0  0  0
   -1.0943   -1.7402   -0.6655 O   0  0  0  0  0  0  0  0  0  0  0  0
   -1.3604    0.3468    0.2235 N   0  0  0  0  0  0  0  0  0  0  0  0
   -2.7427    0.5669    0.1425 C   0  0  0  0  0  0  0  0  0  0  0  0
   -3.6446   -0.3031   -0.4701 C   0  0  0  0  0  0  0  0  0  0  0  0
   -4.9951    0.0218   -0.4971 C   0  0  0  0  0  0  0  0  0  0  0  0
   -5.4665    1.1943    0.0732 C   0  0  0  0  0  0  0  0  0  0  0  0
   -4.5647    2.0578    0.6820 C   0  0  0  0  0  0  0  0  0  0  0  0
   -3.2163    1.7487    0.7170 C   0  0  0  0  0  0  0  0  0  0  0  0
    3.5318   -2.0602    1.4432 H   0  0  0  0  0  0  0  0  0  0  0  0
    4.6836   -0.2018    0.3334 H   0  0  0  0  0  0  0  0  0  0  0  0
    0.9166    1.2225   -1.1636 H   0  0  0  0  0  0  0  0  0  0  0  0
   -0.8448    1.0822    0.6852 H   0  0  0  0  0  0  0  0  0  0  0  0
   -3.3150   -1.2234   -0.9226 H   0  0  0  0  0  0  0  0  0  0  0  0
   -5.6844   -0.6619   -0.9756 H   0  0  0  0  0  0  0  0  0  0  0  0
   -6.5210    1.4338    0.0445 H   0  0  0  0  0  0  0  0  0  0  0  0
   -4.9090    2.9789    1.1333 H   0  0  0  0  0  0  0  0  0  0  0  0
   -2.5222    2.4302    1.1954 H   0  0  0  0  0  0  0  0  0  0  0  0
  1  2  1  0
  2  3  2  0
  2 10  1  0
  3  4  1  0
  3 20  1  0
  4  5  2  0
  4 21  1  0
  5  6  1  0
  5  9  1  0
  6  7  1  0
  6  8  2  0
  9 10  2  0
  9 22  1  0
 10 11  1  0
 11 12  2  0
 11 13  1  0
 13 14  1  0
 13 23  1  0
 14 15  2  0
 14 19  1  0
 15 16  1  0
 15 24  1  0
 16 17  2  0
 16 25  1  0
 17 18  1  0
 17 26  1  0
 18 19  2  0
 18 27  1  0
 19 28  1  0
M  CHG  2   6   1   7  -1
M  END
