
     RDKit          3D

 13 13  0  0  0  0  0  0  0  0999 V2000
    2.9567   -0.2167   -0.2241 O   0  0  0  0  0  0  0  0  0  0  0  0
    1.6379   -0.1322   -0.1050 C   0  0  0  0  0  0  0  0  0  0  0  0
    0.9679   -0.1339    1.1178 C   0  0  0  0  0  0  0  0  0  0  0  0
    1.8989   -0.2482    2.5565 Cl  0  0  0  0  0  0  0  0  0  0  0  0
   -0.4173   -0.0451    1.1747 C   0  0  0  0  0  0  0  0  0  0  0  0
   -1.2038   -0.0555    2.6908 Cl  0  0  0  0  0  0  0  0  0  0  0  0
   -1.1588    0.0502    0.0029 C   0  0  0  0  0  0  0  0  0  0  0  0
   -2.8647    0.1634    0.0682 Cl  0  0  0  0  0  0  0  0  0  0  0  0
   -0.4996    0.0551   -1.2237 C   0  0  0  0  0  0  0  0  0  0  0  0
   -1.3959    0.1725   -2.6734 Cl  0  0  0  0  0  0  0  0  0  0  0  0
    0.8844   -0.0358   -1.2753 C   0  0  0  0  0  0  0  0  0  0  0  0
    1.7118   -0.0320   -2.7733 Cl  0  0  0  0  0  0  0  0  0  0  0  0
    3.3897   -0.3105    0.6358 H   0  0  0  0  0  0  0  0  0  0  0  0
  1  2  1  0
  1 13  1  0
  2  3  2  0
  2 11  1  0
  3  4  1  0
  3  5  1  0
  5  6  1  0
  5  7  2  0
  7  8  1  0
  7  9  1  0
  9 10  1  0
  9 11  2  0
 11 12  1  0
M  END
