
     RDKit          3D

 33 33  0  0  0  0  0  0  0  0999 V2000
   -0.4367    1.4623   -0.8102 N   0  0  0  0  0  0  0  0  0  0  0  0
    0.4132    2.5853   -1.1834 C   0  0  0  0  0  0  0  0  0  0  0  0
   -2.2431    2.7885   -1.1400 O   0  0  0  0  0  0  0  0  0  0  0  0
   -2.9133   -1.4334    0.3296 O   0  0  0  0  0  0  0  0  0  0  0  0
   -4.3111   -1.1747    0.4182 C   0  0  0  0  0  0  0  0  0  0  0  0
   -2.6181    0.6949   -0.3788 N   0  0  0  0  0  0  0  0  0  0  0  0
   -1.8088    1.6987   -0.7948 C   0  0  0  0  0  0  0  0  0  0  0  0
   -2.1149   -0.4619   -0.0743 C   0  0  0  0  0  0  0  0  0  0  0  0
   -0.7329   -0.7963   -0.1452 C   0  0  0  0  0  0  0  0  0  0  0  0
   -0.2761   -2.1877    0.1677 C   0  0  0  0  0  0  0  0  0  0  0  0
    0.0878    0.2334   -0.5137 C   0  0  0  0  0  0  0  0  0  0  0  0
    1.5410    0.0696   -0.6868 C   0  0  0  0  0  0  0  0  0  0  0  0
    2.4124   -0.1941    0.2863 C   0  0  0  0  0  0  0  0  0  0  0  0
    2.0383   -0.2649    1.7385 C   0  0  0  0  0  0  0  0  0  0  0  0
    3.8751   -0.3766    0.0090 C   0  0  0  0  0  0  0  0  0  0  0  0
    2.4927   -1.4902    2.2684 O   0  0  0  0  0  0  0  0  0  0  0  0
    4.1660   -0.1385   -1.3410 O   0  0  0  0  0  0  0  0  0  0  0  0
    1.4321    2.3996   -0.8621 H   0  0  0  0  0  0  0  0  0  0  0  0
    0.4049    2.7414   -2.2616 H   0  0  0  0  0  0  0  0  0  0  0  0
    0.0592    3.4894   -0.6973 H   0  0  0  0  0  0  0  0  0  0  0  0
   -4.5255   -0.3865    1.1394 H   0  0  0  0  0  0  0  0  0  0  0  0
   -4.7283   -0.8924   -0.5481 H   0  0  0  0  0  0  0  0  0  0  0  0
   -4.7622   -2.1052    0.7511 H   0  0  0  0  0  0  0  0  0  0  0  0
   -0.8620   -2.9261   -0.3801 H   0  0  0  0  0  0  0  0  0  0  0  0
    0.7680   -2.3310   -0.0943 H   0  0  0  0  0  0  0  0  0  0  0  0
   -0.3801   -2.4143    1.2303 H   0  0  0  0  0  0  0  0  0  0  0  0
    1.8975    0.1940   -1.7043 H   0  0  0  0  0  0  0  0  0  0  0  0
    2.5134    0.5872    2.2450 H   0  0  0  0  0  0  0  0  0  0  0  0
    0.9583   -0.1412    1.8630 H   0  0  0  0  0  0  0  0  0  0  0  0
    4.4317    0.3009    0.6735 H   0  0  0  0  0  0  0  0  0  0  0  0
    4.1550   -1.3937    0.3108 H   0  0  0  0  0  0  0  0  0  0  0  0
    2.3797   -1.4603    3.2228 H   0  0  0  0  0  0  0  0  0  0  0  0
    5.0898   -0.3574   -1.4911 H   0  0  0  0  0  0  0  0  0  0  0  0
 17 15  1  0
 15 13  1  0
  4  8  1  0
  4  5  1  0
  6  8  2  0
  6  7  1  0
  8  9  1  0
  3  7  2  0
  7  1  1  0
  9 10  1  0
  9 11  2  0
 13 14  1  0
 13 12  2  0
  1 11  1  0
  1  2  1  0
 11 12  1  0
 14 16  1  0
  2 18  1  0
  2 19  1  0
  2 20  1  0
  5 21  1  0
  5 22  1  0
  5 23  1  0
 10 24  1  0
 10 25  1  0
 10 26  1  0
 12 27  1  0
 14 28  1  0
 14 29  1  0
 15 30  1  0
 15 31  1  0
 16 32  1  0
 17 33  1  0
M  END
