
     RDKit          3D

 47 50  0  0  0  0  0  0  0  0999 V2000
    5.1985   -0.2522   -0.1304 C   0  0  0  0  0  0  0  0  0  0  0  0
    6.5126    0.2251   -0.1865 C   0  0  0  0  0  0  0  0  0  0  0  0
    6.8508    1.5829    0.2121 C   0  0  0  0  0  0  0  0  0  0  0  0
    7.4769   -0.7152   -0.6640 C   0  0  0  0  0  0  0  0  0  0  0  0
    5.8291   -2.2497   -0.9285 C   0  0  0  0  0  0  0  0  0  0  0  0
    2.4641   -0.7639    1.4090 C   0  0  0  0  0  0  0  0  0  0  0  0
    1.9104    0.5689   -0.5041 C   0  0  0  0  0  0  0  0  0  0  0  0
    5.7263    2.3677    0.6553 C   0  0  0  0  0  0  0  0  0  0  0  0
    1.1448   -1.1576    1.5072 C   0  0  0  0  0  0  0  0  0  0  0  0
   -2.2688   -0.6597    0.2374 C   0  0  0  0  0  0  0  0  0  0  0  0
   -5.1779    0.2436    0.2056 C   0  0  0  0  0  0  0  0  0  0  0  0
   -6.8153   -1.8508   -0.6132 C   0  0  0  0  0  0  0  0  0  0  0  0
   -7.0037    1.8886   -0.2541 C   0  0  1  0  0  0  0  0  0  0  0  0
    4.1989    0.5682    0.3213 N   0  0  0  0  0  0  0  0  0  0  0  0
    4.8456   -1.4836   -0.5015 N   0  0  0  0  0  0  0  0  0  0  0  0
    2.8482    0.1077    0.4014 C   0  0  0  0  0  0  0  0  0  0  0  0
    4.4831    1.8459    0.6965 C   0  0  0  0  0  0  0  0  0  0  0  0
    8.0022    2.0335    0.1777 O   0  0  0  0  0  0  0  0  0  0  0  0
    7.1094   -1.9500   -1.0302 N   0  0  0  0  0  0  0  0  0  0  0  0
    8.7624   -0.4064   -0.7624 N   0  0  0  0  0  0  0  0  0  0  0  0
    0.5812    0.1813   -0.4104 C   0  0  0  0  0  0  0  0  0  0  0  0
    0.1828   -0.6876    0.6059 C   0  0  0  0  0  0  0  0  0  0  0  0
   -1.1173   -1.1540    0.7836 N   0  0  0  0  0  0  0  0  0  0  0  0
   -3.3811   -1.3583    0.6370 N   0  0  0  0  0  0  0  0  0  0  0  0
   -2.3207    0.2949   -0.5137 O   0  0  0  0  0  0  0  0  0  0  0  0
   -4.6720   -1.0529    0.2047 C   0  0  0  0  0  0  0  0  0  0  0  0
   -5.5159   -2.0769   -0.2108 C   0  0  0  0  0  0  0  0  0  0  0  0
   -6.4770    0.4885   -0.2141 C   0  0  0  0  0  0  0  0  0  0  0  0
   -5.0437   -3.3286   -0.2058 F   0  0  0  0  0  0  0  0  0  0  0  0
   -7.2991   -0.5548   -0.6258 C   0  0  0  0  0  0  0  0  0  0  0  0
   -6.2808    2.7304    0.4905 F   0  0  0  0  0  0  0  0  0  0  0  0
   -7.0073    2.3789   -1.5032 F   0  0  0  0  0  0  0  0  0  0  0  0
   -8.2665    1.9587    0.1855 F   0  0  0  0  0  0  0  0  0  0  0  0
    5.5505   -3.2529   -1.2351 H   0  0  0  0  0  0  0  0  0  0  0  0
    3.1888   -1.1308    2.1236 H   0  0  0  0  0  0  0  0  0  0  0  0
    2.2090    1.2378   -1.3019 H   0  0  0  0  0  0  0  0  0  0  0  0
    5.8817    3.3896    0.9714 H   0  0  0  0  0  0  0  0  0  0  0  0
    0.8526   -1.8319    2.3032 H   0  0  0  0  0  0  0  0  0  0  0  0
   -4.5496    1.0501    0.5532 H   0  0  0  0  0  0  0  0  0  0  0  0
   -7.4365   -2.6802   -0.9236 H   0  0  0  0  0  0  0  0  0  0  0  0
    3.6365    2.4225    1.0413 H   0  0  0  0  0  0  0  0  0  0  0  0
    9.0815    0.5101   -0.4868 H   0  0  0  0  0  0  0  0  0  0  0  0
    9.4149   -1.0987   -1.0899 H   0  0  0  0  0  0  0  0  0  0  0  0
   -0.1221    0.5560   -1.1349 H   0  0  0  0  0  0  0  0  0  0  0  0
   -1.2120   -1.8772    1.4808 H   0  0  0  0  0  0  0  0  0  0  0  0
   -3.2555   -2.2447    1.1029 H   0  0  0  0  0  0  0  0  0  0  0  0
   -8.3151   -0.3764   -0.9510 H   0  0  0  0  0  0  0  0  0  0  0  0
 20  4  1  0
 18  3  2  0
  3  2  1  0
  3  8  1  0
  4  2  1  0
  4 19  2  0
  2  1  2  0
 19  5  1  0
  8 17  2  0
  5 15  2  0
 17 14  1  0
  1 15  1  0
  1 14  1  0
 14 16  1  0
 16  6  2  0
 16  7  1  0
  6  9  1  0
  7 21  2  0
  9 22  2  0
 21 22  1  0
 22 23  1  0
 23 10  1  0
 25 10  2  0
 10 24  1  0
 24 26  1  0
 13 33  1  1
 11 26  2  0
 11 28  1  0
 26 27  1  0
 31 13  1  0
 13 28  1  0
 13 32  1  0
 28 30  2  0
 27 29  1  0
 27 12  2  0
 30 12  1  0
  5 34  1  0
  6 35  1  0
  7 36  1  0
  8 37  1  0
  9 38  1  0
 11 39  1  0
 12 40  1  0
 17 41  1  0
 20 42  1  0
 20 43  1  0
 21 44  1  0
 23 45  1  0
 24 46  1  0
 30 47  1  0
M  END
