
     RDKit          3D

 19 19  0  0  0  0  0  0  0  0999 V2000
    0.1596    2.2605    0.0011 C   0  0  0  0  0  0  0  0  0  0  0  0
   -0.3647    0.8907    0.0561 N   0  0  0  0  0  0  0  0  0  0  0  0
    0.4855   -0.1579    0.1561 C   0  0  0  0  0  0  0  0  0  0  0  0
   -0.0446   -1.4403    0.1891 C   0  0  0  0  0  0  0  0  0  0  0  0
    1.9222    0.0925    0.2449 C   0  0  0  0  0  0  0  0  0  0  0  0
    2.8281   -0.7447   -0.2545 C   0  0  0  0  0  0  0  0  0  0  0  0
   -1.4083   -1.6406    0.1041 C   0  0  0  0  0  0  0  0  0  0  0  0
   -2.2500   -0.5417    0.0070 C   0  0  0  0  0  0  0  0  0  0  0  0
   -1.6937    0.7117   -0.0130 C   0  0  0  0  0  0  0  0  0  0  0  0
    0.8919    2.3421   -0.7969 H   0  0  0  0  0  0  0  0  0  0  0  0
   -0.6594    2.9416   -0.1984 H   0  0  0  0  0  0  0  0  0  0  0  0
    0.6155    2.5229    0.9523 H   0  0  0  0  0  0  0  0  0  0  0  0
    0.6270   -2.2782    0.3027 H   0  0  0  0  0  0  0  0  0  0  0  0
    2.2504    0.9972    0.7402 H   0  0  0  0  0  0  0  0  0  0  0  0
    3.8826   -0.5320   -0.1516 H   0  0  0  0  0  0  0  0  0  0  0  0
    2.5611   -1.6463   -0.7901 H   0  0  0  0  0  0  0  0  0  0  0  0
   -1.8118   -2.6432    0.1280 H   0  0  0  0  0  0  0  0  0  0  0  0
   -3.3228   -0.6447   -0.0498 H   0  0  0  0  0  0  0  0  0  0  0  0
   -2.2964    1.6033   -0.0903 H   0  0  0  0  0  0  0  0  0  0  0  0
  1  2  1  0
  2  3  2  0
  2  9  1  0
  3  4  1  0
  3  5  1  0
  4  7  2  0
  5  6  2  0
  7  8  1  0
  8  9  2  0
  1 10  1  0
  1 11  1  0
  1 12  1  0
  4 13  1  0
  5 14  1  0
  6 15  1  0
  6 16  1  0
  7 17  1  0
  8 18  1  0
  9 19  1  0
M  CHG  1   2   1
M  END
