
     RDKit          3D

 45 48  0  0  0  0  0  0  0  0999 V2000
   -2.6255    0.0665   -0.5183 O   0  0  0  0  0  0  0  0  0  0  0  0
   -1.4262   -0.5792   -0.1883 C   0  0  2  0  0  0  0  0  0  0  0  0
   -1.0985   -0.3407    1.2589 C   0  0  0  0  0  0  0  0  0  0  0  0
   -1.9712    0.1681    2.1647 C   0  0  0  0  0  0  0  0  0  0  0  0
   -3.3791    0.4738    1.7490 C   0  0  0  0  0  0  0  0  0  0  0  0
   -3.6612   -0.1906    0.4104 C   0  0  0  0  0  0  0  0  0  0  0  0
    0.4403   -0.7225    1.9426 S   0  0  0  0  0  0  0  0  0  0  0  0
   -0.0756   -0.1668    3.4837 C   0  0  0  0  0  0  0  0  0  0  0  0
   -1.3787    0.2920    3.4676 C   0  0  0  0  0  0  0  0  0  0  0  0
   -1.9908    0.8431    4.6776 C   0  0  0  0  0  0  0  0  0  0  0  0
   -1.4415    0.8615    5.7634 O   0  0  0  0  0  0  0  0  0  0  0  0
   -3.1995    1.3381    4.4860 O   0  0  0  0  0  0  0  0  0  0  0  0
    0.7519   -0.1893    4.5760 N   0  0  0  0  0  0  0  0  0  0  0  0
    2.0238   -0.6318    4.5575 C   0  0  0  0  0  0  0  0  0  0  0  0
    2.6947   -0.5314    5.9271 C   0  0  0  0  0  0  0  0  0  0  0  0
    2.1284   -0.0913    6.8914 O   0  0  0  0  0  0  0  0  0  0  0  0
    3.9227   -0.9800    5.8788 O   0  0  0  0  0  0  0  0  0  0  0  0
    2.5872   -1.0640    3.5765 O   0  0  0  0  0  0  0  0  0  0  0  0
   -0.3412   -0.0145   -1.0820 C   0  0  0  0  0  0  0  0  0  0  0  0
   -0.7018   -0.3379   -2.4313 O   0  0  0  0  0  0  0  0  0  0  0  0
    0.0860    0.0462   -3.3878 C   0  0  0  0  0  0  0  0  0  0  0  0
   -0.3125   -0.2771   -4.7697 C   0  0  0  0  0  0  0  0  0  0  0  0
    0.6357    0.2134   -5.6493 C   0  0  0  0  0  0  0  0  0  0  0  0
    1.8984    1.0023   -4.6815 S   0  0  2  0  0  0  0  0  0  0  0  0
    1.1853    0.6886   -3.2096 N   0  0  0  0  0  0  0  0  0  0  0  0
   -1.4248   -0.9513   -5.2372 C   0  0  0  0  0  0  0  0  0  0  0  0
   -1.5479   -1.1143   -6.6135 C   0  0  0  0  0  0  0  0  0  0  0  0
   -0.5862   -0.6164   -7.4866 C   0  0  0  0  0  0  0  0  0  0  0  0
    0.5343    0.0633   -7.0130 C   0  0  0  0  0  0  0  0  0  0  0  0
    1.9135    2.4340   -4.9107 O   0  0  0  0  0  0  0  0  0  0  0  0
    3.1506    0.2774   -4.7780 O   0  0  0  0  0  0  0  0  0  0  0  0
   -1.5086   -1.6633   -0.3690 H   0  0  0  0  0  0  0  0  0  0  0  0
   -3.5347    1.5536    1.6845 H   0  0  0  0  0  0  0  0  0  0  0  0
   -4.0936    0.0956    2.4802 H   0  0  0  0  0  0  0  0  0  0  0  0
   -4.5800    0.1999   -0.0260 H   0  0  0  0  0  0  0  0  0  0  0  0
   -3.7894   -1.2718    0.5481 H   0  0  0  0  0  0  0  0  0  0  0  0
   -3.5553    1.6778    5.3217 H   0  0  0  0  0  0  0  0  0  0  0  0
    0.3393    0.1471    5.4437 H   0  0  0  0  0  0  0  0  0  0  0  0
    4.3435   -0.9202    6.7512 H   0  0  0  0  0  0  0  0  0  0  0  0
   -0.2648    1.0688   -0.9655 H   0  0  0  0  0  0  0  0  0  0  0  0
    0.6290   -0.4605   -0.8517 H   0  0  0  0  0  0  0  0  0  0  0  0
   -2.1765   -1.3412   -4.5644 H   0  0  0  0  0  0  0  0  0  0  0  0
   -2.4069   -1.6363   -7.0117 H   0  0  0  0  0  0  0  0  0  0  0  0
   -0.7093   -0.7586   -8.5515 H   0  0  0  0  0  0  0  0  0  0  0  0
    1.2826    0.4505   -7.6910 H   0  0  0  0  0  0  0  0  0  0  0  0
  1  2  1  0
  1  6  1  0
  2  3  1  0
  2 19  1  0
  2 32  1  1
  3  4  2  0
  3  7  1  0
  4  5  1  0
  4  9  1  0
  5  6  1  0
  5 33  1  0
  5 34  1  0
  6 35  1  0
  6 36  1  0
  7  8  1  0
  8  9  2  0
  8 13  1  0
  9 10  1  0
 10 11  2  0
 10 12  1  0
 12 37  1  0
 13 14  1  0
 13 38  1  0
 14 15  1  0
 14 18  2  0
 15 16  2  0
 15 17  1  0
 17 39  1  0
 19 20  1  0
 19 40  1  0
 19 41  1  0
 20 21  1  0
 21 22  1  0
 21 25  2  0
 22 23  2  0
 22 26  1  0
 23 24  1  0
 23 29  1  0
 24 25  1  1
 24 30  2  0
 24 31  2  0
 26 27  2  0
 26 42  1  0
 27 28  1  0
 27 43  1  0
 28 29  2  0
 28 44  1  0
 29 45  1  0
M  END
