
     RDKit          3D

 71 75  0  0  0  0  0  0  0  0999 V2000
   -5.2252    5.8223    1.0435 C   0  0  0  0  0  0  0  0  0  0  0  0
   -6.0076    4.5440    1.2951 C   0  0  0  0  0  0  0  0  0  0  0  0
   -5.7274    3.4941    0.3317 N   0  0  0  0  0  0  0  0  0  0  0  0
   -6.6692    2.4001    0.4602 C   0  0  0  0  0  0  0  0  0  0  0  0
   -6.4212    1.3436   -0.5980 C   0  0  0  0  0  0  0  0  0  0  0  0
   -5.0672    0.8348   -0.5040 N   0  0  0  0  0  0  0  0  0  0  0  0
   -4.1149    1.9202   -0.6151 C   0  0  0  0  0  0  0  0  0  0  0  0
   -4.3754    2.9831    0.4351 C   0  0  0  0  0  0  0  0  0  0  0  0
   -4.8312   -0.2188   -1.4726 C   0  0  0  0  0  0  0  0  0  0  0  0
   -3.5780   -1.0019   -1.1616 C   0  0  0  0  0  0  0  0  0  0  0  0
   -2.4100   -0.6557   -1.8300 C   0  0  0  0  0  0  0  0  0  0  0  0
   -1.1983   -1.2718   -1.5622 C   0  0  0  0  0  0  0  0  0  0  0  0
   -1.1354   -2.2843   -0.6152 C   0  0  0  0  0  0  0  0  0  0  0  0
   -2.3026   -2.6785    0.0309 C   0  0  0  0  0  0  0  0  0  0  0  0
   -3.5075   -2.0402   -0.2194 C   0  0  0  0  0  0  0  0  0  0  0  0
   -4.7360   -2.5264    0.4995 C   0  0  1  0  0  0  0  0  0  0  0  0
   -4.4560   -3.4867    1.3878 F   0  0  0  0  0  0  0  0  0  0  0  0
   -5.3633   -1.5578    1.1704 F   0  0  0  0  0  0  0  0  0  0  0  0
   -5.6307   -3.0517   -0.3546 F   0  0  0  0  0  0  0  0  0  0  0  0
    0.1256   -3.0192   -0.2961 C   0  0  0  0  0  0  0  0  0  0  0  0
    1.2534   -2.2742   -0.4002 N   0  0  0  0  0  0  0  0  0  0  0  0
    2.5758   -2.6877   -0.1904 C   0  0  0  0  0  0  0  0  0  0  0  0
    3.0098   -3.9978   -0.3503 C   0  0  0  0  0  0  0  0  0  0  0  0
    4.3549   -4.2866   -0.1540 C   0  0  0  0  0  0  0  0  0  0  0  0
    5.2919   -3.3251    0.1922 C   0  0  0  0  0  0  0  0  0  0  0  0
    6.7383   -3.6639    0.3941 C   0  0  0  0  0  0  0  0  0  0  0  0
    4.8281   -2.0139    0.3441 C   0  0  0  0  0  0  0  0  0  0  0  0
    3.4927   -1.6946    0.1606 C   0  0  0  0  0  0  0  0  0  0  0  0
    5.7686   -1.0941    0.6907 O   0  0  0  0  0  0  0  0  0  0  0  0
    5.4092    0.2267    0.8230 C   0  0  0  0  0  0  0  0  0  0  0  0
    5.0979    0.7186    2.0805 C   0  0  0  0  0  0  0  0  0  0  0  0
    4.7786    2.0631    2.2535 C   0  0  0  0  0  0  0  0  0  0  0  0
    4.7768    2.8731    1.1347 C   0  0  0  0  0  0  0  0  0  0  0  0
    5.0851    2.3785   -0.1331 C   0  0  0  0  0  0  0  0  0  0  0  0
    4.9931    3.5069   -1.1088 C   0  0  0  0  0  0  0  0  0  0  0  0
    4.5993    4.6921   -0.2396 C   0  0  0  0  0  0  0  0  0  0  0  0
    4.4974    4.2300    1.0388 N   0  0  0  0  0  0  0  0  0  0  0  0
    4.4074    5.8350   -0.5972 O   0  0  0  0  0  0  0  0  0  0  0  0
    5.4056    1.0494   -0.3015 C   0  0  0  0  0  0  0  0  0  0  0  0
    0.1066   -4.1901    0.0386 O   0  0  0  0  0  0  0  0  0  0  0  0
   -5.3645    6.1684    0.0185 H   0  0  0  0  0  0  0  0  0  0  0  0
   -5.5735    6.6082    1.7142 H   0  0  0  0  0  0  0  0  0  0  0  0
   -4.1563    5.7005    1.2181 H   0  0  0  0  0  0  0  0  0  0  0  0
   -5.8259    4.1993    2.3279 H   0  0  0  0  0  0  0  0  0  0  0  0
   -7.0755    4.7688    1.2316 H   0  0  0  0  0  0  0  0  0  0  0  0
   -6.6155    1.9277    1.4567 H   0  0  0  0  0  0  0  0  0  0  0  0
   -7.6843    2.7874    0.3425 H   0  0  0  0  0  0  0  0  0  0  0  0
   -3.6581    3.7913    0.2825 H   0  0  0  0  0  0  0  0  0  0  0  0
   -4.1783    2.5612    1.4370 H   0  0  0  0  0  0  0  0  0  0  0  0
   -7.1244    0.5214   -0.4465 H   0  0  0  0  0  0  0  0  0  0  0  0
   -6.6314    1.7713   -1.5938 H   0  0  0  0  0  0  0  0  0  0  0  0
   -3.1024    1.5390   -0.4692 H   0  0  0  0  0  0  0  0  0  0  0  0
   -4.1445    2.3845   -1.6171 H   0  0  0  0  0  0  0  0  0  0  0  0
   -5.7046   -0.8703   -1.4890 H   0  0  0  0  0  0  0  0  0  0  0  0
   -4.7404    0.1808   -2.4958 H   0  0  0  0  0  0  0  0  0  0  0  0
   -2.4502    0.1229   -2.5812 H   0  0  0  0  0  0  0  0  0  0  0  0
   -0.3213   -0.9658   -2.1189 H   0  0  0  0  0  0  0  0  0  0  0  0
   -2.2458   -3.4895    0.7426 H   0  0  0  0  0  0  0  0  0  0  0  0
    1.1301   -1.2790   -0.5091 H   0  0  0  0  0  0  0  0  0  0  0  0
    2.3334   -4.7883   -0.6323 H   0  0  0  0  0  0  0  0  0  0  0  0
    3.1441   -0.6772    0.2909 H   0  0  0  0  0  0  0  0  0  0  0  0
    4.6859   -5.3098   -0.2854 H   0  0  0  0  0  0  0  0  0  0  0  0
    7.3862   -3.1029   -0.2815 H   0  0  0  0  0  0  0  0  0  0  0  0
    7.0701   -3.4439    1.4104 H   0  0  0  0  0  0  0  0  0  0  0  0
    6.9104   -4.7235    0.2118 H   0  0  0  0  0  0  0  0  0  0  0  0
    5.1084    0.0525    2.9338 H   0  0  0  0  0  0  0  0  0  0  0  0
    5.6549    0.6514   -1.2776 H   0  0  0  0  0  0  0  0  0  0  0  0
    4.5406    2.4495    3.2352 H   0  0  0  0  0  0  0  0  0  0  0  0
    4.2509    4.8181    1.8210 H   0  0  0  0  0  0  0  0  0  0  0  0
    5.9366    3.7146   -1.6189 H   0  0  0  0  0  0  0  0  0  0  0  0
    4.2391    3.3475   -1.8833 H   0  0  0  0  0  0  0  0  0  0  0  0
  1  2  1  0
  2  3  1  0
  3  4  1  0
  3  8  1  0
  4  5  1  0
  5  6  1  0
  6  7  1  0
  6  9  1  0
  7  8  1  0
  9 10  1  0
 10 11  2  0
 10 15  1  0
 11 12  1  0
 12 13  2  0
 13 14  1  0
 13 20  1  0
 14 15  2  0
 15 16  1  0
 16 17  1  1
 16 18  1  0
 16 19  1  0
 20 21  1  0
 20 40  2  0
 21 22  1  0
 22 23  2  0
 22 28  1  0
 23 24  1  0
 24 25  2  0
 25 26  1  0
 25 27  1  0
 27 28  2  0
 27 29  1  0
 29 30  1  0
 30 31  2  0
 30 39  1  0
 31 32  1  0
 32 33  2  0
 33 34  1  0
 33 37  1  0
 34 35  1  0
 34 39  2  0
 35 36  1  0
 36 37  1  0
 36 38  2  0
  1 41  1  0
  1 42  1  0
  1 43  1  0
  2 44  1  0
  2 45  1  0
  4 46  1  0
  4 47  1  0
  8 48  1  0
  8 49  1  0
  5 50  1  0
  5 51  1  0
  7 52  1  0
  7 53  1  0
  9 54  1  0
  9 55  1  0
 11 56  1  0
 12 57  1  0
 14 58  1  0
 21 59  1  0
 23 60  1  0
 28 61  1  0
 24 62  1  0
 26 63  1  0
 26 64  1  0
 26 65  1  0
 31 66  1  0
 39 67  1  0
 32 68  1  0
 37 69  1  0
 35 70  1  0
 35 71  1  0
M  END
