
     RDKit          3D

 55 59  0  0  0  0  0  0  0  0999 V2000
    7.7212   -2.2382    0.3475 O   0  0  0  0  0  0  0  0  0  0  0  0
    6.5765   -1.8525    0.3226 C   0  0  0  0  0  0  0  0  0  0  0  0
    5.5191   -2.5938    0.5986 O   0  0  0  0  0  0  0  0  0  0  0  0
    5.7522   -3.9578    0.9553 C   0  0  0  0  0  0  0  0  0  0  0  0
    6.2215   -0.4820   -0.0276 C   0  0  0  0  0  0  0  0  0  0  0  0
    4.9243   -0.1049   -0.0453 O   0  0  0  0  0  0  0  0  0  0  0  0
    7.0173    0.5686   -0.3669 C   0  0  0  0  0  0  0  0  0  0  0  0
    6.1510    1.6601   -0.6072 C   0  0  0  0  0  0  0  0  0  0  0  0
    4.8865    1.1885   -0.3955 C   0  0  0  0  0  0  0  0  0  0  0  0
    3.5804    1.7822   -0.4652 C   0  0  0  0  0  0  0  0  0  0  0  0
    3.3677    3.0827   -0.8032 N   0  0  0  0  0  0  0  0  0  0  0  0
    2.0839    3.4365   -0.8013 N   0  0  0  0  0  0  0  0  0  0  0  0
    1.4589    2.3297   -0.4507 C   0  0  0  0  0  0  0  0  0  0  0  0
    0.0901    1.8973   -0.2216 C   0  0  0  0  0  0  0  0  0  0  0  0
   -1.1319    2.5469   -0.3046 C   0  0  0  0  0  0  0  0  0  0  0  0
   -2.2892    1.8371   -0.0140 C   0  0  0  0  0  0  0  0  0  0  0  0
    2.3322    1.2580   -0.2264 C   0  0  0  0  0  0  0  0  0  0  0  0
    1.5834    0.0285    0.1653 C   0  0  0  0  0  0  0  0  0  0  0  0
    0.1542    0.5430    0.1451 C   0  0  0  0  0  0  0  0  0  0  0  0
   -1.0063   -0.1525    0.4276 C   0  0  0  0  0  0  0  0  0  0  0  0
   -2.2419    0.4926    0.3577 C   0  0  0  0  0  0  0  0  0  0  0  0
   -3.4997   -0.2551    0.7236 C   0  0  0  0  0  0  0  0  0  0  0  0
   -4.6335    0.1635   -0.0715 N   0  0  0  0  0  0  0  0  0  0  0  0
   -5.9228   -0.3277    0.3881 C   0  0  2  0  0  0  0  0  0  0  0  0
   -6.0765   -1.8516    0.3589 C   0  0  0  0  0  0  0  0  0  0  0  0
   -7.4653   -2.2874    0.8196 C   0  0  0  0  0  0  0  0  0  0  0  0
   -7.0317    0.3327   -0.4250 C   0  0  0  0  0  0  0  0  0  0  0  0
   -8.4160   -0.1130    0.0349 C   0  0  0  0  0  0  0  0  0  0  0  0
   -8.5771   -1.6303    0.0154 C   0  0  1  0  0  0  0  0  0  0  0  0
   -8.5169   -2.1504   -1.3018 O   0  0  0  0  0  0  0  0  0  0  0  0
    6.3884   -4.0348    1.8362 H   0  0  0  0  0  0  0  0  0  0  0  0
    4.7757   -4.3775    1.1760 H   0  0  0  0  0  0  0  0  0  0  0  0
    6.2059   -4.5099    0.1328 H   0  0  0  0  0  0  0  0  0  0  0  0
    8.0926    0.5623   -0.4355 H   0  0  0  0  0  0  0  0  0  0  0  0
    6.4306    2.6601   -0.8961 H   0  0  0  0  0  0  0  0  0  0  0  0
    4.0650    3.7680   -1.0494 H   0  0  0  0  0  0  0  0  0  0  0  0
   -1.1892    3.5896   -0.5907 H   0  0  0  0  0  0  0  0  0  0  0  0
   -3.2509    2.3280   -0.0855 H   0  0  0  0  0  0  0  0  0  0  0  0
    1.7226   -0.7974   -0.5373 H   0  0  0  0  0  0  0  0  0  0  0  0
    1.8630   -0.3473    1.1530 H   0  0  0  0  0  0  0  0  0  0  0  0
   -0.9627   -1.2017    0.6999 H   0  0  0  0  0  0  0  0  0  0  0  0
   -3.2917   -1.3337    0.6779 H   0  0  0  0  0  0  0  0  0  0  0  0
   -3.7379   -0.0454    1.7728 H   0  0  0  0  0  0  0  0  0  0  0  0
   -4.4916   -0.1148   -1.0366 H   0  0  0  0  0  0  0  0  0  0  0  0
   -6.0300   -0.0008    1.4319 H   0  0  0  0  0  0  0  0  0  0  0  0
   -5.8860   -2.2094   -0.6585 H   0  0  0  0  0  0  0  0  0  0  0  0
   -5.3241   -2.3202    0.9988 H   0  0  0  0  0  0  0  0  0  0  0  0
   -7.5613   -3.3755    0.7710 H   0  0  0  0  0  0  0  0  0  0  0  0
   -7.6021   -2.0149    1.8706 H   0  0  0  0  0  0  0  0  0  0  0  0
   -6.9416    1.4185   -0.3429 H   0  0  0  0  0  0  0  0  0  0  0  0
   -6.8967    0.0886   -1.4843 H   0  0  0  0  0  0  0  0  0  0  0  0
   -8.5944    0.2375    1.0564 H   0  0  0  0  0  0  0  0  0  0  0  0
   -9.1901    0.3542   -0.5825 H   0  0  0  0  0  0  0  0  0  0  0  0
   -9.5427   -1.8854    0.4755 H   0  0  0  0  0  0  0  0  0  0  0  0
   -9.1465   -1.6663   -1.8451 H   0  0  0  0  0  0  0  0  0  0  0  0
 26 25  1  0
 26 29  1  0
 25 24  1  0
 30 29  1  0
 29 28  1  0
 12 11  1  0
 12 13  2  0
 15 16  1  0
 15 14  2  0
 24 23  1  0
 24 27  1  0
 28 27  1  0
 23 22  1  0
 16 21  2  0
 11 10  1  0
 13 14  1  0
 13 17  1  0
 14 19  1  0
 21 22  1  0
 21 20  1  0
 10 17  2  0
 10  9  1  0
 17 18  1  0
 19 20  2  0
 19 18  1  0
  9  8  2  0
  9  6  1  0
  8  7  1  0
  6  5  1  0
  7  5  2  0
  5  2  1  0
  2  3  1  0
  2  1  2  0
  3  4  1  0
  4 31  1  0
  4 32  1  0
  4 33  1  0
  7 34  1  0
  8 35  1  0
 11 36  1  0
 15 37  1  0
 16 38  1  0
 18 39  1  0
 18 40  1  0
 20 41  1  0
 22 42  1  0
 22 43  1  0
 23 44  1  0
 24 45  1  1
 25 46  1  0
 25 47  1  0
 26 48  1  0
 26 49  1  0
 27 50  1  0
 27 51  1  0
 28 52  1  0
 28 53  1  0
 29 54  1  1
 30 55  1  0
M  END
