
     RDKit          3D

 47 50  0  0  0  0  0  0  0  0999 V2000
    5.9070    0.1567    0.4657 C   0  0  0  0  0  0  0  0  0  0  0  0
    7.5231   -1.3665   -1.2265 C   0  0  0  0  0  0  0  0  0  0  0  0
    7.4228    0.0062   -1.4068 C   0  0  0  0  0  0  0  0  0  0  0  0
    6.6173    0.7625   -0.5647 C   0  0  0  0  0  0  0  0  0  0  0  0
    6.8141   -1.9788   -0.2003 C   0  0  0  0  0  0  0  0  0  0  0  0
   -5.9682    1.3307   -0.2287 C   0  0  0  0  0  0  0  0  0  0  0  0
   -4.9342    0.4749   -0.5743 C   0  0  0  0  0  0  0  0  0  0  0  0
   -6.8166    1.0025    0.8189 C   0  0  0  0  0  0  0  0  0  0  0  0
   -2.8489    1.2415   -1.3154 C   0  0  0  0  0  0  0  0  0  0  0  0
   -2.1712    0.3744   -0.2481 C   0  0  2  0  0  0  0  0  0  0  0  0
    5.0161    0.9739    1.3704 C   0  0  0  0  0  0  0  0  0  0  0  0
    3.5870    0.8836    0.9747 C   0  0  0  0  0  0  0  0  0  0  0  0
    2.4718    0.4450    1.6054 C   0  0  0  0  0  0  0  0  0  0  0  0
    1.4547    0.6451    0.6446 C   0  0  0  0  0  0  0  0  0  0  0  0
   -3.6690   -1.5685   -0.2304 N   0  0  0  0  0  0  0  0  0  0  0  0
   -4.7169   -0.7033    0.1455 C   0  0  0  0  0  0  0  0  0  0  0  0
   -5.5673   -1.0175    1.2002 C   0  0  0  0  0  0  0  0  0  0  0  0
   -6.6157   -0.1724    1.5307 C   0  0  0  0  0  0  0  0  0  0  0  0
   -4.1355    0.7553   -1.6418 O   0  0  0  0  0  0  0  0  0  0  0  0
   -0.7703    0.6729   -0.2381 N   0  0  0  0  0  0  0  0  0  0  0  0
    0.0077    0.3418    0.8044 C   0  0  0  0  0  0  0  0  0  0  0  0
   -0.4063   -0.1535    1.8372 O   0  0  0  0  0  0  0  0  0  0  0  0
    6.0100   -1.2210    0.6393 C   0  0  0  0  0  0  0  0  0  0  0  0
    3.2570    1.3021   -0.2552 O   0  0  0  0  0  0  0  0  0  0  0  0
    1.9315    1.1525   -0.4553 N   0  0  0  0  0  0  0  0  0  0  0  0
   -2.4210   -1.1163   -0.5063 C   0  0  0  0  0  0  0  0  0  0  0  0
   -1.5376   -1.8523   -0.9006 O   0  0  0  0  0  0  0  0  0  0  0  0
    8.1528   -1.9569   -1.8794 H   0  0  0  0  0  0  0  0  0  0  0  0
    7.9719    0.4920   -2.2032 H   0  0  0  0  0  0  0  0  0  0  0  0
    6.5465    1.8340   -0.7092 H   0  0  0  0  0  0  0  0  0  0  0  0
    6.8904   -3.0481   -0.0504 H   0  0  0  0  0  0  0  0  0  0  0  0
   -7.6291    1.6670    1.0806 H   0  0  0  0  0  0  0  0  0  0  0  0
   -2.8941    2.2772   -0.9640 H   0  0  0  0  0  0  0  0  0  0  0  0
   -2.2737    1.2163   -2.2424 H   0  0  0  0  0  0  0  0  0  0  0  0
   -2.5820    0.6299    0.7328 H   0  0  0  0  0  0  0  0  0  0  0  0
    5.0976    0.6326    2.4029 H   0  0  0  0  0  0  0  0  0  0  0  0
    5.3279    2.0215    1.3602 H   0  0  0  0  0  0  0  0  0  0  0  0
    2.3860    0.0421    2.5996 H   0  0  0  0  0  0  0  0  0  0  0  0
   -3.6790   -3.3255   -1.3897 H   0  0  0  0  0  0  0  0  0  0  0  0
   -3.3516   -3.5815    0.3311 H   0  0  0  0  0  0  0  0  0  0  0  0
   -4.9840   -3.1831   -0.2156 H   0  0  0  0  0  0  0  0  0  0  0  0
   -5.4076   -1.9251    1.7683 H   0  0  0  0  0  0  0  0  0  0  0  0
   -7.2714   -0.4318    2.3510 H   0  0  0  0  0  0  0  0  0  0  0  0
   -0.3287    0.9709   -1.0958 H   0  0  0  0  0  0  0  0  0  0  0  0
    5.4622   -1.7050    1.4396 H   0  0  0  0  0  0  0  0  0  0  0  0
   -6.1160    2.2412   -0.7958 H   0  0  0  0  0  0  0  0  0  0  0  0
   -3.9283   -2.9946   -0.3825 C   0  0  0  0  0  0  0  0  0  0  0  0
 11 12  1  0
 11  1  1  0
 24 12  1  0
 24 25  1  0
 12 13  2  0
 23  1  2  0
 23  5  1  0
 25 14  2  0
  1  4  1  0
 13 14  1  0
  5  2  2  0
 14 21  1  0
  4  3  2  0
 27 26  2  0
 21 20  1  0
 21 22  2  0
 20 10  1  0
  2  3  1  0
 26 15  1  0
 26 10  1  0
 47 15  1  0
 15 16  1  0
 10  9  1  0
 17 16  2  0
 17 18  1  0
 16  7  1  0
 18  8  2  0
  9 19  1  0
  7 19  1  0
  7  6  2  0
  8  6  1  0
  2 28  1  0
  3 29  1  0
  4 30  1  0
  5 31  1  0
  6 46  1  0
  8 32  1  0
  9 33  1  0
  9 34  1  0
 10 35  1  1
 11 36  1  0
 11 37  1  0
 13 38  1  0
 47 39  1  0
 47 40  1  0
 47 41  1  0
 17 42  1  0
 18 43  1  0
 20 44  1  0
 23 45  1  0
M  END
