
     RDKit          3D

 72 76  0  0  0  0  0  0  0  0999 V2000
   -7.9788    4.4130    0.7741 C   0  0  0  0  0  0  0  0  0  0  0  0
   -8.3074    2.9596    1.1101 C   0  0  1  0  0  0  0  0  0  0  0  0
   -9.8023    2.8516    1.4028 C   0  0  0  0  0  0  0  0  0  0  0  0
   -7.9063    2.0566    0.0283 N   0  0  0  0  0  0  0  0  0  0  0  0
   -8.2234    0.6653    0.3203 C   0  0  0  0  0  0  0  0  0  0  0  0
   -7.8239   -0.2437   -0.8359 C   0  0  0  0  0  0  0  0  0  0  0  0
   -6.4185   -0.1637   -1.1916 N   0  0  0  0  0  0  0  0  0  0  0  0
   -5.5469   -0.8326   -0.2399 C   0  0  0  0  0  0  0  0  0  0  0  0
   -4.1616   -1.1146   -0.8063 C   0  0  0  0  0  0  0  0  0  0  0  0
   -3.3820   -1.8444    0.1775 N   0  0  0  0  0  0  0  0  0  0  0  0
   -2.0490   -2.2317   -0.2485 C   0  0  2  0  0  0  0  0  0  0  0  0
   -1.4306   -3.1500    0.7956 C   0  0  0  0  0  0  0  0  0  0  0  0
   -0.0256   -3.5929    0.4171 C   0  0  0  0  0  0  0  0  0  0  0  0
    0.8343   -2.4506    0.1702 N   0  0  0  0  0  0  0  0  0  0  0  0
    0.3032   -1.5647   -0.8613 C   0  0  0  0  0  0  0  0  0  0  0  0
   -1.0886   -1.0695   -0.5052 C   0  0  0  0  0  0  0  0  0  0  0  0
    2.2110   -2.6541    0.1950 C   0  0  0  0  0  0  0  0  0  0  0  0
    2.7844   -3.9263    0.3149 C   0  0  0  0  0  0  0  0  0  0  0  0
    4.1632   -4.0762    0.3961 C   0  0  0  0  0  0  0  0  0  0  0  0
    5.0098   -2.9858    0.3343 C   0  0  0  0  0  0  0  0  0  0  0  0
    4.4611   -1.7069    0.2042 C   0  0  0  0  0  0  0  0  0  0  0  0
    3.0801   -1.5536    0.1475 C   0  0  0  0  0  0  0  0  0  0  0  0
    5.3422   -0.5427    0.1507 C   0  0  0  0  0  0  0  0  0  0  0  0
    6.6034   -0.3835    0.6726 C   0  0  0  0  0  0  0  0  0  0  0  0
    7.0261    0.9373    0.3545 C   0  0  0  0  0  0  0  0  0  0  0  0
    8.1922    1.6712    0.6123 C   0  0  0  0  0  0  0  0  0  0  0  0
    8.2491    2.9527    0.1250 C   0  0  0  0  0  0  0  0  0  0  0  0
    9.3596    3.6857    0.3517 F   0  0  0  0  0  0  0  0  0  0  0  0
    7.2160    3.5497   -0.6028 C   0  0  0  0  0  0  0  0  0  0  0  0
    6.0586    2.8395   -0.8585 C   0  0  0  0  0  0  0  0  0  0  0  0
    5.9734    1.5387   -0.3710 C   0  0  0  0  0  0  0  0  0  0  0  0
    4.9670    0.6212   -0.4659 N   0  0  0  0  0  0  0  0  0  0  0  0
   -6.1002    1.2345   -1.4312 C   0  0  0  0  0  0  0  0  0  0  0  0
   -6.4907    2.1711   -0.2931 C   0  0  0  0  0  0  0  0  0  0  0  0
   -8.4138    4.6926   -0.1876 H   0  0  0  0  0  0  0  0  0  0  0  0
   -8.3980    5.0708    1.5358 H   0  0  0  0  0  0  0  0  0  0  0  0
   -6.9092    4.6137    0.7357 H   0  0  0  0  0  0  0  0  0  0  0  0
   -7.7647    2.6967    2.0376 H   0  0  0  0  0  0  0  0  0  0  0  0
  -10.3858    3.0113    0.4937 H   0  0  0  0  0  0  0  0  0  0  0  0
  -10.0891    1.8901    1.8262 H   0  0  0  0  0  0  0  0  0  0  0  0
  -10.0912    3.6139    2.1266 H   0  0  0  0  0  0  0  0  0  0  0  0
   -7.7343    0.3271    1.2516 H   0  0  0  0  0  0  0  0  0  0  0  0
   -9.2969    0.5520    0.4715 H   0  0  0  0  0  0  0  0  0  0  0  0
   -6.2630    3.1852   -0.6209 H   0  0  0  0  0  0  0  0  0  0  0  0
   -5.8584    1.9805    0.5924 H   0  0  0  0  0  0  0  0  0  0  0  0
   -8.0814   -1.2761   -0.5894 H   0  0  0  0  0  0  0  0  0  0  0  0
   -8.4149    0.0341   -1.7154 H   0  0  0  0  0  0  0  0  0  0  0  0
   -5.4322   -0.2853    0.7094 H   0  0  0  0  0  0  0  0  0  0  0  0
   -6.0054   -1.7902    0.0189 H   0  0  0  0  0  0  0  0  0  0  0  0
   -5.0357    1.3514   -1.6391 H   0  0  0  0  0  0  0  0  0  0  0  0
   -6.6314    1.5496   -2.3355 H   0  0  0  0  0  0  0  0  0  0  0  0
   -4.2587   -1.7337   -1.7027 H   0  0  0  0  0  0  0  0  0  0  0  0
   -3.6855   -0.1764   -1.1242 H   0  0  0  0  0  0  0  0  0  0  0  0
   -3.3046   -1.2848    1.0210 H   0  0  0  0  0  0  0  0  0  0  0  0
   -2.1585   -2.7984   -1.1828 H   0  0  0  0  0  0  0  0  0  0  0  0
   -1.3915   -2.6274    1.7578 H   0  0  0  0  0  0  0  0  0  0  0  0
   -2.0551   -4.0348    0.9344 H   0  0  0  0  0  0  0  0  0  0  0  0
   -1.4490   -0.4377   -1.3196 H   0  0  0  0  0  0  0  0  0  0  0  0
   -1.0371   -0.4437    0.3927 H   0  0  0  0  0  0  0  0  0  0  0  0
    0.3842   -4.1766    1.2413 H   0  0  0  0  0  0  0  0  0  0  0  0
   -0.0704   -4.2577   -0.4598 H   0  0  0  0  0  0  0  0  0  0  0  0
    0.9627   -0.7099   -0.9923 H   0  0  0  0  0  0  0  0  0  0  0  0
    0.2691   -2.0902   -1.8283 H   0  0  0  0  0  0  0  0  0  0  0  0
    2.1686   -4.8143    0.3307 H   0  0  0  0  0  0  0  0  0  0  0  0
    2.6635   -0.5546    0.1155 H   0  0  0  0  0  0  0  0  0  0  0  0
    4.5775   -5.0724    0.4851 H   0  0  0  0  0  0  0  0  0  0  0  0
    6.0827   -3.1213    0.3651 H   0  0  0  0  0  0  0  0  0  0  0  0
    7.1471   -1.1157    1.2483 H   0  0  0  0  0  0  0  0  0  0  0  0
    4.1270    0.7447   -1.0071 H   0  0  0  0  0  0  0  0  0  0  0  0
    9.0190    1.2472    1.1678 H   0  0  0  0  0  0  0  0  0  0  0  0
    7.3289    4.5645   -0.9604 H   0  0  0  0  0  0  0  0  0  0  0  0
    5.2499    3.2885   -1.4198 H   0  0  0  0  0  0  0  0  0  0  0  0
  1  2  1  0
  2  3  1  0
  2  4  1  0
  4  5  1  0
  4 34  1  0
  5  6  1  0
  6  7  1  0
  7  8  1  0
  7 33  1  0
  8  9  1  0
  9 10  1  0
 10 11  1  0
 11 12  1  0
 11 16  1  0
 12 13  1  0
 13 14  1  0
 14 15  1  0
 14 17  1  0
 15 16  1  0
 17 18  2  0
 17 22  1  0
 18 19  1  0
 19 20  2  0
 20 21  1  0
 21 22  2  0
 21 23  1  0
 23 24  2  0
 23 32  1  0
 24 25  1  0
 25 26  2  0
 25 31  1  0
 26 27  1  0
 27 28  1  0
 27 29  2  0
 29 30  1  0
 30 31  2  0
 31 32  1  0
 33 34  1  0
  1 35  1  0
  1 36  1  0
  1 37  1  0
  2 38  1  1
  3 39  1  0
  3 40  1  0
  3 41  1  0
  5 42  1  0
  5 43  1  0
 34 44  1  0
 34 45  1  0
  6 46  1  0
  6 47  1  0
  8 48  1  0
  8 49  1  0
 33 50  1  0
 33 51  1  0
  9 52  1  0
  9 53  1  0
 10 54  1  0
 11 55  1  6
 12 56  1  0
 12 57  1  0
 16 58  1  0
 16 59  1  0
 13 60  1  0
 13 61  1  0
 15 62  1  0
 15 63  1  0
 18 64  1  0
 22 65  1  0
 19 66  1  0
 20 67  1  0
 24 68  1  0
 32 69  1  0
 26 70  1  0
 29 71  1  0
 30 72  1  0
M  END
