
     RDKit          3D

 16 16  0  0  0  0  0  0  0  0999 V2000
    2.3737   -0.7631   -0.0142 O   0  0  0  0  0  0  0  0  0  0  0  0
    1.6975    0.2438    0.0124 C   0  0  0  0  0  0  0  0  0  0  0  0
    2.2322    1.4564    0.0269 O   0  0  0  0  0  0  0  0  0  0  0  0
    0.2239    0.2573    0.0285 C   0  0  0  0  0  0  0  0  0  0  0  0
   -0.5133   -0.9450    0.0377 C   0  0  0  0  0  0  0  0  0  0  0  0
    0.0184   -2.1818    0.0816 N   0  0  0  0  0  0  0  0  0  0  0  0
   -0.4838    1.4649    0.0250 C   0  0  0  0  0  0  0  0  0  0  0  0
   -1.8589    1.4639    0.0248 C   0  0  0  0  0  0  0  0  0  0  0  0
   -2.5651    0.3281    0.0247 N   0  0  0  0  0  0  0  0  0  0  0  0
   -1.9251   -0.8132    0.0302 C   0  0  0  0  0  0  0  0  0  0  0  0
    3.1982    1.3873    0.0116 H   0  0  0  0  0  0  0  0  0  0  0  0
    0.0418    2.4091    0.0189 H   0  0  0  0  0  0  0  0  0  0  0  0
    1.0045   -2.3126   -0.0589 H   0  0  0  0  0  0  0  0  0  0  0  0
   -0.5795   -2.9743   -0.0791 H   0  0  0  0  0  0  0  0  0  0  0  0
   -2.5263   -1.7183    0.0304 H   0  0  0  0  0  0  0  0  0  0  0  0
   -2.4166    2.3919    0.0226 H   0  0  0  0  0  0  0  0  0  0  0  0
  1  2  2  0
  2  3  1  0
  2  4  1  0
  4  5  2  0
  4  7  1  0
  5  6  1  0
  5 10  1  0
  7  8  2  0
  8  9  1  0
  9 10  2  0
  3 11  1  0
  7 12  1  0
  6 13  1  0
  6 14  1  0
 10 15  1  0
  8 16  1  0
M  END
