
     RDKit          3D

 21 22  0  0  0  0  0  0  0  0999 V2000
   -2.6016    1.6673   -0.0077 C   0  0  0  0  0  0  0  0  0  0  0  0
   -3.3918    0.5133   -0.0190 C   0  0  0  0  0  0  0  0  0  0  0  0
   -2.9031   -0.7188   -0.0276 N   0  0  0  0  0  0  0  0  0  0  0  0
   -1.2212    1.5644   -0.0042 C   0  0  0  0  0  0  0  0  0  0  0  0
   -0.8556   -1.9533   -0.0319 N   0  0  0  0  0  0  0  0  0  0  0  0
    0.4619   -1.6597   -0.0254 C   0  0  0  0  0  0  0  0  0  0  0  0
    0.6359   -0.2946   -0.0129 C   0  0  0  0  0  0  0  0  0  0  0  0
   -0.6760    0.2828   -0.0119 C   0  0  0  0  0  0  0  0  0  0  0  0
   -1.5850   -0.7949   -0.0241 C   0  0  0  0  0  0  0  0  0  0  0  0
    1.8934    0.4314   -0.0004 C   0  0  0  0  0  0  0  0  0  0  0  0
    1.9774    1.6393    0.0316 O   0  0  0  0  0  0  0  0  0  0  0  0
    2.9483   -0.3773   -0.0279 O   0  0  0  0  0  0  0  0  0  0  0  0
    4.2400    0.2264   -0.0116 C   0  0  0  0  0  0  0  0  0  0  0  0
   -3.0817    2.6361   -0.0016 H   0  0  0  0  0  0  0  0  0  0  0  0
   -4.4718    0.6026   -0.0204 H   0  0  0  0  0  0  0  0  0  0  0  0
   -0.5947    2.4454    0.0050 H   0  0  0  0  0  0  0  0  0  0  0  0
   -1.2413   -2.8850   -0.0364 H   0  0  0  0  0  0  0  0  0  0  0  0
    1.1981   -2.4467   -0.0295 H   0  0  0  0  0  0  0  0  0  0  0  0
    4.3891    0.8781   -0.8723 H   0  0  0  0  0  0  0  0  0  0  0  0
    4.4023    0.7981    0.9021 H   0  0  0  0  0  0  0  0  0  0  0  0
    4.9523   -0.5922   -0.0540 H   0  0  0  0  0  0  0  0  0  0  0  0
  1  2  2  0
  1  4  1  0
  2  3  1  0
  3  9  2  0
  4  8  2  0
  5  6  1  0
  5  9  1  0
  6  7  2  0
  7  8  1  0
  7 10  1  0
  8  9  1  0
 10 11  2  0
 10 12  1  0
 12 13  1  0
  1 14  1  0
  2 15  1  0
  4 16  1  0
  5 17  1  0
  6 18  1  0
 13 19  1  0
 13 20  1  0
 13 21  1  0
M  END
