
     RDKit          3D

 63 66  0  0  0  0  0  0  0  0999 V2000
    2.7888    5.2067    0.0506 C   0  0  1  0  0  0  0  0  0  0  0  0
    3.5609    6.3647    0.6683 C   0  0  0  0  0  0  0  0  0  0  0  0
    2.1726    2.8735    0.5055 C   0  0  0  0  0  0  0  0  0  0  0  0
   -1.1870    0.4840    3.1524 C   0  0  0  0  0  0  0  0  0  0  0  0
   -2.1646    0.1168    2.2080 C   0  0  0  0  0  0  0  0  0  0  0  0
   -1.7716   -0.1365    0.8734 C   0  0  0  0  0  0  0  0  0  0  0  0
   -0.4205   -0.0001    0.5067 C   0  0  0  0  0  0  0  0  0  0  0  0
   -3.9327   -0.5972    0.3112 C   0  0  0  0  0  0  0  0  0  0  0  0
   -4.3158   -0.3412    1.6630 C   0  0  0  0  0  0  0  0  0  0  0  0
   -4.9172   -0.9869   -0.6800 C   0  0  0  0  0  0  0  0  0  0  0  0
   -4.6897   -1.2896   -2.0383 C   0  0  0  0  0  0  0  0  0  0  0  0
   -6.2839   -1.1549   -0.5308 C   0  0  0  0  0  0  0  0  0  0  0  0
    2.7269   -2.7170   -0.5412 C   0  0  0  0  0  0  0  0  0  0  0  0
    3.8188   -2.3609   -1.3349 C   0  0  0  0  0  0  0  0  0  0  0  0
    4.2407   -1.0350   -1.3093 C   0  0  0  0  0  0  0  0  0  0  0  0
    3.5896   -0.0811   -0.5307 C   0  0  0  0  0  0  0  0  0  0  0  0
    2.8780   -4.9917   -1.2228 C   0  0  0  0  0  0  0  0  0  0  0  0
    2.2399   -3.9717   -0.4815 O   0  0  0  0  0  0  0  0  0  0  0  0
    2.0818   -1.7853    0.2597 C   0  0  0  0  0  0  0  0  0  0  0  0
    5.2804   -0.5762   -2.0319 O   0  0  0  0  0  0  0  0  0  0  0  0
    5.9946   -1.4783   -2.8531 C   0  0  0  0  0  0  0  0  0  0  0  0
    2.5045   -0.4515    0.2654 C   0  0  0  0  0  0  0  0  0  0  0  0
    1.8837    0.4691    1.1045 N   0  0  0  0  0  0  0  0  0  0  0  0
    2.5371    1.7234    1.4411 C   0  0  0  0  0  0  0  0  0  0  0  0
    2.7757    4.0958    0.9946 N   0  0  0  0  0  0  0  0  0  0  0  0
    1.4016    5.6618   -0.4024 C   0  0  0  0  0  0  0  0  0  0  0  0
    0.5279    0.3435    1.4440 C   0  0  0  0  0  0  0  0  0  0  0  0
   -2.6821   -0.4915   -0.0614 N   0  0  0  0  0  0  0  0  0  0  0  0
   -6.7617   -1.5217   -1.7248 N   0  0  0  0  0  0  0  0  0  0  0  0
   -5.8081   -1.6097   -2.6520 N   0  0  0  0  0  0  0  0  0  0  0  0
   -3.4619    0.0041    2.5776 N   0  0  0  0  0  0  0  0  0  0  0  0
    0.1247    0.5863    2.7824 C   0  0  0  0  0  0  0  0  0  0  0  0
    3.3385    4.8604   -0.8322 H   0  0  0  0  0  0  0  0  0  0  0  0
    4.5708    6.0612    0.9453 H   0  0  0  0  0  0  0  0  0  0  0  0
    3.6355    7.2017   -0.0265 H   0  0  0  0  0  0  0  0  0  0  0  0
    3.0575    6.7263    1.5684 H   0  0  0  0  0  0  0  0  0  0  0  0
    2.5591    2.6748   -0.4980 H   0  0  0  0  0  0  0  0  0  0  0  0
    1.0786    2.9233    0.4069 H   0  0  0  0  0  0  0  0  0  0  0  0
   -1.4891    0.6633    4.1762 H   0  0  0  0  0  0  0  0  0  0  0  0
   -0.1453   -0.1853   -0.5239 H   0  0  0  0  0  0  0  0  0  0  0  0
   -5.3545   -0.4308    1.9627 H   0  0  0  0  0  0  0  0  0  0  0  0
   -3.7513   -1.2830   -2.5708 H   0  0  0  0  0  0  0  0  0  0  0  0
   -6.9334   -1.0418    0.3223 H   0  0  0  0  0  0  0  0  0  0  0  0
   -8.4653   -1.1892   -2.8803 H   0  0  0  0  0  0  0  0  0  0  0  0
   -8.2236   -2.8693   -2.3628 H   0  0  0  0  0  0  0  0  0  0  0  0
   -8.7584   -1.6493   -1.1969 H   0  0  0  0  0  0  0  0  0  0  0  0
    4.3209   -3.0923   -1.9497 H   0  0  0  0  0  0  0  0  0  0  0  0
    3.9419    0.9399   -0.5747 H   0  0  0  0  0  0  0  0  0  0  0  0
    2.3319   -5.9091   -1.0165 H   0  0  0  0  0  0  0  0  0  0  0  0
    2.8459   -4.8002   -2.2986 H   0  0  0  0  0  0  0  0  0  0  0  0
    3.9195   -5.1280   -0.9200 H   0  0  0  0  0  0  0  0  0  0  0  0
    1.2612   -2.1142    0.8830 H   0  0  0  0  0  0  0  0  0  0  0  0
    6.7915   -0.9048   -3.3198 H   0  0  0  0  0  0  0  0  0  0  0  0
    6.4392   -2.2926   -2.2753 H   0  0  0  0  0  0  0  0  0  0  0  0
    5.3645   -1.9059   -3.6376 H   0  0  0  0  0  0  0  0  0  0  0  0
    3.6164    1.5738    1.4556 H   0  0  0  0  0  0  0  0  0  0  0  0
    2.2638    1.9976    2.4621 H   0  0  0  0  0  0  0  0  0  0  0  0
    2.2971    4.3883    1.8405 H   0  0  0  0  0  0  0  0  0  0  0  0
    0.8210    6.0305    0.4475 H   0  0  0  0  0  0  0  0  0  0  0  0
    1.4746    6.4698   -1.1317 H   0  0  0  0  0  0  0  0  0  0  0  0
    0.8383    4.8514   -0.8665 H   0  0  0  0  0  0  0  0  0  0  0  0
    0.8675    0.8371    3.5281 H   0  0  0  0  0  0  0  0  0  0  0  0
   -8.1312   -1.8268   -2.0650 C   0  0  0  0  0  0  0  0  0  0  0  0
 30 29  1  0
 30 11  2  0
 63 29  1  0
 29 12  1  0
 11 10  1  0
 12 10  2  0
 10  8  1  0
  9  8  1  0
  9 31  2  0
  8 28  2  0
 31  5  1  0
 28  6  1  0
  5  6  1  0
  5  4  2  0
  6  7  2  0
  4 32  1  0
  7 27  1  0
 32 27  2  0
 27 23  1  0
 23 24  1  0
 23 22  1  0
 24  3  1  0
  3 25  1  0
  1 25  1  0
  1  2  1  0
  1 26  1  0
 22 19  1  0
 22 16  2  0
 19 13  2  0
 16 15  1  0
 13 18  1  0
 13 14  1  0
 18 17  1  0
 15 14  2  0
 15 20  1  0
 20 21  1  0
  1 33  1  6
  2 34  1  0
  2 35  1  0
  2 36  1  0
  3 37  1  0
  3 38  1  0
  4 39  1  0
  7 40  1  0
  9 41  1  0
 11 42  1  0
 12 43  1  0
 63 44  1  0
 63 45  1  0
 63 46  1  0
 14 47  1  0
 16 48  1  0
 17 49  1  0
 17 50  1  0
 17 51  1  0
 19 52  1  0
 21 53  1  0
 21 54  1  0
 21 55  1  0
 24 56  1  0
 24 57  1  0
 25 58  1  0
 26 59  1  0
 26 60  1  0
 26 61  1  0
 32 62  1  0
M  END
