
     RDKit          3D

 32 33  0  0  0  0  0  0  0  0999 V2000
    3.5539   -0.9919    1.7881 C   0  0  0  0  0  0  0  0  0  0  0  0
    3.3607   -0.1856    0.5411 C   0  0  0  0  0  0  0  0  0  0  0  0
    4.4265    0.1101   -0.1895 N   0  0  0  0  0  0  0  0  0  0  0  0
    4.2834    0.8189   -1.3055 C   0  0  0  0  0  0  0  0  0  0  0  0
    3.0569    1.2738   -1.7520 C   0  0  0  0  0  0  0  0  0  0  0  0
    1.9258    0.9792   -1.0032 C   0  0  0  0  0  0  0  0  0  0  0  0
    2.0834    0.2425    0.1564 C   0  0  0  0  0  0  0  0  0  0  0  0
    1.0616   -0.0847    0.9941 O   0  0  0  0  0  0  0  0  0  0  0  0
   -0.2214   -0.0409    0.5203 C   0  0  0  0  0  0  0  0  0  0  0  0
   -1.0851    0.9377    0.9771 C   0  0  0  0  0  0  0  0  0  0  0  0
   -2.3952    0.9291    0.5394 C   0  0  0  0  0  0  0  0  0  0  0  0
   -3.2283    1.8798    1.0050 F   0  0  0  0  0  0  0  0  0  0  0  0
   -2.8801   -0.0098   -0.3552 C   0  0  0  0  0  0  0  0  0  0  0  0
   -4.3168   -0.0276   -0.7965 C   0  0  0  0  0  0  0  0  0  0  0  0
   -5.2278   -0.7112    0.2223 C   0  0  0  0  0  0  0  0  0  0  0  0
   -1.9841   -0.9782   -0.8019 C   0  0  0  0  0  0  0  0  0  0  0  0
   -0.6625   -1.0143   -0.3774 C   0  0  0  0  0  0  0  0  0  0  0  0
    0.2292   -1.9356   -0.7840 O   0  0  0  0  0  0  0  0  0  0  0  0
    3.2654   -0.4324    2.6799 H   0  0  0  0  0  0  0  0  0  0  0  0
    2.9507   -1.9011    1.7728 H   0  0  0  0  0  0  0  0  0  0  0  0
    4.5997   -1.2741    1.8874 H   0  0  0  0  0  0  0  0  0  0  0  0
    5.1872    1.0284   -1.8657 H   0  0  0  0  0  0  0  0  0  0  0  0
    2.9797    1.8491   -2.6642 H   0  0  0  0  0  0  0  0  0  0  0  0
    0.9518    1.3253   -1.3249 H   0  0  0  0  0  0  0  0  0  0  0  0
   -0.7374    1.6920    1.6717 H   0  0  0  0  0  0  0  0  0  0  0  0
   -4.6703    0.9876   -0.9849 H   0  0  0  0  0  0  0  0  0  0  0  0
   -4.3807   -0.5564   -1.7490 H   0  0  0  0  0  0  0  0  0  0  0  0
   -6.2544   -0.7458   -0.1431 H   0  0  0  0  0  0  0  0  0  0  0  0
   -4.9035   -1.7354    0.4096 H   0  0  0  0  0  0  0  0  0  0  0  0
   -5.2315   -0.1811    1.1746 H   0  0  0  0  0  0  0  0  0  0  0  0
   -2.3364   -1.7305   -1.5002 H   0  0  0  0  0  0  0  0  0  0  0  0
   -0.1871   -2.5569   -1.3920 H   0  0  0  0  0  0  0  0  0  0  0  0
 14 15  1  0
 14 13  1  0
 13 16  2  0
 13 11  1  0
 16 17  1  0
 12 11  1  0
 11 10  2  0
 17 18  1  0
 17  9  2  0
 10  9  1  0
  9  8  1  0
  8  7  1  0
  6  7  1  0
  6  5  2  0
  7  2  2  0
  5  4  1  0
  2  1  1  0
  2  3  1  0
  4  3  2  0
  1 19  1  0
  1 20  1  0
  1 21  1  0
  4 22  1  0
  5 23  1  0
  6 24  1  0
 10 25  1  0
 14 26  1  0
 14 27  1  0
 15 28  1  0
 15 29  1  0
 15 30  1  0
 16 31  1  0
 18 32  1  0
M  END
