
     RDKit          3D

 39 40  0  0  0  0  0  0  0  0999 V2000
    6.3780    0.3129    0.0239 C   0  0  0  0  0  0  0  0  0  0  0  0
    7.2442    0.9039    1.1195 C   0  0  0  0  0  0  0  0  0  0  0  0
    4.1311   -0.4796   -0.5359 C   0  0  0  0  0  0  0  0  0  0  0  0
    2.7855   -0.6346    0.1533 C   0  0  0  0  0  0  0  0  0  0  0  0
    1.7287   -1.1942   -0.7897 C   0  0  0  0  0  0  0  0  0  0  0  0
    0.3712   -1.3411   -0.1157 C   0  0  0  0  0  0  0  0  0  0  0  0
   -0.6723   -1.9104   -1.0693 C   0  0  0  0  0  0  0  0  0  0  0  0
   -2.4764   -3.2085    0.0871 C   0  0  0  0  0  0  0  0  0  0  0  0
   -3.6898   -2.9772    0.6666 C   0  0  0  0  0  0  0  0  0  0  0  0
   -3.9634   -1.5896    0.4831 C   0  0  0  0  0  0  0  0  0  0  0  0
   -5.0242   -0.7540    0.8374 C   0  0  0  0  0  0  0  0  0  0  0  0
   -4.9674    0.5803    0.4933 C   0  0  0  0  0  0  0  0  0  0  0  0
   -3.8630    1.1003   -0.2067 C   0  0  0  0  0  0  0  0  0  0  0  0
   -2.8008    0.2974   -0.5684 C   0  0  0  0  0  0  0  0  0  0  0  0
   -2.8634   -1.0477   -0.2188 C   0  0  0  0  0  0  0  0  0  0  0  0
    5.1133    0.0654    0.3811 N   0  0  0  0  0  0  0  0  0  0  0  0
   -1.9752   -2.0564   -0.4553 N   0  0  0  0  0  0  0  0  0  0  0  0
    6.8187    0.0869   -1.0930 O   0  0  0  0  0  0  0  0  0  0  0  0
    8.9041    1.1717    0.4402 S   0  0  0  0  0  0  0  0  0  0  0  0
   -3.8205    2.7744   -0.6297 Cl  0  0  0  0  0  0  0  0  0  0  0  0
    6.8140    1.8449    1.4659 H   0  0  0  0  0  0  0  0  0  0  0  0
    7.2831    0.2241    1.9720 H   0  0  0  0  0  0  0  0  0  0  0  0
    4.4713   -1.4495   -0.9091 H   0  0  0  0  0  0  0  0  0  0  0  0
    4.0307    0.1785   -1.4034 H   0  0  0  0  0  0  0  0  0  0  0  0
    2.8902   -1.2965    1.0186 H   0  0  0  0  0  0  0  0  0  0  0  0
    2.4563    0.3372    0.5349 H   0  0  0  0  0  0  0  0  0  0  0  0
    1.6360   -0.5385   -1.6614 H   0  0  0  0  0  0  0  0  0  0  0  0
    2.0567   -2.1673   -1.1691 H   0  0  0  0  0  0  0  0  0  0  0  0
    0.4544   -1.9989    0.7538 H   0  0  0  0  0  0  0  0  0  0  0  0
    0.0394   -0.3676    0.2577 H   0  0  0  0  0  0  0  0  0  0  0  0
   -0.7700   -1.2775   -1.9546 H   0  0  0  0  0  0  0  0  0  0  0  0
   -0.3627   -2.8944   -1.4232 H   0  0  0  0  0  0  0  0  0  0  0  0
   -1.9183   -4.1287    0.0093 H   0  0  0  0  0  0  0  0  0  0  0  0
   -4.3130   -3.7076    1.1566 H   0  0  0  0  0  0  0  0  0  0  0  0
   -5.8811   -1.1400    1.3735 H   0  0  0  0  0  0  0  0  0  0  0  0
   -1.9582    0.7160   -1.1021 H   0  0  0  0  0  0  0  0  0  0  0  0
    4.8169    0.2928    1.3171 H   0  0  0  0  0  0  0  0  0  0  0  0
    9.4324    1.6656    1.5658 H   0  0  0  0  0  0  0  0  0  0  0  0
   -6.2744    1.6209    0.9327 Cl  0  0  0  0  0  0  0  0  0  0  0  0
 20 13  1  0
 39 12  1  0
 13 12  2  0
 13 14  1  0
 12 11  1  0
  2 19  1  0
  2  1  1  0
 14 15  2  0
 18  1  2  0
 11 10  2  0
  1 16  1  0
 15 10  1  0
 15 17  1  0
 10  9  1  0
 16  3  1  0
  4  5  1  0
  4  3  1  0
  5  6  1  0
  6  7  1  0
 17  7  1  0
 17  8  1  0
  9  8  2  0
  2 21  1  0
  2 22  1  0
  3 23  1  0
  3 24  1  0
  4 25  1  0
  4 26  1  0
  5 27  1  0
  5 28  1  0
  6 29  1  0
  6 30  1  0
  7 31  1  0
  7 32  1  0
  8 33  1  0
  9 34  1  0
 11 35  1  0
 14 36  1  0
 16 37  1  0
 19 38  1  0
M  END
