
     RDKit          3D

 45 48  0  0  0  0  0  0  0  0999 V2000
    0.9166   -0.7536   -0.2352 C   0  0  0  0  0  0  0  0  0  0  0  0
   -0.9681   -1.9971    0.5902 C   0  0  0  0  0  0  0  0  0  0  0  0
   -1.2749   -0.7861    0.0392 C   0  0  0  0  0  0  0  0  0  0  0  0
   -2.6127   -0.1958   -0.0942 C   0  0  0  0  0  0  0  0  0  0  0  0
   -3.9975    1.6563   -0.8160 C   0  0  0  0  0  0  0  0  0  0  0  0
   -7.5586    0.8517   -0.0965 C   0  0  0  0  0  0  0  0  0  0  0  0
   -3.7364   -0.8649    0.3309 C   0  0  0  0  0  0  0  0  0  0  0  0
   -5.0233   -0.3034    0.1981 C   0  0  0  0  0  0  0  0  0  0  0  0
   -6.1833   -0.9907    0.6313 C   0  0  0  0  0  0  0  0  0  0  0  0
   -7.4208   -0.4267    0.4862 C   0  0  0  0  0  0  0  0  0  0  0  0
   -6.4551    1.5398   -0.5228 C   0  0  0  0  0  0  0  0  0  0  0  0
   -5.1632    0.9815   -0.3870 C   0  0  0  0  0  0  0  0  0  0  0  0
   -2.7629    1.0891   -0.6757 C   0  0  0  0  0  0  0  0  0  0  0  0
   -0.1816   -0.0985   -0.4212 N   0  0  0  0  0  0  0  0  0  0  0  0
    0.7174   -2.2760    0.5356 S   0  0  0  0  0  0  0  0  0  0  0  0
    2.2680   -0.2634   -0.6398 C   0  0  2  0  0  0  0  0  0  0  0  0
    3.2017   -1.0570    0.0373 O   0  0  0  0  0  0  0  0  0  0  0  0
    4.5416   -0.7817   -0.3264 C   0  0  2  0  0  0  0  0  0  0  0  0
    5.4280   -1.7717    0.3968 C   0  0  0  0  0  0  0  0  0  0  0  0
    5.1005   -3.0716   -0.0304 O   0  0  0  0  0  0  0  0  0  0  0  0
    4.8760    0.6651    0.0420 C   0  0  1  0  0  0  0  0  0  0  0  0
    6.1943    0.9254   -0.3695 O   0  0  0  0  0  0  0  0  0  0  0  0
    3.8884    1.6107   -0.6344 C   0  0  2  0  0  0  0  0  0  0  0  0
    4.1981    2.9157   -0.2101 O   0  0  0  0  0  0  0  0  0  0  0  0
    2.4562    1.2217   -0.2942 C   0  0  1  0  0  0  0  0  0  0  0  0
    1.5914    2.0405   -1.0349 O   0  0  0  0  0  0  0  0  0  0  0  0
   -1.6306   -2.7268    1.0278 H   0  0  0  0  0  0  0  0  0  0  0  0
   -4.0921    2.6380   -1.2648 H   0  0  0  0  0  0  0  0  0  0  0  0
   -8.5439    1.2853   -0.2065 H   0  0  0  0  0  0  0  0  0  0  0  0
   -3.6576   -1.8478    0.7802 H   0  0  0  0  0  0  0  0  0  0  0  0
   -6.0766   -1.9714    1.0797 H   0  0  0  0  0  0  0  0  0  0  0  0
   -8.3024   -0.9597    0.8173 H   0  0  0  0  0  0  0  0  0  0  0  0
   -6.5607    2.5198   -0.9725 H   0  0  0  0  0  0  0  0  0  0  0  0
   -1.8867    1.6258   -1.0124 H   0  0  0  0  0  0  0  0  0  0  0  0
    2.3703   -0.3820   -1.7314 H   0  0  0  0  0  0  0  0  0  0  0  0
    4.6655   -0.9087   -1.4141 H   0  0  0  0  0  0  0  0  0  0  0  0
    6.4705   -1.5229    0.1760 H   0  0  0  0  0  0  0  0  0  0  0  0
    5.2893   -1.6484    1.4804 H   0  0  0  0  0  0  0  0  0  0  0  0
    5.7494   -3.6759    0.3404 H   0  0  0  0  0  0  0  0  0  0  0  0
    4.7726    0.7731    1.1338 H   0  0  0  0  0  0  0  0  0  0  0  0
    6.4143    1.8284   -0.1183 H   0  0  0  0  0  0  0  0  0  0  0  0
    4.0171    1.5114   -1.7246 H   0  0  0  0  0  0  0  0  0  0  0  0
    3.6923    3.5404   -0.7394 H   0  0  0  0  0  0  0  0  0  0  0  0
    2.3013    1.3403    0.7894 H   0  0  0  0  0  0  0  0  0  0  0  0
    0.6878    1.7316   -0.8706 H   0  0  0  0  0  0  0  0  0  0  0  0
 24 23  1  0
 22 21  1  0
 23 21  1  0
 23 25  1  0
 21 18  1  0
 26 25  1  0
 25 16  1  0
 20 19  1  0
 18 19  1  0
 18 17  1  0
 16 17  1  0
 16  1  1  0
 15  1  1  0
 15  2  1  0
  1 14  2  0
  2  3  2  0
 14  3  1  0
  3  4  1  0
  4  7  2  0
  4 13  1  0
  7  8  1  0
 13  5  2  0
  8  9  1  0
  8 12  2  0
  9 10  2  0
  5 12  1  0
 12 11  1  0
 10  6  1  0
 11  6  2  0
  2 27  1  0
  5 28  1  0
  6 29  1  0
  7 30  1  0
  9 31  1  0
 10 32  1  0
 11 33  1  0
 13 34  1  0
 16 35  1  6
 18 36  1  6
 19 37  1  0
 19 38  1  0
 20 39  1  0
 21 40  1  1
 22 41  1  0
 23 42  1  6
 24 43  1  0
 25 44  1  1
 26 45  1  0
M  END
