
     RDKit          3D

 30 32  0  0  0  0  0  0  0  0999 V2000
   -5.8929   -0.8294   -0.1085 O   0  0  0  0  0  0  0  0  0  0  0  0
   -4.5507   -0.7379   -0.1032 C   0  0  0  0  0  0  0  0  0  0  0  0
   -3.8540    0.1573   -0.9113 C   0  0  0  0  0  0  0  0  0  0  0  0
   -2.4708    0.2059   -0.8607 C   0  0  0  0  0  0  0  0  0  0  0  0
   -1.7518   -0.6288   -0.0090 C   0  0  0  0  0  0  0  0  0  0  0  0
   -0.2851   -0.6335    0.0182 C   0  0  0  0  0  0  0  0  0  0  0  0
    0.3850   -1.7981   -0.0318 N   0  0  0  0  0  0  0  0  0  0  0  0
    1.6727   -1.4861   -0.0363 C   0  0  0  0  0  0  0  0  0  0  0  0
    2.8024   -2.3199   -0.0942 C   0  0  0  0  0  0  0  0  0  0  0  0
    4.0461   -1.7661   -0.1072 C   0  0  0  0  0  0  0  0  0  0  0  0
    4.1990   -0.3562   -0.0686 C   0  0  0  0  0  0  0  0  0  0  0  0
    5.4082    0.2312   -0.0913 O   0  0  0  0  0  0  0  0  0  0  0  0
    3.1003    0.4499   -0.0116 C   0  0  0  0  0  0  0  0  0  0  0  0
    1.8588   -0.1240    0.0134 N   0  0  0  0  0  0  0  0  0  0  0  0
    0.6010    0.4337    0.0685 C   0  0  0  0  0  0  0  0  0  0  0  0
    0.3961    1.8831    0.2551 C   0  0  1  0  0  0  0  0  0  0  0  0
    0.6707    2.5980   -0.8512 F   0  0  0  0  0  0  0  0  0  0  0  0
   -0.8581    2.1626    0.6027 F   0  0  0  0  0  0  0  0  0  0  0  0
    1.1905    2.3798    1.2196 F   0  0  0  0  0  0  0  0  0  0  0  0
   -2.4614   -1.5337    0.7815 C   0  0  0  0  0  0  0  0  0  0  0  0
   -3.8427   -1.5878    0.7458 C   0  0  0  0  0  0  0  0  0  0  0  0
   -6.2722   -0.2045   -0.7369 H   0  0  0  0  0  0  0  0  0  0  0  0
   -4.3886    0.8117   -1.5902 H   0  0  0  0  0  0  0  0  0  0  0  0
   -1.9532    0.8886   -1.5228 H   0  0  0  0  0  0  0  0  0  0  0  0
    2.6586   -3.3902   -0.1290 H   0  0  0  0  0  0  0  0  0  0  0  0
    4.9222   -2.4011   -0.1524 H   0  0  0  0  0  0  0  0  0  0  0  0
    6.1061   -0.4304   -0.1491 H   0  0  0  0  0  0  0  0  0  0  0  0
    3.1797    1.5250    0.0017 H   0  0  0  0  0  0  0  0  0  0  0  0
   -1.9251   -2.2028    1.4423 H   0  0  0  0  0  0  0  0  0  0  0  0
   -4.3787   -2.2901    1.3721 H   0  0  0  0  0  0  0  0  0  0  0  0
 12 11  1  0
 10 11  1  0
 10  9  2  0
 11 13  2  0
  9  8  1  0
 13 14  1  0
  8 14  1  0
  8  7  2  0
 14 15  1  0
 16 19  1  1
  7  6  1  0
 15 16  1  0
 15  6  2  0
 16 17  1  0
 16 18  1  0
  6  5  1  0
 20  5  2  0
 20 21  1  0
  5  4  1  0
 21  2  2  0
  4  3  2  0
  2  3  1  0
  2  1  1  0
  1 22  1  0
  3 23  1  0
  4 24  1  0
  9 25  1  0
 10 26  1  0
 12 27  1  0
 13 28  1  0
 20 29  1  0
 21 30  1  0
M  END
