
     RDKit          3D

 39 41  0  0  0  0  0  0  0  0999 V2000
   -0.1117   -0.3366    0.4225 C   0  0  0  0  0  0  0  0  0  0  0  0
    3.5505    1.6838   -1.1475 C   0  0  0  0  0  0  0  0  0  0  0  0
    0.8818   -1.3013    0.5558 C   0  0  0  0  0  0  0  0  0  0  0  0
    0.6565   -2.5868    0.0866 C   0  0  0  0  0  0  0  0  0  0  0  0
    3.1604    1.3686    1.5782 C   0  0  0  0  0  0  0  0  0  0  0  0
   -0.5579   -2.9036   -0.5209 C   0  0  0  0  0  0  0  0  0  0  0  0
   -1.5522   -1.9417   -0.6445 C   0  0  0  0  0  0  0  0  0  0  0  0
    2.1815   -0.9310    1.2494 C   0  0  2  0  0  0  0  0  0  0  0  0
    2.7636    0.3582    0.7101 C   0  0  0  0  0  0  0  0  0  0  0  0
    3.7443    2.5320    1.0919 C   0  0  0  0  0  0  0  0  0  0  0  0
    3.9428    2.6903   -0.2722 C   0  0  0  0  0  0  0  0  0  0  0  0
   -1.3322   -0.6507   -0.1696 C   0  0  0  0  0  0  0  0  0  0  0  0
    3.1349   -1.9669    1.2291 O   0  0  0  0  0  0  0  0  0  0  0  0
    2.9620    0.5269   -0.6592 C   0  0  0  0  0  0  0  0  0  0  0  0
   -0.8240   -4.1367   -0.9944 O   0  0  0  0  0  0  0  0  0  0  0  0
   -2.3748    0.3709   -0.2902 C   0  0  0  0  0  0  0  0  0  0  0  0
   -2.8011    1.2502    0.6566 C   0  0  0  0  0  0  0  0  0  0  0  0
   -2.4341    1.4671    2.0747 C   0  0  0  0  0  0  0  0  0  0  0  0
   -3.7471    2.0322    0.1341 O   0  0  0  0  0  0  0  0  0  0  0  0
   -3.9665    1.6924   -1.1697 N   0  0  0  0  0  0  0  0  0  0  0  0
   -3.1631    0.7042   -1.4327 C   0  0  0  0  0  0  0  0  0  0  0  0
   -3.1323    0.0857   -2.7845 C   0  0  0  0  0  0  0  0  0  0  0  0
    0.0755    0.6768    0.7568 H   0  0  0  0  0  0  0  0  0  0  0  0
    1.4186   -3.3503    0.1913 H   0  0  0  0  0  0  0  0  0  0  0  0
    3.0065    1.2488    2.6444 H   0  0  0  0  0  0  0  0  0  0  0  0
   -2.5004   -2.2149   -1.0905 H   0  0  0  0  0  0  0  0  0  0  0  0
    1.9480   -0.7792    2.3085 H   0  0  0  0  0  0  0  0  0  0  0  0
    4.0428    3.3131    1.7792 H   0  0  0  0  0  0  0  0  0  0  0  0
    4.3963    3.5954   -0.6544 H   0  0  0  0  0  0  0  0  0  0  0  0
    3.4957   -2.0459    0.3387 H   0  0  0  0  0  0  0  0  0  0  0  0
    2.6415   -0.2404   -1.3556 H   0  0  0  0  0  0  0  0  0  0  0  0
   -0.0808   -4.7284   -0.8329 H   0  0  0  0  0  0  0  0  0  0  0  0
   -3.3079    1.7311    2.6696 H   0  0  0  0  0  0  0  0  0  0  0  0
   -1.9941    0.5638    2.4920 H   0  0  0  0  0  0  0  0  0  0  0  0
   -1.7046    2.2725    2.1776 H   0  0  0  0  0  0  0  0  0  0  0  0
   -3.5587   -0.9174   -2.7665 H   0  0  0  0  0  0  0  0  0  0  0  0
   -3.7012    0.6806   -3.4962 H   0  0  0  0  0  0  0  0  0  0  0  0
   -2.1072   -0.0040   -3.1437 H   0  0  0  0  0  0  0  0  0  0  0  0
    3.6982    1.8049   -2.2128 H   0  0  0  0  0  0  0  0  0  0  0  0
 10 11  1  0
 10  5  2  0
 11  2  2  0
  5  9  1  0
  2 14  1  0
  9 14  2  0
  9  8  1  0
  8 13  1  0
  8  3  1  0
  3  1  2  0
  3  4  1  0
  1 12  1  0
 18 17  1  0
  4  6  2  0
 17 19  1  0
 17 16  2  0
 19 20  1  0
 12 16  1  0
 12  7  2  0
 16 21  1  0
 20 21  2  0
 21 22  1  0
  6  7  1  0
  6 15  1  0
  1 23  1  0
  2 39  1  0
  4 24  1  0
  5 25  1  0
  7 26  1  0
  8 27  1  1
 10 28  1  0
 11 29  1  0
 13 30  1  0
 14 31  1  0
 15 32  1  0
 18 33  1  0
 18 34  1  0
 18 35  1  0
 22 36  1  0
 22 37  1  0
 22 38  1  0
M  END
