
     RDKit          3D

 27 28  0  0  0  0  0  0  0  0999 V2000
    0.0126    2.2901    1.1938 O   0  0  0  0  0  0  0  0  0  0  0  0
    0.0112    1.5191   -0.0475 S   0  0  1  0  0  0  0  0  0  0  0  0
    0.0567    2.2208   -1.3283 O   0  0  0  0  0  0  0  0  0  0  0  0
    1.3800    0.4068    0.0054 C   0  0  0  0  0  0  0  0  0  0  0  0
    1.9725   -0.0154   -1.1776 C   0  0  0  0  0  0  0  0  0  0  0  0
    3.0511   -0.8794   -1.1351 C   0  0  0  0  0  0  0  0  0  0  0  0
    3.5436   -1.3235    0.0923 C   0  0  0  0  0  0  0  0  0  0  0  0
    4.5870   -2.1548    0.1918 O   0  0  0  0  0  0  0  0  0  0  0  0
    2.9418   -0.8952    1.2777 C   0  0  0  0  0  0  0  0  0  0  0  0
    1.8659   -0.0317    1.2333 C   0  0  0  0  0  0  0  0  0  0  0  0
   -1.4242    0.4931   -0.0435 C   0  0  0  0  0  0  0  0  0  0  0  0
   -2.0336    0.1625    1.1600 C   0  0  0  0  0  0  0  0  0  0  0  0
   -3.1633   -0.6345    1.1614 C   0  0  0  0  0  0  0  0  0  0  0  0
   -3.6897   -1.1035   -0.0426 C   0  0  0  0  0  0  0  0  0  0  0  0
   -4.7826   -1.8727   -0.1007 O   0  0  0  0  0  0  0  0  0  0  0  0
   -3.0706   -0.7674   -1.2486 C   0  0  0  0  0  0  0  0  0  0  0  0
   -1.9437    0.0294   -1.2481 C   0  0  0  0  0  0  0  0  0  0  0  0
    1.6061    0.3239   -2.1371 H   0  0  0  0  0  0  0  0  0  0  0  0
    3.5152   -1.2010   -2.0598 H   0  0  0  0  0  0  0  0  0  0  0  0
    4.9390   -2.3706   -0.6799 H   0  0  0  0  0  0  0  0  0  0  0  0
    3.3283   -1.2336    2.2302 H   0  0  0  0  0  0  0  0  0  0  0  0
    1.4166    0.2981    2.1605 H   0  0  0  0  0  0  0  0  0  0  0  0
   -1.6408    0.5220    2.1014 H   0  0  0  0  0  0  0  0  0  0  0  0
   -3.6402   -0.8837    2.1017 H   0  0  0  0  0  0  0  0  0  0  0  0
   -5.1409   -2.0291    0.7810 H   0  0  0  0  0  0  0  0  0  0  0  0
   -3.4831   -1.1247   -2.1832 H   0  0  0  0  0  0  0  0  0  0  0  0
   -1.4810    0.2881   -2.1910 H   0  0  0  0  0  0  0  0  0  0  0  0
  8  7  1  0
  7  9  2  0
  7  6  1  0
  9 10  1  0
  6  5  2  0
 10  4  2  0
  5  4  1  0
  2  4  1  1
  2  3  2  0
  2  1  2  0
  2 11  1  0
 11 12  2  0
 11 17  1  0
 12 13  1  0
 17 16  2  0
 13 14  2  0
 16 14  1  0
 14 15  1  0
  5 18  1  0
  6 19  1  0
  8 20  1  0
  9 21  1  0
 10 22  1  0
 12 23  1  0
 13 24  1  0
 15 25  1  0
 16 26  1  0
 17 27  1  0
M  END
