
     RDKit          3D

 24 25  0  0  0  0  0  0  0  0999 V2000
   -2.8934   -0.7514    0.2784 C   0  0  0  0  0  0  0  0  0  0  0  0
    3.4868    0.9357   -0.9642 C   0  0  0  0  0  0  0  0  0  0  0  0
   -0.6703   -1.6465   -0.1717 C   0  0  0  0  0  0  0  0  0  0  0  0
    3.9094    0.5267    0.2698 C   0  0  0  0  0  0  0  0  0  0  0  0
    2.5550   -1.2160   -0.3353 C   0  0  0  0  0  0  0  0  0  0  0  0
    3.3749   -0.7288    0.6369 C   0  0  0  0  0  0  0  0  0  0  0  0
   -4.2392    0.6322   -0.7539 C   0  0  0  0  0  0  0  0  0  0  0  0
   -5.0320    0.3560    0.3069 C   0  0  0  0  0  0  0  0  0  0  0  0
   -1.8019   -1.5274    0.5920 N   0  0  0  0  0  0  0  0  0  0  0  0
   -3.0292   -0.0005   -0.7596 N   0  0  0  0  0  0  0  0  0  0  0  0
    0.2715   -2.4737    0.4139 N   0  0  0  0  0  0  0  0  0  0  0  0
    1.5471   -3.1740   -1.6660 O   0  0  0  0  0  0  0  0  0  0  0  0
    2.4384   -3.6087    0.6542 O   0  0  0  0  0  0  0  0  0  0  0  0
   -0.4788   -1.1068   -1.2328 O   0  0  0  0  0  0  0  0  0  0  0  0
    1.7522   -2.7639   -0.2975 S   0  0  1  0  0  0  0  0  0  0  0  0
    2.4216   -0.1837   -1.6985 S   0  0  0  0  0  0  0  0  0  0  0  0
   -4.2462   -0.7547    1.3716 S   0  0  0  0  0  0  0  0  0  0  0  0
   -6.7247    1.0078    0.6751 Br  0  0  0  0  0  0  0  0  0  0  0  0
    3.9006    2.3755   -1.7521 Cl  0  0  0  0  0  0  0  0  0  0  0  0
    3.5982   -1.2347    1.5650 H   0  0  0  0  0  0  0  0  0  0  0  0
   -4.5003    1.2979   -1.5639 H   0  0  0  0  0  0  0  0  0  0  0  0
   -1.8497   -2.0532    1.4526 H   0  0  0  0  0  0  0  0  0  0  0  0
    0.1715   -2.8209    1.3615 H   0  0  0  0  0  0  0  0  0  0  0  0
    5.0683    1.5093    1.3391 Br  0  0  0  0  0  0  0  0  0  0  0  0
 12 15  2  0
 15 11  1  1
 11  3  1  0
  9  3  1  0
  9  1  1  0
 15 13  2  0
 15  5  1  0
 10  1  2  0
 10  7  1  0
  3 14  2  0
 16  5  1  0
 16  2  1  0
  1 17  1  0
  7  8  2  0
  5  6  2  0
  2 19  1  0
  2  4  2  0
  8 17  1  0
  8 18  1  0
  6  4  1  0
  4 24  1  0
  6 20  1  0
  7 21  1  0
  9 22  1  0
 11 23  1  0
M  END
