
     RDKit          3D

 77 81  0  0  0  0  0  0  0  0999 V2000
   -4.2665   -3.4911    1.2997 C   0  0  0  0  0  0  0  0  0  0  0  0
   -4.4979   -2.1973    0.8729 C   0  0  0  0  0  0  0  0  0  0  0  0
   -4.4598   -1.0656    1.8554 C   0  0  0  0  0  0  0  0  0  0  0  0
   -4.8795   -1.9844   -0.4578 C   0  0  0  0  0  0  0  0  0  0  0  0
   -4.8912   -5.3223   -1.8016 O   0  0  0  0  0  0  0  0  0  0  0  0
   -4.6593   -6.6636   -1.4172 C   0  0  0  0  0  0  0  0  0  0  0  0
   -5.4207   -0.8734    2.5903 O   0  0  0  0  0  0  0  0  0  0  0  0
   -3.3315   -0.3359    1.9095 N   0  0  0  0  0  0  0  0  0  0  0  0
   -1.9412    0.7485    0.2148 C   0  0  0  0  0  0  0  0  0  0  0  0
   -2.1824   -0.5074    1.0425 C   0  0  0  0  0  0  0  0  0  0  0  0
   -3.1810    0.7520    2.8580 C   0  0  0  0  0  0  0  0  0  0  0  0
   -1.8882    2.0389    1.0591 C   0  0  1  0  0  0  0  0  0  0  0  0
   -2.9880    2.0805    2.1364 C   0  0  0  0  0  0  0  0  0  0  0  0
   -0.5226    2.1097    1.7315 C   0  0  0  0  0  0  0  0  0  0  0  0
   -4.9988   -3.0552   -1.3295 C   0  0  0  0  0  0  0  0  0  0  0  0
   -4.7477   -4.3554   -0.8791 C   0  0  0  0  0  0  0  0  0  0  0  0
   -5.1032   -0.7040   -0.8033 O   0  0  0  0  0  0  0  0  0  0  0  0
   -5.4717   -0.4178   -2.1392 C   0  0  0  0  0  0  0  0  0  0  0  0
   -4.3773   -4.5799    0.4416 C   0  0  0  0  0  0  0  0  0  0  0  0
   -1.8668    3.2379    0.2301 N   0  0  0  0  0  0  0  0  0  0  0  0
    0.1199    3.2006    1.2910 N   0  0  0  0  0  0  0  0  0  0  0  0
   -0.0782    1.3132    2.5367 O   0  0  0  0  0  0  0  0  0  0  0  0
   -0.5879    3.9055    0.2628 C   0  0  0  0  0  0  0  0  0  0  0  0
   -2.8234    3.6592   -0.6654 C   0  0  0  0  0  0  0  0  0  0  0  0
    1.5219    3.3878    1.5002 C   0  0  0  0  0  0  0  0  0  0  0  0
   -2.5630    4.7761   -1.4811 C   0  0  0  0  0  0  0  0  0  0  0  0
   -4.0766    3.0387   -0.8155 C   0  0  0  0  0  0  0  0  0  0  0  0
   -5.0101    3.5277   -1.7158 C   0  0  0  0  0  0  0  0  0  0  0  0
    2.3343    2.4344    0.6223 C   0  0  0  0  0  0  0  0  0  0  0  0
   -4.7445    4.6351   -2.5085 C   0  0  0  0  0  0  0  0  0  0  0  0
   -3.5076    5.2482   -2.3787 C   0  0  0  0  0  0  0  0  0  0  0  0
    1.8052    1.7510   -0.2370 O   0  0  0  0  0  0  0  0  0  0  0  0
    3.6518    2.4472    0.8680 N   0  0  0  0  0  0  0  0  0  0  0  0
    4.5949    1.6035    0.1720 C   0  0  0  0  0  0  0  0  0  0  0  0
    4.7645    0.2361    0.8434 C   0  0  0  0  0  0  0  0  0  0  0  0
    5.7558   -0.6151    0.1067 C   0  0  0  0  0  0  0  0  0  0  0  0
    7.0823   -0.6736    0.5283 C   0  0  0  0  0  0  0  0  0  0  0  0
    8.0404   -1.4185   -0.1394 C   0  0  0  0  0  0  0  0  0  0  0  0
    7.6645   -2.1297   -1.2664 C   0  0  0  0  0  0  0  0  0  0  0  0
    8.8398   -3.0734   -2.1157 Cl  0  0  0  0  0  0  0  0  0  0  0  0
    6.3593   -2.1028   -1.7270 C   0  0  0  0  0  0  0  0  0  0  0  0
    5.4273   -1.3443   -1.0345 C   0  0  0  0  0  0  0  0  0  0  0  0
    3.7998   -1.3312   -1.6323 Cl  0  0  0  0  0  0  0  0  0  0  0  0
   -3.9785   -3.6684    2.3287 H   0  0  0  0  0  0  0  0  0  0  0  0
   -3.6287   -6.8216   -1.0895 H   0  0  0  0  0  0  0  0  0  0  0  0
   -5.3355   -6.9819   -0.6201 H   0  0  0  0  0  0  0  0  0  0  0  0
   -4.8452   -7.2733   -2.2977 H   0  0  0  0  0  0  0  0  0  0  0  0
   -1.0065    0.6450   -0.3415 H   0  0  0  0  0  0  0  0  0  0  0  0
   -2.7356    0.8361   -0.5254 H   0  0  0  0  0  0  0  0  0  0  0  0
   -1.3100   -0.7374    1.6569 H   0  0  0  0  0  0  0  0  0  0  0  0
   -2.3334   -1.3545    0.3784 H   0  0  0  0  0  0  0  0  0  0  0  0
   -4.0636    0.8064    3.4891 H   0  0  0  0  0  0  0  0  0  0  0  0
   -2.3310    0.5328    3.5064 H   0  0  0  0  0  0  0  0  0  0  0  0
   -3.9379    2.3646    1.6869 H   0  0  0  0  0  0  0  0  0  0  0  0
   -2.7557    2.8595    2.8665 H   0  0  0  0  0  0  0  0  0  0  0  0
   -5.2863   -2.9157   -2.3633 H   0  0  0  0  0  0  0  0  0  0  0  0
   -6.4075   -0.9093   -2.4147 H   0  0  0  0  0  0  0  0  0  0  0  0
   -5.6098    0.6582   -2.1988 H   0  0  0  0  0  0  0  0  0  0  0  0
   -4.6926   -0.7118   -2.8465 H   0  0  0  0  0  0  0  0  0  0  0  0
   -4.1752   -5.5713    0.8209 H   0  0  0  0  0  0  0  0  0  0  0  0
   -0.0548    3.8444   -0.6954 H   0  0  0  0  0  0  0  0  0  0  0  0
   -0.6883    4.9653    0.5232 H   0  0  0  0  0  0  0  0  0  0  0  0
    1.7876    4.4200    1.2628 H   0  0  0  0  0  0  0  0  0  0  0  0
    1.7676    3.2355    2.5524 H   0  0  0  0  0  0  0  0  0  0  0  0
   -1.6155    5.2942   -1.4295 H   0  0  0  0  0  0  0  0  0  0  0  0
   -4.3516    2.1692   -0.2384 H   0  0  0  0  0  0  0  0  0  0  0  0
   -5.9675    3.0270   -1.7910 H   0  0  0  0  0  0  0  0  0  0  0  0
   -5.4804    5.0082   -3.2076 H   0  0  0  0  0  0  0  0  0  0  0  0
   -3.2626    6.1124   -2.9832 H   0  0  0  0  0  0  0  0  0  0  0  0
    3.9955    2.9911    1.6439 H   0  0  0  0  0  0  0  0  0  0  0  0
    4.2641    1.4811   -0.8586 H   0  0  0  0  0  0  0  0  0  0  0  0
    5.5530    2.1230    0.1431 H   0  0  0  0  0  0  0  0  0  0  0  0
    5.1098    0.3828    1.8684 H   0  0  0  0  0  0  0  0  0  0  0  0
    3.7950   -0.2610    0.9025 H   0  0  0  0  0  0  0  0  0  0  0  0
    7.3732   -0.1236    1.4147 H   0  0  0  0  0  0  0  0  0  0  0  0
    9.0606   -1.4458    0.2159 H   0  0  0  0  0  0  0  0  0  0  0  0
    6.0702   -2.6590   -2.6077 H   0  0  0  0  0  0  0  0  0  0  0  0
  1  2  2  0
  1 44  1  0
  2  3  1  0
  2  4  1  0
  3  7  2  0
  4 17  1  0
  5 16  1  0
  5  6  1  0
  6 45  1  0
  6 46  1  0
  6 47  1  0
  8  3  1  0
  8 11  1  0
  9 12  1  0
  9 48  1  0
  9 49  1  0
 10  8  1  0
 10  9  1  0
 10 50  1  0
 10 51  1  0
 11 13  1  0
 11 52  1  0
 11 53  1  0
 12 20  1  0
 12 13  1  0
 13 54  1  0
 13 55  1  0
 12 14  1  1
 15  4  2  0
 15 56  1  0
 16 15  1  0
 17 18  1  0
 18 57  1  0
 18 58  1  0
 18 59  1  0
 19  1  1  0
 19 16  2  0
 19 60  1  0
 20 24  1  0
 21 14  1  0
 21 23  1  0
 22 14  2  0
 23 20  1  0
 23 61  1  0
 23 62  1  0
 24 26  2  0
 24 27  1  0
 25 21  1  0
 25 29  1  0
 25 63  1  0
 25 64  1  0
 26 31  1  0
 26 65  1  0
 27 28  2  0
 27 66  1  0
 28 30  1  0
 28 67  1  0
 29 32  2  0
 30 68  1  0
 31 30  2  0
 31 69  1  0
 33 29  1  0
 33 34  1  0
 33 70  1  0
 34 71  1  0
 34 72  1  0
 35 34  1  0
 35 73  1  0
 35 74  1  0
 36 35  1  0
 36 37  2  0
 37 75  1  0
 38 37  1  0
 38 76  1  0
 39 38  2  0
 40 39  1  0
 41 39  1  0
 41 42  2  0
 41 77  1  0
 42 36  1  0
 43 42  1  0
M  END
