
     RDKit          3D

 20 20  0  0  0  0  0  0  0  0999 V2000
    4.0652    0.2735    0.0396 C   0  0  0  0  0  0  0  0  0  0  0  0
    2.7842   -0.9916    0.0184 S   0  0  0  0  0  0  0  0  0  0  0  0
    1.2870   -0.0593   -0.0278 C   0  0  0  0  0  0  0  0  0  0  0  0
    1.2254    1.3305   -0.1072 C   0  0  0  0  0  0  0  0  0  0  0  0
    0.0035    1.9726   -0.1563 C   0  0  0  0  0  0  0  0  0  0  0  0
   -1.1958    1.2620   -0.1308 C   0  0  0  0  0  0  0  0  0  0  0  0
   -2.3716    1.8975   -0.1870 O   0  0  0  0  0  0  0  0  0  0  0  0
   -1.1498   -0.1412   -0.0450 C   0  0  0  0  0  0  0  0  0  0  0  0
    0.0973   -0.7704    0.0033 C   0  0  0  0  0  0  0  0  0  0  0  0
   -2.3897   -0.9521    0.0119 C   0  0  0  0  0  0  0  0  0  0  0  0
   -2.1388   -2.2592    0.0609 O   0  0  0  0  0  0  0  0  0  0  0  0
   -3.5134   -0.5138    0.0187 O   0  0  0  0  0  0  0  0  0  0  0  0
    3.9745    0.9237    0.9080 H   0  0  0  0  0  0  0  0  0  0  0  0
    5.0105   -0.2622    0.1026 H   0  0  0  0  0  0  0  0  0  0  0  0
    4.0675    0.8659   -0.8734 H   0  0  0  0  0  0  0  0  0  0  0  0
    2.1216    1.9347   -0.1239 H   0  0  0  0  0  0  0  0  0  0  0  0
   -0.0193    3.0545   -0.2207 H   0  0  0  0  0  0  0  0  0  0  0  0
   -2.2253    2.8502   -0.2275 H   0  0  0  0  0  0  0  0  0  0  0  0
    0.1375   -1.8490    0.0727 H   0  0  0  0  0  0  0  0  0  0  0  0
   -2.9756   -2.7447    0.1024 H   0  0  0  0  0  0  0  0  0  0  0  0
 12 10  2  0
 11 10  1  0
 10  8  1  0
  9  8  1  0
  9  3  2  0
  8  6  2  0
  2  3  1  0
  2  1  1  0
  3  4  1  0
  6  7  1  0
  6  5  1  0
  4  5  2  0
  1 13  1  0
  1 14  1  0
  1 15  1  0
  4 16  1  0
  5 17  1  0
  7 18  1  0
  9 19  1  0
 11 20  1  0
M  END
