
     RDKit          3D

 56 58  0  0  0  0  0  0  0  0999 V2000
    2.2239    0.4854    0.4096 C   0  0  0  0  0  0  0  0  0  0  0  0
    4.3060   -0.6494   -0.0209 C   0  0  0  0  0  0  0  0  0  0  0  0
   -0.1362   -0.3492    0.3771 C   0  0  0  0  0  0  0  0  0  0  0  0
   -0.8395   -2.4746    0.2688 C   0  0  0  0  0  0  0  0  0  0  0  0
   -2.8104   -4.3340    0.1932 F   0  0  0  0  0  0  0  0  0  0  0  0
   -4.0241   -2.9222   -0.8863 F   0  0  0  0  0  0  0  0  0  0  0  0
   -4.0953   -2.9762    1.2591 F   0  0  0  0  0  0  0  0  0  0  0  0
   -2.1585   -2.0840    0.2726 C   0  0  0  0  0  0  0  0  0  0  0  0
    0.1876   -1.6343    0.3155 N   0  0  0  0  0  0  0  0  0  0  0  0
   -2.3950   -0.6776    0.3211 C   0  0  0  0  0  0  0  0  0  0  0  0
   -3.6158   -0.1359    0.2879 N   0  0  0  0  0  0  0  0  0  0  0  0
   -3.8556    1.2964    0.2979 C   0  0  2  0  0  0  0  0  0  0  0  0
   -3.8222    1.9121    1.7125 C   0  0  0  0  0  0  0  0  0  0  0  0
   -5.2799    2.2170    2.0416 C   0  0  0  0  0  0  0  0  0  0  0  0
   -5.8400    2.6465    0.6920 C   0  0  0  0  0  0  0  0  0  0  0  0
   -5.2592    1.6128   -0.2772 C   0  0  1  0  0  0  0  0  0  0  0  0
   -5.2074    2.0548   -1.6593 N   0  0  0  0  0  0  0  0  0  0  0  0
   -4.6899    1.0263   -2.5398 C   0  0  0  0  0  0  0  0  0  0  0  0
   -6.5019    2.5034   -2.1333 C   0  0  0  0  0  0  0  0  0  0  0  0
   -1.3632    0.1572    0.3860 N   0  0  0  0  0  0  0  0  0  0  0  0
    0.8469    0.5933    0.4568 N   0  0  0  0  0  0  0  0  0  0  0  0
    2.9240   -0.6664    0.0319 C   0  0  0  0  0  0  0  0  0  0  0  0
    2.9503    1.6372    0.7409 C   0  0  0  0  0  0  0  0  0  0  0  0
    4.3285    1.6481    0.6957 C   0  0  0  0  0  0  0  0  0  0  0  0
    5.0117    0.5002    0.3086 C   0  0  0  0  0  0  0  0  0  0  0  0
    6.7706    0.5187    0.1768 S   0  0  1  0  0  0  0  0  0  0  0  0
    7.2682    1.5791    1.0389 O   0  0  0  0  0  0  0  0  0  0  0  0
    7.2576   -0.8422    0.3380 O   0  0  0  0  0  0  0  0  0  0  0  0
    7.1433    0.9503   -1.3686 N   0  0  0  0  0  0  0  0  0  0  0  0
    6.7290    2.2629   -1.8441 C   0  0  0  0  0  0  0  0  0  0  0  0
    4.8234   -1.5505   -0.3219 H   0  0  0  0  0  0  0  0  0  0  0  0
   -0.5773   -3.5250    0.2254 H   0  0  0  0  0  0  0  0  0  0  0  0
   -4.4286   -0.7284    0.2875 H   0  0  0  0  0  0  0  0  0  0  0  0
   -3.0969    1.7664   -0.3278 H   0  0  0  0  0  0  0  0  0  0  0  0
   -3.3315    1.2585    2.4337 H   0  0  0  0  0  0  0  0  0  0  0  0
   -3.2501    2.8418    1.6833 H   0  0  0  0  0  0  0  0  0  0  0  0
   -5.7940    1.3171    2.3912 H   0  0  0  0  0  0  0  0  0  0  0  0
   -5.3947    2.9777    2.8143 H   0  0  0  0  0  0  0  0  0  0  0  0
   -6.9293    2.6798    0.6700 H   0  0  0  0  0  0  0  0  0  0  0  0
   -5.4683    3.6428    0.4323 H   0  0  0  0  0  0  0  0  0  0  0  0
   -5.8872    0.7016   -0.1932 H   0  0  0  0  0  0  0  0  0  0  0  0
   -5.3105    0.1157   -2.5532 H   0  0  0  0  0  0  0  0  0  0  0  0
   -4.6428    1.4088   -3.5600 H   0  0  0  0  0  0  0  0  0  0  0  0
   -3.6798    0.7341   -2.2559 H   0  0  0  0  0  0  0  0  0  0  0  0
   -6.8510    3.3624   -1.5623 H   0  0  0  0  0  0  0  0  0  0  0  0
   -6.4193    2.8165   -3.1747 H   0  0  0  0  0  0  0  0  0  0  0  0
   -7.2773    1.7232   -2.0800 H   0  0  0  0  0  0  0  0  0  0  0  0
    0.4883    1.5275    0.5916 H   0  0  0  0  0  0  0  0  0  0  0  0
    2.3957   -1.5706   -0.2196 H   0  0  0  0  0  0  0  0  0  0  0  0
    2.4254    2.5339    1.0457 H   0  0  0  0  0  0  0  0  0  0  0  0
    4.8575    2.5491    0.9747 H   0  0  0  0  0  0  0  0  0  0  0  0
    6.9469    0.1998   -2.0214 H   0  0  0  0  0  0  0  0  0  0  0  0
    5.6459    2.4114   -1.8268 H   0  0  0  0  0  0  0  0  0  0  0  0
    7.2055    3.0437   -1.2569 H   0  0  0  0  0  0  0  0  0  0  0  0
    7.0681    2.3611   -2.8719 H   0  0  0  0  0  0  0  0  0  0  0  0
   -3.2582   -3.0772    0.2095 C   0  0  1  0  0  0  0  0  0  0  0  0
  1 21  1  0
  1 22  1  0
  1 23  2  0
  2 22  2  0
  2 25  1  0
  3  9  2  0
  3 20  1  0
  3 21  1  0
  4  8  2  0
  4  9  1  0
 56  5  1  6
 56  6  1  0
 56  7  1  0
 56  8  1  0
  8 10  1  0
 10 11  1  0
 10 20  2  0
 11 12  1  0
 12 13  1  0
 12 16  1  0
 13 14  1  0
 14 15  1  0
 15 16  1  0
 16 17  1  0
 17 18  1  0
 17 19  1  0
 23 24  1  0
 24 25  2  0
 25 26  1  0
 26 27  2  0
 26 28  2  0
 26 29  1  6
 29 30  1  0
  2 31  1  0
  4 32  1  0
 11 33  1  0
 12 34  1  6
 13 35  1  0
 13 36  1  0
 14 37  1  0
 14 38  1  0
 15 39  1  0
 15 40  1  0
 16 41  1  6
 18 42  1  0
 18 43  1  0
 18 44  1  0
 19 45  1  0
 19 46  1  0
 19 47  1  0
 21 48  1  0
 22 49  1  0
 23 50  1  0
 24 51  1  0
 29 52  1  0
 30 53  1  0
 30 54  1  0
 30 55  1  0
M  END
