
     RDKit          3D

 53 55  0  0  0  0  0  0  0  0999 V2000
   -4.7453    4.4761   -0.2445 Cl  0  0  0  0  0  0  0  0  0  0  0  0
   -3.6805    3.2699    0.4051 C   0  0  0  0  0  0  0  0  0  0  0  0
   -2.4630    3.6527    0.9443 C   0  0  0  0  0  0  0  0  0  0  0  0
   -1.6212    2.6800    1.4632 C   0  0  0  0  0  0  0  0  0  0  0  0
   -4.0650    1.9389    0.3877 C   0  0  0  0  0  0  0  0  0  0  0  0
   -3.2080    0.9825    0.9120 C   0  0  0  0  0  0  0  0  0  0  0  0
   -1.9710    1.3315    1.4498 C   0  0  0  0  0  0  0  0  0  0  0  0
   -1.0371    0.2884    1.9973 C   0  0  0  0  0  0  0  0  0  0  0  0
   -0.0392   -0.3076    0.9687 C   0  0  2  0  0  0  0  0  0  0  0  0
    0.9199    0.7673    0.4521 C   0  0  0  0  0  0  0  0  0  0  0  0
    2.0899    0.2025   -0.3416 C   0  0  0  0  0  0  0  0  0  0  0  0
   -0.8566   -0.9184   -0.1711 C   0  0  0  0  0  0  0  0  0  0  0  0
   -0.8796   -0.4170   -1.2775 O   0  0  0  0  0  0  0  0  0  0  0  0
   -1.6518   -2.1079    0.1600 C   0  0  0  0  0  0  0  0  0  0  0  0
   -2.3931   -2.8112   -0.7145 C   0  0  0  0  0  0  0  0  0  0  0  0
   -2.4921   -2.5160   -2.0012 O   0  0  0  0  0  0  0  0  0  0  0  0
   -3.1493   -4.0126   -0.2063 C   0  0  0  0  0  0  0  0  0  0  0  0
   -3.7917   -4.6103   -1.1933 O   0  0  0  0  0  0  0  0  0  0  0  0
   -3.1581   -4.3687    0.9405 O   0  0  0  0  0  0  0  0  0  0  0  0
    0.8112   -1.3671    1.6862 C   0  0  0  0  0  0  0  0  0  0  0  0
    1.9460   -1.8814    0.8180 C   0  0  0  0  0  0  0  0  0  0  0  0
    2.8201   -0.7969    0.4171 N   0  0  0  0  0  0  0  0  0  0  0  0
    3.9745   -1.2834   -0.3069 C   0  0  0  0  0  0  0  0  0  0  0  0
    5.0532   -0.2411   -0.4569 C   0  0  0  0  0  0  0  0  0  0  0  0
    5.3980    0.5838    0.6124 C   0  0  0  0  0  0  0  0  0  0  0  0
    6.4189    1.5145    0.4868 C   0  0  0  0  0  0  0  0  0  0  0  0
    7.1146    1.6345   -0.7112 C   0  0  0  0  0  0  0  0  0  0  0  0
    6.7766    0.8194   -1.7821 C   0  0  0  0  0  0  0  0  0  0  0  0
    5.7496   -0.1087   -1.6536 C   0  0  0  0  0  0  0  0  0  0  0  0
   -2.1728    4.6944    0.9673 H   0  0  0  0  0  0  0  0  0  0  0  0
   -0.6750    2.9855    1.8928 H   0  0  0  0  0  0  0  0  0  0  0  0
   -5.0216    1.6466   -0.0237 H   0  0  0  0  0  0  0  0  0  0  0  0
   -3.5240   -0.0540    0.9058 H   0  0  0  0  0  0  0  0  0  0  0  0
   -0.4389    0.7239    2.8016 H   0  0  0  0  0  0  0  0  0  0  0  0
   -1.6144   -0.5215    2.4502 H   0  0  0  0  0  0  0  0  0  0  0  0
    0.3991    1.5044   -0.1596 H   0  0  0  0  0  0  0  0  0  0  0  0
    1.3178    1.3024    1.3199 H   0  0  0  0  0  0  0  0  0  0  0  0
    1.7380   -0.2106   -1.3010 H   0  0  0  0  0  0  0  0  0  0  0  0
    2.7661    1.0240   -0.5863 H   0  0  0  0  0  0  0  0  0  0  0  0
   -1.6524   -2.4613    1.1799 H   0  0  0  0  0  0  0  0  0  0  0  0
   -3.0602   -3.1463   -2.4644 H   0  0  0  0  0  0  0  0  0  0  0  0
   -4.2800   -5.3879   -0.8812 H   0  0  0  0  0  0  0  0  0  0  0  0
    1.2366   -0.9050    2.5826 H   0  0  0  0  0  0  0  0  0  0  0  0
    0.2117   -2.2107    2.0327 H   0  0  0  0  0  0  0  0  0  0  0  0
    2.5301   -2.6093    1.3865 H   0  0  0  0  0  0  0  0  0  0  0  0
    1.5385   -2.4245   -0.0551 H   0  0  0  0  0  0  0  0  0  0  0  0
    4.3838   -2.1327    0.2499 H   0  0  0  0  0  0  0  0  0  0  0  0
    3.7058   -1.6740   -1.3033 H   0  0  0  0  0  0  0  0  0  0  0  0
    4.8499    0.5014    1.5429 H   0  0  0  0  0  0  0  0  0  0  0  0
    6.6743    2.1497    1.3259 H   0  0  0  0  0  0  0  0  0  0  0  0
    7.9113    2.3607   -0.8075 H   0  0  0  0  0  0  0  0  0  0  0  0
    7.3071    0.9080   -2.7217 H   0  0  0  0  0  0  0  0  0  0  0  0
    5.4863   -0.7370   -2.4973 H   0  0  0  0  0  0  0  0  0  0  0  0
 28 29  2  0
 28 27  1  0
 29 24  1  0
 13 12  2  0
 20 21  1  0
 20  9  1  0
 27 26  2  0
 21 22  1  0
 24 23  1  0
 24 25  2  0
 16 15  1  0
 23 22  1  0
  8  9  1  0
  8  7  1  0
  9 12  1  6
 12 14  1  0
  9 10  1  0
 22 11  1  0
 26 25  1  0
  7  6  2  0
  7  4  1  0
 15 14  2  0
 15 17  1  0
  6  5  1  0
  4  3  2  0
 19 17  2  0
 10 11  1  0
 17 18  1  0
  5  2  2  0
  3  2  1  0
  2  1  1  0
  3 30  1  0
  4 31  1  0
  5 32  1  0
  6 33  1  0
  8 34  1  0
  8 35  1  0
 10 36  1  0
 10 37  1  0
 11 38  1  0
 11 39  1  0
 14 40  1  0
 16 41  1  0
 18 42  1  0
 20 43  1  0
 20 44  1  0
 21 45  1  0
 21 46  1  0
 23 47  1  0
 23 48  1  0
 25 49  1  0
 26 50  1  0
 27 51  1  0
 28 52  1  0
 29 53  1  0
M  END
