
     RDKit          3D

 36 38  0  0  0  0  0  0  0  0999 V2000
   -0.5810   -0.5587    0.3792 N   0  0  0  0  0  0  0  0  0  0  0  0
    3.6374    1.0714    0.0105 N   0  0  0  0  0  0  0  0  0  0  0  0
   -2.9910   -0.7399    0.2079 C   0  0  0  0  0  0  0  0  0  0  0  0
   -1.7042   -1.4663    0.4886 C   0  0  0  0  0  0  0  0  0  0  0  0
    0.6844   -0.9853    0.1904 C   0  0  0  0  0  0  0  0  0  0  0  0
    1.7112    0.0602    0.1346 C   0  0  0  0  0  0  0  0  0  0  0  0
    1.5781    1.4622    0.1961 C   0  0  0  0  0  0  0  0  0  0  0  0
    5.8840    0.1481    0.1561 C   0  0  0  0  0  0  0  0  0  0  0  0
    3.0805   -0.1480    0.0040 C   0  0  0  0  0  0  0  0  0  0  0  0
   -5.1105    0.1527    0.9640 C   0  0  0  0  0  0  0  0  0  0  0  0
   -5.3478    0.6087   -0.3165 C   0  0  0  0  0  0  0  0  0  0  0  0
    5.3268   -1.0620   -0.5803 C   0  0  0  0  0  0  0  0  0  0  0  0
    3.9122   -1.3816   -0.1052 C   0  0  0  0  0  0  0  0  0  0  0  0
   -3.9220   -0.5215    1.2161 C   0  0  0  0  0  0  0  0  0  0  0  0
   -4.4440    0.4151   -1.3456 C   0  0  0  0  0  0  0  0  0  0  0  0
   -3.2659   -0.2617   -1.0723 C   0  0  0  0  0  0  0  0  0  0  0  0
    5.0484    1.3800   -0.1412 C   0  0  0  0  0  0  0  0  0  0  0  0
   -6.4921    1.2630   -0.5737 F   0  0  0  0  0  0  0  0  0  0  0  0
    2.7451    2.0595    0.1184 N   0  0  0  0  0  0  0  0  0  0  0  0
    0.9566   -2.1752    0.0637 O   0  0  0  0  0  0  0  0  0  0  0  0
   -0.7519    0.4086    0.5985 H   0  0  0  0  0  0  0  0  0  0  0  0
   -1.5692   -2.2762   -0.2293 H   0  0  0  0  0  0  0  0  0  0  0  0
   -1.7455   -1.9248    1.4819 H   0  0  0  0  0  0  0  0  0  0  0  0
    0.6815    2.0578    0.2923 H   0  0  0  0  0  0  0  0  0  0  0  0
    5.8960   -0.0427    1.2327 H   0  0  0  0  0  0  0  0  0  0  0  0
    6.9127    0.3481   -0.1447 H   0  0  0  0  0  0  0  0  0  0  0  0
   -5.8327    0.3209    1.7518 H   0  0  0  0  0  0  0  0  0  0  0  0
    5.3219   -0.8644   -1.6561 H   0  0  0  0  0  0  0  0  0  0  0  0
    5.9662   -1.9314   -0.4248 H   0  0  0  0  0  0  0  0  0  0  0  0
    3.9472   -1.8644    0.8762 H   0  0  0  0  0  0  0  0  0  0  0  0
    3.4252   -2.0906   -0.7722 H   0  0  0  0  0  0  0  0  0  0  0  0
   -3.7225   -0.8795    2.2186 H   0  0  0  0  0  0  0  0  0  0  0  0
   -4.6579    0.7826   -2.3407 H   0  0  0  0  0  0  0  0  0  0  0  0
   -2.5529   -0.4215   -1.8720 H   0  0  0  0  0  0  0  0  0  0  0  0
    5.2238    1.7249   -1.1628 H   0  0  0  0  0  0  0  0  0  0  0  0
    5.2884    2.1999    0.5342 H   0  0  0  0  0  0  0  0  0  0  0  0
 19  2  1  0
 19  7  2  0
  8 17  1  0
  8 12  1  0
 17  2  1  0
  2  9  1  0
  7  6  1  0
  9  6  2  0
  9 13  1  0
  6  5  1  0
 12 13  1  0
  5  1  1  0
  5 20  2  0
  1  4  1  0
  4  3  1  0
  3 16  2  0
  3 14  1  0
 16 15  1  0
 14 10  2  0
 15 11  2  0
 10 11  1  0
 11 18  1  0
  1 21  1  0
  4 22  1  0
  4 23  1  0
  7 24  1  0
  8 25  1  0
  8 26  1  0
 10 27  1  0
 12 28  1  0
 12 29  1  0
 13 30  1  0
 13 31  1  0
 14 32  1  0
 15 33  1  0
 16 34  1  0
 17 35  1  0
 17 36  1  0
M  END
