
     RDKit          3D

 60 62  0  0  0  0  0  0  0  0999 V2000
    2.1071   -0.0780   -2.8123 O   0  0  0  0  0  0  0  0  0  0  0  0
    2.9040    0.3048   -1.8231 C   0  0  0  0  0  0  0  0  0  0  0  0
    4.0110    0.7425   -1.9851 O   0  0  0  0  0  0  0  0  0  0  0  0
    2.2153    0.1261   -0.4712 C   0  0  1  0  0  0  0  0  0  0  0  0
    3.1009    0.3824    0.5721 O   0  0  0  0  0  0  0  0  0  0  0  0
    3.7348   -0.7174    1.2388 C   0  0  1  0  0  0  0  0  0  0  0  0
    4.4832   -1.6309    0.2710 C   0  0  0  0  0  0  0  0  0  0  0  0
    4.7219   -0.0502    2.1876 C   0  0  0  0  0  0  0  0  0  0  0  0
    2.7093   -1.5216    2.0370 C   0  0  0  0  0  0  0  0  0  0  0  0
    1.0362    1.0654   -0.3693 C   0  0  0  0  0  0  0  0  0  0  0  0
   -0.3129    0.6176   -0.1909 C   0  0  0  0  0  0  0  0  0  0  0  0
   -0.6817   -0.8143   -0.1248 C   0  0  0  0  0  0  0  0  0  0  0  0
   -0.9277   -1.5299   -1.4227 C   0  0  0  0  0  0  0  0  0  0  0  0
   -0.7539   -1.4398    1.0497 C   0  0  0  0  0  0  0  0  0  0  0  0
   -1.0893   -2.8907    1.2108 C   0  0  0  0  0  0  0  0  0  0  0  0
   -1.6866   -3.5281   -0.0495 C   0  0  2  0  0  0  0  0  0  0  0  0
   -3.1525   -3.1154   -0.1924 C   0  0  0  0  0  0  0  0  0  0  0  0
   -1.6010   -5.0484    0.0551 C   0  0  0  0  0  0  0  0  0  0  0  0
   -0.8795   -3.0434   -1.2577 C   0  0  0  0  0  0  0  0  0  0  0  0
   -1.1901    1.6617   -0.0527 C   0  0  0  0  0  0  0  0  0  0  0  0
   -0.3651    3.1749   -0.1440 S   0  0  0  0  0  0  0  0  0  0  0  0
    1.1622    2.4283   -0.3644 C   0  0  0  0  0  0  0  0  0  0  0  0
    2.3778    3.2781   -0.5422 C   0  0  0  0  0  0  0  0  0  0  0  0
   -2.6382    1.6362    0.1689 C   0  0  0  0  0  0  0  0  0  0  0  0
   -3.2622    2.6225    0.9372 C   0  0  0  0  0  0  0  0  0  0  0  0
   -4.6345    2.5712    1.1100 C   0  0  0  0  0  0  0  0  0  0  0  0
   -5.3461    1.5344    0.5260 C   0  0  0  0  0  0  0  0  0  0  0  0
   -4.6376    0.5974   -0.2118 C   0  0  0  0  0  0  0  0  0  0  0  0
   -3.3260    0.6443   -0.3949 N   0  0  0  0  0  0  0  0  0  0  0  0
    2.5433    0.0582   -3.6670 H   0  0  0  0  0  0  0  0  0  0  0  0
    1.8221   -0.8988   -0.4439 H   0  0  0  0  0  0  0  0  0  0  0  0
    5.2208   -1.0796   -0.3117 H   0  0  0  0  0  0  0  0  0  0  0  0
    5.0086   -2.4044    0.8327 H   0  0  0  0  0  0  0  0  0  0  0  0
    3.8109   -2.1462   -0.4186 H   0  0  0  0  0  0  0  0  0  0  0  0
    4.2083    0.5997    2.8984 H   0  0  0  0  0  0  0  0  0  0  0  0
    5.2686   -0.8020    2.7565 H   0  0  0  0  0  0  0  0  0  0  0  0
    5.4480    0.5513    1.6384 H   0  0  0  0  0  0  0  0  0  0  0  0
    2.0182   -2.0694    1.3944 H   0  0  0  0  0  0  0  0  0  0  0  0
    3.2168   -2.2565    2.6638 H   0  0  0  0  0  0  0  0  0  0  0  0
    2.1205   -0.8716    2.6856 H   0  0  0  0  0  0  0  0  0  0  0  0
   -1.8973   -1.2041   -1.8137 H   0  0  0  0  0  0  0  0  0  0  0  0
   -0.1912   -1.2166   -2.1672 H   0  0  0  0  0  0  0  0  0  0  0  0
   -0.5425   -0.8826    1.9572 H   0  0  0  0  0  0  0  0  0  0  0  0
   -0.1793   -3.4297    1.5052 H   0  0  0  0  0  0  0  0  0  0  0  0
   -1.7805   -3.0137    2.0519 H   0  0  0  0  0  0  0  0  0  0  0  0
   -3.7473   -3.5145    0.6326 H   0  0  0  0  0  0  0  0  0  0  0  0
   -3.2700   -2.0314   -0.1923 H   0  0  0  0  0  0  0  0  0  0  0  0
   -3.5784   -3.4984   -1.1235 H   0  0  0  0  0  0  0  0  0  0  0  0
   -2.1291   -5.4120    0.9399 H   0  0  0  0  0  0  0  0  0  0  0  0
   -2.0485   -5.5288   -0.8182 H   0  0  0  0  0  0  0  0  0  0  0  0
   -0.5640   -5.3851    0.1248 H   0  0  0  0  0  0  0  0  0  0  0  0
   -1.2433   -3.5273   -2.1694 H   0  0  0  0  0  0  0  0  0  0  0  0
    0.1631   -3.3589   -1.1341 H   0  0  0  0  0  0  0  0  0  0  0  0
    2.5923    3.4458   -1.5992 H   0  0  0  0  0  0  0  0  0  0  0  0
    2.2494    4.2560   -0.0798 H   0  0  0  0  0  0  0  0  0  0  0  0
    3.2501    2.8086   -0.0957 H   0  0  0  0  0  0  0  0  0  0  0  0
   -2.6839    3.4084    1.4056 H   0  0  0  0  0  0  0  0  0  0  0  0
   -5.1376    3.3255    1.7001 H   0  0  0  0  0  0  0  0  0  0  0  0
   -6.4181    1.4499    0.6366 H   0  0  0  0  0  0  0  0  0  0  0  0
   -5.1569   -0.2287   -0.6852 H   0  0  0  0  0  0  0  0  0  0  0  0
  3  2  2  0
 19 13  1  0
 19 16  1  0
 13 12  1  0
  1  2  1  0
 16 17  1  6
  2  4  1  0
 16 18  1  0
 16 15  1  0
 25 26  2  0
 25 24  1  0
 26 27  1  0
 12 11  1  0
 12 14  2  0
  4 10  1  0
  4  5  1  0
 15 14  1  0
 11 10  1  0
 11 20  2  0
 10 22  2  0
 20 24  1  0
 20 21  1  0
 24 29  2  0
 22 23  1  0
 22 21  1  0
 27 28  2  0
  6  5  1  6
 29 28  1  0
  9  6  1  0
  6  7  1  0
  6  8  1  0
  1 30  1  0
  4 31  1  1
  7 32  1  0
  7 33  1  0
  7 34  1  0
  8 35  1  0
  8 36  1  0
  8 37  1  0
  9 38  1  0
  9 39  1  0
  9 40  1  0
 13 41  1  0
 13 42  1  0
 14 43  1  0
 15 44  1  0
 15 45  1  0
 17 46  1  0
 17 47  1  0
 17 48  1  0
 18 49  1  0
 18 50  1  0
 18 51  1  0
 19 52  1  0
 19 53  1  0
 23 54  1  0
 23 55  1  0
 23 56  1  0
 25 57  1  0
 26 58  1  0
 27 59  1  0
 28 60  1  0
M  END
