
     RDKit          3D

 43 45  0  0  0  0  0  0  0  0999 V2000
    5.5204   -2.2244    0.5883 C   0  0  0  0  0  0  0  0  0  0  0  0
   -0.7830   -1.0478   -0.8767 C   0  0  0  0  0  0  0  0  0  0  0  0
   -3.1331   -1.7011   -1.2552 C   0  0  0  0  0  0  0  0  0  0  0  0
   -3.9879    0.5797    0.1196 C   0  0  0  0  0  0  0  0  0  0  0  0
   -2.6035    0.3395   -0.0356 C   0  0  0  0  0  0  0  0  0  0  0  0
   -0.2931    0.9833    0.3292 C   0  0  0  0  0  0  0  0  0  0  0  0
    2.5387    0.7594    1.0440 O   0  0  0  0  0  0  0  0  0  0  0  0
    2.5756   -0.0503    0.1437 C   0  0  0  0  0  0  0  0  0  0  0  0
    3.8610   -0.7472   -0.2911 C   0  0  1  0  0  0  0  0  0  0  0  0
    5.0367   -0.0107    0.1091 N   0  0  0  0  0  0  0  0  0  0  0  0
    5.2589    1.2259   -0.3770 C   0  0  0  0  0  0  0  0  0  0  0  0
    6.5096    1.9258    0.1063 C   0  0  0  0  0  0  0  0  0  0  0  0
    6.5961    3.3751   -0.3377 C   0  0  0  0  0  0  0  0  0  0  0  0
    4.4802    1.7391   -1.1700 O   0  0  0  0  0  0  0  0  0  0  0  0
    5.9329   -0.8025    0.9409 C   0  0  0  0  0  0  0  0  0  0  0  0
    4.0111   -2.1149    0.4017 C   0  0  2  0  0  0  0  0  0  0  0  0
    3.3285   -2.0614    1.6315 O   0  0  0  0  0  0  0  0  0  0  0  0
    1.4968   -0.4651   -0.5699 N   0  0  0  0  0  0  0  0  0  0  0  0
    0.1464   -0.1766   -0.3574 C   0  0  0  0  0  0  0  0  0  0  0  0
   -2.1637   -0.8124   -0.7324 C   0  0  0  0  0  0  0  0  0  0  0  0
   -4.4691   -1.4606   -1.0968 C   0  0  0  0  0  0  0  0  0  0  0  0
   -4.8876   -0.3058   -0.4026 C   0  0  0  0  0  0  0  0  0  0  0  0
   -6.7393    0.0053   -0.2001 Br  0  0  0  0  0  0  0  0  0  0  0  0
   -1.6301    1.2224    0.4820 C   0  0  0  0  0  0  0  0  0  0  0  0
    5.9869   -2.5236   -0.3525 H   0  0  0  0  0  0  0  0  0  0  0  0
    5.7980   -2.9563    1.3474 H   0  0  0  0  0  0  0  0  0  0  0  0
   -2.8086   -2.5878   -1.7856 H   0  0  0  0  0  0  0  0  0  0  0  0
   -4.3100    1.4671    0.6500 H   0  0  0  0  0  0  0  0  0  0  0  0
    0.4201    1.6869    0.7261 H   0  0  0  0  0  0  0  0  0  0  0  0
    3.8494   -0.8922   -1.3769 H   0  0  0  0  0  0  0  0  0  0  0  0
    6.5576    1.8589    1.1968 H   0  0  0  0  0  0  0  0  0  0  0  0
    7.3806    1.3708   -0.2567 H   0  0  0  0  0  0  0  0  0  0  0  0
    5.7583    3.9625    0.0372 H   0  0  0  0  0  0  0  0  0  0  0  0
    7.5128    3.8244    0.0429 H   0  0  0  0  0  0  0  0  0  0  0  0
    6.6094    3.4653   -1.4229 H   0  0  0  0  0  0  0  0  0  0  0  0
    5.7843   -0.5891    2.0029 H   0  0  0  0  0  0  0  0  0  0  0  0
    6.9763   -0.6073    0.7000 H   0  0  0  0  0  0  0  0  0  0  0  0
    3.6138   -2.9106   -0.2366 H   0  0  0  0  0  0  0  0  0  0  0  0
    3.3592   -2.9375    2.0291 H   0  0  0  0  0  0  0  0  0  0  0  0
    1.6691   -1.1708   -1.2713 H   0  0  0  0  0  0  0  0  0  0  0  0
   -5.1958   -2.1523   -1.5011 H   0  0  0  0  0  0  0  0  0  0  0  0
   -1.9532    2.1146    1.0038 H   0  0  0  0  0  0  0  0  0  0  0  0
   -0.4569   -1.9394   -1.4010 H   0  0  0  0  0  0  0  0  0  0  0  0
 17 16  1  0
  1 16  1  0
  1 15  1  0
 16  9  1  0
 15 10  1  0
  9  8  1  0
  9 10  1  0
  6 24  2  0
  6 19  1  0
 18  8  1  0
 18 19  1  0
  8  7  2  0
 10 11  1  0
 24  5  1  0
 19  2  2  0
  5  4  1  0
  5 20  2  0
  2 20  1  0
  4 22  2  0
 20  3  1  0
 22 23  1  0
 22 21  1  0
  3 21  2  0
 11 12  1  0
 11 14  2  0
 12 13  1  0
  1 25  1  0
  1 26  1  0
  2 43  1  0
  3 27  1  0
  4 28  1  0
  6 29  1  0
  9 30  1  6
 12 31  1  0
 12 32  1  0
 13 33  1  0
 13 34  1  0
 13 35  1  0
 15 36  1  0
 15 37  1  0
 16 38  1  6
 17 39  1  0
 18 40  1  0
 21 41  1  0
 24 42  1  0
M  END
