
     RDKit          3D

 63 66  0  0  0  0  0  0  0  0999 V2000
   -5.0297   -0.5881   -0.2133 O   0  0  0  0  0  0  0  0  0  0  0  0
    3.6473   -0.1597   -0.0623 C   0  0  2  0  0  0  0  0  0  0  0  0
    3.6614   -3.1083    0.3170 O   0  0  0  0  0  0  0  0  0  0  0  0
    0.4669   -1.6610    0.0294 C   0  0  0  0  0  0  0  0  0  0  0  0
   -6.0016   -1.6133   -0.1436 C   0  0  0  0  0  0  0  0  0  0  0  0
    1.2705   -0.6678   -0.0761 N   0  0  0  0  0  0  0  0  0  0  0  0
   -0.9775   -1.4462   -0.0300 C   0  0  0  0  0  0  0  0  0  0  0  0
   -1.8942   -2.4790    0.0816 C   0  0  0  0  0  0  0  0  0  0  0  0
   -3.2628   -2.2230    0.0242 C   0  0  0  0  0  0  0  0  0  0  0  0
   -3.7358   -0.9340   -0.1438 C   0  0  0  0  0  0  0  0  0  0  0  0
    3.5613    0.8347    1.0982 C   0  0  0  0  0  0  0  0  0  0  0  0
    2.6441   -2.4525    0.1934 C   0  0  0  0  0  0  0  0  0  0  0  0
    4.8576    1.6198    1.3009 C   0  0  0  0  0  0  0  0  0  0  0  0
    4.9951    2.9033    0.4814 C   0  0  0  0  0  0  0  0  0  0  0  0
    0.9382   -3.6561    1.5453 C   0  0  0  0  0  0  0  0  0  0  0  0
    1.2077   -2.9640    0.2063 C   0  0  1  0  0  0  0  0  0  0  0  0
    4.4743    2.8351   -0.9551 C   0  0  0  0  0  0  0  0  0  0  0  0
    4.7504    1.5222   -1.6886 C   0  0  0  0  0  0  0  0  0  0  0  0
    3.6841    0.4533   -1.4608 C   0  0  0  0  0  0  0  0  0  0  0  0
   -1.4598   -0.1365   -0.2008 C   0  0  0  0  0  0  0  0  0  0  0  0
   -2.8109    0.1317   -0.2575 C   0  0  0  0  0  0  0  0  0  0  0  0
   -2.4921    2.4808   -0.5462 C   0  0  2  0  0  0  0  0  0  0  0  0
   -1.8768    2.8747    0.8124 C   0  0  0  0  0  0  0  0  0  0  0  0
   -2.6948    4.0786    1.3267 C   0  0  0  0  0  0  0  0  0  0  0  0
   -3.9169    4.1617    0.4092 C   0  0  0  0  0  0  0  0  0  0  0  0
   -3.3728    3.6633   -0.9252 C   0  0  0  0  0  0  0  0  0  0  0  0
    2.5571   -1.1161    0.0142 N   0  0  0  0  0  0  0  0  0  0  0  0
   -3.3538    1.3478   -0.4279 O   0  0  0  0  0  0  0  0  0  0  0  0
    4.5528   -0.7562    0.0765 H   0  0  0  0  0  0  0  0  0  0  0  0
   -6.9686   -1.1289   -0.2522 H   0  0  0  0  0  0  0  0  0  0  0  0
   -5.8788   -2.3448   -0.9462 H   0  0  0  0  0  0  0  0  0  0  0  0
   -5.9758   -2.1356    0.8163 H   0  0  0  0  0  0  0  0  0  0  0  0
   -1.5773   -3.5021    0.2190 H   0  0  0  0  0  0  0  0  0  0  0  0
   -3.9468   -3.0554    0.1130 H   0  0  0  0  0  0  0  0  0  0  0  0
    2.7100    1.5078    0.9614 H   0  0  0  0  0  0  0  0  0  0  0  0
    3.3566    0.2592    2.0046 H   0  0  0  0  0  0  0  0  0  0  0  0
    4.9515    1.8818    2.3570 H   0  0  0  0  0  0  0  0  0  0  0  0
    5.7020    0.9541    1.0956 H   0  0  0  0  0  0  0  0  0  0  0  0
    4.4750    3.7167    0.9948 H   0  0  0  0  0  0  0  0  0  0  0  0
    6.0512    3.1862    0.4697 H   0  0  0  0  0  0  0  0  0  0  0  0
    1.7211   -4.7579   -0.8781 H   0  0  0  0  0  0  0  0  0  0  0  0
    0.0157   -4.3341   -0.9990 H   0  0  0  0  0  0  0  0  0  0  0  0
    1.2107   -3.4313   -1.9278 H   0  0  0  0  0  0  0  0  0  0  0  0
    1.0332   -2.9651    2.3832 H   0  0  0  0  0  0  0  0  0  0  0  0
   -0.0612   -4.0861    1.5757 H   0  0  0  0  0  0  0  0  0  0  0  0
    1.6546   -4.4655    1.6860 H   0  0  0  0  0  0  0  0  0  0  0  0
    3.3946    3.0163   -0.9662 H   0  0  0  0  0  0  0  0  0  0  0  0
    4.9131    3.6656   -1.5135 H   0  0  0  0  0  0  0  0  0  0  0  0
    4.7809    1.7190   -2.7627 H   0  0  0  0  0  0  0  0  0  0  0  0
    5.7420    1.1367   -1.4292 H   0  0  0  0  0  0  0  0  0  0  0  0
    3.8329   -0.3603   -2.1763 H   0  0  0  0  0  0  0  0  0  0  0  0
    2.7040    0.8864   -1.6836 H   0  0  0  0  0  0  0  0  0  0  0  0
   -0.7387    0.6645   -0.2803 H   0  0  0  0  0  0  0  0  0  0  0  0
   -1.7346    2.2768   -1.3102 H   0  0  0  0  0  0  0  0  0  0  0  0
   -1.9095    2.0379    1.5115 H   0  0  0  0  0  0  0  0  0  0  0  0
   -0.8233    3.1315    0.6916 H   0  0  0  0  0  0  0  0  0  0  0  0
   -2.9657    3.9755    2.3777 H   0  0  0  0  0  0  0  0  0  0  0  0
   -2.1061    4.9940    1.2383 H   0  0  0  0  0  0  0  0  0  0  0  0
   -4.7139    3.5035    0.7644 H   0  0  0  0  0  0  0  0  0  0  0  0
   -4.3320    5.1684    0.3483 H   0  0  0  0  0  0  0  0  0  0  0  0
   -2.7369    4.4313   -1.3742 H   0  0  0  0  0  0  0  0  0  0  0  0
   -4.1355    3.4031   -1.6608 H   0  0  0  0  0  0  0  0  0  0  0  0
    1.0242   -3.9248   -0.9736 C   0  0  0  0  0  0  0  0  0  0  0  0
 13 11  1  0
 13 14  1  0
 11  2  1  0
  3 12  2  0
 14 17  1  0
 16 15  1  1
  2 27  1  0
  2 19  1  0
 12 27  1  0
 12 16  1  0
 27  6  1  0
 16  4  1  0
 16 63  1  0
  6  4  2  0
 24 23  1  0
 24 25  1  0
 17 18  1  0
 18 19  1  0
  4  7  1  0
 23 22  1  0
 22 26  1  0
 22 28  1  0
 25 26  1  0
 20  7  1  0
 20 21  2  0
  7  8  2  0
 28 21  1  0
 21 10  1  0
  8  9  1  0
 10  9  2  0
 10  1  1  0
  1  5  1  0
  2 29  1  1
  5 30  1  0
  5 31  1  0
  5 32  1  0
  8 33  1  0
  9 34  1  0
 11 35  1  0
 11 36  1  0
 13 37  1  0
 13 38  1  0
 14 39  1  0
 14 40  1  0
 63 41  1  0
 63 42  1  0
 63 43  1  0
 15 44  1  0
 15 45  1  0
 15 46  1  0
 17 47  1  0
 17 48  1  0
 18 49  1  0
 18 50  1  0
 19 51  1  0
 19 52  1  0
 20 53  1  0
 22 54  1  6
 23 55  1  0
 23 56  1  0
 24 57  1  0
 24 58  1  0
 25 59  1  0
 25 60  1  0
 26 61  1  0
 26 62  1  0
M  END
