
     RDKit          3D

 19 20  0  0  0  0  0  0  0  0999 V2000
   -2.1564    1.4748    0.7292 O   0  0  0  0  0  0  0  0  0  0  0  0
   -2.1841    0.4688    0.0590 N   0  0  0  0  0  0  0  0  0  0  0  0
   -3.1497    0.0931   -0.5609 O   0  0  0  0  0  0  0  0  0  0  0  0
   -0.9897   -0.3611    0.0219 C   0  0  0  0  0  0  0  0  0  0  0  0
   -1.1857   -1.7152    0.0262 C   0  0  0  0  0  0  0  0  0  0  0  0
   -0.0798   -2.5796    0.0566 C   0  0  0  0  0  0  0  0  0  0  0  0
    1.1873   -2.0707    0.0582 C   0  0  0  0  0  0  0  0  0  0  0  0
    1.4079   -0.6748    0.0232 C   0  0  0  0  0  0  0  0  0  0  0  0
    2.6928   -0.2529   -0.0029 N   0  0  0  0  0  0  0  0  0  0  0  0
    2.9274    1.0285   -0.0605 C   0  0  0  0  0  0  0  0  0  0  0  0
    1.9090    1.9999   -0.1097 C   0  0  0  0  0  0  0  0  0  0  0  0
    0.6038    1.6032   -0.0731 C   0  0  0  0  0  0  0  0  0  0  0  0
    0.3050    0.2216    0.0087 C   0  0  0  0  0  0  0  0  0  0  0  0
   -2.1849   -2.1274    0.0332 H   0  0  0  0  0  0  0  0  0  0  0  0
   -0.2442   -3.6475    0.0817 H   0  0  0  0  0  0  0  0  0  0  0  0
    2.0507   -2.7221    0.0808 H   0  0  0  0  0  0  0  0  0  0  0  0
    3.9667    1.3372   -0.0786 H   0  0  0  0  0  0  0  0  0  0  0  0
    2.1660    3.0477   -0.1775 H   0  0  0  0  0  0  0  0  0  0  0  0
   -0.1744    2.3483   -0.1178 H   0  0  0  0  0  0  0  0  0  0  0  0
 11 10  1  0
 11 12  2  0
 10  9  2  0
  9  8  1  0
 12 13  1  0
  8 13  1  0
  8  7  2  0
 13  4  2  0
  1  2  2  0
  7  6  1  0
  4  2  1  0
  4  5  1  0
  2  3  1  0
  6  5  2  0
  5 14  1  0
  6 15  1  0
  7 16  1  0
 10 17  1  0
 11 18  1  0
 12 19  1  0
M  CHG  2   2   1   3  -1
M  END
