
     RDKit          3D

 23 23  0  0  0  0  0  0  0  0999 V2000
   -0.6063   -0.4321   -0.4978 O   0  0  0  0  0  0  0  0  0  0  0  0
   -2.0952   -0.1806    0.0097 P   0  0  2  0  0  0  0  0  0  0  0  0
   -2.1800    1.7732    0.7277 S   0  0  0  0  0  0  0  0  0  0  0  0
   -2.6157   -1.0780    1.0599 O   0  0  0  0  0  0  0  0  0  0  0  0
   -2.7838   -0.2104   -1.4254 O   0  0  0  0  0  0  0  0  0  0  0  0
    3.3022    0.8137    0.6633 C   0  0  0  0  0  0  0  0  0  0  0  0
    0.4627   -0.5008    0.4520 C   0  0  0  0  0  0  0  0  0  0  0  0
    1.7578   -0.6744   -0.3167 C   0  0  1  0  0  0  0  0  0  0  0  0
    1.9554    0.3976   -1.2183 O   0  0  0  0  0  0  0  0  0  0  0  0
    3.0085    1.2431   -0.7659 C   0  0  0  0  0  0  0  0  0  0  0  0
    2.9565   -0.6709    0.6300 C   0  0  1  0  0  0  0  0  0  0  0  0
    3.9715   -1.4476    0.0377 O   0  0  0  0  0  0  0  0  0  0  0  0
   -1.7012    2.3782   -0.3681 H   0  0  0  0  0  0  0  0  0  0  0  0
   -3.7493   -0.1604   -1.3997 H   0  0  0  0  0  0  0  0  0  0  0  0
    2.6526    1.3302    1.3731 H   0  0  0  0  0  0  0  0  0  0  0  0
    0.4826    0.4130    1.0557 H   0  0  0  0  0  0  0  0  0  0  0  0
    0.3163   -1.3510    1.1222 H   0  0  0  0  0  0  0  0  0  0  0  0
    1.7100   -1.6148   -0.8783 H   0  0  0  0  0  0  0  0  0  0  0  0
    2.6907    2.2852   -0.8357 H   0  0  0  0  0  0  0  0  0  0  0  0
    3.8867    1.1184   -1.4072 H   0  0  0  0  0  0  0  0  0  0  0  0
    2.6918   -1.0525    1.6240 H   0  0  0  0  0  0  0  0  0  0  0  0
    4.7687   -1.3527    0.5684 H   0  0  0  0  0  0  0  0  0  0  0  0
    4.3327    1.0067    0.9637 H   0  0  0  0  0  0  0  0  0  0  0  0
 10  6  1  0
 10  9  1  0
  6 11  1  0
  9  8  1  0
 12 11  1  0
 11  8  1  0
  8  7  1  0
  7  1  1  0
  2  1  1  6
  4  2  2  0
  2  3  1  0
  2  5  1  0
  3 13  1  0
  5 14  1  0
  6 23  1  0
  6 15  1  0
  7 16  1  0
  7 17  1  0
  8 18  1  6
 10 19  1  0
 10 20  1  0
 11 21  1  1
 12 22  1  0
M  END
