
     RDKit          3D

 74 74  0  0  0  0  0  0  0  0999 V2000
    8.1418   -0.3698   -0.6312 C   0  0  0  0  0  0  0  0  0  0  0  0
    6.7704    0.0942   -0.1607 C   0  0  0  0  0  0  0  0  0  0  0  0
    5.7057   -0.9899   -0.2749 C   0  0  0  0  0  0  0  0  0  0  0  0
    4.3298   -0.5292    0.1906 C   0  0  0  0  0  0  0  0  0  0  0  0
    3.2709   -1.6159    0.0417 C   0  0  0  0  0  0  0  0  0  0  0  0
    1.9051   -1.2390    0.5899 C   0  0  2  0  0  0  0  0  0  0  0  0
    0.6108    0.7672    0.4582 C   0  0  0  0  0  0  0  0  0  0  0  0
    0.8475   -2.3192    0.3960 C   0  0  0  0  0  0  0  0  0  0  0  0
    1.1793   -3.6397    1.0837 C   0  0  0  0  0  0  0  0  0  0  0  0
   -0.0000   -4.6104    1.1053 C   0  0  0  0  0  0  0  0  0  0  0  0
   -0.4046   -5.1561   -0.2761 C   0  0  0  0  0  0  0  0  0  0  0  0
   -1.8584   -4.8934   -0.6558 C   0  0  0  0  0  0  0  0  0  0  0  0
   -2.1405   -3.4887   -0.8587 N   0  0  0  0  0  0  0  0  0  0  0  0
    1.5000   -0.0457   -0.1096 O   0  0  0  0  0  0  0  0  0  0  0  0
    0.1159    0.5950    1.5553 O   0  0  0  0  0  0  0  0  0  0  0  0
    0.3448    1.8196   -0.3441 N   0  0  0  0  0  0  0  0  0  0  0  0
   -0.6835    2.7909   -0.0364 C   0  0  2  0  0  0  0  0  0  0  0  0
   -1.9912    2.3178   -0.6812 C   0  0  0  0  0  0  0  0  0  0  0  0
   -2.2166    2.5044   -1.8678 O   0  0  0  0  0  0  0  0  0  0  0  0
   -0.2878    4.1786   -0.5213 C   0  0  0  0  0  0  0  0  0  0  0  0
    1.0458    4.6861    0.0311 C   0  0  1  0  0  0  0  0  0  0  0  0
    1.3159    6.0906   -0.5002 C   0  0  0  0  0  0  0  0  0  0  0  0
    1.0875    4.6715    1.5561 C   0  0  0  0  0  0  0  0  0  0  0  0
   -2.7994    1.6340    0.1416 N   0  0  0  0  0  0  0  0  0  0  0  0
   -4.0417    1.0029   -0.2528 C   0  0  1  0  0  0  0  0  0  0  0  0
   -4.0596   -0.4693    0.1549 C   0  0  0  0  0  0  0  0  0  0  0  0
   -2.9037   -1.2494   -0.4476 C   0  0  0  0  0  0  0  0  0  0  0  0
   -2.8891   -2.7140   -0.0545 C   0  0  0  0  0  0  0  0  0  0  0  0
   -3.4873   -3.1352    0.9265 O   0  0  0  0  0  0  0  0  0  0  0  0
   -5.2333    1.7363    0.3439 C   0  0  0  0  0  0  0  0  0  0  0  0
   -5.2219    3.0689   -0.1037 O   0  0  0  0  0  0  0  0  0  0  0  0
    8.8873    0.4204   -0.5362 H   0  0  0  0  0  0  0  0  0  0  0  0
    8.4900   -1.2235   -0.0467 H   0  0  0  0  0  0  0  0  0  0  0  0
    8.1174   -0.6774   -1.6782 H   0  0  0  0  0  0  0  0  0  0  0  0
    6.8347    0.4295    0.8790 H   0  0  0  0  0  0  0  0  0  0  0  0
    6.4579    0.9682   -0.7407 H   0  0  0  0  0  0  0  0  0  0  0  0
    5.6429   -1.3257   -1.3159 H   0  0  0  0  0  0  0  0  0  0  0  0
    6.0153   -1.8659    0.3061 H   0  0  0  0  0  0  0  0  0  0  0  0
    4.3880   -0.2191    1.2397 H   0  0  0  0  0  0  0  0  0  0  0  0
    4.0385    0.3592   -0.3764 H   0  0  0  0  0  0  0  0  0  0  0  0
    3.1785   -1.9104   -1.0094 H   0  0  0  0  0  0  0  0  0  0  0  0
    3.6034   -2.5079    0.5796 H   0  0  0  0  0  0  0  0  0  0  0  0
    2.0012   -1.0091    1.6560 H   0  0  0  0  0  0  0  0  0  0  0  0
   -0.1003   -1.9555    0.8010 H   0  0  0  0  0  0  0  0  0  0  0  0
    0.6944   -2.4739   -0.6766 H   0  0  0  0  0  0  0  0  0  0  0  0
    2.0326   -4.1215    0.5980 H   0  0  0  0  0  0  0  0  0  0  0  0
    1.4887   -3.4403    2.1147 H   0  0  0  0  0  0  0  0  0  0  0  0
    0.2520   -5.4456    1.7623 H   0  0  0  0  0  0  0  0  0  0  0  0
   -0.8513   -4.1124    1.5788 H   0  0  0  0  0  0  0  0  0  0  0  0
    0.2416   -4.7413   -1.0564 H   0  0  0  0  0  0  0  0  0  0  0  0
   -0.2464   -6.2363   -0.3128 H   0  0  0  0  0  0  0  0  0  0  0  0
   -2.1014   -5.4327   -1.5743 H   0  0  0  0  0  0  0  0  0  0  0  0
   -2.5266   -5.2676    0.1183 H   0  0  0  0  0  0  0  0  0  0  0  0
   -1.6901   -3.0473   -1.6445 H   0  0  0  0  0  0  0  0  0  0  0  0
    0.7447    1.8334   -1.2703 H   0  0  0  0  0  0  0  0  0  0  0  0
   -0.8005    2.8149    1.0473 H   0  0  0  0  0  0  0  0  0  0  0  0
   -0.2527    4.1864   -1.6141 H   0  0  0  0  0  0  0  0  0  0  0  0
   -1.0843    4.8739   -0.2342 H   0  0  0  0  0  0  0  0  0  0  0  0
    1.8420    4.0308   -0.3377 H   0  0  0  0  0  0  0  0  0  0  0  0
    0.5626    6.7963   -0.1413 H   0  0  0  0  0  0  0  0  0  0  0  0
    2.2917    6.4553   -0.1754 H   0  0  0  0  0  0  0  0  0  0  0  0
    1.2998    6.1168   -1.5914 H   0  0  0  0  0  0  0  0  0  0  0  0
    0.2683    5.2620    1.9745 H   0  0  0  0  0  0  0  0  0  0  0  0
    1.0110    3.6617    1.9619 H   0  0  0  0  0  0  0  0  0  0  0  0
    2.0229    5.0962    1.9234 H   0  0  0  0  0  0  0  0  0  0  0  0
   -2.5215    1.5394    1.1071 H   0  0  0  0  0  0  0  0  0  0  0  0
   -4.1038    1.0694   -1.3409 H   0  0  0  0  0  0  0  0  0  0  0  0
   -4.0388   -0.5518    1.2447 H   0  0  0  0  0  0  0  0  0  0  0  0
   -5.0090   -0.9009   -0.1707 H   0  0  0  0  0  0  0  0  0  0  0  0
   -2.9049   -1.1532   -1.5368 H   0  0  0  0  0  0  0  0  0  0  0  0
   -1.9539   -0.8209   -0.1118 H   0  0  0  0  0  0  0  0  0  0  0  0
   -6.1475    1.2110    0.0385 H   0  0  0  0  0  0  0  0  0  0  0  0
   -5.1798    1.6733    1.4397 H   0  0  0  0  0  0  0  0  0  0  0  0
   -5.9416    3.5361    0.3295 H   0  0  0  0  0  0  0  0  0  0  0  0
 31 30  1  0
 30 25  1  0
 29 28  2  0
 25 26  1  0
 25 24  1  0
 26 27  1  0
 28 27  1  0
 28 13  1  0
 12 13  1  0
 12 11  1  0
 24 18  1  0
 19 18  2  0
 11 10  1  0
 18 17  1  0
 20 17  1  0
 20 21  1  0
 10  9  1  0
 17 16  1  0
  9  8  1  0
 22 21  1  0
 16  7  1  0
 21 23  1  0
 15  7  2  0
  7 14  1  0
  8  6  1  0
 14  6  1  0
  6  5  1  0
  5  4  1  0
  4  3  1  0
  1  2  1  0
  3  2  1  0
  1 32  1  0
  1 33  1  0
  1 34  1  0
  2 35  1  0
  2 36  1  0
  3 37  1  0
  3 38  1  0
  4 39  1  0
  4 40  1  0
  5 41  1  0
  5 42  1  0
  6 43  1  1
 17 56  1  1
 20 57  1  0
 20 58  1  0
 21 59  1  6
 22 60  1  0
 22 61  1  0
 22 62  1  0
 23 63  1  0
 23 64  1  0
 23 65  1  0
 25 67  1  6
 26 68  1  0
 26 69  1  0
 27 70  1  0
 27 71  1  0
 30 72  1  0
 30 73  1  0
  8 44  1  0
  8 45  1  0
  9 46  1  0
  9 47  1  0
 10 48  1  0
 10 49  1  0
 11 50  1  0
 11 51  1  0
 12 52  1  0
 12 53  1  0
 16 55  1  0
 24 66  1  0
 13 54  1  0
 31 74  1  0
M  END
