
     RDKit          3D

 16 17  0  0  0  0  0  0  0  0999 V2000
    3.3166   -1.2210   -0.0132 O   0  0  0  0  0  0  0  0  0  0  0  0
    2.7088   -0.1751   -0.0173 C   0  0  0  0  0  0  0  0  0  0  0  0
    3.2906    1.0203   -0.0181 O   0  0  0  0  0  0  0  0  0  0  0  0
    1.2565   -0.0845   -0.0208 C   0  0  0  0  0  0  0  0  0  0  0  0
    0.3599   -1.1385   -0.0170 C   0  0  0  0  0  0  0  0  0  0  0  0
   -0.9138   -0.5507   -0.0218 C   0  0  0  0  0  0  0  0  0  0  0  0
   -0.7557    0.8335   -0.0292 C   0  0  0  0  0  0  0  0  0  0  0  0
    0.5672    1.1037   -0.0281 N   0  0  0  0  0  0  0  0  0  0  0  0
   -2.5858   -0.9718   -0.0264 S   0  0  0  0  0  0  0  0  0  0  0  0
   -3.0303    0.7065   -0.0375 C   0  0  0  0  0  0  0  0  0  0  0  0
   -1.9755    1.5630   -0.0385 C   0  0  0  0  0  0  0  0  0  0  0  0
    4.2540    0.9221   -0.0134 H   0  0  0  0  0  0  0  0  0  0  0  0
    0.6150   -2.1855   -0.0114 H   0  0  0  0  0  0  0  0  0  0  0  0
    0.9790    2.0235   -0.0345 H   0  0  0  0  0  0  0  0  0  0  0  0
   -2.0700    2.6386   -0.0445 H   0  0  0  0  0  0  0  0  0  0  0  0
   -4.0773    0.9688   -0.0420 H   0  0  0  0  0  0  0  0  0  0  0  0
  1  2  2  0
  2  3  1  0
  2  4  1  0
  4  5  2  0
  4  8  1  0
  5  6  1  0
  6  7  2  0
  6  9  1  0
  7  8  1  0
  7 11  1  0
  9 10  1  0
 10 11  2  0
  3 12  1  0
  5 13  1  0
  8 14  1  0
 11 15  1  0
 10 16  1  0
M  END
