
     RDKit          3D

 32 33  0  0  0  0  0  0  0  0999 V2000
   -0.9511    1.4295   -1.0990 N   0  0  0  0  0  0  0  0  0  0  0  0
   -0.1034    0.4392   -1.2008 C   0  0  0  0  0  0  0  0  0  0  0  0
    0.3040   -0.1095   -2.4677 C   0  0  0  0  0  0  0  0  0  0  0  0
   -0.2543    0.4743   -3.6280 C   0  0  0  0  0  0  0  0  0  0  0  0
   -1.1647    1.5506   -3.4790 C   0  0  0  0  0  0  0  0  0  0  0  0
   -1.4662    1.9731   -2.2216 C   0  0  0  0  0  0  0  0  0  0  0  0
    1.2087   -1.1816   -2.6050 C   0  0  0  0  0  0  0  0  0  0  0  0
    1.5458   -1.6579   -3.8457 C   0  0  0  0  0  0  0  0  0  0  0  0
    0.9908   -1.0777   -4.9998 C   0  0  0  0  0  0  0  0  0  0  0  0
    0.1106   -0.0336   -4.8934 C   0  0  0  0  0  0  0  0  0  0  0  0
    0.4287   -0.0597   -0.0472 N   0  0  0  0  0  0  0  0  0  0  0  0
   -0.0689    0.3177    1.2447 C   0  0  2  0  0  0  0  0  0  0  0  0
    1.3785    0.5796    2.3276 P   0  0  1  0  0  0  0  0  0  0  0  0
   -1.3201   -0.8906    1.8225 P   0  0  1  0  0  0  0  0  0  0  0  0
   -2.2990   -1.2837    0.7868 O   0  0  0  0  0  0  0  0  0  0  0  0
   -0.3636   -2.0533    2.3717 O   0  0  0  0  0  0  0  0  0  0  0  0
   -2.0658   -0.2333    3.0773 O   0  0  0  0  0  0  0  0  0  0  0  0
    0.6378    0.7621    3.7396 O   0  0  0  0  0  0  0  0  0  0  0  0
    2.4232   -0.4602    2.2359 O   0  0  0  0  0  0  0  0  0  0  0  0
    1.9851    2.0005    1.9148 O   0  0  0  0  0  0  0  0  0  0  0  0
   -1.6086    2.0202   -4.3464 H   0  0  0  0  0  0  0  0  0  0  0  0
   -2.1591    2.7920   -2.0671 H   0  0  0  0  0  0  0  0  0  0  0  0
    1.6551   -1.6526   -1.7387 H   0  0  0  0  0  0  0  0  0  0  0  0
    2.2393   -2.4828   -3.9356 H   0  0  0  0  0  0  0  0  0  0  0  0
    1.2598   -1.4615   -5.9752 H   0  0  0  0  0  0  0  0  0  0  0  0
   -0.3183    0.4142   -5.7812 H   0  0  0  0  0  0  0  0  0  0  0  0
    0.9984   -0.8878   -0.0892 H   0  0  0  0  0  0  0  0  0  0  0  0
   -0.6023    1.2678    1.1383 H   0  0  0  0  0  0  0  0  0  0  0  0
   -0.8135   -2.8889    2.5621 H   0  0  0  0  0  0  0  0  0  0  0  0
   -1.4869    0.0618    3.7949 H   0  0  0  0  0  0  0  0  0  0  0  0
    1.2109    0.7259    4.5198 H   0  0  0  0  0  0  0  0  0  0  0  0
    1.4043    2.7653    2.0241 H   0  0  0  0  0  0  0  0  0  0  0  0
  1  2  2  0
  1  6  1  0
  2  3  1  0
  2 11  1  0
  3  4  2  0
  3  7  1  0
  4  5  1  0
  4 10  1  0
  5  6  2  0
  5 21  1  0
  6 22  1  0
  7  8  2  0
  7 23  1  0
  8  9  1  0
  8 24  1  0
  9 10  2  0
  9 25  1  0
 10 26  1  0
 11 12  1  0
 11 27  1  0
 12 13  1  0
 12 14  1  0
 12 28  1  6
 13 18  1  1
 13 19  2  0
 13 20  1  0
 14 15  2  0
 14 16  1  1
 14 17  1  0
 16 29  1  0
 17 30  1  0
 18 31  1  0
 20 32  1  0
M  END
