
     RDKit          3D

 66 69  0  0  0  0  0  0  0  0999 V2000
    3.4804   -1.0907   -2.0770 O   0  0  0  0  0  0  0  0  0  0  0  0
    3.2785   -2.1933   -1.1354 S   0  0  1  0  0  0  0  0  0  0  0  0
    3.6003   -3.5515   -1.5761 O   0  0  0  0  0  0  0  0  0  0  0  0
    4.2386   -1.8433    0.3344 C   0  0  0  0  0  0  0  0  0  0  0  0
    5.7251   -1.7716    0.0047 C   0  0  0  0  0  0  0  0  0  0  0  0
    6.4686   -1.4931    1.2156 N   0  0  0  0  0  0  0  0  0  0  0  0
    7.8802   -1.2720    0.9552 C   0  0  0  0  0  0  0  0  0  0  0  0
    8.6401   -1.0000    2.2436 C   0  0  0  0  0  0  0  0  0  0  0  0
   10.1119   -0.7501    1.9786 C   0  0  0  0  0  0  0  0  0  0  0  0
   10.7653   -0.5050    3.2058 O   0  0  0  0  0  0  0  0  0  0  0  0
    1.6043   -2.1613   -0.5912 C   0  0  0  0  0  0  0  0  0  0  0  0
    0.8992   -0.9661   -0.5981 C   0  0  0  0  0  0  0  0  0  0  0  0
   -0.4180   -0.9253   -0.1794 C   0  0  0  0  0  0  0  0  0  0  0  0
   -1.0547   -2.0970    0.2516 C   0  0  0  0  0  0  0  0  0  0  0  0
   -0.3224   -3.2960    0.2570 C   0  0  0  0  0  0  0  0  0  0  0  0
    0.9899   -3.3323   -0.1595 C   0  0  0  0  0  0  0  0  0  0  0  0
   -2.3615   -2.1800    0.6782 N   0  0  0  0  0  0  0  0  0  0  0  0
   -3.3635   -1.2477    0.7637 C   0  0  0  0  0  0  0  0  0  0  0  0
   -3.1078    0.0108    0.3978 N   0  0  0  0  0  0  0  0  0  0  0  0
   -4.0686    0.9106    0.4715 C   0  0  0  0  0  0  0  0  0  0  0  0
   -5.3345    0.5403    0.9330 C   0  0  0  0  0  0  0  0  0  0  0  0
   -6.5172    1.2095    1.1259 N   0  0  0  0  0  0  0  0  0  0  0  0
   -7.3271    0.2984    1.5764 C   0  0  0  0  0  0  0  0  0  0  0  0
   -6.7478   -0.9324    1.6925 N   0  0  0  0  0  0  0  0  0  0  0  0
   -5.4609   -0.8032    1.2828 C   0  0  0  0  0  0  0  0  0  0  0  0
   -4.5139   -1.7286    1.2169 N   0  0  0  0  0  0  0  0  0  0  0  0
   -3.8528    2.1577    0.1160 O   0  0  0  0  0  0  0  0  0  0  0  0
   -2.5543    2.5355   -0.3575 C   0  0  0  0  0  0  0  0  0  0  0  0
   -2.5971    3.9955   -0.7619 C   0  0  1  0  0  0  0  0  0  0  0  0
   -1.1867    4.4459   -1.1476 C   0  0  0  0  0  0  0  0  0  0  0  0
   -1.1592    5.9075   -1.5837 C   0  0  0  0  0  0  0  0  0  0  0  0
   -2.1392    6.1649   -2.7233 C   0  0  0  0  0  0  0  0  0  0  0  0
   -3.5470    5.7199   -2.3439 C   0  0  0  0  0  0  0  0  0  0  0  0
   -3.5733    4.2573   -1.9099 C   0  0  0  0  0  0  0  0  0  0  0  0
    4.0200   -2.6371    1.0518 H   0  0  0  0  0  0  0  0  0  0  0  0
    3.8814   -0.8959    0.7410 H   0  0  0  0  0  0  0  0  0  0  0  0
    5.8966   -0.9548   -0.6992 H   0  0  0  0  0  0  0  0  0  0  0  0
    6.0452   -2.6973   -0.4935 H   0  0  0  0  0  0  0  0  0  0  0  0
    6.3741   -2.2820    1.8455 H   0  0  0  0  0  0  0  0  0  0  0  0
    7.9702   -0.4082    0.2894 H   0  0  0  0  0  0  0  0  0  0  0  0
    8.3455   -2.1185    0.4252 H   0  0  0  0  0  0  0  0  0  0  0  0
    8.5336   -1.8549    2.9192 H   0  0  0  0  0  0  0  0  0  0  0  0
    8.2010   -0.1333    2.7455 H   0  0  0  0  0  0  0  0  0  0  0  0
   10.2164    0.1015    1.2924 H   0  0  0  0  0  0  0  0  0  0  0  0
   10.5416   -1.6208    1.4663 H   0  0  0  0  0  0  0  0  0  0  0  0
   11.7016   -0.3823    3.0261 H   0  0  0  0  0  0  0  0  0  0  0  0
    1.3651   -0.0493   -0.9342 H   0  0  0  0  0  0  0  0  0  0  0  0
   -0.9499    0.0105   -0.1928 H   0  0  0  0  0  0  0  0  0  0  0  0
   -0.7960   -4.2132    0.5848 H   0  0  0  0  0  0  0  0  0  0  0  0
    1.5223   -4.2740   -0.1542 H   0  0  0  0  0  0  0  0  0  0  0  0
   -2.6655   -3.1003    0.9597 H   0  0  0  0  0  0  0  0  0  0  0  0
   -8.3608    0.4563    1.8430 H   0  0  0  0  0  0  0  0  0  0  0  0
   -7.1988   -1.7753    2.0141 H   0  0  0  0  0  0  0  0  0  0  0  0
   -1.8169    2.3734    0.4340 H   0  0  0  0  0  0  0  0  0  0  0  0
   -2.2738    1.9104   -1.2108 H   0  0  0  0  0  0  0  0  0  0  0  0
   -2.9131    4.5850    0.1088 H   0  0  0  0  0  0  0  0  0  0  0  0
   -0.5026    4.2924   -0.3084 H   0  0  0  0  0  0  0  0  0  0  0  0
   -0.8206    3.8179   -1.9686 H   0  0  0  0  0  0  0  0  0  0  0  0
   -1.4169    6.5457   -0.7316 H   0  0  0  0  0  0  0  0  0  0  0  0
   -0.1458    6.1846   -1.8834 H   0  0  0  0  0  0  0  0  0  0  0  0
   -2.1349    7.2232   -2.9955 H   0  0  0  0  0  0  0  0  0  0  0  0
   -1.8123    5.6134   -3.6117 H   0  0  0  0  0  0  0  0  0  0  0  0
   -3.9160    6.3454   -1.5236 H   0  0  0  0  0  0  0  0  0  0  0  0
   -4.2328    5.8709   -3.1808 H   0  0  0  0  0  0  0  0  0  0  0  0
   -3.3004    3.6205   -2.7604 H   0  0  0  0  0  0  0  0  0  0  0  0
   -4.5886    3.9753   -1.6221 H   0  0  0  0  0  0  0  0  0  0  0  0
  1  2  2  0
  2  3  2  0
  2  4  1  1
  2 11  1  0
  4  5  1  0
  4 35  1  0
  4 36  1  0
  5  6  1  0
  5 37  1  0
  5 38  1  0
  6  7  1  0
  6 39  1  0
  7  8  1  0
  7 40  1  0
  7 41  1  0
  8  9  1  0
  8 42  1  0
  8 43  1  0
  9 10  1  0
  9 44  1  0
  9 45  1  0
 10 46  1  0
 11 12  2  0
 11 16  1  0
 12 13  1  0
 12 47  1  0
 13 14  2  0
 13 48  1  0
 14 15  1  0
 14 17  1  0
 15 16  2  0
 15 49  1  0
 16 50  1  0
 17 18  1  0
 17 51  1  0
 18 19  2  0
 18 26  1  0
 19 20  1  0
 20 21  2  0
 20 27  1  0
 21 22  1  0
 21 25  1  0
 22 23  2  0
 23 24  1  0
 23 52  1  0
 24 25  1  0
 24 53  1  0
 25 26  2  0
 27 28  1  0
 28 29  1  0
 28 54  1  0
 28 55  1  0
 29 30  1  0
 29 34  1  0
 29 56  1  1
 30 31  1  0
 30 57  1  0
 30 58  1  0
 31 32  1  0
 31 59  1  0
 31 60  1  0
 32 33  1  0
 32 61  1  0
 32 62  1  0
 33 34  1  0
 33 63  1  0
 33 64  1  0
 34 65  1  0
 34 66  1  0
M  END
