
     RDKit          3D

 46 49  0  0  0  0  0  0  0  0999 V2000
   -2.4664    2.6415    0.9610 N   0  0  0  0  0  0  0  0  0  0  0  0
   -2.8317    1.4927    0.1589 C   0  0  2  0  0  0  0  0  0  0  0  0
   -4.3086    1.4053   -0.2156 C   0  0  1  0  0  0  0  0  0  0  0  0
   -4.6183    2.5171   -1.0171 O   0  0  0  0  0  0  0  0  0  0  0  0
   -4.6121    0.0912   -0.9271 C   0  0  2  0  0  0  0  0  0  0  0  0
   -6.0044    0.0482   -1.1519 O   0  0  0  0  0  0  0  0  0  0  0  0
   -4.1388   -1.0788   -0.0577 C   0  0  1  0  0  0  0  0  0  0  0  0
   -4.3385   -2.4167   -0.7351 C   0  0  0  0  0  0  0  0  0  0  0  0
   -3.9827   -3.4397    0.1633 O   0  0  0  0  0  0  0  0  0  0  0  0
   -2.7563   -0.9417    0.2061 O   0  0  0  0  0  0  0  0  0  0  0  0
   -2.4290    0.2239    0.9180 C   0  0  1  0  0  0  0  0  0  0  0  0
   -0.9526    0.1973    1.1226 C   0  0  0  0  0  0  0  0  0  0  0  0
   -0.0486    0.1118    0.1743 N   0  0  0  0  0  0  0  0  0  0  0  0
    1.1233    0.1164    0.8486 C   0  0  0  0  0  0  0  0  0  0  0  0
    2.4236    0.0251    0.1836 C   0  0  0  0  0  0  0  0  0  0  0  0
    3.5932   -0.0024    0.9037 C   0  0  0  0  0  0  0  0  0  0  0  0
    4.8446   -0.0950    0.2577 C   0  0  0  0  0  0  0  0  0  0  0  0
    4.8910   -0.1608   -1.1590 C   0  0  0  0  0  0  0  0  0  0  0  0
    6.1459   -0.2549   -1.8035 C   0  0  0  0  0  0  0  0  0  0  0  0
    7.3033   -0.2829   -1.0737 C   0  0  0  0  0  0  0  0  0  0  0  0
    7.2585   -0.2174    0.3357 C   0  0  0  0  0  0  0  0  0  0  0  0
    6.0584   -0.1261    0.9857 C   0  0  0  0  0  0  0  0  0  0  0  0
    3.6743   -0.1304   -1.8792 C   0  0  0  0  0  0  0  0  0  0  0  0
    2.4761   -0.0409   -1.2304 C   0  0  0  0  0  0  0  0  0  0  0  0
    0.9816    0.2030    2.1556 N   0  0  0  0  0  0  0  0  0  0  0  0
   -0.3401    0.2480    2.3054 N   0  0  0  0  0  0  0  0  0  0  0  0
   -2.5502    3.4870    0.4128 H   0  0  0  0  0  0  0  0  0  0  0  0
   -3.1102    2.7438    1.7374 H   0  0  0  0  0  0  0  0  0  0  0  0
   -2.2422    1.5242   -0.7637 H   0  0  0  0  0  0  0  0  0  0  0  0
   -4.8981    1.4210    0.7182 H   0  0  0  0  0  0  0  0  0  0  0  0
   -5.5534    2.4705   -1.2425 H   0  0  0  0  0  0  0  0  0  0  0  0
   -4.0567    0.0711   -1.8760 H   0  0  0  0  0  0  0  0  0  0  0  0
   -6.1804   -0.4718   -1.9406 H   0  0  0  0  0  0  0  0  0  0  0  0
   -4.7101   -1.0670    0.8854 H   0  0  0  0  0  0  0  0  0  0  0  0
   -5.3878   -2.4998   -1.0409 H   0  0  0  0  0  0  0  0  0  0  0  0
   -3.7299   -2.4454   -1.6495 H   0  0  0  0  0  0  0  0  0  0  0  0
   -4.1195   -4.2828   -0.2776 H   0  0  0  0  0  0  0  0  0  0  0  0
   -2.9266    0.2303    1.9013 H   0  0  0  0  0  0  0  0  0  0  0  0
    3.5689    0.0437    1.9860 H   0  0  0  0  0  0  0  0  0  0  0  0
    6.1787   -0.3042   -2.8852 H   0  0  0  0  0  0  0  0  0  0  0  0
    8.2595   -0.3568   -1.5752 H   0  0  0  0  0  0  0  0  0  0  0  0
    8.1807   -0.2404    0.9016 H   0  0  0  0  0  0  0  0  0  0  0  0
    6.0232   -0.0779    2.0674 H   0  0  0  0  0  0  0  0  0  0  0  0
    3.7020   -0.1790   -2.9610 H   0  0  0  0  0  0  0  0  0  0  0  0
    1.5554   -0.0196   -1.7975 H   0  0  0  0  0  0  0  0  0  0  0  0
   -0.7498    0.3159    3.2255 H   0  0  0  0  0  0  0  0  0  0  0  0
  4  3  1  0
  6  5  1  0
  3  5  1  0
  3  2  1  0
  5  7  1  0
  1  2  1  0
  2 11  1  0
  9  8  1  0
  7  8  1  0
  7 10  1  0
 11 10  1  0
 11 12  1  0
 26 12  1  0
 26 25  1  0
 12 13  2  0
 25 14  2  0
 13 14  1  0
 14 15  1  0
 15 16  2  0
 15 24  1  0
 16 17  1  0
 24 23  2  0
 17 22  2  0
 17 18  1  0
 22 21  1  0
 23 18  1  0
 18 19  2  0
 21 20  2  0
 19 20  1  0
  1 27  1  0
  1 28  1  0
  2 29  1  6
  3 30  1  1
  4 31  1  0
  5 32  1  6
  6 33  1  0
  7 34  1  1
  8 35  1  0
  8 36  1  0
  9 37  1  0
 11 38  1  1
 16 39  1  0
 19 40  1  0
 20 41  1  0
 21 42  1  0
 22 43  1  0
 23 44  1  0
 24 45  1  0
 26 46  1  0
M  END
