
     RDKit          3D

 65 69  0  0  0  0  0  0  0  0999 V2000
    9.4358    4.9040    2.5067 N   0  0  0  0  0  0  0  0  0  0  0  0
   -2.0560    0.9005   -0.1861 O   0  0  0  0  0  0  0  0  0  0  0  0
   -7.2583    4.3405   -1.0313 F   0  0  0  0  0  0  0  0  0  0  0  0
   -6.2046   -0.1149   -0.2460 F   0  0  0  0  0  0  0  0  0  0  0  0
   -2.9002    0.3289   -2.6881 F   0  0  0  0  0  0  0  0  0  0  0  0
   -4.4331   -1.0432   -1.9961 F   0  0  0  0  0  0  0  0  0  0  0  0
    1.6796   -4.9946   -0.9917 C   0  0  0  0  0  0  0  0  0  0  0  0
   -4.9955    3.7324   -0.9197 C   0  0  0  0  0  0  0  0  0  0  0  0
    8.9364    1.5223    1.8146 C   0  0  0  0  0  0  0  0  0  0  0  0
    7.0990    2.8357    0.9448 C   0  0  0  0  0  0  0  0  0  0  0  0
    2.1828   -2.8756    0.2667 C   0  0  0  0  0  0  0  0  0  0  0  0
    3.9039   -3.9169   -1.0204 C   0  0  0  0  0  0  0  0  0  0  0  0
   -0.0391   -2.5459   -1.9880 C   0  0  0  0  0  0  0  0  0  0  0  0
    8.3292    0.3746    1.3323 C   0  0  0  0  0  0  0  0  0  0  0  0
    6.5086    1.6824    0.4644 C   0  0  0  0  0  0  0  0  0  0  0  0
    3.0593   -1.8776    0.6392 C   0  0  0  0  0  0  0  0  0  0  0  0
    4.7974   -2.9156   -0.6634 C   0  0  0  0  0  0  0  0  0  0  0  0
   -0.9125   -1.4777   -2.0939 C   0  0  0  0  0  0  0  0  0  0  0  0
   -4.0542    2.7304   -0.7502 C   0  0  0  0  0  0  0  0  0  0  0  0
   -1.7956   -3.7817   -0.9753 C   0  0  0  0  0  0  0  0  0  0  0  0
   -5.0013    0.4007    2.6626 C   0  0  0  0  0  0  0  0  0  0  0  0
   -6.7423    2.0940   -0.6542 C   0  0  0  0  0  0  0  0  0  0  0  0
    6.4894   -0.8023    0.1015 C   0  0  0  0  0  0  0  0  0  0  0  0
   -3.5389   -0.5593    0.8511 C   0  0  0  0  0  0  0  0  0  0  0  0
   -4.8007    1.2179    3.6614 N   0  0  0  0  0  0  0  0  0  0  0  0
   -2.6366   -2.7660   -1.0716 N   0  0  0  0  0  0  0  0  0  0  0  0
   -3.5061    1.5400    3.6136 N   0  0  0  0  0  0  0  0  0  0  0  0
   -2.9229    0.9584    2.6428 N   0  0  0  0  0  0  0  0  0  0  0  0
    5.1591   -0.8677    0.5818 O   0  0  0  0  0  0  0  0  0  0  0  0
   -6.3310    3.3921   -0.8734 C   0  0  0  0  0  0  0  0  0  0  0  0
    8.3178    2.7547    1.6208 C   0  0  0  0  0  0  0  0  0  0  0  0
    2.5806   -3.9093   -0.5886 C   0  0  0  0  0  0  0  0  0  0  0  0
   -0.4670   -3.7354   -1.4023 C   0  0  0  0  0  0  0  0  0  0  0  0
   -5.7681    1.1289   -0.4957 C   0  0  0  0  0  0  0  0  0  0  0  0
    7.1184    0.4428    0.6530 C   0  0  0  0  0  0  0  0  0  0  0  0
    4.3746   -1.8828    0.1677 C   0  0  0  0  0  0  0  0  0  0  0  0
   -2.2052   -1.6394   -1.6185 C   0  0  0  0  0  0  0  0  0  0  0  0
   -4.4034    1.3968   -0.5437 C   0  0  0  0  0  0  0  0  0  0  0  0
   -3.8422    0.2309    2.0231 N   0  0  0  0  0  0  0  0  0  0  0  0
   -3.2253   -0.5293   -1.6786 C   0  0  1  0  0  0  0  0  0  0  0  0
   -3.3163    0.3316   -0.3852 C   0  0  1  0  0  0  0  0  0  0  0  0
   -1.7892    1.4301   -0.9462 H   0  0  0  0  0  0  0  0  0  0  0  0
    2.1367   -5.9777   -1.0470 H   0  0  0  0  0  0  0  0  0  0  0  0
   -0.1325   -5.8691   -1.4794 H   0  0  0  0  0  0  0  0  0  0  0  0
   -4.6887    4.7566   -1.0802 H   0  0  0  0  0  0  0  0  0  0  0  0
    9.8794    1.4608    2.3407 H   0  0  0  0  0  0  0  0  0  0  0  0
    6.6239    3.7955    0.7945 H   0  0  0  0  0  0  0  0  0  0  0  0
    1.1764   -2.8583    0.6641 H   0  0  0  0  0  0  0  0  0  0  0  0
    4.2526   -4.7191   -1.6597 H   0  0  0  0  0  0  0  0  0  0  0  0
    0.9672   -2.4542   -2.3740 H   0  0  0  0  0  0  0  0  0  0  0  0
    8.8075   -0.5838    1.4890 H   0  0  0  0  0  0  0  0  0  0  0  0
    5.5688    1.7529   -0.0675 H   0  0  0  0  0  0  0  0  0  0  0  0
    2.7360   -1.0895    1.3077 H   0  0  0  0  0  0  0  0  0  0  0  0
    5.8116   -2.9676   -1.0347 H   0  0  0  0  0  0  0  0  0  0  0  0
   -0.5825   -0.5560   -2.5507 H   0  0  0  0  0  0  0  0  0  0  0  0
   -3.0162    3.0293   -0.7672 H   0  0  0  0  0  0  0  0  0  0  0  0
   -2.1878   -4.6907   -0.5313 H   0  0  0  0  0  0  0  0  0  0  0  0
   -5.9272   -0.0813    2.3980 H   0  0  0  0  0  0  0  0  0  0  0  0
   -7.7908    1.8323   -0.5995 H   0  0  0  0  0  0  0  0  0  0  0  0
    7.0620   -1.6836    0.4079 H   0  0  0  0  0  0  0  0  0  0  0  0
    6.4995   -0.7646   -0.9938 H   0  0  0  0  0  0  0  0  0  0  0  0
   -2.6320   -1.1242    1.0567 H   0  0  0  0  0  0  0  0  0  0  0  0
   -4.3420   -1.2763    0.7154 H   0  0  0  0  0  0  0  0  0  0  0  0
    0.3754   -4.9301   -1.2859 C   0  0  0  0  0  0  0  0  0  0  0  0
    8.9350    3.9435    2.1136 C   0  0  0  0  0  0  0  0  0  0  0  0
  1 65  3  0
 41  2  1  1
  3 30  1  0
  4 34  1  0
 40  5  1  6
  6 40  1  0
 65 31  1  0
  7 64  2  0
  7 32  1  0
 64 33  1  0
  8 19  2  0
  8 30  1  0
  9 14  2  0
  9 31  1  0
 10 15  1  0
 10 31  2  0
 11 16  2  0
 11 32  1  0
 12 17  1  0
 12 32  2  0
 13 18  2  0
 13 33  1  0
 14 35  1  0
 15 35  2  0
 16 36  1  0
 17 36  2  0
 18 37  1  0
 19 38  1  0
 20 26  1  0
 20 33  2  0
 21 25  2  0
 21 39  1  0
 22 30  2  0
 22 34  1  0
 23 29  1  0
 23 35  1  0
 24 39  1  0
 24 41  1  0
 25 27  1  0
 26 37  2  0
 27 28  2  0
 28 39  1  0
 29 36  1  0
 34 38  2  0
 37 40  1  0
 38 41  1  0
 40 41  1  0
  2 42  1  0
  7 43  1  0
 64 44  1  0
  8 45  1  0
  9 46  1  0
 10 47  1  0
 11 48  1  0
 12 49  1  0
 13 50  1  0
 14 51  1  0
 15 52  1  0
 16 53  1  0
 17 54  1  0
 18 55  1  0
 19 56  1  0
 20 57  1  0
 21 58  1  0
 22 59  1  0
 23 60  1  0
 23 61  1  0
 24 62  1  0
 24 63  1  0
M  END
