
     RDKit          3D

 26 27  0  0  0  0  0  0  0  0999 V2000
    3.1266    2.2327    0.1712 O   0  0  0  0  0  0  0  0  0  0  0  0
    3.0843    0.8411   -0.0322 C   0  0  0  0  0  0  0  0  0  0  0  0
    1.6528    0.3717    0.0961 C   0  0  1  0  0  0  0  0  0  0  0  0
    0.9115    1.0059   -0.9355 O   0  0  0  0  0  0  0  0  0  0  0  0
    1.5113   -1.1460   -0.0461 C   0  0  1  0  0  0  0  0  0  0  0  0
    2.2171   -1.8304    0.9652 O   0  0  0  0  0  0  0  0  0  0  0  0
    0.0412   -1.5153    0.1018 C   0  0  2  0  0  0  0  0  0  0  0  0
   -0.1774   -2.8890   -0.0884 O   0  0  0  0  0  0  0  0  0  0  0  0
   -0.8233   -0.7635   -0.9102 C   0  0  2  0  0  0  0  0  0  0  0  0
   -0.4311    0.7216   -0.9947 C   0  0  1  0  0  0  0  0  0  0  0  0
   -1.4392    1.4885    0.3689 S   0  0  0  0  0  0  0  0  0  0  0  0
   -2.2178   -0.8491   -0.5580 N   0  0  0  0  0  0  0  0  0  0  0  0
   -2.5948    0.1553    0.1342 C   0  0  0  0  0  0  0  0  0  0  0  0
   -3.8112    0.2961    0.6803 N   0  0  0  0  0  0  0  0  0  0  0  0
    4.0482    2.5058    0.1606 H   0  0  0  0  0  0  0  0  0  0  0  0
    3.4694    0.5601   -1.0228 H   0  0  0  0  0  0  0  0  0  0  0  0
    3.6872    0.3084    0.7115 H   0  0  0  0  0  0  0  0  0  0  0  0
    1.2606    0.6732    1.0800 H   0  0  0  0  0  0  0  0  0  0  0  0
    1.8639   -1.4428   -1.0446 H   0  0  0  0  0  0  0  0  0  0  0  0
   -0.7972    1.1543   -1.9271 H   0  0  0  0  0  0  0  0  0  0  0  0
    3.0911   -2.0632    0.6401 H   0  0  0  0  0  0  0  0  0  0  0  0
   -0.2696   -1.2057    1.1132 H   0  0  0  0  0  0  0  0  0  0  0  0
    0.3444   -3.3624    0.5684 H   0  0  0  0  0  0  0  0  0  0  0  0
   -0.6515   -1.2068   -1.8972 H   0  0  0  0  0  0  0  0  0  0  0  0
   -4.0517    1.0922    1.2424 H   0  0  0  0  0  0  0  0  0  0  0  0
   -4.4341   -0.4937    0.6996 H   0  0  0  0  0  0  0  0  0  0  0  0
  1  2  1  0
  2  3  1  0
  3  4  1  0
  3  5  1  0
  4 10  1  0
  5  6  1  0
  5  7  1  0
  7  8  1  0
  7  9  1  0
  9 10  1  0
  9 12  1  0
 10 11  1  0
 11 13  1  0
 12 13  2  0
 14 13  1  0
  1 15  1  0
  2 16  1  0
  2 17  1  0
  3 18  1  1
  5 19  1  6
 10 20  1  6
  6 21  1  0
  7 22  1  1
  8 23  1  0
  9 24  1  6
 14 25  1  0
 14 26  1  0
M  END
