
     RDKit          3D

 35 36  0  0  0  0  0  0  0  0999 V2000
    5.0655    1.6501    1.2394 C   0  0  0  0  0  0  0  0  0  0  0  0
    0.8146   -0.6201   -1.7914 C   0  0  0  0  0  0  0  0  0  0  0  0
   -1.0242   -2.0788   -0.8603 C   0  0  0  0  0  0  0  0  0  0  0  0
   -2.4703   -2.0006    0.0516 S   0  0  0  0  0  0  0  0  0  0  0  0
   -2.3497   -0.2872    0.2131 C   0  0  0  0  0  0  0  0  0  0  0  0
   -1.2382    0.1947   -0.4202 C   0  0  0  0  0  0  0  0  0  0  0  0
   -0.8711    1.6447   -0.4908 C   0  0  0  0  0  0  0  0  0  0  0  0
   -3.4262    0.4705    0.9215 C   0  0  0  0  0  0  0  0  0  0  0  0
   -4.5920    0.7846   -0.0068 C   0  0  0  0  0  0  0  0  0  0  0  0
   -5.5624    1.5005    0.7218 O   0  0  0  0  0  0  0  0  0  0  0  0
    3.4942    1.7434   -0.5925 N   0  0  0  0  0  0  0  0  0  0  0  0
    3.9619    1.0418    0.4309 C   0  0  0  0  0  0  0  0  0  0  0  0
    3.5147   -0.1444    0.8185 N   0  0  0  0  0  0  0  0  0  0  0  0
    2.5090   -0.6976    0.1379 C   0  0  0  0  0  0  0  0  0  0  0  0
    2.1103   -1.9231    0.5281 N   0  0  0  0  0  0  0  0  0  0  0  0
    1.9282   -0.0351   -0.9677 C   0  0  0  0  0  0  0  0  0  0  0  0
    2.4869    1.1848   -1.2659 C   0  0  0  0  0  0  0  0  0  0  0  0
   -0.4648   -0.8486   -1.0326 C   0  0  0  0  0  0  0  0  0  0  0  0
    4.6473    2.2884    2.0212 H   0  0  0  0  0  0  0  0  0  0  0  0
    5.6651    0.8849    1.7277 H   0  0  0  0  0  0  0  0  0  0  0  0
    5.7085    2.2717    0.6196 H   0  0  0  0  0  0  0  0  0  0  0  0
    0.6214    0.0554   -2.6300 H   0  0  0  0  0  0  0  0  0  0  0  0
    1.1371   -1.5671   -2.2350 H   0  0  0  0  0  0  0  0  0  0  0  0
   -0.6610   -3.0258   -1.2332 H   0  0  0  0  0  0  0  0  0  0  0  0
   -0.0576    1.8909    0.1935 H   0  0  0  0  0  0  0  0  0  0  0  0
   -0.5407    1.9184   -1.4934 H   0  0  0  0  0  0  0  0  0  0  0  0
   -1.7145    2.2875   -0.2421 H   0  0  0  0  0  0  0  0  0  0  0  0
   -3.7884   -0.0998    1.7810 H   0  0  0  0  0  0  0  0  0  0  0  0
   -3.0145    1.4004    1.3191 H   0  0  0  0  0  0  0  0  0  0  0  0
   -4.2193    1.3605   -0.8641 H   0  0  0  0  0  0  0  0  0  0  0  0
   -4.9958   -0.1540   -0.4076 H   0  0  0  0  0  0  0  0  0  0  0  0
   -6.2965    1.6947    0.1323 H   0  0  0  0  0  0  0  0  0  0  0  0
    2.4677   -2.2742    1.4011 H   0  0  0  0  0  0  0  0  0  0  0  0
    1.2125   -2.2782    0.2458 H   0  0  0  0  0  0  0  0  0  0  0  0
    2.0982    1.7534   -2.1069 H   0  0  0  0  0  0  0  0  0  0  0  0
 10  9  1  0
  9  8  1  0
  8  5  1  0
  5  6  2  0
  5  4  1  0
  7  6  1  0
  6 18  1  0
  4  3  1  0
 18  3  2  0
 18  2  1  0
  2 16  1  0
 16 17  1  0
 16 14  2  0
 17 11  2  0
 15 14  1  0
 14 13  1  0
 11 12  1  0
 13 12  2  0
 12  1  1  0
  1 19  1  0
  1 20  1  0
  1 21  1  0
  2 22  1  0
  2 23  1  0
  3 24  1  0
  7 25  1  0
  7 26  1  0
  7 27  1  0
  8 28  1  0
  8 29  1  0
  9 30  1  0
  9 31  1  0
 10 32  1  0
 15 33  1  0
 15 34  1  0
 17 35  1  0
M  END
