
     RDKit          3D

 56 58  0  0  0  0  0  0  0  0999 V2000
    4.6060    3.3989   -0.8504 N   0  0  0  0  0  0  0  0  0  0  0  0
    4.9873    2.1150   -0.5720 C   0  0  0  0  0  0  0  0  0  0  0  0
    6.3117    1.8202   -0.2138 C   0  0  0  0  0  0  0  0  0  0  0  0
    6.6668    0.5022    0.0039 C   0  0  0  0  0  0  0  0  0  0  0  0
    8.0609    0.1298    0.4086 C   0  0  0  0  0  0  0  0  0  0  0  0
    5.6830   -0.4776   -0.1397 C   0  0  0  0  0  0  0  0  0  0  0  0
    4.0611    1.1714   -0.7078 N   0  0  0  0  0  0  0  0  0  0  0  0
    4.3976   -0.0984   -0.4875 C   0  0  0  0  0  0  0  0  0  0  0  0
    3.3257   -1.1306   -0.7131 C   0  0  0  0  0  0  0  0  0  0  0  0
    1.9639   -0.7852   -0.1045 C   0  0  2  0  0  0  0  0  0  0  0  0
    1.9154   -1.0191    1.4103 C   0  0  0  0  0  0  0  0  0  0  0  0
    2.9681   -0.3027    2.1038 N   0  0  0  0  0  0  0  0  0  0  0  0
    0.8222   -1.5531   -0.7240 C   0  0  0  0  0  0  0  0  0  0  0  0
   -0.3633   -0.9495   -0.7038 N   0  0  0  0  0  0  0  0  0  0  0  0
    0.9768   -2.8409   -1.2313 C   0  0  0  0  0  0  0  0  0  0  0  0
   -0.1357   -3.4996   -1.7285 C   0  0  0  0  0  0  0  0  0  0  0  0
   -1.3664   -2.8641   -1.6993 C   0  0  0  0  0  0  0  0  0  0  0  0
   -1.4380   -1.5786   -1.1732 C   0  0  0  0  0  0  0  0  0  0  0  0
   -2.7435   -0.8444   -1.0718 C   0  0  0  0  0  0  0  0  0  0  0  0
   -3.2064   -0.7264    0.3856 C   0  0  0  0  0  0  0  0  0  0  0  0
   -4.4843    0.0525    0.5092 C   0  0  0  0  0  0  0  0  0  0  0  0
   -4.4188    1.3442    0.1773 N   0  0  0  0  0  0  0  0  0  0  0  0
   -5.5231    2.0778    0.2482 C   0  0  0  0  0  0  0  0  0  0  0  0
   -5.4085    3.4053   -0.0523 N   0  0  0  0  0  0  0  0  0  0  0  0
   -6.7567    1.5409    0.6579 C   0  0  0  0  0  0  0  0  0  0  0  0
   -6.8270    0.2067    0.9999 C   0  0  0  0  0  0  0  0  0  0  0  0
   -5.6552   -0.5560    0.9225 C   0  0  0  0  0  0  0  0  0  0  0  0
   -8.1140   -0.4162    1.4461 C   0  0  0  0  0  0  0  0  0  0  0  0
    5.1712    4.1410   -0.4732 H   0  0  0  0  0  0  0  0  0  0  0  0
    3.6162    3.5802   -0.8131 H   0  0  0  0  0  0  0  0  0  0  0  0
    7.0403    2.6161   -0.1166 H   0  0  0  0  0  0  0  0  0  0  0  0
    8.0914   -0.1550    1.4618 H   0  0  0  0  0  0  0  0  0  0  0  0
    8.4219   -0.7249   -0.1638 H   0  0  0  0  0  0  0  0  0  0  0  0
    8.7580    0.9543    0.2678 H   0  0  0  0  0  0  0  0  0  0  0  0
    5.9144   -1.5214    0.0318 H   0  0  0  0  0  0  0  0  0  0  0  0
    3.2061   -1.2359   -1.7973 H   0  0  0  0  0  0  0  0  0  0  0  0
    3.6786   -2.1001   -0.3518 H   0  0  0  0  0  0  0  0  0  0  0  0
    1.7692    0.2750   -0.2919 H   0  0  0  0  0  0  0  0  0  0  0  0
    0.9030   -0.7653    1.7571 H   0  0  0  0  0  0  0  0  0  0  0  0
    2.0461   -2.0898    1.6004 H   0  0  0  0  0  0  0  0  0  0  0  0
    2.8689    0.6918    1.9427 H   0  0  0  0  0  0  0  0  0  0  0  0
    2.8623   -0.4370    3.1014 H   0  0  0  0  0  0  0  0  0  0  0  0
    1.9445   -3.3235   -1.2427 H   0  0  0  0  0  0  0  0  0  0  0  0
   -0.0429   -4.4994   -2.1329 H   0  0  0  0  0  0  0  0  0  0  0  0
   -2.2558   -3.3521   -2.0758 H   0  0  0  0  0  0  0  0  0  0  0  0
   -2.6318    0.1579   -1.4911 H   0  0  0  0  0  0  0  0  0  0  0  0
   -3.5072   -1.3583   -1.6592 H   0  0  0  0  0  0  0  0  0  0  0  0
   -3.3399   -1.7238    0.8096 H   0  0  0  0  0  0  0  0  0  0  0  0
   -2.4216   -0.2329    0.9647 H   0  0  0  0  0  0  0  0  0  0  0  0
   -5.6636   -1.6086    1.1769 H   0  0  0  0  0  0  0  0  0  0  0  0
   -4.6040    3.6658   -0.5991 H   0  0  0  0  0  0  0  0  0  0  0  0
   -6.2496    3.8980   -0.3016 H   0  0  0  0  0  0  0  0  0  0  0  0
   -7.6363    2.1722    0.6992 H   0  0  0  0  0  0  0  0  0  0  0  0
   -8.3724   -1.2715    0.8203 H   0  0  0  0  0  0  0  0  0  0  0  0
   -8.0307   -0.7856    2.4694 H   0  0  0  0  0  0  0  0  0  0  0  0
   -8.9398    0.2925    1.4091 H   0  0  0  0  0  0  0  0  0  0  0  0
  1  2  1  0
  2  3  2  0
  2  7  1  0
  3  4  1  0
  4  5  1  0
  4  6  2  0
  6  8  1  0
  7  8  2  0
  8  9  1  0
  9 10  1  0
 10 11  1  0
 10 13  1  0
 11 12  1  0
 13 14  2  0
 13 15  1  0
 14 18  1  0
 15 16  2  0
 16 17  1  0
 17 18  2  0
 18 19  1  0
 19 20  1  0
 20 21  1  0
 21 22  2  0
 21 27  1  0
 22 23  1  0
 23 24  1  0
 23 25  2  0
 25 26  1  0
 26 27  2  0
 26 28  1  0
  1 29  1  0
  1 30  1  0
  3 31  1  0
  5 32  1  0
  5 33  1  0
  5 34  1  0
  6 35  1  0
  9 36  1  0
  9 37  1  0
 10 38  1  1
 11 39  1  0
 11 40  1  0
 12 41  1  0
 12 42  1  0
 15 43  1  0
 16 44  1  0
 17 45  1  0
 19 46  1  0
 19 47  1  0
 20 48  1  0
 20 49  1  0
 27 50  1  0
 24 51  1  0
 24 52  1  0
 25 53  1  0
 28 54  1  0
 28 55  1  0
 28 56  1  0
M  END
