
     RDKit          3D

 51 53  0  0  0  0  0  0  0  0999 V2000
   -2.2051   -0.5240   -1.5083 Cl  0  0  0  0  0  0  0  0  0  0  0  0
   -0.4865   -0.4389   -1.6762 C   0  0  0  0  0  0  0  0  0  0  0  0
    0.0360    0.3377   -2.7116 C   0  0  0  0  0  0  0  0  0  0  0  0
   -0.7877    1.0190   -3.5360 O   0  0  0  0  0  0  0  0  0  0  0  0
   -1.0986    0.3421   -4.7516 C   0  0  0  0  0  0  0  0  0  0  0  0
    1.4132    0.4256   -2.8808 C   0  0  0  0  0  0  0  0  0  0  0  0
    1.9251    1.1504   -3.9030 O   0  0  0  0  0  0  0  0  0  0  0  0
    2.1886    2.5118   -3.5804 C   0  0  0  0  0  0  0  0  0  0  0  0
    2.2685   -0.2563   -2.0045 C   0  0  0  0  0  0  0  0  0  0  0  0
    3.5804   -0.1128   -2.2372 O   0  0  0  0  0  0  0  0  0  0  0  0
    4.4934   -0.8172   -1.4166 C   0  0  0  0  0  0  0  0  0  0  0  0
    1.7239   -1.0155   -0.9762 C   0  0  0  0  0  0  0  0  0  0  0  0
    0.3459   -1.1023   -0.7881 C   0  0  0  0  0  0  0  0  0  0  0  0
   -0.1932   -1.9117    0.3609 C   0  0  0  0  0  0  0  0  0  0  0  0
   -1.0639   -1.1801    1.3323 C   0  0  0  0  0  0  0  0  0  0  0  0
   -2.1496   -1.7006    1.8337 N   0  0  0  0  0  0  0  0  0  0  0  0
   -2.6276   -0.7574    2.7000 C   0  0  0  0  0  0  0  0  0  0  0  0
   -3.7579   -0.7061    3.5348 C   0  0  0  0  0  0  0  0  0  0  0  0
   -4.6428   -1.7029    3.6126 N   0  0  0  0  0  0  0  0  0  0  0  0
   -1.8033    0.3543    2.7124 C   0  0  0  0  0  0  0  0  0  0  0  0
   -1.9760    1.4579    3.4370 N   0  0  0  0  0  0  0  0  0  0  0  0
   -3.0662    1.3904    4.1809 C   0  0  0  0  0  0  0  0  0  0  0  0
   -3.9463    0.3962    4.2697 N   0  0  0  0  0  0  0  0  0  0  0  0
   -0.7998    0.0745    1.8306 N   0  0  0  0  0  0  0  0  0  0  0  0
    0.3179    0.9569    1.5553 C   0  0  0  0  0  0  0  0  0  0  0  0
    1.6215    0.4749    2.1759 C   0  0  0  0  0  0  0  0  0  0  0  0
    2.7782    1.3574    1.7051 C   0  0  0  0  0  0  0  0  0  0  0  0
    4.0665    0.9067    2.2113 C   0  0  0  0  0  0  0  0  0  0  0  0
    5.1220    0.5129    2.6317 C   0  0  0  0  0  0  0  0  0  0  0  0
   -1.7803    0.9836   -5.3053 H   0  0  0  0  0  0  0  0  0  0  0  0
   -0.2056    0.1698   -5.3544 H   0  0  0  0  0  0  0  0  0  0  0  0
   -1.5892   -0.6147   -4.5601 H   0  0  0  0  0  0  0  0  0  0  0  0
    2.5704    2.9856   -4.4822 H   0  0  0  0  0  0  0  0  0  0  0  0
    1.2808    3.0322   -3.2674 H   0  0  0  0  0  0  0  0  0  0  0  0
    2.9388    2.6019   -2.7912 H   0  0  0  0  0  0  0  0  0  0  0  0
    5.4864   -0.5835   -1.7914 H   0  0  0  0  0  0  0  0  0  0  0  0
    4.4335   -0.5036   -0.3707 H   0  0  0  0  0  0  0  0  0  0  0  0
    4.3389   -1.8974   -1.4710 H   0  0  0  0  0  0  0  0  0  0  0  0
    2.3664   -1.5501   -0.2892 H   0  0  0  0  0  0  0  0  0  0  0  0
   -0.7881   -2.7485   -0.0108 H   0  0  0  0  0  0  0  0  0  0  0  0
    0.6480   -2.3551    0.8998 H   0  0  0  0  0  0  0  0  0  0  0  0
   -5.4197   -1.6437    4.2474 H   0  0  0  0  0  0  0  0  0  0  0  0
   -4.5014   -2.5617    3.1110 H   0  0  0  0  0  0  0  0  0  0  0  0
   -3.2757    2.2549    4.8019 H   0  0  0  0  0  0  0  0  0  0  0  0
    0.4257    1.0780    0.4778 H   0  0  0  0  0  0  0  0  0  0  0  0
    0.0519    1.9347    1.9554 H   0  0  0  0  0  0  0  0  0  0  0  0
    1.5479    0.4996    3.2645 H   0  0  0  0  0  0  0  0  0  0  0  0
    1.8196   -0.5608    1.8943 H   0  0  0  0  0  0  0  0  0  0  0  0
    2.6099    2.3934    2.0114 H   0  0  0  0  0  0  0  0  0  0  0  0
    2.8085    1.3663    0.6110 H   0  0  0  0  0  0  0  0  0  0  0  0
    6.0585    0.1711    3.0089 H   0  0  0  0  0  0  0  0  0  0  0  0
  1  2  1  0
  2  3  2  0
  2 13  1  0
  3  4  1  0
  3  6  1  0
  4  5  1  0
  5 30  1  0
  5 31  1  0
  5 32  1  0
  6  7  1  0
  6  9  2  0
  7  8  1  0
  8 33  1  0
  8 34  1  0
  8 35  1  0
  9 10  1  0
  9 12  1  0
 10 11  1  0
 11 36  1  0
 11 37  1  0
 11 38  1  0
 12 13  2  0
 12 39  1  0
 13 14  1  0
 14 15  1  0
 14 40  1  0
 14 41  1  0
 15 16  2  0
 15 24  1  0
 16 17  1  0
 17 18  2  0
 17 20  1  0
 18 19  1  0
 18 23  1  0
 19 42  1  0
 19 43  1  0
 20 21  2  0
 20 24  1  0
 21 22  1  0
 22 23  2  0
 22 44  1  0
 24 25  1  0
 25 26  1  0
 25 45  1  0
 25 46  1  0
 26 27  1  0
 26 47  1  0
 26 48  1  0
 27 28  1  0
 27 49  1  0
 27 50  1  0
 28 29  3  0
 29 51  1  0
M  END
