
     RDKit          3D

 34 37  0  0  0  0  0  0  0  0999 V2000
    1.3795   -0.0688    0.4597 N   0  0  0  0  0  0  0  0  0  0  0  0
   -3.4355   -3.7003    0.6140 N   0  0  0  0  0  0  0  0  0  0  0  0
    5.2837    1.1032    0.4278 C   0  0  0  0  0  0  0  0  0  0  0  0
    1.0876   -1.2802    0.0512 C   0  0  0  0  0  0  0  0  0  0  0  0
   -0.3192   -1.6685    0.0517 C   0  0  0  0  0  0  0  0  0  0  0  0
   -2.4487   -2.8297    0.3468 C   0  0  0  0  0  0  0  0  0  0  0  0
   -1.4514   -0.9204   -0.1252 C   0  0  0  0  0  0  0  0  0  0  0  0
   -2.4549    1.3254    0.0777 C   0  0  0  0  0  0  0  0  0  0  0  0
   -0.8036    2.3347   -1.9104 C   0  0  0  0  0  0  0  0  0  0  0  0
    3.3923   -1.8225   -0.3683 C   0  0  0  0  0  0  0  0  0  0  0  0
   -2.5407    2.6527   -0.3086 C   0  0  0  0  0  0  0  0  0  0  0  0
   -1.7242    3.1748   -1.2981 C   0  0  0  0  0  0  0  0  0  0  0  0
   -0.6963    1.0075   -1.5313 C   0  0  0  0  0  0  0  0  0  0  0  0
   -1.5132    0.4950   -0.5257 C   0  0  0  0  0  0  0  0  0  0  0  0
   -2.6350   -1.5763    0.0515 N   0  0  0  0  0  0  0  0  0  0  0  0
   -0.7798   -3.3064    0.4349 S   0  0  0  0  0  0  0  0  0  0  0  0
    2.0835   -2.2020   -0.3740 C   0  0  0  0  0  0  0  0  0  0  0  0
    3.7278   -0.5139    0.0443 C   0  0  0  0  0  0  0  0  0  0  0  0
    2.6656    0.3297    0.4456 C   0  0  0  0  0  0  0  0  0  0  0  0
    2.9915    1.6419    0.8557 C   0  0  0  0  0  0  0  0  0  0  0  0
    4.3016    2.0274    0.8451 C   0  0  0  0  0  0  0  0  0  0  0  0
    5.0188   -0.1176    0.0421 N   0  0  0  0  0  0  0  0  0  0  0  0
   -4.3736   -3.4168    0.3810 H   0  0  0  0  0  0  0  0  0  0  0  0
   -3.2597   -4.6898    0.5790 H   0  0  0  0  0  0  0  0  0  0  0  0
    6.3261    1.4026    0.4185 H   0  0  0  0  0  0  0  0  0  0  0  0
   -3.1065    0.9364    0.8486 H   0  0  0  0  0  0  0  0  0  0  0  0
   -0.1719    2.7239   -2.6977 H   0  0  0  0  0  0  0  0  0  0  0  0
    4.1765   -2.4974   -0.6868 H   0  0  0  0  0  0  0  0  0  0  0  0
   -1.8073    4.2117   -1.5936 H   0  0  0  0  0  0  0  0  0  0  0  0
    0.0127    0.3645   -2.0341 H   0  0  0  0  0  0  0  0  0  0  0  0
    1.8022   -3.1889   -0.7179 H   0  0  0  0  0  0  0  0  0  0  0  0
    2.1994    2.3114    1.1661 H   0  0  0  0  0  0  0  0  0  0  0  0
    4.5990    3.0210    1.1504 H   0  0  0  0  0  0  0  0  0  0  0  0
   -3.7053    3.6818    0.4634 Cl  0  0  0  0  0  0  0  0  0  0  0  0
  2  6  1  0
 16  6  1  0
 16  5  1  0
  6 15  2  0
  5  4  1  0
  5  7  2  0
 20 19  1  0
 20 21  2  0
 19  1  2  0
 19 18  1  0
  1  4  1  0
 21  3  1  0
  4 17  2  0
 18 22  1  0
 18 10  2  0
 15  7  1  0
  3 22  2  0
 17 10  1  0
  7 14  1  0
  8 14  2  0
  8 11  1  0
 14 13  1  0
 34 11  1  0
 11 12  2  0
 13  9  2  0
 12  9  1  0
  2 23  1  0
  2 24  1  0
  3 25  1  0
  8 26  1  0
  9 27  1  0
 10 28  1  0
 12 29  1  0
 13 30  1  0
 17 31  1  0
 20 32  1  0
 21 33  1  0
M  END
