
     RDKit          3D

 16 15  0  0  0  0  0  0  0  0999 V2000
   29.2347   79.3118   75.6135 O   0  0  0  0  0  0  0  0  0  0  0  0
   29.5462   78.1556   74.9605 C   0  0  0  0  0  0  0  0  0  0  0  0
   30.6419   78.2764   73.9115 C   0  0  2  0  0  0  0  0  0  0  0  0
   31.8375   78.5343   74.6191 O   0  0  0  0  0  0  0  0  0  0  0  0
   30.3662   79.3587   72.8711 C   0  0  0  0  0  0  0  0  0  0  0  0
   29.1420   79.0757   72.0194 C   0  0  0  0  0  0  0  0  0  0  0  0
   29.0641   80.0582   71.0089 O   0  0  0  0  0  0  0  0  0  0  0  0
   29.7959   77.3734   75.6963 H   0  0  0  0  0  0  0  0  0  0  0  0
   28.6123   77.7839   74.5050 H   0  0  0  0  0  0  0  0  0  0  0  0
   30.6955   77.3039   73.3987 H   0  0  0  0  0  0  0  0  0  0  0  0
   32.5578   78.6018   73.9846 H   0  0  0  0  0  0  0  0  0  0  0  0
   30.2631   80.3281   73.3666 H   0  0  0  0  0  0  0  0  0  0  0  0
   31.2376   79.4275   72.2108 H   0  0  0  0  0  0  0  0  0  0  0  0
   29.2205   78.0668   71.5910 H   0  0  0  0  0  0  0  0  0  0  0  0
   28.2384   79.0811   72.6417 H   0  0  0  0  0  0  0  0  0  0  0  0
   28.2520   79.9139   70.5153 H   0  0  0  0  0  0  0  0  0  0  0  0
  1  2  1  0
  2  3  1  0
  3  4  1  0
  3  5  1  0
  5  6  1  0
  6  7  1  0
  2  8  1  0
  2  9  1  0
  3 10  1  6
  4 11  1  0
  5 12  1  0
  5 13  1  0
  6 14  1  0
  6 15  1  0
  7 16  1  0
M  CHG  1   1  -1
M  END
