
     RDKit          3D

 28 29  0  0  0  0  0  0  0  0999 V2000
   -1.4736   -0.7137   -1.1117 C   0  0  0  0  0  0  0  0  0  0  0  0
   -2.8645   -0.1138   -1.2220 C   0  0  0  0  0  0  0  0  0  0  0  0
   -3.4992   -0.1231    0.0827 N   0  0  0  0  0  0  0  0  0  0  0  0
   -2.7291    0.6524    1.0367 C   0  0  0  0  0  0  0  0  0  0  0  0
   -1.3334    0.0692    1.1528 C   0  0  0  0  0  0  0  0  0  0  0  0
   -0.6928    0.0548   -0.1595 N   0  0  0  0  0  0  0  0  0  0  0  0
    0.6957   -0.1963   -0.1219 C   0  0  0  0  0  0  0  0  0  0  0  0
    1.2608   -1.4206   -0.4595 C   0  0  0  0  0  0  0  0  0  0  0  0
    2.6371   -1.6192   -0.4264 C   0  0  0  0  0  0  0  0  0  0  0  0
    3.4623   -0.5772   -0.0326 C   0  0  0  0  0  0  0  0  0  0  0  0
    2.9182    0.6546    0.3037 C   0  0  0  0  0  0  0  0  0  0  0  0
    1.5403    0.8701    0.2563 C   0  0  0  0  0  0  0  0  0  0  0  0
    0.9920    2.0905    0.6007 N   0  0  0  0  0  0  0  0  0  0  0  0
   -1.5689   -1.7711   -0.8182 H   0  0  0  0  0  0  0  0  0  0  0  0
   -0.9819   -0.6855   -2.0860 H   0  0  0  0  0  0  0  0  0  0  0  0
   -2.7761    0.8983   -1.6473 H   0  0  0  0  0  0  0  0  0  0  0  0
   -3.4582   -0.7113   -1.9167 H   0  0  0  0  0  0  0  0  0  0  0  0
   -4.4354    0.2525    0.0107 H   0  0  0  0  0  0  0  0  0  0  0  0
   -2.6403    1.7133    0.7521 H   0  0  0  0  0  0  0  0  0  0  0  0
   -3.2180    0.6163    2.0123 H   0  0  0  0  0  0  0  0  0  0  0  0
   -0.7428    0.6730    1.8423 H   0  0  0  0  0  0  0  0  0  0  0  0
   -1.3933   -0.9480    1.5701 H   0  0  0  0  0  0  0  0  0  0  0  0
    0.6177   -2.2384   -0.7595 H   0  0  0  0  0  0  0  0  0  0  0  0
    3.0523   -2.5798   -0.7016 H   0  0  0  0  0  0  0  0  0  0  0  0
    4.5359   -0.7128    0.0023 H   0  0  0  0  0  0  0  0  0  0  0  0
    3.5700    1.4729    0.5882 H   0  0  0  0  0  0  0  0  0  0  0  0
    0.1058    2.2754    0.1523 H   0  0  0  0  0  0  0  0  0  0  0  0
    1.6214    2.8741    0.5231 H   0  0  0  0  0  0  0  0  0  0  0  0
  1  2  1  0
  1  6  1  0
  2  3  1  0
  3  4  1  0
  4  5  1  0
  5  6  1  0
  6  7  1  0
  7  8  2  0
  7 12  1  0
  8  9  1  0
  9 10  2  0
 10 11  1  0
 11 12  2  0
 12 13  1  0
  1 14  1  0
  1 15  1  0
  2 16  1  0
  2 17  1  0
  3 18  1  0
  4 19  1  0
  4 20  1  0
  5 21  1  0
  5 22  1  0
  8 23  1  0
  9 24  1  0
 10 25  1  0
 11 26  1  0
 13 27  1  0
 13 28  1  0
M  END
