
     RDKit          3D

 22 21  0  0  0  0  0  0  0  0999 V2000
   -4.0773   -1.3929    0.0376 O   0  0  0  0  0  0  0  0  0  0  0  0
   -3.9921   -0.1900    0.0250 C   0  0  0  0  0  0  0  0  0  0  0  0
   -5.0551    0.6099    0.0221 O   0  0  0  0  0  0  0  0  0  0  0  0
   -2.7074    0.5905    0.0122 C   0  0  0  0  0  0  0  0  0  0  0  0
   -1.4609   -0.2783    0.0236 C   0  0  0  0  0  0  0  0  0  0  0  0
   -0.1940    0.5683    0.0065 C   0  0  0  0  0  0  0  0  0  0  0  0
    1.0517   -0.3015    0.0250 C   0  0  0  0  0  0  0  0  0  0  0  0
    2.3323    0.4687   -0.0027 C   0  0  0  0  0  0  0  0  0  0  0  0
    2.4159    1.6673   -0.0395 O   0  0  0  0  0  0  0  0  0  0  0  0
    3.6181   -0.3768    0.0185 C   0  0  0  0  0  0  0  0  0  0  0  0
    3.6025   -1.5779    0.0699 O   0  0  0  0  0  0  0  0  0  0  0  0
    4.6944    0.3763   -0.0242 O   0  0  0  0  0  0  0  0  0  0  0  0
   -5.8668    0.0813    0.0318 H   0  0  0  0  0  0  0  0  0  0  0  0
   -2.7141    1.2403   -0.8687 H   0  0  0  0  0  0  0  0  0  0  0  0
   -2.7122    1.2668    0.8733 H   0  0  0  0  0  0  0  0  0  0  0  0
   -1.4617   -0.9181    0.9102 H   0  0  0  0  0  0  0  0  0  0  0  0
   -1.4655   -0.9459   -0.8421 H   0  0  0  0  0  0  0  0  0  0  0  0
   -0.1908    1.2042   -0.8829 H   0  0  0  0  0  0  0  0  0  0  0  0
   -0.1908    1.2401    0.8689 H   0  0  0  0  0  0  0  0  0  0  0  0
    1.0623   -0.9476    0.9099 H   0  0  0  0  0  0  0  0  0  0  0  0
    1.0554   -0.9926   -0.8257 H   0  0  0  0  0  0  0  0  0  0  0  0
    5.4928   -0.1744   -0.0111 H   0  0  0  0  0  0  0  0  0  0  0  0
  1  2  2  0
  3  2  1  0
  2  4  1  0
  4  5  1  0
  5  6  1  0
  9  8  2  0
  6  7  1  0
  8  7  1  0
  8 10  1  0
 10 11  2  0
 10 12  1  0
  3 13  1  0
  4 14  1  0
  4 15  1  0
  5 16  1  0
  5 17  1  0
  6 18  1  0
  6 19  1  0
  7 20  1  0
  7 21  1  0
 12 22  1  0
M  END
