
     RDKit          3D

 69 74  0  0  0  0  0  0  0  0999 V2000
   -6.1736   -1.4859    0.6569 C   0  0  0  0  0  0  0  0  0  0  0  0
   -6.0754   -0.5468   -0.3719 C   0  0  0  0  0  0  0  0  0  0  0  0
   -7.1923   -0.4227   -1.2044 C   0  0  0  0  0  0  0  0  0  0  0  0
   -8.3482   -1.1502   -1.0276 C   0  0  0  0  0  0  0  0  0  0  0  0
   -8.4160   -2.0772    0.0063 C   0  0  0  0  0  0  0  0  0  0  0  0
   -7.3223   -2.2467    0.8392 C   0  0  0  0  0  0  0  0  0  0  0  0
   -7.1319    0.4379   -2.2371 F   0  0  0  0  0  0  0  0  0  0  0  0
   -4.9294    0.2148   -0.6226 N   0  0  0  0  0  0  0  0  0  0  0  0
   -5.0587    1.6533   -0.4155 C   0  0  0  0  0  0  0  0  0  0  0  0
   -3.8726    2.3751   -1.0225 C   0  0  0  0  0  0  0  0  0  0  0  0
   -2.6331    1.8845   -0.4604 N   0  0  0  0  0  0  0  0  0  0  0  0
   -2.5120    0.4597   -0.6812 C   0  0  0  0  0  0  0  0  0  0  0  0
   -3.6851   -0.2772   -0.0629 C   0  0  0  0  0  0  0  0  0  0  0  0
   -1.4883    2.6293   -0.9482 C   0  0  0  0  0  0  0  0  0  0  0  0
   -0.2401    2.3354   -0.1633 C   0  0  0  0  0  0  0  0  0  0  0  0
   -0.1117    2.7591    1.1680 C   0  0  0  0  0  0  0  0  0  0  0  0
    1.0404    2.4439    1.8865 C   0  0  0  0  0  0  0  0  0  0  0  0
    2.0597    1.7187    1.2858 C   0  0  0  0  0  0  0  0  0  0  0  0
    1.9632    1.3071   -0.0357 C   0  0  0  0  0  0  0  0  0  0  0  0
    0.8042    1.6255   -0.7358 C   0  0  0  0  0  0  0  0  0  0  0  0
    3.0867    0.5484   -0.7014 C   0  0  2  0  0  0  0  0  0  0  0  0
    3.4850   -0.6607    0.0836 C   0  0  0  0  0  0  0  0  0  0  0  0
    4.7580   -0.9681    0.4633 C   0  0  0  0  0  0  0  0  0  0  0  0
    5.9166   -0.0929    0.1277 C   0  0  0  0  0  0  0  0  0  0  0  0
    5.5244    0.7939   -1.0685 C   0  0  2  0  0  0  0  0  0  0  0  0
    4.2326    1.4368   -0.9136 N   0  0  0  0  0  0  0  0  0  0  0  0
    5.5767    0.0493   -2.3907 C   0  0  0  0  0  0  0  0  0  0  0  0
    4.7173    0.0757   -3.2347 O   0  0  0  0  0  0  0  0  0  0  0  0
    6.7157   -0.6152   -2.5398 O   0  0  0  0  0  0  0  0  0  0  0  0
    4.6886   -2.2111    1.1679 C   0  0  0  0  0  0  0  0  0  0  0  0
    3.3282   -2.6009    1.1673 C   0  0  0  0  0  0  0  0  0  0  0  0
    2.6246   -1.6410    0.4950 N   0  0  0  0  0  0  0  0  0  0  0  0
    2.8963   -3.7764    1.7761 C   0  0  0  0  0  0  0  0  0  0  0  0
    3.8514   -4.5673    2.3894 C   0  0  0  0  0  0  0  0  0  0  0  0
    5.2064   -4.2002    2.3987 C   0  0  0  0  0  0  0  0  0  0  0  0
    5.6317   -3.0316    1.7950 C   0  0  0  0  0  0  0  0  0  0  0  0
   -1.1344    3.4692    1.6723 O   0  0  0  0  0  0  0  0  0  0  0  0
   -1.0533    3.9309    3.0049 C   0  0  0  0  0  0  0  0  0  0  0  0
   -5.3396   -1.6306    1.3309 H   0  0  0  0  0  0  0  0  0  0  0  0
   -9.1787   -1.0070   -1.7070 H   0  0  0  0  0  0  0  0  0  0  0  0
   -9.3152   -2.6614    0.1474 H   0  0  0  0  0  0  0  0  0  0  0  0
   -7.3583   -2.9667    1.6458 H   0  0  0  0  0  0  0  0  0  0  0  0
   -5.9703    2.0246   -0.8789 H   0  0  0  0  0  0  0  0  0  0  0  0
   -5.1174    1.8870    0.6580 H   0  0  0  0  0  0  0  0  0  0  0  0
   -3.9068    2.2590   -2.1202 H   0  0  0  0  0  0  0  0  0  0  0  0
   -3.9641    3.4428   -0.8086 H   0  0  0  0  0  0  0  0  0  0  0  0
   -2.4539    0.2138   -1.7566 H   0  0  0  0  0  0  0  0  0  0  0  0
   -1.5939    0.0929   -0.2181 H   0  0  0  0  0  0  0  0  0  0  0  0
   -3.6433   -0.1550    1.0302 H   0  0  0  0  0  0  0  0  0  0  0  0
   -3.5881   -1.3425   -0.2792 H   0  0  0  0  0  0  0  0  0  0  0  0
   -1.2927    2.4247   -2.0146 H   0  0  0  0  0  0  0  0  0  0  0  0
   -1.7273    3.6939   -0.8781 H   0  0  0  0  0  0  0  0  0  0  0  0
    1.1612    2.7522    2.9160 H   0  0  0  0  0  0  0  0  0  0  0  0
    2.9386    1.4739    1.8723 H   0  0  0  0  0  0  0  0  0  0  0  0
    0.7029    1.3009   -1.7664 H   0  0  0  0  0  0  0  0  0  0  0  0
    2.7201    0.2160   -1.6789 H   0  0  0  0  0  0  0  0  0  0  0  0
    6.1729    0.5626    0.9659 H   0  0  0  0  0  0  0  0  0  0  0  0
    6.8154   -0.6744   -0.0817 H   0  0  0  0  0  0  0  0  0  0  0  0
    6.2659    1.5966   -1.1544 H   0  0  0  0  0  0  0  0  0  0  0  0
    4.3004    2.0912   -0.1440 H   0  0  0  0  0  0  0  0  0  0  0  0
    6.7279   -1.0588   -3.4012 H   0  0  0  0  0  0  0  0  0  0  0  0
    1.6274   -1.6361    0.3569 H   0  0  0  0  0  0  0  0  0  0  0  0
    1.8520   -4.0625    1.7709 H   0  0  0  0  0  0  0  0  0  0  0  0
    3.5474   -5.4882    2.8701 H   0  0  0  0  0  0  0  0  0  0  0  0
    5.9257   -4.8446    2.8877 H   0  0  0  0  0  0  0  0  0  0  0  0
    6.6792   -2.7553    1.8092 H   0  0  0  0  0  0  0  0  0  0  0  0
   -1.9796    4.4646    3.2029 H   0  0  0  0  0  0  0  0  0  0  0  0
   -0.9624    3.1077    3.7182 H   0  0  0  0  0  0  0  0  0  0  0  0
   -0.2145    4.6169    3.1526 H   0  0  0  0  0  0  0  0  0  0  0  0
 28 27  2  0
 36 35  1  0
 36 30  2  0
 27 29  1  0
 27 25  1  0
 35 34  2  0
 24 25  1  0
 24 23  1  0
 25 26  1  0
 30 23  1  0
 30 31  1  0
 23 22  2  0
 34 33  1  0
 26 21  1  0
 31 33  2  0
 31 32  1  0
 22 32  1  0
 22 21  1  0
 21 19  1  0
 18 19  2  0
 18 17  1  0
 19 20  1  0
 17 16  2  0
 20 15  2  0
 16 15  1  0
 16 37  1  0
 15 14  1  0
 37 38  1  0
 14 11  1  0
 11 10  1  0
 11 12  1  0
 10  9  1  0
 12 13  1  0
  9  8  1  0
 13  8  1  0
  8  2  1  0
  2  1  2  0
  2  3  1  0
  1  6  1  0
  7  3  1  0
  3  4  2  0
  6  5  2  0
  4  5  1  0
  1 39  1  0
  4 40  1  0
  5 41  1  0
  6 42  1  0
  9 43  1  0
  9 44  1  0
 10 45  1  0
 10 46  1  0
 12 47  1  0
 12 48  1  0
 13 49  1  0
 13 50  1  0
 14 51  1  0
 14 52  1  0
 17 53  1  0
 18 54  1  0
 20 55  1  0
 21 56  1  6
 24 57  1  0
 24 58  1  0
 25 59  1  6
 26 60  1  0
 29 61  1  0
 32 62  1  0
 33 63  1  0
 34 64  1  0
 35 65  1  0
 36 66  1  0
 38 67  1  0
 38 68  1  0
 38 69  1  0
M  END
