
     RDKit          3D

 35 36  0  0  0  0  0  0  0  0999 V2000
   -6.6369   -1.1625    0.7066 O   0  0  0  0  0  0  0  0  0  0  0  0
   -6.0267   -0.5615   -0.1804 C   0  0  0  0  0  0  0  0  0  0  0  0
   -4.8972    0.4487   -0.0486 C   0  0  1  0  0  0  0  0  0  0  0  0
   -5.2397    1.4461    0.9422 N   0  0  0  0  0  0  0  0  0  0  0  0
   -3.6110   -0.3597    0.1977 C   0  0  0  0  0  0  0  0  0  0  0  0
   -2.3748    0.4951    0.0323 C   0  0  0  0  0  0  0  0  0  0  0  0
   -1.1235   -0.3576    0.0806 C   0  0  0  0  0  0  0  0  0  0  0  0
    0.1118    0.5333   -0.0538 C   0  0  0  0  0  0  0  0  0  0  0  0
    1.3441   -0.2287   -0.0696 N   0  0  0  0  0  0  0  0  0  0  0  0
    2.6226    0.3539   -0.1233 C   0  0  0  0  0  0  0  0  0  0  0  0
    3.7736   -0.4828    0.0189 C   0  0  0  0  0  0  0  0  0  0  0  0
    3.9748   -1.8487    0.2146 N   0  0  0  0  0  0  0  0  0  0  0  0
    5.3660   -2.0334    0.2708 C   0  0  0  0  0  0  0  0  0  0  0  0
    2.8177    1.6896   -0.3061 N   0  0  0  0  0  0  0  0  0  0  0  0
    4.1066    2.1442   -0.3417 C   0  0  0  0  0  0  0  0  0  0  0  0
    5.2671    1.4686   -0.2218 N   0  0  0  0  0  0  0  0  0  0  0  0
    5.1058    0.1246   -0.0371 C   0  0  0  0  0  0  0  0  0  0  0  0
    6.0745   -0.9001    0.1275 N   0  0  0  0  0  0  0  0  0  0  0  0
   -6.3849   -0.8100   -1.4686 O   0  0  0  0  0  0  0  0  0  0  0  0
   -7.1074   -1.4599   -1.4874 H   0  0  0  0  0  0  0  0  0  0  0  0
   -4.7931    0.9889   -1.0390 H   0  0  0  0  0  0  0  0  0  0  0  0
   -4.9797    1.1472    1.8626 H   0  0  0  0  0  0  0  0  0  0  0  0
   -4.7895    2.3137    0.7268 H   0  0  0  0  0  0  0  0  0  0  0  0
   -3.6343   -0.8077    1.2250 H   0  0  0  0  0  0  0  0  0  0  0  0
   -3.5841   -1.2054   -0.5392 H   0  0  0  0  0  0  0  0  0  0  0  0
   -2.4191    1.0421   -0.9463 H   0  0  0  0  0  0  0  0  0  0  0  0
   -2.3275    1.2681    0.8442 H   0  0  0  0  0  0  0  0  0  0  0  0
   -1.0919   -0.9235    1.0489 H   0  0  0  0  0  0  0  0  0  0  0  0
   -1.1488   -1.1118   -0.7498 H   0  0  0  0  0  0  0  0  0  0  0  0
    0.0529    1.1050   -1.0244 H   0  0  0  0  0  0  0  0  0  0  0  0
    0.1046    1.2893    0.7847 H   0  0  0  0  0  0  0  0  0  0  0  0
    1.2903   -1.2269   -0.0409 H   0  0  0  0  0  0  0  0  0  0  0  0
    3.2751   -2.5372    0.2958 H   0  0  0  0  0  0  0  0  0  0  0  0
    5.8094   -3.0279    0.4198 H   0  0  0  0  0  0  0  0  0  0  0  0
    4.2018    3.2417   -0.4934 H   0  0  0  0  0  0  0  0  0  0  0  0
  1  2  2  0
  2  3  1  0
  2 19  1  0
  3  4  1  0
  3  5  1  0
  3 21  1  6
  4 22  1  0
  4 23  1  0
  5  6  1  0
  5 24  1  0
  5 25  1  0
  6  7  1  0
  6 26  1  0
  6 27  1  0
  7  8  1  0
  7 28  1  0
  7 29  1  0
  8  9  1  0
  8 30  1  0
  8 31  1  0
  9 10  1  0
  9 32  1  0
 10 14  2  0
 10 11  1  0
 11 17  2  0
 11 12  1  0
 12 13  1  0
 12 33  1  0
 13 18  2  0
 13 34  1  0
 14 15  1  0
 15 16  2  0
 15 35  1  0
 16 17  1  0
 17 18  1  0
 19 20  1  0
M  END
