
     RDKit          3D

 30 32  0  0  0  0  0  0  0  0999 V2000
   -0.9278   -1.7539    0.5948 N   0  0  0  0  0  0  0  0  0  0  0  0
   -2.2572   -1.9339    0.6265 C   0  0  0  0  0  0  0  0  0  0  0  0
   -3.1760   -1.0736    0.2042 N   0  0  0  0  0  0  0  0  0  0  0  0
   -2.6544    0.0784   -0.1927 C   0  0  0  0  0  0  0  0  0  0  0  0
   -1.2983    0.4224   -0.2387 C   0  0  0  0  0  0  0  0  0  0  0  0
   -0.4174   -0.6186    0.1455 C   0  0  0  0  0  0  0  0  0  0  0  0
    0.6915    3.4699   -0.7548 N   0  0  0  0  0  0  0  0  0  0  0  0
   -2.6863   -3.1025    1.1522 N   0  0  0  0  0  0  0  0  0  0  0  0
   -0.1782    2.7124   -0.6934 C   0  0  0  0  0  0  0  0  0  0  0  0
   -2.5603    2.2097   -0.8190 C   0  0  0  0  0  0  0  0  0  0  0  0
    3.0487   -0.9368    1.2905 C   0  0  0  0  0  0  0  0  0  0  0  0
    2.8489    0.8096   -0.7677 C   0  0  0  0  0  0  0  0  0  0  0  0
    1.7425   -1.5164    0.7778 C   0  0  0  0  0  0  0  0  0  0  0  0
    1.5770    0.0508   -1.0866 C   0  0  0  0  0  0  0  0  0  0  0  0
   -3.3824    1.1635   -0.5746 N   0  0  0  0  0  0  0  0  0  0  0  0
    4.0963   -0.2812   -0.0342 S   0  0  0  0  0  0  0  0  0  0  0  0
   -1.2605    1.8134   -0.6221 C   0  0  0  0  0  0  0  0  0  0  0  0
    0.9440   -0.5022    0.1054 N   0  0  0  0  0  0  0  0  0  0  0  0
   -2.0207   -3.8471    1.2636 H   0  0  0  0  0  0  0  0  0  0  0  0
   -3.6426   -3.3726    0.9997 H   0  0  0  0  0  0  0  0  0  0  0  0
   -2.9422    3.1760   -1.1025 H   0  0  0  0  0  0  0  0  0  0  0  0
    2.8543   -0.1524    2.0247 H   0  0  0  0  0  0  0  0  0  0  0  0
    3.6219   -1.7217    1.7838 H   0  0  0  0  0  0  0  0  0  0  0  0
    3.2761    1.2113   -1.6862 H   0  0  0  0  0  0  0  0  0  0  0  0
    2.6451    1.6427   -0.0946 H   0  0  0  0  0  0  0  0  0  0  0  0
    1.9450   -2.3632    0.1113 H   0  0  0  0  0  0  0  0  0  0  0  0
    1.1800   -1.8979    1.6265 H   0  0  0  0  0  0  0  0  0  0  0  0
    0.8829    0.7030   -1.6099 H   0  0  0  0  0  0  0  0  0  0  0  0
    1.8093   -0.7659   -1.7816 H   0  0  0  0  0  0  0  0  0  0  0  0
   -4.3893    1.1937   -0.6215 H   0  0  0  0  0  0  0  0  0  0  0  0
  1  2  2  0
  1  6  1  0
  2  3  1  0
  2  8  1  0
  3  4  2  0
  4  5  1  0
  4 15  1  0
  5  6  2  0
  5 17  1  0
  6 18  1  0
  7  9  3  0
  9 17  1  0
 10 15  1  0
 10 17  2  0
 11 13  1  0
 11 16  1  0
 12 14  1  0
 12 16  1  0
 13 18  1  0
 14 18  1  0
  8 19  1  0
  8 20  1  0
 10 21  1  0
 11 22  1  0
 11 23  1  0
 12 24  1  0
 12 25  1  0
 13 26  1  0
 13 27  1  0
 14 28  1  0
 14 29  1  0
 15 30  1  0
M  END
