
     RDKit          3D

 48 50  0  0  0  0  0  0  0  0999 V2000
   -3.7781    0.7884    0.2022 C   0  0  0  0  0  0  0  0  0  0  0  0
   -5.1349    0.6847    0.4570 C   0  0  0  0  0  0  0  0  0  0  0  0
   -5.9600   -0.0397   -0.4213 C   0  0  0  0  0  0  0  0  0  0  0  0
   -5.3983   -0.6371   -1.5338 C   0  0  0  0  0  0  0  0  0  0  0  0
   -4.0322   -0.5282   -1.7812 C   0  0  0  0  0  0  0  0  0  0  0  0
   -3.2091    0.1798   -0.9209 C   0  0  0  0  0  0  0  0  0  0  0  0
   -1.7244    0.2690   -1.1502 C   0  0  0  0  0  0  0  0  0  0  0  0
   -0.9393   -0.6106   -0.1845 C   0  0  1  0  0  0  0  0  0  0  0  0
   -1.2851   -2.0908   -0.2918 C   0  0  0  0  0  0  0  0  0  0  0  0
   -0.1166   -2.7817    0.1723 O   0  0  0  0  0  0  0  0  0  0  0  0
    0.9586   -1.9909    0.1183 C   0  0  0  0  0  0  0  0  0  0  0  0
    0.5708   -0.6296   -0.4145 C   0  0  2  0  0  0  0  0  0  0  0  0
    2.0378   -2.3841    0.4653 O   0  0  0  0  0  0  0  0  0  0  0  0
    1.3286    0.5325    0.2238 C   0  0  0  0  0  0  0  0  0  0  0  0
    2.7829    0.6171   -0.1563 C   0  0  0  0  0  0  0  0  0  0  0  0
    3.1590    0.9636   -1.4460 C   0  0  0  0  0  0  0  0  0  0  0  0
    4.5012    1.0546   -1.7979 C   0  0  0  0  0  0  0  0  0  0  0  0
    5.4901    0.8071   -0.8620 C   0  0  0  0  0  0  0  0  0  0  0  0
    5.1210    0.4599    0.4469 C   0  0  0  0  0  0  0  0  0  0  0  0
    3.7804    0.3651    0.7853 C   0  0  0  0  0  0  0  0  0  0  0  0
    6.1575    0.2373    1.2873 O   0  0  0  0  0  0  0  0  0  0  0  0
    5.8764   -0.1305    2.6222 C   0  0  0  0  0  0  0  0  0  0  0  0
    6.7875    0.9062   -1.2251 O   0  0  0  0  0  0  0  0  0  0  0  0
   -7.2866   -0.1594   -0.2020 O   0  0  0  0  0  0  0  0  0  0  0  0
   -5.7770    1.2353    1.5105 O   0  0  0  0  0  0  0  0  0  0  0  0
   -5.0163    1.9340    2.4752 C   0  0  0  0  0  0  0  0  0  0  0  0
   -3.1398    1.3507    0.8734 H   0  0  0  0  0  0  0  0  0  0  0  0
   -6.0339   -1.1923   -2.2128 H   0  0  0  0  0  0  0  0  0  0  0  0
   -3.6170   -1.0013   -2.6625 H   0  0  0  0  0  0  0  0  0  0  0  0
   -1.4891   -0.0307   -2.1749 H   0  0  0  0  0  0  0  0  0  0  0  0
   -1.3913    1.3047   -1.0403 H   0  0  0  0  0  0  0  0  0  0  0  0
   -1.1279   -0.2763    0.8430 H   0  0  0  0  0  0  0  0  0  0  0  0
   -2.1287   -2.3943    0.3250 H   0  0  0  0  0  0  0  0  0  0  0  0
   -1.4828   -2.3855   -1.3266 H   0  0  0  0  0  0  0  0  0  0  0  0
    0.7698   -0.6470   -1.4955 H   0  0  0  0  0  0  0  0  0  0  0  0
    0.8291    1.4560   -0.0821 H   0  0  0  0  0  0  0  0  0  0  0  0
    1.2226    0.4759    1.3098 H   0  0  0  0  0  0  0  0  0  0  0  0
    2.4034    1.1719   -2.1947 H   0  0  0  0  0  0  0  0  0  0  0  0
    4.7863    1.3263   -2.8066 H   0  0  0  0  0  0  0  0  0  0  0  0
    3.4897    0.0860    1.7895 H   0  0  0  0  0  0  0  0  0  0  0  0
    5.3007    0.6394    3.1421 H   0  0  0  0  0  0  0  0  0  0  0  0
    5.3296   -1.0756    2.6743 H   0  0  0  0  0  0  0  0  0  0  0  0
    6.8350   -0.2508    3.1204 H   0  0  0  0  0  0  0  0  0  0  0  0
    7.3571    0.7027   -0.4737 H   0  0  0  0  0  0  0  0  0  0  0  0
   -7.5303    0.2888    0.6166 H   0  0  0  0  0  0  0  0  0  0  0  0
   -4.5230    2.8095    2.0456 H   0  0  0  0  0  0  0  0  0  0  0  0
   -5.7132    2.2632    3.2417 H   0  0  0  0  0  0  0  0  0  0  0  0
   -4.2603    1.2918    2.9342 H   0  0  0  0  0  0  0  0  0  0  0  0
  1  2  2  0
  1  6  1  0
  1 27  1  0
  2  3  1  0
  2 25  1  0
  3  4  2  0
  3 24  1  0
  4  5  1  0
  4 28  1  0
  5  6  2  0
  5 29  1  0
  6  7  1  0
  7  8  1  0
  7 30  1  0
  7 31  1  0
  8  9  1  0
  8 12  1  0
  8 32  1  1
  9 10  1  0
  9 33  1  0
  9 34  1  0
 10 11  1  0
 11 12  1  0
 11 13  2  0
 12 14  1  0
 12 35  1  6
 14 15  1  0
 14 36  1  0
 14 37  1  0
 15 16  2  0
 15 20  1  0
 16 17  1  0
 16 38  1  0
 17 18  2  0
 17 39  1  0
 18 19  1  0
 18 23  1  0
 19 20  2  0
 19 21  1  0
 20 40  1  0
 21 22  1  0
 22 41  1  0
 22 42  1  0
 22 43  1  0
 23 44  1  0
 24 45  1  0
 25 26  1  0
 26 46  1  0
 26 47  1  0
 26 48  1  0
M  END
