
     RDKit          3D

 60 63  0  0  0  0  0  0  0  0999 V2000
   -7.8184   -0.4446    0.9069 C   0  0  0  0  0  0  0  0  0  0  0  0
   -3.6742   -2.9060   -2.1849 C   0  0  0  0  0  0  0  0  0  0  0  0
   -6.8643   -0.7548   -0.0533 C   0  0  0  0  0  0  0  0  0  0  0  0
   -7.7863    0.7984    1.5255 C   0  0  0  0  0  0  0  0  0  0  0  0
   -3.1920   -1.8763   -2.9809 C   0  0  0  0  0  0  0  0  0  0  0  0
   -3.4582   -2.8737   -0.8127 C   0  0  0  0  0  0  0  0  0  0  0  0
   -5.8883    0.1710   -0.3968 C   0  0  0  0  0  0  0  0  0  0  0  0
   -6.8042    1.7195    1.1860 C   0  0  0  0  0  0  0  0  0  0  0  0
   -2.5022   -0.8171   -2.4047 C   0  0  0  0  0  0  0  0  0  0  0  0
   -2.7719   -1.8136   -0.2391 C   0  0  0  0  0  0  0  0  0  0  0  0
    3.4034    1.1323    0.9228 C   0  0  0  0  0  0  0  0  0  0  0  0
    4.3029    2.1741    0.6620 C   0  0  0  0  0  0  0  0  0  0  0  0
    4.9901   -0.5405    0.1979 C   0  0  0  0  0  0  0  0  0  0  0  0
   -5.8483    1.4182    0.2209 C   0  0  0  0  0  0  0  0  0  0  0  0
   -2.2928   -0.7757   -1.0319 C   0  0  0  0  0  0  0  0  0  0  0  0
    3.7108   -0.2008    0.7144 C   0  0  0  0  0  0  0  0  0  0  0  0
    5.5258    1.8260    0.1623 C   0  0  0  0  0  0  0  0  0  0  0  0
    5.8550    0.5010   -0.0816 C   0  0  0  0  0  0  0  0  0  0  0  0
   -2.7605    1.2344    0.2754 C   0  0  0  0  0  0  0  0  0  0  0  0
    0.5274   -0.4316    0.2789 C   0  0  0  0  0  0  0  0  0  0  0  0
    7.6443    1.7554   -0.4878 C   0  0  0  0  0  0  0  0  0  0  0  0
    0.9974   -0.4832    2.6968 C   0  0  0  0  0  0  0  0  0  0  0  0
   -4.8181    2.4568   -0.1600 C   0  0  0  0  0  0  0  0  0  0  0  0
    2.6664   -1.2651    1.0125 C   0  0  0  0  0  0  0  0  0  0  0  0
   -1.6379    0.4330   -0.3896 C   0  0  1  0  0  0  0  0  0  0  0  0
   -3.5562    1.8931   -0.5753 N   0  0  0  0  0  0  0  0  0  0  0  0
   -0.6735    0.1040    0.6166 N   0  0  0  0  0  0  0  0  0  0  0  0
    1.3580   -0.7380    1.3167 N   0  0  0  0  0  0  0  0  0  0  0  0
    6.2154   -2.1773   -1.0041 O   0  0  0  0  0  0  0  0  0  0  0  0
    4.9978   -2.8242    0.7445 O   0  0  0  0  0  0  0  0  0  0  0  0
   -2.9339    1.2141    1.4830 O   0  0  0  0  0  0  0  0  0  0  0  0
    0.8403   -0.6184   -0.8927 O   0  0  0  0  0  0  0  0  0  0  0  0
    6.5614    2.6227   -0.1917 O   0  0  0  0  0  0  0  0  0  0  0  0
    7.1038    0.4414   -0.5832 O   0  0  0  0  0  0  0  0  0  0  0  0
   -8.5765   -1.1687    1.1761 H   0  0  0  0  0  0  0  0  0  0  0  0
   -6.8751   -1.7231   -0.5373 H   0  0  0  0  0  0  0  0  0  0  0  0
   -8.5209    1.0478    2.2806 H   0  0  0  0  0  0  0  0  0  0  0  0
   -4.2105   -3.7330   -2.6317 H   0  0  0  0  0  0  0  0  0  0  0  0
   -3.3472   -1.8985   -4.0519 H   0  0  0  0  0  0  0  0  0  0  0  0
   -3.8322   -3.6737   -0.1870 H   0  0  0  0  0  0  0  0  0  0  0  0
   -5.1472   -0.0946   -1.1414 H   0  0  0  0  0  0  0  0  0  0  0  0
   -6.7780    2.6826    1.6832 H   0  0  0  0  0  0  0  0  0  0  0  0
   -2.1237   -0.0180   -3.0324 H   0  0  0  0  0  0  0  0  0  0  0  0
   -2.6155   -1.7937    0.8327 H   0  0  0  0  0  0  0  0  0  0  0  0
    2.4264    1.4027    1.2961 H   0  0  0  0  0  0  0  0  0  0  0  0
    4.0289    3.2043    0.8429 H   0  0  0  0  0  0  0  0  0  0  0  0
   -5.1876    3.0530   -0.9948 H   0  0  0  0  0  0  0  0  0  0  0  0
   -4.6652    3.1482    0.6706 H   0  0  0  0  0  0  0  0  0  0  0  0
   -1.1767    1.0453   -1.1711 H   0  0  0  0  0  0  0  0  0  0  0  0
    2.5836   -1.9529    0.1721 H   0  0  0  0  0  0  0  0  0  0  0  0
    2.9830   -1.8618    1.8671 H   0  0  0  0  0  0  0  0  0  0  0  0
    5.3127   -3.7044    0.4870 H   0  0  0  0  0  0  0  0  0  0  0  0
   -3.3550    1.8575   -1.5615 H   0  0  0  0  0  0  0  0  0  0  0  0
   -0.9567    0.2445    1.5732 H   0  0  0  0  0  0  0  0  0  0  0  0
    8.0964    2.0343   -1.4390 H   0  0  0  0  0  0  0  0  0  0  0  0
    8.3854    1.7903    0.3169 H   0  0  0  0  0  0  0  0  0  0  0  0
    0.1399   -1.0817    3.0142 H   0  0  0  0  0  0  0  0  0  0  0  0
    1.8330   -0.7517    3.3371 H   0  0  0  0  0  0  0  0  0  0  0  0
    0.7758    0.5703    2.8844 H   0  0  0  0  0  0  0  0  0  0  0  0
    5.4612   -1.9147   -0.0999 C   0  0  0  0  0  0  0  0  0  0  0  0
  1  3  2  0
  1  4  1  0
  2  5  2  0
  2  6  1  0
  3  7  1  0
  4  8  2  0
  5  9  1  0
  6 10  2  0
  7 14  2  0
  8 14  1  0
  9 15  2  0
 10 15  1  0
 11 12  2  0
 11 16  1  0
 12 17  1  0
 13 16  2  0
 13 18  1  0
 13 60  1  0
 14 23  1  0
 15 25  1  0
 16 24  1  0
 17 18  2  0
 17 33  1  0
 18 34  1  0
 60 29  2  0
 60 30  1  0
 19 25  1  0
 19 26  1  0
 19 31  2  0
 20 27  1  0
 20 28  1  0
 20 32  2  0
 21 33  1  0
 21 34  1  0
 22 28  1  0
 23 26  1  0
 24 28  1  0
 25 27  1  0
  1 35  1  0
  3 36  1  0
  4 37  1  0
  2 38  1  0
  5 39  1  0
  6 40  1  0
  7 41  1  0
  8 42  1  0
  9 43  1  0
 10 44  1  0
 11 45  1  0
 12 46  1  0
 23 47  1  0
 23 48  1  0
 25 49  1  6
 24 50  1  0
 24 51  1  0
 30 52  1  0
 26 53  1  0
 27 54  1  0
 21 55  1  0
 21 56  1  0
 22 57  1  0
 22 58  1  0
 22 59  1  0
M  END
