
     RDKit          3D

 34 34  0  0  0  0  0  0  0  0999 V2000
    3.8898   -1.8630   -0.2875 C   0  0  0  0  0  0  0  0  0  0  0  0
    3.5254   -0.4164   -0.5339 C   0  0  0  0  0  0  0  0  0  0  0  0
    4.0890    0.2254   -1.4136 O   0  0  0  0  0  0  0  0  0  0  0  0
    2.5727    0.1271    0.2551 N   0  0  0  0  0  0  0  0  0  0  0  0
    2.0843    1.4744    0.0217 C   0  0  0  0  0  0  0  0  0  0  0  0
    0.6410    1.4435   -0.4640 C   0  0  0  0  0  0  0  0  0  0  0  0
   -0.2582    0.6829    0.5060 C   0  0  2  0  0  0  0  0  0  0  0  0
    0.3253   -0.7045    0.7645 C   0  0  0  0  0  0  0  0  0  0  0  0
    1.7759   -0.6058    1.2216 C   0  0  0  0  0  0  0  0  0  0  0  0
   -1.6031    0.6043   -0.0370 N   0  0  0  0  0  0  0  0  0  0  0  0
   -2.6073    0.1901    0.9244 C   0  0  0  0  0  0  0  0  0  0  0  0
   -4.0015    0.2314    0.3396 C   0  0  0  0  0  0  0  0  0  0  0  0
   -4.1189   -0.6965   -0.7086 O   0  0  0  0  0  0  0  0  0  0  0  0
   -5.4020   -0.7001   -1.2765 C   0  0  0  0  0  0  0  0  0  0  0  0
    3.0489   -2.5287   -0.4885 H   0  0  0  0  0  0  0  0  0  0  0  0
    4.7058   -2.1388   -0.9503 H   0  0  0  0  0  0  0  0  0  0  0  0
    4.2078   -2.0391    0.7403 H   0  0  0  0  0  0  0  0  0  0  0  0
    2.1486    2.0372    0.9589 H   0  0  0  0  0  0  0  0  0  0  0  0
    2.7255    1.9729   -0.6992 H   0  0  0  0  0  0  0  0  0  0  0  0
    0.2810    2.4697   -0.5820 H   0  0  0  0  0  0  0  0  0  0  0  0
    0.5963    0.9702   -1.4494 H   0  0  0  0  0  0  0  0  0  0  0  0
   -0.2453    1.2301    1.4676 H   0  0  0  0  0  0  0  0  0  0  0  0
   -0.2431   -1.2348    1.5318 H   0  0  0  0  0  0  0  0  0  0  0  0
    0.2666   -1.2997   -0.1521 H   0  0  0  0  0  0  0  0  0  0  0  0
    2.1889   -1.5956    1.3920 H   0  0  0  0  0  0  0  0  0  0  0  0
    1.8240   -0.0789    2.1804 H   0  0  0  0  0  0  0  0  0  0  0  0
   -1.8591    1.5240   -0.3804 H   0  0  0  0  0  0  0  0  0  0  0  0
   -2.3935   -0.8268    1.2628 H   0  0  0  0  0  0  0  0  0  0  0  0
   -2.6155    0.8203    1.8284 H   0  0  0  0  0  0  0  0  0  0  0  0
   -4.7242    0.0134    1.1389 H   0  0  0  0  0  0  0  0  0  0  0  0
   -4.2268    1.2498   -0.0147 H   0  0  0  0  0  0  0  0  0  0  0  0
   -6.1778   -0.9605   -0.5454 H   0  0  0  0  0  0  0  0  0  0  0  0
   -5.6651    0.2737   -1.7081 H   0  0  0  0  0  0  0  0  0  0  0  0
   -5.4188   -1.4428   -2.0735 H   0  0  0  0  0  0  0  0  0  0  0  0
  3  2  2  0
  5  6  1  0
  5  4  1  0
  2  4  1  0
  2  1  1  0
  6  7  1  0
  4  9  1  0
  7  8  1  0
  7 10  1  0
  9  8  1  0
 11 10  1  0
 11 12  1  0
 13 14  1  0
 13 12  1  0
  1 15  1  0
  1 16  1  0
  1 17  1  0
  5 18  1  0
  5 19  1  0
  6 20  1  0
  6 21  1  0
  7 22  1  1
  8 23  1  0
  8 24  1  0
  9 25  1  0
  9 26  1  0
 10 27  1  0
 11 28  1  0
 11 29  1  0
 12 30  1  0
 12 31  1  0
 14 32  1  0
 14 33  1  0
 14 34  1  0
M  END
