
     RDKit          3D

 36 38  0  0  0  0  0  0  0  0999 V2000
   -1.4083    1.9620    0.7355 C   0  0  0  0  0  0  0  0  0  0  0  0
    0.1498   -2.5696   -0.5358 O   0  0  0  0  0  0  0  0  0  0  0  0
    4.8891    1.2579   -1.9490 Br  0  0  0  0  0  0  0  0  0  0  0  0
   -7.7499   -0.5608   -0.4497 C   0  0  0  0  0  0  0  0  0  0  0  0
   -7.9035    0.7637   -0.0072 C   0  0  0  0  0  0  0  0  0  0  0  0
    4.9168   -1.0001   -0.2193 C   0  0  0  0  0  0  0  0  0  0  0  0
    4.3402   -2.0233    0.5128 C   0  0  0  0  0  0  0  0  0  0  0  0
   -6.5018   -1.1413   -0.5855 C   0  0  0  0  0  0  0  0  0  0  0  0
   -6.8115    1.5478    0.3131 C   0  0  0  0  0  0  0  0  0  0  0  0
    2.7337   -0.2855   -0.9279 C   0  0  0  0  0  0  0  0  0  0  0  0
   -1.3632   -0.3838   -0.0507 N   0  0  0  0  0  0  0  0  0  0  0  0
   -4.0613   -0.5745   -0.2704 N   0  0  0  0  0  0  0  0  0  0  0  0
   -0.0278   -0.3779    0.0306 N   0  0  0  0  0  0  0  0  0  0  0  0
   -4.3055    1.5208    0.4285 N   0  0  0  0  0  0  0  0  0  0  0  0
   -2.0042    0.6745    0.2668 C   0  0  0  0  0  0  0  0  0  0  0  0
    0.6730   -1.5159   -0.2525 C   0  0  0  0  0  0  0  0  0  0  0  0
    4.1097   -0.1333   -0.9407 C   0  0  0  0  0  0  0  0  0  0  0  0
    2.9592   -2.2004    0.5261 C   0  0  0  0  0  0  0  0  0  0  0  0
    2.1511   -1.3199   -0.2017 C   0  0  0  0  0  0  0  0  0  0  0  0
   -3.4558    0.5672    0.1484 C   0  0  0  0  0  0  0  0  0  0  0  0
   -5.4070   -0.3467   -0.2614 C   0  0  0  0  0  0  0  0  0  0  0  0
   -5.5421    0.9817    0.1831 C   0  0  0  0  0  0  0  0  0  0  0  0
   -0.7248    2.3761   -0.0093 H   0  0  0  0  0  0  0  0  0  0  0  0
   -2.1819    2.6999    0.9251 H   0  0  0  0  0  0  0  0  0  0  0  0
   -0.8445    1.8210    1.6602 H   0  0  0  0  0  0  0  0  0  0  0  0
    3.0203   -3.6817    1.7234 H   0  0  0  0  0  0  0  0  0  0  0  0
   -8.6317   -1.1409   -0.6883 H   0  0  0  0  0  0  0  0  0  0  0  0
   -8.9004    1.1740    0.0855 H   0  0  0  0  0  0  0  0  0  0  0  0
    5.9929   -0.8910   -0.2166 H   0  0  0  0  0  0  0  0  0  0  0  0
    4.9777   -2.6906    1.0803 H   0  0  0  0  0  0  0  0  0  0  0  0
   -6.3866   -2.1622   -0.9248 H   0  0  0  0  0  0  0  0  0  0  0  0
   -6.9325    2.5679    0.6543 H   0  0  0  0  0  0  0  0  0  0  0  0
    2.1032    0.3813   -1.5023 H   0  0  0  0  0  0  0  0  0  0  0  0
   -3.5835   -1.4215   -0.5370 H   0  0  0  0  0  0  0  0  0  0  0  0
    0.4683    0.4307    0.3867 H   0  0  0  0  0  0  0  0  0  0  0  0
    2.3662   -3.1685    1.2341 O   0  0  0  0  0  0  0  0  0  0  0  0
  1 15  1  0
  2 16  2  0
 36 18  1  0
  3 17  1  0
  4  5  2  0
  4  8  1  0
  5  9  1  0
  6  7  2  0
  6 17  1  0
  7 18  1  0
  8 21  2  0
  9 22  2  0
 10 17  2  0
 10 19  1  0
 11 13  1  0
 11 15  2  0
 12 20  1  0
 12 21  1  0
 13 16  1  0
 14 20  2  0
 14 22  1  0
 15 20  1  0
 16 19  1  0
 18 19  2  0
 21 22  1  0
  1 23  1  0
  1 24  1  0
  1 25  1  0
 36 26  1  0
  4 27  1  0
  5 28  1  0
  6 29  1  0
  7 30  1  0
  8 31  1  0
  9 32  1  0
 10 33  1  0
 12 34  1  0
 13 35  1  0
M  END
