
     RDKit          3D

 39 39  0  0  0  0  0  0  0  0999 V2000
    6.0674   -1.4384   -0.0124 O   0  0  0  0  0  0  0  0  0  0  0  0
    5.8048   -0.2452   -0.0165 C   0  0  0  0  0  0  0  0  0  0  0  0
    6.8911    0.8127   -0.0480 C   0  0  0  0  0  0  0  0  0  0  0  0
    8.4993   -0.0243   -0.0191 S   0  0  0  0  0  0  0  0  0  0  0  0
    4.5584    0.2385    0.0050 N   0  0  0  0  0  0  0  0  0  0  0  0
    3.3801   -0.6065    0.0365 C   0  0  0  0  0  0  0  0  0  0  0  0
    2.1201    0.2430    0.0218 C   0  0  0  0  0  0  0  0  0  0  0  0
    0.8555   -0.6041    0.0682 C   0  0  0  0  0  0  0  0  0  0  0  0
   -0.4066    0.2491    0.0351 C   0  0  0  0  0  0  0  0  0  0  0  0
   -1.6667   -0.5968    0.1108 C   0  0  0  0  0  0  0  0  0  0  0  0
   -2.9453    0.2139    0.0619 C   0  0  0  0  0  0  0  0  0  0  0  0
   -2.9578    1.4311    0.0783 O   0  0  0  0  0  0  0  0  0  0  0  0
   -4.0681   -0.5523    0.0058 N   0  0  0  0  0  0  0  0  0  0  0  0
   -5.4113   -0.1653   -0.0077 C   0  0  0  0  0  0  0  0  0  0  0  0
   -5.8512    1.1576   -0.0894 C   0  0  0  0  0  0  0  0  0  0  0  0
   -7.2138    1.4295   -0.1017 C   0  0  0  0  0  0  0  0  0  0  0  0
   -8.1540    0.4124   -0.0358 C   0  0  0  0  0  0  0  0  0  0  0  0
   -7.7143   -0.9030    0.0429 C   0  0  0  0  0  0  0  0  0  0  0  0
   -6.3606   -1.1903    0.0569 C   0  0  0  0  0  0  0  0  0  0  0  0
    6.7921    1.4207   -0.9491 H   0  0  0  0  0  0  0  0  0  0  0  0
    6.7890    1.4785    0.8104 H   0  0  0  0  0  0  0  0  0  0  0  0
    4.4261    1.2377    0.0002 H   0  0  0  0  0  0  0  0  0  0  0  0
    3.3831   -1.2806   -0.8244 H   0  0  0  0  0  0  0  0  0  0  0  0
    3.3957   -1.2331    0.9330 H   0  0  0  0  0  0  0  0  0  0  0  0
    2.1308    0.9268    0.8767 H   0  0  0  0  0  0  0  0  0  0  0  0
    2.1110    0.8653   -0.8790 H   0  0  0  0  0  0  0  0  0  0  0  0
    0.8496   -1.3012   -0.7762 H   0  0  0  0  0  0  0  0  0  0  0  0
    0.8610   -1.2193    0.9743 H   0  0  0  0  0  0  0  0  0  0  0  0
   -0.3848    0.9575    0.8669 H   0  0  0  0  0  0  0  0  0  0  0  0
   -0.4139    0.8468   -0.8805 H   0  0  0  0  0  0  0  0  0  0  0  0
   -1.6808   -1.3296   -0.7024 H   0  0  0  0  0  0  0  0  0  0  0  0
   -1.6701   -1.1843    1.0359 H   0  0  0  0  0  0  0  0  0  0  0  0
   -3.9190   -1.5506    0.0101 H   0  0  0  0  0  0  0  0  0  0  0  0
   -5.1482    1.9714   -0.1443 H   0  0  0  0  0  0  0  0  0  0  0  0
   -6.0326   -2.2215    0.1203 H   0  0  0  0  0  0  0  0  0  0  0  0
   -7.5368    2.4608   -0.1666 H   0  0  0  0  0  0  0  0  0  0  0  0
   -9.2121    0.6378   -0.0462 H   0  0  0  0  0  0  0  0  0  0  0  0
   -8.4281   -1.7147    0.0938 H   0  0  0  0  0  0  0  0  0  0  0  0
    9.2316    1.0952   -0.0485 H   0  0  0  0  0  0  0  0  0  0  0  0
  1  2  2  0
  2  3  1  0
  2  5  1  0
  3  4  1  0
  5  6  1  0
  6  7  1  0
  7  8  1  0
  8  9  1  0
  9 10  1  0
 10 11  1  0
 11 12  2  0
 11 13  1  0
 13 14  1  0
 14 15  2  0
 14 19  1  0
 15 16  1  0
 16 17  2  0
 17 18  1  0
 18 19  2  0
  3 20  1  0
  3 21  1  0
  5 22  1  0
  6 23  1  0
  6 24  1  0
  7 25  1  0
  7 26  1  0
  8 27  1  0
  8 28  1  0
  9 29  1  0
  9 30  1  0
 10 31  1  0
 10 32  1  0
 13 33  1  0
 15 34  1  0
 19 35  1  0
 16 36  1  0
 17 37  1  0
 18 38  1  0
  4 39  1  0
M  END
