
     RDKit          3D

 55 59  0  0  0  0  0  0  0  0999 V2000
   -2.8604    5.3374   -1.6185 C   0  0  0  0  0  0  0  0  0  0  0  0
   -2.6774    3.9781   -1.0476 C   0  0  0  0  0  0  0  0  0  0  0  0
   -3.5409    2.8583   -1.1762 C   0  0  0  0  0  0  0  0  0  0  0  0
   -1.6348    3.6778   -0.3283 N   0  0  0  0  0  0  0  0  0  0  0  0
   -1.7767    2.3702    0.0342 O   0  0  0  0  0  0  0  0  0  0  0  0
   -2.9129    1.8852   -0.4720 C   0  0  0  0  0  0  0  0  0  0  0  0
   -3.2461    0.4989   -0.1948 C   0  0  0  0  0  0  0  0  0  0  0  0
   -4.4491   -0.0478   -0.7496 C   0  0  0  0  0  0  0  0  0  0  0  0
   -4.7748   -1.3306   -0.4991 C   0  0  0  0  0  0  0  0  0  0  0  0
   -5.8745   -1.8926   -0.9844 F   0  0  0  0  0  0  0  0  0  0  0  0
   -2.4356   -0.2723    0.5757 C   0  0  0  0  0  0  0  0  0  0  0  0
   -2.7943   -1.5710    0.8031 N   0  0  0  0  0  0  0  0  0  0  0  0
   -3.9365   -2.1437    0.3019 C   0  0  0  0  0  0  0  0  0  0  0  0
   -4.0225   -3.3919    0.6839 N   0  0  0  0  0  0  0  0  0  0  0  0
   -2.9336   -3.6427    1.4358 N   0  0  0  0  0  0  0  0  0  0  0  0
   -2.1933   -2.5727    1.5176 C   0  0  0  0  0  0  0  0  0  0  0  0
   -0.8882   -2.4234    2.2250 C   0  0  1  0  0  0  0  0  0  0  0  0
   -0.5751   -3.6554    3.0724 C   0  0  0  0  0  0  0  0  0  0  0  0
    0.2184   -2.1370    1.2303 C   0  0  0  0  0  0  0  0  0  0  0  0
    1.0346   -1.0499    1.3835 C   0  0  0  0  0  0  0  0  0  0  0  0
    2.0790   -0.7894    0.4634 C   0  0  0  0  0  0  0  0  0  0  0  0
    2.9374    0.3169    0.5814 C   0  0  0  0  0  0  0  0  0  0  0  0
    0.4215   -3.0150    0.1356 C   0  0  0  0  0  0  0  0  0  0  0  0
    1.4199   -2.7903   -0.7671 C   0  0  0  0  0  0  0  0  0  0  0  0
    2.2741   -1.6713   -0.6269 C   0  0  0  0  0  0  0  0  0  0  0  0
    3.2495   -1.4708   -1.5362 N   0  0  0  0  0  0  0  0  0  0  0  0
    4.0364   -0.4362   -1.4092 C   0  0  0  0  0  0  0  0  0  0  0  0
    3.9258    0.5053   -0.3536 C   0  0  0  0  0  0  0  0  0  0  0  0
    4.7285    1.5716   -0.2184 O   0  0  0  0  0  0  0  0  0  0  0  0
    5.7980    1.7560   -1.1350 C   0  0  0  0  0  0  0  0  0  0  0  0
    6.5576    2.9942   -0.7409 C   0  0  0  0  0  0  0  0  0  0  0  0
    7.1649    2.8026    0.5082 O   0  0  0  0  0  0  0  0  0  0  0  0
    7.9287    3.9117    0.9092 C   0  0  0  0  0  0  0  0  0  0  0  0
   -3.7788    5.7882   -1.2427 H   0  0  0  0  0  0  0  0  0  0  0  0
   -2.0264    5.9870   -1.3616 H   0  0  0  0  0  0  0  0  0  0  0  0
   -2.9403    5.2878   -2.7041 H   0  0  0  0  0  0  0  0  0  0  0  0
   -4.4738    2.8106   -1.7121 H   0  0  0  0  0  0  0  0  0  0  0  0
   -5.0952    0.5612   -1.3671 H   0  0  0  0  0  0  0  0  0  0  0  0
   -1.5181    0.0684    1.0281 H   0  0  0  0  0  0  0  0  0  0  0  0
   -0.9679   -1.5643    2.9003 H   0  0  0  0  0  0  0  0  0  0  0  0
    0.3753   -3.5109    3.5834 H   0  0  0  0  0  0  0  0  0  0  0  0
   -1.3454   -3.8150    3.8259 H   0  0  0  0  0  0  0  0  0  0  0  0
   -0.5019   -4.5563    2.4650 H   0  0  0  0  0  0  0  0  0  0  0  0
    0.8916   -0.3695    2.2163 H   0  0  0  0  0  0  0  0  0  0  0  0
    2.8188    1.0143    1.4024 H   0  0  0  0  0  0  0  0  0  0  0  0
   -0.2272   -3.8744    0.0144 H   0  0  0  0  0  0  0  0  0  0  0  0
    1.5734   -3.4602   -1.6035 H   0  0  0  0  0  0  0  0  0  0  0  0
    4.8009   -0.3238   -2.1695 H   0  0  0  0  0  0  0  0  0  0  0  0
    6.4629    0.8857   -1.1342 H   0  0  0  0  0  0  0  0  0  0  0  0
    5.4204    1.8925   -2.1533 H   0  0  0  0  0  0  0  0  0  0  0  0
    7.3041    3.1834   -1.5251 H   0  0  0  0  0  0  0  0  0  0  0  0
    5.8830    3.8620   -0.7282 H   0  0  0  0  0  0  0  0  0  0  0  0
    8.7503    4.1191    0.2130 H   0  0  0  0  0  0  0  0  0  0  0  0
    7.3221    4.8213    0.9927 H   0  0  0  0  0  0  0  0  0  0  0  0
    8.3546    3.6913    1.8873 H   0  0  0  0  0  0  0  0  0  0  0  0
 18 17  1  0
 17 16  1  0
 17 19  1  0
 15 16  2  0
 15 14  1  0
 16 12  1  0
 19 23  1  0
 19 20  2  0
 23 24  2  0
 20 21  1  0
 14 13  2  0
 12 13  1  0
 12 11  1  0
 13  9  1  0
 24 25  1  0
 11  7  2  0
 21 25  2  0
 21 22  1  0
 25 26  1  0
 22 28  2  0
  5  6  1  0
  5  4  1  0
  9 10  1  0
  9  8  2  0
  7  6  1  0
  7  8  1  0
 26 27  2  0
 28 27  1  0
 28 29  1  0
  6  3  2  0
  4  2  2  0
 29 30  1  0
  3  2  1  0
  2  1  1  0
 30 31  1  0
 31 32  1  0
 32 33  1  0
  1 34  1  0
  1 35  1  0
  1 36  1  0
  3 37  1  0
  8 38  1  0
 11 39  1  0
 17 40  1  1
 18 41  1  0
 18 42  1  0
 18 43  1  0
 20 44  1  0
 22 45  1  0
 23 46  1  0
 24 47  1  0
 27 48  1  0
 30 49  1  0
 30 50  1  0
 31 51  1  0
 31 52  1  0
 33 53  1  0
 33 54  1  0
 33 55  1  0
M  END
