
     RDKit          3D

 37 40  0  0  0  0  0  0  0  0999 V2000
    3.3146    2.3057   -0.3224 C   0  0  0  0  0  0  0  0  0  0  0  0
    1.9476    2.3750   -0.3292 C   0  0  0  0  0  0  0  0  0  0  0  0
    1.2063    1.1887   -0.1681 C   0  0  0  0  0  0  0  0  0  0  0  0
   -2.3377    0.7445   -0.0815 N   0  0  0  0  0  0  0  0  0  0  0  0
   -0.2513    1.2124   -0.1614 C   0  0  0  0  0  0  0  0  0  0  0  0
   -1.1278    0.1629   -0.0310 C   0  0  0  0  0  0  0  0  0  0  0  0
   -2.2268    2.0605   -0.2333 N   0  0  0  0  0  0  0  0  0  0  0  0
   -3.6093    0.1310    0.0020 C   0  0  0  0  0  0  0  0  0  0  0  0
   -3.8361   -1.0768   -0.6391 C   0  0  0  0  0  0  0  0  0  0  0  0
   -5.0762   -1.6855   -0.5454 C   0  0  0  0  0  0  0  0  0  0  0  0
   -6.1016   -1.0795    0.1773 C   0  0  0  0  0  0  0  0  0  0  0  0
   -0.9776    2.3470   -0.2782 N   0  0  0  0  0  0  0  0  0  0  0  0
   -5.8674    0.1410    0.8107 C   0  0  0  0  0  0  0  0  0  0  0  0
   -4.6245    0.7400    0.7290 C   0  0  0  0  0  0  0  0  0  0  0  0
    3.1104   -0.0582   -0.0059 C   0  0  0  0  0  0  0  0  0  0  0  0
    1.7799    0.0132   -0.0139 N   0  0  0  0  0  0  0  0  0  0  0  0
    5.0600   -1.4603    0.1867 N   0  0  0  0  0  0  0  0  0  0  0  0
    5.6695   -2.7702    0.3662 C   0  0  0  0  0  0  0  0  0  0  0  0
   -7.3245   -1.6223    0.2954 O   0  0  0  0  0  0  0  0  0  0  0  0
    5.8555   -0.3560    0.0410 C   0  0  0  0  0  0  0  0  0  0  0  0
    3.6845   -1.4030    0.1746 C   0  0  0  0  0  0  0  0  0  0  0  0
    5.3569    0.8831   -0.1279 C   0  0  0  0  0  0  0  0  0  0  0  0
    3.9428    1.0593   -0.1544 C   0  0  0  0  0  0  0  0  0  0  0  0
    3.0128   -2.4128    0.3082 O   0  0  0  0  0  0  0  0  0  0  0  0
    3.9134    3.1991   -0.4461 H   0  0  0  0  0  0  0  0  0  0  0  0
    1.4403    3.3211   -0.4579 H   0  0  0  0  0  0  0  0  0  0  0  0
   -0.9819   -0.8938    0.1088 H   0  0  0  0  0  0  0  0  0  0  0  0
   -3.0575   -1.5469   -1.2256 H   0  0  0  0  0  0  0  0  0  0  0  0
   -5.2443   -2.6296   -1.0493 H   0  0  0  0  0  0  0  0  0  0  0  0
   -6.6580    0.6137    1.3788 H   0  0  0  0  0  0  0  0  0  0  0  0
   -4.4465    1.6778    1.2373 H   0  0  0  0  0  0  0  0  0  0  0  0
    5.3797   -3.4443   -0.4373 H   0  0  0  0  0  0  0  0  0  0  0  0
    6.7492   -2.6602    0.3572 H   0  0  0  0  0  0  0  0  0  0  0  0
    5.3698   -3.2080    1.3164 H   0  0  0  0  0  0  0  0  0  0  0  0
   -7.3727   -2.4567   -0.1851 H   0  0  0  0  0  0  0  0  0  0  0  0
    6.9192   -0.5407    0.0707 H   0  0  0  0  0  0  0  0  0  0  0  0
    6.0247    1.7246   -0.2381 H   0  0  0  0  0  0  0  0  0  0  0  0
 18 17  1  0
 20 17  1  0
 20 22  2  0
 17 21  1  0
 22 23  1  0
 21 24  2  0
 21 15  1  0
 23 15  1  0
 23  1  2  0
 15 16  2  0
  1  2  1  0
 16  3  1  0
  2  3  2  0
  3  5  1  0
 12  5  1  0
 12  7  2  0
  5  6  2  0
  7  4  1  0
  6  4  1  0
  4  8  1  0
  9  8  2  0
  9 10  1  0
  8 14  1  0
 10 11  2  0
 14 13  2  0
 11 13  1  0
 11 19  1  0
  1 25  1  0
  2 26  1  0
  6 27  1  0
  9 28  1  0
 10 29  1  0
 13 30  1  0
 14 31  1  0
 18 32  1  0
 18 33  1  0
 18 34  1  0
 19 35  1  0
 20 36  1  0
 22 37  1  0
M  END
