
     RDKit          3D

 44 47  0  0  0  0  0  0  0  0999 V2000
   -2.1026    1.9239    0.2740 C   0  0  0  0  0  0  0  0  0  0  0  0
   -2.2839    0.4961    0.1114 N   0  0  0  0  0  0  0  0  0  0  0  0
   -1.1947   -0.2793   -0.0812 C   0  0  0  0  0  0  0  0  0  0  0  0
   -0.0101    0.3383   -0.0704 N   0  0  0  0  0  0  0  0  0  0  0  0
    1.0827   -0.3924   -0.2722 C   0  0  0  0  0  0  0  0  0  0  0  0
    2.3195    0.3689   -0.2876 C   0  0  0  0  0  0  0  0  0  0  0  0
    3.5988   -0.0898   -0.0397 N   0  0  0  0  0  0  0  0  0  0  0  0
    4.4500    0.9853   -0.2410 C   0  0  0  0  0  0  0  0  0  0  0  0
    5.8326    0.8114   -0.0488 C   0  0  0  0  0  0  0  0  0  0  0  0
    6.3022   -0.4029    0.3572 C   0  0  0  0  0  0  0  0  0  0  0  0
    5.3984   -1.4649    0.5988 C   0  0  0  0  0  0  0  0  0  0  0  0
    4.0665   -1.2937    0.4047 C   0  0  0  0  0  0  0  0  0  0  0  0
    3.7762    2.0702   -0.5949 N   0  0  0  0  0  0  0  0  0  0  0  0
    2.4865    1.7000   -0.6118 C   0  0  0  0  0  0  0  0  0  0  0  0
    1.0019   -1.7647   -0.5059 C   0  0  0  0  0  0  0  0  0  0  0  0
   -0.2732   -2.3058   -0.4739 C   0  0  0  0  0  0  0  0  0  0  0  0
   -1.3656   -1.6007   -0.2573 N   0  0  0  0  0  0  0  0  0  0  0  0
   -3.6366   -0.0475    0.0758 C   0  0  2  0  0  0  0  0  0  0  0  0
   -4.4413    0.4984   -1.1046 C   0  0  0  0  0  0  0  0  0  0  0  0
   -5.8359   -0.1222   -1.1438 C   0  0  0  0  0  0  0  0  0  0  0  0
   -6.5764    0.0845    0.1729 C   0  0  0  0  0  0  0  0  0  0  0  0
   -5.7690   -0.4596    1.3464 C   0  0  0  0  0  0  0  0  0  0  0  0
   -4.3756    0.1633    1.3976 C   0  0  0  0  0  0  0  0  0  0  0  0
   -1.7195    2.3975   -0.6322 H   0  0  0  0  0  0  0  0  0  0  0  0
   -3.0576    2.3830    0.5137 H   0  0  0  0  0  0  0  0  0  0  0  0
   -1.4110    2.1507    1.0845 H   0  0  0  0  0  0  0  0  0  0  0  0
    6.4885    1.6524   -0.2240 H   0  0  0  0  0  0  0  0  0  0  0  0
    7.3615   -0.5561    0.5092 H   0  0  0  0  0  0  0  0  0  0  0  0
    5.7528   -2.4224    0.9505 H   0  0  0  0  0  0  0  0  0  0  0  0
    3.3441   -2.0668    0.6080 H   0  0  0  0  0  0  0  0  0  0  0  0
    1.6975    2.3866   -0.8796 H   0  0  0  0  0  0  0  0  0  0  0  0
    1.8502   -2.3844   -0.7482 H   0  0  0  0  0  0  0  0  0  0  0  0
   -0.4125   -3.3693   -0.6385 H   0  0  0  0  0  0  0  0  0  0  0  0
   -3.5269   -1.1216   -0.0706 H   0  0  0  0  0  0  0  0  0  0  0  0
   -4.5361    1.5868   -1.0293 H   0  0  0  0  0  0  0  0  0  0  0  0
   -3.9081    0.2889   -2.0353 H   0  0  0  0  0  0  0  0  0  0  0  0
   -6.4059    0.3031   -1.9730 H   0  0  0  0  0  0  0  0  0  0  0  0
   -5.7487   -1.1952   -1.3456 H   0  0  0  0  0  0  0  0  0  0  0  0
   -6.7555    1.1547    0.3241 H   0  0  0  0  0  0  0  0  0  0  0  0
   -7.5582   -0.3933    0.1333 H   0  0  0  0  0  0  0  0  0  0  0  0
   -6.2902   -0.2710    2.2876 H   0  0  0  0  0  0  0  0  0  0  0  0
   -5.6787   -1.5472    1.2535 H   0  0  0  0  0  0  0  0  0  0  0  0
   -3.7936   -0.2728    2.2136 H   0  0  0  0  0  0  0  0  0  0  0  0
   -4.4749    1.2323    1.6125 H   0  0  0  0  0  0  0  0  0  0  0  0
  1  2  1  0
  2  3  1  0
  2 18  1  0
  3  4  2  0
  3 17  1  0
  4  5  1  0
  5  6  1  0
  5 15  2  0
  6  7  1  0
  6 14  2  0
  7  8  1  0
  7 12  1  0
  8  9  1  0
  8 13  2  0
  9 10  2  0
 10 11  1  0
 11 12  2  0
 13 14  1  0
 15 16  1  0
 16 17  2  0
 18 19  1  0
 18 23  1  0
 19 20  1  0
 20 21  1  0
 21 22  1  0
 22 23  1  0
  1 24  1  0
  1 25  1  0
  1 26  1  0
  9 27  1  0
 10 28  1  0
 11 29  1  0
 12 30  1  0
 14 31  1  0
 15 32  1  0
 16 33  1  0
 18 34  1  6
 19 35  1  0
 19 36  1  0
 20 37  1  0
 20 38  1  0
 21 39  1  0
 21 40  1  0
 22 41  1  0
 22 42  1  0
 23 43  1  0
 23 44  1  0
M  END
