
     RDKit          3D

 42 45  0  0  0  0  0  0  0  0999 V2000
    0.9683    2.2927    0.5740 C   0  0  0  0  0  0  0  0  0  0  0  0
   -5.1155   -0.9345   -0.8337 C   0  0  0  0  0  0  0  0  0  0  0  0
    2.3316    1.9936    0.2697 C   0  0  0  0  0  0  0  0  0  0  0  0
    3.7950    0.0069   -0.0847 C   0  0  0  0  0  0  0  0  0  0  0  0
    5.1381    0.5382   -0.4583 C   0  0  0  0  0  0  0  0  0  0  0  0
    3.7408   -1.3278   -0.0918 C   0  0  0  0  0  0  0  0  0  0  0  0
    1.5657   -0.3006    0.3899 C   0  0  0  0  0  0  0  0  0  0  0  0
    5.0279   -1.9687   -0.4784 C   0  0  0  0  0  0  0  0  0  0  0  0
    5.9922   -0.7553   -0.4333 C   0  0  0  0  0  0  0  0  0  0  0  0
   -3.1265    0.2181   -0.0250 C   0  0  0  0  0  0  0  0  0  0  0  0
   -4.2434    0.1431   -0.8740 C   0  0  0  0  0  0  0  0  0  0  0  0
    2.5715    0.6052    0.1882 N   0  0  0  0  0  0  0  0  0  0  0  0
    0.3364   -0.0110    0.6631 N   0  0  0  0  0  0  0  0  0  0  0  0
    0.0405    1.3060    0.7523 C   0  0  0  0  0  0  0  0  0  0  0  0
   -4.8961   -1.9527    0.0690 C   0  0  0  0  0  0  0  0  0  0  0  0
   -3.8089   -1.9212    0.9185 C   0  0  0  0  0  0  0  0  0  0  0  0
   -2.9282   -0.8530    0.8635 C   0  0  0  0  0  0  0  0  0  0  0  0
   -2.2581    1.2874   -0.0757 N   0  0  0  0  0  0  0  0  0  0  0  0
   -2.3287    2.2741   -1.1347 C   0  0  0  0  0  0  0  0  0  0  0  0
   -3.2768    3.4333   -0.8481 C   0  0  0  0  0  0  0  0  0  0  0  0
   -1.4015    1.6360    1.0325 C   0  0  0  0  0  0  0  0  0  0  0  0
    3.2418    2.7813    0.0833 O   0  0  0  0  0  0  0  0  0  0  0  0
    2.1523   -1.9298    0.2390 S   0  0  0  0  0  0  0  0  0  0  0  0
    0.6897    3.3343    0.6575 H   0  0  0  0  0  0  0  0  0  0  0  0
   -5.9685   -0.9626   -1.4993 H   0  0  0  0  0  0  0  0  0  0  0  0
    5.1094    0.9961   -1.4498 H   0  0  0  0  0  0  0  0  0  0  0  0
    5.5171    1.2893    0.2321 H   0  0  0  0  0  0  0  0  0  0  0  0
    5.3351   -2.7649    0.2001 H   0  0  0  0  0  0  0  0  0  0  0  0
    4.9561   -2.4050   -1.4778 H   0  0  0  0  0  0  0  0  0  0  0  0
    6.7047   -0.7799   -1.2552 H   0  0  0  0  0  0  0  0  0  0  0  0
    6.5638   -0.7873    0.4936 H   0  0  0  0  0  0  0  0  0  0  0  0
   -4.4587    0.9337   -1.5781 H   0  0  0  0  0  0  0  0  0  0  0  0
   -3.6298   -2.7334    1.6117 H   0  0  0  0  0  0  0  0  0  0  0  0
   -2.0529   -0.8831    1.4955 H   0  0  0  0  0  0  0  0  0  0  0  0
   -1.3199    2.6629   -1.2960 H   0  0  0  0  0  0  0  0  0  0  0  0
   -2.6010    1.7824   -2.0698 H   0  0  0  0  0  0  0  0  0  0  0  0
   -4.3072    3.0959   -0.7351 H   0  0  0  0  0  0  0  0  0  0  0  0
   -2.9948    3.9570    0.0662 H   0  0  0  0  0  0  0  0  0  0  0  0
   -3.2461    4.1545   -1.6648 H   0  0  0  0  0  0  0  0  0  0  0  0
   -1.7226    1.1266    1.9421 H   0  0  0  0  0  0  0  0  0  0  0  0
   -1.4907    2.7062    1.2388 H   0  0  0  0  0  0  0  0  0  0  0  0
   -5.7504   -2.9965    0.1183 F   0  0  0  0  0  0  0  0  0  0  0  0
  9  5  1  0
  9  8  1  0
  5  4  1  0
 22  3  2  0
  8  6  1  0
  4  6  2  0
  4 12  1  0
  3 12  1  0
  3  1  1  0
  6 23  1  0
 12  7  1  0
  1 14  2  0
 20 19  1  0
  7 23  1  0
  7 13  2  0
 14 13  1  0
 14 21  1  0
 19 18  1  0
 21 18  1  0
 18 10  1  0
 10 11  1  0
 10 17  2  0
 11  2  2  0
 17 16  1  0
  2 15  1  0
 16 15  2  0
 15 42  1  0
  1 24  1  0
  2 25  1  0
  5 26  1  0
  5 27  1  0
  8 28  1  0
  8 29  1  0
  9 30  1  0
  9 31  1  0
 11 32  1  0
 16 33  1  0
 17 34  1  0
 19 35  1  0
 19 36  1  0
 20 37  1  0
 20 38  1  0
 20 39  1  0
 21 40  1  0
 21 41  1  0
M  END
