
     RDKit          3D

 31 32  0  0  0  0  0  0  0  0999 V2000
    4.6946    1.9495    0.7456 N   0  0  0  0  0  0  0  0  0  0  0  0
    3.9654    0.8947    0.3789 C   0  0  0  0  0  0  0  0  0  0  0  0
    4.5841   -0.2744    0.2419 N   0  0  0  0  0  0  0  0  0  0  0  0
    3.7955   -1.2827   -0.1339 C   0  0  0  0  0  0  0  0  0  0  0  0
    4.3571   -2.4853   -0.2763 N   0  0  0  0  0  0  0  0  0  0  0  0
    2.4812   -1.1889   -0.3724 N   0  0  0  0  0  0  0  0  0  0  0  0
    2.6547    1.1035    0.1705 N   0  0  0  0  0  0  0  0  0  0  0  0
    1.9947    0.0264   -0.1988 C   0  0  0  0  0  0  0  0  0  0  0  0
    0.6951    0.1198   -0.4360 O   0  0  0  0  0  0  0  0  0  0  0  0
    0.0594    1.3850   -0.2831 C   0  0  0  0  0  0  0  0  0  0  0  0
   -1.3908    1.2171   -0.6447 C   0  0  0  0  0  0  0  0  0  0  0  0
   -1.9908    0.3546    0.3012 O   0  0  0  0  0  0  0  0  0  0  0  0
   -3.3008    0.0600    0.1729 C   0  0  0  0  0  0  0  0  0  0  0  0
   -3.8343   -0.8028    1.1330 C   0  0  0  0  0  0  0  0  0  0  0  0
   -5.1702   -1.1592    1.0801 C   0  0  0  0  0  0  0  0  0  0  0  0
   -5.9966   -0.6672    0.0744 C   0  0  0  0  0  0  0  0  0  0  0  0
   -5.4626    0.1885   -0.8753 C   0  0  0  0  0  0  0  0  0  0  0  0
   -4.1217    0.5582   -0.8360 C   0  0  0  0  0  0  0  0  0  0  0  0
    5.6747    1.8485    0.9413 H   0  0  0  0  0  0  0  0  0  0  0  0
    4.2614    2.8446    0.8866 H   0  0  0  0  0  0  0  0  0  0  0  0
    5.3488   -2.6000   -0.1657 H   0  0  0  0  0  0  0  0  0  0  0  0
    3.8144   -3.2622   -0.6087 H   0  0  0  0  0  0  0  0  0  0  0  0
    0.1645    1.7496    0.7412 H   0  0  0  0  0  0  0  0  0  0  0  0
    0.5027    2.1279   -0.9493 H   0  0  0  0  0  0  0  0  0  0  0  0
   -1.8603    2.2069   -0.6313 H   0  0  0  0  0  0  0  0  0  0  0  0
   -1.4880    0.8172   -1.6604 H   0  0  0  0  0  0  0  0  0  0  0  0
   -3.1931   -1.1916    1.9144 H   0  0  0  0  0  0  0  0  0  0  0  0
   -3.7415    1.2287   -1.5947 H   0  0  0  0  0  0  0  0  0  0  0  0
   -5.5696   -1.8265    1.8332 H   0  0  0  0  0  0  0  0  0  0  0  0
   -7.0402   -0.9490    0.0344 H   0  0  0  0  0  0  0  0  0  0  0  0
   -6.0899    0.5830   -1.6644 H   0  0  0  0  0  0  0  0  0  0  0  0
  1  2  1  0
  2  3  2  0
  2  7  1  0
  3  4  1  0
  4  5  1  0
  4  6  2  0
  6  8  1  0
  7  8  2  0
  8  9  1  0
  9 10  1  0
 10 11  1  0
 11 12  1  0
 12 13  1  0
 13 14  2  0
 13 18  1  0
 14 15  1  0
 15 16  2  0
 16 17  1  0
 17 18  2  0
  1 19  1  0
  1 20  1  0
  5 21  1  0
  5 22  1  0
 10 23  1  0
 10 24  1  0
 11 25  1  0
 11 26  1  0
 14 27  1  0
 18 28  1  0
 15 29  1  0
 16 30  1  0
 17 31  1  0
M  END
