
     RDKit          3D

 50 50  0  0  0  0  0  0  0  0999 V2000
    0.4206   -3.0764    0.7520 O   0  0  0  0  0  0  0  0  0  0  0  0
    0.1008   -2.1293   -0.1175 C   0  0  0  0  0  0  0  0  0  0  0  0
   -0.0851   -2.3559   -1.2893 O   0  0  0  0  0  0  0  0  0  0  0  0
    0.0422   -0.7285    0.4819 C   0  0  1  0  0  0  0  0  0  0  0  0
    0.0246   -0.7918    1.9345 N   0  0  0  0  0  0  0  0  0  0  0  0
    1.2441    0.0577   -0.0966 C   0  0  0  0  0  0  0  0  0  0  0  0
    2.6274   -0.4652    0.2698 C   0  0  0  0  0  0  0  0  0  0  0  0
    3.7459    0.4544   -0.2141 C   0  0  0  0  0  0  0  0  0  0  0  0
    5.1514   -0.0049    0.1643 C   0  0  0  0  0  0  0  0  0  0  0  0
    6.3704    1.0182   -0.2566 B   0  0  1  0  0  0  0  0  0  0  0  0
    7.6872    0.5061    0.1822 O   0  0  0  0  0  0  0  0  0  0  0  0
    6.3083    1.1714   -1.7325 O   0  0  0  0  0  0  0  0  0  0  0  0
    6.2693    2.3225    0.4354 O   0  0  0  0  0  0  0  0  0  0  0  0
   -1.2469   -0.0405    0.0073 C   0  0  0  0  0  0  0  0  0  0  0  0
   -2.5361   -0.6802    0.5095 C   0  0  0  0  0  0  0  0  0  0  0  0
   -3.7161   -0.0205   -0.0259 N   0  0  0  0  0  0  0  0  0  0  0  0
   -3.9867    1.2402    0.6430 C   0  0  0  0  0  0  0  0  0  0  0  0
   -5.1537    1.9756   -0.0000 C   0  0  0  0  0  0  0  0  0  0  0  0
   -6.3967    1.1047    0.0012 C   0  0  1  0  0  0  0  0  0  0  0  0
   -7.4339    1.8026   -0.6570 O   0  0  0  0  0  0  0  0  0  0  0  0
   -6.0763   -0.2307   -0.6556 C   0  0  0  0  0  0  0  0  0  0  0  0
   -4.8809   -0.8863    0.0196 C   0  0  0  0  0  0  0  0  0  0  0  0
    0.4848   -3.9280    0.2931 H   0  0  0  0  0  0  0  0  0  0  0  0
    0.9195   -1.0920    2.3007 H   0  0  0  0  0  0  0  0  0  0  0  0
   -0.1215    0.1434    2.2960 H   0  0  0  0  0  0  0  0  0  0  0  0
    1.1502    0.1074   -1.1854 H   0  0  0  0  0  0  0  0  0  0  0  0
    1.1423    1.0879    0.2617 H   0  0  0  0  0  0  0  0  0  0  0  0
    2.7190   -0.5700    1.3561 H   0  0  0  0  0  0  0  0  0  0  0  0
    2.7850   -1.4663   -0.1477 H   0  0  0  0  0  0  0  0  0  0  0  0
    3.6711    0.5669   -1.3009 H   0  0  0  0  0  0  0  0  0  0  0  0
    3.5553    1.4554    0.1965 H   0  0  0  0  0  0  0  0  0  0  0  0
    5.1734   -0.1696    1.2520 H   0  0  0  0  0  0  0  0  0  0  0  0
    5.3135   -1.0037   -0.2702 H   0  0  0  0  0  0  0  0  0  0  0  0
    7.7576   -0.4135   -0.0830 H   0  0  0  0  0  0  0  0  0  0  0  0
    7.0135    1.7644   -2.0081 H   0  0  0  0  0  0  0  0  0  0  0  0
    5.3757    2.6564    0.3365 H   0  0  0  0  0  0  0  0  0  0  0  0
   -1.1824    1.0035    0.3287 H   0  0  0  0  0  0  0  0  0  0  0  0
   -1.2631   -0.0208   -1.0833 H   0  0  0  0  0  0  0  0  0  0  0  0
   -2.5654   -1.7235    0.1820 H   0  0  0  0  0  0  0  0  0  0  0  0
   -2.5514   -0.7049    1.6090 H   0  0  0  0  0  0  0  0  0  0  0  0
   -4.1992    1.0832    1.7165 H   0  0  0  0  0  0  0  0  0  0  0  0
   -3.1008    1.8750    0.5949 H   0  0  0  0  0  0  0  0  0  0  0  0
   -5.3375    2.9062    0.5429 H   0  0  0  0  0  0  0  0  0  0  0  0
   -4.8932    2.2408   -1.0293 H   0  0  0  0  0  0  0  0  0  0  0  0
   -6.6734    0.9081    1.0495 H   0  0  0  0  0  0  0  0  0  0  0  0
   -8.2270    1.2586   -0.6273 H   0  0  0  0  0  0  0  0  0  0  0  0
   -6.9368   -0.9037   -0.5985 H   0  0  0  0  0  0  0  0  0  0  0  0
   -5.8538   -0.0710   -1.7153 H   0  0  0  0  0  0  0  0  0  0  0  0
   -4.6417   -1.8213   -0.4921 H   0  0  0  0  0  0  0  0  0  0  0  0
   -5.1491   -1.1559    1.0570 H   0  0  0  0  0  0  0  0  0  0  0  0
 10 11  1  6
 12 10  1  0
 10 13  1  0
 10  9  1  0
  9  8  1  0
  8  7  1  0
  6  7  1  0
  6  4  1  0
  5  4  1  0
  4  2  1  6
  4 14  1  0
  3  2  2  0
  2  1  1  0
 14 15  1  0
 15 16  1  0
 16 22  1  0
 16 17  1  0
 22 21  1  0
 17 18  1  0
 21 19  1  0
 18 19  1  0
 19 20  1  0
  1 23  1  0
  5 24  1  0
  5 25  1  0
  6 26  1  0
  6 27  1  0
  7 28  1  0
  7 29  1  0
  8 30  1  0
  8 31  1  0
  9 32  1  0
  9 33  1  0
 11 34  1  0
 12 35  1  0
 13 36  1  0
 14 37  1  0
 14 38  1  0
 15 39  1  0
 15 40  1  0
 17 41  1  0
 17 42  1  0
 18 43  1  0
 18 44  1  0
 19 45  1  1
 20 46  1  0
 21 47  1  0
 21 48  1  0
 22 49  1  0
 22 50  1  0
M  CHG  1  10  -1
M  END
