
     RDKit          3D

 39 41  0  0  0  0  0  0  0  0999 V2000
    3.7315    1.9861   -1.3538 C   0  0  0  0  0  0  0  0  0  0  0  0
    3.2779    0.7859   -0.5803 C   0  0  0  0  0  0  0  0  0  0  0  0
    1.9228    0.5903   -0.3291 C   0  0  0  0  0  0  0  0  0  0  0  0
    4.1770   -0.1621   -0.0982 C   0  0  0  0  0  0  0  0  0  0  0  0
    5.8746    0.0680   -0.3988 Cl  0  0  0  0  0  0  0  0  0  0  0  0
    3.7706   -1.2895    0.6140 C   0  0  0  0  0  0  0  0  0  0  0  0
    4.7503   -2.3048    1.1174 C   0  0  0  0  0  0  0  0  0  0  0  0
    2.4117   -1.4493    0.8540 C   0  0  0  0  0  0  0  0  0  0  0  0
    1.4957   -0.5180    0.3871 C   0  0  0  0  0  0  0  0  0  0  0  0
    0.1816   -0.7850    0.6314 O   0  0  0  0  0  0  0  0  0  0  0  0
   -0.7314    0.2357    0.6508 C   0  0  0  0  0  0  0  0  0  0  0  0
   -1.8165    0.1502   -0.2022 C   0  0  0  0  0  0  0  0  0  0  0  0
   -0.6023    1.2970    1.5413 C   0  0  0  0  0  0  0  0  0  0  0  0
   -1.5811    2.2754    1.5628 C   0  0  0  0  0  0  0  0  0  0  0  0
   -2.6806    2.1951    0.7146 C   0  0  0  0  0  0  0  0  0  0  0  0
   -2.8041    1.1320   -0.1683 C   0  0  0  0  0  0  0  0  0  0  0  0
   -3.9910    1.0296   -1.0900 C   0  0  0  0  0  0  0  0  0  0  0  0
   -4.7639   -0.1708   -0.8452 N   0  0  0  0  0  0  0  0  0  0  0  0
   -5.4312   -0.4837    0.3057 C   0  0  0  0  0  0  0  0  0  0  0  0
   -5.9903   -1.7087    0.0804 C   0  0  0  0  0  0  0  0  0  0  0  0
   -5.6774   -2.1487   -1.1748 N   0  0  0  0  0  0  0  0  0  0  0  0
   -4.9406   -1.2027   -1.6977 C   0  0  0  0  0  0  0  0  0  0  0  0
    4.3898    2.6184   -0.7561 H   0  0  0  0  0  0  0  0  0  0  0  0
    4.2875    1.6996   -2.2472 H   0  0  0  0  0  0  0  0  0  0  0  0
    2.8804    2.5880   -1.6667 H   0  0  0  0  0  0  0  0  0  0  0  0
    1.2132    1.3141   -0.7096 H   0  0  0  0  0  0  0  0  0  0  0  0
    5.4802   -1.8552    1.7916 H   0  0  0  0  0  0  0  0  0  0  0  0
    4.2384   -3.1001    1.6553 H   0  0  0  0  0  0  0  0  0  0  0  0
    5.3092   -2.7578    0.2975 H   0  0  0  0  0  0  0  0  0  0  0  0
    2.0638   -2.3144    1.4051 H   0  0  0  0  0  0  0  0  0  0  0  0
   -1.8897   -0.6847   -0.8899 H   0  0  0  0  0  0  0  0  0  0  0  0
    0.2462    1.3529    2.2114 H   0  0  0  0  0  0  0  0  0  0  0  0
   -1.4933    3.1027    2.2543 H   0  0  0  0  0  0  0  0  0  0  0  0
   -3.4442    2.9619    0.7490 H   0  0  0  0  0  0  0  0  0  0  0  0
   -4.6362    1.9013   -0.9784 H   0  0  0  0  0  0  0  0  0  0  0  0
   -3.6654    1.0003   -2.1305 H   0  0  0  0  0  0  0  0  0  0  0  0
   -5.4499    0.1737    1.1591 H   0  0  0  0  0  0  0  0  0  0  0  0
   -6.6013   -2.2898    0.7539 H   0  0  0  0  0  0  0  0  0  0  0  0
   -4.5109   -1.2041   -2.6886 H   0  0  0  0  0  0  0  0  0  0  0  0
  5  4  1  0
  1  2  1  0
  4  2  2  0
  4  6  1  0
  2  3  1  0
  7  6  1  0
  6  8  2  0
 22 21  2  0
 22 18  1  0
  3  9  2  0
 21 20  1  0
  8  9  1  0
  9 10  1  0
 18 17  1  0
 18 19  1  0
 10 11  1  0
 12 11  2  0
 12 16  1  0
 17 16  1  0
 20 19  2  0
 11 13  1  0
 16 15  2  0
 13 14  2  0
 15 14  1  0
  1 23  1  0
  1 24  1  0
  1 25  1  0
  3 26  1  0
  7 27  1  0
  7 28  1  0
  7 29  1  0
  8 30  1  0
 12 31  1  0
 13 32  1  0
 14 33  1  0
 15 34  1  0
 17 35  1  0
 17 36  1  0
 19 37  1  0
 20 38  1  0
 22 39  1  0
M  END
