
     RDKit          3D

 39 39  0  0  0  0  0  0  0  0999 V2000
    7.0984   -1.5497   -0.0674 O   0  0  0  0  0  0  0  0  0  0  0  0
    7.0794   -0.3465    0.0137 C   0  0  0  0  0  0  0  0  0  0  0  0
    8.1854    0.3866    0.1154 O   0  0  0  0  0  0  0  0  0  0  0  0
    5.8412    0.5058    0.0086 C   0  0  0  0  0  0  0  0  0  0  0  0
    4.5464   -0.2893   -0.0197 C   0  0  0  0  0  0  0  0  0  0  0  0
    3.3226    0.6187   -0.0253 C   0  0  0  0  0  0  0  0  0  0  0  0
    2.0122   -0.1577   -0.0368 C   0  0  0  0  0  0  0  0  0  0  0  0
    0.7827    0.7422   -0.0484 C   0  0  0  0  0  0  0  0  0  0  0  0
   -0.5279   -0.0344   -0.0332 C   0  0  0  0  0  0  0  0  0  0  0  0
   -1.7555    0.8682   -0.0521 C   0  0  0  0  0  0  0  0  0  0  0  0
   -3.0630    0.0884   -0.0080 C   0  0  0  0  0  0  0  0  0  0  0  0
   -4.2707    1.0146   -0.0432 C   0  0  0  0  0  0  0  0  0  0  0  0
   -5.5282    0.2952    0.0179 N   0  0  0  0  0  0  0  0  0  0  0  0
   -6.3019   -0.0577   -1.0293 C   0  0  0  0  0  0  0  0  0  0  0  0
   -7.3412   -0.7627   -0.6589 N   0  0  0  0  0  0  0  0  0  0  0  0
   -7.2306   -0.8781    0.6976 C   0  0  0  0  0  0  0  0  0  0  0  0
   -6.1101   -0.2314    1.1362 C   0  0  0  0  0  0  0  0  0  0  0  0
    8.9646   -0.1889    0.1046 H   0  0  0  0  0  0  0  0  0  0  0  0
    5.8718    1.1612    0.8848 H   0  0  0  0  0  0  0  0  0  0  0  0
    5.8992    1.1753   -0.8566 H   0  0  0  0  0  0  0  0  0  0  0  0
    4.5241   -0.9330   -0.9030 H   0  0  0  0  0  0  0  0  0  0  0  0
    4.5003   -0.9530    0.8481 H   0  0  0  0  0  0  0  0  0  0  0  0
    3.3491    1.2730    0.8532 H   0  0  0  0  0  0  0  0  0  0  0  0
    3.3625    1.2806   -0.8975 H   0  0  0  0  0  0  0  0  0  0  0  0
    1.9874   -0.8177   -0.9109 H   0  0  0  0  0  0  0  0  0  0  0  0
    1.9724   -0.8142    0.8397 H   0  0  0  0  0  0  0  0  0  0  0  0
    0.8163    1.4130    0.8174 H   0  0  0  0  0  0  0  0  0  0  0  0
    0.8135    1.3877   -0.9331 H   0  0  0  0  0  0  0  0  0  0  0  0
   -0.5620   -0.7108   -0.8943 H   0  0  0  0  0  0  0  0  0  0  0  0
   -0.5611   -0.6733    0.8563 H   0  0  0  0  0  0  0  0  0  0  0  0
   -1.7125    1.5562    0.7992 H   0  0  0  0  0  0  0  0  0  0  0  0
   -1.7319    1.4938   -0.9511 H   0  0  0  0  0  0  0  0  0  0  0  0
   -3.1154   -0.6028   -0.8547 H   0  0  0  0  0  0  0  0  0  0  0  0
   -3.0984   -0.5215    0.9001 H   0  0  0  0  0  0  0  0  0  0  0  0
   -4.2372    1.7171    0.7907 H   0  0  0  0  0  0  0  0  0  0  0  0
   -4.2707    1.6056   -0.9600 H   0  0  0  0  0  0  0  0  0  0  0  0
   -6.0594    0.2323   -2.0412 H   0  0  0  0  0  0  0  0  0  0  0  0
   -7.9598   -1.4116    1.2878 H   0  0  0  0  0  0  0  0  0  0  0  0
   -5.6918   -0.0968    2.1200 H   0  0  0  0  0  0  0  0  0  0  0  0
  1  2  2  0
  4  2  1  0
  2  3  1  0
  3 18  1  0
  4  5  1  0
  4 19  1  0
  4 20  1  0
  6  5  1  0
  5 21  1  0
  5 22  1  0
  7  6  1  0
  6 23  1  0
  6 24  1  0
  8  7  1  0
  7 25  1  0
  7 26  1  0
  9  8  1  0
  8 27  1  0
  8 28  1  0
 10  9  1  0
  9 29  1  0
  9 30  1  0
 11 10  1  0
 10 31  1  0
 10 32  1  0
 12 11  1  0
 11 33  1  0
 11 34  1  0
 13 12  1  0
 12 35  1  0
 12 36  1  0
 14 13  1  0
 13 17  1  0
 15 14  2  0
 14 37  1  0
 15 16  1  0
 16 17  2  0
 16 38  1  0
 17 39  1  0
M  END
