
     RDKit          3D

 50 50  0  0  0  0  0  0  0  0999 V2000
    3.3624   -1.0231   -1.4882 O   0  0  0  0  0  0  0  0  0  0  0  0
    3.2353   -0.4423   -0.4175 C   0  0  0  0  0  0  0  0  0  0  0  0
    4.1258   -0.5535    0.5844 N   0  0  0  0  0  0  0  0  0  0  0  0
    5.3214   -1.3620    0.5157 C   0  0  0  0  0  0  0  0  0  0  0  0
    6.5618   -0.5520    0.2461 C   0  0  0  0  0  0  0  0  0  0  0  0
    7.6043   -0.5172    1.1634 C   0  0  0  0  0  0  0  0  0  0  0  0
    8.7247    0.1765    0.9928 N   0  0  0  0  0  0  0  0  0  0  0  0
    8.8514    0.8811   -0.1235 C   0  0  0  0  0  0  0  0  0  0  0  0
    7.8743    0.9207   -1.1097 C   0  0  0  0  0  0  0  0  0  0  0  0
    6.7129    0.1921   -0.9203 C   0  0  0  0  0  0  0  0  0  0  0  0
    2.0428    0.4435   -0.1337 C   0  0  0  0  0  0  0  0  0  0  0  0
    0.7266   -0.3131   -0.2970 C   0  0  0  0  0  0  0  0  0  0  0  0
   -0.4849    0.5887   -0.1058 C   0  0  0  0  0  0  0  0  0  0  0  0
   -1.7993   -0.1728   -0.2103 C   0  0  0  0  0  0  0  0  0  0  0  0
   -3.0007    0.7469   -0.0642 C   0  0  0  0  0  0  0  0  0  0  0  0
   -4.2293   -0.0175   -0.0901 N   0  0  0  0  0  0  0  0  0  0  0  0
   -5.4379    0.5757   -0.1181 C   0  0  0  0  0  0  0  0  0  0  0  0
   -5.6022    1.7738   -0.2438 O   0  0  0  0  0  0  0  0  0  0  0  0
   -6.4068   -0.3349   -0.0023 O   0  0  0  0  0  0  0  0  0  0  0  0
   -7.8139    0.0172    0.0078 C   0  0  1  0  0  0  0  0  0  0  0  0
   -8.2380    0.5880   -1.3398 C   0  0  0  0  0  0  0  0  0  0  0  0
   -8.5024   -1.3231    0.2385 C   0  0  0  0  0  0  0  0  0  0  0  0
   -8.1441    0.9637    1.1572 C   0  0  0  0  0  0  0  0  0  0  0  0
    3.9735   -0.0240    1.4271 H   0  0  0  0  0  0  0  0  0  0  0  0
    2.0995    0.8805    0.8661 H   0  0  0  0  0  0  0  0  0  0  0  0
    2.0757    1.2758   -0.8433 H   0  0  0  0  0  0  0  0  0  0  0  0
    5.4310   -1.9021    1.4572 H   0  0  0  0  0  0  0  0  0  0  0  0
    5.1824   -2.1084   -0.2657 H   0  0  0  0  0  0  0  0  0  0  0  0
    7.5261   -1.0836    2.0868 H   0  0  0  0  0  0  0  0  0  0  0  0
    5.9360    0.1971   -1.6749 H   0  0  0  0  0  0  0  0  0  0  0  0
    9.7716    1.4419   -0.2438 H   0  0  0  0  0  0  0  0  0  0  0  0
    8.0271    1.5086   -2.0044 H   0  0  0  0  0  0  0  0  0  0  0  0
    0.6892   -0.7696   -1.2888 H   0  0  0  0  0  0  0  0  0  0  0  0
    0.6894   -1.1339    0.4261 H   0  0  0  0  0  0  0  0  0  0  0  0
   -0.4284    1.0807    0.8708 H   0  0  0  0  0  0  0  0  0  0  0  0
   -0.4628    1.3889   -0.8533 H   0  0  0  0  0  0  0  0  0  0  0  0
   -1.8525   -0.6927   -1.1719 H   0  0  0  0  0  0  0  0  0  0  0  0
   -1.8322   -0.9448    0.5659 H   0  0  0  0  0  0  0  0  0  0  0  0
   -2.9176    1.3156    0.8687 H   0  0  0  0  0  0  0  0  0  0  0  0
   -3.0050    1.4740   -0.8789 H   0  0  0  0  0  0  0  0  0  0  0  0
   -4.1796   -1.0016    0.1200 H   0  0  0  0  0  0  0  0  0  0  0  0
   -7.9932   -0.1022   -2.1492 H   0  0  0  0  0  0  0  0  0  0  0  0
   -9.3193    0.7317   -1.3470 H   0  0  0  0  0  0  0  0  0  0  0  0
   -7.7739    1.5491   -1.5494 H   0  0  0  0  0  0  0  0  0  0  0  0
   -8.2033   -1.7655    1.1902 H   0  0  0  0  0  0  0  0  0  0  0  0
   -9.5830   -1.1833    0.2601 H   0  0  0  0  0  0  0  0  0  0  0  0
   -8.2734   -2.0317   -0.5589 H   0  0  0  0  0  0  0  0  0  0  0  0
   -7.7690    1.9712    0.9942 H   0  0  0  0  0  0  0  0  0  0  0  0
   -9.2276    1.0242    1.2670 H   0  0  0  0  0  0  0  0  0  0  0  0
   -7.7410    0.5889    2.0996 H   0  0  0  0  0  0  0  0  0  0  0  0
  1  2  2  0
  2  3  1  0
  2 11  1  0
  3  4  1  0
  4  5  1  0
  5  6  2  0
  5 10  1  0
  6  7  1  0
  7  8  2  0
  8  9  1  0
  9 10  2  0
 11 12  1  0
 12 13  1  0
 13 14  1  0
 14 15  1  0
 15 16  1  0
 16 17  1  0
 17 18  2  0
 17 19  1  0
 20 19  1  6
 20 21  1  0
 20 22  1  0
 20 23  1  0
  3 24  1  0
 11 25  1  0
 11 26  1  0
  4 27  1  0
  4 28  1  0
  6 29  1  0
 10 30  1  0
  8 31  1  0
  9 32  1  0
 12 33  1  0
 12 34  1  0
 13 35  1  0
 13 36  1  0
 14 37  1  0
 14 38  1  0
 15 39  1  0
 15 40  1  0
 16 41  1  0
 21 42  1  0
 21 43  1  0
 21 44  1  0
 22 45  1  0
 22 46  1  0
 22 47  1  0
 23 48  1  0
 23 49  1  0
 23 50  1  0
M  END
