
     RDKit          3D

 95 97  0  0  0  0  0  0  0  0999 V2000
   -4.3736   -0.6050   -1.9074 N   0  0  0  0  0  0  0  0  0  0  0  0
    1.0016   -1.3646    0.6827 C   0  0  1  0  0  0  0  0  0  0  0  0
    2.1217   -1.0123   -0.0298 O   0  0  0  0  0  0  0  0  0  0  0  0
   -0.2187   -0.6662    0.0790 C   0  0  2  0  0  0  0  0  0  0  0  0
   -0.0988    0.7256    0.2728 O   0  0  0  0  0  0  0  0  0  0  0  0
   -1.4892   -1.1738    0.7628 C   0  0  1  0  0  0  0  0  0  0  0  0
   -2.5602   -0.5643    0.0883 O   0  0  0  0  0  0  0  0  0  0  0  0
   -1.5569   -2.7032    0.7494 C   0  0  1  0  0  0  0  0  0  0  0  0
   -1.7749   -3.1352   -0.5724 O   0  0  0  0  0  0  0  0  0  0  0  0
   -0.2518   -3.2450    1.3309 C   0  0  2  0  0  0  0  0  0  0  0  0
    0.8458   -2.7574    0.5946 O   0  0  0  0  0  0  0  0  0  0  0  0
   -0.2093   -4.7574    1.3173 C   0  0  0  0  0  0  0  0  0  0  0  0
    0.9258   -5.1876    2.0294 O   0  0  0  0  0  0  0  0  0  0  0  0
   -0.3539    1.5290   -0.8408 C   0  0  1  0  0  0  0  0  0  0  0  0
   -0.6006    2.9615   -0.3632 C   0  0  2  0  0  0  0  0  0  0  0  0
    0.6921    3.5688    0.1786 C   0  0  1  0  0  0  0  0  0  0  0  0
    1.7772    3.5010   -0.8844 C   0  0  1  0  0  0  0  0  0  0  0  0
    1.9312    2.0440   -1.3215 C   0  0  2  0  0  0  0  0  0  0  0  0
    2.9280    1.8644   -2.4471 C   0  0  0  0  0  0  0  0  0  0  0  0
   -1.6020    2.9935    0.6311 O   0  0  0  0  0  0  0  0  0  0  0  0
    0.5136    4.9042    0.5777 O   0  0  0  0  0  0  0  0  0  0  0  0
    1.4186    4.3586   -1.9425 O   0  0  0  0  0  0  0  0  0  0  0  0
    0.6905    1.5063   -1.7688 O   0  0  0  0  0  0  0  0  0  0  0  0
    3.3549   -1.4033    0.5541 C   0  0  0  0  0  0  0  0  0  0  0  0
    4.4840   -0.6741   -0.1436 C   0  0  0  0  0  0  0  0  0  0  0  0
    5.8521   -1.1268    0.3509 C   0  0  0  0  0  0  0  0  0  0  0  0
    6.9953   -0.4007   -0.3463 C   0  0  0  0  0  0  0  0  0  0  0  0
    8.3723   -0.8527    0.1224 C   0  0  0  0  0  0  0  0  0  0  0  0
    9.5117   -0.1283   -0.5824 C   0  0  0  0  0  0  0  0  0  0  0  0
   -3.8514   -2.0908   -3.7294 C   0  0  0  0  0  0  0  0  0  0  0  0
   -4.5911   -1.8201   -2.4440 C   0  0  0  0  0  0  0  0  0  0  0  0
   -5.3208   -2.6551   -1.9259 O   0  0  0  0  0  0  0  0  0  0  0  0
   -4.7856   -0.2503   -0.5712 C   0  0  2  0  0  0  0  0  0  0  0  0
   -4.7933    1.2648   -0.3957 C   0  0  1  0  0  0  0  0  0  0  0  0
   -5.7142    1.8027   -1.3064 O   0  0  0  0  0  0  0  0  0  0  0  0
   -5.1180    1.6166    1.0573 C   0  0  1  0  0  0  0  0  0  0  0  0
   -6.4487    1.2404    1.3176 O   0  0  0  0  0  0  0  0  0  0  0  0
   -4.1162    0.9117    1.9728 C   0  0  1  0  0  0  0  0  0  0  0  0
   -4.3912    1.1708    3.4371 C   0  0  0  0  0  0  0  0  0  0  0  0
   -3.3200    0.6645    4.1969 O   0  0  0  0  0  0  0  0  0  0  0  0
   -4.1601   -0.4917    1.7658 O   0  0  0  0  0  0  0  0  0  0  0  0
   -3.8565   -0.8974    0.4684 C   0  0  2  0  0  0  0  0  0  0  0  0
   -3.6679   -0.0269   -2.3358 H   0  0  0  0  0  0  0  0  0  0  0  0
    1.1059   -1.0753    1.7477 H   0  0  0  0  0  0  0  0  0  0  0  0
   -0.2598   -0.9191   -0.9884 H   0  0  0  0  0  0  0  0  0  0  0  0
   -1.4655   -0.8587    1.8167 H   0  0  0  0  0  0  0  0  0  0  0  0
   -2.3660   -3.0330    1.4141 H   0  0  0  0  0  0  0  0  0  0  0  0
   -2.3235   -3.9238   -0.5588 H   0  0  0  0  0  0  0  0  0  0  0  0
   -0.1893   -2.9069    2.3794 H   0  0  0  0  0  0  0  0  0  0  0  0
   -1.1390   -5.1243    1.7731 H   0  0  0  0  0  0  0  0  0  0  0  0
   -0.1947   -5.1128    0.2800 H   0  0  0  0  0  0  0  0  0  0  0  0
    0.9806   -6.1440    1.9510 H   0  0  0  0  0  0  0  0  0  0  0  0
   -1.2307    1.1617   -1.3856 H   0  0  0  0  0  0  0  0  0  0  0  0
   -0.9158    3.5343   -1.2423 H   0  0  0  0  0  0  0  0  0  0  0  0
    1.0361    2.9567    1.0257 H   0  0  0  0  0  0  0  0  0  0  0  0
    2.7315    3.8109   -0.4332 H   0  0  0  0  0  0  0  0  0  0  0  0
    2.2891    1.4809   -0.4540 H   0  0  0  0  0  0  0  0  0  0  0  0
    3.9001    2.2643   -2.1564 H   0  0  0  0  0  0  0  0  0  0  0  0
    3.0646    0.8073   -2.6739 H   0  0  0  0  0  0  0  0  0  0  0  0
    2.6102    2.3661   -3.3628 H   0  0  0  0  0  0  0  0  0  0  0  0
   -2.2930    3.6003    0.3560 H   0  0  0  0  0  0  0  0  0  0  0  0
   -0.1528    4.9125    1.2724 H   0  0  0  0  0  0  0  0  0  0  0  0
    2.1767    4.4579   -2.5256 H   0  0  0  0  0  0  0  0  0  0  0  0
    3.3554   -1.1676    1.6270 H   0  0  0  0  0  0  0  0  0  0  0  0
    3.4978   -2.4859    0.4627 H   0  0  0  0  0  0  0  0  0  0  0  0
    4.4116   -0.8439   -1.2222 H   0  0  0  0  0  0  0  0  0  0  0  0
    4.3780    0.4042    0.0095 H   0  0  0  0  0  0  0  0  0  0  0  0
    5.9261   -0.9670    1.4320 H   0  0  0  0  0  0  0  0  0  0  0  0
    5.9580   -2.2058    0.1950 H   0  0  0  0  0  0  0  0  0  0  0  0
    6.9123   -0.5523   -1.4282 H   0  0  0  0  0  0  0  0  0  0  0  0
    6.8922    0.6779   -0.1845 H   0  0  0  0  0  0  0  0  0  0  0  0
    8.4570   -0.6987    1.2039 H   0  0  0  0  0  0  0  0  0  0  0  0
    8.4733   -1.9319   -0.0378 H   0  0  0  0  0  0  0  0  0  0  0  0
   10.8925   -0.5786   -0.1216 C   0  0  0  0  0  0  0  0  0  0  0  0
    9.4240   -0.2804   -1.6641 H   0  0  0  0  0  0  0  0  0  0  0  0
    9.4110    0.9510   -0.4214 H   0  0  0  0  0  0  0  0  0  0  0  0
   -2.9717   -2.6948   -3.5007 H   0  0  0  0  0  0  0  0  0  0  0  0
   -4.4780   -2.6623   -4.4112 H   0  0  0  0  0  0  0  0  0  0  0  0
   -3.5138   -1.1863   -4.2329 H   0  0  0  0  0  0  0  0  0  0  0  0
   -5.7940   -0.6342   -0.4027 H   0  0  0  0  0  0  0  0  0  0  0  0
   -3.7805    1.6472   -0.5907 H   0  0  0  0  0  0  0  0  0  0  0  0
   -5.6248    2.7610   -1.2984 H   0  0  0  0  0  0  0  0  0  0  0  0
   -4.9842    2.7018    1.1837 H   0  0  0  0  0  0  0  0  0  0  0  0
   -6.7665    1.7240    2.0853 H   0  0  0  0  0  0  0  0  0  0  0  0
   -3.1194    1.3053    1.7362 H   0  0  0  0  0  0  0  0  0  0  0  0
   -4.5078    2.2553    3.5713 H   0  0  0  0  0  0  0  0  0  0  0  0
   -5.3427    0.7057    3.7246 H   0  0  0  0  0  0  0  0  0  0  0  0
   -3.5399    0.7696    5.1268 H   0  0  0  0  0  0  0  0  0  0  0  0
   -4.0147   -1.9803    0.4615 H   0  0  0  0  0  0  0  0  0  0  0  0
   12.0215    0.1517   -0.8354 C   0  0  0  0  0  0  0  0  0  0  0  0
   10.9807   -0.4250    0.9585 H   0  0  0  0  0  0  0  0  0  0  0  0
   10.9926   -1.6566   -0.2823 H   0  0  0  0  0  0  0  0  0  0  0  0
   11.9758   -0.0108   -1.9140 H   0  0  0  0  0  0  0  0  0  0  0  0
   11.9642    1.2284   -0.6643 H   0  0  0  0  0  0  0  0  0  0  0  0
   12.9999   -0.1856   -0.4916 H   0  0  0  0  0  0  0  0  0  0  0  0
  1 31  1  0
  1 33  1  0
  1 43  1  0
  2  3  1  0
  2  4  1  0
  2 11  1  0
  2 44  1  1
  3 24  1  0
  4  5  1  0
  4  6  1  0
  4 45  1  6
  5 14  1  0
  6  7  1  0
  6  8  1  0
  6 46  1  1
  7 42  1  0
  8  9  1  0
  8 10  1  0
  8 47  1  1
  9 48  1  0
 10 11  1  0
 10 12  1  0
 10 49  1  1
 12 13  1  0
 12 50  1  0
 12 51  1  0
 13 52  1  0
 14 15  1  0
 14 23  1  0
 14 53  1  6
 15 16  1  0
 15 20  1  0
 15 54  1  6
 16 17  1  0
 16 21  1  0
 16 55  1  1
 17 18  1  0
 17 22  1  0
 17 56  1  1
 18 19  1  0
 18 23  1  0
 18 57  1  1
 19 58  1  0
 19 59  1  0
 19 60  1  0
 20 61  1  0
 21 62  1  0
 22 63  1  0
 24 25  1  0
 24 64  1  0
 24 65  1  0
 25 26  1  0
 25 66  1  0
 25 67  1  0
 26 27  1  0
 26 68  1  0
 26 69  1  0
 27 28  1  0
 27 70  1  0
 27 71  1  0
 28 29  1  0
 28 72  1  0
 28 73  1  0
 29 74  1  0
 29 75  1  0
 29 76  1  0
 30 31  1  0
 30 77  1  0
 30 78  1  0
 30 79  1  0
 31 32  2  0
 33 34  1  0
 33 42  1  0
 33 80  1  1
 34 35  1  0
 34 36  1  0
 34 81  1  6
 35 82  1  0
 36 37  1  0
 36 38  1  0
 36 83  1  6
 37 84  1  0
 38 39  1  0
 38 41  1  0
 38 85  1  6
 39 40  1  0
 39 86  1  0
 39 87  1  0
 40 88  1  0
 41 42  1  0
 42 89  1  1
 74 90  1  0
 74 91  1  0
 74 92  1  0
 90 93  1  0
 90 94  1  0
 90 95  1  0
M  END
