
     RDKit          3D

 52 55  0  0  0  0  0  0  0  0999 V2000
   -5.7310    0.2527    0.1821 C   0  0  2  0  0  0  0  0  0  0  0  0
   -6.3399   -0.0656    1.5457 C   0  0  0  0  0  0  0  0  0  0  0  0
   -6.7734   -1.5163    1.5651 C   0  0  0  0  0  0  0  0  0  0  0  0
   -6.8993   -1.9785    0.2816 N   0  0  0  0  0  0  0  0  0  0  0  0
   -6.7049   -0.8203   -0.9194 S   0  0  1  0  0  0  0  0  0  0  0  0
   -7.9768   -0.1865   -1.2163 O   0  0  0  0  0  0  0  0  0  0  0  0
   -5.9473   -1.3994   -2.0095 O   0  0  0  0  0  0  0  0  0  0  0  0
   -6.9872   -2.1779    2.5504 O   0  0  0  0  0  0  0  0  0  0  0  0
   -4.2679   -0.0342    0.0220 C   0  0  0  0  0  0  0  0  0  0  0  0
   -3.5588    0.6434   -0.9646 C   0  0  0  0  0  0  0  0  0  0  0  0
   -2.2048    0.4145   -1.1459 C   0  0  0  0  0  0  0  0  0  0  0  0
   -1.5242   -0.5029   -0.3511 C   0  0  0  0  0  0  0  0  0  0  0  0
   -2.2393   -1.1859    0.6284 C   0  0  0  0  0  0  0  0  0  0  0  0
   -3.5938   -0.9577    0.8146 C   0  0  0  0  0  0  0  0  0  0  0  0
   -0.0444   -0.7051   -0.4981 C   0  0  0  0  0  0  0  0  0  0  0  0
    0.7234    0.1051    0.5567 C   0  0  2  0  0  0  0  0  0  0  0  0
    0.3463    1.5068    0.5965 N   0  0  0  0  0  0  0  0  0  0  0  0
    6.5096   -1.0342   -0.1470 C   0  0  0  0  0  0  0  0  0  0  0  0
    5.2474   -1.4828   -0.5104 C   0  0  0  0  0  0  0  0  0  0  0  0
    4.1496   -0.7749   -0.0411 C   0  0  0  0  0  0  0  0  0  0  0  0
    4.3359    0.3549    0.7742 C   0  0  0  0  0  0  0  0  0  0  0  0
    5.5944    0.8104    1.1391 C   0  0  0  0  0  0  0  0  0  0  0  0
    6.6801    0.0960    0.6664 C   0  0  0  0  0  0  0  0  0  0  0  0
    2.8072   -0.9914   -0.2444 N   0  0  0  0  0  0  0  0  0  0  0  0
    2.2083   -0.0440    0.4149 C   0  0  0  0  0  0  0  0  0  0  0  0
    3.0723    0.7927    1.0483 N   0  0  0  0  0  0  0  0  0  0  0  0
    8.8571   -1.2293   -0.3234 F   0  0  0  0  0  0  0  0  0  0  0  0
    7.7258   -3.0478   -0.1211 F   0  0  0  0  0  0  0  0  0  0  0  0
    7.6772   -1.9580   -1.9686 F   0  0  0  0  0  0  0  0  0  0  0  0
    0.5968    2.3429   -0.4160 C   0  0  0  0  0  0  0  0  0  0  0  0
    0.0186    3.7574   -0.2212 C   0  0  2  0  0  0  0  0  0  0  0  0
    1.2294    2.0754   -1.4128 O   0  0  0  0  0  0  0  0  0  0  0  0
    0.5542    4.3457    0.8510 F   0  0  0  0  0  0  0  0  0  0  0  0
   -1.3039    3.7109   -0.0423 F   0  0  0  0  0  0  0  0  0  0  0  0
    0.2687    4.5105   -1.2790 F   0  0  0  0  0  0  0  0  0  0  0  0
   -5.9559    1.2734   -0.1314 H   0  0  0  0  0  0  0  0  0  0  0  0
   -5.6427    0.1359    2.3574 H   0  0  0  0  0  0  0  0  0  0  0  0
   -7.2255    0.5501    1.7200 H   0  0  0  0  0  0  0  0  0  0  0  0
   -7.2583   -2.9021    0.0623 H   0  0  0  0  0  0  0  0  0  0  0  0
   -4.0647    1.3675   -1.5920 H   0  0  0  0  0  0  0  0  0  0  0  0
   -1.6751    0.9513   -1.9238 H   0  0  0  0  0  0  0  0  0  0  0  0
   -1.7334   -1.9074    1.2595 H   0  0  0  0  0  0  0  0  0  0  0  0
   -4.1024   -1.5050    1.5982 H   0  0  0  0  0  0  0  0  0  0  0  0
    0.2866   -0.4288   -1.4986 H   0  0  0  0  0  0  0  0  0  0  0  0
    0.2135   -1.7555   -0.3578 H   0  0  0  0  0  0  0  0  0  0  0  0
    0.4550   -0.2857    1.5423 H   0  0  0  0  0  0  0  0  0  0  0  0
   -0.2317    1.8002    1.3693 H   0  0  0  0  0  0  0  0  0  0  0  0
    5.1056   -2.3539   -1.1379 H   0  0  0  0  0  0  0  0  0  0  0  0
    5.7309    1.6829    1.7632 H   0  0  0  0  0  0  0  0  0  0  0  0
    7.6719    0.4299    0.9353 H   0  0  0  0  0  0  0  0  0  0  0  0
    2.8256    1.5856    1.6202 H   0  0  0  0  0  0  0  0  0  0  0  0
    7.6925   -1.8068   -0.6347 C   0  0  1  0  0  0  0  0  0  0  0  0
  1  2  1  0
  1  5  1  0
  1  9  1  0
  1 36  1  6
  2  3  1  0
  2 37  1  0
  2 38  1  0
  3  4  1  0
  3  8  2  0
  5  4  1  1
  4 39  1  0
  5  6  2  0
  5  7  2  0
  9 10  2  0
  9 14  1  0
 10 11  1  0
 10 40  1  0
 11 12  2  0
 11 41  1  0
 12 13  1  0
 12 15  1  0
 13 14  2  0
 13 42  1  0
 14 43  1  0
 15 16  1  0
 15 44  1  0
 15 45  1  0
 16 17  1  0
 16 25  1  0
 16 46  1  1
 17 30  1  0
 17 47  1  0
 18 19  2  0
 18 23  1  0
 18 52  1  0
 19 20  1  0
 19 48  1  0
 20 21  2  0
 20 24  1  0
 21 22  1  0
 21 26  1  0
 22 23  2  0
 22 49  1  0
 23 50  1  0
 24 25  2  0
 25 26  1  0
 26 51  1  0
 52 27  1  6
 52 28  1  0
 52 29  1  0
 30 31  1  0
 30 32  2  0
 31 33  1  1
 31 34  1  0
 31 35  1  0
M  END
