
     RDKit          3D

 28 29  0  0  0  0  0  0  0  0999 V2000
    2.1534    0.1227   -4.1538 C   0  0  0  0  0  0  0  0  0  0  0  0
    2.2475    0.1439   -2.7887 C   0  0  0  0  0  0  0  0  0  0  0  0
    1.0800    0.0987   -1.9915 C   0  0  0  0  0  0  0  0  0  0  0  0
   -0.1798    0.0328   -2.6312 C   0  0  0  0  0  0  0  0  0  0  0  0
   -0.2499    0.0114   -4.0438 C   0  0  0  0  0  0  0  0  0  0  0  0
    0.8947    0.0552   -4.7901 C   0  0  0  0  0  0  0  0  0  0  0  0
    1.1478    0.1176   -0.5832 C   0  0  0  0  0  0  0  0  0  0  0  0
    0.0120    0.0745    0.1909 C   0  0  0  0  0  0  0  0  0  0  0  0
   -1.2711    0.0125   -0.4550 C   0  0  0  0  0  0  0  0  0  0  0  0
   -1.3329   -0.0078   -1.8286 C   0  0  0  0  0  0  0  0  0  0  0  0
   -2.5343   -0.0245    0.3200 C   0  0  0  0  0  0  0  0  0  0  0  0
   -2.5995    0.0358    1.5316 O   0  0  0  0  0  0  0  0  0  0  0  0
   -3.6116   -0.1291   -0.4348 O   0  0  0  0  0  0  0  0  0  0  0  0
    0.0527    0.0860    1.5842 N   0  0  0  0  0  0  0  0  0  0  0  0
    1.1294    0.0513    2.3888 C   0  0  0  0  0  0  0  0  0  0  0  0
    2.2981    0.0222    2.0694 O   0  0  0  0  0  0  0  0  0  0  0  0
    0.7201    0.0493    3.8695 C   0  0  0  0  0  0  0  0  0  0  0  0
   -0.4225    0.1206    4.2375 O   0  0  0  0  0  0  0  0  0  0  0  0
    1.7746   -0.0392    4.6430 O   0  0  0  0  0  0  0  0  0  0  0  0
    3.0507    0.1587   -4.7574 H   0  0  0  0  0  0  0  0  0  0  0  0
    3.2156    0.1973   -2.3063 H   0  0  0  0  0  0  0  0  0  0  0  0
   -1.2196   -0.0402   -4.5237 H   0  0  0  0  0  0  0  0  0  0  0  0
    0.8418    0.0396   -5.8704 H   0  0  0  0  0  0  0  0  0  0  0  0
    2.1214    0.1686   -0.1236 H   0  0  0  0  0  0  0  0  0  0  0  0
   -2.2915   -0.0560   -2.3268 H   0  0  0  0  0  0  0  0  0  0  0  0
   -4.4061   -0.1388    0.1204 H   0  0  0  0  0  0  0  0  0  0  0  0
   -0.8609    0.0974    2.0355 H   0  0  0  0  0  0  0  0  0  0  0  0
    1.5102   -0.0404    5.5761 H   0  0  0  0  0  0  0  0  0  0  0  0
  1  2  2  0
  1  6  1  0
  1 20  1  0
  2  3  1  0
  2 21  1  0
  3  4  2  0
  3  7  1  0
  4  5  1  0
  4 10  1  0
  5  6  2  0
  5 22  1  0
  6 23  1  0
  7  8  2  0
  7 24  1  0
  8  9  1  0
  8 14  1  0
  9 10  2  0
  9 11  1  0
 10 25  1  0
 11 12  2  0
 11 13  1  0
 13 26  1  0
 14 15  1  0
 14 27  1  0
 15 16  2  0
 15 17  1  0
 17 18  2  0
 17 19  1  0
 19 28  1  0
M  END
