
     RDKit          3D

 37 39  0  0  0  0  0  0  0  0999 V2000
   -3.3959    0.0367   -1.4249 C   0  0  0  0  0  0  0  0  0  0  0  0
    0.9106    0.8631    0.4677 C   0  0  0  0  0  0  0  0  0  0  0  0
   -3.6440   -1.3798   -1.2930 N   0  0  0  0  0  0  0  0  0  0  0  0
    3.2559    1.2373   -1.0097 C   0  0  0  0  0  0  0  0  0  0  0  0
    2.8771   -0.0619   -0.6123 C   0  0  0  0  0  0  0  0  0  0  0  0
    1.7053   -0.2776    0.1568 C   0  0  0  0  0  0  0  0  0  0  0  0
    1.4586   -1.6119    0.5525 C   0  0  0  0  0  0  0  0  0  0  0  0
    2.3107   -2.6043    0.1543 C   0  0  0  0  0  0  0  0  0  0  0  0
    3.6711   -1.1794   -0.9620 C   0  0  0  0  0  0  0  0  0  0  0  0
   -1.9827    2.0391   -1.1639 C   0  0  0  0  0  0  0  0  0  0  0  0
   -0.4320   -0.1367    2.5047 O   0  0  0  0  0  0  0  0  0  0  0  0
   -1.0763    2.0978    1.6248 O   0  0  0  0  0  0  0  0  0  0  0  0
   -1.7537    0.0197    0.3762 N   0  0  0  0  0  0  0  0  0  0  0  0
   -1.9052   -1.4396    0.4636 C   0  0  0  0  0  0  0  0  0  0  0  0
   -3.3131   -1.8259    0.0433 C   0  0  0  0  0  0  0  0  0  0  0  0
   -2.0034    0.5275   -0.9942 C   0  0  1  0  0  0  0  0  0  0  0  0
    3.4066   -2.4051   -0.6070 N   0  0  0  0  0  0  0  0  0  0  0  0
    2.4977    2.3126   -0.6477 C   0  0  0  0  0  0  0  0  0  0  0  0
    1.3176    2.1183    0.0921 C   0  0  0  0  0  0  0  0  0  0  0  0
   -3.5436    0.3285   -2.4660 H   0  0  0  0  0  0  0  0  0  0  0  0
   -4.1392    0.5770   -0.8287 H   0  0  0  0  0  0  0  0  0  0  0  0
   -3.0832   -1.8875   -1.9676 H   0  0  0  0  0  0  0  0  0  0  0  0
    4.1583    1.3683   -1.5938 H   0  0  0  0  0  0  0  0  0  0  0  0
    0.6268   -1.8747    1.1847 H   0  0  0  0  0  0  0  0  0  0  0  0
    2.1208   -3.6267    0.4571 H   0  0  0  0  0  0  0  0  0  0  0  0
    4.5597   -1.0138   -1.5644 H   0  0  0  0  0  0  0  0  0  0  0  0
   -1.0018    2.4862   -1.0357 H   0  0  0  0  0  0  0  0  0  0  0  0
   -2.2929    2.2548   -2.1866 H   0  0  0  0  0  0  0  0  0  0  0  0
   -2.6828    2.5294   -0.4895 H   0  0  0  0  0  0  0  0  0  0  0  0
   -1.1850   -1.9462   -0.1903 H   0  0  0  0  0  0  0  0  0  0  0  0
   -1.7321   -1.7718    1.4838 H   0  0  0  0  0  0  0  0  0  0  0  0
   -4.0298   -1.3938    0.7478 H   0  0  0  0  0  0  0  0  0  0  0  0
   -3.4099   -2.9110    0.1029 H   0  0  0  0  0  0  0  0  0  0  0  0
   -1.2517    0.0842   -1.6631 H   0  0  0  0  0  0  0  0  0  0  0  0
    2.7873    3.3159   -0.9259 H   0  0  0  0  0  0  0  0  0  0  0  0
    0.7308    2.9857    0.3599 H   0  0  0  0  0  0  0  0  0  0  0  0
   -0.6342    0.7395    1.3596 S   0  0  1  0  0  0  0  0  0  0  0  0
 14 15  1  0
 14 13  1  0
 15  3  1  0
 12 37  2  0
  3  1  1  0
 13 37  1  0
 13 16  1  0
 37 11  2  0
 37  2  1  6
 10 16  1  0
 16  1  1  0
 19  2  2  0
 19 18  1  0
  2  6  1  0
 18  4  2  0
  6  7  1  0
  6  5  2  0
  7  8  2  0
  4  5  1  0
  5  9  1  0
  8 17  1  0
  9 17  2  0
  1 20  1  0
  1 21  1  0
  3 22  1  0
  4 23  1  0
  7 24  1  0
  8 25  1  0
  9 26  1  0
 10 27  1  0
 10 28  1  0
 10 29  1  0
 14 30  1  0
 14 31  1  0
 15 32  1  0
 15 33  1  0
 16 34  1  6
 18 35  1  0
 19 36  1  0
M  END
