
     RDKit          3D

 35 37  0  0  0  0  0  0  0  0999 V2000
    0.9014   -0.6294    1.4261 C   0  0  0  0  0  0  0  0  0  0  0  0
   -0.1845    1.1326    0.1504 C   0  0  0  0  0  0  0  0  0  0  0  0
   -1.2511    1.1025   -0.6530 C   0  0  0  0  0  0  0  0  0  0  0  0
   -3.5932    0.6569   -1.2032 C   0  0  0  0  0  0  0  0  0  0  0  0
   -3.4801   -1.9163   -0.1885 C   0  0  0  0  0  0  0  0  0  0  0  0
    0.8767    2.1580   -0.0710 C   0  0  0  0  0  0  0  0  0  0  0  0
    3.9853   -1.1676   -1.4772 C   0  0  0  0  0  0  0  0  0  0  0  0
    0.6378    3.3373   -0.2370 O   0  0  0  0  0  0  0  0  0  0  0  0
    2.1476    1.6702   -0.0570 N   0  0  0  0  0  0  0  0  0  0  0  0
    2.5093    0.3396   -0.3022 C   0  0  0  0  0  0  0  0  0  0  0  0
    1.9017   -0.7501    0.3299 C   0  0  0  0  0  0  0  0  0  0  0  0
    3.5620    0.1157   -1.1906 C   0  0  0  0  0  0  0  0  0  0  0  0
    3.3596   -2.2578   -0.8830 C   0  0  0  0  0  0  0  0  0  0  0  0
    2.3401   -2.0401    0.0224 C   0  0  0  0  0  0  0  0  0  0  0  0
   -0.0280    0.3508    1.3205 N   0  0  0  0  0  0  0  0  0  0  0  0
   -0.9774    0.5718    2.4029 C   0  0  0  0  0  0  0  0  0  0  0  0
    0.9184   -1.4061    2.3674 O   0  0  0  0  0  0  0  0  0  0  0  0
   -2.3973    0.1955   -0.6450 C   0  0  0  0  0  0  0  0  0  0  0  0
   -2.3536   -1.1106   -0.1483 C   0  0  0  0  0  0  0  0  0  0  0  0
   -4.6694   -1.4362   -0.7234 C   0  0  0  0  0  0  0  0  0  0  0  0
   -4.7222   -0.1462   -1.2341 C   0  0  0  0  0  0  0  0  0  0  0  0
   -1.2819    1.8669   -1.4224 H   0  0  0  0  0  0  0  0  0  0  0  0
   -3.4279   -2.9253    0.1987 H   0  0  0  0  0  0  0  0  0  0  0  0
    4.8023   -1.3152   -2.1708 H   0  0  0  0  0  0  0  0  0  0  0  0
    2.8646    2.3585   -0.2490 H   0  0  0  0  0  0  0  0  0  0  0  0
    4.0393    0.9624   -1.6679 H   0  0  0  0  0  0  0  0  0  0  0  0
    3.6768   -3.2658   -1.1119 H   0  0  0  0  0  0  0  0  0  0  0  0
    1.8737   -2.8818    0.5159 H   0  0  0  0  0  0  0  0  0  0  0  0
   -0.5251    0.3016    3.3527 H   0  0  0  0  0  0  0  0  0  0  0  0
   -1.2421    1.6259    2.4299 H   0  0  0  0  0  0  0  0  0  0  0  0
   -1.8885   -0.0142    2.2733 H   0  0  0  0  0  0  0  0  0  0  0  0
   -1.4359   -1.5190    0.2502 H   0  0  0  0  0  0  0  0  0  0  0  0
   -5.5470   -2.0688   -0.7476 H   0  0  0  0  0  0  0  0  0  0  0  0
   -5.6404    0.2335   -1.6626 H   0  0  0  0  0  0  0  0  0  0  0  0
   -3.6381    1.6595   -1.6113 H   0  0  0  0  0  0  0  0  0  0  0  0
 12  7  2  0
 12 10  1  0
  7 13  1  0
  9 10  1  0
  9  6  1  0
 10 11  2  0
  8  6  2  0
 13 14  2  0
  6  2  1  0
 11 14  1  0
 11  1  1  0
  2  3  2  0
  2 15  1  0
  1 15  1  0
  1 17  2  0
  3 18  1  0
 15 16  1  0
 18 19  1  0
 18  4  2  0
 19  5  2  0
  4 21  1  0
  5 20  1  0
 21 20  2  0
  3 22  1  0
  4 35  1  0
  5 23  1  0
  7 24  1  0
  9 25  1  0
 12 26  1  0
 13 27  1  0
 14 28  1  0
 16 29  1  0
 16 30  1  0
 16 31  1  0
 19 32  1  0
 20 33  1  0
 21 34  1  0
M  END
