
     RDKit          3D

 52 54  0  0  0  0  0  0  0  0999 V2000
   -1.3369   -0.0563    0.1495 C   0  0  0  0  0  0  0  0  0  0  0  0
   -2.6628   -0.1935    0.5561 C   0  0  0  0  0  0  0  0  0  0  0  0
   -0.8139    1.2266   -0.0135 C   0  0  0  0  0  0  0  0  0  0  0  0
   -3.4495    0.9262    0.7978 C   0  0  0  0  0  0  0  0  0  0  0  0
   -1.6047    2.3400    0.2208 C   0  0  0  0  0  0  0  0  0  0  0  0
   -2.9223    2.2011    0.6315 C   0  0  0  0  0  0  0  0  0  0  0  0
   -0.5049   -1.2400   -0.1186 C   0  0  0  0  0  0  0  0  0  0  0  0
   -1.0313   -2.4485   -0.5824 C   0  0  0  0  0  0  0  0  0  0  0  0
   -0.2832   -3.4961   -0.8440 N   0  0  0  0  0  0  0  0  0  0  0  0
    1.5899   -2.1774   -0.1986 C   0  0  0  0  0  0  0  0  0  0  0  0
    1.0412   -3.4056   -0.6605 C   0  0  0  0  0  0  0  0  0  0  0  0
    3.8658   -2.8715   -0.2492 O   0  0  0  0  0  0  0  0  0  0  0  0
    4.7395   -0.4016    0.8637 C   0  0  0  0  0  0  0  0  0  0  0  0
    4.9750    1.0688    0.5352 C   0  0  1  0  0  0  0  0  0  0  0  0
    6.3910    1.4751    0.9379 C   0  0  0  0  0  0  0  0  0  0  0  0
    4.7437    1.3842   -0.9410 C   0  0  0  0  0  0  0  0  0  0  0  0
    5.0887    2.8401   -1.2484 C   0  0  0  0  0  0  0  0  0  0  0  0
    6.4278    3.2325   -0.8395 N   0  0  0  0  0  0  0  0  0  0  0  0
   -7.2541    0.7887    0.9609 O   0  0  0  0  0  0  0  0  0  0  0  0
   -5.9054   -0.3102   -1.0147 C   0  0  0  0  0  0  0  0  0  0  0  0
   -5.8181    2.2572   -0.4897 O   0  0  0  0  0  0  0  0  0  0  0  0
   -6.0412    0.9918    0.1874 S   0  0  1  0  0  0  0  0  0  0  0  0
   -4.7846    0.7729    1.2557 N   0  0  0  0  0  0  0  0  0  0  0  0
    0.8056   -1.1490    0.0508 N   0  0  0  0  0  0  0  0  0  0  0  0
    1.7668   -4.4960   -0.9199 N   0  0  0  0  0  0  0  0  0  0  0  0
    3.0542   -1.9905    0.0328 C   0  0  0  0  0  0  0  0  0  0  0  0
    3.3878   -0.8119    0.5625 N   0  0  0  0  0  0  0  0  0  0  0  0
    6.6746    2.9273    0.5609 C   0  0  0  0  0  0  0  0  0  0  0  0
   -3.0877   -1.1773    0.7176 H   0  0  0  0  0  0  0  0  0  0  0  0
    0.2130    1.3521   -0.3306 H   0  0  0  0  0  0  0  0  0  0  0  0
   -1.1883    3.3297    0.0884 H   0  0  0  0  0  0  0  0  0  0  0  0
   -3.5277    3.0717    0.8405 H   0  0  0  0  0  0  0  0  0  0  0  0
   -2.0943   -2.5606   -0.7658 H   0  0  0  0  0  0  0  0  0  0  0  0
    5.4270   -1.0232    0.2889 H   0  0  0  0  0  0  0  0  0  0  0  0
    4.9578   -0.5777    1.9226 H   0  0  0  0  0  0  0  0  0  0  0  0
    4.2722    1.6700    1.1292 H   0  0  0  0  0  0  0  0  0  0  0  0
    6.5367    1.3342    2.0130 H   0  0  0  0  0  0  0  0  0  0  0  0
    7.1142    0.8241    0.4321 H   0  0  0  0  0  0  0  0  0  0  0  0
    5.3719    0.7267   -1.5538 H   0  0  0  0  0  0  0  0  0  0  0  0
    3.7075    1.1837   -1.2266 H   0  0  0  0  0  0  0  0  0  0  0  0
    4.9789    3.0339   -2.3174 H   0  0  0  0  0  0  0  0  0  0  0  0
    4.3723    3.4946   -0.7389 H   0  0  0  0  0  0  0  0  0  0  0  0
    7.1028    2.7320   -1.4073 H   0  0  0  0  0  0  0  0  0  0  0  0
   -6.7289   -0.1989   -1.7180 H   0  0  0  0  0  0  0  0  0  0  0  0
   -4.9581   -0.2228   -1.5423 H   0  0  0  0  0  0  0  0  0  0  0  0
   -5.9726   -1.2720   -0.5115 H   0  0  0  0  0  0  0  0  0  0  0  0
   -4.9373   -0.0350    1.8515 H   0  0  0  0  0  0  0  0  0  0  0  0
    2.7710   -4.4539   -0.8747 H   0  0  0  0  0  0  0  0  0  0  0  0
    1.3114   -5.3052   -1.3055 H   0  0  0  0  0  0  0  0  0  0  0  0
    2.6303   -0.1791    0.7771 H   0  0  0  0  0  0  0  0  0  0  0  0
    6.0429    3.5858    1.1672 H   0  0  0  0  0  0  0  0  0  0  0  0
    7.7087    3.1837    0.7992 H   0  0  0  0  0  0  0  0  0  0  0  0
 21 22  2  0
 17 16  1  0
 17 18  1  0
 16 14  1  0
 19 22  2  0
 22 23  1  1
 22 20  1  0
 13 14  1  0
 13 27  1  0
 14 15  1  0
 23  4  1  0
 18 28  1  0
 27 26  1  0
  4  2  2  0
  4  6  1  0
 15 28  1  0
  2  1  1  0
 26 12  2  0
 26 10  1  0
  6  5  2  0
 24 10  2  0
 24  7  1  0
 10 11  1  0
  1  7  1  0
  1  3  2  0
  5  3  1  0
  7  8  2  0
 11 25  1  0
 11  9  2  0
  8  9  1  0
  2 29  1  0
  3 30  1  0
  5 31  1  0
  6 32  1  0
  8 33  1  0
 13 34  1  0
 13 35  1  0
 14 36  1  1
 15 37  1  0
 15 38  1  0
 16 39  1  0
 16 40  1  0
 17 41  1  0
 17 42  1  0
 18 43  1  0
 20 44  1  0
 20 45  1  0
 20 46  1  0
 23 47  1  0
 25 48  1  0
 25 49  1  0
 27 50  1  0
 28 51  1  0
 28 52  1  0
M  END
