
     RDKit          3D

 30 33  0  0  0  0  0  0  0  0999 V2000
   -1.3007   -0.0034   -3.1560 C   0  0  0  0  0  0  0  0  0  0  0  0
   -1.0169    0.0247   -1.7269 C   0  0  0  0  0  0  0  0  0  0  0  0
   -0.0792   -0.0726   -3.8245 C   0  0  0  0  0  0  0  0  0  0  0  0
    0.9533   -0.0891   -2.9077 N   0  0  0  0  0  0  0  0  0  0  0  0
   -0.0164   -0.1152   -5.2064 C   0  0  0  0  0  0  0  0  0  0  0  0
   -1.2249   -0.0853   -5.8933 C   0  0  0  0  0  0  0  0  0  0  0  0
   -2.4552   -0.0157   -5.2355 C   0  0  0  0  0  0  0  0  0  0  0  0
   -2.5011    0.0262   -3.8506 C   0  0  0  0  0  0  0  0  0  0  0  0
    0.4981   -0.0357   -1.6293 C   0  0  0  0  0  0  0  0  0  0  0  0
    1.2929   -0.0377   -0.5242 C   0  0  0  0  0  0  0  0  0  0  0  0
    2.7715   -0.1003   -0.6755 C   0  0  0  0  0  0  0  0  0  0  0  0
    3.2871   -0.0845    0.5830 N   0  0  0  0  0  0  0  0  0  0  0  0
    2.2928   -0.0225    1.5380 C   0  0  0  0  0  0  0  0  0  0  0  0
    1.0347    0.0091    0.9064 C   0  0  0  0  0  0  0  0  0  0  0  0
    2.4365    0.0060    2.9094 C   0  0  0  0  0  0  0  0  0  0  0  0
    1.2875    0.0671    3.6897 C   0  0  0  0  0  0  0  0  0  0  0  0
    0.0426    0.0987    3.0769 C   0  0  0  0  0  0  0  0  0  0  0  0
   -0.1074    0.0710    1.6956 C   0  0  0  0  0  0  0  0  0  0  0  0
    3.4195   -0.1563   -1.7093 O   0  0  0  0  0  0  0  0  0  0  0  0
   -1.7978    0.0821   -0.8060 O   0  0  0  0  0  0  0  0  0  0  0  0
   -1.5094    0.1818    4.1564 Br  0  0  0  0  0  0  0  0  0  0  0  0
    1.9365   -0.1377   -3.1345 H   0  0  0  0  0  0  0  0  0  0  0  0
    0.9262   -0.1701   -5.7338 H   0  0  0  0  0  0  0  0  0  0  0  0
   -1.2084   -0.1167   -6.9749 H   0  0  0  0  0  0  0  0  0  0  0  0
   -3.3695    0.0062   -5.8120 H   0  0  0  0  0  0  0  0  0  0  0  0
   -3.4448    0.0819   -3.3235 H   0  0  0  0  0  0  0  0  0  0  0  0
    4.2753   -0.1193    0.7822 H   0  0  0  0  0  0  0  0  0  0  0  0
    3.4135   -0.0193    3.3732 H   0  0  0  0  0  0  0  0  0  0  0  0
    1.3791    0.0898    4.7669 H   0  0  0  0  0  0  0  0  0  0  0  0
   -1.0862    0.0968    1.2464 H   0  0  0  0  0  0  0  0  0  0  0  0
  1  2  1  0
  1  3  2  0
  1  8  1  0
  2  9  1  0
  2 20  2  0
  3  4  1  0
  3  5  1  0
  4  9  1  0
  4 22  1  0
  5  6  2  0
  5 23  1  0
  6  7  1  0
  6 24  1  0
  7  8  2  0
  7 25  1  0
  8 26  1  0
  9 10  2  0
 10 11  1  0
 10 14  1  0
 11 12  1  0
 11 19  2  0
 12 13  1  0
 12 27  1  0
 13 14  2  0
 13 15  1  0
 14 18  1  0
 15 16  2  0
 15 28  1  0
 16 17  1  0
 16 29  1  0
 17 18  2  0
 17 21  1  0
 18 30  1  0
M  END
