
     RDKit          3D

 68 72  0  0  0  0  0  0  0  0999 V2000
    8.0196    2.5525   -0.2807 C   0  0  0  0  0  0  0  0  0  0  0  0
    6.9187    3.5860   -0.4584 C   0  0  0  0  0  0  0  0  0  0  0  0
    5.8208    3.3506    0.5654 C   0  0  0  0  0  0  0  0  0  0  0  0
    5.1659    2.0012    0.3074 C   0  0  0  0  0  0  0  0  0  0  0  0
    6.1610    0.8755    0.1983 C   0  0  0  0  0  0  0  0  0  0  0  0
    7.5271    1.1426   -0.0650 C   0  0  0  0  0  0  0  0  0  0  0  0
    8.4612    0.2203   -0.0838 N   0  0  0  0  0  0  0  0  0  0  0  0
    8.1172   -1.0612    0.1518 C   0  0  0  0  0  0  0  0  0  0  0  0
    9.1378   -2.0420    0.1349 C   0  0  0  0  0  0  0  0  0  0  0  0
    8.8433   -3.3619    0.3377 C   0  0  0  0  0  0  0  0  0  0  0  0
    7.5107   -3.7639    0.5555 C   0  0  0  0  0  0  0  0  0  0  0  0
    6.5056   -2.8345    0.5838 C   0  0  0  0  0  0  0  0  0  0  0  0
    6.7818   -1.4591    0.4013 C   0  0  0  0  0  0  0  0  0  0  0  0
    5.7812   -0.4400    0.4307 C   0  0  0  0  0  0  0  0  0  0  0  0
    4.4684   -0.7523    0.7419 N   0  0  0  0  0  0  0  0  0  0  0  0
    3.4060   -0.5729   -0.2426 C   0  0  0  0  0  0  0  0  0  0  0  0
    2.0581   -0.3848    0.4327 C   0  0  0  0  0  0  0  0  0  0  0  0
    0.9105   -0.3297   -0.5669 C   0  0  0  0  0  0  0  0  0  0  0  0
   -0.4484   -0.1455    0.0966 C   0  0  0  0  0  0  0  0  0  0  0  0
   -1.5992   -0.1228   -0.9013 C   0  0  0  0  0  0  0  0  0  0  0  0
   -2.9603    0.0602   -0.2420 C   0  0  0  0  0  0  0  0  0  0  0  0
   -4.0959    0.0661   -1.2521 C   0  0  0  0  0  0  0  0  0  0  0  0
   -5.3831    0.2498   -0.6047 N   0  0  0  0  0  0  0  0  0  0  0  0
   -6.4761    0.2747   -1.5591 C   0  0  0  0  0  0  0  0  0  0  0  0
   -7.7885    0.4284   -0.8836 C   0  0  0  0  0  0  0  0  0  0  0  0
   -8.1493   -0.5416    0.0037 O   0  0  0  0  0  0  0  0  0  0  0  0
   -9.3670   -0.2062    0.4843 C   0  0  0  0  0  0  0  0  0  0  0  0
  -10.1068   -0.9170    1.4127 C   0  0  0  0  0  0  0  0  0  0  0  0
  -11.3384   -0.3819    1.7592 C   0  0  0  0  0  0  0  0  0  0  0  0
  -11.7991    0.8144    1.1949 C   0  0  0  0  0  0  0  0  0  0  0  0
  -11.0417    1.5106    0.2680 C   0  0  0  0  0  0  0  0  0  0  0  0
   -9.7992    0.9896   -0.0950 C   0  0  0  0  0  0  0  0  0  0  0  0
   -8.7407    1.3806   -0.9839 C   0  0  0  0  0  0  0  0  0  0  0  0
    8.7026    2.5544   -1.1329 H   0  0  0  0  0  0  0  0  0  0  0  0
    8.6282    2.8210    0.5892 H   0  0  0  0  0  0  0  0  0  0  0  0
    7.3402    4.5885   -0.3644 H   0  0  0  0  0  0  0  0  0  0  0  0
    6.4935    3.5193   -1.4647 H   0  0  0  0  0  0  0  0  0  0  0  0
    6.2434    3.3786    1.5749 H   0  0  0  0  0  0  0  0  0  0  0  0
    5.0645    4.1358    0.5162 H   0  0  0  0  0  0  0  0  0  0  0  0
    4.4426    1.7638    1.0933 H   0  0  0  0  0  0  0  0  0  0  0  0
    4.5826    2.0799   -0.6166 H   0  0  0  0  0  0  0  0  0  0  0  0
   10.1546   -1.7166   -0.0462 H   0  0  0  0  0  0  0  0  0  0  0  0
    9.6313   -4.1034    0.3221 H   0  0  0  0  0  0  0  0  0  0  0  0
    7.2800   -4.8121    0.6919 H   0  0  0  0  0  0  0  0  0  0  0  0
    5.4901   -3.1772    0.7343 H   0  0  0  0  0  0  0  0  0  0  0  0
    4.3755   -1.6468    1.1994 H   0  0  0  0  0  0  0  0  0  0  0  0
    3.6286    0.2916   -0.8666 H   0  0  0  0  0  0  0  0  0  0  0  0
    3.3664   -1.4338   -0.9223 H   0  0  0  0  0  0  0  0  0  0  0  0
    1.8874   -1.2082    1.1348 H   0  0  0  0  0  0  0  0  0  0  0  0
    2.0813    0.5319    1.0308 H   0  0  0  0  0  0  0  0  0  0  0  0
    1.0799    0.4871   -1.2769 H   0  0  0  0  0  0  0  0  0  0  0  0
    0.9021   -1.2508   -1.1602 H   0  0  0  0  0  0  0  0  0  0  0  0
   -0.6102   -0.9525    0.8194 H   0  0  0  0  0  0  0  0  0  0  0  0
   -0.4490    0.7848    0.6753 H   0  0  0  0  0  0  0  0  0  0  0  0
   -1.4353    0.6817   -1.6262 H   0  0  0  0  0  0  0  0  0  0  0  0
   -1.5961   -1.0552   -1.4769 H   0  0  0  0  0  0  0  0  0  0  0  0
   -3.1297   -0.7385    0.4865 H   0  0  0  0  0  0  0  0  0  0  0  0
   -2.9682    1.0010    0.3201 H   0  0  0  0  0  0  0  0  0  0  0  0
   -3.8992    0.8343   -2.0177 H   0  0  0  0  0  0  0  0  0  0  0  0
   -4.1145   -0.8924   -1.7813 H   0  0  0  0  0  0  0  0  0  0  0  0
   -6.3910    1.0764   -2.3064 H   0  0  0  0  0  0  0  0  0  0  0  0
   -9.7470   -1.8413    1.8451 H   0  0  0  0  0  0  0  0  0  0  0  0
  -11.9558   -0.9009    2.4804 H   0  0  0  0  0  0  0  0  0  0  0  0
  -12.7669    1.1976    1.4909 H   0  0  0  0  0  0  0  0  0  0  0  0
  -11.4044    2.4341   -0.1645 H   0  0  0  0  0  0  0  0  0  0  0  0
   -8.6976    2.2544   -1.6143 H   0  0  0  0  0  0  0  0  0  0  0  0
   -5.3722    1.1308   -0.1023 H   0  0  0  0  0  0  0  0  0  0  0  0
   -6.4640   -0.6673   -2.1183 H   0  0  0  0  0  0  0  0  0  0  0  0
 24 23  1  0
 24 25  1  0
  2  3  1  0
  2  1  1  0
 23 22  1  0
  3  4  1  0
  1  6  1  0
 25 33  2  0
 25 26  1  0
 33 32  1  0
 26 27  1  0
  4  5  1  0
 22 21  1  0
 21 20  1  0
  6  5  2  0
  6  7  1  0
 32 27  2  0
 32 31  1  0
 27 28  1  0
  5 14  1  0
 20 19  1  0
  7  8  2  0
 31 30  2  0
 28 29  2  0
 14 15  1  0
 14 13  2  0
 18 19  1  0
 18 17  1  0
 30 29  1  0
 15 16  1  0
  8 13  1  0
  8  9  1  0
 13 12  1  0
  9 10  2  0
 17 16  1  0
 12 11  2  0
 10 11  1  0
  1 34  1  0
  1 35  1  0
  2 36  1  0
  2 37  1  0
  3 38  1  0
  3 39  1  0
  4 40  1  0
  4 41  1  0
  9 42  1  0
 10 43  1  0
 11 44  1  0
 12 45  1  0
 15 46  1  0
 16 47  1  0
 16 48  1  0
 17 49  1  0
 17 50  1  0
 18 51  1  0
 18 52  1  0
 19 53  1  0
 19 54  1  0
 20 55  1  0
 20 56  1  0
 21 57  1  0
 21 58  1  0
 22 59  1  0
 22 60  1  0
 24 61  1  0
 28 62  1  0
 29 63  1  0
 30 64  1  0
 31 65  1  0
 33 66  1  0
 23 67  1  0
 24 68  1  0
M  END
