
     RDKit          3D

 39 40  0  0  0  0  0  0  0  0999 V2000
   -4.3584    0.8050   -0.5817 C   0  0  0  0  0  0  0  0  0  0  0  0
   -3.8966   -1.8663    0.4685 C   0  0  0  0  0  0  0  0  0  0  0  0
   -5.2672   -1.2116    0.6096 C   0  0  0  0  0  0  0  0  0  0  0  0
   -5.1559    0.3105    0.6194 C   0  0  0  0  0  0  0  0  0  0  0  0
   -3.1416   -1.2920   -0.7240 C   0  0  0  0  0  0  0  0  0  0  0  0
   -0.6459    0.0297   -0.2877 C   0  0  0  0  0  0  0  0  0  0  0  0
    3.3154   -1.3139    0.1138 C   0  0  0  0  0  0  0  0  0  0  0  0
    1.9859   -0.9216   -0.0184 C   0  0  0  0  0  0  0  0  0  0  0  0
    3.9724    0.9450    0.4711 C   0  0  0  0  0  0  0  0  0  0  0  0
    2.6592    1.3569    0.3440 C   0  0  0  0  0  0  0  0  0  0  0  0
    1.6515    0.4230    0.0976 C   0  0  0  0  0  0  0  0  0  0  0  0
    4.3305   -0.4001    0.3591 C   0  0  0  0  0  0  0  0  0  0  0  0
    5.7697   -0.8257    0.4540 C   0  0  0  0  0  0  0  0  0  0  0  0
    6.5232   -0.6156   -0.8583 C   0  0  0  0  0  0  0  0  0  0  0  0
    0.3977    0.9190   -0.0060 O   0  0  0  0  0  0  0  0  0  0  0  0
   -1.9106    2.0516   -0.1605 O   0  0  0  0  0  0  0  0  0  0  0  0
   -3.0564    0.1566   -0.6241 N   0  0  0  0  0  0  0  0  0  0  0  0
   -4.8894    0.5621   -1.5077 H   0  0  0  0  0  0  0  0  0  0  0  0
   -4.2257    1.8829   -0.5539 H   0  0  0  0  0  0  0  0  0  0  0  0
   -3.3056   -1.7066    1.3756 H   0  0  0  0  0  0  0  0  0  0  0  0
   -3.9978   -2.9461    0.3409 H   0  0  0  0  0  0  0  0  0  0  0  0
   -5.9009   -1.5212   -0.2284 H   0  0  0  0  0  0  0  0  0  0  0  0
   -5.7603   -1.5619    1.5183 H   0  0  0  0  0  0  0  0  0  0  0  0
   -4.6645    0.6461    1.5373 H   0  0  0  0  0  0  0  0  0  0  0  0
   -6.1482    0.7661    0.6042 H   0  0  0  0  0  0  0  0  0  0  0  0
   -2.1546   -1.7391   -0.8120 H   0  0  0  0  0  0  0  0  0  0  0  0
   -3.6689   -1.5361   -1.6515 H   0  0  0  0  0  0  0  0  0  0  0  0
   -0.7327   -0.7412    0.4881 H   0  0  0  0  0  0  0  0  0  0  0  0
   -0.4815   -0.4833   -1.2434 H   0  0  0  0  0  0  0  0  0  0  0  0
    1.2378   -1.6805   -0.2041 H   0  0  0  0  0  0  0  0  0  0  0  0
    4.7381    1.6883    0.6633 H   0  0  0  0  0  0  0  0  0  0  0  0
    2.4030    2.4052    0.4377 H   0  0  0  0  0  0  0  0  0  0  0  0
    6.2672   -0.2644    1.2488 H   0  0  0  0  0  0  0  0  0  0  0  0
    5.8241   -1.8789    0.7382 H   0  0  0  0  0  0  0  0  0  0  0  0
    6.5101    0.4339   -1.1559 H   0  0  0  0  0  0  0  0  0  0  0  0
    7.5655   -0.9229   -0.7645 H   0  0  0  0  0  0  0  0  0  0  0  0
    6.0736   -1.1951   -1.6658 H   0  0  0  0  0  0  0  0  0  0  0  0
   -1.9336    0.8459   -0.3470 C   0  0  0  0  0  0  0  0  0  0  0  0
    3.5536   -2.3674    0.0215 H   0  0  0  0  0  0  0  0  0  0  0  0
 16 38  2  0
  1  4  1  0
  1 17  1  0
 38 17  1  0
 38  6  1  0
  4  3  1  0
 17  5  1  0
 15  6  1  0
 15 11  1  0
  3  2  1  0
  2  5  1  0
 11 10  2  0
 11  8  1  0
 10  9  1  0
  8  7  2  0
  9 12  2  0
  7 12  1  0
 12 13  1  0
 14 13  1  0
  1 18  1  0
  1 19  1  0
  2 20  1  0
  2 21  1  0
  3 22  1  0
  3 23  1  0
  4 24  1  0
  4 25  1  0
  5 26  1  0
  5 27  1  0
  6 28  1  0
  6 29  1  0
  7 39  1  0
  8 30  1  0
  9 31  1  0
 10 32  1  0
 13 33  1  0
 13 34  1  0
 14 35  1  0
 14 36  1  0
 14 37  1  0
M  END
