
     RDKit          3D

 31 33  0  0  0  0  0  0  0  0999 V2000
   -3.7359   -1.4159    0.6939 C   0  0  0  0  0  0  0  0  0  0  0  0
   -5.0669   -1.0368    0.6884 C   0  0  0  0  0  0  0  0  0  0  0  0
   -2.7810   -0.6559    0.0163 C   0  0  0  0  0  0  0  0  0  0  0  0
   -7.6990   -0.2512    0.6384 O   0  0  0  0  0  0  0  0  0  0  0  0
   -7.2633    1.5347   -0.6243 O   0  0  0  0  0  0  0  0  0  0  0  0
   -4.5199    0.8680   -0.6700 C   0  0  0  0  0  0  0  0  0  0  0  0
   -3.1889    0.4983   -0.6594 C   0  0  0  0  0  0  0  0  0  0  0  0
   -0.8511   -2.2838    0.0163 C   0  0  0  0  0  0  0  0  0  0  0  0
    0.7724   -0.0636   -0.0412 C   0  0  0  0  0  0  0  0  0  0  0  0
   -0.5531    0.0507   -0.0115 O   0  0  0  0  0  0  0  0  0  0  0  0
    0.5874   -2.5069   -0.0045 C   0  0  0  0  0  0  0  0  0  0  0  0
    1.5314    1.1120   -0.0777 C   0  0  0  0  0  0  0  0  0  0  0  0
    0.6649    2.7713   -0.0964 Br  0  0  0  0  0  0  0  0  0  0  0  0
    2.9058    1.0402   -0.1013 C   0  0  0  0  0  0  0  0  0  0  0  0
   -5.4717    0.1050    0.0019 C   0  0  0  0  0  0  0  0  0  0  0  0
    2.8016   -1.3743   -0.0559 C   0  0  0  0  0  0  0  0  0  0  0  0
   -1.3651   -1.0297    0.0210 C   0  0  0  0  0  0  0  0  0  0  0  0
    3.5317   -0.2117   -0.0890 C   0  0  0  0  0  0  0  0  0  0  0  0
    1.4050   -1.3019   -0.0314 C   0  0  0  0  0  0  0  0  0  0  0  0
   -1.6377   -3.3642    0.0084 O   0  0  0  0  0  0  0  0  0  0  0  0
   -3.4483   -2.2950    1.2505 H   0  0  0  0  0  0  0  0  0  0  0  0
   -5.7793   -1.6401    1.2331 H   0  0  0  0  0  0  0  0  0  0  0  0
   -8.6099    0.0748    0.5844 H   0  0  0  0  0  0  0  0  0  0  0  0
   -4.8174    1.7590   -1.2056 H   0  0  0  0  0  0  0  0  0  0  0  0
   -2.4733    1.1072   -1.1946 H   0  0  0  0  0  0  0  0  0  0  0  0
    3.4946    1.9470   -0.1300 H   0  0  0  0  0  0  0  0  0  0  0  0
    3.2781   -2.3452   -0.0481 H   0  0  0  0  0  0  0  0  0  0  0  0
   -1.0712   -4.1512   -0.0087 H   0  0  0  0  0  0  0  0  0  0  0  0
   -6.8885    0.5484   -0.0377 C   0  0  0  0  0  0  0  0  0  0  0  0
    1.0378   -3.6445   -0.0094 O   0  0  0  0  0  0  0  0  0  0  0  0
    5.4115   -0.2825   -0.1199 Br  0  0  0  0  0  0  0  0  0  0  0  0
 31 18  1  0
 14 18  2  0
 14 12  1  0
 18 16  1  0
 13 12  1  0
 12  9  2  0
 16 19  2  0
  9 19  1  0
  9 10  1  0
 19 11  1  0
 10 17  1  0
 11 30  2  0
 11  8  1  0
 17  8  2  0
 17  3  1  0
  8 20  1  0
  7  3  1  0
  7  6  2  0
  3  1  2  0
  6 15  1  0
  1  2  1  0
 15  2  2  0
 15 29  1  0
  5 29  2  0
 29  4  1  0
  1 21  1  0
  2 22  1  0
  4 23  1  0
  6 24  1  0
  7 25  1  0
 14 26  1  0
 16 27  1  0
 20 28  1  0
M  END
