
     RDKit          3D

 22 23  0  0  0  0  0  0  0  0999 V2000
   -3.7046   -0.6627   -0.0502 F   0  0  0  0  0  0  0  0  0  0  0  0
   -2.7901    0.3122   -0.0516 C   0  0  1  0  0  0  0  0  0  0  0  0
   -2.9978    1.0386   -1.1634 F   0  0  0  0  0  0  0  0  0  0  0  0
   -3.0851    1.1239    0.9782 F   0  0  0  0  0  0  0  0  0  0  0  0
   -1.3947   -0.2043    0.0258 C   0  0  0  0  0  0  0  0  0  0  0  0
   -0.3471    0.7164    0.0425 C   0  0  0  0  0  0  0  0  0  0  0  0
    0.9582    0.2782    0.1172 C   0  0  0  0  0  0  0  0  0  0  0  0
    2.0224    1.1761    0.1981 N   0  0  0  0  0  0  0  0  0  0  0  0
    3.3212    0.8453    0.0089 C   0  0  0  0  0  0  0  0  0  0  0  0
    4.2198    1.6636    0.0498 O   0  0  0  0  0  0  0  0  0  0  0  0
    3.5652   -0.6105   -0.3201 C   0  0  0  0  0  0  0  0  0  0  0  0
    2.5652   -1.4607    0.2847 N   0  0  0  0  0  0  0  0  0  0  0  0
    1.2510   -1.0954    0.1655 C   0  0  0  0  0  0  0  0  0  0  0  0
    0.1962   -2.0017    0.1404 C   0  0  0  0  0  0  0  0  0  0  0  0
   -1.1176   -1.5620    0.0792 C   0  0  0  0  0  0  0  0  0  0  0  0
   -0.5384    1.7826    0.0071 H   0  0  0  0  0  0  0  0  0  0  0  0
    1.8117    2.1547    0.3412 H   0  0  0  0  0  0  0  0  0  0  0  0
    3.5964   -0.6993   -1.4159 H   0  0  0  0  0  0  0  0  0  0  0  0
    4.5481   -0.8871    0.0561 H   0  0  0  0  0  0  0  0  0  0  0  0
    2.7530   -2.4477    0.1986 H   0  0  0  0  0  0  0  0  0  0  0  0
    0.4046   -3.0634    0.1789 H   0  0  0  0  0  0  0  0  0  0  0  0
   -1.9094   -2.2973    0.0650 H   0  0  0  0  0  0  0  0  0  0  0  0
 10  9  2  0
  9 11  1  0
  9  8  1  0
 11 12  1  0
  8  7  1  0
 12 13  1  0
  7 13  2  0
  7  6  1  0
 13 14  1  0
  6  5  2  0
 14 15  2  0
  5 15  1  0
  5  2  1  0
  2  3  1  6
  4  2  1  0
  2  1  1  0
  6 16  1  0
  8 17  1  0
 11 18  1  0
 11 19  1  0
 12 20  1  0
 14 21  1  0
 15 22  1  0
M  END
