
     RDKit          3D

 76 80  0  0  0  0  0  0  0  0999 V2000
    3.2236    0.5871   -0.0332 C   0  0  0  0  0  0  0  0  0  0  0  0
    3.3195    0.4807    1.1798 O   0  0  0  0  0  0  0  0  0  0  0  0
    4.3662    0.2253   -0.9313 C   0  0  0  0  0  0  0  0  0  0  0  0
    5.2926   -0.6950   -0.4490 C   0  0  0  0  0  0  0  0  0  0  0  0
    6.3763   -1.0752   -1.2312 C   0  0  0  0  0  0  0  0  0  0  0  0
    6.5462   -0.5153   -2.4967 C   0  0  0  0  0  0  0  0  0  0  0  0
    5.6330    0.4150   -2.9613 C   0  0  0  0  0  0  0  0  0  0  0  0
    4.5405    0.7906   -2.1904 C   0  0  0  0  0  0  0  0  0  0  0  0
    7.2892   -1.9748   -0.8175 O   0  0  0  0  0  0  0  0  0  0  0  0
   -2.4954   -0.2712    0.3095 N   0  0  0  0  0  0  0  0  0  0  0  0
   -3.4799   -0.2734   -0.7715 C   0  0  0  0  0  0  0  0  0  0  0  0
   -4.7558    0.4641   -0.3961 C   0  0  0  0  0  0  0  0  0  0  0  0
   -5.7293    0.5366   -1.5728 C   0  0  0  0  0  0  0  0  0  0  0  0
   -1.5233    0.8086    0.3929 C   0  0  0  0  0  0  0  0  0  0  0  0
   -0.2738    0.5851   -0.4648 C   0  0  1  0  0  0  0  0  0  0  0  0
   -0.5088    0.7552   -1.8439 O   0  0  0  0  0  0  0  0  0  0  0  0
    0.9105    1.4210    0.0360 C   0  0  1  0  0  0  0  0  0  0  0  0
    2.1062    1.0035   -0.6557 N   0  0  0  0  0  0  0  0  0  0  0  0
    0.7028    2.9364   -0.1012 C   0  0  0  0  0  0  0  0  0  0  0  0
    2.9148    4.1239   -0.3056 C   0  0  0  0  0  0  0  0  0  0  0  0
    3.9989    4.7897    0.2515 C   0  0  0  0  0  0  0  0  0  0  0  0
    4.0348    5.0425    1.6161 C   0  0  0  0  0  0  0  0  0  0  0  0
    2.9797    4.6261    2.4184 C   0  0  0  0  0  0  0  0  0  0  0  0
    1.9003    3.9595    1.8566 C   0  0  0  0  0  0  0  0  0  0  0  0
    1.8530    3.7014    0.4887 C   0  0  0  0  0  0  0  0  0  0  0  0
   -6.9945    1.2610   -1.2070 C   0  0  0  0  0  0  0  0  0  0  0  0
   -7.0631    2.6513   -1.2763 C   0  0  0  0  0  0  0  0  0  0  0  0
   -8.2141    3.3284   -0.8965 C   0  0  0  0  0  0  0  0  0  0  0  0
   -9.3195    2.6221   -0.4391 C   0  0  0  0  0  0  0  0  0  0  0  0
   -9.2637    1.2364   -0.3665 C   0  0  0  0  0  0  0  0  0  0  0  0
   -8.1096    0.5639   -0.7472 C   0  0  0  0  0  0  0  0  0  0  0  0
    3.4206   -3.9222    0.6823 C   0  0  0  0  0  0  0  0  0  0  0  0
    2.5334   -4.2482   -0.1895 N   0  0  0  0  0  0  0  0  0  0  0  0
    2.9041   -2.8940    1.9759 S   0  0  0  0  0  0  0  0  0  0  0  0
    1.3239   -3.6809    0.1223 C   0  0  0  0  0  0  0  0  0  0  0  0
    1.3229   -2.8915    1.2842 C   0  0  0  0  0  0  0  0  0  0  0  0
    0.1774   -2.2431    1.7289 C   0  0  0  0  0  0  0  0  0  0  0  0
   -0.9684   -2.4060    0.9739 C   0  0  0  0  0  0  0  0  0  0  0  0
   -0.9980   -3.1998   -0.1817 C   0  0  0  0  0  0  0  0  0  0  0  0
    0.1440   -3.8371   -0.6101 C   0  0  0  0  0  0  0  0  0  0  0  0
   -2.4270   -1.4893    1.4005 S   0  0  2  0  0  0  0  0  0  0  0  0
   -3.5847   -2.3379    1.1691 O   0  0  0  0  0  0  0  0  0  0  0  0
   -2.2013   -0.9310    2.7248 O   0  0  0  0  0  0  0  0  0  0  0  0
    5.1561   -1.1168    0.5403 H   0  0  0  0  0  0  0  0  0  0  0  0
    7.3920   -0.8082   -3.1060 H   0  0  0  0  0  0  0  0  0  0  0  0
    5.7779    0.8574   -3.9379 H   0  0  0  0  0  0  0  0  0  0  0  0
    3.8588    1.5371   -2.5759 H   0  0  0  0  0  0  0  0  0  0  0  0
    7.0976   -2.2664    0.0806 H   0  0  0  0  0  0  0  0  0  0  0  0
   -3.0080    0.1941   -1.6358 H   0  0  0  0  0  0  0  0  0  0  0  0
   -3.7068   -1.2962   -1.0722 H   0  0  0  0  0  0  0  0  0  0  0  0
   -5.2320   -0.0386    0.4495 H   0  0  0  0  0  0  0  0  0  0  0  0
   -4.5094    1.4777   -0.0655 H   0  0  0  0  0  0  0  0  0  0  0  0
   -5.2416    1.0410   -2.4118 H   0  0  0  0  0  0  0  0  0  0  0  0
   -5.9674   -0.4752   -1.9117 H   0  0  0  0  0  0  0  0  0  0  0  0
   -2.0315    1.7341    0.1077 H   0  0  0  0  0  0  0  0  0  0  0  0
   -1.2324    0.9520    1.4349 H   0  0  0  0  0  0  0  0  0  0  0  0
    0.0313   -0.4574   -0.3592 H   0  0  0  0  0  0  0  0  0  0  0  0
   -0.8500    1.6416   -2.0055 H   0  0  0  0  0  0  0  0  0  0  0  0
    1.0535    1.1831    1.0918 H   0  0  0  0  0  0  0  0  0  0  0  0
    2.0650    0.9883   -1.6625 H   0  0  0  0  0  0  0  0  0  0  0  0
    0.5865    3.2045   -1.1553 H   0  0  0  0  0  0  0  0  0  0  0  0
   -0.2258    3.2201    0.4008 H   0  0  0  0  0  0  0  0  0  0  0  0
    2.8929    3.9346   -1.3726 H   0  0  0  0  0  0  0  0  0  0  0  0
    4.8146    5.1147   -0.3818 H   0  0  0  0  0  0  0  0  0  0  0  0
    4.8778    5.5630    2.0518 H   0  0  0  0  0  0  0  0  0  0  0  0
    2.9969    4.8223    3.4830 H   0  0  0  0  0  0  0  0  0  0  0  0
    1.0819    3.6351    2.4897 H   0  0  0  0  0  0  0  0  0  0  0  0
   -6.2055    3.2094   -1.6349 H   0  0  0  0  0  0  0  0  0  0  0  0
   -8.2490    4.4087   -0.9600 H   0  0  0  0  0  0  0  0  0  0  0  0
  -10.2181    3.1473   -0.1423 H   0  0  0  0  0  0  0  0  0  0  0  0
  -10.1214    0.6775   -0.0142 H   0  0  0  0  0  0  0  0  0  0  0  0
   -8.0762   -0.5181   -0.6891 H   0  0  0  0  0  0  0  0  0  0  0  0
    0.1899   -1.6292    2.6188 H   0  0  0  0  0  0  0  0  0  0  0  0
   -1.9149   -3.3157   -0.7440 H   0  0  0  0  0  0  0  0  0  0  0  0
    0.1360   -4.4524   -1.4996 H   0  0  0  0  0  0  0  0  0  0  0  0
    4.4491   -4.2563    0.6405 H   0  0  0  0  0  0  0  0  0  0  0  0
 32 33  2  0
 32 34  1  0
 33 35  1  0
 34 36  1  0
 35 36  2  0
 35 40  1  0
 36 37  1  0
 37 38  2  0
 38 39  1  0
 38 41  1  0
 39 40  2  0
 41 42  2  0
 41 43  2  0
 41 10  1  6
 10 11  1  0
 10 14  1  0
 11 12  1  0
 12 13  1  0
 13 26  1  0
 14 15  1  0
 15 16  1  0
 15 17  1  0
 17 18  1  0
 17 19  1  0
 18  1  1  0
  1  3  1  0
  1  2  2  0
  3  8  1  0
  3  4  2  0
  8  7  2  0
  7  6  1  0
  6  5  2  0
  5  4  1  0
  5  9  1  0
 19 25  1  0
 20 21  2  0
 20 25  1  0
 21 22  1  0
 22 23  2  0
 23 24  1  0
 24 25  2  0
 26 27  2  0
 26 31  1  0
 27 28  1  0
 28 29  2  0
 29 30  1  0
 30 31  2  0
 32 76  1  0
 37 73  1  0
 39 74  1  0
 40 75  1  0
 11 49  1  0
 11 50  1  0
 12 51  1  0
 12 52  1  0
 13 53  1  0
 13 54  1  0
 14 55  1  0
 14 56  1  0
 15 57  1  6
 16 58  1  0
 17 59  1  1
 18 60  1  0
  8 47  1  0
  7 46  1  0
  6 45  1  0
  4 44  1  0
  9 48  1  0
 19 61  1  0
 19 62  1  0
 20 63  1  0
 21 64  1  0
 22 65  1  0
 23 66  1  0
 24 67  1  0
 27 68  1  0
 28 69  1  0
 29 70  1  0
 30 71  1  0
 31 72  1  0
M  END
