
     RDKit          3D

 37 37  0  0  0  0  0  0  0  0999 V2000
    1.5602   -4.0727    0.1338 O   0  0  0  0  0  0  0  0  0  0  0  0
    1.8360   -2.9104    0.1174 C   0  0  0  0  0  0  0  0  0  0  0  0
    2.9851   -2.3296   -0.0539 O   0  0  0  0  0  0  0  0  0  0  0  0
    0.7286   -1.8830    0.3261 C   0  0  0  0  0  0  0  0  0  0  0  0
   -0.7077   -2.3216    0.2678 C   0  0  2  0  0  0  0  0  0  0  0  0
   -0.8839   -2.5206   -1.0900 F   0  0  0  0  0  0  0  0  0  0  0  0
   -1.6553   -1.2535    0.7922 C   0  0  1  0  0  0  0  0  0  0  0  0
    1.0809   -0.7133    0.4810 O   0  0  0  0  0  0  0  0  0  0  0  0
    0.1711    0.4622    0.6271 C   0  0  1  0  0  0  0  0  0  0  0  0
    0.8149    1.5699   -0.2050 C   0  0  1  0  0  0  0  0  0  0  0  0
    2.1755    1.9919    0.3348 C   0  0  0  0  0  0  0  0  0  0  0  0
    2.6856    3.2497   -0.3484 C   0  0  0  0  0  0  0  0  0  0  0  0
    3.9059    3.6091    0.2573 O   0  0  0  0  0  0  0  0  0  0  0  0
    0.8274    1.2193   -1.5620 O   0  0  0  0  0  0  0  0  0  0  0  0
   -1.2552    0.1043    0.2152 C   0  0  2  0  0  0  0  0  0  0  0  0
   -2.1166    1.1492    0.6781 N   0  0  0  0  0  0  0  0  0  0  0  0
   -2.8843    1.9021   -0.1503 C   0  0  0  0  0  0  0  0  0  0  0  0
   -2.8428    1.7959   -1.3630 O   0  0  0  0  0  0  0  0  0  0  0  0
   -3.7791    2.8934    0.5435 C   0  0  0  0  0  0  0  0  0  0  0  0
   -2.9581   -1.5457    0.4120 O   0  0  0  0  0  0  0  0  0  0  0  0
    3.6997   -2.9757   -0.1873 H   0  0  0  0  0  0  0  0  0  0  0  0
   -0.8341   -3.2701    0.7926 H   0  0  0  0  0  0  0  0  0  0  0  0
   -1.5339   -1.2309    1.8836 H   0  0  0  0  0  0  0  0  0  0  0  0
    0.2375    0.6891    1.6939 H   0  0  0  0  0  0  0  0  0  0  0  0
    0.1282    2.4165   -0.0947 H   0  0  0  0  0  0  0  0  0  0  0  0
    2.0795    2.1838    1.4066 H   0  0  0  0  0  0  0  0  0  0  0  0
    2.9075    1.1857    0.2182 H   0  0  0  0  0  0  0  0  0  0  0  0
    2.8114    3.0686   -1.4220 H   0  0  0  0  0  0  0  0  0  0  0  0
    1.9330    4.0430   -0.2452 H   0  0  0  0  0  0  0  0  0  0  0  0
    4.2682    4.3597   -0.2218 H   0  0  0  0  0  0  0  0  0  0  0  0
    1.6700    0.8097   -1.7872 H   0  0  0  0  0  0  0  0  0  0  0  0
   -1.3253    0.0739   -0.8749 H   0  0  0  0  0  0  0  0  0  0  0  0
   -2.2413    1.2519    1.6738 H   0  0  0  0  0  0  0  0  0  0  0  0
   -3.7151    2.8560    1.6288 H   0  0  0  0  0  0  0  0  0  0  0  0
   -3.5201    3.9000    0.2164 H   0  0  0  0  0  0  0  0  0  0  0  0
   -4.8125    2.7118    0.2498 H   0  0  0  0  0  0  0  0  0  0  0  0
   -3.3984   -2.0262    1.1201 H   0  0  0  0  0  0  0  0  0  0  0  0
 19 17  1  0
 13 12  1  0
 16 17  1  0
 16 15  1  0
 17 18  2  0
 11 12  1  0
 11 10  1  0
 10  9  1  0
 10 14  1  0
  9 15  1  0
  9  8  1  0
  7 15  1  0
  7 20  1  0
  7  5  1  0
  8  4  2  0
  5  4  1  0
  5  6  1  0
  4  2  1  0
  2  1  2  0
  2  3  1  0
  3 21  1  0
  5 22  1  1
  7 23  1  1
  9 24  1  1
 10 25  1  6
 11 26  1  0
 11 27  1  0
 12 28  1  0
 12 29  1  0
 13 30  1  0
 14 31  1  0
 15 32  1  6
 16 33  1  0
 19 34  1  0
 19 35  1  0
 19 36  1  0
 20 37  1  0
M  CHG  1   8   1
M  END
