
     RDKit          3D

 54 58  0  0  0  0  0  0  0  0999 V2000
    1.8575   -3.5557    0.1163 C   0  0  0  0  0  0  0  0  0  0  0  0
   -0.2340   -4.3831    0.1950 C   0  0  0  0  0  0  0  0  0  0  0  0
    7.0542    3.2890    0.7711 N   0  0  0  0  0  0  0  0  0  0  0  0
    4.0528   -2.5861    0.0693 C   0  0  0  0  0  0  0  0  0  0  0  0
   -5.7649    1.2833    0.2169 N   0  0  0  0  0  0  0  0  0  0  0  0
    5.6133   -0.1339    0.1952 C   0  0  0  0  0  0  0  0  0  0  0  0
    6.5840    2.0601    0.9490 C   0  0  0  0  0  0  0  0  0  0  0  0
    7.1098    3.7557   -0.4692 C   0  0  0  0  0  0  0  0  0  0  0  0
    6.7077    3.0214   -1.5765 C   0  0  0  0  0  0  0  0  0  0  0  0
    6.2224    1.7406   -1.3783 C   0  0  0  0  0  0  0  0  0  0  0  0
   -1.8850   -0.4119    0.0489 C   0  0  0  0  0  0  0  0  0  0  0  0
   -3.3440    1.5219    0.0886 C   0  0  0  0  0  0  0  0  0  0  0  0
   -3.0135   -1.2250    0.0916 C   0  0  0  0  0  0  0  0  0  0  0  0
   -8.1453    1.1438    0.7243 C   0  0  0  0  0  0  0  0  0  0  0  0
   -7.3630    3.0518   -0.3120 C   0  0  0  0  0  0  0  0  0  0  0  0
   -6.0770    2.3568   -0.7169 C   0  0  0  0  0  0  0  0  0  0  0  0
   -8.4395    2.1498   -0.2164 O   0  0  0  0  0  0  0  0  0  0  0  0
   -6.8872    0.3750    0.3639 C   0  0  0  0  0  0  0  0  0  0  0  0
   -4.4912    0.7151    0.1335 C   0  0  0  0  0  0  0  0  0  0  0  0
   -2.0793    0.9725    0.0466 C   0  0  0  0  0  0  0  0  0  0  0  0
   -4.2848   -0.6660    0.1257 C   0  0  0  0  0  0  0  0  0  0  0  0
   -0.0694   -2.1161    0.0629 C   0  0  0  0  0  0  0  0  0  0  0  0
   -0.8360   -3.1835    0.1360 N   0  0  0  0  0  0  0  0  0  0  0  0
    1.0413   -4.6404    0.1867 N   0  0  0  0  0  0  0  0  0  0  0  0
    1.3666   -2.2507    0.0500 C   0  0  0  0  0  0  0  0  0  0  0  0
    2.1328   -1.1541   -0.0012 N   0  0  0  0  0  0  0  0  0  0  0  0
    3.4444   -1.2973    0.0045 C   0  0  0  0  0  0  0  0  0  0  0  0
    3.2639   -3.6941    0.1219 C   0  0  0  0  0  0  0  0  0  0  0  0
    4.1906   -0.1682   -0.0716 N   0  0  0  0  0  0  0  0  0  0  0  0
    6.1549    1.2364   -0.0839 C   0  0  0  0  0  0  0  0  0  0  0  0
   -0.9071   -5.2326    0.2524 H   0  0  0  0  0  0  0  0  0  0  0  0
    5.1284   -2.6906    0.0857 H   0  0  0  0  0  0  0  0  0  0  0  0
    5.8423   -0.4231    1.2280 H   0  0  0  0  0  0  0  0  0  0  0  0
    6.1201   -0.8524   -0.4531 H   0  0  0  0  0  0  0  0  0  0  0  0
    6.5441    1.7016    1.9736 H   0  0  0  0  0  0  0  0  0  0  0  0
    7.4948    4.7618   -0.5930 H   0  0  0  0  0  0  0  0  0  0  0  0
    6.7777    3.4473   -2.5678 H   0  0  0  0  0  0  0  0  0  0  0  0
    5.9000    1.1378   -2.2187 H   0  0  0  0  0  0  0  0  0  0  0  0
   -3.4283    2.6003    0.1158 H   0  0  0  0  0  0  0  0  0  0  0  0
   -2.9146   -2.2981    0.0876 H   0  0  0  0  0  0  0  0  0  0  0  0
   -8.0253    1.5801    1.7256 H   0  0  0  0  0  0  0  0  0  0  0  0
   -8.9933    0.4599    0.7556 H   0  0  0  0  0  0  0  0  0  0  0  0
   -7.2121    3.5662    0.6482 H   0  0  0  0  0  0  0  0  0  0  0  0
   -7.6243    3.8002   -1.0608 H   0  0  0  0  0  0  0  0  0  0  0  0
   -5.2952    3.1192   -0.7387 H   0  0  0  0  0  0  0  0  0  0  0  0
   -6.1743    1.9644   -1.7400 H   0  0  0  0  0  0  0  0  0  0  0  0
   -7.0559   -0.2101   -0.5515 H   0  0  0  0  0  0  0  0  0  0  0  0
   -6.6871   -0.3323    1.1700 H   0  0  0  0  0  0  0  0  0  0  0  0
   -1.2239    1.6374    0.0220 H   0  0  0  0  0  0  0  0  0  0  0  0
   -5.1214   -1.3498    0.1359 H   0  0  0  0  0  0  0  0  0  0  0  0
    0.1494   -0.1562   -0.0458 H   0  0  0  0  0  0  0  0  0  0  0  0
    3.6994   -4.6839    0.1770 H   0  0  0  0  0  0  0  0  0  0  0  0
    3.6780    0.6868    0.0875 H   0  0  0  0  0  0  0  0  0  0  0  0
   -0.5677   -0.8692    0.0022 N   0  0  0  0  0  0  0  0  0  0  0  0
  6 30  1  0
  6 29  1  0
 30  7  1  0
 30 10  2  0
  7  3  2  0
 10  9  1  0
  3  8  1  0
 29 27  1  0
  9  8  2  0
 27 26  2  0
 27  4  1  0
 16 15  1  0
 16  5  1  0
 15 17  1  0
 26 25  1  0
 13 21  2  0
 13 11  1  0
 21 19  1  0
  4 28  2  0
 17 14  1  0
 54 11  1  0
 54 22  1  0
 11 20  2  0
  5 19  1  0
  5 18  1  0
 19 12  2  0
 25 22  2  0
 25  1  1  0
 22 23  1  0
 28  1  1  0
 20 12  1  0
 14 18  1  0
  1 24  2  0
 23  2  2  0
 24  2  1  0
  2 31  1  0
  4 32  1  0
  6 33  1  0
  6 34  1  0
  7 35  1  0
  8 36  1  0
  9 37  1  0
 10 38  1  0
 12 39  1  0
 13 40  1  0
 14 41  1  0
 14 42  1  0
 15 43  1  0
 15 44  1  0
 16 45  1  0
 16 46  1  0
 18 47  1  0
 18 48  1  0
 20 49  1  0
 21 50  1  0
 54 51  1  0
 28 52  1  0
 29 53  1  0
M  END
