
     RDKit          3D

 39 42  0  0  0  0  0  0  0  0999 V2000
   -2.0665   -0.7900   -0.1888 S   0  0  0  0  0  0  0  0  0  0  0  0
   -5.0035   -0.5331    0.7556 Br  0  0  0  0  0  0  0  0  0  0  0  0
   -3.3739    0.2163    0.2778 C   0  0  0  0  0  0  0  0  0  0  0  0
   -3.0606    1.5396    0.2318 C   0  0  0  0  0  0  0  0  0  0  0  0
    1.2290    0.2191    0.3578 N   0  0  0  0  0  0  0  0  0  0  0  0
   -1.7196    1.7431   -0.1834 C   0  0  0  0  0  0  0  0  0  0  0  0
    0.3682    0.4319   -0.8493 C   0  0  0  0  0  0  0  0  0  0  0  0
    2.7201    0.0687    0.1558 C   0  0  2  0  0  0  0  0  0  0  0  0
   -1.0542    0.5832   -0.4458 C   0  0  0  0  0  0  0  0  0  0  0  0
    3.3133   -0.1752    1.5443 C   0  0  0  0  0  0  0  0  0  0  0  0
    3.3029    1.3490   -0.4383 C   0  0  0  0  0  0  0  0  0  0  0  0
    3.0112   -1.1202   -0.7563 C   0  0  0  0  0  0  0  0  0  0  0  0
    4.8289   -0.3430    1.4211 C   0  0  2  0  0  0  0  0  0  0  0  0
    4.8234    1.1808   -0.5553 C   0  0  1  0  0  0  0  0  0  0  0  0
    4.5322   -1.2836   -0.8698 C   0  0  1  0  0  0  0  0  0  0  0  0
    5.4272    0.9328    0.8273 C   0  0  0  0  0  0  0  0  0  0  0  0
    5.1305   -0.0085   -1.4683 C   0  0  0  0  0  0  0  0  0  0  0  0
    5.1324   -1.5351    0.5132 C   0  0  0  0  0  0  0  0  0  0  0  0
   -3.7493    2.3341    0.4781 H   0  0  0  0  0  0  0  0  0  0  0  0
   -1.2680    2.7199   -0.2899 H   0  0  0  0  0  0  0  0  0  0  0  0
    0.7134    1.3358   -1.3441 H   0  0  0  0  0  0  0  0  0  0  0  0
    3.0823    0.6671    2.2052 H   0  0  0  0  0  0  0  0  0  0  0  0
    5.2317    1.7834    1.4872 H   0  0  0  0  0  0  0  0  0  0  0  0
    2.8846    1.5479   -1.4290 H   0  0  0  0  0  0  0  0  0  0  0  0
    4.7242    0.1668   -2.4692 H   0  0  0  0  0  0  0  0  0  0  0  0
    1.0690    0.9951    1.0056 H   0  0  0  0  0  0  0  0  0  0  0  0
    2.5543   -2.0319   -0.3579 H   0  0  0  0  0  0  0  0  0  0  0  0
    6.2133   -1.6801    0.4315 H   0  0  0  0  0  0  0  0  0  0  0  0
    0.5202   -0.4097   -1.5204 H   0  0  0  0  0  0  0  0  0  0  0  0
    2.8682   -1.0696    1.9933 H   0  0  0  0  0  0  0  0  0  0  0  0
    3.0604    2.2063    0.1980 H   0  0  0  0  0  0  0  0  0  0  0  0
    2.5962   -0.9577   -1.7547 H   0  0  0  0  0  0  0  0  0  0  0  0
    5.2403   -0.5193    2.4179 H   0  0  0  0  0  0  0  0  0  0  0  0
    5.2388    2.0954   -0.9850 H   0  0  0  0  0  0  0  0  0  0  0  0
    4.7378   -2.1327   -1.5257 H   0  0  0  0  0  0  0  0  0  0  0  0
    6.5137    0.8365    0.7479 H   0  0  0  0  0  0  0  0  0  0  0  0
    6.2124   -0.1205   -1.5828 H   0  0  0  0  0  0  0  0  0  0  0  0
    4.7232   -2.4537    0.9451 H   0  0  0  0  0  0  0  0  0  0  0  0
    0.8932   -0.6062    0.8595 H   0  0  0  0  0  0  0  0  0  0  0  0
  1  3  1  0
  1  9  1  0
  2  3  1  0
  3  4  2  0
  4  6  1  0
  4 19  1  0
  5  7  1  0
  8  5  1  1
  5 26  1  0
  5 39  1  0
  6  9  2  0
  6 20  1  0
  7  9  1  0
  7 21  1  0
  7 29  1  0
  8 10  1  0
  8 11  1  0
  8 12  1  0
 10 13  1  0
 10 22  1  0
 10 30  1  0
 11 14  1  0
 11 24  1  0
 11 31  1  0
 12 15  1  0
 12 27  1  0
 12 32  1  0
 13 16  1  0
 13 18  1  0
 13 33  1  1
 14 16  1  0
 14 17  1  0
 14 34  1  6
 15 17  1  0
 15 18  1  0
 15 35  1  6
 16 23  1  0
 16 36  1  0
 17 25  1  0
 17 37  1  0
 18 28  1  0
 18 38  1  0
M  CHG  1   5   1
M  END
