
     RDKit          3D

 21 22  0  0  0  0  0  0  0  0999 V2000
   -2.6413    0.7099    0.0442 C   0  0  0  0  0  0  0  0  0  0  0  0
   -2.6369   -0.6805    0.0507 C   0  0  0  0  0  0  0  0  0  0  0  0
   -1.4349   -1.3816    0.0092 C   0  0  0  0  0  0  0  0  0  0  0  0
   -0.2431   -0.6758   -0.0382 C   0  0  0  0  0  0  0  0  0  0  0  0
   -0.2475    0.7198   -0.0434 C   0  0  0  0  0  0  0  0  0  0  0  0
   -1.4437    1.4182   -0.0036 C   0  0  0  0  0  0  0  0  0  0  0  0
    1.1588    1.2421   -0.1029 C   0  0  0  0  0  0  0  0  0  0  0  0
    1.9916    0.0381    0.3679 C   0  0  1  0  0  0  0  0  0  0  0  0
    1.1684   -1.1845   -0.0976 C   0  0  0  0  0  0  0  0  0  0  0  0
    3.3745    0.1197   -0.0496 N   0  0  0  0  0  0  0  0  0  0  0  0
   -3.5816    1.2452    0.0831 H   0  0  0  0  0  0  0  0  0  0  0  0
   -3.5738   -1.2215    0.0946 H   0  0  0  0  0  0  0  0  0  0  0  0
   -1.4530    2.5018   -0.0021 H   0  0  0  0  0  0  0  0  0  0  0  0
   -1.4367   -2.4651    0.0195 H   0  0  0  0  0  0  0  0  0  0  0  0
    1.3440   -2.0720    0.5133 H   0  0  0  0  0  0  0  0  0  0  0  0
    1.4349   -1.4433   -1.1298 H   0  0  0  0  0  0  0  0  0  0  0  0
    1.4227    1.5005   -1.1360 H   0  0  0  0  0  0  0  0  0  0  0  0
    1.3245    2.1335    0.5040 H   0  0  0  0  0  0  0  0  0  0  0  0
    1.9803    0.0393    1.4628 H   0  0  0  0  0  0  0  0  0  0  0  0
    3.8949   -0.6604    0.3320 H   0  0  0  0  0  0  0  0  0  0  0  0
    3.4329    0.0228   -1.0572 H   0  0  0  0  0  0  0  0  0  0  0  0
  1  2  2  0
  1  6  1  0
  2  3  1  0
  3  4  2  0
  4  5  1  0
  4  9  1  0
  5  6  2  0
  5  7  1  0
  7  8  1  0
  8  9  1  0
  8 10  1  0
  1 11  1  0
  2 12  1  0
  6 13  1  0
  3 14  1  0
  9 15  1  0
  9 16  1  0
  7 17  1  0
  7 18  1  0
  8 19  1  1
 10 20  1  0
 10 21  1  0
M  END
