
     RDKit          3D

 17 18  0  0  0  0  0  0  0  0999 V2000
   -1.7166   -1.5125   -0.0167 N   0  0  0  0  0  0  0  0  0  0  0  0
   -2.6666   -0.5310    0.0325 C   0  0  0  0  0  0  0  0  0  0  0  0
   -2.1607    0.6655    0.0567 N   0  0  0  0  0  0  0  0  0  0  0  0
   -0.8022    0.4587    0.0219 C   0  0  0  0  0  0  0  0  0  0  0  0
   -0.5047   -0.8959   -0.0244 C   0  0  0  0  0  0  0  0  0  0  0  0
    0.7046   -1.4464   -0.0672 N   0  0  0  0  0  0  0  0  0  0  0  0
    1.6700   -0.5287   -0.0649 C   0  0  0  0  0  0  0  0  0  0  0  0
    2.9478   -0.9794   -0.1579 N   0  0  0  0  0  0  0  0  0  0  0  0
    1.5263    0.8060   -0.0207 N   0  0  0  0  0  0  0  0  0  0  0  0
    0.3042    1.3283    0.0244 C   0  0  0  0  0  0  0  0  0  0  0  0
    0.1671    2.6588    0.0943 N   0  0  0  0  0  0  0  0  0  0  0  0
   -1.8886   -2.5057   -0.0388 H   0  0  0  0  0  0  0  0  0  0  0  0
   -3.7190   -0.7690    0.0479 H   0  0  0  0  0  0  0  0  0  0  0  0
    3.6801   -0.3465    0.1144 H   0  0  0  0  0  0  0  0  0  0  0  0
    3.1112   -1.9492    0.0527 H   0  0  0  0  0  0  0  0  0  0  0  0
    0.9695    3.2464   -0.0529 H   0  0  0  0  0  0  0  0  0  0  0  0
   -0.7399    3.0774   -0.0158 H   0  0  0  0  0  0  0  0  0  0  0  0
  1  2  1  0
  1  5  1  0
  1 12  1  0
  2  3  2  0
  2 13  1  0
  3  4  1  0
  4  5  2  0
  4 10  1  0
  5  6  1  0
  6  7  2  0
  7  8  1  0
  7  9  1  0
  8 14  1  0
  8 15  1  0
  9 10  2  0
 10 11  1  0
 11 16  1  0
 11 17  1  0
M  END
