
     RDKit          3D

 29 30  0  0  0  0  0  0  0  0999 V2000
   -2.4501    0.2719   -1.6957 N   0  0  0  0  0  0  0  0  0  0  0  0
   -2.1627   -0.2193   -0.3663 C   0  0  1  0  0  0  0  0  0  0  0  0
   -1.0514    0.4968    0.4197 C   0  0  0  0  0  0  0  0  0  0  0  0
    0.2540    0.6580   -0.3506 C   0  0  1  0  0  0  0  0  0  0  0  0
   -0.0631    1.0023   -1.6827 O   0  0  0  0  0  0  0  0  0  0  0  0
    1.0667    1.8231    0.3350 C   0  0  0  0  0  0  0  0  0  0  0  0
    0.7012    2.9879    0.5009 O   0  0  0  0  0  0  0  0  0  0  0  0
    2.3123    1.3191    0.7420 N   0  0  0  0  0  0  0  0  0  0  0  0
    2.4216   -0.0401    0.4082 C   0  0  0  0  0  0  0  0  0  0  0  0
    3.4883   -0.9087    0.6341 C   0  0  0  0  0  0  0  0  0  0  0  0
    3.3574   -2.2345    0.2039 C   0  0  0  0  0  0  0  0  0  0  0  0
    2.2024   -2.6803   -0.4303 C   0  0  0  0  0  0  0  0  0  0  0  0
    1.1269   -1.8091   -0.6594 C   0  0  0  0  0  0  0  0  0  0  0  0
    1.2295   -0.4965   -0.2454 C   0  0  0  0  0  0  0  0  0  0  0  0
   -3.4103   -0.1525    0.5029 C   0  0  0  0  0  0  0  0  0  0  0  0
   -4.4144    0.5493    0.3723 O   0  0  0  0  0  0  0  0  0  0  0  0
   -2.3798    1.2718   -1.7299 H   0  0  0  0  0  0  0  0  0  0  0  0
   -1.8748   -1.3112   -0.4699 H   0  0  0  0  0  0  0  0  0  0  0  0
   -1.3993    1.5212    0.7242 H   0  0  0  0  0  0  0  0  0  0  0  0
   -0.8372   -0.0958    1.3480 H   0  0  0  0  0  0  0  0  0  0  0  0
    0.7500    1.3063   -2.1066 H   0  0  0  0  0  0  0  0  0  0  0  0
    3.0178    1.8371    1.1983 H   0  0  0  0  0  0  0  0  0  0  0  0
    4.4060   -0.5707    1.1334 H   0  0  0  0  0  0  0  0  0  0  0  0
    4.1908   -2.9334    0.3747 H   0  0  0  0  0  0  0  0  0  0  0  0
    2.1258   -3.7275   -0.7583 H   0  0  0  0  0  0  0  0  0  0  0  0
    0.2177   -2.1733   -1.1623 H   0  0  0  0  0  0  0  0  0  0  0  0
   -1.8053   -0.1269   -2.3523 H   0  0  0  0  0  0  0  0  0  0  0  0
   -3.3739   -1.0031    1.5648 O   0  0  0  0  0  0  0  0  0  0  0  0
   -4.1933   -0.9161    2.0804 H   0  0  0  0  0  0  0  0  0  0  0  0
  2  1  1  0
  1 17  1  0
 15  2  1  0
  3  2  1  0
  2 18  1  6
  3  4  1  0
  3 19  1  0
  3 20  1  0
  6  4  1  0
  4  5  1  6
  4 14  1  0
  5 21  1  0
  7  6  2  0
  6  8  1  0
  8  9  1  0
  8 22  1  0
  9 14  2  0
  9 10  1  0
 10 11  2  0
 10 23  1  0
 11 12  1  0
 11 24  1  0
 13 12  2  0
 12 25  1  0
 14 13  1  0
 13 26  1  0
 16 15  2  0
  1 27  1  0
 15 28  1  0
 28 29  1  0
M  END
