
     RDKit          3D

 90 94  0  0  0  0  0  0  0  0999 V2000
   13.9580    0.7046   -0.5470 C   0  0  0  0  0  0  0  0  0  0  0  0
   12.6401   -0.0380   -0.3760 C   0  0  0  0  0  0  0  0  0  0  0  0
   11.4340    0.8933   -0.3959 C   0  0  0  0  0  0  0  0  0  0  0  0
   10.1074    0.1622   -0.2349 C   0  0  0  0  0  0  0  0  0  0  0  0
    8.9104    1.1030   -0.2757 C   0  0  0  0  0  0  0  0  0  0  0  0
    7.5946    0.3614   -0.1081 C   0  0  0  0  0  0  0  0  0  0  0  0
    6.4819    1.2861   -0.1960 N   0  0  0  0  0  0  0  0  0  0  0  0
    5.2148    0.8702   -0.2741 C   0  0  0  0  0  0  0  0  0  0  0  0
    4.8437   -0.2820   -0.2793 O   0  0  0  0  0  0  0  0  0  0  0  0
    4.3724    1.9308   -0.3514 O   0  0  0  0  0  0  0  0  0  0  0  0
    3.0256    1.6898   -0.5166 C   0  0  0  0  0  0  0  0  0  0  0  0
    2.5275    1.2962   -1.7474 C   0  0  0  0  0  0  0  0  0  0  0  0
    1.1575    1.1486   -1.9088 C   0  0  0  0  0  0  0  0  0  0  0  0
    2.1736    1.9278    0.5479 C   0  0  0  0  0  0  0  0  0  0  0  0
    0.8072    1.7817    0.3698 C   0  0  0  0  0  0  0  0  0  0  0  0
    0.2775    1.3916   -0.8577 C   0  0  0  0  0  0  0  0  0  0  0  0
   -1.2069    1.1991   -1.0076 C   0  0  0  0  0  0  0  0  0  0  0  0
   -1.6773   -0.0286   -0.2206 C   0  0  2  0  0  0  0  0  0  0  0  0
   -1.0693   -1.3118   -0.7769 C   0  0  0  0  0  0  0  0  0  0  0  0
   -1.5528   -2.4901   -0.0936 N   0  0  0  0  0  0  0  0  0  0  0  0
   -0.6538   -3.1951    0.8170 C   0  0  0  0  0  0  0  0  0  0  0  0
    0.2993   -2.2889    1.5149 C   0  0  0  0  0  0  0  0  0  0  0  0
    0.1311   -1.4902    2.6136 C   0  0  0  0  0  0  0  0  0  0  0  0
    1.2789   -0.8155    2.8988 N   0  0  0  0  0  0  0  0  0  0  0  0
    2.1359   -1.1945    1.9844 C   0  0  0  0  0  0  0  0  0  0  0  0
    1.6022   -2.0857    1.1262 N   0  0  0  0  0  0  0  0  0  0  0  0
    2.2861   -2.6966    0.0086 C   0  0  0  0  0  0  0  0  0  0  0  0
   -2.6988   -3.1051   -0.5203 C   0  0  0  0  0  0  0  0  0  0  0  0
   -2.8744   -4.4892   -0.3243 C   0  0  0  0  0  0  0  0  0  0  0  0
   -4.0114   -5.1449   -0.7418 C   0  0  0  0  0  0  0  0  0  0  0  0
   -5.0265   -4.4388   -1.3828 C   0  0  0  0  0  0  0  0  0  0  0  0
   -6.2060   -5.0992   -1.8188 C   0  0  0  0  0  0  0  0  0  0  0  0
   -7.1632   -5.6375   -2.1742 N   0  0  0  0  0  0  0  0  0  0  0  0
   -4.8768   -3.0628   -1.5679 C   0  0  0  0  0  0  0  0  0  0  0  0
   -3.7491   -2.3870   -1.1515 C   0  0  0  0  0  0  0  0  0  0  0  0
   -3.7345   -0.8846   -1.3301 C   0  0  0  0  0  0  0  0  0  0  0  0
   -3.1241   -0.1845   -0.2177 N   0  0  0  0  0  0  0  0  0  0  0  0
   -4.0517    0.2447    1.0657 S   0  0  1  0  0  0  0  0  0  0  0  0
   -5.1642   -0.6889    1.1349 O   0  0  0  0  0  0  0  0  0  0  0  0
   -3.1713    0.4135    2.2115 O   0  0  0  0  0  0  0  0  0  0  0  0
   -4.7177    1.8299    0.6656 C   0  0  0  0  0  0  0  0  0  0  0  0
   -5.9407    1.9283    0.0071 C   0  0  0  0  0  0  0  0  0  0  0  0
   -6.4322    3.1685   -0.3430 C   0  0  0  0  0  0  0  0  0  0  0  0
   -5.7125    4.3279   -0.0353 C   0  0  0  0  0  0  0  0  0  0  0  0
   -6.2680    5.4850   -0.4094 O   0  0  0  0  0  0  0  0  0  0  0  0
   -5.5851    6.6945   -0.1283 C   0  0  0  0  0  0  0  0  0  0  0  0
   -4.4912    4.2228    0.6325 C   0  0  0  0  0  0  0  0  0  0  0  0
   -4.0012    2.9749    0.9811 C   0  0  0  0  0  0  0  0  0  0  0  0
   14.1021    1.4407    0.2465 H   0  0  0  0  0  0  0  0  0  0  0  0
   14.8101    0.0244   -0.5247 H   0  0  0  0  0  0  0  0  0  0  0  0
   13.9869    1.2393   -1.4986 H   0  0  0  0  0  0  0  0  0  0  0  0
   12.5332   -0.7832   -1.1700 H   0  0  0  0  0  0  0  0  0  0  0  0
   12.6507   -0.5965    0.5652 H   0  0  0  0  0  0  0  0  0  0  0  0
   11.5386    1.6373    0.4014 H   0  0  0  0  0  0  0  0  0  0  0  0
   11.4273    1.4557   -1.3364 H   0  0  0  0  0  0  0  0  0  0  0  0
   10.0066   -0.5874   -1.0268 H   0  0  0  0  0  0  0  0  0  0  0  0
   10.1077   -0.3900    0.7112 H   0  0  0  0  0  0  0  0  0  0  0  0
    9.0102    1.8548    0.5137 H   0  0  0  0  0  0  0  0  0  0  0  0
    8.9029    1.6440   -1.2272 H   0  0  0  0  0  0  0  0  0  0  0  0
    7.4988   -0.3975   -0.8882 H   0  0  0  0  0  0  0  0  0  0  0  0
    7.5828   -0.1625    0.8528 H   0  0  0  0  0  0  0  0  0  0  0  0
    6.6704    2.2758   -0.1635 H   0  0  0  0  0  0  0  0  0  0  0  0
    3.1960    1.1211   -2.5806 H   0  0  0  0  0  0  0  0  0  0  0  0
    0.7709    0.8393   -2.8723 H   0  0  0  0  0  0  0  0  0  0  0  0
    2.5719    2.2344    1.5064 H   0  0  0  0  0  0  0  0  0  0  0  0
    0.1463    1.9687    1.2083 H   0  0  0  0  0  0  0  0  0  0  0  0
   -1.7333    2.0817   -0.6359 H   0  0  0  0  0  0  0  0  0  0  0  0
   -1.4766    1.0924   -2.0621 H   0  0  0  0  0  0  0  0  0  0  0  0
   -1.3493    0.0687    0.8143 H   0  0  0  0  0  0  0  0  0  0  0  0
   -1.2452   -1.3985   -1.8529 H   0  0  0  0  0  0  0  0  0  0  0  0
    0.0114   -1.2447   -0.6749 H   0  0  0  0  0  0  0  0  0  0  0  0
   -1.2603   -3.6865    1.5796 H   0  0  0  0  0  0  0  0  0  0  0  0
   -0.1041   -3.9909    0.2994 H   0  0  0  0  0  0  0  0  0  0  0  0
   -0.7685   -1.3716    3.1991 H   0  0  0  0  0  0  0  0  0  0  0  0
    3.1567   -0.8577    1.8867 H   0  0  0  0  0  0  0  0  0  0  0  0
    1.8912   -2.3367   -0.9407 H   0  0  0  0  0  0  0  0  0  0  0  0
    3.3382   -2.4362    0.0560 H   0  0  0  0  0  0  0  0  0  0  0  0
    2.1890   -3.7797    0.0438 H   0  0  0  0  0  0  0  0  0  0  0  0
   -2.0968   -5.0779    0.1395 H   0  0  0  0  0  0  0  0  0  0  0  0
   -4.1033   -6.2105   -0.5799 H   0  0  0  0  0  0  0  0  0  0  0  0
   -5.6817   -2.5019   -2.0270 H   0  0  0  0  0  0  0  0  0  0  0  0
   -3.2061   -0.5936   -2.2403 H   0  0  0  0  0  0  0  0  0  0  0  0
   -4.7559   -0.5366   -1.4851 H   0  0  0  0  0  0  0  0  0  0  0  0
   -6.5207    1.0459   -0.2277 H   0  0  0  0  0  0  0  0  0  0  0  0
   -7.3835    3.2507   -0.8528 H   0  0  0  0  0  0  0  0  0  0  0  0
   -5.4404    6.8379    0.9450 H   0  0  0  0  0  0  0  0  0  0  0  0
   -4.6147    6.7369   -0.6284 H   0  0  0  0  0  0  0  0  0  0  0  0
   -6.2128    7.4957   -0.5088 H   0  0  0  0  0  0  0  0  0  0  0  0
   -3.9129    5.0975    0.8954 H   0  0  0  0  0  0  0  0  0  0  0  0
   -3.0582    2.9142    1.5087 H   0  0  0  0  0  0  0  0  0  0  0  0
  4  5  1  0
  4  3  1  0
  5  6  1  0
  2  3  1  0
  2  1  1  0
  6  7  1  0
  7  8  1  0
  8 10  1  0
  8  9  2  0
 10 11  1  0
 12 11  2  0
 12 13  1  0
 11 14  1  0
 39 38  2  0
 13 16  2  0
 40 38  2  0
 14 15  2  0
 38 41  1  6
 38 37  1  0
 16 15  1  0
 16 17  1  0
 41 42  2  0
 41 48  1  0
 42 43  1  0
 48 47  2  0
 37 18  1  0
 37 36  1  0
 43 44  2  0
 18 17  1  0
 18 19  1  0
 47 44  1  0
 44 45  1  0
 45 46  1  0
 36 35  1  0
 19 20  1  0
 35 28  2  0
 35 34  1  0
 20 21  1  0
 20 28  1  0
 21 22  1  0
 28 29  1  0
 34 31  2  0
 27 26  1  0
 22 26  1  0
 22 23  2  0
 29 30  2  0
 31 30  1  0
 31 32  1  0
 26 25  1  0
 32 33  3  0
 23 24  1  0
 25 24  2  0
  1 49  1  0
  1 50  1  0
  1 51  1  0
  2 52  1  0
  2 53  1  0
  3 54  1  0
  3 55  1  0
  4 56  1  0
  4 57  1  0
  5 58  1  0
  5 59  1  0
  6 60  1  0
  6 61  1  0
  7 62  1  0
 12 63  1  0
 13 64  1  0
 14 65  1  0
 15 66  1  0
 17 67  1  0
 17 68  1  0
 18 69  1  1
 19 70  1  0
 19 71  1  0
 21 72  1  0
 21 73  1  0
 23 74  1  0
 25 75  1  0
 27 76  1  0
 27 77  1  0
 27 78  1  0
 29 79  1  0
 30 80  1  0
 34 81  1  0
 36 82  1  0
 36 83  1  0
 42 84  1  0
 43 85  1  0
 46 86  1  0
 46 87  1  0
 46 88  1  0
 47 89  1  0
 48 90  1  0
M  END
