
     RDKit          3D

 37 39  0  0  0  0  0  0  0  0999 V2000
   -4.0680    1.7701   -0.7107 C   0  0  0  0  0  0  0  0  0  0  0  0
   -6.2473    1.5074    0.9286 F   0  0  0  0  0  0  0  0  0  0  0  0
    2.6061   -1.2553   -0.2811 N   0  0  0  0  0  0  0  0  0  0  0  0
   -1.4403   -2.4525   -0.7585 O   0  0  0  0  0  0  0  0  0  0  0  0
    0.9017    0.6900   -0.1611 S   0  0  0  0  0  0  0  0  0  0  0  0
   -4.1862    0.6737    0.1334 C   0  0  0  0  0  0  0  0  0  0  0  0
   -4.9706    0.5009    2.3385 F   0  0  0  0  0  0  0  0  0  0  0  0
    3.5349    0.8566    0.1667 N   0  0  0  0  0  0  0  0  0  0  0  0
   -3.2074   -0.3125    0.1438 C   0  0  0  0  0  0  0  0  0  0  0  0
   -6.0109   -0.6290    0.8369 F   0  0  0  0  0  0  0  0  0  0  0  0
    1.3148   -3.1231   -0.7006 N   0  0  0  0  0  0  0  0  0  0  0  0
   -2.0865   -0.1894   -0.6669 C   0  0  0  0  0  0  0  0  0  0  0  0
   -1.9711    0.9096   -1.5157 C   0  0  0  0  0  0  0  0  0  0  0  0
   -2.9622    1.8778   -1.5413 C   0  0  0  0  0  0  0  0  0  0  0  0
   -5.3568    0.5206    1.0544 C   0  0  1  0  0  0  0  0  0  0  0  0
   -1.0634   -1.2813   -0.6549 C   0  0  0  0  0  0  0  0  0  0  0  0
    0.3003   -0.9264   -0.5008 C   0  0  0  0  0  0  0  0  0  0  0  0
    2.5090    0.0291   -0.0833 C   0  0  0  0  0  0  0  0  0  0  0  0
    1.3900   -1.8113   -0.5029 C   0  0  0  0  0  0  0  0  0  0  0  0
    4.9012    0.5764    0.2860 C   0  0  0  0  0  0  0  0  0  0  0  0
    5.7243    1.6534    0.6272 C   0  0  0  0  0  0  0  0  0  0  0  0
    7.0902    1.4786    0.7611 C   0  0  0  0  0  0  0  0  0  0  0  0
    7.6625    0.2287    0.5585 C   0  0  0  0  0  0  0  0  0  0  0  0
    6.8439   -0.8379    0.2202 C   0  0  0  0  0  0  0  0  0  0  0  0
    5.4707   -0.6802    0.0812 C   0  0  0  0  0  0  0  0  0  0  0  0
   -4.8249    2.5412   -0.7380 H   0  0  0  0  0  0  0  0  0  0  0  0
    3.2950    1.8264    0.3122 H   0  0  0  0  0  0  0  0  0  0  0  0
   -3.2985   -1.1756    0.7922 H   0  0  0  0  0  0  0  0  0  0  0  0
    2.1524   -3.6786   -0.7174 H   0  0  0  0  0  0  0  0  0  0  0  0
    0.4239   -3.5604   -0.8640 H   0  0  0  0  0  0  0  0  0  0  0  0
   -1.1208    0.9992   -2.1803 H   0  0  0  0  0  0  0  0  0  0  0  0
   -2.8767    2.7210   -2.2128 H   0  0  0  0  0  0  0  0  0  0  0  0
    5.2901    2.6332    0.7894 H   0  0  0  0  0  0  0  0  0  0  0  0
    7.7078    2.3268    1.0260 H   0  0  0  0  0  0  0  0  0  0  0  0
    8.7304    0.0907    0.6622 H   0  0  0  0  0  0  0  0  0  0  0  0
    7.2723   -1.8186    0.0571 H   0  0  0  0  0  0  0  0  0  0  0  0
    4.8581   -1.5270   -0.1817 H   0  0  0  0  0  0  0  0  0  0  0  0
  1  6  2  0
  1 14  1  0
 15  2  1  1
  3 18  2  0
  3 19  1  0
  4 16  2  0
  5 17  1  0
  5 18  1  0
  6  9  1  0
  6 15  1  0
  7 15  1  0
  8 18  1  0
  8 20  1  0
  9 12  2  0
 10 15  1  0
 11 19  1  0
 12 13  1  0
 12 16  1  0
 13 14  2  0
 16 17  1  0
 17 19  2  0
 20 21  2  0
 20 25  1  0
 21 22  1  0
 22 23  2  0
 23 24  1  0
 24 25  2  0
  1 26  1  0
  8 27  1  0
  9 28  1  0
 11 29  1  0
 11 30  1  0
 13 31  1  0
 14 32  1  0
 21 33  1  0
 22 34  1  0
 23 35  1  0
 24 36  1  0
 25 37  1  0
M  END
