
     RDKit          3D

 49 52  0  0  0  0  0  0  0  0999 V2000
   -6.1505   -1.8142   -1.4249 O   0  0  0  0  0  0  0  0  0  0  0  0
   -6.0619   -1.1694   -0.3892 C   0  0  0  0  0  0  0  0  0  0  0  0
   -7.3019   -0.7595    0.3839 C   0  0  0  0  0  0  0  0  0  0  0  0
   -8.5881   -1.2679   -0.2434 C   0  0  0  0  0  0  0  0  0  0  0  0
   -4.8617   -0.7951    0.1164 N   0  0  0  0  0  0  0  0  0  0  0  0
   -3.6226   -1.1616   -0.5417 C   0  0  0  0  0  0  0  0  0  0  0  0
   -2.7701    0.0726   -0.7669 C   0  0  0  0  0  0  0  0  0  0  0  0
   -4.6602   -0.0512    1.3439 C   0  0  0  0  0  0  0  0  0  0  0  0
   -3.7992    1.1809    1.1059 C   0  0  0  0  0  0  0  0  0  0  0  0
   -2.5448    0.7710    0.4963 N   0  0  0  0  0  0  0  0  0  0  0  0
   -1.4253    1.5058    0.7201 C   0  0  0  0  0  0  0  0  0  0  0  0
   -1.5549    2.7103    1.2349 N   0  0  0  0  0  0  0  0  0  0  0  0
   -0.4582    3.4648    1.3811 C   0  0  0  0  0  0  0  0  0  0  0  0
    0.7632    3.1620    1.0447 N   0  0  0  0  0  0  0  0  0  0  0  0
    0.9433    1.8957    0.6050 C   0  0  0  0  0  0  0  0  0  0  0  0
   -0.1110    0.9750    0.4626 C   0  0  0  0  0  0  0  0  0  0  0  0
    0.1687   -0.3748    0.1839 C   0  0  0  0  0  0  0  0  0  0  0  0
    1.4597   -0.7637   -0.0442 C   0  0  0  0  0  0  0  0  0  0  0  0
    1.7997   -2.4252   -0.3572 Cl  0  0  0  0  0  0  0  0  0  0  0  0
    2.2490    1.4418    0.3251 C   0  0  0  0  0  0  0  0  0  0  0  0
    3.2377    2.3284    0.4063 F   0  0  0  0  0  0  0  0  0  0  0  0
    2.5394    0.1463   -0.0011 C   0  0  0  0  0  0  0  0  0  0  0  0
    3.9269   -0.2741   -0.2693 C   0  0  0  0  0  0  0  0  0  0  0  0
    4.3475   -0.5601   -1.5716 C   0  0  0  0  0  0  0  0  0  0  0  0
    3.4374   -0.4140   -2.5441 O   0  0  0  0  0  0  0  0  0  0  0  0
    4.8477   -0.4125    0.7553 C   0  0  0  0  0  0  0  0  0  0  0  0
    4.4384   -0.1410    2.0016 F   0  0  0  0  0  0  0  0  0  0  0  0
    6.1498   -0.8215    0.5519 C   0  0  0  0  0  0  0  0  0  0  0  0
    6.5396   -1.1006   -0.7503 C   0  0  0  0  0  0  0  0  0  0  0  0
    5.6549   -0.9744   -1.8093 C   0  0  0  0  0  0  0  0  0  0  0  0
   -7.2246   -1.1258    1.4111 H   0  0  0  0  0  0  0  0  0  0  0  0
   -7.3339    0.3311    0.4625 H   0  0  0  0  0  0  0  0  0  0  0  0
   -9.4389   -0.9427    0.3548 H   0  0  0  0  0  0  0  0  0  0  0  0
   -8.7279   -0.8851   -1.2533 H   0  0  0  0  0  0  0  0  0  0  0  0
   -8.6129   -2.3560   -0.2900 H   0  0  0  0  0  0  0  0  0  0  0  0
   -3.0783   -1.8821    0.0791 H   0  0  0  0  0  0  0  0  0  0  0  0
   -3.8395   -1.6347   -1.4951 H   0  0  0  0  0  0  0  0  0  0  0  0
   -1.8340   -0.2014   -1.2441 H   0  0  0  0  0  0  0  0  0  0  0  0
   -3.2910    0.7509   -1.4543 H   0  0  0  0  0  0  0  0  0  0  0  0
   -5.6073    0.2661    1.7687 H   0  0  0  0  0  0  0  0  0  0  0  0
   -4.1685   -0.6931    2.0824 H   0  0  0  0  0  0  0  0  0  0  0  0
   -4.3305    1.8943    0.4651 H   0  0  0  0  0  0  0  0  0  0  0  0
   -3.6052    1.6654    2.0598 H   0  0  0  0  0  0  0  0  0  0  0  0
   -0.6229    4.4506    1.8029 H   0  0  0  0  0  0  0  0  0  0  0  0
   -0.6152   -1.1175    0.1896 H   0  0  0  0  0  0  0  0  0  0  0  0
    3.8193   -0.6344   -3.4018 H   0  0  0  0  0  0  0  0  0  0  0  0
    6.8341   -0.9190    1.3830 H   0  0  0  0  0  0  0  0  0  0  0  0
    7.5538   -1.4225   -0.9442 H   0  0  0  0  0  0  0  0  0  0  0  0
    5.9798   -1.1955   -2.8186 H   0  0  0  0  0  0  0  0  0  0  0  0
  4  3  1  0
  1  2  2  0
  3  2  1  0
  2  5  1  0
  5  6  1  0
  5  8  1  0
  6  7  1  0
  8  9  1  0
  7 10  1  0
  9 10  1  0
 10 11  1  0
 19 18  1  0
 17 18  1  0
 17 16  2  0
 11 16  1  0
 11 12  2  0
 18 22  2  0
 16 15  1  0
 12 13  1  0
 27 26  1  0
 22 20  1  0
 22 23  1  0
 15 20  2  0
 15 14  1  0
 13 14  2  0
 26 23  1  0
 26 28  2  0
 20 21  1  0
 23 24  2  0
 28 29  1  0
 24 25  1  0
 24 30  1  0
 29 30  2  0
  3 31  1  0
  3 32  1  0
  4 33  1  0
  4 34  1  0
  4 35  1  0
  6 36  1  0
  6 37  1  0
  7 38  1  0
  7 39  1  0
  8 40  1  0
  8 41  1  0
  9 42  1  0
  9 43  1  0
 13 44  1  0
 17 45  1  0
 25 46  1  0
 28 47  1  0
 29 48  1  0
 30 49  1  0
M  END
