
     RDKit          3D

 82 84  0  0  0  0  0  0  0  0999 V2000
   -0.3438    2.1204   -3.0957 C   0  0  0  0  0  0  0  0  0  0  0  0
    0.4829    2.8854   -3.9083 C   0  0  0  0  0  0  0  0  0  0  0  0
    0.0906    4.7901   -2.5019 C   0  0  0  0  0  0  0  0  0  0  0  0
   -6.4691   -2.8553    1.5477 C   0  0  0  0  0  0  0  0  0  0  0  0
   -6.2664   -1.5498    1.0935 C   0  0  0  0  0  0  0  0  0  0  0  0
   -7.7785   -1.9978   -0.7313 C   0  0  0  0  0  0  0  0  0  0  0  0
   -7.9562   -3.2809   -0.2595 C   0  0  0  0  0  0  0  0  0  0  0  0
   -7.3109   -3.7256    0.8779 C   0  0  0  0  0  0  0  0  0  0  0  0
   -1.9890    0.6283    1.1586 C   0  0  2  0  0  0  0  0  0  0  0  0
   -5.0189    0.5364    1.6420 C   0  0  0  0  0  0  0  0  0  0  0  0
   -1.0512    1.3504    0.1659 C   0  0  1  0  0  0  0  0  0  0  0  0
    1.2672    0.5428    0.2606 C   0  0  0  0  0  0  0  0  0  0  0  0
    8.9865   -2.0986    3.6062 C   0  0  0  0  0  0  0  0  0  0  0  0
    8.1965   -0.5457   -2.5603 C   0  0  0  0  0  0  0  0  0  0  0  0
    7.8577   -1.5735    2.7308 C   0  0  0  0  0  0  0  0  0  0  0  0
    7.7525   -1.6139   -1.5710 C   0  0  0  0  0  0  0  0  0  0  0  0
    7.0389   -0.9956   -0.3753 C   0  0  0  0  0  0  0  0  0  0  0  0
    7.6292   -2.4704    1.5185 C   0  0  0  0  0  0  0  0  0  0  0  0
    5.3132   -2.2457    0.8898 C   0  0  0  0  0  0  0  0  0  0  0  0
    3.2971   -0.8614    0.4679 C   0  0  0  0  0  0  0  0  0  0  0  0
    2.2545   -0.4124   -0.3354 C   0  0  0  0  0  0  0  0  0  0  0  0
    2.1854   -0.8321   -1.6619 C   0  0  0  0  0  0  0  0  0  0  0  0
    4.2640   -1.7179   -0.0420 C   0  0  0  0  0  0  0  0  0  0  0  0
    4.1799   -2.1411   -1.3647 C   0  0  0  0  0  0  0  0  0  0  0  0
    3.1421   -1.6975   -2.1702 C   0  0  0  0  0  0  0  0  0  0  0  0
   -8.7742   -4.1181   -0.9208 F   0  0  0  0  0  0  0  0  0  0  0  0
   -6.9337   -1.1264   -0.0569 C   0  0  0  0  0  0  0  0  0  0  0  0
   -5.3854   -0.7548    1.8366 N   0  0  0  0  0  0  0  0  0  0  0  0
   -5.4400    1.2323    0.7342 O   0  0  0  0  0  0  0  0  0  0  0  0
   -4.0264    1.0764    2.6597 C   0  0  2  0  0  0  0  0  0  0  0  0
   -4.7175    2.1257    3.5298 C   0  0  0  0  0  0  0  0  0  0  0  0
   -2.8220    1.6661    1.9269 C   0  0  0  0  0  0  0  0  0  0  0  0
   -1.2371   -0.2661    2.0229 N   0  0  0  0  0  0  0  0  0  0  0  0
   -0.9615    2.6753   -1.9779 C   0  0  0  0  0  0  0  0  0  0  0  0
   -0.7351    4.0205   -1.6942 C   0  0  0  0  0  0  0  0  0  0  0  0
    0.7047    4.2235   -3.6122 C   0  0  0  0  0  0  0  0  0  0  0  0
    0.0380    0.5131   -0.2735 N   0  0  0  0  0  0  0  0  0  0  0  0
    1.5985    1.2971    1.1656 O   0  0  0  0  0  0  0  0  0  0  0  0
    4.9645   -2.9122    1.8566 O   0  0  0  0  0  0  0  0  0  0  0  0
    6.6014   -1.9667    0.6175 N   0  0  0  0  0  0  0  0  0  0  0  0
   -0.5181    1.0786   -3.3396 H   0  0  0  0  0  0  0  0  0  0  0  0
    0.9522    2.4351   -4.7736 H   0  0  0  0  0  0  0  0  0  0  0  0
    0.2533    5.8340   -2.2660 H   0  0  0  0  0  0  0  0  0  0  0  0
   -5.9602   -3.1996    2.4400 H   0  0  0  0  0  0  0  0  0  0  0  0
   -8.2924   -1.6664   -1.6240 H   0  0  0  0  0  0  0  0  0  0  0  0
   -7.4578   -4.7347    1.2394 H   0  0  0  0  0  0  0  0  0  0  0  0
   -2.6599   -0.0071    0.5655 H   0  0  0  0  0  0  0  0  0  0  0  0
   -2.2046    0.9701   -1.6116 H   0  0  0  0  0  0  0  0  0  0  0  0
   -2.6920    2.4098   -0.7510 H   0  0  0  0  0  0  0  0  0  0  0  0
   -0.6063    2.2117    0.6717 H   0  0  0  0  0  0  0  0  0  0  0  0
    9.9216   -2.1688    3.0475 H   0  0  0  0  0  0  0  0  0  0  0  0
    9.1601   -1.4440    4.4600 H   0  0  0  0  0  0  0  0  0  0  0  0
    8.7585   -3.0929    3.9944 H   0  0  0  0  0  0  0  0  0  0  0  0
    8.8633    0.1792   -2.0904 H   0  0  0  0  0  0  0  0  0  0  0  0
    8.7309   -0.9874   -3.4009 H   0  0  0  0  0  0  0  0  0  0  0  0
    7.3420    0.0018   -2.9618 H   0  0  0  0  0  0  0  0  0  0  0  0
    8.0947   -0.5600    2.3950 H   0  0  0  0  0  0  0  0  0  0  0  0
    6.9359   -1.5064    3.3120 H   0  0  0  0  0  0  0  0  0  0  0  0
    7.0918   -2.3279   -2.0680 H   0  0  0  0  0  0  0  0  0  0  0  0
    8.6230   -2.1824   -1.2327 H   0  0  0  0  0  0  0  0  0  0  0  0
    7.7098   -0.2876    0.1212 H   0  0  0  0  0  0  0  0  0  0  0  0
    6.1837   -0.4116   -0.7131 H   0  0  0  0  0  0  0  0  0  0  0  0
    7.3638   -3.4778    1.8386 H   0  0  0  0  0  0  0  0  0  0  0  0
    8.5569   -2.5572    0.9494 H   0  0  0  0  0  0  0  0  0  0  0  0
    3.3572   -0.5334    1.4977 H   0  0  0  0  0  0  0  0  0  0  0  0
    1.4029   -0.4715   -2.3175 H   0  0  0  0  0  0  0  0  0  0  0  0
    4.9171   -2.8223   -1.7689 H   0  0  0  0  0  0  0  0  0  0  0  0
    3.0822   -2.0215   -3.2003 H   0  0  0  0  0  0  0  0  0  0  0  0
   -6.8067   -0.1272   -0.4377 H   0  0  0  0  0  0  0  0  0  0  0  0
   -4.9779   -1.2150    2.6360 H   0  0  0  0  0  0  0  0  0  0  0  0
   -3.6836    0.2684    3.3139 H   0  0  0  0  0  0  0  0  0  0  0  0
   -5.0531    2.9729    2.9311 H   0  0  0  0  0  0  0  0  0  0  0  0
   -5.5830    1.7109    4.0479 H   0  0  0  0  0  0  0  0  0  0  0  0
   -4.0279    2.5008    4.2860 H   0  0  0  0  0  0  0  0  0  0  0  0
   -2.1690    2.1545    2.6574 H   0  0  0  0  0  0  0  0  0  0  0  0
   -3.1825    2.4581    1.2660 H   0  0  0  0  0  0  0  0  0  0  0  0
   -0.6808    0.2715    2.6781 H   0  0  0  0  0  0  0  0  0  0  0  0
   -1.8730   -0.8195    2.5828 H   0  0  0  0  0  0  0  0  0  0  0  0
   -1.2114    4.4712   -0.8308 H   0  0  0  0  0  0  0  0  0  0  0  0
    1.3490    4.8221   -4.2429 H   0  0  0  0  0  0  0  0  0  0  0  0
   -0.1960   -0.2454   -0.8945 H   0  0  0  0  0  0  0  0  0  0  0  0
   -1.8187    1.8396   -1.0706 C   0  0  0  0  0  0  0  0  0  0  0  0
  1  2  2  0
  1 34  1  0
  1 41  1  0
  2 36  1  0
  2 42  1  0
  3 35  1  0
  3 36  2  0
  3 43  1  0
  4  5  2  0
  4  8  1  0
  4 44  1  0
  5 27  1  0
  5 28  1  0
  6  7  1  0
  6 27  2  0
  6 45  1  0
  7  8  2  0
  7 26  1  0
  8 46  1  0
  9 11  1  0
  9 32  1  0
  9 33  1  0
  9 47  1  6
 82 11  1  0
 82 34  1  0
 82 48  1  0
 82 49  1  0
 10 28  1  0
 10 29  2  0
 10 30  1  0
 11 37  1  0
 11 50  1  1
 12 21  1  0
 12 37  1  0
 12 38  2  0
 13 15  1  0
 13 51  1  0
 13 52  1  0
 13 53  1  0
 14 16  1  0
 14 54  1  0
 14 55  1  0
 14 56  1  0
 15 18  1  0
 15 57  1  0
 15 58  1  0
 16 17  1  0
 16 59  1  0
 16 60  1  0
 17 40  1  0
 17 61  1  0
 17 62  1  0
 18 40  1  0
 18 63  1  0
 18 64  1  0
 19 23  1  0
 19 39  2  0
 19 40  1  0
 20 21  2  0
 20 23  1  0
 20 65  1  0
 21 22  1  0
 22 25  2  0
 22 66  1  0
 23 24  2  0
 24 25  1  0
 24 67  1  0
 25 68  1  0
 27 69  1  0
 28 70  1  0
 30 31  1  0
 30 32  1  0
 30 71  1  1
 31 72  1  0
 31 73  1  0
 31 74  1  0
 32 75  1  0
 32 76  1  0
 33 77  1  0
 33 78  1  0
 34 35  2  0
 35 79  1  0
 36 80  1  0
 37 81  1  0
M  END
