
     RDKit          3D

 25 24  0  0  0  0  0  0  0  0999 V2000
    1.8341   -0.1994   -1.6290 N   0  0  0  0  0  0  0  0  0  0  0  0
    0.4264   -0.3853   -1.3505 C   0  0  2  0  0  0  0  0  0  0  0  0
   -0.4049    0.0723   -2.5380 C   0  0  0  0  0  0  0  0  0  0  0  0
   -0.2898    1.0929   -3.2202 O   0  0  0  0  0  0  0  0  0  0  0  0
   -1.4054   -0.7892   -2.8643 O   0  0  0  0  0  0  0  0  0  0  0  0
   -0.1350    0.3370   -0.1128 C   0  0  0  0  0  0  0  0  0  0  0  0
    0.3459   -0.2998    1.1715 C   0  0  0  0  0  0  0  0  0  0  0  0
   -0.3629    0.2970    2.3701 C   0  0  0  0  0  0  0  0  0  0  0  0
    0.1342   -0.3150    3.6627 C   0  0  0  0  0  0  0  0  0  0  0  0
   -0.5739    0.2697    4.8576 C   0  0  0  0  0  0  0  0  0  0  0  0
    2.3751   -0.8627   -1.1100 H   0  0  0  0  0  0  0  0  0  0  0  0
    2.1279    0.7302   -1.3976 H   0  0  0  0  0  0  0  0  0  0  0  0
    0.2614   -1.4982   -1.2167 H   0  0  0  0  0  0  0  0  0  0  0  0
   -1.8984   -0.4429   -3.6270 H   0  0  0  0  0  0  0  0  0  0  0  0
   -1.2550    0.2884   -0.1586 H   0  0  0  0  0  0  0  0  0  0  0  0
    0.1571    1.4189   -0.1378 H   0  0  0  0  0  0  0  0  0  0  0  0
    1.4519   -0.1506    1.2870 H   0  0  0  0  0  0  0  0  0  0  0  0
    0.1613   -1.4060    1.1388 H   0  0  0  0  0  0  0  0  0  0  0  0
   -1.4682    0.1288    2.2762 H   0  0  0  0  0  0  0  0  0  0  0  0
   -0.1974    1.4065    2.3911 H   0  0  0  0  0  0  0  0  0  0  0  0
    1.2388   -0.1426    3.7577 H   0  0  0  0  0  0  0  0  0  0  0  0
   -0.0253   -1.4253    3.6359 H   0  0  0  0  0  0  0  0  0  0  0  0
   -0.1922   -0.1937    5.7995 H   0  0  0  0  0  0  0  0  0  0  0  0
   -0.4071    1.3727    4.9144 H   0  0  0  0  0  0  0  0  0  0  0  0
   -1.6737    0.0850    4.7940 H   0  0  0  0  0  0  0  0  0  0  0  0
  1  2  1  0
  1 11  1  0
  1 12  1  0
  2  3  1  0
  2  6  1  0
  2 13  1  1
  3  4  2  0
  3  5  1  0
  5 14  1  0
  6  7  1  0
  6 15  1  0
  6 16  1  0
  7  8  1  0
  7 17  1  0
  7 18  1  0
  8  9  1  0
  8 19  1  0
  8 20  1  0
  9 10  1  0
  9 21  1  0
  9 22  1  0
 10 23  1  0
 10 24  1  0
 10 25  1  0
M  END
