
     RDKit          3D

 31 31  0  0  0  0  0  0  0  0999 V2000
    8.1841    0.4058    0.7616 C   0  0  0  0  0  0  0  0  0  0  0  0
    6.8349    0.0001    0.4039 C   0  0  0  0  0  0  0  0  0  0  0  0
    5.7179   -0.3303    0.1061 C   0  0  0  0  0  0  0  0  0  0  0  0
    4.3756   -0.7566   -0.2578 C   0  0  0  0  0  0  0  0  0  0  0  0
    3.4807    0.3052    0.0270 O   0  0  0  0  0  0  0  0  0  0  0  0
    2.1681    0.1089   -0.2215 C   0  0  0  0  0  0  0  0  0  0  0  0
    1.3210    1.1803    0.0772 C   0  0  0  0  0  0  0  0  0  0  0  0
   -0.0373    1.0725   -0.1410 C   0  0  0  0  0  0  0  0  0  0  0  0
    1.6301   -1.0633   -0.7393 C   0  0  0  0  0  0  0  0  0  0  0  0
    0.2565   -1.1530   -0.9488 C   0  0  0  0  0  0  0  0  0  0  0  0
   -0.5929   -0.0976   -0.6614 C   0  0  0  0  0  0  0  0  0  0  0  0
   -2.0707   -0.2033   -0.9111 C   0  0  0  0  0  0  0  0  0  0  0  0
   -2.8002    0.0004    0.3381 N   0  0  0  0  0  0  0  0  0  0  0  0
   -4.3939    0.3735    0.2885 S   0  0  1  0  0  0  0  0  0  0  0  0
   -4.8452    0.3624    1.6694 O   0  0  0  0  0  0  0  0  0  0  0  0
   -4.5662    1.5794   -0.4994 O   0  0  0  0  0  0  0  0  0  0  0  0
   -5.0725   -0.8366   -0.6125 N   0  0  0  0  0  0  0  0  0  0  0  0
    8.8907   -0.4044    0.5811 H   0  0  0  0  0  0  0  0  0  0  0  0
    8.5050    1.2651    0.1732 H   0  0  0  0  0  0  0  0  0  0  0  0
    8.2469    0.6748    1.8158 H   0  0  0  0  0  0  0  0  0  0  0  0
    4.3422   -1.0186   -1.3216 H   0  0  0  0  0  0  0  0  0  0  0  0
    4.1045   -1.6563    0.3065 H   0  0  0  0  0  0  0  0  0  0  0  0
    1.7394    2.0944    0.4796 H   0  0  0  0  0  0  0  0  0  0  0  0
   -0.6776    1.9133    0.0972 H   0  0  0  0  0  0  0  0  0  0  0  0
    2.2476   -1.9172   -0.9826 H   0  0  0  0  0  0  0  0  0  0  0  0
   -0.1477   -2.0752   -1.3488 H   0  0  0  0  0  0  0  0  0  0  0  0
   -2.3841    0.5691   -1.6149 H   0  0  0  0  0  0  0  0  0  0  0  0
   -2.3086   -1.1694   -1.3627 H   0  0  0  0  0  0  0  0  0  0  0  0
   -2.5857   -0.6767    1.0624 H   0  0  0  0  0  0  0  0  0  0  0  0
   -5.1291   -1.7157   -0.1091 H   0  0  0  0  0  0  0  0  0  0  0  0
   -5.9863   -0.5784   -0.9705 H   0  0  0  0  0  0  0  0  0  0  0  0
  4  5  1  0
  4  3  1  0
  9  6  2  0
  9 10  1  0
  6  5  1  0
  6  7  1  0
 10 11  2  0
  7  8  2  0
  3  2  3  0
 11  8  1  0
 11 12  1  0
  2  1  1  0
 12 13  1  0
 14 17  1  6
 13 14  1  0
 16 14  2  0
 14 15  2  0
  1 18  1  0
  1 19  1  0
  1 20  1  0
  4 21  1  0
  4 22  1  0
  7 23  1  0
  8 24  1  0
  9 25  1  0
 10 26  1  0
 12 27  1  0
 12 28  1  0
 13 29  1  0
 17 30  1  0
 17 31  1  0
M  END
