
     RDKit          3D

 20 20  0  0  0  0  0  0  0  0999 V2000
    2.2097   -1.6667   -0.1844 O   0  0  0  0  0  0  0  0  0  0  0  0
    2.3052   -0.3547   -0.2672 C   0  0  0  0  0  0  0  0  0  0  0  0
    2.9356    0.2381   -1.1073 O   0  0  0  0  0  0  0  0  0  0  0  0
    1.4868    0.3538    0.8017 C   0  0  1  0  0  0  0  0  0  0  0  0
    1.8712    1.6914    0.9000 O   0  0  0  0  0  0  0  0  0  0  0  0
    0.0203    0.1768    0.4598 C   0  0  0  0  0  0  0  0  0  0  0  0
   -0.7260   -0.8451    1.0365 C   0  0  0  0  0  0  0  0  0  0  0  0
   -2.0592   -1.0317    0.7120 C   0  0  0  0  0  0  0  0  0  0  0  0
   -0.6034    1.0184   -0.4540 C   0  0  0  0  0  0  0  0  0  0  0  0
   -1.9375    0.8450   -0.7884 C   0  0  0  0  0  0  0  0  0  0  0  0
   -2.6742   -0.1846   -0.2074 C   0  0  0  0  0  0  0  0  0  0  0  0
   -3.9731   -0.4003   -0.4910 O   0  0  0  0  0  0  0  0  0  0  0  0
    2.6922   -2.0912   -0.9105 H   0  0  0  0  0  0  0  0  0  0  0  0
    1.6859   -0.1316    1.7634 H   0  0  0  0  0  0  0  0  0  0  0  0
    2.2459    1.9711    0.0556 H   0  0  0  0  0  0  0  0  0  0  0  0
   -0.2647   -1.5086    1.7587 H   0  0  0  0  0  0  0  0  0  0  0  0
   -2.6291   -1.8280    1.1739 H   0  0  0  0  0  0  0  0  0  0  0  0
   -0.0574    1.8307   -0.9173 H   0  0  0  0  0  0  0  0  0  0  0  0
   -2.4043    1.5157   -1.5013 H   0  0  0  0  0  0  0  0  0  0  0  0
   -4.2868    0.2402   -1.1389 H   0  0  0  0  0  0  0  0  0  0  0  0
  2  1  1  0
  1 13  1  0
  3  2  2  0
  2  4  1  0
  4  5  1  0
  4  6  1  0
  4 14  1  1
  5 15  1  0
  9  6  2  0
  6  7  1  0
  7  8  2  0
  7 16  1  0
 11  8  1  0
  8 17  1  0
  9 10  1  0
  9 18  1  0
 10 11  2  0
 10 19  1  0
 11 12  1  0
 12 20  1  0
M  END
