
     RDKit          3D

 25 25  0  0  0  0  0  0  0  0999 V2000
    2.4361   -0.7788   -0.2652 C   0  0  0  0  0  0  0  0  0  0  0  0
    0.9971    1.1977   -0.1721 N   0  0  0  0  0  0  0  0  0  0  0  0
    3.2535   -0.3768   -1.0962 O   0  0  0  0  0  0  0  0  0  0  0  0
    1.0690   -0.2085    0.1055 C   0  0  1  0  0  0  0  0  0  0  0  0
    0.0262   -1.0550   -0.6542 C   0  0  0  0  0  0  0  0  0  0  0  0
   -1.3666   -0.6074   -0.3923 C   0  0  0  0  0  0  0  0  0  0  0  0
   -3.9902    0.2349    0.1009 C   0  0  0  0  0  0  0  0  0  0  0  0
   -2.1210   -0.0138   -1.4102 C   0  0  0  0  0  0  0  0  0  0  0  0
   -1.9374   -0.7766    0.8761 C   0  0  0  0  0  0  0  0  0  0  0  0
   -3.4274    0.4054   -1.1631 C   0  0  0  0  0  0  0  0  0  0  0  0
   -3.2431   -0.3567    1.1198 C   0  0  0  0  0  0  0  0  0  0  0  0
    0.4976    1.4697   -0.9848 H   0  0  0  0  0  0  0  0  0  0  0  0
    0.9208   -0.3616    1.2203 H   0  0  0  0  0  0  0  0  0  0  0  0
   -5.0212    0.5659    0.2948 H   0  0  0  0  0  0  0  0  0  0  0  0
    0.2464   -1.0277   -1.7540 H   0  0  0  0  0  0  0  0  0  0  0  0
    0.1489   -2.1182   -0.3076 H   0  0  0  0  0  0  0  0  0  0  0  0
   -1.6831    0.1239   -2.4098 H   0  0  0  0  0  0  0  0  0  0  0  0
   -1.3504   -1.2430    1.6825 H   0  0  0  0  0  0  0  0  0  0  0  0
   -4.0139    0.8715   -1.9686 H   0  0  0  0  0  0  0  0  0  0  0  0
   -3.6841   -0.4927    2.1183 H   0  0  0  0  0  0  0  0  0  0  0  0
    2.2197    1.8830    1.6576 O   0  0  0  0  0  0  0  0  0  0  0  0
    1.5814    2.1538    0.6284 C   0  0  0  0  0  0  0  0  0  0  0  0
    1.4377    3.1940    0.2535 H   0  0  0  0  0  0  0  0  0  0  0  0
    2.7646   -1.8908    0.4456 O   0  0  0  0  0  0  0  0  0  0  0  0
    3.6405   -2.2094    0.1697 H   0  0  0  0  0  0  0  0  0  0  0  0
  4  1  1  0
  3  1  2  0
 22  2  1  0
 12  2  1  0
  2  4  1  0
  4 13  1  1
  4  5  1  0
 15  5  1  0
 16  5  1  0
  5  6  1  0
  6  8  2  0
  6  9  1  0
 10  7  2  0
 11  7  1  0
  7 14  1  0
 17  8  1  0
  8 10  1  0
 18  9  1  0
  9 11  2  0
 10 19  1  0
 11 20  1  0
 22 21  2  0
 23 22  1  0
  1 24  1  0
 24 25  1  0
M  END
