
     RDKit          3D

 44 44  0  0  0  0  0  0  0  0999 V2000
    2.9427    0.8112    2.6323 N   0  0  0  0  0  0  0  0  0  0  0  0
    3.3014    0.8309    1.3606 C   0  0  0  0  0  0  0  0  0  0  0  0
    4.7028    1.2341    1.0190 C   0  0  0  0  0  0  0  0  0  0  0  0
    2.4012    0.4745    0.3435 C   0  0  0  0  0  0  0  0  0  0  0  0
    2.8424    0.5003   -0.9210 O   0  0  0  0  0  0  0  0  0  0  0  0
    1.1008    0.0949    0.6789 C   0  0  0  0  0  0  0  0  0  0  0  0
    0.1289   -0.3518   -0.3871 C   0  0  0  0  0  0  0  0  0  0  0  0
    0.7489    0.0824    2.0328 C   0  0  0  0  0  0  0  0  0  0  0  0
    1.7063    0.4505    2.9634 C   0  0  0  0  0  0  0  0  0  0  0  0
   -0.6356   -0.3432    2.4363 C   0  0  0  0  0  0  0  0  0  0  0  0
   -0.7351   -0.3613    3.8552 O   0  0  0  0  0  0  0  0  0  0  0  0
   -2.1470   -0.6797    4.5353 P   0  0  1  0  0  0  0  0  0  0  0  0
   -2.8896   -1.8269    3.9828 O   0  0  0  0  0  0  0  0  0  0  0  0
   -1.6115   -0.7728    6.0314 O   0  0  0  0  0  0  0  0  0  0  0  0
   -3.0313    0.6442    4.4091 O   0  0  0  0  0  0  0  0  0  0  0  0
    0.3123    0.4122   -1.6203 N   0  0  0  0  0  0  0  0  0  0  0  0
   -0.3788   -0.0985   -2.8143 C   0  0  2  0  0  0  0  0  0  0  0  0
   -0.2139    0.9939   -3.8774 C   0  0  0  0  0  0  0  0  0  0  0  0
   -1.8572   -0.3850   -2.5715 C   0  0  0  0  0  0  0  0  0  0  0  0
   -0.6070    0.5701   -5.2641 C   0  0  0  0  0  0  0  0  0  0  0  0
   -0.7129   -0.5756   -5.6262 O   0  0  0  0  0  0  0  0  0  0  0  0
   -0.7935    1.6105   -6.0612 O   0  0  0  0  0  0  0  0  0  0  0  0
    0.3532   -1.3817   -3.2291 C   0  0  0  0  0  0  0  0  0  0  0  0
   -0.1168   -2.4868   -3.1543 O   0  0  0  0  0  0  0  0  0  0  0  0
    1.5946   -1.1365   -3.6190 O   0  0  0  0  0  0  0  0  0  0  0  0
    5.2507    0.4217    0.5375 H   0  0  0  0  0  0  0  0  0  0  0  0
    4.7229    2.0806    0.3305 H   0  0  0  0  0  0  0  0  0  0  0  0
    5.2386    1.5152    1.9235 H   0  0  0  0  0  0  0  0  0  0  0  0
    2.0395    0.4624   -1.5056 H   0  0  0  0  0  0  0  0  0  0  0  0
    0.3101   -1.4118   -0.5917 H   0  0  0  0  0  0  0  0  0  0  0  0
   -0.8986   -0.2831   -0.0235 H   0  0  0  0  0  0  0  0  0  0  0  0
    1.4797    0.4568    4.0215 H   0  0  0  0  0  0  0  0  0  0  0  0
   -1.3728    0.3487    2.0137 H   0  0  0  0  0  0  0  0  0  0  0  0
   -0.8565   -1.3382    2.0394 H   0  0  0  0  0  0  0  0  0  0  0  0
   -2.2834   -1.0296    6.6774 H   0  0  0  0  0  0  0  0  0  0  0  0
   -2.6555    1.4421    4.8050 H   0  0  0  0  0  0  0  0  0  0  0  0
    0.0087    1.3674   -1.4558 H   0  0  0  0  0  0  0  0  0  0  0  0
   -0.8015    1.8664   -3.5804 H   0  0  0  0  0  0  0  0  0  0  0  0
    0.8255    1.3344   -3.9172 H   0  0  0  0  0  0  0  0  0  0  0  0
   -2.3510    0.5227   -2.2212 H   0  0  0  0  0  0  0  0  0  0  0  0
   -2.3579   -0.7082   -3.4827 H   0  0  0  0  0  0  0  0  0  0  0  0
   -2.0129   -1.1621   -1.8259 H   0  0  0  0  0  0  0  0  0  0  0  0
   -1.0065    1.3109   -6.9584 H   0  0  0  0  0  0  0  0  0  0  0  0
    2.0447   -1.9650   -3.8435 H   0  0  0  0  0  0  0  0  0  0  0  0
  1  2  2  0
  1  9  1  0
  2  3  1  0
  2  4  1  0
  3 26  1  0
  3 27  1  0
  3 28  1  0
  4  5  1  0
  4  6  2  0
  5 29  1  0
  6  7  1  0
  6  8  1  0
  7 16  1  0
  7 30  1  0
  7 31  1  0
  8  9  2  0
  8 10  1  0
  9 32  1  0
 10 11  1  0
 10 33  1  0
 10 34  1  0
 12 11  1  6
 12 13  2  0
 12 14  1  0
 12 15  1  0
 14 35  1  0
 15 36  1  0
 16 17  1  0
 16 37  1  0
 17 18  1  0
 17 19  1  0
 17 23  1  6
 18 20  1  0
 18 38  1  0
 18 39  1  0
 19 40  1  0
 19 41  1  0
 19 42  1  0
 20 21  2  0
 20 22  1  0
 22 43  1  0
 23 24  2  0
 23 25  1  0
 25 44  1  0
M  END
