
     RDKit          3D

  9  8  0  0  0  0  0  0  0  0999 V2000
    0.5283   -0.3602   -0.0172 C   0  0  0  0  0  0  0  0  0  0  0  0
    1.9341    0.1514    0.0221 C   0  0  0  0  0  0  0  0  0  0  0  0
   -0.4451    0.4483   -0.0013 N   0  0  0  0  0  0  0  0  0  0  0  0
   -1.6612   -0.1847   -0.0517 O   0  0  0  0  0  0  0  0  0  0  0  0
    0.3673   -1.4377   -0.0624 H   0  0  0  0  0  0  0  0  0  0  0  0
    2.1813    0.7086   -0.8826 H   0  0  0  0  0  0  0  0  0  0  0  0
    2.0987    0.8151    0.8710 H   0  0  0  0  0  0  0  0  0  0  0  0
    2.6332   -0.6775    0.1011 H   0  0  0  0  0  0  0  0  0  0  0  0
   -2.3015    0.5332   -0.0256 H   0  0  0  0  0  0  0  0  0  0  0  0
  2  1  1  0
  3  1  2  0
  3  4  1  0
  1  5  1  0
  2  6  1  0
  2  7  1  0
  2  8  1  0
  4  9  1  0
M  END
