
     RDKit          3D

 28 29  0  0  0  0  0  0  0  0999 V2000
    1.9522    0.2714   -2.5729 N   0  0  0  0  0  0  0  0  0  0  0  0
    2.1997   -0.1961   -1.3108 C   0  0  0  0  0  0  0  0  0  0  0  0
    1.0313   -0.5542   -0.7003 C   0  0  0  0  0  0  0  0  0  0  0  0
   -1.3979   -0.4511   -1.6381 C   0  0  0  0  0  0  0  0  0  0  0  0
   -2.1258   -0.0971   -2.7573 C   0  0  0  0  0  0  0  0  0  0  0  0
   -1.4904    0.4177   -3.9002 C   0  0  0  0  0  0  0  0  0  0  0  0
   -0.1194    0.5842   -3.9466 C   0  0  0  0  0  0  0  0  0  0  0  0
    0.6116    0.2250   -2.8147 C   0  0  0  0  0  0  0  0  0  0  0  0
   -0.0071   -0.2904   -1.6533 C   0  0  0  0  0  0  0  0  0  0  0  0
    0.8577   -1.0826    0.6847 C   0  0  0  0  0  0  0  0  0  0  0  0
    0.2482   -0.0579    1.6442 C   0  0  0  0  0  0  0  0  0  0  0  0
    0.0567   -0.6487    3.0308 C   0  0  0  0  0  0  0  0  0  0  0  0
   -0.5303    0.3113    4.0272 C   0  0  0  0  0  0  0  0  0  0  0  0
   -0.6755   -0.2481    5.2258 O   0  0  0  0  0  0  0  0  0  0  0  0
   -0.8410    1.4535    3.7963 O   0  0  0  0  0  0  0  0  0  0  0  0
    2.6567    0.5785   -3.2221 H   0  0  0  0  0  0  0  0  0  0  0  0
    3.2096   -0.2425   -0.9331 H   0  0  0  0  0  0  0  0  0  0  0  0
   -1.8969   -0.8503   -0.7628 H   0  0  0  0  0  0  0  0  0  0  0  0
   -3.2017   -0.2159   -2.7587 H   0  0  0  0  0  0  0  0  0  0  0  0
   -2.0868    0.6899   -4.7616 H   0  0  0  0  0  0  0  0  0  0  0  0
    0.3666    0.9790   -4.8298 H   0  0  0  0  0  0  0  0  0  0  0  0
    1.8254   -1.4098    1.0750 H   0  0  0  0  0  0  0  0  0  0  0  0
    0.2206   -1.9736    0.6620 H   0  0  0  0  0  0  0  0  0  0  0  0
   -0.7107    0.2889    1.2515 H   0  0  0  0  0  0  0  0  0  0  0  0
    0.9005    0.8168    1.6923 H   0  0  0  0  0  0  0  0  0  0  0  0
    1.0098   -1.0110    3.4295 H   0  0  0  0  0  0  0  0  0  0  0  0
   -0.5927   -1.5293    2.9864 H   0  0  0  0  0  0  0  0  0  0  0  0
   -1.0545    0.3936    5.8445 H   0  0  0  0  0  0  0  0  0  0  0  0
  1  2  1  0
  1  8  1  0
  1 16  1  0
  2  3  2  0
  2 17  1  0
  3  9  1  0
  3 10  1  0
  4  5  1  0
  4  9  2  0
  4 18  1  0
  5  6  2  0
  5 19  1  0
  6  7  1  0
  6 20  1  0
  7  8  2  0
  7 21  1  0
  8  9  1  0
 10 11  1  0
 10 22  1  0
 10 23  1  0
 11 12  1  0
 11 24  1  0
 11 25  1  0
 12 13  1  0
 12 26  1  0
 12 27  1  0
 13 14  1  0
 13 15  2  0
 14 28  1  0
M  END
