
     RDKit          3D

 31 33  0  0  0  0  0  0  0  0999 V2000
    3.2617    0.0015    0.0203 C   0  0  0  0  0  0  0  0  0  0  0  0
    3.1385    1.3912    0.2118 C   0  0  0  0  0  0  0  0  0  0  0  0
    1.9026    1.9975    0.2966 C   0  0  0  0  0  0  0  0  0  0  0  0
    0.7901    1.1746    0.1735 C   0  0  0  0  0  0  0  0  0  0  0  0
    0.8981   -0.2154   -0.0231 C   0  0  0  0  0  0  0  0  0  0  0  0
    2.1454   -0.8181   -0.0957 C   0  0  0  0  0  0  0  0  0  0  0  0
    4.6022   -0.5945   -0.0570 C   0  0  0  0  0  0  0  0  0  0  0  0
    4.8127   -1.7759    0.4725 N   0  0  0  0  0  0  0  0  0  0  0  0
    5.5664    0.0640   -0.6542 N   0  0  0  0  0  0  0  0  0  0  0  0
   -0.5484    1.4262    0.1950 N   0  0  0  0  0  0  0  0  0  0  0  0
   -0.3546   -0.7615   -0.1198 N   0  0  0  0  0  0  0  0  0  0  0  0
   -1.1855    0.2449    0.0163 C   0  0  0  0  0  0  0  0  0  0  0  0
   -2.6317    0.1207   -0.0240 C   0  0  0  0  0  0  0  0  0  0  0  0
   -3.3337    1.2413    0.1320 N   0  0  0  0  0  0  0  0  0  0  0  0
   -4.6495    1.1814    0.0985 C   0  0  0  0  0  0  0  0  0  0  0  0
   -5.3340   -0.0178   -0.0966 C   0  0  0  0  0  0  0  0  0  0  0  0
   -4.6185   -1.1852   -0.2599 C   0  0  0  0  0  0  0  0  0  0  0  0
   -3.2240   -1.1366   -0.2248 C   0  0  0  0  0  0  0  0  0  0  0  0
   -2.5264   -2.2583   -0.3817 O   0  0  0  0  0  0  0  0  0  0  0  0
    4.0245    2.0014    0.3252 H   0  0  0  0  0  0  0  0  0  0  0  0
    1.8122    3.0627    0.4562 H   0  0  0  0  0  0  0  0  0  0  0  0
    2.2316   -1.8832   -0.2676 H   0  0  0  0  0  0  0  0  0  0  0  0
    5.7021   -2.2464    0.3972 H   0  0  0  0  0  0  0  0  0  0  0  0
    4.1161   -2.2114    1.0546 H   0  0  0  0  0  0  0  0  0  0  0  0
    5.3730    0.9026   -1.1768 H   0  0  0  0  0  0  0  0  0  0  0  0
    6.5161   -0.2760   -0.6735 H   0  0  0  0  0  0  0  0  0  0  0  0
   -1.0052    2.3176    0.3210 H   0  0  0  0  0  0  0  0  0  0  0  0
   -5.1885    2.1117    0.2301 H   0  0  0  0  0  0  0  0  0  0  0  0
   -6.4148   -0.0285   -0.1188 H   0  0  0  0  0  0  0  0  0  0  0  0
   -5.1199   -2.1318   -0.4163 H   0  0  0  0  0  0  0  0  0  0  0  0
   -1.5629   -2.0545   -0.3309 H   0  0  0  0  0  0  0  0  0  0  0  0
  1  2  2  0
  1  6  1  0
  1  7  1  0
  2  3  1  0
  2 20  1  0
  3  4  2  0
  3 21  1  0
  4  5  1  0
  4 10  1  0
  5  6  2  0
  5 11  1  0
  6 22  1  0
  7  8  1  0
  7  9  2  0
  8 23  1  0
  8 24  1  0
  9 25  1  0
  9 26  1  0
 10 12  1  0
 10 27  1  0
 11 12  2  0
 12 13  1  0
 13 14  2  0
 13 18  1  0
 14 15  1  0
 15 16  2  0
 15 28  1  0
 16 17  1  0
 16 29  1  0
 17 18  2  0
 17 30  1  0
 18 19  1  0
 19 31  1  0
M  CHG  1   9   1
M  END
