
     RDKit          3D

 19 19  0  0  0  0  0  0  0  0999 V2000
   -1.9702    0.4162    0.0077 C   0  0  0  0  0  0  0  0  0  0  0  0
   -3.3533    0.0667   -0.0309 N   0  0  0  0  0  0  0  0  0  0  0  0
   -3.6849   -1.1007   -0.0490 O   0  0  0  0  0  0  0  0  0  0  0  0
   -1.0190   -0.5260   -0.0029 C   0  0  0  0  0  0  0  0  0  0  0  0
   -4.1468    0.9874   -0.0426 O   0  0  0  0  0  0  0  0  0  0  0  0
    0.4059   -0.2868    0.0308 C   0  0  0  0  0  0  0  0  0  0  0  0
    0.9753    0.9920    0.0921 C   0  0  0  0  0  0  0  0  0  0  0  0
    2.3420    1.1613    0.1266 C   0  0  0  0  0  0  0  0  0  0  0  0
    3.1885    0.0480    0.0964 C   0  0  0  0  0  0  0  0  0  0  0  0
    4.5209    0.1580    0.1273 O   0  0  0  0  0  0  0  0  0  0  0  0
    2.6407   -1.2336    0.0363 C   0  0  0  0  0  0  0  0  0  0  0  0
    1.2699   -1.3883    0.0035 C   0  0  0  0  0  0  0  0  0  0  0  0
   -1.8033    1.4815    0.0515 H   0  0  0  0  0  0  0  0  0  0  0  0
   -1.3244   -1.5658   -0.0415 H   0  0  0  0  0  0  0  0  0  0  0  0
    0.3472    1.8731    0.1157 H   0  0  0  0  0  0  0  0  0  0  0  0
    2.7584    2.1608    0.1749 H   0  0  0  0  0  0  0  0  0  0  0  0
    4.7882    1.0841    0.1694 H   0  0  0  0  0  0  0  0  0  0  0  0
    3.2925   -2.0971    0.0113 H   0  0  0  0  0  0  0  0  0  0  0  0
    0.8563   -2.3885   -0.0428 H   0  0  0  0  0  0  0  0  0  0  0  0
  1  4  2  0
  2  1  1  0
  2  3  2  0
  4  6  1  0
  5  2  1  0
  6 12  2  0
  7  6  1  0
  7  8  2  0
  8  9  1  0
  9 11  2  0
  9 10  1  0
 12 11  1  0
  1 13  1  0
  4 14  1  0
  7 15  1  0
  8 16  1  0
 10 17  1  0
 11 18  1  0
 12 19  1  0
M  CHG  2   2   1   5  -1
M  END
