
     RDKit          3D

 94100  0  0  0  0  0  0  0  0999 V2000
    2.2610    2.7146   -2.8606 O   0  0  0  0  0  0  0  0  0  0  0  0
    2.7294    2.7161   -1.7508 C   0  0  0  0  0  0  0  0  0  0  0  0
    3.7036    3.7257   -1.2301 C   0  0  0  0  0  0  0  0  0  0  0  0
    2.4628    1.7743   -0.8381 O   0  0  0  0  0  0  0  0  0  0  0  0
    1.5212    0.7492   -1.1631 C   0  0  2  0  0  0  0  0  0  0  0  0
    0.1241    1.3458   -0.9384 C   0  0  2  0  0  0  0  0  0  0  0  0
    0.0423    1.7793    0.4188 O   0  0  0  0  0  0  0  0  0  0  0  0
    0.2660    3.0486    0.7479 C   0  0  0  0  0  0  0  0  0  0  0  0
    0.5202    3.9217   -0.0432 O   0  0  0  0  0  0  0  0  0  0  0  0
    0.1525    3.2638    2.2284 C   0  0  0  0  0  0  0  0  0  0  0  0
    1.8096   -0.5120   -0.3250 C   0  0  2  0  0  0  0  0  0  0  0  0
    3.2557   -1.0932   -0.5235 C   0  0  1  0  0  0  0  0  0  0  0  0
    3.5305   -1.3835   -2.0019 C   0  0  0  0  0  0  0  0  0  0  0  0
    4.3533   -0.1148   -0.0365 C   0  0  1  0  0  0  0  0  0  0  0  0
    3.9294    0.4035    1.2222 O   0  0  0  0  0  0  0  0  0  0  0  0
    4.5433    1.4647    1.7258 C   0  0  0  0  0  0  0  0  0  0  0  0
    3.9302    1.9162    3.0183 C   0  0  0  0  0  0  0  0  0  0  0  0
    5.4870    2.0003    1.1987 O   0  0  0  0  0  0  0  0  0  0  0  0
    5.7354   -0.7321    0.1014 C   0  0  1  0  0  0  0  0  0  0  0  0
    6.0083   -1.3660    1.3378 O   0  0  0  0  0  0  0  0  0  0  0  0
    5.9227   -2.1771    0.1795 C   0  0  1  0  0  0  0  0  0  0  0  0
    4.7537   -3.1038    0.0956 C   0  0  0  0  0  0  0  0  0  0  0  0
    3.4173   -2.3988    0.3111 C   0  0  2  0  0  0  0  0  0  0  0  0
    2.2899   -3.3483    0.0606 C   0  0  0  0  0  0  0  0  0  0  0  0
    2.4376   -4.5060   -0.2627 O   0  0  0  0  0  0  0  0  0  0  0  0
    0.9045   -2.7993    0.2675 C   0  0  2  0  0  0  0  0  0  0  0  0
   -0.0385   -3.7958   -0.0046 O   0  0  0  0  0  0  0  0  0  0  0  0
    0.6919   -1.5599   -0.6141 C   0  0  1  0  0  0  0  0  0  0  0  0
   -0.6734   -0.9227   -0.3306 C   0  0  1  0  0  0  0  0  0  0  0  0
   -0.9635    0.3085   -1.2003 C   0  0  2  0  0  0  0  0  0  0  0  0
   -0.9770    0.0062   -2.7053 C   0  0  0  0  0  0  0  0  0  0  0  0
   -1.9697   -1.7600   -0.3878 C   0  0  1  0  0  0  0  0  0  0  0  0
   -2.2262   -2.4443    0.8084 O   0  0  0  0  0  0  0  0  0  0  0  0
   -3.0660   -0.7117   -0.7079 C   0  0  2  0  0  0  0  0  0  0  0  0
   -2.3802    0.6642   -0.6934 C   0  0  2  0  0  0  0  0  0  0  0  0
   -4.4577   -0.8220   -0.0571 C   0  0  1  0  0  0  0  0  0  0  0  0
   -5.0892   -2.1481   -0.5192 C   0  0  0  0  0  0  0  0  0  0  0  0
   -4.6691   -0.6858    1.4815 C   0  0  1  0  0  0  0  0  0  0  0  0
   -4.7757   -1.9431    2.0927 O   0  0  0  0  0  0  0  0  0  0  0  0
   -3.6791    0.1697    2.2730 C   0  0  0  0  0  0  0  0  0  0  0  0
   -6.0485   -0.0187    1.5308 C   0  0  0  0  0  0  0  0  0  0  0  0
   -6.7793    0.0184    2.4846 O   0  0  0  0  0  0  0  0  0  0  0  0
   -6.3702    0.5320    0.3728 O   0  0  0  0  0  0  0  0  0  0  0  0
   -5.3041    0.3763   -0.6004 C   0  0  2  0  0  0  0  0  0  0  0  0
   -5.8692    0.0372   -1.8040 O   0  0  0  0  0  0  0  0  0  0  0  0
   -4.5873    1.7229   -0.6931 C   0  0  0  0  0  0  0  0  0  0  0  0
   -3.2516    1.6713   -1.4363 C   0  0  1  0  0  0  0  0  0  0  0  0
   -2.6766    3.0784   -1.5311 C   0  0  0  0  0  0  0  0  0  0  0  0
    3.7609    4.5735   -1.9069 H   0  0  0  0  0  0  0  0  0  0  0  0
    3.4266    4.0713   -0.2359 H   0  0  0  0  0  0  0  0  0  0  0  0
    4.6943    3.2759   -1.1529 H   0  0  0  0  0  0  0  0  0  0  0  0
    1.6138    0.5066   -2.2224 H   0  0  0  0  0  0  0  0  0  0  0  0
    0.0030    2.1945   -1.6132 H   0  0  0  0  0  0  0  0  0  0  0  0
   -0.1360    2.3648    2.7661 H   0  0  0  0  0  0  0  0  0  0  0  0
    1.1102    3.6128    2.6156 H   0  0  0  0  0  0  0  0  0  0  0  0
   -0.5755    4.0501    2.4264 H   0  0  0  0  0  0  0  0  0  0  0  0
    1.7027   -0.2456    0.7316 H   0  0  0  0  0  0  0  0  0  0  0  0
    3.4143   -0.4913   -2.6174 H   0  0  0  0  0  0  0  0  0  0  0  0
    4.5497   -1.7324   -2.1652 H   0  0  0  0  0  0  0  0  0  0  0  0
    2.8633   -2.1481   -2.4023 H   0  0  0  0  0  0  0  0  0  0  0  0
    4.4556    0.6917   -0.7599 H   0  0  0  0  0  0  0  0  0  0  0  0
    3.0640    1.3269    3.3063 H   0  0  0  0  0  0  0  0  0  0  0  0
    4.6762    1.8593    3.8109 H   0  0  0  0  0  0  0  0  0  0  0  0
    3.6369    2.9626    2.9324 H   0  0  0  0  0  0  0  0  0  0  0  0
    6.5485   -0.1254   -0.2879 H   0  0  0  0  0  0  0  0  0  0  0  0
    6.8720   -2.5880   -0.1585 H   0  0  0  0  0  0  0  0  0  0  0  0
    4.7800   -3.5929   -0.8799 H   0  0  0  0  0  0  0  0  0  0  0  0
    4.8715   -3.9007    0.8336 H   0  0  0  0  0  0  0  0  0  0  0  0
    3.3225   -2.1199    1.3700 H   0  0  0  0  0  0  0  0  0  0  0  0
    0.8424   -2.4815    1.3214 H   0  0  0  0  0  0  0  0  0  0  0  0
    0.4344   -4.6358   -0.1023 H   0  0  0  0  0  0  0  0  0  0  0  0
    0.7418   -1.8887   -1.6590 H   0  0  0  0  0  0  0  0  0  0  0  0
   -0.6238   -0.5668    0.7079 H   0  0  0  0  0  0  0  0  0  0  0  0
   -1.7031   -0.7624   -2.9649 H   0  0  0  0  0  0  0  0  0  0  0  0
   -1.2339    0.9020   -3.2728 H   0  0  0  0  0  0  0  0  0  0  0  0
   -0.0180   -0.3437   -3.0826 H   0  0  0  0  0  0  0  0  0  0  0  0
   -1.9236   -2.4667   -1.2242 H   0  0  0  0  0  0  0  0  0  0  0  0
   -1.6375   -3.2121    0.8056 H   0  0  0  0  0  0  0  0  0  0  0  0
   -3.3083   -0.8747   -1.7637 H   0  0  0  0  0  0  0  0  0  0  0  0
   -2.2651    1.0226    0.3323 H   0  0  0  0  0  0  0  0  0  0  0  0
   -6.1377   -2.2523   -0.2359 H   0  0  0  0  0  0  0  0  0  0  0  0
   -5.0299   -2.2424   -1.6015 H   0  0  0  0  0  0  0  0  0  0  0  0
   -4.5480   -2.9839   -0.0861 H   0  0  0  0  0  0  0  0  0  0  0  0
   -5.0388   -1.8067    3.0101 H   0  0  0  0  0  0  0  0  0  0  0  0
   -3.6279    1.2066    1.9494 H   0  0  0  0  0  0  0  0  0  0  0  0
   -3.9807    0.1867    3.3225 H   0  0  0  0  0  0  0  0  0  0  0  0
   -2.6822   -0.2627    2.2143 H   0  0  0  0  0  0  0  0  0  0  0  0
   -6.1485    0.8320   -2.2735 H   0  0  0  0  0  0  0  0  0  0  0  0
   -5.2633    2.4371   -1.1777 H   0  0  0  0  0  0  0  0  0  0  0  0
   -4.4138    2.1296    0.3065 H   0  0  0  0  0  0  0  0  0  0  0  0
   -3.4287    1.3058   -2.4544 H   0  0  0  0  0  0  0  0  0  0  0  0
   -2.4109    3.4711   -0.5477 H   0  0  0  0  0  0  0  0  0  0  0  0
   -1.7895    3.1205   -2.1617 H   0  0  0  0  0  0  0  0  0  0  0  0
   -3.4081    3.7601   -1.9682 H   0  0  0  0  0  0  0  0  0  0  0  0
 36 37  1  6
 44 45  1  6
 43 41  1  0
 43 44  1  0
 42 41  2  0
 41 38  1  0
 44 36  1  0
 44 46  1  0
 36 38  1  0
 36 34  1  0
 38 39  1  1
 38 40  1  0
 46 47  1  0
 34 32  1  0
 34 35  1  0
 33 32  1  0
 32 29  1  0
 47 35  1  0
 47 48  1  0
 35 30  1  0
 30 31  1  6
 27 26  1  0
 29 30  1  0
 29 28  1  0
 30  6  1  0
 26 28  1  0
 26 24  1  0
 28 11  1  0
 25 24  2  0
  6  7  1  0
  6  5  1  0
 24 23  1  0
  7  8  1  0
 11  5  1  0
 11 12  1  0
  5  4  1  0
  3  2  1  0
  8 10  1  0
  8  9  2  0
 12 13  1  6
 23 12  1  0
 23 22  1  0
 12 14  1  0
  4  2  1  0
 22 21  1  0
  2  1  2  0
 14 15  1  0
 14 19  1  0
 15 16  1  0
 21 19  1  0
 21 20  1  0
 19 20  1  0
 16 18  2  0
 16 17  1  0
  3 49  1  0
  3 50  1  0
  3 51  1  0
  5 52  1  6
  6 53  1  6
 10 54  1  0
 10 55  1  0
 10 56  1  0
 11 57  1  1
 13 58  1  0
 13 59  1  0
 13 60  1  0
 14 61  1  6
 17 62  1  0
 17 63  1  0
 17 64  1  0
 19 65  1  6
 21 66  1  6
 22 67  1  0
 22 68  1  0
 23 69  1  1
 26 70  1  1
 27 71  1  0
 28 72  1  6
 29 73  1  1
 31 74  1  0
 31 75  1  0
 31 76  1  0
 32 77  1  6
 33 78  1  0
 34 79  1  6
 35 80  1  1
 37 81  1  0
 37 82  1  0
 37 83  1  0
 39 84  1  0
 40 85  1  0
 40 86  1  0
 40 87  1  0
 45 88  1  0
 46 89  1  0
 46 90  1  0
 47 91  1  6
 48 92  1  0
 48 93  1  0
 48 94  1  0
M  END
