
     RDKit          3D

 74 78  0  0  0  0  0  0  0  0999 V2000
   -5.3961   -0.7517   -2.2962 O   0  0  0  0  0  0  0  0  0  0  0  0
   -5.0530   -0.2445   -1.2381 C   0  0  0  0  0  0  0  0  0  0  0  0
   -5.9198    0.1726   -0.2997 N   0  0  0  0  0  0  0  0  0  0  0  0
   -7.3592    0.0711   -0.4331 C   0  0  1  0  0  0  0  0  0  0  0  0
   -7.8897   -1.2941   -0.0023 C   0  0  0  0  0  0  0  0  0  0  0  0
   -9.4078   -1.3223   -0.0869 C   0  0  0  0  0  0  0  0  0  0  0  0
   -9.9966   -0.2740    0.7247 N   0  0  0  0  0  0  0  0  0  0  0  0
  -11.4392   -0.3555    0.7336 C   0  0  0  0  0  0  0  0  0  0  0  0
   -9.5486    1.0368    0.2946 C   0  0  0  0  0  0  0  0  0  0  0  0
   -8.0362    1.1642    0.3834 C   0  0  0  0  0  0  0  0  0  0  0  0
   -3.6177   -0.0057   -0.9045 C   0  0  0  0  0  0  0  0  0  0  0  0
   -3.2043    1.2015   -0.3266 C   0  0  0  0  0  0  0  0  0  0  0  0
   -1.8761    1.4504   -0.0516 C   0  0  0  0  0  0  0  0  0  0  0  0
   -1.4055    2.5924    0.4867 O   0  0  0  0  0  0  0  0  0  0  0  0
   -2.3255    3.6012    0.8578 C   0  0  0  0  0  0  0  0  0  0  0  0
   -2.6404   -0.9375   -1.1845 C   0  0  0  0  0  0  0  0  0  0  0  0
   -2.9808   -2.1234   -1.7099 F   0  0  0  0  0  0  0  0  0  0  0  0
   -1.3013   -0.7296   -0.9085 C   0  0  0  0  0  0  0  0  0  0  0  0
   -0.8952    0.4712   -0.3401 C   0  0  0  0  0  0  0  0  0  0  0  0
    0.4062    0.8037   -0.0188 N   0  0  0  0  0  0  0  0  0  0  0  0
    1.5719    0.1144   -0.1616 C   0  0  0  0  0  0  0  0  0  0  0  0
    1.5812   -1.0907   -0.7151 N   0  0  0  0  0  0  0  0  0  0  0  0
    2.7556   -1.6940   -0.8041 C   0  0  0  0  0  0  0  0  0  0  0  0
    3.9289   -1.1087   -0.3662 C   0  0  0  0  0  0  0  0  0  0  0  0
    5.1757   -1.7515   -0.4909 N   0  0  0  0  0  0  0  0  0  0  0  0
    5.6019   -2.2466   -1.7971 C   0  0  0  0  0  0  0  0  0  0  0  0
    6.0760   -1.8063    0.5161 C   0  0  0  0  0  0  0  0  0  0  0  0
    7.1930   -2.2585    0.3843 O   0  0  0  0  0  0  0  0  0  0  0  0
    2.6461    0.7643    0.2970 N   0  0  0  0  0  0  0  0  0  0  0  0
    3.8131    0.1722    0.1882 C   0  0  0  0  0  0  0  0  0  0  0  0
    4.9408    0.8541    0.6881 N   0  0  0  0  0  0  0  0  0  0  0  0
    5.4702    0.2767    1.9071 C   0  0  0  0  0  0  0  0  0  0  0  0
    5.6273   -1.2434    1.8779 C   0  0  1  0  0  0  0  0  0  0  0  0
    4.4542   -1.8522    2.2262 F   0  0  0  0  0  0  0  0  0  0  0  0
    6.5305   -1.6230    2.8072 F   0  0  0  0  0  0  0  0  0  0  0  0
    5.9302    1.2937   -0.3009 C   0  0  1  0  0  0  0  0  0  0  0  0
    5.3204    1.7433   -1.6237 C   0  0  0  0  0  0  0  0  0  0  0  0
    6.4800    2.4777   -2.2959 C   0  0  0  0  0  0  0  0  0  0  0  0
    7.2645    3.1410   -1.1412 C   0  0  0  0  0  0  0  0  0  0  0  0
    6.6852    2.5452    0.1545 C   0  0  0  0  0  0  0  0  0  0  0  0
   -5.5585    0.4390    0.6034 H   0  0  0  0  0  0  0  0  0  0  0  0
   -7.6036    0.2242   -1.4884 H   0  0  0  0  0  0  0  0  0  0  0  0
   -7.4713   -2.0798   -0.6341 H   0  0  0  0  0  0  0  0  0  0  0  0
   -7.5752   -1.4961    1.0259 H   0  0  0  0  0  0  0  0  0  0  0  0
   -9.7137   -1.2342   -1.1460 H   0  0  0  0  0  0  0  0  0  0  0  0
   -9.7795   -2.2878    0.2643 H   0  0  0  0  0  0  0  0  0  0  0  0
  -11.7566   -1.3411    1.0767 H   0  0  0  0  0  0  0  0  0  0  0  0
  -11.8523    0.3869    1.4185 H   0  0  0  0  0  0  0  0  0  0  0  0
  -11.8913   -0.1834   -0.2563 H   0  0  0  0  0  0  0  0  0  0  0  0
   -9.8728    1.2514   -0.7400 H   0  0  0  0  0  0  0  0  0  0  0  0
  -10.0153    1.7935    0.9298 H   0  0  0  0  0  0  0  0  0  0  0  0
   -7.7300    1.0838    1.4318 H   0  0  0  0  0  0  0  0  0  0  0  0
   -7.7290    2.1498    0.0276 H   0  0  0  0  0  0  0  0  0  0  0  0
   -3.9487    1.9598   -0.1227 H   0  0  0  0  0  0  0  0  0  0  0  0
   -1.7391    4.4094    1.2863 H   0  0  0  0  0  0  0  0  0  0  0  0
   -2.8769    3.9813   -0.0055 H   0  0  0  0  0  0  0  0  0  0  0  0
   -3.0368    3.2426    1.6056 H   0  0  0  0  0  0  0  0  0  0  0  0
   -0.5828   -1.5024   -1.1305 H   0  0  0  0  0  0  0  0  0  0  0  0
    0.5275    1.7085    0.4125 H   0  0  0  0  0  0  0  0  0  0  0  0
    2.7614   -2.6843   -1.2475 H   0  0  0  0  0  0  0  0  0  0  0  0
    6.4652   -1.6865   -2.1570 H   0  0  0  0  0  0  0  0  0  0  0  0
    5.8612   -3.3022   -1.7505 H   0  0  0  0  0  0  0  0  0  0  0  0
    4.7912   -2.1180   -2.5067 H   0  0  0  0  0  0  0  0  0  0  0  0
    6.4474    0.7187    2.1020 H   0  0  0  0  0  0  0  0  0  0  0  0
    4.8330    0.5269    2.7611 H   0  0  0  0  0  0  0  0  0  0  0  0
    6.6740    0.5111   -0.5162 H   0  0  0  0  0  0  0  0  0  0  0  0
    4.9319    0.9263   -2.2343 H   0  0  0  0  0  0  0  0  0  0  0  0
    4.4946    2.4331   -1.4247 H   0  0  0  0  0  0  0  0  0  0  0  0
    7.1152    1.7616   -2.8207 H   0  0  0  0  0  0  0  0  0  0  0  0
    6.1327    3.1953   -3.0388 H   0  0  0  0  0  0  0  0  0  0  0  0
    8.3316    2.9362   -1.2298 H   0  0  0  0  0  0  0  0  0  0  0  0
    7.1526    4.2251   -1.1487 H   0  0  0  0  0  0  0  0  0  0  0  0
    5.9682    3.2302    0.6135 H   0  0  0  0  0  0  0  0  0  0  0  0
    7.4558    2.3359    0.8980 H   0  0  0  0  0  0  0  0  0  0  0  0
 15 14  1  0
 14 13  1  0
  1  2  2  0
 12 13  2  0
 12 11  1  0
 13 19  1  0
  2 11  1  0
  2  3  1  0
 11 16  2  0
 19 20  1  0
 19 18  2  0
 20 21  1  0
  4  3  1  0
  4 10  1  0
  4  5  1  0
 16 18  1  0
 16 17  1  0
 22 21  2  0
 22 23  1  0
 21 29  1  0
 10  9  1  0
  5  6  1  0
  9  7  1  0
  6  7  1  0
 23 24  2  0
 29 30  2  0
  7  8  1  0
 24 30  1  0
 24 25  1  0
 26 25  1  0
 30 31  1  0
 25 27  1  0
 36 31  1  0
 36 40  1  0
 36 37  1  0
 31 32  1  0
 40 39  1  0
 37 38  1  0
 27 28  2  0
 27 33  1  0
 32 33  1  0
 39 38  1  0
 33 35  1  1
 33 34  1  0
  3 41  1  0
  4 42  1  6
  5 43  1  0
  5 44  1  0
  6 45  1  0
  6 46  1  0
  8 47  1  0
  8 48  1  0
  8 49  1  0
  9 50  1  0
  9 51  1  0
 10 52  1  0
 10 53  1  0
 12 54  1  0
 15 55  1  0
 15 56  1  0
 15 57  1  0
 18 58  1  0
 20 59  1  0
 23 60  1  0
 26 61  1  0
 26 62  1  0
 26 63  1  0
 32 64  1  0
 32 65  1  0
 36 66  1  6
 37 67  1  0
 37 68  1  0
 38 69  1  0
 38 70  1  0
 39 71  1  0
 39 72  1  0
 40 73  1  0
 40 74  1  0
M  END
