
     RDKit          3D

 37 38  0  0  0  0  0  0  0  0999 V2000
    0.0634    1.4544   -0.0767 C   0  0  0  0  0  0  0  0  0  0  0  0
    2.6546   -0.5202    0.4573 C   0  0  0  0  0  0  0  0  0  0  0  0
    3.7909   -2.7609    0.4738 C   0  0  0  0  0  0  0  0  0  0  0  0
   -3.0401   -0.5248    0.7558 C   0  0  0  0  0  0  0  0  0  0  0  0
   -4.0038   -0.5696   -0.2234 C   0  0  0  0  0  0  0  0  0  0  0  0
   -5.2448   -1.2396   -0.1755 C   0  0  0  0  0  0  0  0  0  0  0  0
   -6.2546   -1.7943   -0.1174 N   0  0  0  0  0  0  0  0  0  0  0  0
   -3.6082    0.1474   -1.3276 N   0  0  0  0  0  0  0  0  0  0  0  0
   -2.3815    0.6691   -1.0836 C   0  0  0  0  0  0  0  0  0  0  0  0
   -0.3530    1.8643   -1.3615 C   0  0  0  0  0  0  0  0  0  0  0  0
    3.8880   -1.3052    0.0303 C   0  0  0  0  0  0  0  0  0  0  0  0
   -3.0715   -1.1664    2.0963 C   0  0  0  0  0  0  0  0  0  0  0  0
   -1.5643    1.4732   -1.8818 C   0  0  0  0  0  0  0  0  0  0  0  0
    5.0250   -3.5600    0.0824 C   0  0  0  0  0  0  0  0  0  0  0  0
   -0.7428    0.6613    0.7116 C   0  0  0  0  0  0  0  0  0  0  0  0
   -1.9904    0.2699    0.2120 C   0  0  0  0  0  0  0  0  0  0  0  0
    1.3226    1.9087    0.4048 N   0  0  0  0  0  0  0  0  0  0  0  0
    3.8115    1.8571    0.5179 O   0  0  0  0  0  0  0  0  0  0  0  0
    2.6453    1.1387   -1.5882 O   0  0  0  0  0  0  0  0  0  0  0  0
    2.7105    1.1660   -0.1355 S   0  0  1  0  0  0  0  0  0  0  0  0
    1.7405   -0.9645    0.0579 H   0  0  0  0  0  0  0  0  0  0  0  0
    2.5682   -0.4723    1.5445 H   0  0  0  0  0  0  0  0  0  0  0  0
    3.6510   -2.8045    1.5576 H   0  0  0  0  0  0  0  0  0  0  0  0
    2.9000   -3.2150    0.0309 H   0  0  0  0  0  0  0  0  0  0  0  0
   -4.1484    0.2657   -2.1693 H   0  0  0  0  0  0  0  0  0  0  0  0
    0.2919    2.5104   -1.9396 H   0  0  0  0  0  0  0  0  0  0  0  0
    3.9983   -1.2633   -1.0558 H   0  0  0  0  0  0  0  0  0  0  0  0
    4.7822   -0.8487    0.4612 H   0  0  0  0  0  0  0  0  0  0  0  0
   -2.9556   -0.4238    2.8872 H   0  0  0  0  0  0  0  0  0  0  0  0
   -4.0071   -1.6957    2.2710 H   0  0  0  0  0  0  0  0  0  0  0  0
   -2.2579   -1.8854    2.2058 H   0  0  0  0  0  0  0  0  0  0  0  0
   -1.8739    1.7904   -2.8684 H   0  0  0  0  0  0  0  0  0  0  0  0
    4.9384   -4.6000    0.3973 H   0  0  0  0  0  0  0  0  0  0  0  0
    5.1732   -3.5526   -0.9987 H   0  0  0  0  0  0  0  0  0  0  0  0
    5.9243   -3.1478    0.5425 H   0  0  0  0  0  0  0  0  0  0  0  0
   -0.4206    0.3506    1.6987 H   0  0  0  0  0  0  0  0  0  0  0  0
    1.3574    2.0801    1.4047 H   0  0  0  0  0  0  0  0  0  0  0  0
  7  6  3  0
  8  5  1  0
  8  9  1  0
  6  5  1  0
 13  9  2  0
 13 10  1  0
  5  4  2  0
  9 16  1  0
 10  1  2  0
  4 16  1  0
  4 12  1  0
 16 15  2  0
  1 15  1  0
  1 17  1  0
 20 17  1  1
 19 20  2  0
 20 18  2  0
 20  2  1  0
  2 11  1  0
 11  3  1  0
  3 14  1  0
  2 21  1  0
  2 22  1  0
  3 23  1  0
  3 24  1  0
  8 25  1  0
 10 26  1  0
 11 27  1  0
 11 28  1  0
 12 29  1  0
 12 30  1  0
 12 31  1  0
 13 32  1  0
 14 33  1  0
 14 34  1  0
 14 35  1  0
 15 36  1  0
 17 37  1  0
M  END
