
     RDKit          3D

 18 19  0  0  0  0  0  0  0  0999 V2000
   -0.2596   -0.4296   -0.0003 C   0  0  0  0  0  0  0  0  0  0  0  0
    1.0723    0.0388    0.0735 C   0  0  0  0  0  0  0  0  0  0  0  0
   -1.2988    0.5283   -0.0501 C   0  0  0  0  0  0  0  0  0  0  0  0
    2.1411   -0.7804    0.1268 N   0  0  0  0  0  0  0  0  0  0  0  0
   -1.0166    1.8660   -0.0284 C   0  0  0  0  0  0  0  0  0  0  0  0
    0.6598   -2.6466    0.0357 C   0  0  0  0  0  0  0  0  0  0  0  0
    0.3099    2.3284    0.0439 C   0  0  0  0  0  0  0  0  0  0  0  0
    1.9434   -2.0710    0.1089 C   0  0  0  0  0  0  0  0  0  0  0  0
   -0.4356   -1.8309   -0.0183 C   0  0  0  0  0  0  0  0  0  0  0  0
    1.3489    1.4354    0.0947 C   0  0  0  0  0  0  0  0  0  0  0  0
   -2.9476   -0.0007   -0.1387 Cl  0  0  0  0  0  0  0  0  0  0  0  0
    2.6182    1.8437    0.1629 O   0  0  0  0  0  0  0  0  0  0  0  0
   -1.8193    2.5895   -0.0669 H   0  0  0  0  0  0  0  0  0  0  0  0
    0.5547   -3.7222    0.0234 H   0  0  0  0  0  0  0  0  0  0  0  0
    0.5006    3.3934    0.0588 H   0  0  0  0  0  0  0  0  0  0  0  0
    2.8203   -2.7065    0.1536 H   0  0  0  0  0  0  0  0  0  0  0  0
   -1.4292   -2.2545   -0.0751 H   0  0  0  0  0  0  0  0  0  0  0  0
    3.1798    1.0507    0.1905 H   0  0  0  0  0  0  0  0  0  0  0  0
 11  3  1  0
  3  5  2  0
  3  1  1  0
  5  7  1  0
  1  9  2  0
  1  2  1  0
  9  6  1  0
  7 10  2  0
  6  8  2  0
 10  2  1  0
 10 12  1  0
  2  4  2  0
  8  4  1  0
  5 13  1  0
  6 14  1  0
  7 15  1  0
  8 16  1  0
  9 17  1  0
 12 18  1  0
M  END
