
     RDKit          3D

 84 88  0  0  0  0  0  0  0  0999 V2000
   -2.2175   -1.1176   -0.3405 N   0  0  0  0  0  0  0  0  0  0  0  0
   -1.2577   -2.0492   -0.2434 C   0  0  0  0  0  0  0  0  0  0  0  0
    0.0300   -1.8265   -0.1786 N   0  0  0  0  0  0  0  0  0  0  0  0
    0.4297   -0.5320   -0.2155 C   0  0  0  0  0  0  0  0  0  0  0  0
   -0.4780    0.5316   -0.3155 C   0  0  0  0  0  0  0  0  0  0  0  0
   -1.8610    0.1571   -0.3778 C   0  0  0  0  0  0  0  0  0  0  0  0
    1.0515    4.4632   -0.4390 C   0  0  0  0  0  0  0  0  0  0  0  0
   -8.9110    0.9781    1.8056 C   0  0  0  0  0  0  0  0  0  0  0  0
   -8.9862    2.8917    0.2371 C   0  0  0  0  0  0  0  0  0  0  0  0
    1.8128   -0.2516   -0.1507 C   0  0  0  0  0  0  0  0  0  0  0  0
    0.0010    1.8605   -0.3553 C   0  0  0  0  0  0  0  0  0  0  0  0
   -1.1698   -6.3919   -0.1298 C   0  0  0  0  0  0  0  0  0  0  0  0
   -1.6692   -5.6481    1.1037 C   0  0  0  0  0  0  0  0  0  0  0  0
   -1.6403   -5.7094   -1.4093 C   0  0  0  0  0  0  0  0  0  0  0  0
   10.6544    0.3699    0.2082 C   0  0  0  0  0  0  0  0  0  0  0  0
   10.1972    1.5317    1.1141 C   0  0  0  0  0  0  0  0  0  0  0  0
    5.9064    1.0521   -0.0034 C   0  0  0  0  0  0  0  0  0  0  0  0
    4.5478    0.3874   -0.0663 C   0  0  0  0  0  0  0  0  0  0  0  0
   -1.2464   -4.1832    1.0766 C   0  0  0  0  0  0  0  0  0  0  0  0
   -1.2183   -4.2444   -1.4439 C   0  0  0  0  0  0  0  0  0  0  0  0
   -5.0145    1.9427   -1.1040 C   0  0  0  0  0  0  0  0  0  0  0  0
   -4.7723    0.5379    0.9307 C   0  0  0  0  0  0  0  0  0  0  0  0
    9.3799   -0.4327   -0.0253 C   0  0  0  0  0  0  0  0  0  0  0  0
    8.6693    1.3995    1.1720 C   0  0  0  0  0  0  0  0  0  0  0  0
    7.0074    0.0017    0.0605 C   0  0  0  0  0  0  0  0  0  0  0  0
   -6.5118    1.6972   -1.0105 C   0  0  0  0  0  0  0  0  0  0  0  0
   -6.2831    0.3592    0.9360 C   0  0  0  0  0  0  0  0  0  0  0  0
   -2.8251    1.0830   -0.4940 N   0  0  0  0  0  0  0  0  0  0  0  0
    1.3432    2.1228   -0.2878 C   0  0  0  0  0  0  0  0  0  0  0  0
    2.2712    1.0394   -0.1816 C   0  0  0  0  0  0  0  0  0  0  0  0
   -8.4137    1.4918    0.4581 C   0  0  1  0  0  0  0  0  0  0  0  0
   -4.2455    0.7906   -0.4763 C   0  0  2  0  0  0  0  0  0  0  0  0
   -1.7101   -3.4852   -0.2063 C   0  0  2  0  0  0  0  0  0  0  0  0
    8.3331    0.5728    0.0233 N   0  0  0  0  0  0  0  0  0  0  0  0
   -6.9497    1.5184    0.3649 N   0  0  0  0  0  0  0  0  0  0  0  0
    1.6935    5.3401   -0.4494 H   0  0  0  0  0  0  0  0  0  0  0  0
    0.4757    4.4370   -1.3680 H   0  0  0  0  0  0  0  0  0  0  0  0
    0.3600    4.5432    0.4040 H   0  0  0  0  0  0  0  0  0  0  0  0
   -8.4574    1.5303    2.6318 H   0  0  0  0  0  0  0  0  0  0  0  0
   -9.9905    1.1172    1.8669 H   0  0  0  0  0  0  0  0  0  0  0  0
   -8.7172   -0.0832    1.9549 H   0  0  0  0  0  0  0  0  0  0  0  0
   -8.6351    3.5717    1.0156 H   0  0  0  0  0  0  0  0  0  0  0  0
   -8.7196    3.3223   -0.7276 H   0  0  0  0  0  0  0  0  0  0  0  0
  -10.0755    2.8626    0.2807 H   0  0  0  0  0  0  0  0  0  0  0  0
    2.4865   -1.0941   -0.0792 H   0  0  0  0  0  0  0  0  0  0  0  0
   -0.6927    2.6854   -0.4392 H   0  0  0  0  0  0  0  0  0  0  0  0
   -0.0745   -6.4143   -0.1164 H   0  0  0  0  0  0  0  0  0  0  0  0
   -1.5027   -7.4325   -0.1080 H   0  0  0  0  0  0  0  0  0  0  0  0
   -2.7619   -5.7136    1.1517 H   0  0  0  0  0  0  0  0  0  0  0  0
   -1.2925   -6.1242    2.0126 H   0  0  0  0  0  0  0  0  0  0  0  0
   -1.2433   -6.2291   -2.2850 H   0  0  0  0  0  0  0  0  0  0  0  0
   -2.7317   -5.7774   -1.4782 H   0  0  0  0  0  0  0  0  0  0  0  0
   11.4400   -0.2357    0.6594 H   0  0  0  0  0  0  0  0  0  0  0  0
   10.6281    1.4703    2.1130 H   0  0  0  0  0  0  0  0  0  0  0  0
   10.4958    2.4932    0.6968 H   0  0  0  0  0  0  0  0  0  0  0  0
    6.0545    1.6814   -0.8847 H   0  0  0  0  0  0  0  0  0  0  0  0
    5.9487    1.7015    0.8744 H   0  0  0  0  0  0  0  0  0  0  0  0
    4.4745   -0.2558   -0.9508 H   0  0  0  0  0  0  0  0  0  0  0  0
    4.3919   -0.2461    0.8146 H   0  0  0  0  0  0  0  0  0  0  0  0
   -1.6499   -3.6597    1.9480 H   0  0  0  0  0  0  0  0  0  0  0  0
   -0.1569   -4.1131    1.1467 H   0  0  0  0  0  0  0  0  0  0  0  0
   -0.1272   -4.1757   -1.4928 H   0  0  0  0  0  0  0  0  0  0  0  0
   -1.6025   -3.7640   -2.3482 H   0  0  0  0  0  0  0  0  0  0  0  0
   -4.7317    2.0642   -2.1522 H   0  0  0  0  0  0  0  0  0  0  0  0
   -4.7694    2.8780   -0.5892 H   0  0  0  0  0  0  0  0  0  0  0  0
   -4.5105    1.3869    1.5697 H   0  0  0  0  0  0  0  0  0  0  0  0
   -4.2986   -0.3504    1.3531 H   0  0  0  0  0  0  0  0  0  0  0  0
    9.3702   -0.9627   -0.9804 H   0  0  0  0  0  0  0  0  0  0  0  0
    9.2522   -1.1876    0.7701 H   0  0  0  0  0  0  0  0  0  0  0  0
    8.3656    0.9143    2.1152 H   0  0  0  0  0  0  0  0  0  0  0  0
    8.1617    2.3649    1.1306 H   0  0  0  0  0  0  0  0  0  0  0  0
    6.8665   -0.6211    0.9633 H   0  0  0  0  0  0  0  0  0  0  0  0
    6.9058   -0.6726   -0.7956 H   0  0  0  0  0  0  0  0  0  0  0  0
   -7.0300    2.5454   -1.4568 H   0  0  0  0  0  0  0  0  0  0  0  0
   -6.7722    0.8165   -1.6260 H   0  0  0  0  0  0  0  0  0  0  0  0
   -6.5484   -0.5710    0.4007 H   0  0  0  0  0  0  0  0  0  0  0  0
   -6.5971    0.2241    1.9697 H   0  0  0  0  0  0  0  0  0  0  0  0
   -2.5729    2.0512   -0.3872 H   0  0  0  0  0  0  0  0  0  0  0  0
   -8.8280    0.8248   -0.3190 H   0  0  0  0  0  0  0  0  0  0  0  0
   -4.4070   -0.1071   -1.0787 H   0  0  0  0  0  0  0  0  0  0  0  0
   -2.8052   -3.4846   -0.2198 H   0  0  0  0  0  0  0  0  0  0  0  0
    1.9035    3.3425   -0.3169 O   0  0  0  0  0  0  0  0  0  0  0  0
    3.5561    1.4036   -0.1226 O   0  0  0  0  0  0  0  0  0  0  0  0
   11.0404    0.7501   -0.7384 H   0  0  0  0  0  0  0  0  0  0  0  0
  1  2  2  0
  1  6  1  0
  2  3  1  0
  2 33  1  0
  3  4  2  0
  4  5  1  0
  4 10  1  0
  5  6  2  0
  5 11  1  0
  6 28  1  0
  7 82  1  0
  8 31  1  0
  9 31  1  0
 10 30  2  0
 11 29  2  0
 12 13  1  0
 12 14  1  0
 13 19  1  0
 14 20  1  0
 15 16  1  0
 15 23  1  0
 16 24  1  0
 17 18  1  0
 17 25  1  0
 18 83  1  0
 19 33  1  0
 20 33  1  0
 21 26  1  0
 21 32  1  0
 22 27  1  0
 22 32  1  0
 23 34  1  0
 24 34  1  0
 25 34  1  0
 26 35  1  0
 27 35  1  0
 28 32  1  0
 82 29  1  0
 83 30  1  0
 29 30  1  0
 31 35  1  0
  7 36  1  0
  7 37  1  0
  7 38  1  0
  8 39  1  0
  8 40  1  0
  8 41  1  0
  9 42  1  0
  9 43  1  0
  9 44  1  0
 10 45  1  0
 11 46  1  0
 12 47  1  0
 12 48  1  0
 13 49  1  0
 13 50  1  0
 14 51  1  0
 14 52  1  0
 15 84  1  0
 15 53  1  0
 16 54  1  0
 16 55  1  0
 17 56  1  0
 17 57  1  0
 18 58  1  0
 18 59  1  0
 19 60  1  0
 19 61  1  0
 20 62  1  0
 20 63  1  0
 21 64  1  0
 21 65  1  0
 22 66  1  0
 22 67  1  0
 23 68  1  0
 23 69  1  0
 24 70  1  0
 24 71  1  0
 25 72  1  0
 25 73  1  0
 26 74  1  0
 26 75  1  0
 27 76  1  0
 27 77  1  0
 28 78  1  0
 31 79  1  6
 32 80  1  6
 33 81  1  1
M  END
