
     RDKit          3D

 58 61  0  0  0  0  0  0  0  0999 V2000
    0.6692   -0.1035   -7.7432 C   0  0  0  0  0  0  0  0  0  0  0  0
    0.0684    0.8338   -6.8748 C   0  0  0  0  0  0  0  0  0  0  0  0
    1.6363   -0.8130   -6.9785 C   0  0  0  0  0  0  0  0  0  0  0  0
    0.2576   -0.1705   -9.0807 C   0  0  0  0  0  0  0  0  0  0  0  0
    0.6321    0.6784   -5.6457 N   0  0  0  0  0  0  0  0  0  0  0  0
   -0.9193    1.7171   -7.3094 C   0  0  0  0  0  0  0  0  0  0  0  0
    1.5850   -0.3079   -5.7079 C   0  0  0  0  0  0  0  0  0  0  0  0
   -0.7215    0.7027   -9.4925 C   0  0  0  0  0  0  0  0  0  0  0  0
   -1.3100    1.6418   -8.6285 C   0  0  0  0  0  0  0  0  0  0  0  0
    2.3970   -0.7567   -4.5565 C   0  0  0  0  0  0  0  0  0  0  0  0
   -1.2626    0.6561  -11.1448 Cl  0  0  0  0  0  0  0  0  0  0  0  0
    1.9119   -0.4497   -3.3417 N   0  0  0  0  0  0  0  0  0  0  0  0
    3.4397   -1.3690   -4.7413 O   0  0  0  0  0  0  0  0  0  0  0  0
    2.5723   -0.7971   -2.1028 C   0  0  0  0  0  0  0  0  0  0  0  0
    2.4416    0.3222   -1.0942 C   0  0  0  0  0  0  0  0  0  0  0  0
    1.0748    0.5503   -0.8543 O   0  0  0  0  0  0  0  0  0  0  0  0
    0.8337    1.6923   -0.0709 C   0  0  0  0  0  0  0  0  0  0  0  0
   -0.6492    1.8808    0.1108 C   0  0  0  0  0  0  0  0  0  0  0  0
   -1.1690    0.8278    0.8841 O   0  0  0  0  0  0  0  0  0  0  0  0
   -2.5404    0.9646    1.1632 C   0  0  0  0  0  0  0  0  0  0  0  0
   -2.9255   -0.0749    2.1923 C   0  0  0  0  0  0  0  0  0  0  0  0
   -2.1473    0.1012    3.3990 N   0  0  0  0  0  0  0  0  0  0  0  0
   -2.6144   -0.1656    4.6304 C   0  0  0  0  0  0  0  0  0  0  0  0
   -1.6690    0.0761    5.7417 C   0  0  0  0  0  0  0  0  0  0  0  0
   -3.7417   -0.5812    4.8578 O   0  0  0  0  0  0  0  0  0  0  0  0
   -0.5660    0.8883    5.6522 N   0  0  0  0  0  0  0  0  0  0  0  0
   -1.7275   -0.4780    6.9913 C   0  0  0  0  0  0  0  0  0  0  0  0
    0.0907    0.8837    6.8443 C   0  0  0  0  0  0  0  0  0  0  0  0
   -0.6063    0.0171    7.7141 C   0  0  0  0  0  0  0  0  0  0  0  0
    1.2380    1.5672    7.2452 C   0  0  0  0  0  0  0  0  0  0  0  0
   -0.1303   -0.1867    9.0158 C   0  0  0  0  0  0  0  0  0  0  0  0
    1.6906    1.3603    8.5299 C   0  0  0  0  0  0  0  0  0  0  0  0
    1.0060    0.4891    9.3940 C   0  0  0  0  0  0  0  0  0  0  0  0
    1.6312    0.2702   11.0020 Cl  0  0  0  0  0  0  0  0  0  0  0  0
    2.2726   -1.6150   -7.3166 H   0  0  0  0  0  0  0  0  0  0  0  0
    0.6992   -0.8834   -9.7641 H   0  0  0  0  0  0  0  0  0  0  0  0
    0.4724    1.2977   -4.8676 H   0  0  0  0  0  0  0  0  0  0  0  0
   -1.3729    2.4371   -6.6413 H   0  0  0  0  0  0  0  0  0  0  0  0
   -2.0765    2.3072   -9.0015 H   0  0  0  0  0  0  0  0  0  0  0  0
    0.9652   -0.1147   -3.2566 H   0  0  0  0  0  0  0  0  0  0  0  0
    2.1582   -1.7240   -1.6948 H   0  0  0  0  0  0  0  0  0  0  0  0
    3.6282   -0.9725   -2.2988 H   0  0  0  0  0  0  0  0  0  0  0  0
    2.9662    0.0381   -0.1724 H   0  0  0  0  0  0  0  0  0  0  0  0
    2.9278    1.2278   -1.4823 H   0  0  0  0  0  0  0  0  0  0  0  0
    1.3222    1.6070    0.9100 H   0  0  0  0  0  0  0  0  0  0  0  0
    1.2381    2.5924   -0.5533 H   0  0  0  0  0  0  0  0  0  0  0  0
   -0.8138    2.8482    0.6045 H   0  0  0  0  0  0  0  0  0  0  0  0
   -1.1447    1.9340   -0.8686 H   0  0  0  0  0  0  0  0  0  0  0  0
   -2.7621    1.9681    1.5518 H   0  0  0  0  0  0  0  0  0  0  0  0
   -3.1490    0.8213    0.2608 H   0  0  0  0  0  0  0  0  0  0  0  0
   -3.9824    0.0372    2.4276 H   0  0  0  0  0  0  0  0  0  0  0  0
   -2.7866   -1.0818    1.7860 H   0  0  0  0  0  0  0  0  0  0  0  0
   -1.1569    0.2347    3.2655 H   0  0  0  0  0  0  0  0  0  0  0  0
   -0.3553    1.5148    4.8919 H   0  0  0  0  0  0  0  0  0  0  0  0
   -2.4725   -1.1746    7.3407 H   0  0  0  0  0  0  0  0  0  0  0  0
    1.7624    2.2373    6.5771 H   0  0  0  0  0  0  0  0  0  0  0  0
   -0.6426   -0.8515    9.6985 H   0  0  0  0  0  0  0  0  0  0  0  0
    2.5798    1.8696    8.8754 H   0  0  0  0  0  0  0  0  0  0  0  0
  1  2  2  0
  1  3  1  0
  1  4  1  0
  2  5  1  0
  2  6  1  0
  3  7  2  0
  3 35  1  0
  4  8  2  0
  4 36  1  0
  5  7  1  0
  5 37  1  0
  6  9  2  0
  6 38  1  0
  7 10  1  0
  8  9  1  0
  8 11  1  0
  9 39  1  0
 10 12  1  0
 10 13  2  0
 12 14  1  0
 12 40  1  0
 14 15  1  0
 14 41  1  0
 14 42  1  0
 15 16  1  0
 15 43  1  0
 15 44  1  0
 16 17  1  0
 17 18  1  0
 17 45  1  0
 17 46  1  0
 18 19  1  0
 18 47  1  0
 18 48  1  0
 19 20  1  0
 20 21  1  0
 20 49  1  0
 20 50  1  0
 21 22  1  0
 21 51  1  0
 21 52  1  0
 22 23  1  0
 22 53  1  0
 23 24  1  0
 23 25  2  0
 24 26  1  0
 24 27  2  0
 26 28  1  0
 26 54  1  0
 27 29  1  0
 27 55  1  0
 28 29  2  0
 28 30  1  0
 29 31  1  0
 30 32  2  0
 30 56  1  0
 31 33  2  0
 31 57  1  0
 32 33  1  0
 32 58  1  0
 33 34  1  0
M  END
