
     RDKit          3D

 41 43  0  0  0  0  0  0  0  0999 V2000
    0.9532   -2.2056    1.5198 O   0  0  0  0  0  0  0  0  0  0  0  0
    0.9398   -1.0968    1.0401 C   0  0  0  0  0  0  0  0  0  0  0  0
    2.1011   -0.4173    0.4482 C   0  0  0  0  0  0  0  0  0  0  0  0
    2.0824    0.9788    0.2913 C   0  0  0  0  0  0  0  0  0  0  0  0
    3.1801    1.6637   -0.1843 C   0  0  0  0  0  0  0  0  0  0  0  0
    4.3326    0.9559   -0.5285 C   0  0  0  0  0  0  0  0  0  0  0  0
    5.3737    1.6563   -0.9906 O   0  0  0  0  0  0  0  0  0  0  0  0
    4.3716   -0.4269   -0.4000 C   0  0  0  0  0  0  0  0  0  0  0  0
    3.2675   -1.1176    0.0871 C   0  0  0  0  0  0  0  0  0  0  0  0
    3.2942   -2.4479    0.1975 O   0  0  0  0  0  0  0  0  0  0  0  0
   -0.2097   -0.4189    1.0876 O   0  0  0  0  0  0  0  0  0  0  0  0
   -0.3643    0.8169    0.3721 C   0  0  2  0  0  0  0  0  0  0  0  0
    0.8250    1.7057    0.6588 C   0  0  0  0  0  0  0  0  0  0  0  0
   -1.6836    1.4269    0.8030 C   0  0  0  0  0  0  0  0  0  0  0  0
   -2.9050    0.5727    0.5036 C   0  0  2  0  0  0  0  0  0  0  0  0
   -2.9414    0.3651   -0.8963 O   0  0  0  0  0  0  0  0  0  0  0  0
   -3.9967   -0.4666   -1.3566 C   0  0  1  0  0  0  0  0  0  0  0  0
   -3.8033   -1.9255   -0.9566 C   0  0  0  0  0  0  0  0  0  0  0  0
   -5.3503    0.0979   -0.9271 C   0  0  0  0  0  0  0  0  0  0  0  0
   -5.3955    0.3811    0.5711 C   0  0  0  0  0  0  0  0  0  0  0  0
   -4.1940    1.2241    0.9865 C   0  0  0  0  0  0  0  0  0  0  0  0
    3.1499    2.7397   -0.3006 H   0  0  0  0  0  0  0  0  0  0  0  0
    6.1138    1.0744   -1.2014 H   0  0  0  0  0  0  0  0  0  0  0  0
    5.2645   -0.9743   -0.6849 H   0  0  0  0  0  0  0  0  0  0  0  0
    4.1373   -2.7903   -0.1235 H   0  0  0  0  0  0  0  0  0  0  0  0
   -0.3923    0.5902   -0.6987 H   0  0  0  0  0  0  0  0  0  0  0  0
    0.8423    1.9834    1.7183 H   0  0  0  0  0  0  0  0  0  0  0  0
    0.7417    2.6307    0.0874 H   0  0  0  0  0  0  0  0  0  0  0  0
   -1.6528    1.6350    1.8764 H   0  0  0  0  0  0  0  0  0  0  0  0
   -1.7879    2.3934    0.3003 H   0  0  0  0  0  0  0  0  0  0  0  0
   -2.7988   -0.3890    1.0259 H   0  0  0  0  0  0  0  0  0  0  0  0
   -3.9300   -0.4133   -2.4471 H   0  0  0  0  0  0  0  0  0  0  0  0
   -3.9520   -2.1034    0.1088 H   0  0  0  0  0  0  0  0  0  0  0  0
   -4.5185   -2.5498   -1.4933 H   0  0  0  0  0  0  0  0  0  0  0  0
   -2.8011   -2.2681   -1.2177 H   0  0  0  0  0  0  0  0  0  0  0  0
   -5.5358    1.0290   -1.4714 H   0  0  0  0  0  0  0  0  0  0  0  0
   -6.1426   -0.5968   -1.2166 H   0  0  0  0  0  0  0  0  0  0  0  0
   -6.3268    0.8896    0.8286 H   0  0  0  0  0  0  0  0  0  0  0  0
   -5.3927   -0.5547    1.1380 H   0  0  0  0  0  0  0  0  0  0  0  0
   -4.1604    1.3344    2.0731 H   0  0  0  0  0  0  0  0  0  0  0  0
   -4.2776    2.2318    0.5648 H   0  0  0  0  0  0  0  0  0  0  0  0
 10  9  1  0
  1  2  2  0
  9  8  2  0
  9  3  1  0
  2  3  1  0
  2 11  1  0
  8  6  1  0
  3  4  2  0
 11 12  1  0
  6  7  1  0
  6  5  2  0
  4  5  1  0
  4 13  1  0
 13 12  1  0
 12 14  1  0
 14 15  1  0
 15 21  1  0
 15 16  1  0
 21 20  1  0
 16 17  1  0
 20 19  1  0
 17 19  1  0
 17 18  1  0
  5 22  1  0
  7 23  1  0
  8 24  1  0
 10 25  1  0
 12 26  1  6
 13 27  1  0
 13 28  1  0
 14 29  1  0
 14 30  1  0
 15 31  1  1
 17 32  1  6
 18 33  1  0
 18 34  1  0
 18 35  1  0
 19 36  1  0
 19 37  1  0
 20 38  1  0
 20 39  1  0
 21 40  1  0
 21 41  1  0
M  END
