
     RDKit          3D

 64 67  0  0  0  0  0  0  0  0999 V2000
   -0.9621    1.9839   -9.4915 C   0  0  0  0  0  0  0  0  0  0  0  0
   -1.9183    0.7981   -9.4810 C   0  0  0  0  0  0  0  0  0  0  0  0
   -1.2667   -0.4121   -8.8313 C   0  0  0  0  0  0  0  0  0  0  0  0
   -0.8124   -0.1116   -7.4833 N   0  0  0  0  0  0  0  0  0  0  0  0
    0.1427    0.9838   -7.4755 C   0  0  0  0  0  0  0  0  0  0  0  0
   -0.4508    2.2462   -8.0809 C   0  0  0  0  0  0  0  0  0  0  0  0
   -0.2657   -1.2928   -6.8456 C   0  0  0  0  0  0  0  0  0  0  0  0
   -0.0589   -1.1136   -5.3651 C   0  0  0  0  0  0  0  0  0  0  0  0
   -1.1047   -0.6841   -4.5498 C   0  0  0  0  0  0  0  0  0  0  0  0
   -0.9303   -0.5642   -3.1812 C   0  0  0  0  0  0  0  0  0  0  0  0
    0.2915   -0.8592   -2.5725 C   0  0  0  0  0  0  0  0  0  0  0  0
    1.3363   -1.2728   -3.3920 C   0  0  0  0  0  0  0  0  0  0  0  0
    1.1610   -1.3980   -4.7662 C   0  0  0  0  0  0  0  0  0  0  0  0
    0.4402   -0.6813   -1.0816 C   0  0  1  0  0  0  0  0  0  0  0  0
    1.4119   -1.6619   -0.4251 C   0  0  0  0  0  0  0  0  0  0  0  0
    1.4544   -1.4672    1.0880 C   0  0  0  0  0  0  0  0  0  0  0  0
    1.8440   -0.0284    1.4215 C   0  0  1  0  0  0  0  0  0  0  0  0
    0.8995    0.9792    0.7707 C   0  0  0  0  0  0  0  0  0  0  0  0
    0.8445    0.7586   -0.7383 C   0  0  0  0  0  0  0  0  0  0  0  0
    2.0621    0.2129    2.8519 N   0  0  0  0  0  0  0  0  0  0  0  0
    1.0502    0.1006    3.7222 C   0  0  0  0  0  0  0  0  0  0  0  0
    1.4335    0.3919    4.9954 O   0  0  0  0  0  0  0  0  0  0  0  0
    0.4665    0.3308    5.9700 C   0  0  0  0  0  0  0  0  0  0  0  0
    0.3954   -0.7908    6.7788 C   0  0  0  0  0  0  0  0  0  0  0  0
   -0.5325   -0.8379    7.8088 C   0  0  0  0  0  0  0  0  0  0  0  0
   -1.3802    0.2403    8.0074 C   0  0  0  0  0  0  0  0  0  0  0  0
   -1.3118    1.3650    7.1987 C   0  0  0  0  0  0  0  0  0  0  0  0
   -0.3816    1.4076    6.1720 C   0  0  0  0  0  0  0  0  0  0  0  0
    3.4082    0.6252    3.2109 C   0  0  0  0  0  0  0  0  0  0  0  0
   -0.0895   -0.2213    3.4645 O   0  0  0  0  0  0  0  0  0  0  0  0
   -2.5418    0.1851    9.2924 Cl  0  0  0  0  0  0  0  0  0  0  0  0
   -0.1165    1.7639  -10.1520 H   0  0  0  0  0  0  0  0  0  0  0  0
   -1.4522    2.8718   -9.8967 H   0  0  0  0  0  0  0  0  0  0  0  0
   -2.2293    0.5377  -10.4950 H   0  0  0  0  0  0  0  0  0  0  0  0
   -2.8245    1.0606   -8.9266 H   0  0  0  0  0  0  0  0  0  0  0  0
   -0.4324   -0.7588   -9.4685 H   0  0  0  0  0  0  0  0  0  0  0  0
   -1.9821   -1.2367   -8.7776 H   0  0  0  0  0  0  0  0  0  0  0  0
    0.4457    1.1791   -6.4446 H   0  0  0  0  0  0  0  0  0  0  0  0
    1.0610    0.7082   -8.0266 H   0  0  0  0  0  0  0  0  0  0  0  0
    0.3051    3.0345   -8.0807 H   0  0  0  0  0  0  0  0  0  0  0  0
   -1.2747    2.5934   -7.4496 H   0  0  0  0  0  0  0  0  0  0  0  0
    0.6837   -1.6095   -7.3114 H   0  0  0  0  0  0  0  0  0  0  0  0
   -0.9725   -2.1132   -7.0052 H   0  0  0  0  0  0  0  0  0  0  0  0
   -2.0638   -0.4431   -4.9924 H   0  0  0  0  0  0  0  0  0  0  0  0
   -1.7629   -0.2396   -2.5663 H   0  0  0  0  0  0  0  0  0  0  0  0
    2.3046   -1.5095   -2.9691 H   0  0  0  0  0  0  0  0  0  0  0  0
    1.9936   -1.7263   -5.3780 H   0  0  0  0  0  0  0  0  0  0  0  0
   -0.5480   -0.8561   -0.6371 H   0  0  0  0  0  0  0  0  0  0  0  0
    2.4205   -1.5166   -0.8250 H   0  0  0  0  0  0  0  0  0  0  0  0
    1.1271   -2.6900   -0.6606 H   0  0  0  0  0  0  0  0  0  0  0  0
    2.1812   -2.1534    1.5303 H   0  0  0  0  0  0  0  0  0  0  0  0
    0.4803   -1.7067    1.5166 H   0  0  0  0  0  0  0  0  0  0  0  0
    2.8285    0.1399    0.9746 H   0  0  0  0  0  0  0  0  0  0  0  0
   -0.1055    0.8773    1.1838 H   0  0  0  0  0  0  0  0  0  0  0  0
    1.2384    1.9952    0.9897 H   0  0  0  0  0  0  0  0  0  0  0  0
    1.8205    0.9728   -1.1884 H   0  0  0  0  0  0  0  0  0  0  0  0
    0.1361    1.4610   -1.1841 H   0  0  0  0  0  0  0  0  0  0  0  0
    1.0647   -1.6253    6.6150 H   0  0  0  0  0  0  0  0  0  0  0  0
   -0.5911   -1.7103    8.4449 H   0  0  0  0  0  0  0  0  0  0  0  0
   -1.9751    2.2029    7.3638 H   0  0  0  0  0  0  0  0  0  0  0  0
   -0.3164    2.2841    5.5403 H   0  0  0  0  0  0  0  0  0  0  0  0
    3.5180    0.7760    4.2779 H   0  0  0  0  0  0  0  0  0  0  0  0
    4.1248   -0.1369    2.9016 H   0  0  0  0  0  0  0  0  0  0  0  0
    3.6644    1.5579    2.7056 H   0  0  0  0  0  0  0  0  0  0  0  0
  1  2  1  0
  1  6  1  0
  1 32  1  0
  1 33  1  0
  2  3  1  0
  2 34  1  0
  2 35  1  0
  3  4  1  0
  3 36  1  0
  3 37  1  0
  4  5  1  0
  4  7  1  0
  5  6  1  0
  5 38  1  0
  5 39  1  0
  6 40  1  0
  6 41  1  0
  7  8  1  0
  7 42  1  0
  7 43  1  0
  8  9  2  0
  8 13  1  0
  9 10  1  0
  9 44  1  0
 10 11  2  0
 10 45  1  0
 11 12  1  0
 11 14  1  0
 12 13  2  0
 12 46  1  0
 13 47  1  0
 14 15  1  0
 14 19  1  0
 14 48  1  1
 15 16  1  0
 15 49  1  0
 15 50  1  0
 16 17  1  0
 16 51  1  0
 16 52  1  0
 17 18  1  0
 17 20  1  0
 17 53  1  6
 18 19  1  0
 18 54  1  0
 18 55  1  0
 19 56  1  0
 19 57  1  0
 20 21  1  0
 20 29  1  0
 21 22  1  0
 21 30  2  0
 22 23  1  0
 23 24  2  0
 23 28  1  0
 24 25  1  0
 24 58  1  0
 25 26  2  0
 25 59  1  0
 26 27  1  0
 26 31  1  0
 27 28  2  0
 27 60  1  0
 28 61  1  0
 29 62  1  0
 29 63  1  0
 29 64  1  0
M  END
