
     RDKit          3D

 53 55  0  0  0  0  0  0  0  0999 V2000
   -3.6760   -0.5469   -0.4887 N   0  0  0  0  0  0  0  0  0  0  0  0
   -5.0338   -0.6270   -0.3623 C   0  0  0  0  0  0  0  0  0  0  0  0
   -5.9381   -1.5516   -0.8736 C   0  0  0  0  0  0  0  0  0  0  0  0
   -7.2761   -1.3874   -0.5729 C   0  0  0  0  0  0  0  0  0  0  0  0
   -7.7201   -0.3143    0.2290 C   0  0  0  0  0  0  0  0  0  0  0  0
   -9.0211   -0.1181    0.5492 O   0  0  0  0  0  0  0  0  0  0  0  0
   -9.9866   -1.0324    0.0759 C   0  0  0  0  0  0  0  0  0  0  0  0
   -6.8194    0.6078    0.7320 C   0  0  0  0  0  0  0  0  0  0  0  0
   -5.4614    0.4592    0.4310 C   0  0  0  0  0  0  0  0  0  0  0  0
   -4.2973    1.2123    0.7531 C   0  0  0  0  0  0  0  0  0  0  0  0
   -3.2350    0.5719    0.1713 C   0  0  0  0  0  0  0  0  0  0  0  0
   -1.8247    0.9926    0.2421 C   0  0  0  0  0  0  0  0  0  0  0  0
   -1.5303    2.1406    0.5252 O   0  0  0  0  0  0  0  0  0  0  0  0
   -0.9170    0.0142   -0.0218 N   0  0  0  0  0  0  0  0  0  0  0  0
    0.4737    0.1452   -0.0889 C   0  0  0  0  0  0  0  0  0  0  0  0
    1.2449   -1.0001    0.1291 C   0  0  0  0  0  0  0  0  0  0  0  0
    2.6202   -0.9566    0.0372 C   0  0  0  0  0  0  0  0  0  0  0  0
    1.1229    1.3345   -0.4055 C   0  0  0  0  0  0  0  0  0  0  0  0
    2.5069    1.3636   -0.4974 C   0  0  0  0  0  0  0  0  0  0  0  0
    3.2898    0.2309   -0.2808 C   0  0  0  0  0  0  0  0  0  0  0  0
    4.7640    0.2749   -0.3706 C   0  0  0  0  0  0  0  0  0  0  0  0
    5.4433    1.5188   -0.8789 C   0  0  0  0  0  0  0  0  0  0  0  0
    5.8401    2.4789    0.2493 C   0  0  0  0  0  0  0  0  0  0  0  0
    6.5289    3.7273   -0.2810 C   0  0  0  0  0  0  0  0  0  0  0  0
    5.3825   -0.7707    0.0317 N   0  0  0  0  0  0  0  0  0  0  0  0
    6.7143   -0.8175   -0.0059 N   0  0  0  0  0  0  0  0  0  0  0  0
    7.3916   -1.9083    0.5030 C   0  0  0  0  0  0  0  0  0  0  0  0
    6.7716   -2.8702    1.0650 N   0  0  0  0  0  0  0  0  0  0  0  0
    8.7528   -1.7604    0.3686 N   0  0  0  0  0  0  0  0  0  0  0  0
   -3.1333   -1.1017   -1.1307 H   0  0  0  0  0  0  0  0  0  0  0  0
   -5.6145   -2.3825   -1.4869 H   0  0  0  0  0  0  0  0  0  0  0  0
   -7.9788   -2.1070   -0.9697 H   0  0  0  0  0  0  0  0  0  0  0  0
   -7.1672    1.4331    1.3413 H   0  0  0  0  0  0  0  0  0  0  0  0
    7.4265   -3.5959    1.3317 H   0  0  0  0  0  0  0  0  0  0  0  0
  -10.9460   -0.6944    0.4604 H   0  0  0  0  0  0  0  0  0  0  0  0
  -10.0371   -1.0524   -1.0164 H   0  0  0  0  0  0  0  0  0  0  0  0
   -9.8064   -2.0488    0.4368 H   0  0  0  0  0  0  0  0  0  0  0  0
   -4.2421    2.1014    1.3607 H   0  0  0  0  0  0  0  0  0  0  0  0
   -1.2528   -0.9380   -0.0220 H   0  0  0  0  0  0  0  0  0  0  0  0
    0.7580   -1.9368    0.3742 H   0  0  0  0  0  0  0  0  0  0  0  0
    0.5700    2.2402   -0.5968 H   0  0  0  0  0  0  0  0  0  0  0  0
    3.1889   -1.8591    0.2150 H   0  0  0  0  0  0  0  0  0  0  0  0
    2.9631    2.3110   -0.7495 H   0  0  0  0  0  0  0  0  0  0  0  0
    6.3294    1.2569   -1.4669 H   0  0  0  0  0  0  0  0  0  0  0  0
    4.7934    2.0371   -1.5851 H   0  0  0  0  0  0  0  0  0  0  0  0
    4.9481    2.7612    0.8146 H   0  0  0  0  0  0  0  0  0  0  0  0
    6.4980    1.9688    0.9585 H   0  0  0  0  0  0  0  0  0  0  0  0
    5.8768    4.2789   -0.9602 H   0  0  0  0  0  0  0  0  0  0  0  0
    6.8066    4.3990    0.5316 H   0  0  0  0  0  0  0  0  0  0  0  0
    7.4388    3.4737   -0.8274 H   0  0  0  0  0  0  0  0  0  0  0  0
    7.2535   -0.0055   -0.2720 H   0  0  0  0  0  0  0  0  0  0  0  0
    9.0850   -1.2708   -0.4488 H   0  0  0  0  0  0  0  0  0  0  0  0
    9.2950   -2.5875    0.5585 H   0  0  0  0  0  0  0  0  0  0  0  0
  1  2  1  0
  1 11  1  0
  2  3  2  0
  2  9  1  0
  3  4  1  0
  4  5  2  0
  5  6  1  0
  5  8  1  0
  6  7  1  0
  8  9  2  0
  9 10  1  0
 10 11  2  0
 11 12  1  0
 12 13  2  0
 12 14  1  0
 14 15  1  0
 15 16  2  0
 15 18  1  0
 16 17  1  0
 17 20  2  0
 18 19  2  0
 19 20  1  0
 20 21  1  0
 21 22  1  0
 21 25  2  0
 22 23  1  0
 23 24  1  0
 25 26  1  0
 26 27  1  0
 27 28  2  0
 27 29  1  0
  1 30  1  0
  3 31  1  0
  4 32  1  0
  8 33  1  0
  7 35  1  0
  7 36  1  0
  7 37  1  0
 10 38  1  0
 14 39  1  0
 16 40  1  0
 18 41  1  0
 17 42  1  0
 19 43  1  0
 22 44  1  0
 22 45  1  0
 23 46  1  0
 23 47  1  0
 24 48  1  0
 24 49  1  0
 24 50  1  0
 26 51  1  0
 29 52  1  0
 29 53  1  0
 28 34  1  0
M  END
