
     RDKit          3D

 50 50  0  0  0  0  0  0  0  0999 V2000
   -5.5097   -0.9735    1.5176 O   0  0  0  0  0  0  0  0  0  0  0  0
   -5.0463    0.2647    0.6139 P   0  0  1  0  0  0  0  0  0  0  0  0
   -6.1170    0.6631   -0.3174 O   0  0  0  0  0  0  0  0  0  0  0  0
   -4.4591    1.3685    1.6170 O   0  0  0  0  0  0  0  0  0  0  0  0
   -3.4973   -0.2685   -0.2046 C   0  0  1  0  0  0  0  0  0  0  0  0
   -2.5190    1.1015   -0.9286 P   0  0  1  0  0  0  0  0  0  0  0  0
   -3.6739    2.0571   -1.4706 O   0  0  0  0  0  0  0  0  0  0  0  0
   -1.8046    1.8353    0.3017 O   0  0  0  0  0  0  0  0  0  0  0  0
   -1.5025    0.6405   -1.8969 O   0  0  0  0  0  0  0  0  0  0  0  0
   -2.6392   -1.1370    0.7261 C   0  0  0  0  0  0  0  0  0  0  0  0
   -1.3788   -1.5592    0.0914 N   0  0  0  0  0  0  0  0  0  0  0  0
   -0.2320   -1.0103    0.4902 C   0  0  0  0  0  0  0  0  0  0  0  0
    0.9695   -1.3465   -0.1243 C   0  0  0  0  0  0  0  0  0  0  0  0
    0.9432   -2.2793   -1.1577 C   0  0  0  0  0  0  0  0  0  0  0  0
   -0.2710   -2.8303   -1.5362 C   0  0  0  0  0  0  0  0  0  0  0  0
   -1.4303   -2.4550   -0.9048 C   0  0  0  0  0  0  0  0  0  0  0  0
    2.0442   -0.7289    0.3443 O   0  0  0  0  0  0  0  0  0  0  0  0
    3.3232   -1.0118   -0.2315 C   0  0  0  0  0  0  0  0  0  0  0  0
    4.3337   -0.0962    0.4220 C   0  0  0  0  0  0  0  0  0  0  0  0
    5.7437   -0.3479   -0.0999 C   0  0  0  0  0  0  0  0  0  0  0  0
    6.7626    0.6083    0.5079 C   0  0  0  0  0  0  0  0  0  0  0  0
    8.1870    0.3520    0.0332 C   0  0  0  0  0  0  0  0  0  0  0  0
    9.1996    1.3251    0.6251 C   0  0  0  0  0  0  0  0  0  0  0  0
   10.6243    1.0503    0.1639 C   0  0  0  0  0  0  0  0  0  0  0  0
   -5.1238   -1.0484    2.4004 H   0  0  0  0  0  0  0  0  0  0  0  0
   -5.1169    1.8962    2.0940 H   0  0  0  0  0  0  0  0  0  0  0  0
   -3.8353   -0.8757   -1.0526 H   0  0  0  0  0  0  0  0  0  0  0  0
   -3.3617    2.8289   -1.9664 H   0  0  0  0  0  0  0  0  0  0  0  0
   -2.3920    2.2433    0.9543 H   0  0  0  0  0  0  0  0  0  0  0  0
   -2.3763   -0.6162    1.6438 H   0  0  0  0  0  0  0  0  0  0  0  0
   -3.1766   -2.0433    0.9955 H   0  0  0  0  0  0  0  0  0  0  0  0
   -0.2682   -0.2992    1.3024 H   0  0  0  0  0  0  0  0  0  0  0  0
    1.8454   -2.5872   -1.6675 H   0  0  0  0  0  0  0  0  0  0  0  0
   -0.3177   -3.5591   -2.3309 H   0  0  0  0  0  0  0  0  0  0  0  0
   -2.3990   -2.8570   -1.1597 H   0  0  0  0  0  0  0  0  0  0  0  0
    3.5777   -2.0630   -0.0607 H   0  0  0  0  0  0  0  0  0  0  0  0
    3.2908   -0.8397   -1.3123 H   0  0  0  0  0  0  0  0  0  0  0  0
    4.0515    0.9436    0.2335 H   0  0  0  0  0  0  0  0  0  0  0  0
    4.3119   -0.2451    1.5052 H   0  0  0  0  0  0  0  0  0  0  0  0
    6.0363   -1.3803    0.1178 H   0  0  0  0  0  0  0  0  0  0  0  0
    5.7598   -0.2475   -1.1902 H   0  0  0  0  0  0  0  0  0  0  0  0
    6.4785    1.6381    0.2656 H   0  0  0  0  0  0  0  0  0  0  0  0
    6.7242    0.5318    1.6001 H   0  0  0  0  0  0  0  0  0  0  0  0
    8.4771   -0.6729    0.2899 H   0  0  0  0  0  0  0  0  0  0  0  0
    8.2249    0.4126   -1.0603 H   0  0  0  0  0  0  0  0  0  0  0  0
    8.9185    2.3476    0.3548 H   0  0  0  0  0  0  0  0  0  0  0  0
    9.1509    1.2767    1.7174 H   0  0  0  0  0  0  0  0  0  0  0  0
   11.3310    1.7585    0.5982 H   0  0  0  0  0  0  0  0  0  0  0  0
   10.9454    0.0466    0.4490 H   0  0  0  0  0  0  0  0  0  0  0  0
   10.7088    1.1255   -0.9220 H   0  0  0  0  0  0  0  0  0  0  0  0
  2  1  1  1
  1 25  1  0
  5  2  1  0
  3  2  2  0
  2  4  1  0
  4 26  1  0
  6  5  1  0
  5 10  1  0
  5 27  1  6
  9  6  2  0
  6  8  1  1
  7  6  1  0
  7 28  1  0
  8 29  1  0
 11 10  1  0
 10 30  1  0
 10 31  1  0
 12 11  2  0
 16 11  1  0
 13 12  1  0
 12 32  1  0
 17 13  1  0
 14 13  2  0
 14 15  1  0
 14 33  1  0
 15 16  2  0
 15 34  1  0
 16 35  1  0
 18 17  1  0
 18 19  1  0
 18 36  1  0
 18 37  1  0
 20 19  1  0
 19 38  1  0
 19 39  1  0
 21 20  1  0
 20 40  1  0
 20 41  1  0
 21 22  1  0
 21 42  1  0
 21 43  1  0
 23 22  1  0
 22 44  1  0
 22 45  1  0
 24 23  1  0
 23 46  1  0
 23 47  1  0
 24 48  1  0
 24 49  1  0
 24 50  1  0
M  CHG  1  11   1
M  END
