
     RDKit          3D

 34 35  0  0  0  0  0  0  0  0999 V2000
   -3.6933    1.6915    1.4779 C   0  0  0  0  0  0  0  0  0  0  0  0
   -4.3717    0.6486    0.5986 C   0  0  1  0  0  0  0  0  0  0  0  0
   -5.8056    1.0509    0.2709 C   0  0  0  0  0  0  0  0  0  0  0  0
   -3.6288    0.4159   -0.7169 C   0  0  0  0  0  0  0  0  0  0  0  0
   -2.2377    0.0129   -0.5443 N   0  0  0  0  0  0  0  0  0  0  0  0
   -1.1944    0.9283   -0.6838 C   0  0  0  0  0  0  0  0  0  0  0  0
   -1.3631    2.0909   -0.9635 O   0  0  0  0  0  0  0  0  0  0  0  0
   -1.8897   -1.2662   -0.2621 C   0  0  0  0  0  0  0  0  0  0  0  0
   -2.8886   -2.5520   -0.0900 S   0  0  0  0  0  0  0  0  0  0  0  0
   -0.1633   -1.4280   -0.1082 S   0  0  0  0  0  0  0  0  0  0  0  0
    0.0976    0.2673   -0.4443 C   0  0  0  0  0  0  0  0  0  0  0  0
    1.2485    0.9659   -0.4699 C   0  0  0  0  0  0  0  0  0  0  0  0
    2.6140    0.5515   -0.2604 C   0  0  0  0  0  0  0  0  0  0  0  0
    3.0443   -0.7781   -0.1319 C   0  0  0  0  0  0  0  0  0  0  0  0
    4.3710   -1.0850    0.0782 C   0  0  0  0  0  0  0  0  0  0  0  0
    5.3220   -0.0649    0.1711 C   0  0  0  0  0  0  0  0  0  0  0  0
    6.5936   -0.4190    0.3828 O   0  0  0  0  0  0  0  0  0  0  0  0
    4.9191    1.2639    0.0356 C   0  0  0  0  0  0  0  0  0  0  0  0
    3.5886    1.5565   -0.1809 C   0  0  0  0  0  0  0  0  0  0  0  0
   -3.6058    2.6501    0.9632 H   0  0  0  0  0  0  0  0  0  0  0  0
   -4.2728    1.8541    2.3875 H   0  0  0  0  0  0  0  0  0  0  0  0
   -2.6937    1.3831    1.7879 H   0  0  0  0  0  0  0  0  0  0  0  0
   -4.3985   -0.2998    1.1433 H   0  0  0  0  0  0  0  0  0  0  0  0
   -5.8322    1.9910   -0.2850 H   0  0  0  0  0  0  0  0  0  0  0  0
   -6.3085    0.2922   -0.3308 H   0  0  0  0  0  0  0  0  0  0  0  0
   -6.3862    1.1887    1.1831 H   0  0  0  0  0  0  0  0  0  0  0  0
   -4.1234   -0.3632   -1.2981 H   0  0  0  0  0  0  0  0  0  0  0  0
   -3.6277    1.3247   -1.3180 H   0  0  0  0  0  0  0  0  0  0  0  0
    1.1214    2.0257   -0.6693 H   0  0  0  0  0  0  0  0  0  0  0  0
    2.3543   -1.6059   -0.2156 H   0  0  0  0  0  0  0  0  0  0  0  0
    4.6817   -2.1178    0.1700 H   0  0  0  0  0  0  0  0  0  0  0  0
    7.1642    0.3575    0.4300 H   0  0  0  0  0  0  0  0  0  0  0  0
    5.6454    2.0656    0.0968 H   0  0  0  0  0  0  0  0  0  0  0  0
    3.2911    2.5925   -0.2868 H   0  0  0  0  0  0  0  0  0  0  0  0
 15 14  2  0
 15 16  1  0
 14 13  1  0
 17 16  1  0
 16 18  2  0
  1  2  1  0
 13 12  1  0
 13 19  2  0
  3  2  1  0
 12 11  2  0
  7  6  2  0
 18 19  1  0
  2  4  1  0
 11  6  1  0
 11 10  1  0
  6  5  1  0
  5  4  1  0
  5  8  1  0
 10  8  1  0
  8  9  2  0
  1 20  1  0
  1 21  1  0
  1 22  1  0
  2 23  1  1
  3 24  1  0
  3 25  1  0
  3 26  1  0
  4 27  1  0
  4 28  1  0
 12 29  1  0
 14 30  1  0
 15 31  1  0
 17 32  1  0
 18 33  1  0
 19 34  1  0
M  END
