
     RDKit          3D

 46 49  0  0  0  0  0  0  0  0999 V2000
    7.0746   -2.3214   -1.8557 Cl  0  0  0  0  0  0  0  0  0  0  0  0
    6.3742   -1.0006   -0.9567 C   0  0  0  0  0  0  0  0  0  0  0  0
    7.1775   -0.3359   -0.0397 C   0  0  0  0  0  0  0  0  0  0  0  0
    6.6259    0.7214    0.6842 C   0  0  0  0  0  0  0  0  0  0  0  0
    5.1144   -0.7333   -1.2225 N   0  0  0  0  0  0  0  0  0  0  0  0
    4.5861    0.2705   -0.5367 C   0  0  0  0  0  0  0  0  0  0  0  0
    5.3101    1.0150    0.4187 C   0  0  0  0  0  0  0  0  0  0  0  0
    4.4111    1.9384    0.8880 N   0  0  0  0  0  0  0  0  0  0  0  0
    3.3103    0.7243   -0.6377 N   0  0  0  0  0  0  0  0  0  0  0  0
    3.2373    1.7254    0.2219 C   0  0  0  0  0  0  0  0  0  0  0  0
    2.1517    2.4861    0.4255 N   0  0  0  0  0  0  0  0  0  0  0  0
    2.1394    3.4654    1.4925 C   0  0  0  0  0  0  0  0  0  0  0  0
    0.8895    2.0860   -0.1654 C   0  0  0  0  0  0  0  0  0  0  0  0
    0.1393    1.0633    0.6810 C   0  0  0  0  0  0  0  0  0  0  0  0
   -1.1033    0.7139    0.0232 N   0  0  0  0  0  0  0  0  0  0  0  0
   -2.0193   -0.0638    0.8330 C   0  0  1  0  0  0  0  0  0  0  0  0
   -3.3832   -0.1349    0.1688 C   0  0  0  0  0  0  0  0  0  0  0  0
   -4.2123   -1.2547    0.3890 C   0  0  0  0  0  0  0  0  0  0  0  0
   -3.7954   -2.3163    1.1358 N   0  0  0  0  0  0  0  0  0  0  0  0
   -2.5978   -2.2291    1.9398 C   0  0  0  0  0  0  0  0  0  0  0  0
   -1.5284   -1.4701    1.1820 C   0  0  0  0  0  0  0  0  0  0  0  0
   -3.8210    0.9079   -0.6323 C   0  0  0  0  0  0  0  0  0  0  0  0
   -5.0761    0.8757   -1.2156 C   0  0  0  0  0  0  0  0  0  0  0  0
   -5.6034    2.1987   -2.2096 Cl  0  0  0  0  0  0  0  0  0  0  0  0
   -5.9165   -0.2042   -1.0173 C   0  0  0  0  0  0  0  0  0  0  0  0
   -5.4745   -1.2476   -0.2261 C   0  0  0  0  0  0  0  0  0  0  0  0
   -6.5276   -2.6099    0.0075 Cl  0  0  0  0  0  0  0  0  0  0  0  0
    8.2056   -0.6297    0.1104 H   0  0  0  0  0  0  0  0  0  0  0  0
    7.2148    1.2666    1.4093 H   0  0  0  0  0  0  0  0  0  0  0  0
    4.5905    2.6329    1.5955 H   0  0  0  0  0  0  0  0  0  0  0  0
    2.9968    4.1353    1.4211 H   0  0  0  0  0  0  0  0  0  0  0  0
    1.2472    4.0779    1.3932 H   0  0  0  0  0  0  0  0  0  0  0  0
    2.1315    3.0100    2.4860 H   0  0  0  0  0  0  0  0  0  0  0  0
    0.2770    2.9799   -0.2880 H   0  0  0  0  0  0  0  0  0  0  0  0
    1.0775    1.6840   -1.1614 H   0  0  0  0  0  0  0  0  0  0  0  0
    0.7967    0.2042    0.8729 H   0  0  0  0  0  0  0  0  0  0  0  0
   -0.1003    1.5014    1.6545 H   0  0  0  0  0  0  0  0  0  0  0  0
   -0.9046    0.2136   -0.8370 H   0  0  0  0  0  0  0  0  0  0  0  0
   -2.1404    0.4856    1.7758 H   0  0  0  0  0  0  0  0  0  0  0  0
   -4.5074   -2.9439    1.4714 H   0  0  0  0  0  0  0  0  0  0  0  0
   -2.7928   -1.7359    2.9006 H   0  0  0  0  0  0  0  0  0  0  0  0
   -2.2620   -3.2417    2.1623 H   0  0  0  0  0  0  0  0  0  0  0  0
   -1.2689   -2.0079    0.2646 H   0  0  0  0  0  0  0  0  0  0  0  0
   -0.6265   -1.4138    1.7933 H   0  0  0  0  0  0  0  0  0  0  0  0
   -3.1602    1.7490   -0.7920 H   0  0  0  0  0  0  0  0  0  0  0  0
   -6.8975   -0.2424   -1.4701 H   0  0  0  0  0  0  0  0  0  0  0  0
 21 20  1  0
 21 16  1  0
 24 23  1  0
 27 26  1  0
 25 23  2  0
 25 26  1  0
 23 22  1  0
 26 18  2  0
 22 17  2  0
 18 19  1  0
 18 17  1  0
 19 20  1  0
 17 16  1  0
 16 15  1  0
 15 14  1  0
 14 13  1  0
 13 11  1  0
 12 11  1  0
 11 10  1  0
 10  8  1  0
 10  9  2  0
  8  7  1  0
  9  6  1  0
  7  6  2  0
  7  4  1  0
  6  5  1  0
  4  3  2  0
  5  2  2  0
  3  2  1  0
  2  1  1  0
  3 28  1  0
  4 29  1  0
  8 30  1  0
 12 31  1  0
 12 32  1  0
 12 33  1  0
 13 34  1  0
 13 35  1  0
 14 36  1  0
 14 37  1  0
 15 38  1  0
 16 39  1  1
 19 40  1  0
 20 41  1  0
 20 42  1  0
 21 43  1  0
 21 44  1  0
 22 45  1  0
 25 46  1  0
M  END
