
     RDKit          3D

 56 60  0  0  0  0  0  0  0  0999 V2000
   -4.2455    2.1240   -0.8812 C   0  0  0  0  0  0  0  0  0  0  0  0
   -5.1637   -1.3904   -0.6636 C   0  0  1  0  0  0  0  0  0  0  0  0
   -3.0171    0.6992    0.8018 C   0  0  0  0  0  0  0  0  0  0  0  0
   -5.7114    2.2432   -0.4847 C   0  0  0  0  0  0  0  0  0  0  0  0
   -4.0603   -2.1995    0.0103 C   0  0  0  0  0  0  0  0  0  0  0  0
   -6.5141   -2.0295   -0.3618 C   0  0  0  0  0  0  0  0  0  0  0  0
   -5.1381   -0.0018   -0.2305 N   0  0  0  0  0  0  0  0  0  0  0  0
   -6.2158    0.8354   -0.7345 C   0  0  0  0  0  0  0  0  0  0  0  0
   -3.8770    0.6805   -0.4637 C   0  0  1  0  0  0  0  0  0  0  0  0
   -3.5169    0.5404    1.9037 O   0  0  0  0  0  0  0  0  0  0  0  0
   -1.6917    0.9380    0.6446 N   0  0  0  0  0  0  0  0  0  0  0  0
   -1.0129    1.2206   -0.6060 C   0  0  0  0  0  0  0  0  0  0  0  0
    0.0656    0.1799   -0.8821 C   0  0  0  0  0  0  0  0  0  0  0  0
    1.0362    0.1135    0.2923 C   0  0  1  0  0  0  0  0  0  0  0  0
    0.2909   -0.1270    1.6008 C   0  0  0  0  0  0  0  0  0  0  0  0
   -0.7931    0.9290    1.7849 C   0  0  0  0  0  0  0  0  0  0  0  0
    2.0766   -0.8799    0.0720 N   0  0  0  0  0  0  0  0  0  0  0  0
    1.8910   -2.2264   -0.0749 C   0  0  0  0  0  0  0  0  0  0  0  0
    2.9911   -2.8864   -0.2743 N   0  0  0  0  0  0  0  0  0  0  0  0
    3.9792   -1.9294   -0.2614 C   0  0  0  0  0  0  0  0  0  0  0  0
    3.4176   -0.6646   -0.0437 C   0  0  0  0  0  0  0  0  0  0  0  0
    4.2474    0.4618    0.0116 C   0  0  0  0  0  0  0  0  0  0  0  0
    4.1522    1.8706    0.2046 C   0  0  0  0  0  0  0  0  0  0  0  0
    5.4294    2.3559    0.1339 C   0  0  0  0  0  0  0  0  0  0  0  0
    6.3010    1.3337   -0.0909 N   0  0  0  0  0  0  0  0  0  0  0  0
    5.6153    0.1589   -0.1711 C   0  0  0  0  0  0  0  0  0  0  0  0
    6.1776   -1.0337   -0.3832 N   0  0  0  0  0  0  0  0  0  0  0  0
    5.3647   -2.0686   -0.4276 C   0  0  0  0  0  0  0  0  0  0  0  0
   -4.1365    2.2281   -1.9622 H   0  0  0  0  0  0  0  0  0  0  0  0
   -3.6113    2.8829   -0.4209 H   0  0  0  0  0  0  0  0  0  0  0  0
   -5.0021   -1.4462   -1.7573 H   0  0  0  0  0  0  0  0  0  0  0  0
   -5.8089    2.4981    0.5727 H   0  0  0  0  0  0  0  0  0  0  0  0
   -6.2481    2.9940   -1.0638 H   0  0  0  0  0  0  0  0  0  0  0  0
   -4.1619   -2.1611    1.0952 H   0  0  0  0  0  0  0  0  0  0  0  0
   -4.1228   -3.2423   -0.3020 H   0  0  0  0  0  0  0  0  0  0  0  0
   -3.0595   -1.8495   -0.2491 H   0  0  0  0  0  0  0  0  0  0  0  0
   -6.7391   -1.9663    0.7048 H   0  0  0  0  0  0  0  0  0  0  0  0
   -7.3315   -1.5628   -0.9109 H   0  0  0  0  0  0  0  0  0  0  0  0
   -6.4966   -3.0837   -0.6397 H   0  0  0  0  0  0  0  0  0  0  0  0
   -7.1545    0.6280   -0.2175 H   0  0  0  0  0  0  0  0  0  0  0  0
   -6.3956    0.6864   -1.8129 H   0  0  0  0  0  0  0  0  0  0  0  0
   -3.3267    0.1955   -1.2797 H   0  0  0  0  0  0  0  0  0  0  0  0
   -1.7068    1.2610   -1.4389 H   0  0  0  0  0  0  0  0  0  0  0  0
   -0.5584    2.2156   -0.5404 H   0  0  0  0  0  0  0  0  0  0  0  0
   -0.4081   -0.7936   -1.0400 H   0  0  0  0  0  0  0  0  0  0  0  0
    0.5976    0.4402   -1.7986 H   0  0  0  0  0  0  0  0  0  0  0  0
    1.5477    1.0754    0.3632 H   0  0  0  0  0  0  0  0  0  0  0  0
   -0.1689   -1.1198    1.5963 H   0  0  0  0  0  0  0  0  0  0  0  0
    0.9852   -0.0897    2.4421 H   0  0  0  0  0  0  0  0  0  0  0  0
   -0.3325    1.9182    1.8851 H   0  0  0  0  0  0  0  0  0  0  0  0
   -1.3574    0.7407    2.6929 H   0  0  0  0  0  0  0  0  0  0  0  0
    0.9067   -2.6688   -0.0221 H   0  0  0  0  0  0  0  0  0  0  0  0
    3.2699    2.4649    0.3758 H   0  0  0  0  0  0  0  0  0  0  0  0
    5.7823    3.3696    0.2295 H   0  0  0  0  0  0  0  0  0  0  0  0
    7.2997    1.4266   -0.1789 H   0  0  0  0  0  0  0  0  0  0  0  0
    5.8022   -3.0462   -0.6003 H   0  0  0  0  0  0  0  0  0  0  0  0
 19 20  1  0
 19 18  2  0
 28 20  2  0
 28 27  1  0
 20 21  1  0
 18 17  1  0
 27 26  2  0
 13 14  1  0
 13 12  1  0
 21 17  1  0
 21 22  2  0
 17 14  1  0
 26 22  1  0
 26 25  1  0
 22 23  1  0
  4  1  1  0
  4  8  1  0
 10  3  2  0
 25 24  1  0
 14 15  1  0
 12 11  1  0
  1  9  1  0
 23 24  2  0
  3 11  1  0
  3  9  1  0
 11 16  1  0
 15 16  1  0
  8  7  1  0
  9  7  1  0
  7  2  1  0
  5  2  1  0
  2  6  1  0
  1 29  1  0
  1 30  1  0
  2 31  1  6
  4 32  1  0
  4 33  1  0
  5 34  1  0
  5 35  1  0
  5 36  1  0
  6 37  1  0
  6 38  1  0
  6 39  1  0
  8 40  1  0
  8 41  1  0
  9 42  1  6
 12 43  1  0
 12 44  1  0
 13 45  1  0
 13 46  1  0
 14 47  1  1
 15 48  1  0
 15 49  1  0
 16 50  1  0
 16 51  1  0
 18 52  1  0
 23 53  1  0
 24 54  1  0
 25 55  1  0
 28 56  1  0
M  END
