
     RDKit          3D

 77 79  0  0  0  0  0  0  0  0999 V2000
    4.4208    2.8285   -0.4527 N   0  0  0  0  0  0  0  0  0  0  0  0
    3.3000    2.3587    0.3031 C   0  0  0  0  0  0  0  0  0  0  0  0
    3.4442    1.9258    1.4743 O   0  0  0  0  0  0  0  0  0  0  0  0
    5.7057    2.7468    0.2285 C   0  0  0  0  0  0  0  0  0  0  0  0
    6.5160    1.4720   -0.0905 C   0  0  0  0  0  0  0  0  0  0  0  0
    6.6148    1.1512   -1.5011 N   0  0  0  0  0  0  0  0  0  0  0  0
    5.3324    1.2261   -2.1704 C   0  0  0  0  0  0  0  0  0  0  0  0
    4.5111    2.5016   -1.8643 C   0  0  0  0  0  0  0  0  0  0  0  0
    2.0204    2.4758   -0.2363 N   0  0  0  0  0  0  0  0  0  0  0  0
    0.8510    2.1494    0.5385 C   0  0  2  0  0  0  0  0  0  0  0  0
    0.1355    0.9389   -0.1259 C   0  0  0  0  0  0  0  0  0  0  0  0
   -0.3905    1.0553   -1.2525 O   0  0  0  0  0  0  0  0  0  0  0  0
   -0.1589    3.3073    0.6188 C   0  0  0  0  0  0  0  0  0  0  0  0
   -1.1988    3.0696    1.7044 C   0  0  1  0  0  0  0  0  0  0  0  0
   -0.6437    3.3667    3.0820 C   0  0  0  0  0  0  0  0  0  0  0  0
   -2.4201    3.9281    1.4409 C   0  0  0  0  0  0  0  0  0  0  0  0
   -1.8761   -1.7343    0.5119 C   0  0  0  0  0  0  0  0  0  0  0  0
   -0.4384   -1.4638    0.0311 C   0  0  1  0  0  0  0  0  0  0  0  0
    0.1251   -0.2453    0.5684 N   0  0  0  0  0  0  0  0  0  0  0  0
    0.4122   -2.6997    0.3719 C   0  0  0  0  0  0  0  0  0  0  0  0
    1.7716   -2.6577   -0.2974 C   0  0  0  0  0  0  0  0  0  0  0  0
    2.5269   -3.9225   -0.0788 C   0  0  0  0  0  0  0  0  0  0  0  0
    2.1182   -5.1049   -0.7084 C   0  0  0  0  0  0  0  0  0  0  0  0
    2.8295   -6.2872   -0.5148 C   0  0  0  0  0  0  0  0  0  0  0  0
    3.9567   -6.2995    0.3071 C   0  0  0  0  0  0  0  0  0  0  0  0
    4.3699   -5.1250    0.9348 C   0  0  0  0  0  0  0  0  0  0  0  0
    3.6588   -3.9409    0.7436 C   0  0  0  0  0  0  0  0  0  0  0  0
   -6.4125    2.2824   -1.9820 C   0  0  0  0  0  0  0  0  0  0  0  0
   -5.7633    1.2898   -2.7172 C   0  0  0  0  0  0  0  0  0  0  0  0
   -5.1498    0.2284   -2.0576 C   0  0  0  0  0  0  0  0  0  0  0  0
   -5.1703    0.1408   -0.6592 C   0  0  0  0  0  0  0  0  0  0  0  0
   -4.4579   -1.1539    0.1292 S   0  0  2  0  0  0  0  0  0  0  0  0
   -4.5740   -2.3176   -0.6474 O   0  0  0  0  0  0  0  0  0  0  0  0
   -4.9177   -1.2191    1.4546 O   0  0  0  0  0  0  0  0  0  0  0  0
   -5.8327    1.1418    0.0637 C   0  0  0  0  0  0  0  0  0  0  0  0
   -6.4489    2.2060   -0.5891 C   0  0  0  0  0  0  0  0  0  0  0  0
    6.2872    3.6543   -0.1010 H   0  0  0  0  0  0  0  0  0  0  0  0
    5.5516    2.8058    1.3416 H   0  0  0  0  0  0  0  0  0  0  0  0
    7.5513    1.5963    0.3293 H   0  0  0  0  0  0  0  0  0  0  0  0
    6.0317    0.5951    0.4249 H   0  0  0  0  0  0  0  0  0  0  0  0
    7.2678    1.7716   -1.9468 H   0  0  0  0  0  0  0  0  0  0  0  0
    5.4950    1.1723   -3.2816 H   0  0  0  0  0  0  0  0  0  0  0  0
    4.7361    0.3224   -1.8604 H   0  0  0  0  0  0  0  0  0  0  0  0
    3.4989    2.3804   -2.3332 H   0  0  0  0  0  0  0  0  0  0  0  0
    5.0100    3.3854   -2.3583 H   0  0  0  0  0  0  0  0  0  0  0  0
    1.8683    2.8609   -1.1371 H   0  0  0  0  0  0  0  0  0  0  0  0
    1.1825    1.8889    1.5900 H   0  0  0  0  0  0  0  0  0  0  0  0
    0.3827    4.2659    0.8323 H   0  0  0  0  0  0  0  0  0  0  0  0
   -0.6691    3.4141   -0.3758 H   0  0  0  0  0  0  0  0  0  0  0  0
   -1.5128    1.9868    1.6691 H   0  0  0  0  0  0  0  0  0  0  0  0
   -1.4182    3.1610    3.8601 H   0  0  0  0  0  0  0  0  0  0  0  0
    0.2502    2.7337    3.2979 H   0  0  0  0  0  0  0  0  0  0  0  0
   -0.3421    4.4393    3.1599 H   0  0  0  0  0  0  0  0  0  0  0  0
   -2.8770    3.6676    0.4560 H   0  0  0  0  0  0  0  0  0  0  0  0
   -3.1823    3.7690    2.2411 H   0  0  0  0  0  0  0  0  0  0  0  0
   -2.1415    5.0093    1.4276 H   0  0  0  0  0  0  0  0  0  0  0  0
   -2.6859    0.2347    0.8284 H   0  0  0  0  0  0  0  0  0  0  0  0
   -2.5210   -0.2276   -0.8808 H   0  0  0  0  0  0  0  0  0  0  0  0
   -1.8870   -1.8770    1.6240 H   0  0  0  0  0  0  0  0  0  0  0  0
   -2.2108   -2.6978    0.0366 H   0  0  0  0  0  0  0  0  0  0  0  0
   -0.4711   -1.3501   -1.0969 H   0  0  0  0  0  0  0  0  0  0  0  0
    0.5652   -0.2985    1.4559 H   0  0  0  0  0  0  0  0  0  0  0  0
    0.5350   -2.7926    1.4822 H   0  0  0  0  0  0  0  0  0  0  0  0
   -0.1442   -3.6089    0.0202 H   0  0  0  0  0  0  0  0  0  0  0  0
    1.6376   -2.4950   -1.4016 H   0  0  0  0  0  0  0  0  0  0  0  0
    2.3630   -1.7884    0.0962 H   0  0  0  0  0  0  0  0  0  0  0  0
    1.2315   -5.0963   -1.3595 H   0  0  0  0  0  0  0  0  0  0  0  0
    2.5017   -7.2115   -1.0124 H   0  0  0  0  0  0  0  0  0  0  0  0
    4.5181   -7.2327    0.4584 H   0  0  0  0  0  0  0  0  0  0  0  0
    5.2592   -5.1305    1.5819 H   0  0  0  0  0  0  0  0  0  0  0  0
    3.9913   -3.0167    1.2397 H   0  0  0  0  0  0  0  0  0  0  0  0
   -5.7379    1.3431   -3.8158 H   0  0  0  0  0  0  0  0  0  0  0  0
   -4.6496   -0.5659   -2.6395 H   0  0  0  0  0  0  0  0  0  0  0  0
   -5.8736    1.0712    1.1658 H   0  0  0  0  0  0  0  0  0  0  0  0
   -6.9666    2.9825   -0.0067 H   0  0  0  0  0  0  0  0  0  0  0  0
   -2.8302   -0.6288    0.1254 C   0  0  0  0  0  0  0  0  0  0  0  0
   -6.8984    3.1231   -2.5006 H   0  0  0  0  0  0  0  0  0  0  0  0
  1  2  1  0
  1  4  1  0
  1  8  1  0
  2  3  2  0
  4  5  1  0
  4 37  1  0
  4 38  1  0
  5  6  1  0
  5 39  1  0
  5 40  1  0
  6  7  1  0
  6 41  1  0
  7  8  1  0
  7 42  1  0
  7 43  1  0
  8 44  1  0
  8 45  1  0
  9 10  1  0
  9 46  1  0
 10 11  1  0
 10 13  1  0
 10 47  1  1
 11 12  2  0
 13 14  1  0
 13 48  1  0
 13 49  1  0
 14 15  1  0
 14 16  1  0
 14 50  1  1
 15 51  1  0
 15 52  1  0
 15 53  1  0
 16 54  1  0
 16 55  1  0
 16 56  1  0
 76 17  1  0
 76 57  1  0
 76 58  1  0
 17 18  1  0
 17 59  1  0
 17 60  1  0
 18 19  1  0
 18 20  1  0
 18 61  1  6
 19 62  1  0
 20 21  1  0
 20 63  1  0
 20 64  1  0
 21 22  1  0
 21 65  1  0
 21 66  1  0
 22 23  2  0
 22 27  1  0
 23 24  1  0
 23 67  1  0
 24 25  2  0
 24 68  1  0
 25 26  1  0
 25 69  1  0
 26 27  2  0
 26 70  1  0
 27 71  1  0
 28 29  2  0
 28 36  1  0
 28 77  1  0
 29 30  1  0
 29 72  1  0
 30 31  2  0
 30 73  1  0
 31 32  1  0
 31 35  1  0
 32 33  2  0
 32 34  2  0
 35 36  2  0
 35 74  1  0
 36 75  1  0
  2  9  1  0
 11 19  1  0
 32 76  1  1
M  END
