
     RDKit          3D

 64 67  0  0  0  0  0  0  0  0999 V2000
    4.7664   -1.1601    1.7991 C   0  0  0  0  0  0  0  0  0  0  0  0
    3.7173   -1.0959    0.6950 C   0  0  1  0  0  0  0  0  0  0  0  0
    2.5639   -0.1791    1.0674 C   0  0  0  0  0  0  0  0  0  0  0  0
    5.9235   -2.0722    1.4092 C   0  0  0  0  0  0  0  0  0  0  0  0
    6.5827   -1.6508    0.0976 C   0  0  2  0  0  0  0  0  0  0  0  0
    5.5290   -1.5718   -1.0045 C   0  0  0  0  0  0  0  0  0  0  0  0
    4.3655   -0.6615   -0.6278 C   0  0  0  0  0  0  0  0  0  0  0  0
    7.7218   -2.6004   -0.2545 C   0  0  0  0  0  0  0  0  0  0  0  0
   -0.9239   -0.2121    0.4105 C   0  0  0  0  0  0  0  0  0  0  0  0
    0.3385    0.5947    0.3341 C   0  0  1  0  0  0  0  0  0  0  0  0
   -6.6539   -1.6062    0.3593 C   0  0  0  0  0  0  0  0  0  0  0  0
    1.4797    2.5104   -0.8174 C   0  0  0  0  0  0  0  0  0  0  0  0
    2.5639    2.2815   -1.6583 C   0  0  0  0  0  0  0  0  0  0  0  0
    3.6845    3.1021   -1.6166 C   0  0  0  0  0  0  0  0  0  0  0  0
    3.7336    4.1678   -0.7293 C   0  0  0  0  0  0  0  0  0  0  0  0
    2.6545    4.4088    0.1128 C   0  0  0  0  0  0  0  0  0  0  0  0
    1.5396    3.5854    0.0676 C   0  0  0  0  0  0  0  0  0  0  0  0
   -2.1267    0.2263    0.1536 N   0  0  0  0  0  0  0  0  0  0  0  0
   -2.9790   -0.8148    0.4118 C   0  0  0  0  0  0  0  0  0  0  0  0
   -2.2558   -1.9031    0.8319 C   0  0  0  0  0  0  0  0  0  0  0  0
   -0.9578   -1.4982    0.8222 N   0  0  0  0  0  0  0  0  0  0  0  0
    1.4858   -0.2752    0.2505 N   0  0  0  0  0  0  0  0  0  0  0  0
    0.2856    1.6007   -0.8246 C   0  0  0  0  0  0  0  0  0  0  0  0
    2.5930    0.5709    2.0275 O   0  0  0  0  0  0  0  0  0  0  0  0
    8.4526   -2.1750   -1.4404 N   0  0  0  0  0  0  0  0  0  0  0  0
   -4.4216   -0.6840    0.2469 C   0  0  0  0  0  0  0  0  0  0  0  0
   -5.2878   -1.7501    0.5048 C   0  0  0  0  0  0  0  0  0  0  0  0
   -7.2093   -0.3954   -0.0544 C   0  0  0  0  0  0  0  0  0  0  0  0
   -6.3468    0.6688   -0.3119 C   0  0  0  0  0  0  0  0  0  0  0  0
   -4.9780    0.5281   -0.1652 C   0  0  0  0  0  0  0  0  0  0  0  0
   -8.6967   -0.3124   -0.1787 C   0  0  0  0  0  0  0  0  0  0  0  0
   -9.4098   -1.2397    0.1855 O   0  0  0  0  0  0  0  0  0  0  0  0
   -9.2069    0.8149   -0.6971 N   0  0  0  0  0  0  0  0  0  0  0  0
    5.1479   -0.1547    1.9984 H   0  0  0  0  0  0  0  0  0  0  0  0
    4.3166   -1.5134    2.7297 H   0  0  0  0  0  0  0  0  0  0  0  0
    3.3030   -2.1023    0.5465 H   0  0  0  0  0  0  0  0  0  0  0  0
    6.6657   -2.0812    2.2123 H   0  0  0  0  0  0  0  0  0  0  0  0
    5.5600   -3.1027    1.3140 H   0  0  0  0  0  0  0  0  0  0  0  0
    7.0085   -0.6476    0.2339 H   0  0  0  0  0  0  0  0  0  0  0  0
    5.9690   -1.2062   -1.9358 H   0  0  0  0  0  0  0  0  0  0  0  0
    5.1496   -2.5801   -1.2120 H   0  0  0  0  0  0  0  0  0  0  0  0
    3.6330   -0.6573   -1.4385 H   0  0  0  0  0  0  0  0  0  0  0  0
    4.7205    0.3696   -0.5297 H   0  0  0  0  0  0  0  0  0  0  0  0
    8.4266   -2.6204    0.5815 H   0  0  0  0  0  0  0  0  0  0  0  0
    7.3126   -3.6202   -0.3345 H   0  0  0  0  0  0  0  0  0  0  0  0
    0.4373    1.1547    1.2678 H   0  0  0  0  0  0  0  0  0  0  0  0
    2.5325    1.4524   -2.3548 H   0  0  0  0  0  0  0  0  0  0  0  0
    4.5180    2.9078   -2.2796 H   0  0  0  0  0  0  0  0  0  0  0  0
    4.6042    4.8100   -0.6953 H   0  0  0  0  0  0  0  0  0  0  0  0
    2.6823    5.2403    0.8056 H   0  0  0  0  0  0  0  0  0  0  0  0
    0.7040    3.7804    0.7307 H   0  0  0  0  0  0  0  0  0  0  0  0
   -2.5382   -2.9005    1.1216 H   0  0  0  0  0  0  0  0  0  0  0  0
   -0.1604   -2.0615    1.0752 H   0  0  0  0  0  0  0  0  0  0  0  0
    1.5620   -0.8591   -0.5689 H   0  0  0  0  0  0  0  0  0  0  0  0
    0.2225    1.0559   -1.7699 H   0  0  0  0  0  0  0  0  0  0  0  0
   -0.6354    2.1784   -0.7302 H   0  0  0  0  0  0  0  0  0  0  0  0
    9.2539   -2.7790   -1.5709 H   0  0  0  0  0  0  0  0  0  0  0  0
    7.8799   -2.3133   -2.2635 H   0  0  0  0  0  0  0  0  0  0  0  0
   -4.8962   -2.7063    0.8285 H   0  0  0  0  0  0  0  0  0  0  0  0
   -6.7171    1.6373   -0.6220 H   0  0  0  0  0  0  0  0  0  0  0  0
   -4.3309    1.3707   -0.3681 H   0  0  0  0  0  0  0  0  0  0  0  0
   -8.6470    1.5591   -1.0711 H   0  0  0  0  0  0  0  0  0  0  0  0
  -10.2042    0.9027   -0.8019 H   0  0  0  0  0  0  0  0  0  0  0  0
   -7.3001   -2.4478    0.5687 H   0  0  0  0  0  0  0  0  0  0  0  0
  4  1  1  0
  4  5  1  0
 25  8  1  0
 21 20  1  0
 21  9  1  0
 17 16  2  0
 17 12  1  0
  1  2  1  0
  8  5  1  0
 23 12  1  0
 23 10  1  0
 20 19  2  0
 16 15  1  0
 22 10  1  0
 22  3  1  0
  5  6  1  0
  2  3  1  0
  2  7  1  0
 12 13  2  0
 10  9  1  0
  9 18  2  0
  6  7  1  0
  3 24  2  0
 19 18  1  0
 19 26  1  0
 15 14  2  0
 13 14  1  0
 27 26  1  0
 27 11  2  0
 26 30  2  0
 11 28  1  0
 30 29  1  0
 28 29  2  0
 28 31  1  0
 32 31  2  0
 31 33  1  0
  1 34  1  0
  1 35  1  0
  2 36  1  6
  4 37  1  0
  4 38  1  0
  5 39  1  1
  6 40  1  0
  6 41  1  0
  7 42  1  0
  7 43  1  0
  8 44  1  0
  8 45  1  0
 10 46  1  1
 11 64  1  0
 13 47  1  0
 14 48  1  0
 15 49  1  0
 16 50  1  0
 17 51  1  0
 20 52  1  0
 21 53  1  0
 22 54  1  0
 23 55  1  0
 23 56  1  0
 25 57  1  0
 25 58  1  0
 27 59  1  0
 29 60  1  0
 30 61  1  0
 33 62  1  0
 33 63  1  0
M  END
