
     RDKit          3D

 55 58  0  0  0  0  0  0  0  0999 V2000
   -5.9055   -0.3356    1.1439 N   0  0  0  0  0  0  0  0  0  0  0  0
   -5.2769   -1.4649    0.7570 C   0  0  0  0  0  0  0  0  0  0  0  0
   -5.7772   -2.7077    1.2068 C   0  0  0  0  0  0  0  0  0  0  0  0
   -5.1691   -3.8730    0.8278 C   0  0  0  0  0  0  0  0  0  0  0  0
   -4.0395   -3.8453   -0.0154 C   0  0  0  0  0  0  0  0  0  0  0  0
   -3.5368   -2.6550   -0.4664 C   0  0  0  0  0  0  0  0  0  0  0  0
   -4.1470   -1.4367   -0.0879 C   0  0  0  0  0  0  0  0  0  0  0  0
   -3.7012   -0.1576   -0.4976 C   0  0  0  0  0  0  0  0  0  0  0  0
   -2.5457   -0.0879   -1.4446 C   0  0  0  0  0  0  0  0  0  0  0  0
   -2.6592    0.0029   -2.6371 O   0  0  0  0  0  0  0  0  0  0  0  0
   -1.3908   -0.1605   -0.7999 O   0  0  0  0  0  0  0  0  0  0  0  0
   -0.2074   -0.1174   -1.5764 C   0  0  0  0  0  0  0  0  0  0  0  0
    0.9627   -0.1560   -0.6087 C   0  0  0  0  0  0  0  0  0  0  0  0
    0.8230   -0.2180    0.5911 O   0  0  0  0  0  0  0  0  0  0  0  0
    2.1541   -0.1128   -1.2616 N   0  0  0  0  0  0  0  0  0  0  0  0
    3.4442   -0.1358   -0.7442 C   0  0  0  0  0  0  0  0  0  0  0  0
    3.7440   -0.2108    0.6203 C   0  0  0  0  0  0  0  0  0  0  0  0
    5.0637   -0.2314    1.0321 C   0  0  0  0  0  0  0  0  0  0  0  0
    6.0914   -0.1752    0.1009 C   0  0  0  0  0  0  0  0  0  0  0  0
    7.7644   -0.2295    0.6550 S   0  0  1  0  0  0  0  0  0  0  0  0
    7.8873   -1.1812    1.7505 O   0  0  0  0  0  0  0  0  0  0  0  0
    8.6141   -0.4150   -0.5144 O   0  0  0  0  0  0  0  0  0  0  0  0
    7.9255    1.2644    1.3423 N   0  0  0  0  0  0  0  0  0  0  0  0
    5.8065   -0.1018   -1.2549 C   0  0  0  0  0  0  0  0  0  0  0  0
    4.4900   -0.0814   -1.6697 C   0  0  0  0  0  0  0  0  0  0  0  0
   -4.3277    0.9938   -0.0872 C   0  0  0  0  0  0  0  0  0  0  0  0
   -3.7941    2.3339   -0.5428 C   0  0  0  0  0  0  0  0  0  0  0  0
   -3.9725    3.4945    0.4349 C   0  0  0  0  0  0  0  0  0  0  0  0
   -5.3392    4.1619    0.3397 C   0  0  0  0  0  0  0  0  0  0  0  0
   -6.4835    3.1548    0.2970 C   0  0  0  0  0  0  0  0  0  0  0  0
   -6.2891    1.9994    1.2762 C   0  0  0  0  0  0  0  0  0  0  0  0
   -5.4751    0.8384    0.7590 C   0  0  0  0  0  0  0  0  0  0  0  0
   -6.6459   -2.7104    1.8525 H   0  0  0  0  0  0  0  0  0  0  0  0
   -5.5543   -4.8238    1.1716 H   0  0  0  0  0  0  0  0  0  0  0  0
   -3.5667   -4.7740   -0.3058 H   0  0  0  0  0  0  0  0  0  0  0  0
   -2.6709   -2.6619   -1.1164 H   0  0  0  0  0  0  0  0  0  0  0  0
   -0.1537   -0.9703   -2.2595 H   0  0  0  0  0  0  0  0  0  0  0  0
   -0.1627    0.7953   -2.1777 H   0  0  0  0  0  0  0  0  0  0  0  0
    2.1063   -0.0624   -2.2696 H   0  0  0  0  0  0  0  0  0  0  0  0
    2.9659   -0.2552    1.3627 H   0  0  0  0  0  0  0  0  0  0  0  0
    5.2766   -0.2915    2.0913 H   0  0  0  0  0  0  0  0  0  0  0  0
    8.7480    1.3121    1.9369 H   0  0  0  0  0  0  0  0  0  0  0  0
    7.9478    2.0113    0.6556 H   0  0  0  0  0  0  0  0  0  0  0  0
    6.5957   -0.0620   -1.9922 H   0  0  0  0  0  0  0  0  0  0  0  0
    4.2725   -0.0251   -2.7292 H   0  0  0  0  0  0  0  0  0  0  0  0
   -2.7251    2.2328   -0.7382 H   0  0  0  0  0  0  0  0  0  0  0  0
   -4.2418    2.5936   -1.5080 H   0  0  0  0  0  0  0  0  0  0  0  0
   -3.7873    3.1422    1.4535 H   0  0  0  0  0  0  0  0  0  0  0  0
   -3.1973    4.2368    0.2360 H   0  0  0  0  0  0  0  0  0  0  0  0
   -5.4673    4.8252    1.1993 H   0  0  0  0  0  0  0  0  0  0  0  0
   -5.3778    4.7965   -0.5494 H   0  0  0  0  0  0  0  0  0  0  0  0
   -7.4217    3.6622    0.5285 H   0  0  0  0  0  0  0  0  0  0  0  0
   -6.6084    2.7574   -0.7145 H   0  0  0  0  0  0  0  0  0  0  0  0
   -5.8344    2.3704    2.2021 H   0  0  0  0  0  0  0  0  0  0  0  0
   -7.2541    1.5853    1.5680 H   0  0  0  0  0  0  0  0  0  0  0  0
 22 20  2  0
 21 20  2  0
 20 23  1  1
 20 19  1  0
 19 24  2  0
 19 18  1  0
 24 25  1  0
 18 17  2  0
 25 16  2  0
 17 16  1  0
 16 15  1  0
 15 13  1  0
 14 13  2  0
 27 28  1  0
 27 26  1  0
 10  9  2  0
 13 12  1  0
 29 28  1  0
 29 30  1  0
 31 30  1  0
 31 32  1  0
 26 32  1  0
 26  8  2  0
  9  8  1  0
  9 11  1  0
 32  1  2  0
  8  7  1  0
 12 11  1  0
  1  2  1  0
  7  2  2  0
  7  6  1  0
  2  3  1  0
  6  5  2  0
  3  4  2  0
  5  4  1  0
  3 33  1  0
  4 34  1  0
  5 35  1  0
  6 36  1  0
 12 37  1  0
 12 38  1  0
 15 39  1  0
 17 40  1  0
 18 41  1  0
 23 42  1  0
 23 43  1  0
 24 44  1  0
 25 45  1  0
 27 46  1  0
 27 47  1  0
 28 48  1  0
 28 49  1  0
 29 50  1  0
 29 51  1  0
 30 52  1  0
 30 53  1  0
 31 54  1  0
 31 55  1  0
M  END
