
     RDKit          3D

 23 23  0  0  0  0  0  0  0  0999 V2000
    0.2168   -2.6227   -1.7577 O   0  0  0  0  0  0  0  0  0  0  0  0
    1.1609   -2.0584   -2.2887 C   0  0  0  0  0  0  0  0  0  0  0  0
    1.6398   -2.4036   -3.4926 N   0  0  0  0  0  0  0  0  0  0  0  0
    1.8650   -0.8772   -1.6385 C   0  0  0  0  0  0  0  0  0  0  0  0
    1.8617   -0.9591   -0.1415 C   0  0  0  0  0  0  0  0  0  0  0  0
    0.7676   -0.5237    0.6050 C   0  0  0  0  0  0  0  0  0  0  0  0
    0.7545   -0.6175    1.9841 C   0  0  0  0  0  0  0  0  0  0  0  0
    1.8476   -1.1607    2.6631 C   0  0  0  0  0  0  0  0  0  0  0  0
    1.7516   -1.2155    4.0068 O   0  0  0  0  0  0  0  0  0  0  0  0
    2.8210   -1.7844    4.7345 C   0  0  0  0  0  0  0  0  0  0  0  0
    2.9490   -1.5986    1.9334 C   0  0  0  0  0  0  0  0  0  0  0  0
    2.9417   -1.4932    0.5464 C   0  0  0  0  0  0  0  0  0  0  0  0
    2.4071   -1.9141   -3.9188 H   0  0  0  0  0  0  0  0  0  0  0  0
    1.1911   -3.1245   -4.0342 H   0  0  0  0  0  0  0  0  0  0  0  0
    1.3371    0.0226   -1.9703 H   0  0  0  0  0  0  0  0  0  0  0  0
    2.8852   -0.7853   -2.0159 H   0  0  0  0  0  0  0  0  0  0  0  0
   -0.0891   -0.0920    0.1021 H   0  0  0  0  0  0  0  0  0  0  0  0
   -0.1025   -0.2677    2.5466 H   0  0  0  0  0  0  0  0  0  0  0  0
    3.7491   -1.2204    4.6077 H   0  0  0  0  0  0  0  0  0  0  0  0
    3.0005   -2.8250    4.4511 H   0  0  0  0  0  0  0  0  0  0  0  0
    2.5345   -1.7519    5.7829 H   0  0  0  0  0  0  0  0  0  0  0  0
    3.8192   -2.0192    2.4182 H   0  0  0  0  0  0  0  0  0  0  0  0
    3.8091   -1.8404   -0.0029 H   0  0  0  0  0  0  0  0  0  0  0  0
  1  2  2  0
  2  3  1  0
  2  4  1  0
  3 13  1  0
  3 14  1  0
  4  5  1  0
  4 15  1  0
  4 16  1  0
  5  6  2  0
  5 12  1  0
  6  7  1  0
  6 17  1  0
  7  8  2  0
  7 18  1  0
  8  9  1  0
  8 11  1  0
  9 10  1  0
 10 19  1  0
 10 20  1  0
 10 21  1  0
 11 12  2  0
 11 22  1  0
 12 23  1  0
M  END
