
     RDKit          3D

 43 45  0  0  0  0  0  0  0  0999 V2000
   -3.4299    2.8652   -0.3563 F   0  0  0  0  0  0  0  0  0  0  0  0
   -2.1808    2.3654   -0.2818 C   0  0  0  0  0  0  0  0  0  0  0  0
   -1.9510    1.0300   -0.5936 C   0  0  0  0  0  0  0  0  0  0  0  0
   -3.0675    0.0770   -1.0437 C   0  0  1  0  0  0  0  0  0  0  0  0
   -2.5293   -1.2582   -1.2054 N   0  0  0  0  0  0  0  0  0  0  0  0
   -2.7096   -2.1369   -0.3096 C   0  0  0  0  0  0  0  0  0  0  0  0
   -2.1026   -3.3448   -0.3229 N   0  0  0  0  0  0  0  0  0  0  0  0
   -3.4805   -2.0036    0.7988 O   0  0  0  0  0  0  0  0  0  0  0  0
   -4.3267   -0.9269    0.8143 C   0  0  0  0  0  0  0  0  0  0  0  0
   -5.3658   -1.0310    1.8689 C   0  0  0  0  0  0  0  0  0  0  0  0
   -6.1748   -2.1400    1.6325 F   0  0  0  0  0  0  0  0  0  0  0  0
   -4.1858    0.0792   -0.0336 C   0  0  0  0  0  0  0  0  0  0  0  0
   -3.5927    0.5229   -2.4145 C   0  0  0  0  0  0  0  0  0  0  0  0
   -1.1734    3.2184    0.1122 C   0  0  0  0  0  0  0  0  0  0  0  0
    0.1323    2.7611    0.2091 C   0  0  0  0  0  0  0  0  0  0  0  0
    0.4049    1.4308   -0.0989 C   0  0  0  0  0  0  0  0  0  0  0  0
   -0.6391    0.5923   -0.4950 C   0  0  0  0  0  0  0  0  0  0  0  0
    1.6745    0.8504   -0.0363 N   0  0  0  0  0  0  0  0  0  0  0  0
    2.8554    1.4146    0.2725 C   0  0  0  0  0  0  0  0  0  0  0  0
    3.0399    2.5833    0.5630 O   0  0  0  0  0  0  0  0  0  0  0  0
    4.0039    0.4414    0.2330 C   0  0  0  0  0  0  0  0  0  0  0  0
    5.2844    0.8804    0.5368 C   0  0  0  0  0  0  0  0  0  0  0  0
    6.3192   -0.0357    0.4928 C   0  0  0  0  0  0  0  0  0  0  0  0
    6.0256   -1.3505    0.1462 C   0  0  0  0  0  0  0  0  0  0  0  0
    4.7047   -1.6967   -0.1435 C   0  0  0  0  0  0  0  0  0  0  0  0
    3.7275   -0.8154   -0.0978 N   0  0  0  0  0  0  0  0  0  0  0  0
    7.0481   -2.3414    0.0836 C   0  0  0  0  0  0  0  0  0  0  0  0
    7.8680   -3.1480    0.0332 N   0  0  0  0  0  0  0  0  0  0  0  0
   -1.6307   -3.5905   -1.1771 H   0  0  0  0  0  0  0  0  0  0  0  0
   -2.5450   -4.1115    0.1575 H   0  0  0  0  0  0  0  0  0  0  0  0
   -4.9159   -1.1517    2.8562 H   0  0  0  0  0  0  0  0  0  0  0  0
   -5.9819   -0.1331    1.8670 H   0  0  0  0  0  0  0  0  0  0  0  0
   -4.9042    0.8857   -0.0170 H   0  0  0  0  0  0  0  0  0  0  0  0
   -2.7863    0.5012   -3.1475 H   0  0  0  0  0  0  0  0  0  0  0  0
   -4.3777   -0.1569   -2.7473 H   0  0  0  0  0  0  0  0  0  0  0  0
   -4.0070    1.5290   -2.3875 H   0  0  0  0  0  0  0  0  0  0  0  0
   -1.4054    4.2488    0.3487 H   0  0  0  0  0  0  0  0  0  0  0  0
    0.9075    3.4413    0.5207 H   0  0  0  0  0  0  0  0  0  0  0  0
   -0.4245   -0.4396   -0.7422 H   0  0  0  0  0  0  0  0  0  0  0  0
    1.7256   -0.1373   -0.2551 H   0  0  0  0  0  0  0  0  0  0  0  0
    5.4717    1.9105    0.8010 H   0  0  0  0  0  0  0  0  0  0  0  0
    7.3327    0.2621    0.7222 H   0  0  0  0  0  0  0  0  0  0  0  0
    4.4476   -2.7127   -0.4165 H   0  0  0  0  0  0  0  0  0  0  0  0
 11 10  1  0
  1  2  1  0
 10  9  1  0
 12  9  2  0
 12  4  1  0
  9  8  1  0
  4 13  1  6
  2 14  2  0
  2  3  1  0
 14 15  1  0
  4  3  1  0
  4  5  1  0
  3 17  2  0
  8  6  1  0
 15 16  2  0
  5  6  2  0
  6  7  1  0
 17 16  1  0
 16 18  1  0
 20 19  2  0
 18 19  1  0
 19 21  1  0
 21 22  2  0
 21 26  1  0
 22 23  1  0
 26 25  2  0
 23 24  2  0
 25 24  1  0
 24 27  1  0
 27 28  3  0
  7 29  1  0
  7 30  1  0
 10 31  1  0
 10 32  1  0
 12 33  1  0
 13 34  1  0
 13 35  1  0
 13 36  1  0
 14 37  1  0
 15 38  1  0
 17 39  1  0
 18 40  1  0
 22 41  1  0
 23 42  1  0
 25 43  1  0
M  END
