
     RDKit          3D

 16 17  0  0  0  0  0  0  0  0999 V2000
    1.9919   -1.2297   -0.0277 N   0  0  0  0  0  0  0  0  0  0  0  0
   -0.9551    0.9177    0.0025 C   0  0  0  0  0  0  0  0  0  0  0  0
   -1.9687   -0.0270   -0.0043 C   0  0  0  0  0  0  0  0  0  0  0  0
    2.7104   -0.1547   -0.0139 C   0  0  0  0  0  0  0  0  0  0  0  0
   -3.6180    0.5080   -0.0024 Cl  0  0  0  0  0  0  0  0  0  0  0  0
   -1.6965   -1.3923   -0.0128 C   0  0  0  0  0  0  0  0  0  0  0  0
    0.3468    0.4495   -0.0037 C   0  0  0  0  0  0  0  0  0  0  0  0
    1.8222    1.3686    0.0040 S   0  0  0  0  0  0  0  0  0  0  0  0
    4.0459   -0.1363   -0.0130 N   0  0  0  0  0  0  0  0  0  0  0  0
    0.6576   -0.9215   -0.0178 C   0  0  0  0  0  0  0  0  0  0  0  0
   -0.3873   -1.8407   -0.0176 C   0  0  0  0  0  0  0  0  0  0  0  0
   -1.1762    1.9759    0.0130 H   0  0  0  0  0  0  0  0  0  0  0  0
   -2.5096   -2.1041   -0.0174 H   0  0  0  0  0  0  0  0  0  0  0  0
    4.5496   -1.0043   -0.0078 H   0  0  0  0  0  0  0  0  0  0  0  0
    4.5811    0.7100    0.0168 H   0  0  0  0  0  0  0  0  0  0  0  0
   -0.1754   -2.9012   -0.0247 H   0  0  0  0  0  0  0  0  0  0  0  0
  9  4  1  0
  8  4  1  0
  8  7  1  0
  4  1  2  0
  1 10  1  0
  7 10  2  0
  7  2  1  0
 10 11  1  0
  2  3  2  0
 11  6  2  0
  3  6  1  0
  3  5  1  0
  2 12  1  0
  6 13  1  0
  9 14  1  0
  9 15  1  0
 11 16  1  0
M  END
