
     RDKit          3D

 27 28  0  0  0  0  0  0  0  0999 V2000
    1.0015   -0.5011    0.0636 C   0  0  0  0  0  0  0  0  0  0  0  0
    1.7617   -0.3056    1.2151 C   0  0  0  0  0  0  0  0  0  0  0  0
    3.0323    0.2474    1.0878 C   0  0  0  0  0  0  0  0  0  0  0  0
    3.5263    0.6115   -0.1569 C   0  0  0  0  0  0  0  0  0  0  0  0
    2.7524    0.4048   -1.2969 C   0  0  0  0  0  0  0  0  0  0  0  0
    1.4912   -0.1528   -1.1841 C   0  0  0  0  0  0  0  0  0  0  0  0
   -0.2323   -1.0924    0.2077 O   0  0  0  0  0  0  0  0  0  0  0  0
   -1.3489   -0.3479    0.0075 C   0  0  0  0  0  0  0  0  0  0  0  0
   -2.5494   -1.0425   -0.1252 C   0  0  0  0  0  0  0  0  0  0  0  0
   -3.7454   -0.3717   -0.3099 C   0  0  0  0  0  0  0  0  0  0  0  0
   -3.7362    1.0129   -0.3661 C   0  0  0  0  0  0  0  0  0  0  0  0
   -2.5545    1.7214   -0.2349 C   0  0  0  0  0  0  0  0  0  0  0  0
   -1.3627    1.0386   -0.0470 C   0  0  0  0  0  0  0  0  0  0  0  0
    4.8947    1.1963   -0.2711 C   0  0  0  0  0  0  0  0  0  0  0  0
    6.0982   -0.0898   -0.6926 Cl  0  0  0  0  0  0  0  0  0  0  0  0
   -5.2258    1.8606   -0.6030 Cl  0  0  0  0  0  0  0  0  0  0  0  0
   -2.5377   -2.7644   -0.0507 Cl  0  0  0  0  0  0  0  0  0  0  0  0
    1.3188   -0.6315    2.4400 O   0  0  0  0  0  0  0  0  0  0  0  0
    3.6281    0.3986    1.9802 H   0  0  0  0  0  0  0  0  0  0  0  0
    3.1332    0.6774   -2.2724 H   0  0  0  0  0  0  0  0  0  0  0  0
    0.8825   -0.3175   -2.0645 H   0  0  0  0  0  0  0  0  0  0  0  0
   -4.6668   -0.9277   -0.4136 H   0  0  0  0  0  0  0  0  0  0  0  0
   -2.5500    2.8015   -0.2741 H   0  0  0  0  0  0  0  0  0  0  0  0
   -0.4473    1.6052    0.0600 H   0  0  0  0  0  0  0  0  0  0  0  0
    4.9548    1.9424   -1.0593 H   0  0  0  0  0  0  0  0  0  0  0  0
    5.2296    1.6382    0.6639 H   0  0  0  0  0  0  0  0  0  0  0  0
    0.4668   -1.0820    2.3891 H   0  0  0  0  0  0  0  0  0  0  0  0
  1  2  2  0
  1  6  1  0
  1  7  1  0
  2  3  1  0
  2 18  1  0
  3  4  2  0
  4  5  1  0
  4 14  1  0
  5  6  2  0
  7  8  1  0
  8  9  2  0
  8 13  1  0
  9 10  1  0
  9 17  1  0
 10 11  2  0
 11 12  1  0
 11 16  1  0
 12 13  2  0
 14 15  1  0
  3 19  1  0
  5 20  1  0
  6 21  1  0
 10 22  1  0
 12 23  1  0
 13 24  1  0
 14 25  1  0
 14 26  1  0
 18 27  1  0
M  END
