
     RDKit          3D

 40 41  0  0  0  0  0  0  0  0999 V2000
    2.6579    0.4562    0.7807 N   0  0  0  0  0  0  0  0  0  0  0  0
    3.4597    1.0493   -0.2447 C   0  0  0  0  0  0  0  0  0  0  0  0
    4.7071    0.2722   -0.6177 C   0  0  0  0  0  0  0  0  0  0  0  0
    5.3066   -0.6257   -0.0240 O   0  0  0  0  0  0  0  0  0  0  0  0
    5.2163    0.6661   -1.8191 O   0  0  0  0  0  0  0  0  0  0  0  0
    3.1304    0.6321    2.1254 C   0  0  0  0  0  0  0  0  0  0  0  0
    1.4870   -0.6377    0.4207 S   0  0  1  0  0  0  0  0  0  0  0  0
    1.7442   -1.1351   -0.8746 O   0  0  0  0  0  0  0  0  0  0  0  0
    1.4203   -1.6013    1.4471 O   0  0  0  0  0  0  0  0  0  0  0  0
    0.0169    0.2314    0.3888 C   0  0  0  0  0  0  0  0  0  0  0  0
   -0.0453    1.5877    0.6478 C   0  0  0  0  0  0  0  0  0  0  0  0
   -1.2539    2.3041    0.6220 C   0  0  0  0  0  0  0  0  0  0  0  0
   -2.4283    1.6596    0.3320 C   0  0  0  0  0  0  0  0  0  0  0  0
   -2.4448    0.2657    0.0551 C   0  0  0  0  0  0  0  0  0  0  0  0
   -1.2155   -0.4584    0.0820 C   0  0  0  0  0  0  0  0  0  0  0  0
   -1.2589   -1.8606   -0.2008 C   0  0  0  0  0  0  0  0  0  0  0  0
   -2.4411   -2.4903   -0.4887 C   0  0  0  0  0  0  0  0  0  0  0  0
   -3.6544   -1.7807   -0.5166 C   0  0  0  0  0  0  0  0  0  0  0  0
   -3.6838   -0.4197   -0.2524 C   0  0  0  0  0  0  0  0  0  0  0  0
   -4.9108    0.3129   -0.2769 N   0  0  0  0  0  0  0  0  0  0  0  0
   -5.3931    0.9099   -1.5029 C   0  0  0  0  0  0  0  0  0  0  0  0
   -5.6917    0.4520    0.9364 C   0  0  0  0  0  0  0  0  0  0  0  0
    3.8182    2.0705    0.0836 H   0  0  0  0  0  0  0  0  0  0  0  0
    2.8440    1.1701   -1.1868 H   0  0  0  0  0  0  0  0  0  0  0  0
    4.1046    0.0898    2.2756 H   0  0  0  0  0  0  0  0  0  0  0  0
    3.2919    1.7234    2.3408 H   0  0  0  0  0  0  0  0  0  0  0  0
    2.3782    0.2226    2.8530 H   0  0  0  0  0  0  0  0  0  0  0  0
    0.8578    2.1741    0.8885 H   0  0  0  0  0  0  0  0  0  0  0  0
   -1.2441    3.3830    0.8363 H   0  0  0  0  0  0  0  0  0  0  0  0
   -3.3666    2.2388    0.3166 H   0  0  0  0  0  0  0  0  0  0  0  0
   -0.3423   -2.4717   -0.1946 H   0  0  0  0  0  0  0  0  0  0  0  0
   -2.4544   -3.5710   -0.7039 H   0  0  0  0  0  0  0  0  0  0  0  0
   -4.5765   -2.3338   -0.7534 H   0  0  0  0  0  0  0  0  0  0  0  0
   -5.0122    0.4233    1.8275 H   0  0  0  0  0  0  0  0  0  0  0  0
   -6.2131    1.4450    0.9090 H   0  0  0  0  0  0  0  0  0  0  0  0
   -6.4653   -0.3553    1.0508 H   0  0  0  0  0  0  0  0  0  0  0  0
   -5.8755    0.1693   -2.1989 H   0  0  0  0  0  0  0  0  0  0  0  0
   -6.1549    1.6889   -1.2358 H   0  0  0  0  0  0  0  0  0  0  0  0
   -4.5407    1.4039   -2.0377 H   0  0  0  0  0  0  0  0  0  0  0  0
    6.0122    0.1464   -2.0221 H   0  0  0  0  0  0  0  0  0  0  0  0
  3  5  1  0
  3  4  2  0
  3  2  1  0
  6  1  1  0
  7  1  1  1
  1  2  1  0
  7  8  2  0
  7  9  2  0
  7 10  1  0
 10 11  2  0
 10 15  1  0
 11 12  1  0
 12 13  2  0
 13 14  1  0
 14 15  2  0
 14 19  1  0
 15 16  1  0
 16 17  2  0
 17 18  1  0
 18 19  2  0
 19 20  1  0
 20 22  1  0
 20 21  1  0
  2 23  1  0
  2 24  1  0
  6 25  1  0
  6 26  1  0
  6 27  1  0
 11 28  1  0
 12 29  1  0
 13 30  1  0
 16 31  1  0
 17 32  1  0
 18 33  1  0
 22 34  1  0
 22 35  1  0
 22 36  1  0
 21 37  1  0
 21 38  1  0
 21 39  1  0
  5 40  1  0
M  END
