
     RDKit          3D

 16 16  0  0  0  0  0  0  0  0999 V2000
    1.4969    0.7701    0.0514 C   0  0  0  0  0  0  0  0  0  0  0  0
    1.5340   -0.7734   -0.0555 C   0  0  0  0  0  0  0  0  0  0  0  0
    0.0635   -1.2311   -0.0757 C   0  0  0  0  0  0  0  0  0  0  0  0
   -0.7327   -0.0104    0.3752 C   0  0  1  0  0  0  0  0  0  0  0  0
    0.0464    1.1511   -0.2369 C   0  0  0  0  0  0  0  0  0  0  0  0
   -2.0786   -0.1184   -0.0266 O   0  0  0  0  0  0  0  0  0  0  0  0
    1.7662    1.0818    1.0628 H   0  0  0  0  0  0  0  0  0  0  0  0
    2.2013    1.2554   -0.6242 H   0  0  0  0  0  0  0  0  0  0  0  0
    2.0527   -1.0983   -0.9580 H   0  0  0  0  0  0  0  0  0  0  0  0
    2.0752   -1.2070    0.7860 H   0  0  0  0  0  0  0  0  0  0  0  0
   -0.2434   -1.4885   -1.0933 H   0  0  0  0  0  0  0  0  0  0  0  0
   -0.1177   -2.1066    0.5497 H   0  0  0  0  0  0  0  0  0  0  0  0
   -0.6623    0.0738    1.4707 H   0  0  0  0  0  0  0  0  0  0  0  0
   -0.2335    2.1230    0.1752 H   0  0  0  0  0  0  0  0  0  0  0  0
   -0.1405    1.1799   -1.3154 H   0  0  0  0  0  0  0  0  0  0  0  0
   -2.5587    0.6367    0.3257 H   0  0  0  0  0  0  0  0  0  0  0  0
  2  1  1  0
  5  1  1  0
  1  7  1  0
  1  8  1  0
  3  2  1  0
  2  9  1  0
  2 10  1  0
  4  3  1  0
  3 11  1  0
  3 12  1  0
  4  6  1  0
  4  5  1  0
  4 13  1  1
  5 14  1  0
  5 15  1  0
  6 16  1  0
M  END
