
     RDKit          3D

  5  4  0  0  0  0  0  0  0  0999 V2000
   -1.0323   -0.0024    0.0206 C   0  0  0  0  0  0  0  0  0  0  0  0
    0.0547    0.0085   -1.5802 Br  0  0  0  0  0  0  0  0  0  0  0  0
    0.0532   -0.0443    1.6213 Br  0  0  0  0  0  0  0  0  0  0  0  0
   -1.6358    0.9019    0.0347 H   0  0  0  0  0  0  0  0  0  0  0  0
   -1.6619   -0.8888    0.0053 H   0  0  0  0  0  0  0  0  0  0  0  0
  1  2  1  0
  1  3  1  0
  1  4  1  0
  1  5  1  0
M  END
