
     RDKit          3D

 61 64  0  0  0  0  0  0  0  0999 V2000
    2.5126    3.4918   -0.6762 C   0  0  0  0  0  0  0  0  0  0  0  0
    3.0663    2.2899   -0.4676 N   0  0  0  0  0  0  0  0  0  0  0  0
    1.2464    3.7841   -0.7294 N   0  0  0  0  0  0  0  0  0  0  0  0
    2.2613    1.2638   -0.2929 C   0  0  0  0  0  0  0  0  0  0  0  0
    0.3887    2.7459   -0.5491 C   0  0  0  0  0  0  0  0  0  0  0  0
    0.8363    1.4333   -0.3195 C   0  0  0  0  0  0  0  0  0  0  0  0
   -1.4489    0.6497   -0.1787 C   0  0  0  0  0  0  0  0  0  0  0  0
   -0.1002    0.3958   -0.1362 C   0  0  0  0  0  0  0  0  0  0  0  0
   -1.8971    1.9881   -0.4147 C   0  0  0  0  0  0  0  0  0  0  0  0
   -0.9950    3.0032   -0.5939 C   0  0  0  0  0  0  0  0  0  0  0  0
    2.7807    0.0296   -0.0877 N   0  0  0  0  0  0  0  0  0  0  0  0
    6.4889   -0.1449   -0.0415 C   0  0  0  0  0  0  0  0  0  0  0  0
    6.6560   -1.5049    0.1324 C   0  0  0  0  0  0  0  0  0  0  0  0
    5.2227    0.4149   -0.1215 C   0  0  0  0  0  0  0  0  0  0  0  0
    5.5541   -2.3308    0.2292 C   0  0  0  0  0  0  0  0  0  0  0  0
    4.1017   -0.4098   -0.0260 C   0  0  0  0  0  0  0  0  0  0  0  0
    4.2875   -1.7856    0.1506 C   0  0  0  0  0  0  0  0  0  0  0  0
    7.8814    0.8644   -0.1621 Cl  0  0  0  0  0  0  0  0  0  0  0  0
   -3.2282    2.1229   -0.4495 O   0  0  0  0  0  0  0  0  0  0  0  0
   -3.8273    3.4159   -0.5486 C   0  0  2  0  0  0  0  0  0  0  0  0
   -3.7542    4.1693    0.7716 C   0  0  0  0  0  0  0  0  0  0  0  0
   -4.8169    3.6762    1.5672 O   0  0  0  0  0  0  0  0  0  0  0  0
   -5.7352    2.9431    0.7651 C   0  0  0  0  0  0  0  0  0  0  0  0
   -5.3227    3.1982   -0.6790 C   0  0  0  0  0  0  0  0  0  0  0  0
   -2.4491   -0.3038   -0.0139 N   0  0  0  0  0  0  0  0  0  0  0  0
   -2.3287   -1.6260    0.2849 C   0  0  0  0  0  0  0  0  0  0  0  0
   -3.6547   -2.3324    0.4541 C   0  0  0  0  0  0  0  0  0  0  0  0
   -1.2583   -2.1885    0.4269 O   0  0  0  0  0  0  0  0  0  0  0  0
   -3.5885   -3.8179    0.1318 C   0  0  0  0  0  0  0  0  0  0  0  0
   -4.9407   -4.4787    0.3654 C   0  0  0  0  0  0  0  0  0  0  0  0
   -4.9422   -5.9040    0.0885 N   0  0  0  0  0  0  0  0  0  0  0  0
   -6.1067   -6.5415    0.6649 C   0  0  0  0  0  0  0  0  0  0  0  0
   -4.8623   -6.1888   -1.3285 C   0  0  0  0  0  0  0  0  0  0  0  0
    3.2150    4.3067   -0.8172 H   0  0  0  0  0  0  0  0  0  0  0  0
    0.2159   -0.6180    0.0467 H   0  0  0  0  0  0  0  0  0  0  0  0
   -1.3073    4.0221   -0.7774 H   0  0  0  0  0  0  0  0  0  0  0  0
    2.1121   -0.7140    0.0248 H   0  0  0  0  0  0  0  0  0  0  0  0
    5.1149    1.4779   -0.2573 H   0  0  0  0  0  0  0  0  0  0  0  0
    5.6853   -3.3965    0.3619 H   0  0  0  0  0  0  0  0  0  0  0  0
    3.4307   -2.4436    0.2251 H   0  0  0  0  0  0  0  0  0  0  0  0
   -3.3980    3.9689   -1.3872 H   0  0  0  0  0  0  0  0  0  0  0  0
   -2.8070    4.0339    1.3000 H   0  0  0  0  0  0  0  0  0  0  0  0
   -3.8735    5.2412    0.5741 H   0  0  0  0  0  0  0  0  0  0  0  0
   -5.6787    1.8776    1.0126 H   0  0  0  0  0  0  0  0  0  0  0  0
   -6.7536    3.2788    0.9702 H   0  0  0  0  0  0  0  0  0  0  0  0
   -5.7762    4.1149   -1.0590 H   0  0  0  0  0  0  0  0  0  0  0  0
   -5.5829    2.3878   -1.3589 H   0  0  0  0  0  0  0  0  0  0  0  0
   -3.3898    0.0451   -0.1161 H   0  0  0  0  0  0  0  0  0  0  0  0
   -3.9673   -2.1878    1.4947 H   0  0  0  0  0  0  0  0  0  0  0  0
   -4.4214   -1.8491   -0.1575 H   0  0  0  0  0  0  0  0  0  0  0  0
   -3.2682   -3.9443   -0.9052 H   0  0  0  0  0  0  0  0  0  0  0  0
   -2.8396   -4.3076    0.7563 H   0  0  0  0  0  0  0  0  0  0  0  0
   -5.2113   -4.3421    1.4168 H   0  0  0  0  0  0  0  0  0  0  0  0
   -5.7167   -3.9537   -0.2206 H   0  0  0  0  0  0  0  0  0  0  0  0
   -6.0707   -7.6175    0.4871 H   0  0  0  0  0  0  0  0  0  0  0  0
   -6.1287   -6.3827    1.7442 H   0  0  0  0  0  0  0  0  0  0  0  0
   -7.0570   -6.1680    0.2512 H   0  0  0  0  0  0  0  0  0  0  0  0
   -3.9558   -5.7690   -1.7640 H   0  0  0  0  0  0  0  0  0  0  0  0
   -4.8293   -7.2674   -1.4882 H   0  0  0  0  0  0  0  0  0  0  0  0
   -5.7211   -5.7931   -1.8949 H   0  0  0  0  0  0  0  0  0  0  0  0
    7.8882   -2.0169    0.2029 F   0  0  0  0  0  0  0  0  0  0  0  0
 61 13  1  0
 13 15  1  0
 13 12  2  0
 18 12  1  0
 15 17  2  0
 12 14  1  0
 17 16  1  0
 14 16  2  0
 16 11  1  0
 11  4  1  0
  2  4  1  0
  2  1  2  0
  4  6  2  0
  1  3  1  0
  6  8  1  0
  6  5  1  0
 32 31  1  0
  8  7  2  0
  3  5  2  0
  5 10  1  0
 28 26  2  0
 31 33  1  0
 31 30  1  0
  7 25  1  0
  7  9  1  0
 10  9  2  0
 26 25  1  0
 26 27  1  0
  9 19  1  0
 30 29  1  0
 29 27  1  0
 19 20  1  0
 21 20  1  0
 21 22  1  0
 20 24  1  0
 22 23  1  0
 24 23  1  0
  1 34  1  0
  8 35  1  0
 10 36  1  0
 11 37  1  0
 14 38  1  0
 15 39  1  0
 17 40  1  0
 20 41  1  6
 21 42  1  0
 21 43  1  0
 23 44  1  0
 23 45  1  0
 24 46  1  0
 24 47  1  0
 25 48  1  0
 27 49  1  0
 27 50  1  0
 29 51  1  0
 29 52  1  0
 30 53  1  0
 30 54  1  0
 32 55  1  0
 32 56  1  0
 32 57  1  0
 33 58  1  0
 33 59  1  0
 33 60  1  0
M  END
