
     RDKit          3D

 32 32  0  0  0  0  0  0  0  0999 V2000
   -4.5570   -0.3652   -1.2389 O   0  0  0  0  0  0  0  0  0  0  0  0
   -4.0920    0.3268    0.1233 P   0  0  1  0  0  0  0  0  0  0  0  0
   -4.3641    1.8904   -0.0009 O   0  0  0  0  0  0  0  0  0  0  0  0
   -4.6777   -0.3907    1.2699 O   0  0  0  0  0  0  0  0  0  0  0  0
   -2.4969    0.4149    0.0713 O   0  0  0  0  0  0  0  0  0  0  0  0
   -1.7156   -0.7658    0.2122 C   0  0  0  0  0  0  0  0  0  0  0  0
   -0.2681   -0.4392   -0.0279 C   0  0  0  0  0  0  0  0  0  0  0  0
    0.1593    0.8526   -0.2981 C   0  0  0  0  0  0  0  0  0  0  0  0
    1.4303    1.1681   -0.5137 N   0  0  0  0  0  0  0  0  0  0  0  0
    0.6862   -1.4580    0.0253 C   0  0  0  0  0  0  0  0  0  0  0  0
    0.3396   -2.8907    0.3116 C   0  0  0  0  0  0  0  0  0  0  0  0
    2.0145   -1.1086   -0.2118 C   0  0  0  0  0  0  0  0  0  0  0  0
    3.0170   -2.0078   -0.1949 O   0  0  0  0  0  0  0  0  0  0  0  0
    2.3547    0.2219   -0.4783 C   0  0  0  0  0  0  0  0  0  0  0  0
    3.7806    0.6307   -0.7113 C   0  0  0  0  0  0  0  0  0  0  0  0
    4.5494    0.7885    0.6117 C   0  0  0  0  0  0  0  0  0  0  0  0
    5.9273    1.2109    0.3996 C   0  0  0  0  0  0  0  0  0  0  0  0
    7.0610    1.5625    0.2054 C   0  0  0  0  0  0  0  0  0  0  0  0
   -4.2730    0.0719   -2.0531 H   0  0  0  0  0  0  0  0  0  0  0  0
   -5.2750    2.1491    0.1936 H   0  0  0  0  0  0  0  0  0  0  0  0
   -1.8497   -1.1775    1.2168 H   0  0  0  0  0  0  0  0  0  0  0  0
   -2.0466   -1.5282   -0.5005 H   0  0  0  0  0  0  0  0  0  0  0  0
   -0.5459    1.6715   -0.3484 H   0  0  0  0  0  0  0  0  0  0  0  0
    0.5160   -3.5259   -0.5599 H   0  0  0  0  0  0  0  0  0  0  0  0
    0.9337   -3.2892    1.1371 H   0  0  0  0  0  0  0  0  0  0  0  0
   -0.7015   -3.0251    0.5911 H   0  0  0  0  0  0  0  0  0  0  0  0
    2.6890   -2.8993   -0.0346 H   0  0  0  0  0  0  0  0  0  0  0  0
    4.2983   -0.0907   -1.3455 H   0  0  0  0  0  0  0  0  0  0  0  0
    3.7802    1.5853   -1.2381 H   0  0  0  0  0  0  0  0  0  0  0  0
    4.0432    1.5226    1.2434 H   0  0  0  0  0  0  0  0  0  0  0  0
    4.5465   -0.1527    1.1659 H   0  0  0  0  0  0  0  0  0  0  0  0
    8.0670    1.8713    0.0366 H   0  0  0  0  0  0  0  0  0  0  0  0
  4  2  2  0
  8  9  1  0
  8  7  2  0
  9 14  2  0
  2  1  1  6
  2  5  1  0
  2  3  1  0
  6  5  1  0
  6  7  1  0
  7 10  1  0
 14 15  1  0
 14 12  1  0
 15 16  1  0
 16 17  1  0
 10 12  2  0
 10 11  1  0
 12 13  1  0
 17 18  3  0
  1 19  1  0
  3 20  1  0
  6 21  1  0
  6 22  1  0
  8 23  1  0
 11 24  1  0
 11 25  1  0
 11 26  1  0
 13 27  1  0
 15 28  1  0
 15 29  1  0
 16 30  1  0
 16 31  1  0
 18 32  1  0
M  END
