
     RDKit          3D

 34 35  0  0  0  0  0  0  0  0999 V2000
    1.3059   -2.7795    0.3626 O   0  0  0  0  0  0  0  0  0  0  0  0
    1.7556   -1.6647    0.2955 C   0  0  0  0  0  0  0  0  0  0  0  0
    3.1544   -1.2693   -0.2367 C   0  0  0  0  0  0  0  0  0  0  0  0
    3.9697   -2.0643   -0.6221 O   0  0  0  0  0  0  0  0  0  0  0  0
    3.1917    0.1816   -0.1507 C   0  0  0  0  0  0  0  0  0  0  0  0
    4.1715    1.0959   -0.4985 C   0  0  0  0  0  0  0  0  0  0  0  0
    3.9100    2.4457   -0.3076 C   0  0  0  0  0  0  0  0  0  0  0  0
    2.6849    2.8473    0.2176 C   0  0  0  0  0  0  0  0  0  0  0  0
    1.6910    1.9346    0.5686 C   0  0  0  0  0  0  0  0  0  0  0  0
    1.9663    0.5966    0.3793 C   0  0  0  0  0  0  0  0  0  0  0  0
    1.1525   -0.5029    0.6691 N   0  0  0  0  0  0  0  0  0  0  0  0
   -0.2006   -0.4195    1.1253 C   0  0  0  0  0  0  0  0  0  0  0  0
   -1.1582   -0.2102   -0.0333 C   0  0  0  0  0  0  0  0  0  0  0  0
   -0.8230   -0.2097   -1.1880 O   0  0  0  0  0  0  0  0  0  0  0  0
   -2.3892   -0.0510    0.4057 O   0  0  0  0  0  0  0  0  0  0  0  0
   -3.4468    0.0845   -0.5609 C   0  0  0  0  0  0  0  0  0  0  0  0
   -4.7472    0.2547    0.1925 C   0  0  0  0  0  0  0  0  0  0  0  0
   -5.9341    0.3318   -0.7619 C   0  0  0  0  0  0  0  0  0  0  0  0
   -7.2519    0.5273   -0.0259 C   0  0  0  0  0  0  0  0  0  0  0  0
    5.1149    0.7609   -0.9095 H   0  0  0  0  0  0  0  0  0  0  0  0
    4.6528    3.1869   -0.5674 H   0  0  0  0  0  0  0  0  0  0  0  0
    2.4905    3.9022    0.3592 H   0  0  0  0  0  0  0  0  0  0  0  0
    0.7502    2.2836    0.9714 H   0  0  0  0  0  0  0  0  0  0  0  0
   -0.4631   -1.3445    1.6421 H   0  0  0  0  0  0  0  0  0  0  0  0
   -0.3076    0.3806    1.8596 H   0  0  0  0  0  0  0  0  0  0  0  0
   -3.2516    0.9467   -1.2029 H   0  0  0  0  0  0  0  0  0  0  0  0
   -3.4750   -0.8077   -1.1914 H   0  0  0  0  0  0  0  0  0  0  0  0
   -4.8869   -0.5852    0.8790 H   0  0  0  0  0  0  0  0  0  0  0  0
   -4.7055    1.1625    0.8019 H   0  0  0  0  0  0  0  0  0  0  0  0
   -5.7849    1.1525   -1.4695 H   0  0  0  0  0  0  0  0  0  0  0  0
   -5.9787   -0.5826   -1.3606 H   0  0  0  0  0  0  0  0  0  0  0  0
   -8.0933    0.5619   -0.7181 H   0  0  0  0  0  0  0  0  0  0  0  0
   -7.4344   -0.2867    0.6782 H   0  0  0  0  0  0  0  0  0  0  0  0
   -7.2515    1.4597    0.5414 H   0  0  0  0  0  0  0  0  0  0  0  0
  8  7  2  0
  8  9  1  0
  7  6  1  0
  9 10  2  0
  6  5  2  0
 10  5  1  0
 10 11  1  0
  5  3  1  0
 11 12  1  0
 11  2  1  0
 15 13  1  0
 15 16  1  0
 12 13  1  0
  4  3  2  0
  3  2  1  0
 13 14  2  0
 16 17  1  0
  2  1  2  0
 17 18  1  0
 18 19  1  0
  6 20  1  0
  7 21  1  0
  8 22  1  0
  9 23  1  0
 12 24  1  0
 12 25  1  0
 16 26  1  0
 16 27  1  0
 17 28  1  0
 17 29  1  0
 18 30  1  0
 18 31  1  0
 19 32  1  0
 19 33  1  0
 19 34  1  0
M  END
