
     RDKit          3D

 93 97  0  0  0  0  0  0  0  0999 V2000
   12.1898    1.2741    0.9131 C   0  0  0  0  0  0  0  0  0  0  0  0
   10.7764    1.4980    0.7332 N   0  0  0  0  0  0  0  0  0  0  0  0
    9.8596    0.7851    1.4237 C   0  0  0  0  0  0  0  0  0  0  0  0
   10.1660   -0.0900    2.2137 O   0  0  0  0  0  0  0  0  0  0  0  0
    8.5572    1.1285    1.1074 N   0  0  0  0  0  0  0  0  0  0  0  0
    7.4022    0.7047    1.7585 C   0  0  0  0  0  0  0  0  0  0  0  0
    7.4232    0.3229    2.9724 N   0  0  0  0  0  0  0  0  0  0  0  0
    6.3026    0.8400    0.9490 N   0  0  0  0  0  0  0  0  0  0  0  0
    4.9973    0.4181    1.4049 C   0  0  0  0  0  0  0  0  0  0  0  0
    3.9364    0.7512    0.3685 C   0  0  0  0  0  0  0  0  0  0  0  0
    2.5704    0.2478    0.8168 C   0  0  0  0  0  0  0  0  0  0  0  0
    1.5071    0.3423   -0.2783 C   0  0  1  0  0  0  0  0  0  0  0  0
    0.2589   -0.4254    0.1752 C   0  0  0  0  0  0  0  0  0  0  0  0
   -0.5293    0.1190    0.9313 O   0  0  0  0  0  0  0  0  0  0  0  0
    0.1270   -1.7104   -0.2260 N   0  0  0  0  0  0  0  0  0  0  0  0
    0.9324   -2.3175   -1.2781 C   0  0  0  0  0  0  0  0  0  0  0  0
    2.3394   -2.6769   -0.8662 C   0  0  0  0  0  0  0  0  0  0  0  0
    2.5941   -3.3279    0.3395 C   0  0  0  0  0  0  0  0  0  0  0  0
    3.8937   -3.6321    0.7148 C   0  0  0  0  0  0  0  0  0  0  0  0
    4.9590   -3.2934   -0.1120 C   0  0  0  0  0  0  0  0  0  0  0  0
    4.7133   -2.6586   -1.3203 C   0  0  0  0  0  0  0  0  0  0  0  0
    3.4096   -2.3520   -1.6916 C   0  0  0  0  0  0  0  0  0  0  0  0
   -0.9498   -2.5248    0.3123 C   0  0  0  0  0  0  0  0  0  0  0  0
   -2.0610   -2.7772   -0.6752 C   0  0  0  0  0  0  0  0  0  0  0  0
   -2.5949   -1.7411   -1.4380 C   0  0  0  0  0  0  0  0  0  0  0  0
   -3.6475   -1.9774   -2.3093 C   0  0  0  0  0  0  0  0  0  0  0  0
   -4.1807   -3.2550   -2.4327 C   0  0  0  0  0  0  0  0  0  0  0  0
   -3.6474   -4.2955   -1.6857 C   0  0  0  0  0  0  0  0  0  0  0  0
   -2.5917   -4.0555   -0.8142 C   0  0  0  0  0  0  0  0  0  0  0  0
    1.1648    1.7245   -0.5106 N   0  0  0  0  0  0  0  0  0  0  0  0
    0.2936    2.0651   -1.4661 C   0  0  0  0  0  0  0  0  0  0  0  0
   -0.1797    1.2728   -2.2621 O   0  0  0  0  0  0  0  0  0  0  0  0
   -0.0593    3.5461   -1.4825 C   0  0  0  0  0  0  0  0  0  0  0  0
   -1.2130    3.8067   -2.2982 N   0  0  0  0  0  0  0  0  0  0  0  0
   -1.1241    4.6114   -3.3467 N   0  0  0  0  0  0  0  0  0  0  0  0
   -2.2915    4.6977   -3.8786 N   0  0  0  0  0  0  0  0  0  0  0  0
   -3.1541    3.9327   -3.1796 C   0  0  0  0  0  0  0  0  0  0  0  0
   -2.4676    3.3427   -2.1495 C   0  0  0  0  0  0  0  0  0  0  0  0
   -2.9013    2.3834   -1.1023 C   0  0  0  0  0  0  0  0  0  0  0  0
   -4.1612    2.8267   -0.6301 O   0  0  0  0  0  0  0  0  0  0  0  0
   -4.7693    1.8150    0.0423 N   0  0  0  0  0  0  0  0  0  0  0  0
   -5.8440    2.1829    0.6076 C   0  0  0  0  0  0  0  0  0  0  0  0
   -6.6912    1.2763    1.3820 C   0  0  0  0  0  0  0  0  0  0  0  0
   -6.5211   -0.1365    1.5236 C   0  0  0  0  0  0  0  0  0  0  0  0
   -5.5004   -0.8954    0.9047 C   0  0  0  0  0  0  0  0  0  0  0  0
   -5.4232   -2.2508    1.0866 C   0  0  0  0  0  0  0  0  0  0  0  0
   -6.3536   -2.9224    1.9004 C   0  0  0  0  0  0  0  0  0  0  0  0
   -7.3533   -2.2196    2.5136 C   0  0  0  0  0  0  0  0  0  0  0  0
   -7.4649   -0.8215    2.3390 C   0  0  0  0  0  0  0  0  0  0  0  0
   -8.4910   -0.2011    2.9715 N   0  0  0  0  0  0  0  0  0  0  0  0
   -8.6207    1.0860    2.8145 C   0  0  0  0  0  0  0  0  0  0  0  0
   -7.7516    1.8635    2.0297 C   0  0  0  0  0  0  0  0  0  0  0  0
   12.7247    1.9124    0.2156 H   0  0  0  0  0  0  0  0  0  0  0  0
   12.5261    1.5154    1.9232 H   0  0  0  0  0  0  0  0  0  0  0  0
   12.4608    0.2404    0.7004 H   0  0  0  0  0  0  0  0  0  0  0  0
   10.4932    2.3009    0.1976 H   0  0  0  0  0  0  0  0  0  0  0  0
    8.4187    1.7424    0.3191 H   0  0  0  0  0  0  0  0  0  0  0  0
    6.5113   -0.0034    3.2690 H   0  0  0  0  0  0  0  0  0  0  0  0
    6.4686    0.7136   -0.0388 H   0  0  0  0  0  0  0  0  0  0  0  0
    4.9700   -0.6602    1.6117 H   0  0  0  0  0  0  0  0  0  0  0  0
    4.7634    0.9281    2.3436 H   0  0  0  0  0  0  0  0  0  0  0  0
    3.9229    1.8289    0.1894 H   0  0  0  0  0  0  0  0  0  0  0  0
    4.1980    0.2718   -0.5797 H   0  0  0  0  0  0  0  0  0  0  0  0
    2.6638   -0.7975    1.1138 H   0  0  0  0  0  0  0  0  0  0  0  0
    2.2278    0.7896    1.7037 H   0  0  0  0  0  0  0  0  0  0  0  0
    1.9232   -0.0674   -1.1994 H   0  0  0  0  0  0  0  0  0  0  0  0
    0.4049   -3.2214   -1.5895 H   0  0  0  0  0  0  0  0  0  0  0  0
    0.9484   -1.6767   -2.1621 H   0  0  0  0  0  0  0  0  0  0  0  0
    1.7777   -3.5878    1.0028 H   0  0  0  0  0  0  0  0  0  0  0  0
    4.0776   -4.1326    1.6568 H   0  0  0  0  0  0  0  0  0  0  0  0
    5.9733   -3.5238    0.1866 H   0  0  0  0  0  0  0  0  0  0  0  0
    5.5353   -2.3908   -1.9717 H   0  0  0  0  0  0  0  0  0  0  0  0
    3.2259   -1.8410   -2.6300 H   0  0  0  0  0  0  0  0  0  0  0  0
   -0.5364   -3.4805    0.6428 H   0  0  0  0  0  0  0  0  0  0  0  0
   -1.3444   -2.0299    1.1983 H   0  0  0  0  0  0  0  0  0  0  0  0
   -2.1784   -0.7445   -1.3583 H   0  0  0  0  0  0  0  0  0  0  0  0
   -4.0560   -1.1623   -2.8933 H   0  0  0  0  0  0  0  0  0  0  0  0
   -5.0043   -3.4356   -3.1111 H   0  0  0  0  0  0  0  0  0  0  0  0
   -4.0486   -5.2960   -1.7819 H   0  0  0  0  0  0  0  0  0  0  0  0
   -2.1757   -4.8724   -0.2357 H   0  0  0  0  0  0  0  0  0  0  0  0
    1.4060    2.4030    0.1959 H   0  0  0  0  0  0  0  0  0  0  0  0
   -0.2293    3.9167   -0.4699 H   0  0  0  0  0  0  0  0  0  0  0  0
    0.7713    4.1164   -1.8998 H   0  0  0  0  0  0  0  0  0  0  0  0
   -4.1956    3.8464   -3.4421 H   0  0  0  0  0  0  0  0  0  0  0  0
   -2.9970    1.3828   -1.5319 H   0  0  0  0  0  0  0  0  0  0  0  0
   -2.1816    2.3186   -0.2800 H   0  0  0  0  0  0  0  0  0  0  0  0
   -6.1853    3.2163    0.5481 H   0  0  0  0  0  0  0  0  0  0  0  0
   -4.7702   -0.4045    0.2819 H   0  0  0  0  0  0  0  0  0  0  0  0
   -4.6380   -2.8071    0.5913 H   0  0  0  0  0  0  0  0  0  0  0  0
   -6.2772   -3.9931    2.0377 H   0  0  0  0  0  0  0  0  0  0  0  0
   -8.0844   -2.7135    3.1408 H   0  0  0  0  0  0  0  0  0  0  0  0
   -9.4489    1.5662    3.3240 H   0  0  0  0  0  0  0  0  0  0  0  0
   -7.9278    2.9282    1.9480 H   0  0  0  0  0  0  0  0  0  0  0  0
 21 20  2  0
 21 22  1  0
 20 19  1  0
 22 17  2  0
 19 18  2  0
 17 18  1  0
 17 16  1  0
 23 24  1  0
 23 15  1  0
 25 24  2  0
 25 26  1  0
 24 29  1  0
 16 15  1  0
 26 27  2  0
 29 28  2  0
 27 28  1  0
 15 13  1  0
  1  2  1  0
  4  3  2  0
 13 14  2  0
 13 12  1  0
  2  3  1  0
  3  5  1  0
 12 30  1  0
 12 11  1  0
 30 31  1  0
  7  6  2  0
 33 31  1  0
 33 34  1  0
 31 32  2  0
  5  6  1  0
  6  8  1  0
 35 34  1  0
 35 36  2  0
 10 11  1  0
 10  9  1  0
 34 38  1  0
  8  9  1  0
 36 37  1  0
 38 37  2  0
 38 39  1  0
 39 40  1  0
 40 41  1  0
 41 42  2  0
 42 43  1  0
 52 43  2  0
 52 51  1  0
 43 44  1  0
 51 50  2  0
 44 45  2  0
 44 49  1  0
 50 49  1  0
 45 46  1  0
 49 48  2  0
 46 47  2  0
 48 47  1  0
  1 53  1  0
  1 54  1  0
  1 55  1  0
  2 56  1  0
  5 57  1  0
  7 58  1  0
  8 59  1  0
  9 60  1  0
  9 61  1  0
 10 62  1  0
 10 63  1  0
 11 64  1  0
 11 65  1  0
 12 66  1  6
 16 67  1  0
 16 68  1  0
 18 69  1  0
 19 70  1  0
 20 71  1  0
 21 72  1  0
 22 73  1  0
 23 74  1  0
 23 75  1  0
 25 76  1  0
 26 77  1  0
 27 78  1  0
 28 79  1  0
 29 80  1  0
 30 81  1  0
 33 82  1  0
 33 83  1  0
 37 84  1  0
 39 85  1  0
 39 86  1  0
 42 87  1  0
 45 88  1  0
 46 89  1  0
 47 90  1  0
 48 91  1  0
 51 92  1  0
 52 93  1  0
M  END
