
     RDKit          3D

 48 50  0  0  0  0  0  0  0  0999 V2000
   -1.3211    1.3200    0.6579 N   0  0  0  0  0  0  0  0  0  0  0  0
   -1.2244   -0.0098    0.6244 C   0  0  0  0  0  0  0  0  0  0  0  0
   -0.0282   -0.6259    0.9792 C   0  0  0  0  0  0  0  0  0  0  0  0
    1.0450    0.1714    1.3564 C   0  0  0  0  0  0  0  0  0  0  0  0
    0.9298    1.4997    1.3809 N   0  0  0  0  0  0  0  0  0  0  0  0
   -0.2467    1.9800    1.0320 C   0  0  0  0  0  0  0  0  0  0  0  0
   -2.4288   -0.7553    0.2093 C   0  0  0  0  0  0  0  0  0  0  0  0
    2.3757   -0.4068    1.7112 C   0  0  0  0  0  0  0  0  0  0  0  0
    3.3657   -0.2611    0.5520 C   0  0  0  0  0  0  0  0  0  0  0  0
    4.7453   -0.7715    0.9473 C   0  0  0  0  0  0  0  0  0  0  0  0
    5.7045   -0.7502   -0.1400 N   0  0  0  0  0  0  0  0  0  0  0  0
   -3.6304   -0.0683    0.0299 C   0  0  0  0  0  0  0  0  0  0  0  0
   -4.7728   -0.7488   -0.3541 C   0  0  0  0  0  0  0  0  0  0  0  0
   -4.7349   -2.1230   -0.5730 C   0  0  0  0  0  0  0  0  0  0  0  0
   -3.5439   -2.8067   -0.4001 C   0  0  0  0  0  0  0  0  0  0  0  0
   -2.3982   -2.1305   -0.0111 C   0  0  0  0  0  0  0  0  0  0  0  0
   -6.0616   -0.0191   -0.5773 C   0  0  1  0  0  0  0  0  0  0  0  0
   -6.3539    0.0680   -1.8834 F   0  0  0  0  0  0  0  0  0  0  0  0
   -7.0929   -0.6455    0.0031 F   0  0  0  0  0  0  0  0  0  0  0  0
   -6.0390    1.2274   -0.0995 F   0  0  0  0  0  0  0  0  0  0  0  0
    6.8686   -1.5619    0.1808 C   0  0  0  0  0  0  0  0  0  0  0  0
    7.8366   -1.6431   -0.9889 C   0  0  0  0  0  0  0  0  0  0  0  0
    8.2695   -0.2516   -1.4291 C   0  0  0  0  0  0  0  0  0  0  0  0
    7.0405    0.6046   -1.7009 C   0  0  0  0  0  0  0  0  0  0  0  0
    6.0970    0.6012   -0.5069 C   0  0  0  0  0  0  0  0  0  0  0  0
   -0.3756    3.4212    1.0682 C   0  0  0  0  0  0  0  0  0  0  0  0
   -0.4737    4.5662    1.0980 N   0  0  0  0  0  0  0  0  0  0  0  0
    0.0864   -1.6995    0.9778 H   0  0  0  0  0  0  0  0  0  0  0  0
    2.7615    0.1166    2.5896 H   0  0  0  0  0  0  0  0  0  0  0  0
    2.2637   -1.4591    1.9785 H   0  0  0  0  0  0  0  0  0  0  0  0
    3.0089   -0.8216   -0.3160 H   0  0  0  0  0  0  0  0  0  0  0  0
    3.4088    0.7898    0.2585 H   0  0  0  0  0  0  0  0  0  0  0  0
    5.1061   -0.2019    1.8227 H   0  0  0  0  0  0  0  0  0  0  0  0
    4.6430   -1.8085    1.2805 H   0  0  0  0  0  0  0  0  0  0  0  0
   -3.6527    0.9989    0.1998 H   0  0  0  0  0  0  0  0  0  0  0  0
   -5.6217   -2.6649   -0.8749 H   0  0  0  0  0  0  0  0  0  0  0  0
   -3.5055   -3.8738   -0.5688 H   0  0  0  0  0  0  0  0  0  0  0  0
   -1.4844   -2.6962    0.1092 H   0  0  0  0  0  0  0  0  0  0  0  0
    7.4017   -1.1658    1.0646 H   0  0  0  0  0  0  0  0  0  0  0  0
    6.5262   -2.5649    0.4472 H   0  0  0  0  0  0  0  0  0  0  0  0
    8.6991   -2.2484   -0.7001 H   0  0  0  0  0  0  0  0  0  0  0  0
    7.3493   -2.1581   -1.8225 H   0  0  0  0  0  0  0  0  0  0  0  0
    8.8682    0.2118   -0.6374 H   0  0  0  0  0  0  0  0  0  0  0  0
    8.9076   -0.3042   -2.3141 H   0  0  0  0  0  0  0  0  0  0  0  0
    7.3251    1.6341   -1.9292 H   0  0  0  0  0  0  0  0  0  0  0  0
    6.5100    0.2188   -2.5768 H   0  0  0  0  0  0  0  0  0  0  0  0
    5.2079    1.1830   -0.7572 H   0  0  0  0  0  0  0  0  0  0  0  0
    6.5826    1.1164    0.3427 H   0  0  0  0  0  0  0  0  0  0  0  0
  1  2  2  0
  1  6  1  0
  2  3  1  0
  2  7  1  0
  3  4  2  0
  4  5  1  0
  4  8  1  0
  5  6  2  0
  6 26  1  0
  7 12  2  0
  7 16  1  0
  8  9  1  0
  9 10  1  0
 10 11  1  0
 11 21  1  0
 11 25  1  0
 12 13  1  0
 13 14  2  0
 13 17  1  0
 14 15  1  0
 15 16  2  0
 17 18  1  6
 17 19  1  0
 17 20  1  0
 21 22  1  0
 22 23  1  0
 23 24  1  0
 24 25  1  0
 26 27  3  0
  3 28  1  0
  8 29  1  0
  8 30  1  0
  9 31  1  0
  9 32  1  0
 10 33  1  0
 10 34  1  0
 12 35  1  0
 14 36  1  0
 15 37  1  0
 16 38  1  0
 21 39  1  0
 21 40  1  0
 22 41  1  0
 22 42  1  0
 23 43  1  0
 23 44  1  0
 24 45  1  0
 24 46  1  0
 25 47  1  0
 25 48  1  0
M  END
