
     RDKit          3D

 49 52  0  0  0  0  0  0  0  0999 V2000
    4.0155    5.9702   -0.4182 C   0  0  0  0  0  0  0  0  0  0  0  0
    4.0357    4.5349   -0.0317 C   0  0  0  0  0  0  0  0  0  0  0  0
    3.8004    3.9731    1.2520 C   0  0  0  0  0  0  0  0  0  0  0  0
    3.9365    2.6425    1.0544 C   0  0  0  0  0  0  0  0  0  0  0  0
    3.8150    1.4699    1.9710 C   0  0  0  0  0  0  0  0  0  0  0  0
    2.8489    0.5028    1.5292 N   0  0  0  0  0  0  0  0  0  0  0  0
    3.1390   -0.5650    0.7499 C   0  0  0  0  0  0  0  0  0  0  0  0
    4.4154   -0.8255    0.4846 N   0  0  0  0  0  0  0  0  0  0  0  0
    4.6328   -1.9164   -0.2508 C   0  0  0  0  0  0  0  0  0  0  0  0
    3.6383   -2.7323   -0.7251 C   0  0  0  0  0  0  0  0  0  0  0  0
    2.3225   -2.3523   -0.3886 C   0  0  0  0  0  0  0  0  0  0  0  0
    1.2838   -3.1059   -0.8209 N   0  0  0  0  0  0  0  0  0  0  0  0
   -0.0711   -2.9184   -0.6019 C   0  0  0  0  0  0  0  0  0  0  0  0
   -0.7733   -1.8624    0.0140 C   0  0  0  0  0  0  0  0  0  0  0  0
   -2.0984   -2.2337   -0.0834 C   0  0  0  0  0  0  0  0  0  0  0  0
   -3.3364   -1.5201    0.3344 C   0  0  0  0  0  0  0  0  0  0  0  0
   -4.0900   -0.9077   -0.8589 C   0  0  0  0  0  0  0  0  0  0  0  0
   -5.2976   -0.1350   -0.4099 C   0  0  0  0  0  0  0  0  0  0  0  0
   -6.4886   -0.7919   -0.1054 C   0  0  0  0  0  0  0  0  0  0  0  0
   -7.5939   -0.0874    0.3515 C   0  0  0  0  0  0  0  0  0  0  0  0
   -7.5253    1.2912    0.5107 C   0  0  0  0  0  0  0  0  0  0  0  0
   -6.3448    1.9569    0.2088 C   0  0  0  0  0  0  0  0  0  0  0  0
   -5.2409    1.2469   -0.2462 C   0  0  0  0  0  0  0  0  0  0  0  0
   -2.1093   -3.4169   -0.7161 N   0  0  0  0  0  0  0  0  0  0  0  0
   -0.8911   -3.8570   -1.0393 N   0  0  0  0  0  0  0  0  0  0  0  0
    2.0826   -1.2756    0.3414 N   0  0  0  0  0  0  0  0  0  0  0  0
    4.2266    2.4141   -0.2282 O   0  0  0  0  0  0  0  0  0  0  0  0
    4.2836    3.6005   -0.9038 N   0  0  0  0  0  0  0  0  0  0  0  0
    3.0471    6.4143   -0.1883 H   0  0  0  0  0  0  0  0  0  0  0  0
    4.7698    6.5264    0.1384 H   0  0  0  0  0  0  0  0  0  0  0  0
    4.2095    6.0951   -1.4815 H   0  0  0  0  0  0  0  0  0  0  0  0
    3.5595    4.4857    2.1682 H   0  0  0  0  0  0  0  0  0  0  0  0
    4.7829    0.9805    2.0802 H   0  0  0  0  0  0  0  0  0  0  0  0
    3.5277    1.8418    2.9542 H   0  0  0  0  0  0  0  0  0  0  0  0
    1.8735    0.7287    1.6361 H   0  0  0  0  0  0  0  0  0  0  0  0
    5.6699   -2.1446   -0.4722 H   0  0  0  0  0  0  0  0  0  0  0  0
    3.8529   -3.6088   -1.3196 H   0  0  0  0  0  0  0  0  0  0  0  0
    1.5152   -3.9322   -1.3510 H   0  0  0  0  0  0  0  0  0  0  0  0
   -0.3787   -0.9685    0.4591 H   0  0  0  0  0  0  0  0  0  0  0  0
   -4.0016   -2.1990    0.8750 H   0  0  0  0  0  0  0  0  0  0  0  0
   -3.0624   -0.7294    1.0336 H   0  0  0  0  0  0  0  0  0  0  0  0
   -3.4099   -0.2560   -1.4114 H   0  0  0  0  0  0  0  0  0  0  0  0
   -4.3885   -1.7050   -1.5437 H   0  0  0  0  0  0  0  0  0  0  0  0
   -6.5536   -1.8669   -0.2307 H   0  0  0  0  0  0  0  0  0  0  0  0
   -8.5108   -0.6147    0.5823 H   0  0  0  0  0  0  0  0  0  0  0  0
   -8.3873    1.8417    0.8648 H   0  0  0  0  0  0  0  0  0  0  0  0
   -6.2821    3.0314    0.3252 H   0  0  0  0  0  0  0  0  0  0  0  0
   -4.3246    1.7754   -0.4833 H   0  0  0  0  0  0  0  0  0  0  0  0
   -2.9120   -3.9823   -0.9413 H   0  0  0  0  0  0  0  0  0  0  0  0
  9 10  1  0
  9  8  2  0
 10 11  2  0
  8  7  1  0
 11 12  1  0
 11 26  1  0
 12 13  1  0
  7 26  2  0
  7  6  1  0
  6  5  1  0
 13 25  2  0
 13 14  1  0
 25 24  1  0
  5  4  1  0
 14 15  2  0
 24 15  1  0
 15 16  1  0
  4  3  2  0
  4 27  1  0
  3  2  1  0
 17 16  1  0
 17 18  1  0
 27 28  1  0
  2 28  2  0
  2  1  1  0
 19 18  2  0
 19 20  1  0
 18 23  1  0
 20 21  2  0
 23 22  2  0
 21 22  1  0
  1 29  1  0
  1 30  1  0
  1 31  1  0
  3 32  1  0
  5 33  1  0
  5 34  1  0
  6 35  1  0
  9 36  1  0
 10 37  1  0
 12 38  1  0
 14 39  1  0
 16 40  1  0
 16 41  1  0
 17 42  1  0
 17 43  1  0
 19 44  1  0
 20 45  1  0
 21 46  1  0
 22 47  1  0
 23 48  1  0
 24 49  1  0
M  END
