
     RDKit          3D

 45 49  0  0  0  0  0  0  0  0999 V2000
    6.7272    0.6121   -1.1950 C   0  0  0  0  0  0  0  0  0  0  0  0
   -4.5652    1.9424    1.3910 F   0  0  0  0  0  0  0  0  0  0  0  0
    3.6627   -1.1111   -1.1578 O   0  0  0  0  0  0  0  0  0  0  0  0
    7.1298    1.5276   -0.2762 C   0  0  0  0  0  0  0  0  0  0  0  0
    4.8506   -0.8754   -1.7557 N   0  0  0  0  0  0  0  0  0  0  0  0
    1.3268   -1.2978    0.2826 N   0  0  0  0  0  0  0  0  0  0  0  0
    2.2032    0.1598    1.7861 O   0  0  0  0  0  0  0  0  0  0  0  0
    6.3155    1.8986    0.8438 C   0  0  0  0  0  0  0  0  0  0  0  0
   -2.9054    0.3252   -0.0808 N   0  0  0  0  0  0  0  0  0  0  0  0
    5.0889    1.3520    1.0541 C   0  0  0  0  0  0  0  0  0  0  0  0
   -2.0795    1.3813   -0.0621 N   0  0  0  0  0  0  0  0  0  0  0  0
    4.6349    0.3892    0.1147 C   0  0  0  0  0  0  0  0  0  0  0  0
    5.4463    0.0244   -1.0019 C   0  0  0  0  0  0  0  0  0  0  0  0
    3.5143   -0.3800   -0.0586 C   0  0  0  0  0  0  0  0  0  0  0  0
    2.2811   -0.4846    0.7503 C   0  0  0  0  0  0  0  0  0  0  0  0
    0.0559   -1.4874    0.9591 C   0  0  2  0  0  0  0  0  0  0  0  0
   -0.4656   -2.9025    0.6987 C   0  0  0  0  0  0  0  0  0  0  0  0
   -1.9082   -3.0654    1.1712 C   0  0  0  0  0  0  0  0  0  0  0  0
   -2.8744   -2.1826    0.3773 C   0  0  0  0  0  0  0  0  0  0  0  0
   -2.2796   -0.8245    0.2659 C   0  0  0  0  0  0  0  0  0  0  0  0
   -0.9731   -0.4900    0.5222 C   0  0  0  0  0  0  0  0  0  0  0  0
   -0.9110    0.8999    0.3037 C   0  0  0  0  0  0  0  0  0  0  0  0
   -4.2607    0.4872   -0.4259 C   0  0  0  0  0  0  0  0  0  0  0  0
   -4.8051   -0.1835   -1.5132 C   0  0  0  0  0  0  0  0  0  0  0  0
   -6.1461   -0.0283   -1.8304 C   0  0  0  0  0  0  0  0  0  0  0  0
   -6.9442    0.8150   -1.0694 C   0  0  0  0  0  0  0  0  0  0  0  0
   -6.4116    1.4960    0.0167 C   0  0  0  0  0  0  0  0  0  0  0  0
   -5.0799    1.3156    0.3300 C   0  0  0  0  0  0  0  0  0  0  0  0
    1.4305   -1.7217   -0.6276 H   0  0  0  0  0  0  0  0  0  0  0  0
    7.3447    0.3335   -2.0376 H   0  0  0  0  0  0  0  0  0  0  0  0
    8.0978    1.9986   -0.3838 H   0  0  0  0  0  0  0  0  0  0  0  0
    6.6999    2.6368    1.5345 H   0  0  0  0  0  0  0  0  0  0  0  0
    4.4797    1.6378    1.8987 H   0  0  0  0  0  0  0  0  0  0  0  0
    0.2448   -1.3749    2.0296 H   0  0  0  0  0  0  0  0  0  0  0  0
   -0.4113   -3.1174   -0.3742 H   0  0  0  0  0  0  0  0  0  0  0  0
    0.1806   -3.6228    1.2026 H   0  0  0  0  0  0  0  0  0  0  0  0
   -2.2091   -4.1093    1.0768 H   0  0  0  0  0  0  0  0  0  0  0  0
   -1.9758   -2.8143    2.2334 H   0  0  0  0  0  0  0  0  0  0  0  0
   -3.0378   -2.6087   -0.6174 H   0  0  0  0  0  0  0  0  0  0  0  0
   -3.8523   -2.1471    0.8631 H   0  0  0  0  0  0  0  0  0  0  0  0
   -0.0619    1.5606    0.3938 H   0  0  0  0  0  0  0  0  0  0  0  0
   -4.1691   -0.8203   -2.1141 H   0  0  0  0  0  0  0  0  0  0  0  0
   -7.0236    2.1525    0.6208 H   0  0  0  0  0  0  0  0  0  0  0  0
   -6.5620   -0.5549   -2.6781 H   0  0  0  0  0  0  0  0  0  0  0  0
   -7.9882    0.9474   -1.3184 H   0  0  0  0  0  0  0  0  0  0  0  0
  7 15  2  0
 15 14  1  0
 15  6  1  0
 14  3  1  0
 14 12  2  0
  3  5  1  0
  5 13  2  0
 13  1  1  0
 13 12  1  0
  1  4  2  0
  4  8  1  0
  8 10  2  0
 10 12  1  0
  6 16  1  0
 16 17  1  0
 16 21  1  0
 17 18  1  0
 18 19  1  0
 19 20  1  0
 21 20  2  0
 21 22  1  0
 20  9  1  0
 22 11  2  0
 11  9  1  0
  9 23  1  0
 23 28  1  0
 23 24  2  0
 28  2  1  0
 28 27  2  0
 24 25  1  0
 25 26  2  0
 26 27  1  0
  6 29  1  0
  1 30  1  0
  4 31  1  0
  8 32  1  0
 10 33  1  0
 16 34  1  1
 17 35  1  0
 17 36  1  0
 18 37  1  0
 18 38  1  0
 19 39  1  0
 19 40  1  0
 22 41  1  0
 24 42  1  0
 27 43  1  0
 25 44  1  0
 26 45  1  0
M  END
