
     RDKit          3D

  4  3  0  0  0  0  0  0  0  0999 V2000
    0.0386   -0.0420   -0.6397 O   0  0  0  0  0  0  0  0  0  0  0  0
    0.1333    0.2201    0.5299 C   0  0  0  0  0  0  0  0  0  0  0  0
    0.9907   -0.1059    1.1378 H   0  0  0  0  0  0  0  0  0  0  0  0
   -0.6312    0.8027    1.0660 H   0  0  0  0  0  0  0  0  0  0  0  0
  1  2  1  0
  2  3  1  0
  2  4  1  0
M  CHG  1   1  -1
M  END
