
     RDKit          3D

 69 73  0  0  0  0  0  0  0  0999 V2000
   -3.7914    1.7343   -1.9327 C   0  0  0  0  0  0  0  0  0  0  0  0
   -6.4178    2.7738    0.4237 C   0  0  0  0  0  0  0  0  0  0  0  0
   -3.5353   -0.4871   -0.3050 C   0  0  0  0  0  0  0  0  0  0  0  0
   -4.5157    0.4602   -0.0293 C   0  0  0  0  0  0  0  0  0  0  0  0
   -8.0667    4.2245    1.2636 C   0  0  0  0  0  0  0  0  0  0  0  0
   -1.0507   -3.9710    2.0440 C   0  0  0  0  0  0  0  0  0  0  0  0
   -2.0384   -3.5085    3.0675 C   0  0  0  0  0  0  0  0  0  0  0  0
   -2.6506   -0.3286   -1.3741 C   0  0  0  0  0  0  0  0  0  0  0  0
   -2.8196    0.7890   -2.1907 C   0  0  0  0  0  0  0  0  0  0  0  0
    6.2943    1.1691    1.5715 C   0  0  0  0  0  0  0  0  0  0  0  0
    5.3110    1.0882    0.5906 C   0  0  0  0  0  0  0  0  0  0  0  0
    1.3945   -3.0164   -0.4973 C   0  0  2  0  0  0  0  0  0  0  0  0
    1.0665   -3.8775    0.7388 C   0  0  0  0  0  0  0  0  0  0  0  0
    0.0910   -3.3595    1.7508 C   0  0  0  0  0  0  0  0  0  0  0  0
    2.3955   -1.9768   -0.2496 N   0  0  0  0  0  0  0  0  0  0  0  0
    0.1938   -2.4227   -1.1631 C   0  0  0  0  0  0  0  0  0  0  0  0
   -0.0582   -2.5815   -2.4829 N   0  0  0  0  0  0  0  0  0  0  0  0
   -1.1674   -1.8539   -2.7913 C   0  0  0  0  0  0  0  0  0  0  0  0
   -1.5508   -1.2667   -1.6139 C   0  0  0  0  0  0  0  0  0  0  0  0
   -0.6943   -1.6362   -0.6130 N   0  0  0  0  0  0  0  0  0  0  0  0
   -4.6397    1.5907   -0.8324 C   0  0  0  0  0  0  0  0  0  0  0  0
   -5.5882    2.5939   -0.6368 N   0  0  0  0  0  0  0  0  0  0  0  0
   -6.5099    2.0531    1.3911 O   0  0  0  0  0  0  0  0  0  0  0  0
   -7.1337    3.8820    0.2423 O   0  0  0  0  0  0  0  0  0  0  0  0
   -3.4993   -1.6633    0.4696 N   0  0  0  0  0  0  0  0  0  0  0  0
   -3.3639   -3.0728    2.4334 C   0  0  0  0  0  0  0  0  0  0  0  0
   -3.2849   -1.6986    1.8051 C   0  0  0  0  0  0  0  0  0  0  0  0
   -3.0851   -0.6972    2.4715 O   0  0  0  0  0  0  0  0  0  0  0  0
    4.4792   -0.8026   -0.8515 C   0  0  0  0  0  0  0  0  0  0  0  0
    3.4430   -1.8797   -1.0974 C   0  0  0  0  0  0  0  0  0  0  0  0
    4.4128   -0.1189    0.5078 C   0  0  2  0  0  0  0  0  0  0  0  0
    2.9522    0.2059    0.7884 C   0  0  0  0  0  0  0  0  0  0  0  0
    2.1586   -1.0793    0.8751 C   0  0  0  0  0  0  0  0  0  0  0  0
    7.1132    2.2860    1.6677 C   0  0  0  0  0  0  0  0  0  0  0  0
    6.9669    3.3462    0.7865 C   0  0  0  0  0  0  0  0  0  0  0  0
    5.9855    3.2598   -0.1894 C   0  0  0  0  0  0  0  0  0  0  0  0
    5.1623    2.1518   -0.2978 C   0  0  0  0  0  0  0  0  0  0  0  0
    3.5750   -2.6175   -2.0687 O   0  0  0  0  0  0  0  0  0  0  0  0
   -3.8828    2.5989   -2.5790 H   0  0  0  0  0  0  0  0  0  0  0  0
   -5.1933    0.2907    0.7913 H   0  0  0  0  0  0  0  0  0  0  0  0
   -8.5320    5.1506    0.9390 H   0  0  0  0  0  0  0  0  0  0  0  0
   -8.8337    3.4590    1.3794 H   0  0  0  0  0  0  0  0  0  0  0  0
   -7.5729    4.3876    2.2211 H   0  0  0  0  0  0  0  0  0  0  0  0
   -1.3224   -4.8729    1.4978 H   0  0  0  0  0  0  0  0  0  0  0  0
   -2.2502   -4.3255    3.7625 H   0  0  0  0  0  0  0  0  0  0  0  0
   -1.6253   -2.6914    3.6629 H   0  0  0  0  0  0  0  0  0  0  0  0
   -2.1498    0.9354   -3.0285 H   0  0  0  0  0  0  0  0  0  0  0  0
    6.4219    0.3506    2.2691 H   0  0  0  0  0  0  0  0  0  0  0  0
    1.8566   -3.7001   -1.2075 H   0  0  0  0  0  0  0  0  0  0  0  0
    0.6864   -4.8270    0.3542 H   0  0  0  0  0  0  0  0  0  0  0  0
    2.0202   -4.1114    1.2235 H   0  0  0  0  0  0  0  0  0  0  0  0
    0.3496   -2.4575    2.2950 H   0  0  0  0  0  0  0  0  0  0  0  0
    0.4763   -3.1421   -3.1281 H   0  0  0  0  0  0  0  0  0  0  0  0
   -1.5866   -1.8271   -3.7829 H   0  0  0  0  0  0  0  0  0  0  0  0
   -5.6200    3.3064   -1.3510 H   0  0  0  0  0  0  0  0  0  0  0  0
   -3.4511   -2.5367   -0.0313 H   0  0  0  0  0  0  0  0  0  0  0  0
   -3.6984   -3.8231    1.7133 H   0  0  0  0  0  0  0  0  0  0  0  0
   -4.1338   -3.0163    3.2069 H   0  0  0  0  0  0  0  0  0  0  0  0
    5.4589   -1.2551   -1.0163 H   0  0  0  0  0  0  0  0  0  0  0  0
    4.3468   -0.0679   -1.6522 H   0  0  0  0  0  0  0  0  0  0  0  0
    4.7494   -0.8301    1.2697 H   0  0  0  0  0  0  0  0  0  0  0  0
    2.8411    0.7408    1.7327 H   0  0  0  0  0  0  0  0  0  0  0  0
    2.5465    0.8501    0.0028 H   0  0  0  0  0  0  0  0  0  0  0  0
    1.0934   -0.8502    0.9017 H   0  0  0  0  0  0  0  0  0  0  0  0
    2.4095   -1.5923    1.8087 H   0  0  0  0  0  0  0  0  0  0  0  0
    7.8740    2.3338    2.4354 H   0  0  0  0  0  0  0  0  0  0  0  0
    7.6016    4.2190    0.8572 H   0  0  0  0  0  0  0  0  0  0  0  0
    4.4069    2.1224   -1.0732 H   0  0  0  0  0  0  0  0  0  0  0  0
    5.7805    4.5749   -1.3039 Cl  0  0  0  0  0  0  0  0  0  0  0  0
 32 33  1  0
 32 31  1  0
 33 15  1  0
 17 18  1  0
 17 16  1  0
 13 14  1  0
 13 12  1  0
 10 34  2  0
 10 11  1  0
 34 35  1  0
 14  6  2  0
 18 19  2  0
 11 31  1  0
 11 37  2  0
 31 29  1  0
 35 36  2  0
 15 12  1  0
 15 30  1  0
 12 16  1  0
 16 20  2  0
 28 27  2  0
 37 36  1  0
  6  7  1  0
 36 69  1  0
  7 26  1  0
 19 20  1  0
 19  8  1  0
 29 30  1  0
 30 38  2  0
 27 26  1  0
 27 25  1  0
  8  9  1  0
  8  3  2  0
  9  1  2  0
 25  3  1  0
  1 21  1  0
  3  4  1  0
  4 21  2  0
 21 22  1  0
 23  2  2  0
 22  2  1  0
  2 24  1  0
 24  5  1  0
  1 39  1  0
  4 40  1  0
  5 41  1  0
  5 42  1  0
  5 43  1  0
  6 44  1  0
  7 45  1  0
  7 46  1  0
  9 47  1  0
 10 48  1  0
 12 49  1  6
 13 50  1  0
 13 51  1  0
 14 52  1  0
 17 53  1  0
 18 54  1  0
 22 55  1  0
 25 56  1  0
 26 57  1  0
 26 58  1  0
 29 59  1  0
 29 60  1  0
 31 61  1  1
 32 62  1  0
 32 63  1  0
 33 64  1  0
 33 65  1  0
 34 66  1  0
 35 67  1  0
 37 68  1  0
M  END
