
     RDKit          3D

 28 29  0  0  0  0  0  0  0  0999 V2000
   -3.2707   -0.7757   -0.4771 C   0  0  0  0  0  0  0  0  0  0  0  0
   -2.4070    0.4347   -0.2387 C   0  0  0  0  0  0  0  0  0  0  0  0
   -2.7865    1.7662   -0.3509 C   0  0  0  0  0  0  0  0  0  0  0  0
   -1.1202    0.0530    0.1272 C   0  0  0  0  0  0  0  0  0  0  0  0
   -1.8408    2.7475   -0.0820 C   0  0  0  0  0  0  0  0  0  0  0  0
   -0.5493    2.3872    0.2913 C   0  0  0  0  0  0  0  0  0  0  0  0
   -0.1767    1.0467    0.3998 C   0  0  0  0  0  0  0  0  0  0  0  0
   -1.0658   -1.5680    0.1295 B   0  0  1  0  0  0  0  0  0  0  0  0
   -0.7219   -2.0824    1.4590 O   0  0  0  0  0  0  0  0  0  0  0  0
   -2.4958   -1.9014   -0.2044 O   0  0  0  0  0  0  0  0  0  0  0  0
    1.2406    0.6959    0.7719 C   0  0  0  0  0  0  0  0  0  0  0  0
    2.0832    0.4376   -0.4727 C   0  0  0  0  0  0  0  0  0  0  0  0
    3.5217    0.1259   -0.1759 C   0  0  0  0  0  0  0  0  0  0  0  0
    4.2254   -0.0726   -1.2890 O   0  0  0  0  0  0  0  0  0  0  0  0
    4.0105    0.0517    0.9249 O   0  0  0  0  0  0  0  0  0  0  0  0
   -4.1697   -0.7400    0.1593 H   0  0  0  0  0  0  0  0  0  0  0  0
   -3.6480   -0.7759   -1.5135 H   0  0  0  0  0  0  0  0  0  0  0  0
   -3.7950    2.0423   -0.6400 H   0  0  0  0  0  0  0  0  0  0  0  0
   -2.1070    3.7949   -0.1579 H   0  0  0  0  0  0  0  0  0  0  0  0
    0.1782    3.1646    0.5026 H   0  0  0  0  0  0  0  0  0  0  0  0
   -0.2494   -3.0051   -1.0419 H   0  0  0  0  0  0  0  0  0  0  0  0
   -0.7856   -3.0418    1.4860 H   0  0  0  0  0  0  0  0  0  0  0  0
    1.6854    1.5068    1.3538 H   0  0  0  0  0  0  0  0  0  0  0  0
    1.2442   -0.1933    1.4031 H   0  0  0  0  0  0  0  0  0  0  0  0
    1.6577   -0.4000   -1.0319 H   0  0  0  0  0  0  0  0  0  0  0  0
    2.0491    1.2995   -1.1465 H   0  0  0  0  0  0  0  0  0  0  0  0
    5.1446   -0.2799   -1.0640 H   0  0  0  0  0  0  0  0  0  0  0  0
   -0.1691   -2.0530   -0.9302 O   0  0  0  0  0  0  0  0  0  0  0  0
 15 13  2  0
 14 13  1  0
  8 28  1  6
 13 12  1  0
  3  5  2  0
  3  2  1  0
  1 10  1  0
  1  2  1  0
 10  8  1  0
  5  6  1  0
  2  4  2  0
  6  7  2  0
  4  8  1  0
  4  7  1  0
  8  9  1  0
  7 11  1  0
 11 12  1  0
  1 16  1  0
  1 17  1  0
  3 18  1  0
  5 19  1  0
  6 20  1  0
 28 21  1  0
  9 22  1  0
 11 23  1  0
 11 24  1  0
 12 25  1  0
 12 26  1  0
 14 27  1  0
M  CHG  1   8  -1
M  END
