
     RDKit          3D

 40 41  0  0  0  0  0  0  0  0999 V2000
   -2.8456    0.1018   -0.5742 N   0  0  0  0  0  0  0  0  0  0  0  0
    3.9257    1.9107    0.3608 C   0  0  0  0  0  0  0  0  0  0  0  0
    2.7962    1.3623    0.9554 C   0  0  0  0  0  0  0  0  0  0  0  0
    2.3763    0.0699    0.6605 C   0  0  0  0  0  0  0  0  0  0  0  0
    1.1454   -0.4916    1.3236 C   0  0  0  0  0  0  0  0  0  0  0  0
   -0.9713   -1.5714    0.9386 C   0  0  0  0  0  0  0  0  0  0  0  0
   -3.1397   -1.3155   -0.4293 C   0  0  0  0  0  0  0  0  0  0  0  0
   -3.7040    1.0770   -0.2009 C   0  0  0  0  0  0  0  0  0  0  0  0
    0.0468   -0.6897    0.3911 N   0  0  0  0  0  0  0  0  0  0  0  0
   -3.4150    2.2659   -0.2892 O   0  0  0  0  0  0  0  0  0  0  0  0
    3.1128   -0.7017   -0.2516 C   0  0  0  0  0  0  0  0  0  0  0  0
   -1.5577    0.4732   -1.1316 C   0  0  0  0  0  0  0  0  0  0  0  0
   -0.4544    0.5815   -0.0888 C   0  0  0  0  0  0  0  0  0  0  0  0
   -5.0531    0.6520    0.3315 C   0  0  0  0  0  0  0  0  0  0  0  0
    4.2425   -0.1413   -0.8418 C   0  0  0  0  0  0  0  0  0  0  0  0
    4.6510    1.1533   -0.5453 C   0  0  0  0  0  0  0  0  0  0  0  0
   -1.9009   -2.1495   -0.1266 C   0  0  0  0  0  0  0  0  0  0  0  0
    4.2306    2.9206    0.6026 H   0  0  0  0  0  0  0  0  0  0  0  0
    2.2235    1.9533    1.6612 H   0  0  0  0  0  0  0  0  0  0  0  0
    1.3929   -1.4615    1.7638 H   0  0  0  0  0  0  0  0  0  0  0  0
    0.8559    0.1624    2.1637 H   0  0  0  0  0  0  0  0  0  0  0  0
   -0.4487   -2.4044    1.4120 H   0  0  0  0  0  0  0  0  0  0  0  0
   -1.5631   -1.0880    1.7360 H   0  0  0  0  0  0  0  0  0  0  0  0
   -3.8426   -1.4478    0.3907 H   0  0  0  0  0  0  0  0  0  0  0  0
   -3.6243   -1.7041   -1.3314 H   0  0  0  0  0  0  0  0  0  0  0  0
    1.6950   -2.1474   -0.9701 H   0  0  0  0  0  0  0  0  0  0  0  0
    3.3851   -2.5509   -1.3144 H   0  0  0  0  0  0  0  0  0  0  0  0
    2.7294   -2.7456    0.3081 H   0  0  0  0  0  0  0  0  0  0  0  0
   -1.2806   -0.2465   -1.9041 H   0  0  0  0  0  0  0  0  0  0  0  0
   -1.6580    1.4371   -1.6258 H   0  0  0  0  0  0  0  0  0  0  0  0
   -0.8189    1.2150    0.7386 H   0  0  0  0  0  0  0  0  0  0  0  0
    0.3767    1.1211   -0.5483 H   0  0  0  0  0  0  0  0  0  0  0  0
   -4.9603    0.1836    1.3133 H   0  0  0  0  0  0  0  0  0  0  0  0
   -5.6840    1.5308    0.4371 H   0  0  0  0  0  0  0  0  0  0  0  0
   -5.5540   -0.0617   -0.3222 H   0  0  0  0  0  0  0  0  0  0  0  0
    4.8166   -0.7331   -1.5455 H   0  0  0  0  0  0  0  0  0  0  0  0
    5.5333    1.5634   -1.0200 H   0  0  0  0  0  0  0  0  0  0  0  0
   -1.3193   -2.3388   -1.0309 H   0  0  0  0  0  0  0  0  0  0  0  0
   -2.2608   -3.1248    0.2083 H   0  0  0  0  0  0  0  0  0  0  0  0
    2.7119   -2.1102   -0.5806 C   0  0  0  0  0  0  0  0  0  0  0  0
 11 40  1  0
 11 15  2  0
 16 15  1  0
  2 16  2  0
  3  2  1  0
  4  3  2  0
  4 11  1  0
  5  4  1  0
  9  5  1  0
  6  9  1  0
 17  6  1  0
  7 17  1  0
  1  7  1  0
  1 12  1  0
 12 13  1  0
 13  9  1  0
  8  1  1  0
  8 10  2  0
 14  8  1  0
  2 18  1  0
  3 19  1  0
  5 20  1  0
  5 21  1  0
  6 22  1  0
  6 23  1  0
  7 24  1  0
  7 25  1  0
 40 26  1  0
 40 27  1  0
 40 28  1  0
 12 29  1  0
 12 30  1  0
 13 31  1  0
 13 32  1  0
 14 33  1  0
 14 34  1  0
 14 35  1  0
 15 36  1  0
 16 37  1  0
 17 38  1  0
 17 39  1  0
M  END
