
     RDKit          3D

 63 67  0  0  0  0  0  0  0  0999 V2000
    8.9963    0.1103   -0.5537 C   0  0  0  0  0  0  0  0  0  0  0  0
   10.0861    1.1615   -0.6270 C   0  0  0  0  0  0  0  0  0  0  0  0
   10.2104    1.8648    0.5893 O   0  0  0  0  0  0  0  0  0  0  0  0
    8.9845    2.4675    0.9394 C   0  0  0  0  0  0  0  0  0  0  0  0
    7.8659    1.4490    1.0457 C   0  0  0  0  0  0  0  0  0  0  0  0
    7.7255    0.7201   -0.2033 N   0  0  0  0  0  0  0  0  0  0  0  0
    6.6707   -0.2743   -0.1515 C   0  0  0  0  0  0  0  0  0  0  0  0
    5.2744    0.3326   -0.0928 C   0  0  0  0  0  0  0  0  0  0  0  0
    4.2285   -0.7613   -0.1002 C   0  0  0  0  0  0  0  0  0  0  0  0
    2.9473   -0.1520   -0.0322 O   0  0  0  0  0  0  0  0  0  0  0  0
    1.8606   -0.9347   -0.0189 C   0  0  0  0  0  0  0  0  0  0  0  0
    0.6326   -0.2698    0.0475 C   0  0  0  0  0  0  0  0  0  0  0  0
   -0.5647   -0.9955    0.0397 C   0  0  0  0  0  0  0  0  0  0  0  0
   -1.7466   -0.2958    0.0886 N   0  0  0  0  0  0  0  0  0  0  0  0
    0.6230    1.0821    0.1352 O   0  0  0  0  0  0  0  0  0  0  0  0
    0.3494    1.7567   -1.0869 C   0  0  0  0  0  0  0  0  0  0  0  0
    1.8975   -2.3345   -0.0605 C   0  0  0  0  0  0  0  0  0  0  0  0
    0.7195   -3.0527   -0.0534 C   0  0  0  0  0  0  0  0  0  0  0  0
   -0.5066   -2.4012   -0.0048 C   0  0  0  0  0  0  0  0  0  0  0  0
   -1.7636   -3.1116   -0.0097 C   0  0  0  0  0  0  0  0  0  0  0  0
   -1.9743   -4.3657   -0.0557 N   0  0  0  0  0  0  0  0  0  0  0  0
   -3.4144   -4.5780   -0.0614 C   0  0  0  0  0  0  0  0  0  0  0  0
   -4.0781   -3.1806   -0.0583 C   0  0  0  0  0  0  0  0  0  0  0  0
   -2.9039   -2.3169    0.0153 N   0  0  0  0  0  0  0  0  0  0  0  0
   -2.8434   -0.9635    0.0491 C   0  0  0  0  0  0  0  0  0  0  0  0
   -4.0687   -0.3235    0.0649 N   0  0  0  0  0  0  0  0  0  0  0  0
   -4.3343    0.9283   -0.4530 C   0  0  0  0  0  0  0  0  0  0  0  0
   -3.5451    1.5530   -1.1268 O   0  0  0  0  0  0  0  0  0  0  0  0
   -5.6846    1.4408   -0.1564 C   0  0  0  0  0  0  0  0  0  0  0  0
   -6.2186    2.4629   -0.9444 C   0  0  0  0  0  0  0  0  0  0  0  0
   -7.4056    2.9844   -0.7415 N   0  0  0  0  0  0  0  0  0  0  0  0
   -8.1098    2.4938    0.2939 C   0  0  0  0  0  0  0  0  0  0  0  0
   -9.3208    3.0043    0.5066 N   0  0  0  0  0  0  0  0  0  0  0  0
   -7.6856    1.5365    1.1342 N   0  0  0  0  0  0  0  0  0  0  0  0
   -6.4957    1.0288    0.8999 C   0  0  0  0  0  0  0  0  0  0  0  0
    8.9095   -0.3751   -1.5293 H   0  0  0  0  0  0  0  0  0  0  0  0
   11.0480    0.6896   -0.8328 H   0  0  0  0  0  0  0  0  0  0  0  0
    9.1262    2.9660    1.8996 H   0  0  0  0  0  0  0  0  0  0  0  0
    8.7088    3.2323    0.1990 H   0  0  0  0  0  0  0  0  0  0  0  0
    8.0626    0.7642    1.8897 H   0  0  0  0  0  0  0  0  0  0  0  0
    6.9422    1.9830    1.2761 H   0  0  0  0  0  0  0  0  0  0  0  0
    6.7481   -0.8871   -1.0547 H   0  0  0  0  0  0  0  0  0  0  0  0
    6.8105   -0.9618    0.7012 H   0  0  0  0  0  0  0  0  0  0  0  0
    5.1502    0.9363    0.8096 H   0  0  0  0  0  0  0  0  0  0  0  0
    5.1330    0.9942   -0.9510 H   0  0  0  0  0  0  0  0  0  0  0  0
    4.3118   -1.3650   -1.0109 H   0  0  0  0  0  0  0  0  0  0  0  0
    4.3735   -1.4316    0.7544 H   0  0  0  0  0  0  0  0  0  0  0  0
    1.0525    1.4661   -1.8718 H   0  0  0  0  0  0  0  0  0  0  0  0
   -0.6703    1.5669   -1.4263 H   0  0  0  0  0  0  0  0  0  0  0  0
    0.4649    2.8222   -0.8951 H   0  0  0  0  0  0  0  0  0  0  0  0
    2.8360   -2.8684   -0.1062 H   0  0  0  0  0  0  0  0  0  0  0  0
    0.7507   -4.1337   -0.0871 H   0  0  0  0  0  0  0  0  0  0  0  0
   -3.7099   -5.1549   -0.9395 H   0  0  0  0  0  0  0  0  0  0  0  0
   -3.7139   -5.1597    0.8129 H   0  0  0  0  0  0  0  0  0  0  0  0
   -4.6496   -2.9800   -0.9649 H   0  0  0  0  0  0  0  0  0  0  0  0
   -4.7290   -3.0369    0.8049 H   0  0  0  0  0  0  0  0  0  0  0  0
   -4.8578   -0.8637    0.3851 H   0  0  0  0  0  0  0  0  0  0  0  0
   -5.6514    2.8601   -1.7792 H   0  0  0  0  0  0  0  0  0  0  0  0
   -9.6900    3.7156   -0.0997 H   0  0  0  0  0  0  0  0  0  0  0  0
   -9.8986    2.6559    1.2514 H   0  0  0  0  0  0  0  0  0  0  0  0
   -6.1648    0.2732    1.6064 H   0  0  0  0  0  0  0  0  0  0  0  0
    9.2890   -0.6702    0.1706 H   0  0  0  0  0  0  0  0  0  0  0  0
    9.8684    1.8569   -1.4503 H   0  0  0  0  0  0  0  0  0  0  0  0
 21 22  1  0
 21 20  2  0
 22 23  1  0
 23 24  1  0
 20 24  1  0
 20 19  1  0
 18 19  2  0
 18 17  1  0
 24 25  1  0
 19 13  1  0
 17 11  2  0
 25 26  1  0
 25 14  2  0
 26 27  1  0
 13 14  1  0
 13 12  2  0
 11 12  1  0
 11 10  1  0
 35 34  2  0
 35 29  1  0
 34 32  1  0
 12 15  1  0
 10  9  1  0
 16 15  1  0
  9  8  1  0
 27 29  1  0
 27 28  2  0
 29 30  2  0
 32 33  1  0
 32 31  2  0
  8  7  1  0
 30 31  1  0
  1  6  1  0
  1  2  1  0
  7  6  1  0
  6  5  1  0
  2  3  1  0
  5  4  1  0
  3  4  1  0
  1 36  1  0
  2 37  1  0
  4 38  1  0
  4 39  1  0
  5 40  1  0
  5 41  1  0
  7 42  1  0
  7 43  1  0
  8 44  1  0
  8 45  1  0
  9 46  1  0
  9 47  1  0
 16 48  1  0
 16 49  1  0
 16 50  1  0
 17 51  1  0
 18 52  1  0
 22 53  1  0
 22 54  1  0
 23 55  1  0
 23 56  1  0
 26 57  1  0
 30 58  1  0
 33 59  1  0
 33 60  1  0
 35 61  1  0
  1 62  1  0
  2 63  1  0
M  END
