
     RDKit          3D

 46 46  0  0  0  0  0  0  0  0999 V2000
    7.1406   17.4775  -29.3017 P   0  0  2  0  0  0  0  0  0  0  0  0
    6.3170   18.4190  -28.3177 O   0  0  0  0  0  0  0  0  0  0  0  0
    7.2331   16.0606  -28.5622 O   0  0  0  0  0  0  0  0  0  0  0  0
    8.4353   17.9812  -29.8055 O   0  0  0  0  0  0  0  0  0  0  0  0
    5.9763   17.2727  -30.3728 O   0  0  0  0  0  0  0  0  0  0  0  0
    6.2100   16.4508  -31.5289 C   0  0  0  0  0  0  0  0  0  0  0  0
    5.2868   16.8885  -32.6209 C   0  0  0  0  0  0  0  0  0  0  0  0
    4.2950   16.0244  -33.0525 C   0  0  0  0  0  0  0  0  0  0  0  0
    3.4300   16.3230  -34.0137 N   0  0  0  0  0  0  0  0  0  0  0  0
    3.5037   17.5066  -34.6014 C   0  0  0  0  0  0  0  0  0  0  0  0
    2.5180   17.8247  -35.6826 C   0  0  0  0  0  0  0  0  0  0  0  0
    4.4704   18.4588  -34.2310 C   0  0  0  0  0  0  0  0  0  0  0  0
    4.4638   19.6355  -34.8646 O   0  0  0  0  0  0  0  0  0  0  0  0
    5.3844   18.1490  -33.2177 C   0  0  0  0  0  0  0  0  0  0  0  0
    6.3877   19.1808  -32.7608 C   0  0  0  0  0  0  0  0  0  0  0  0
    6.8016   20.0329  -33.8673 N   0  0  0  0  0  0  0  0  0  0  0  0
    6.3542   22.3958  -35.4004 N   0  0  0  0  0  0  0  0  0  0  0  0
    7.6094   22.1933  -34.6937 C   0  0  2  0  0  0  0  0  0  0  0  0
    7.3671   21.3118  -33.4735 C   0  0  0  0  0  0  0  0  0  0  0  0
    8.3701   23.4835  -34.3465 C   0  0  0  0  0  0  0  0  0  0  0  0
    7.6329   24.4677  -33.4432 C   0  0  0  0  0  0  0  0  0  0  0  0
    7.7173   24.1570  -31.9730 C   0  0  0  0  0  0  0  0  0  0  0  0
    8.6674   23.6476  -31.4306 O   0  0  0  0  0  0  0  0  0  0  0  0
    6.6342   24.5503  -31.3098 O   0  0  0  0  0  0  0  0  0  0  0  0
    6.8578   18.8450  -27.6391 H   0  0  0  0  0  0  0  0  0  0  0  0
    8.1339   15.7253  -28.4688 H   0  0  0  0  0  0  0  0  0  0  0  0
    6.0171   15.4075  -31.2711 H   0  0  0  0  0  0  0  0  0  0  0  0
    7.2534   16.5266  -31.8484 H   0  0  0  0  0  0  0  0  0  0  0  0
    4.1976   15.0423  -32.6002 H   0  0  0  0  0  0  0  0  0  0  0  0
    1.8305   16.9919  -35.8161 H   0  0  0  0  0  0  0  0  0  0  0  0
    3.0167   18.0134  -36.6352 H   0  0  0  0  0  0  0  0  0  0  0  0
    1.9345   18.7172  -35.4507 H   0  0  0  0  0  0  0  0  0  0  0  0
    5.3497   20.0748  -34.6586 H   0  0  0  0  0  0  0  0  0  0  0  0
    7.2451   18.7197  -32.2619 H   0  0  0  0  0  0  0  0  0  0  0  0
    5.9064   19.8153  -32.0099 H   0  0  0  0  0  0  0  0  0  0  0  0
    7.4612   19.5333  -34.4537 H   0  0  0  0  0  0  0  0  0  0  0  0
    5.6877   22.8791  -34.8101 H   0  0  0  0  0  0  0  0  0  0  0  0
    8.2684   21.6351  -35.3698 H   0  0  0  0  0  0  0  0  0  0  0  0
    8.3027   21.1958  -32.9135 H   0  0  0  0  0  0  0  0  0  0  0  0
    6.6480   21.7911  -32.8009 H   0  0  0  0  0  0  0  0  0  0  0  0
    8.5898   23.9922  -35.2878 H   0  0  0  0  0  0  0  0  0  0  0  0
    9.3391   23.2335  -33.9087 H   0  0  0  0  0  0  0  0  0  0  0  0
    6.5917   24.5920  -33.7469 H   0  0  0  0  0  0  0  0  0  0  0  0
    8.0817   25.4602  -33.5600 H   0  0  0  0  0  0  0  0  0  0  0  0
    6.7478   24.3794  -30.3626 H   0  0  0  0  0  0  0  0  0  0  0  0
    6.5045   22.9917  -36.2055 H   0  0  0  0  0  0  0  0  0  0  0  0
  1  2  1  1
  1  3  1  0
  1  4  2  0
  1  5  1  0
  2 25  1  0
  3 26  1  0
  5  6  1  0
  6  7  1  0
  6 27  1  0
  6 28  1  0
  7  8  2  0
  7 14  1  0
  8  9  1  0
  8 29  1  0
  9 10  2  0
 10 11  1  0
 10 12  1  0
 11 30  1  0
 11 31  1  0
 11 32  1  0
 12 13  1  0
 12 14  2  0
 13 33  1  0
 14 15  1  0
 15 16  1  0
 15 34  1  0
 15 35  1  0
 16 19  1  0
 16 36  1  0
 17 18  1  0
 17 46  1  0
 17 37  1  0
 18 19  1  0
 18 20  1  0
 18 38  1  6
 19 39  1  0
 19 40  1  0
 20 21  1  0
 20 41  1  0
 20 42  1  0
 21 22  1  0
 21 43  1  0
 21 44  1  0
 22 23  2  0
 22 24  1  0
 24 45  1  0
M  END
