
     RDKit          3D

 23 22  0  0  0  0  0  0  0  0999 V2000
    3.2443    0.2334    0.0901 C   0  0  0  0  0  0  0  0  0  0  0  0
    1.6038   -1.5049    0.5542 N   0  0  0  0  0  0  0  0  0  0  0  0
    3.6990    0.4469    1.2150 O   0  0  0  0  0  0  0  0  0  0  0  0
    1.9087   -0.3837   -0.3032 C   0  0  1  0  0  0  0  0  0  0  0  0
    0.8911    0.7653   -0.3256 C   0  0  0  0  0  0  0  0  0  0  0  0
   -0.6529    0.2271   -0.9948 S   0  0  0  0  0  0  0  0  0  0  0  0
    1.6814   -1.2594    1.5225 H   0  0  0  0  0  0  0  0  0  0  0  0
   -1.7813    0.3203    0.2970 C   0  0  0  0  0  0  0  0  0  0  0  0
   -1.5552    0.6304    1.4709 O   0  0  0  0  0  0  0  0  0  0  0  0
   -3.1856   -0.0390   -0.1705 C   0  0  2  0  0  0  0  0  0  0  0  0
   -4.1161    0.8897    0.3473 O   0  0  0  0  0  0  0  0  0  0  0  0
   -3.5217   -1.4588    0.2520 C   0  0  0  0  0  0  0  0  0  0  0  0
    4.0097    0.5827   -0.9785 O   0  0  0  0  0  0  0  0  0  0  0  0
    0.6859   -1.8522    0.3570 H   0  0  0  0  0  0  0  0  0  0  0  0
    2.0092   -0.7886   -1.3576 H   0  0  0  0  0  0  0  0  0  0  0  0
    0.7510    1.1936    0.6995 H   0  0  0  0  0  0  0  0  0  0  0  0
    1.2769    1.5767   -0.9926 H   0  0  0  0  0  0  0  0  0  0  0  0
   -3.2683    0.0788   -1.2903 H   0  0  0  0  0  0  0  0  0  0  0  0
   -4.0471    0.8643    1.3125 H   0  0  0  0  0  0  0  0  0  0  0  0
   -3.4026   -1.5768    1.3564 H   0  0  0  0  0  0  0  0  0  0  0  0
   -4.5830   -1.6797   -0.0172 H   0  0  0  0  0  0  0  0  0  0  0  0
   -2.8554   -2.1866   -0.2672 H   0  0  0  0  0  0  0  0  0  0  0  0
    4.8460    0.9693   -0.6689 H   0  0  0  0  0  0  0  0  0  0  0  0
  1  4  1  0
  1  3  2  0
  1 13  1  0
  2  7  1  0
  2 14  1  0
  4  2  1  0
  4 15  1  6
  5  4  1  0
  5  6  1  0
  5 16  1  0
  5 17  1  0
  6  8  1  0
  8  9  2  0
 10  8  1  0
 10 18  1  6
 11 10  1  0
 11 19  1  0
 12 10  1  0
 12 20  1  0
 12 21  1  0
 12 22  1  0
 13 23  1  0
M  END
