
     RDKit          3D

 49 48  0  0  0  0  0  0  0  0999 V2000
   10.9282    0.4767    0.1727 C   0  0  0  0  0  0  0  0  0  0  0  0
    9.6412   -0.1301   -0.3682 C   0  0  0  0  0  0  0  0  0  0  0  0
    8.3892    0.4695    0.2600 C   0  0  0  0  0  0  0  0  0  0  0  0
    7.0986   -0.1345   -0.2780 C   0  0  0  0  0  0  0  0  0  0  0  0
    5.8429    0.4655    0.3416 C   0  0  0  0  0  0  0  0  0  0  0  0
    4.5575   -0.1394   -0.2080 C   0  0  0  0  0  0  0  0  0  0  0  0
    3.2953    0.4772    0.3810 C   0  0  0  0  0  0  0  0  0  0  0  0
    2.0173   -0.1284   -0.1846 C   0  0  0  0  0  0  0  0  0  0  0  0
    0.7513    0.5371    0.3380 C   0  0  0  0  0  0  0  0  0  0  0  0
   -0.5174   -0.0900   -0.2283 C   0  0  0  0  0  0  0  0  0  0  0  0
   -1.7577    0.6995    0.1857 C   0  0  0  0  0  0  0  0  0  0  0  0
   -3.0962    0.2067   -0.3920 C   0  0  1  0  0  0  0  0  0  0  0  0
   -3.5934   -1.4768    0.2191 P   0  0  1  0  0  0  0  0  0  0  0  0
   -3.0291   -1.6346    1.7126 O   0  0  0  0  0  0  0  0  0  0  0  0
   -5.0462   -1.7525    0.2016 O   0  0  0  0  0  0  0  0  0  0  0  0
   -2.6863   -2.3962   -0.7299 O   0  0  0  0  0  0  0  0  0  0  0  0
   -4.4110    1.3863    0.1471 P   0  0  1  0  0  0  0  0  0  0  0  0
   -4.6680    1.3421    1.6025 O   0  0  0  0  0  0  0  0  0  0  0  0
   -3.8989    2.8443   -0.2849 O   0  0  0  0  0  0  0  0  0  0  0  0
   -5.6102    1.0315   -0.8442 O   0  0  0  0  0  0  0  0  0  0  0  0
   -3.1307    0.2191   -1.7970 O   0  0  0  0  0  0  0  0  0  0  0  0
   10.9672    1.5517   -0.0137 H   0  0  0  0  0  0  0  0  0  0  0  0
   11.0113    0.3290    1.2512 H   0  0  0  0  0  0  0  0  0  0  0  0
   11.8083    0.0293   -0.2907 H   0  0  0  0  0  0  0  0  0  0  0  0
    9.6002    0.0048   -1.4536 H   0  0  0  0  0  0  0  0  0  0  0  0
    9.6468   -1.2115   -0.1994 H   0  0  0  0  0  0  0  0  0  0  0  0
    8.4290    0.3352    1.3468 H   0  0  0  0  0  0  0  0  0  0  0  0
    8.3821    1.5523    0.0911 H   0  0  0  0  0  0  0  0  0  0  0  0
    7.0627   -0.0027   -1.3653 H   0  0  0  0  0  0  0  0  0  0  0  0
    7.1061   -1.2170   -0.1075 H   0  0  0  0  0  0  0  0  0  0  0  0
    5.8733    0.3329    1.4288 H   0  0  0  0  0  0  0  0  0  0  0  0
    5.8362    1.5478    0.1705 H   0  0  0  0  0  0  0  0  0  0  0  0
    4.5402   -0.0210   -1.2973 H   0  0  0  0  0  0  0  0  0  0  0  0
    4.5559   -1.2195   -0.0236 H   0  0  0  0  0  0  0  0  0  0  0  0
    3.3044    0.3614    1.4703 H   0  0  0  0  0  0  0  0  0  0  0  0
    3.2988    1.5566    0.1925 H   0  0  0  0  0  0  0  0  0  0  0  0
    2.0353   -0.0515   -1.2774 H   0  0  0  0  0  0  0  0  0  0  0  0
    1.9891   -1.1998    0.0416 H   0  0  0  0  0  0  0  0  0  0  0  0
    0.7270    0.4824    1.4313 H   0  0  0  0  0  0  0  0  0  0  0  0
    0.7732    1.6028    0.0872 H   0  0  0  0  0  0  0  0  0  0  0  0
   -0.4326   -0.1127   -1.3196 H   0  0  0  0  0  0  0  0  0  0  0  0
   -0.5702   -1.1328    0.0931 H   0  0  0  0  0  0  0  0  0  0  0  0
   -1.8283    0.7428    1.2750 H   0  0  0  0  0  0  0  0  0  0  0  0
   -1.6143    1.7309   -0.1451 H   0  0  0  0  0  0  0  0  0  0  0  0
   -2.0705   -1.6848    1.8193 H   0  0  0  0  0  0  0  0  0  0  0  0
   -2.9394   -3.3304   -0.7469 H   0  0  0  0  0  0  0  0  0  0  0  0
   -3.8124    2.9971   -1.2356 H   0  0  0  0  0  0  0  0  0  0  0  0
   -6.4610    1.4169   -0.5914 H   0  0  0  0  0  0  0  0  0  0  0  0
   -2.3478   -0.2244   -2.1445 H   0  0  0  0  0  0  0  0  0  0  0  0
  1  2  1  0
  1 22  1  0
  1 23  1  0
  1 24  1  0
  2  3  1  0
  2 25  1  0
  2 26  1  0
  3  4  1  0
  3 27  1  0
  3 28  1  0
  4  5  1  0
  4 29  1  0
  4 30  1  0
  5  6  1  0
  5 31  1  0
  5 32  1  0
  6  7  1  0
  6 33  1  0
  6 34  1  0
  7  8  1  0
  7 35  1  0
  7 36  1  0
  8  9  1  0
  8 37  1  0
  8 38  1  0
  9 10  1  0
  9 39  1  0
  9 40  1  0
 10 11  1  0
 10 41  1  0
 10 42  1  0
 11 12  1  0
 11 43  1  0
 11 44  1  0
 12 13  1  0
 12 17  1  0
 12 21  1  6
 13 15  2  0
 13 14  1  1
 13 16  1  0
 14 45  1  0
 16 46  1  0
 17 18  2  0
 17 19  1  6
 17 20  1  0
 19 47  1  0
 20 48  1  0
 21 49  1  0
M  END
