
     RDKit          3D

 24 25  0  0  0  0  0  0  0  0999 V2000
    2.4456   -0.2934   -0.2062 C   0  0  0  0  0  0  0  0  0  0  0  0
    2.2005    2.6297    0.5946 O   0  0  0  0  0  0  0  0  0  0  0  0
    1.3672    1.9225   -0.1553 C   0  0  0  0  0  0  0  0  0  0  0  0
    0.8269    2.3459   -1.1431 O   0  0  0  0  0  0  0  0  0  0  0  0
    1.2557    0.4990    0.3629 C   0  0  1  0  0  0  0  0  0  0  0  0
    0.0287   -0.1499   -0.0475 N   0  0  0  0  0  0  0  0  0  0  0  0
   -1.0299   -0.1290    0.9481 C   0  0  1  0  0  0  0  0  0  0  0  0
   -1.6731    1.2351    1.1263 C   0  0  0  0  0  0  0  0  0  0  0  0
   -2.5743    1.8737   -0.3095 S   0  0  0  0  0  0  0  0  0  0  0  0
    1.9159   -2.0145   -0.1223 S   0  0  0  0  0  0  0  0  0  0  0  0
    0.2341   -1.4820   -0.6121 C   0  0  1  0  0  0  0  0  0  0  0  0
   -0.8239   -2.4376   -0.0676 C   0  0  0  0  0  0  0  0  0  0  0  0
   -2.2162   -1.3732    0.3778 S   0  0  0  0  0  0  0  0  0  0  0  0
    2.6573   -0.0145   -1.2397 H   0  0  0  0  0  0  0  0  0  0  0  0
    3.3457   -0.1466    0.3872 H   0  0  0  0  0  0  0  0  0  0  0  0
    2.3214    3.5162    0.2214 H   0  0  0  0  0  0  0  0  0  0  0  0
    1.3448    0.5108    1.4571 H   0  0  0  0  0  0  0  0  0  0  0  0
   -0.6520   -0.4328    1.9372 H   0  0  0  0  0  0  0  0  0  0  0  0
   -2.4047    1.1790    1.9331 H   0  0  0  0  0  0  0  0  0  0  0  0
   -0.9200    1.9563    1.4494 H   0  0  0  0  0  0  0  0  0  0  0  0
   -1.5560    1.8439   -1.1750 H   0  0  0  0  0  0  0  0  0  0  0  0
    0.1906   -1.4382   -1.7019 H   0  0  0  0  0  0  0  0  0  0  0  0
   -1.1375   -3.1687   -0.8099 H   0  0  0  0  0  0  0  0  0  0  0  0
   -0.4643   -2.9658    0.8164 H   0  0  0  0  0  0  0  0  0  0  0  0
  4  3  2  0
  3  5  1  0
  3  2  1  0
  9  8  1  0
  5  1  1  0
  5  6  1  0
  1 10  1  0
  6  7  1  0
  6 11  1  0
  8  7  1  0
  7 13  1  0
 10 11  1  0
 11 12  1  0
 13 12  1  0
  1 14  1  0
  1 15  1  0
  2 16  1  0
  5 17  1  1
  7 18  1  1
  8 19  1  0
  8 20  1  0
  9 21  1  0
 11 22  1  6
 12 23  1  0
 12 24  1  0
M  END
