
     RDKit          3D

 59 61  0  0  0  0  0  0  0  0999 V2000
    7.7263   -4.7355   -0.3999 O   0  0  0  0  0  0  0  0  0  0  0  0
    7.6803   -3.4377   -0.6612 C   0  0  0  0  0  0  0  0  0  0  0  0
    8.4420   -2.8576   -1.3854 O   0  0  0  0  0  0  0  0  0  0  0  0
    6.5351   -2.7985    0.0861 C   0  0  0  0  0  0  0  0  0  0  0  0
    6.5182   -1.4422   -0.2507 O   0  0  0  0  0  0  0  0  0  0  0  0
    5.5726   -0.6448    0.2959 C   0  0  0  0  0  0  0  0  0  0  0  0
    4.6224   -1.1044    1.2023 C   0  0  0  0  0  0  0  0  0  0  0  0
    3.7014   -0.2166    1.7274 C   0  0  0  0  0  0  0  0  0  0  0  0
    5.5975    0.6998   -0.0938 C   0  0  0  0  0  0  0  0  0  0  0  0
    6.6212    1.1937   -1.0772 C   0  0  0  0  0  0  0  0  0  0  0  0
    4.6550    1.5898    0.4362 C   0  0  0  0  0  0  0  0  0  0  0  0
    4.7050    3.0243    0.0022 C   0  0  0  0  0  0  0  0  0  0  0  0
    3.7024    1.1165    1.3463 C   0  0  0  0  0  0  0  0  0  0  0  0
    2.4890    2.1992    2.0707 S   0  0  0  0  0  0  0  0  0  0  0  0
    0.9852    1.3825    1.6379 C   0  0  0  0  0  0  0  0  0  0  0  0
    0.1055    1.0051    2.6418 C   0  0  0  0  0  0  0  0  0  0  0  0
   -1.1070    0.4021    2.3383 C   0  0  0  0  0  0  0  0  0  0  0  0
    0.6407    1.1561    0.2960 C   0  0  0  0  0  0  0  0  0  0  0  0
    1.5273    1.5667   -0.6247 O   0  0  0  0  0  0  0  0  0  0  0  0
    1.2975    1.2164   -1.9759 C   0  0  0  0  0  0  0  0  0  0  0  0
    2.4396    1.6553   -2.7629 C   0  0  0  0  0  0  0  0  0  0  0  0
    3.3615    2.0040   -3.4477 C   0  0  0  0  0  0  0  0  0  0  0  0
   -0.5660    0.5328   -0.0020 C   0  0  0  0  0  0  0  0  0  0  0  0
   -1.4393    0.1555    1.0150 C   0  0  0  0  0  0  0  0  0  0  0  0
   -2.7500   -0.4826    0.6682 C   0  0  0  0  0  0  0  0  0  0  0  0
   -3.7148    0.5606    0.5804 O   0  0  0  0  0  0  0  0  0  0  0  0
   -4.9800    0.2441    0.2661 C   0  0  0  0  0  0  0  0  0  0  0  0
   -5.8785    1.3114    0.1807 C   0  0  0  0  0  0  0  0  0  0  0  0
   -7.2004    1.0849   -0.1402 C   0  0  0  0  0  0  0  0  0  0  0  0
   -5.4324   -1.0518    0.0259 C   0  0  0  0  0  0  0  0  0  0  0  0
   -6.7640   -1.2685   -0.2967 C   0  0  0  0  0  0  0  0  0  0  0  0
   -7.6554   -0.2097   -0.3866 C   0  0  0  0  0  0  0  0  0  0  0  0
   -9.0964   -0.4543   -0.6825 C   0  0  1  0  0  0  0  0  0  0  0  0
   -9.8213   -0.6108    0.4395 F   0  0  0  0  0  0  0  0  0  0  0  0
   -9.6571    0.5613   -1.3526 F   0  0  0  0  0  0  0  0  0  0  0  0
   -9.2882   -1.5597   -1.4132 F   0  0  0  0  0  0  0  0  0  0  0  0
    8.4655   -5.1487   -0.8710 H   0  0  0  0  0  0  0  0  0  0  0  0
    5.6024   -3.3060   -0.1891 H   0  0  0  0  0  0  0  0  0  0  0  0
    6.6854   -2.9585    1.1611 H   0  0  0  0  0  0  0  0  0  0  0  0
    4.5899   -2.1370    1.5212 H   0  0  0  0  0  0  0  0  0  0  0  0
    2.9715   -0.5769    2.4412 H   0  0  0  0  0  0  0  0  0  0  0  0
    6.1501    1.7685   -1.8756 H   0  0  0  0  0  0  0  0  0  0  0  0
    7.3425    1.8583   -0.5960 H   0  0  0  0  0  0  0  0  0  0  0  0
    7.1795    0.3851   -1.5400 H   0  0  0  0  0  0  0  0  0  0  0  0
    4.5311    3.1072   -1.0718 H   0  0  0  0  0  0  0  0  0  0  0  0
    3.9553    3.6325    0.4999 H   0  0  0  0  0  0  0  0  0  0  0  0
    5.6829    3.4639    0.2060 H   0  0  0  0  0  0  0  0  0  0  0  0
    0.3827    1.1735    3.6743 H   0  0  0  0  0  0  0  0  0  0  0  0
   -1.7779    0.1084    3.1359 H   0  0  0  0  0  0  0  0  0  0  0  0
    1.1744    0.1332   -2.0849 H   0  0  0  0  0  0  0  0  0  0  0  0
    0.3871    1.6908   -2.3589 H   0  0  0  0  0  0  0  0  0  0  0  0
    4.1806    2.3218   -4.0516 H   0  0  0  0  0  0  0  0  0  0  0  0
   -0.8541    0.3372   -1.0271 H   0  0  0  0  0  0  0  0  0  0  0  0
   -2.6804   -1.0170   -0.2845 H   0  0  0  0  0  0  0  0  0  0  0  0
   -3.0392   -1.2031    1.4397 H   0  0  0  0  0  0  0  0  0  0  0  0
   -5.5292    2.3187    0.3661 H   0  0  0  0  0  0  0  0  0  0  0  0
   -7.8714    1.9315   -0.1996 H   0  0  0  0  0  0  0  0  0  0  0  0
   -4.7701   -1.9040    0.0814 H   0  0  0  0  0  0  0  0  0  0  0  0
   -7.0868   -2.2848   -0.4788 H   0  0  0  0  0  0  0  0  0  0  0  0
  2  1  1  0
  1 37  1  0
  3  2  2  0
  2  4  1  0
  5  4  1  0
  4 38  1  0
  4 39  1  0
  5  6  1  0
  9  6  2  0
  6  7  1  0
  7  8  2  0
  7 40  1  0
 13  8  1  0
  8 41  1  0
 10  9  1  0
  9 11  1  0
 10 42  1  0
 10 43  1  0
 10 44  1  0
 12 11  1  0
 11 13  2  0
 12 45  1  0
 12 46  1  0
 12 47  1  0
 13 14  1  0
 14 15  1  0
 15 18  1  0
 15 16  2  0
 16 17  1  0
 16 48  1  0
 17 24  2  0
 17 49  1  0
 19 18  1  0
 18 23  2  0
 19 20  1  0
 20 21  1  0
 20 50  1  0
 20 51  1  0
 21 22  3  0
 22 52  1  0
 23 24  1  0
 23 53  1  0
 24 25  1  0
 26 25  1  0
 25 54  1  0
 25 55  1  0
 27 26  1  0
 30 27  1  0
 27 28  2  0
 29 28  1  0
 28 56  1  0
 32 29  2  0
 29 57  1  0
 31 30  2  0
 30 58  1  0
 31 32  1  0
 31 59  1  0
 33 32  1  0
 33 35  1  6
 36 33  1  0
 33 34  1  0
M  END
