
     RDKit          3D

 37 39  0  0  0  0  0  0  0  0999 V2000
    6.8506   -0.1923    0.7337 C   0  0  0  0  0  0  0  0  0  0  0  0
    5.5822    0.3539    0.1101 C   0  0  1  0  0  0  0  0  0  0  0  0
    5.7811    0.7271   -1.3490 C   0  0  0  0  0  0  0  0  0  0  0  0
    4.5971   -0.6766    0.2409 O   0  0  0  0  0  0  0  0  0  0  0  0
    3.2905   -0.3972    0.1736 C   0  0  0  0  0  0  0  0  0  0  0  0
    2.4245   -1.4918    0.2858 C   0  0  0  0  0  0  0  0  0  0  0  0
    1.0605   -1.3139    0.2537 C   0  0  0  0  0  0  0  0  0  0  0  0
    2.7451    0.8758    0.0137 C   0  0  0  0  0  0  0  0  0  0  0  0
    1.3687    1.0411   -0.0099 C   0  0  0  0  0  0  0  0  0  0  0  0
    0.5018   -0.0392    0.1162 C   0  0  0  0  0  0  0  0  0  0  0  0
   -0.9614    0.1020    0.1042 C   0  0  0  0  0  0  0  0  0  0  0  0
   -1.6982   -0.9221   -0.1466 N   0  0  0  0  0  0  0  0  0  0  0  0
   -3.0607   -0.7581   -0.1454 C   0  0  0  0  0  0  0  0  0  0  0  0
   -3.8709   -1.8697   -0.4136 C   0  0  0  0  0  0  0  0  0  0  0  0
   -5.2415   -1.7405   -0.4264 C   0  0  0  0  0  0  0  0  0  0  0  0
   -5.8464   -0.5055   -0.1731 C   0  0  0  0  0  0  0  0  0  0  0  0
   -5.0653    0.5971    0.0932 C   0  0  0  0  0  0  0  0  0  0  0  0
   -3.6751    0.4781    0.1074 C   0  0  0  0  0  0  0  0  0  0  0  0
   -2.8357    1.6349    0.4007 C   0  0  0  0  0  0  0  0  0  0  0  0
   -3.2223    2.7528    0.6590 O   0  0  0  0  0  0  0  0  0  0  0  0
   -1.4833    1.3361    0.3744 N   0  0  0  0  0  0  0  0  0  0  0  0
    7.1900   -1.0885    0.2131 H   0  0  0  0  0  0  0  0  0  0  0  0
    7.6431    0.5521    0.6707 H   0  0  0  0  0  0  0  0  0  0  0  0
    6.7049   -0.4346    1.7858 H   0  0  0  0  0  0  0  0  0  0  0  0
    5.2670    1.2337    0.6820 H   0  0  0  0  0  0  0  0  0  0  0  0
    6.5062    1.5368   -1.4283 H   0  0  0  0  0  0  0  0  0  0  0  0
    6.1614   -0.1228   -1.9174 H   0  0  0  0  0  0  0  0  0  0  0  0
    4.8614    1.0669   -1.8247 H   0  0  0  0  0  0  0  0  0  0  0  0
    2.8396   -2.4836    0.4090 H   0  0  0  0  0  0  0  0  0  0  0  0
    0.4059   -2.1694    0.3457 H   0  0  0  0  0  0  0  0  0  0  0  0
    3.3642    1.7541   -0.0975 H   0  0  0  0  0  0  0  0  0  0  0  0
    1.0016    2.0481   -0.1643 H   0  0  0  0  0  0  0  0  0  0  0  0
   -3.3948   -2.8210   -0.6096 H   0  0  0  0  0  0  0  0  0  0  0  0
   -5.8580   -2.6051   -0.6355 H   0  0  0  0  0  0  0  0  0  0  0  0
   -6.9242   -0.4177   -0.1870 H   0  0  0  0  0  0  0  0  0  0  0  0
   -5.5141    1.5603    0.2960 H   0  0  0  0  0  0  0  0  0  0  0  0
   -0.8684    2.0933    0.6348 H   0  0  0  0  0  0  0  0  0  0  0  0
  3  2  1  0
  2  1  1  0
  2  4  1  0
  4  5  1  0
  5  6  2  0
  5  8  1  0
  6  7  1  0
  8  9  2  0
  7 10  2  0
  9 10  1  0
 10 11  1  0
 11 12  2  0
 11 21  1  0
 12 13  1  0
 21 19  1  0
 13 14  2  0
 13 18  1  0
 14 15  1  0
 19 18  1  0
 19 20  2  0
 18 17  2  0
 15 16  2  0
 17 16  1  0
  1 22  1  0
  1 23  1  0
  1 24  1  0
  2 25  1  1
  3 26  1  0
  3 27  1  0
  3 28  1  0
  6 29  1  0
  7 30  1  0
  8 31  1  0
  9 32  1  0
 14 33  1  0
 15 34  1  0
 16 35  1  0
 17 36  1  0
 21 37  1  0
M  END
