
     RDKit          3D

 56 59  0  0  0  0  0  0  0  0999 V2000
    8.8123    0.3956   -1.2020 C   0  0  0  0  0  0  0  0  0  0  0  0
    8.4288   -0.8215   -1.7502 C   0  0  0  0  0  0  0  0  0  0  0  0
    7.2315   -1.4105   -1.3719 C   0  0  0  0  0  0  0  0  0  0  0  0
    6.3985   -0.8009   -0.4300 C   0  0  0  0  0  0  0  0  0  0  0  0
    6.8039    0.4147    0.1269 C   0  0  0  0  0  0  0  0  0  0  0  0
    7.9953    1.0096   -0.2620 C   0  0  0  0  0  0  0  0  0  0  0  0
    5.1633   -1.4847   -0.0335 C   0  0  0  0  0  0  0  0  0  0  0  0
    5.0157   -2.7969    0.3495 C   0  0  0  0  0  0  0  0  0  0  0  0
    3.6420   -3.0251    0.5703 C   0  0  0  0  0  0  0  0  0  0  0  0
    2.9774   -1.8481    0.3156 C   0  0  0  0  0  0  0  0  0  0  0  0
    3.9146   -0.9082   -0.0451 N   0  0  0  0  0  0  0  0  0  0  0  0
    3.6164    0.3878   -0.5847 C   0  0  0  0  0  0  0  0  0  0  0  0
    3.6096    1.4926    0.4687 C   0  0  0  0  0  0  0  0  0  0  0  0
    3.7899    1.2689    1.6434 O   0  0  0  0  0  0  0  0  0  0  0  0
    3.3854    2.7153   -0.0815 N   0  0  0  0  0  0  0  0  0  0  0  0
    3.2616    3.9455    0.5792 C   0  0  0  0  0  0  0  0  0  0  0  0
    2.9860    4.0009    1.8170 N   0  0  0  0  0  0  0  0  0  0  0  0
    3.3929    4.9890   -0.2988 N   0  0  0  0  0  0  0  0  0  0  0  0
    1.5314   -1.6173    0.3446 C   0  0  0  0  0  0  0  0  0  0  0  0
    0.6859   -2.5294   -0.2863 C   0  0  0  0  0  0  0  0  0  0  0  0
   -0.6940   -2.4016   -0.2591 C   0  0  0  0  0  0  0  0  0  0  0  0
   -1.2742   -1.3223    0.4082 C   0  0  0  0  0  0  0  0  0  0  0  0
   -0.4381   -0.4012    1.0435 C   0  0  0  0  0  0  0  0  0  0  0  0
    0.9350   -0.5496    1.0196 C   0  0  0  0  0  0  0  0  0  0  0  0
   -2.6485   -1.0831    0.4948 N   0  0  0  0  0  0  0  0  0  0  0  0
   -3.6772   -1.8286    0.0226 C   0  0  0  0  0  0  0  0  0  0  0  0
   -3.5449   -2.8964   -0.5481 O   0  0  0  0  0  0  0  0  0  0  0  0
   -5.0379   -1.2555    0.2676 C   0  0  0  0  0  0  0  0  0  0  0  0
   -6.1041   -2.1413    0.3976 C   0  0  0  0  0  0  0  0  0  0  0  0
   -7.3846   -1.6598    0.6117 C   0  0  0  0  0  0  0  0  0  0  0  0
   -7.6255   -0.2943    0.6767 C   0  0  0  0  0  0  0  0  0  0  0  0
   -6.5601    0.5802    0.5254 C   0  0  0  0  0  0  0  0  0  0  0  0
   -5.2687    0.1173    0.3241 C   0  0  0  0  0  0  0  0  0  0  0  0
   -6.8729    2.4401    0.5826 Br  0  0  0  0  0  0  0  0  0  0  0  0
    9.7427    0.8598   -1.5023 H   0  0  0  0  0  0  0  0  0  0  0  0
    9.0585   -1.3108   -2.4819 H   0  0  0  0  0  0  0  0  0  0  0  0
    6.9307   -2.3502   -1.8175 H   0  0  0  0  0  0  0  0  0  0  0  0
    6.2075    0.8842    0.8969 H   0  0  0  0  0  0  0  0  0  0  0  0
    8.2910    1.9508    0.1830 H   0  0  0  0  0  0  0  0  0  0  0  0
    5.8222   -3.5024    0.4757 H   0  0  0  0  0  0  0  0  0  0  0  0
    3.1792   -3.9410    0.9031 H   0  0  0  0  0  0  0  0  0  0  0  0
    4.3412    0.6303   -1.3647 H   0  0  0  0  0  0  0  0  0  0  0  0
    2.6408    0.3619   -1.0763 H   0  0  0  0  0  0  0  0  0  0  0  0
    3.2965    2.7463   -1.0870 H   0  0  0  0  0  0  0  0  0  0  0  0
    2.9693    4.9662    2.1280 H   0  0  0  0  0  0  0  0  0  0  0  0
    4.0318    4.8754   -1.0705 H   0  0  0  0  0  0  0  0  0  0  0  0
    3.4390    5.9070    0.1132 H   0  0  0  0  0  0  0  0  0  0  0  0
    1.1157   -3.3653   -0.8238 H   0  0  0  0  0  0  0  0  0  0  0  0
   -1.2964   -3.1388   -0.7623 H   0  0  0  0  0  0  0  0  0  0  0  0
   -0.8687    0.4386    1.5763 H   0  0  0  0  0  0  0  0  0  0  0  0
    1.5382    0.1603    1.5675 H   0  0  0  0  0  0  0  0  0  0  0  0
   -2.8923   -0.2699    1.0395 H   0  0  0  0  0  0  0  0  0  0  0  0
   -5.9324   -3.2074    0.3422 H   0  0  0  0  0  0  0  0  0  0  0  0
   -8.2087   -2.3505    0.7273 H   0  0  0  0  0  0  0  0  0  0  0  0
   -8.6303    0.0721    0.8389 H   0  0  0  0  0  0  0  0  0  0  0  0
   -4.4610    0.8249    0.1864 H   0  0  0  0  0  0  0  0  0  0  0  0
 34 32  1  0
 32 33  2  0
 32 31  1  0
 33 28  1  0
 31 30  2  0
 18 16  1  0
 28 26  1  0
 28 29  2  0
 30 29  1  0
 26 25  1  0
 26 27  2  0
 25 22  1  0
 15 16  1  0
 15 13  1  0
 21 22  1  0
 21 20  2  0
 16 17  2  0
 22 23  2  0
 12 13  1  0
 12 11  1  0
 20 19  1  0
  6  5  1  0
  6  1  2  0
 13 14  2  0
  5  4  2  0
 23 24  1  0
 19 24  2  0
 19 10  1  0
 11 10  1  0
 11  7  1  0
  1  2  1  0
 10  9  2  0
  4  7  1  0
  4  3  1  0
  7  8  2  0
  2  3  2  0
  9  8  1  0
  1 35  1  0
  2 36  1  0
  3 37  1  0
  5 38  1  0
  6 39  1  0
  8 40  1  0
  9 41  1  0
 12 42  1  0
 12 43  1  0
 15 44  1  0
 17 45  1  0
 18 46  1  0
 18 47  1  0
 20 48  1  0
 21 49  1  0
 23 50  1  0
 24 51  1  0
 25 52  1  0
 29 53  1  0
 30 54  1  0
 31 55  1  0
 33 56  1  0
M  END
