
     RDKit          3D

 24 24  0  0  0  0  0  0  0  0999 V2000
    2.2751   -2.4779   -0.3655 O   0  0  0  0  0  0  0  0  0  0  0  0
    2.0588   -1.2878   -0.1775 C   0  0  0  0  0  0  0  0  0  0  0  0
    3.0382   -0.3804   -0.0383 N   0  0  0  0  0  0  0  0  0  0  0  0
    4.4381   -0.7548   -0.0733 C   0  0  0  0  0  0  0  0  0  0  0  0
    5.3167    0.4813    0.0137 C   0  0  0  0  0  0  0  0  0  0  0  0
    6.7873    0.1107    0.0109 C   0  0  0  0  0  0  0  0  0  0  0  0
    7.5482    1.2972    0.0598 O   0  0  0  0  0  0  0  0  0  0  0  0
    0.6704   -0.7978   -0.0949 C   0  0  0  0  0  0  0  0  0  0  0  0
   -0.4551   -1.5724    0.0649 C   0  0  0  0  0  0  0  0  0  0  0  0
   -1.5539   -0.6954    0.0997 C   0  0  0  0  0  0  0  0  0  0  0  0
   -3.3394   -1.1546    0.3180 Br  0  0  0  0  0  0  0  0  0  0  0  0
   -1.0673    0.5833   -0.0462 C   0  0  0  0  0  0  0  0  0  0  0  0
   -1.9902    2.1800   -0.1239 Br  0  0  0  0  0  0  0  0  0  0  0  0
    0.2776    0.5104   -0.1567 N   0  0  0  0  0  0  0  0  0  0  0  0
    2.8224    0.5483    0.2851 H   0  0  0  0  0  0  0  0  0  0  0  0
    4.6662   -1.4378    0.7512 H   0  0  0  0  0  0  0  0  0  0  0  0
    4.6418   -1.2967   -0.9992 H   0  0  0  0  0  0  0  0  0  0  0  0
    5.1058    1.1443   -0.8302 H   0  0  0  0  0  0  0  0  0  0  0  0
    5.0846    1.0335    0.9294 H   0  0  0  0  0  0  0  0  0  0  0  0
    6.9999   -0.5376    0.8712 H   0  0  0  0  0  0  0  0  0  0  0  0
    7.0140   -0.4751   -0.8899 H   0  0  0  0  0  0  0  0  0  0  0  0
    8.4782    1.0557    0.0842 H   0  0  0  0  0  0  0  0  0  0  0  0
   -0.4806   -2.6454    0.1618 H   0  0  0  0  0  0  0  0  0  0  0  0
    0.8717    1.3054   -0.3380 H   0  0  0  0  0  0  0  0  0  0  0  0
  1  2  2  0
  2  3  1  0
  2  8  1  0
  3  4  1  0
  4  5  1  0
  5  6  1  0
  6  7  1  0
  8  9  2  0
  8 14  1  0
  9 10  1  0
 10 11  1  0
 10 12  2  0
 12 13  1  0
 12 14  1  0
  3 15  1  0
  4 16  1  0
  4 17  1  0
  5 18  1  0
  5 19  1  0
  6 20  1  0
  6 21  1  0
  7 22  1  0
  9 23  1  0
 14 24  1  0
M  END
