
     RDKit          3D

 34 35  0  0  0  0  0  0  0  0999 V2000
   -1.7055    0.6453    2.4453 C   0  0  0  0  0  0  0  0  0  0  0  0
   -1.0610    0.4781    3.6565 C   0  0  0  0  0  0  0  0  0  0  0  0
    0.2355   -0.0214    3.6680 C   0  0  0  0  0  0  0  0  0  0  0  0
    0.8908   -0.3567    2.4949 C   0  0  0  0  0  0  0  0  0  0  0  0
    0.2253   -0.2070    1.2868 C   0  0  0  0  0  0  0  0  0  0  0  0
   -1.0737    0.2884    1.2557 C   0  0  0  0  0  0  0  0  0  0  0  0
   -1.8101    0.5099   -0.0296 C   0  0  0  0  0  0  0  0  0  0  0  0
   -2.5850    1.4457   -0.1501 O   0  0  0  0  0  0  0  0  0  0  0  0
   -1.5566   -0.3877   -0.9964 N   0  0  0  0  0  0  0  0  0  0  0  0
   -2.1230   -0.3247   -2.3247 C   0  0  0  0  0  0  0  0  0  0  0  0
    1.0647   -0.2129    5.2236 S   0  0  2  0  0  0  0  0  0  0  0  0
    0.3864   -1.6147    5.7692 N   0  0  0  0  0  0  0  0  0  0  0  0
    0.6193    0.8276    6.1379 O   0  0  0  0  0  0  0  0  0  0  0  0
    2.4897   -0.3394    4.9535 O   0  0  0  0  0  0  0  0  0  0  0  0
   -1.0555   -0.3344   -3.3844 C   0  0  0  0  0  0  0  0  0  0  0  0
   -0.1555    0.7150   -3.4894 C   0  0  0  0  0  0  0  0  0  0  0  0
    0.8387    0.7251   -4.4483 C   0  0  0  0  0  0  0  0  0  0  0  0
    0.9386   -0.3378   -5.3300 C   0  0  0  0  0  0  0  0  0  0  0  0
    0.0615   -1.3981   -5.2572 C   0  0  0  0  0  0  0  0  0  0  0  0
   -0.9264   -1.3865   -4.2821 C   0  0  0  0  0  0  0  0  0  0  0  0
    1.9038   -0.3103   -6.2497 F   0  0  0  0  0  0  0  0  0  0  0  0
   -0.2386    1.7540   -2.6566 F   0  0  0  0  0  0  0  0  0  0  0  0
    1.6884    1.7476   -4.5253 F   0  0  0  0  0  0  0  0  0  0  0  0
   -2.7090    1.0477    2.4267 H   0  0  0  0  0  0  0  0  0  0  0  0
   -1.5651    0.7409    4.5766 H   0  0  0  0  0  0  0  0  0  0  0  0
    1.9068   -0.7257    2.5065 H   0  0  0  0  0  0  0  0  0  0  0  0
    0.7486   -0.4535    0.3721 H   0  0  0  0  0  0  0  0  0  0  0  0
   -1.0031   -1.2006   -0.7759 H   0  0  0  0  0  0  0  0  0  0  0  0
   -2.7888   -1.1747   -2.4839 H   0  0  0  0  0  0  0  0  0  0  0  0
   -2.7348    0.5734   -2.3940 H   0  0  0  0  0  0  0  0  0  0  0  0
    0.4826   -1.7072    6.7763 H   0  0  0  0  0  0  0  0  0  0  0  0
    0.7521   -2.4383    5.3025 H   0  0  0  0  0  0  0  0  0  0  0  0
    0.1521   -2.2226   -5.9508 H   0  0  0  0  0  0  0  0  0  0  0  0
   -1.6145   -2.2191   -4.2200 H   0  0  0  0  0  0  0  0  0  0  0  0
  1  2  2  0
  1  6  1  0
  1 24  1  0
  2  3  1  0
  2 25  1  0
  3  4  2  0
  3 11  1  0
  4  5  1  0
  4 26  1  0
  5  6  2  0
  5 27  1  0
  6  7  1  0
  7  8  2  0
  7  9  1  0
  9 10  1  0
  9 28  1  0
 10 15  1  0
 10 29  1  0
 10 30  1  0
 11 12  1  1
 11 13  2  0
 11 14  2  0
 12 31  1  0
 12 32  1  0
 15 16  2  0
 15 20  1  0
 16 17  1  0
 16 22  1  0
 17 18  2  0
 17 23  1  0
 18 19  1  0
 18 21  1  0
 19 20  2  0
 19 33  1  0
 20 34  1  0
M  END
