
     RDKit          3D

 16 16  0  0  0  0  0  0  0  0999 V2000
    1.7999    1.0757    0.0502 C   0  0  0  0  0  0  0  0  0  0  0  0
    1.0334   -1.7007   -0.0635 O   0  0  0  0  0  0  0  0  0  0  0  0
   -1.8439    0.3977    0.2833 C   0  0  0  0  0  0  0  0  0  0  0  0
   -1.2952   -0.9571   -0.1513 C   0  0  0  0  0  0  0  0  0  0  0  0
   -0.6953    1.3598   -0.0233 C   0  0  0  0  0  0  0  0  0  0  0  0
    0.2069   -0.8010   -0.0371 C   0  0  0  0  0  0  0  0  0  0  0  0
    0.4768    0.5136    0.0719 N   0  0  0  0  0  0  0  0  0  0  0  0
    1.9088    1.8187    0.8411 H   0  0  0  0  0  0  0  0  0  0  0  0
    2.5365    0.2921    0.2069 H   0  0  0  0  0  0  0  0  0  0  0  0
    2.0074    1.5632   -0.9055 H   0  0  0  0  0  0  0  0  0  0  0  0
   -2.7623    0.6793   -0.2277 H   0  0  0  0  0  0  0  0  0  0  0  0
   -2.0456    0.3947    1.3551 H   0  0  0  0  0  0  0  0  0  0  0  0
   -1.6537   -1.7971    0.4425 H   0  0  0  0  0  0  0  0  0  0  0  0
   -1.5318   -1.1742   -1.1971 H   0  0  0  0  0  0  0  0  0  0  0  0
   -0.7775    1.7930   -1.0262 H   0  0  0  0  0  0  0  0  0  0  0  0
   -0.6339    2.1837    0.6896 H   0  0  0  0  0  0  0  0  0  0  0  0
  1  7  1  0
  1  8  1  0
  1  9  1  0
  1 10  1  0
  6  2  2  0
  5  3  1  0
  3  4  1  0
  3 11  1  0
  3 12  1  0
  6  4  1  0
  4 13  1  0
  4 14  1  0
  7  5  1  0
  5 15  1  0
  5 16  1  0
  7  6  1  0
M  END
