
     RDKit          3D

 58 61  0  0  0  0  0  0  0  0999 V2000
   -2.6615    5.0882    1.8782 C   0  0  0  0  0  0  0  0  0  0  0  0
   -3.4591    4.0647    1.0814 C   0  0  0  0  0  0  0  0  0  0  0  0
   -2.6329    2.8241    0.8271 C   0  0  0  0  0  0  0  0  0  0  0  0
   -3.4358    1.8829    0.1087 O   0  0  0  0  0  0  0  0  0  0  0  0
   -2.9089    0.7149   -0.2087 C   0  0  0  0  0  0  0  0  0  0  0  0
   -1.2509    0.3036    0.0351 S   0  0  0  0  0  0  0  0  0  0  0  0
   -3.5902   -0.3249   -0.7735 C   0  0  0  0  0  0  0  0  0  0  0  0
   -5.4112   -0.1987   -1.1768 Br  0  0  0  0  0  0  0  0  0  0  0  0
   -2.7979   -1.4853   -1.0092 C   0  0  0  0  0  0  0  0  0  0  0  0
   -3.3446   -2.7315   -1.6215 C   0  0  0  0  0  0  0  0  0  0  0  0
   -1.5019   -1.2807   -0.6279 C   0  0  0  0  0  0  0  0  0  0  0  0
   -0.3913   -2.2628   -0.6043 C   0  0  0  0  0  0  0  0  0  0  0  0
   -0.5704   -3.3927   -0.1689 O   0  0  0  0  0  0  0  0  0  0  0  0
    0.8079   -1.8071   -1.0190 N   0  0  0  0  0  0  0  0  0  0  0  0
    1.0567   -0.7914   -2.0443 C   0  0  1  0  0  0  0  0  0  0  0  0
    2.0835    0.1935   -1.4967 C   0  0  0  0  0  0  0  0  0  0  0  0
    1.6104   -1.6340   -3.2093 C   0  0  0  0  0  0  0  0  0  0  0  0
    2.2448   -2.8661   -2.5311 C   0  0  0  0  0  0  0  0  0  0  0  0
    2.0107   -2.6355   -1.0294 C   0  0  1  0  0  0  0  0  0  0  0  0
    3.1286   -1.8242   -0.3748 C   0  0  0  0  0  0  0  0  0  0  0  0
    3.3973   -0.5185   -1.1392 C   0  0  2  0  0  0  0  0  0  0  0  0
    4.3215    0.3975   -0.3770 C   0  0  0  0  0  0  0  0  0  0  0  0
    3.9656    0.8893    0.8774 C   0  0  0  0  0  0  0  0  0  0  0  0
    5.5487    0.8065   -0.8779 C   0  0  0  0  0  0  0  0  0  0  0  0
    5.9471    0.3657   -2.0881 F   0  0  0  0  0  0  0  0  0  0  0  0
    6.3944    1.6539   -0.1890 C   0  0  0  0  0  0  0  0  0  0  0  0
    6.0044    2.1223    1.0563 C   0  0  0  0  0  0  0  0  0  0  0  0
    4.7804    1.7508    1.6033 C   0  0  0  0  0  0  0  0  0  0  0  0
    4.3370    2.2989    2.9368 C   0  0  0  0  0  0  0  0  0  0  0  0
    3.6318    1.3054    3.7273 N   0  0  0  0  0  0  0  0  0  0  0  0
   -2.3734    4.6944    2.8539 H   0  0  0  0  0  0  0  0  0  0  0  0
   -1.7500    5.3783    1.3540 H   0  0  0  0  0  0  0  0  0  0  0  0
   -3.2484    5.9903    2.0449 H   0  0  0  0  0  0  0  0  0  0  0  0
   -4.3649    3.7915    1.6274 H   0  0  0  0  0  0  0  0  0  0  0  0
   -3.7733    4.4955    0.1281 H   0  0  0  0  0  0  0  0  0  0  0  0
   -1.7418    3.0738    0.2394 H   0  0  0  0  0  0  0  0  0  0  0  0
   -2.3061    2.3780    1.7730 H   0  0  0  0  0  0  0  0  0  0  0  0
   -3.7892   -2.5199   -2.5948 H   0  0  0  0  0  0  0  0  0  0  0  0
   -2.5767   -3.4871   -1.7563 H   0  0  0  0  0  0  0  0  0  0  0  0
   -4.1281   -3.1580   -0.9933 H   0  0  0  0  0  0  0  0  0  0  0  0
    0.1407   -0.2739   -2.3224 H   0  0  0  0  0  0  0  0  0  0  0  0
    2.2739    0.9744   -2.2365 H   0  0  0  0  0  0  0  0  0  0  0  0
    1.6638    0.6886   -0.6164 H   0  0  0  0  0  0  0  0  0  0  0  0
    0.7948   -1.9309   -3.8689 H   0  0  0  0  0  0  0  0  0  0  0  0
    2.3214   -1.0659   -3.8106 H   0  0  0  0  0  0  0  0  0  0  0  0
    1.7457   -3.7817   -2.8484 H   0  0  0  0  0  0  0  0  0  0  0  0
    3.3046   -2.9794   -2.7622 H   0  0  0  0  0  0  0  0  0  0  0  0
    1.8463   -3.5606   -0.4818 H   0  0  0  0  0  0  0  0  0  0  0  0
    2.8435   -1.6182    0.6604 H   0  0  0  0  0  0  0  0  0  0  0  0
    4.0418   -2.4228   -0.3412 H   0  0  0  0  0  0  0  0  0  0  0  0
    3.8826   -0.7925   -2.0781 H   0  0  0  0  0  0  0  0  0  0  0  0
    3.0185    0.5907    1.3119 H   0  0  0  0  0  0  0  0  0  0  0  0
    7.3462    1.9384   -0.6186 H   0  0  0  0  0  0  0  0  0  0  0  0
    6.6647    2.7834    1.6044 H   0  0  0  0  0  0  0  0  0  0  0  0
    5.2088    2.7356    3.4420 H   0  0  0  0  0  0  0  0  0  0  0  0
    3.6480    3.1301    2.7603 H   0  0  0  0  0  0  0  0  0  0  0  0
    4.2853    0.6072    4.0593 H   0  0  0  0  0  0  0  0  0  0  0  0
    3.2485    1.7460    4.5533 H   0  0  0  0  0  0  0  0  0  0  0  0
 30 29  1  0
 29 28  1  0
  1  2  1  0
 13 12  2  0
 28 23  2  0
 28 27  1  0
  2  3  1  0
  3  4  1  0
 23 22  1  0
  6 11  1  0
  6  5  1  0
 16 15  1  0
 16 21  1  0
 12 11  1  0
 12 14  1  0
 27 26  2  0
 15 14  1  0
 15 17  1  0
 11  9  2  0
 14 19  1  0
  4  5  1  0
 22 21  1  0
 22 24  2  0
  5  7  2  0
 21 20  1  0
 26 24  1  0
 17 18  1  0
  9  7  1  0
  9 10  1  0
 24 25  1  0
  7  8  1  0
 20 19  1  0
 19 18  1  0
  1 31  1  0
  1 32  1  0
  1 33  1  0
  2 34  1  0
  2 35  1  0
  3 36  1  0
  3 37  1  0
 10 38  1  0
 10 39  1  0
 10 40  1  0
 15 41  1  6
 16 42  1  0
 16 43  1  0
 17 44  1  0
 17 45  1  0
 18 46  1  0
 18 47  1  0
 19 48  1  1
 20 49  1  0
 20 50  1  0
 21 51  1  6
 23 52  1  0
 26 53  1  0
 27 54  1  0
 29 55  1  0
 29 56  1  0
 30 57  1  0
 30 58  1  0
M  END
