
     RDKit          3D

 49 50  0  0  0  0  0  0  0  0999 V2000
    6.7561    1.0418   -1.2138 C   0  0  0  0  0  0  0  0  0  0  0  0
    6.2961   -0.2289   -0.5000 C   0  0  1  0  0  0  0  0  0  0  0  0
    7.1520   -0.4914    0.7397 C   0  0  0  0  0  0  0  0  0  0  0  0
    4.8278   -0.1808   -0.1467 C   0  0  0  0  0  0  0  0  0  0  0  0
    3.9578   -1.1822   -0.5705 C   0  0  0  0  0  0  0  0  0  0  0  0
    2.6103   -1.1561   -0.2379 C   0  0  0  0  0  0  0  0  0  0  0  0
    4.2981    0.8502    0.6265 C   0  0  0  0  0  0  0  0  0  0  0  0
    2.9499    0.8793    0.9551 C   0  0  0  0  0  0  0  0  0  0  0  0
    2.0806   -0.1227    0.5308 C   0  0  0  0  0  0  0  0  0  0  0  0
    0.6144   -0.0757    0.8607 C   0  0  0  0  0  0  0  0  0  0  0  0
   -0.2393    0.2984   -0.3531 C   0  0  0  0  0  0  0  0  0  0  0  0
   -1.7232    0.4721   -0.0447 C   0  0  1  0  0  0  0  0  0  0  0  0
   -2.4829    0.9775   -1.2684 C   0  0  0  0  0  0  0  0  0  0  0  0
   -3.9601    1.1539   -0.9645 C   0  0  0  0  0  0  0  0  0  0  0  0
   -2.3869   -0.8132    0.4416 C   0  0  0  0  0  0  0  0  0  0  0  0
   -3.8750   -0.6233    0.6973 C   0  0  0  0  0  0  0  0  0  0  0  0
   -4.5465   -0.0787   -0.4630 N   0  0  0  0  0  0  0  0  0  0  0  0
   -5.9274   -0.1335   -0.4962 C   0  0  0  0  0  0  0  0  0  0  0  0
   -6.7613   -0.7131    0.3767 C   0  0  0  0  0  0  0  0  0  0  0  0
   -8.2402   -0.7902    0.1569 C   0  0  0  0  0  0  0  0  0  0  0  0
    7.7909    0.9410   -1.5453 H   0  0  0  0  0  0  0  0  0  0  0  0
    6.1443    1.2544   -2.0911 H   0  0  0  0  0  0  0  0  0  0  0  0
    6.7103    1.9111   -0.5545 H   0  0  0  0  0  0  0  0  0  0  0  0
    6.4373   -1.0678   -1.1889 H   0  0  0  0  0  0  0  0  0  0  0  0
    7.0572    0.3236    1.4598 H   0  0  0  0  0  0  0  0  0  0  0  0
    6.8582   -1.4158    1.2383 H   0  0  0  0  0  0  0  0  0  0  0  0
    8.2065   -0.5752    0.4710 H   0  0  0  0  0  0  0  0  0  0  0  0
    4.3415   -2.0021   -1.1678 H   0  0  0  0  0  0  0  0  0  0  0  0
    1.9629   -1.9540   -0.5854 H   0  0  0  0  0  0  0  0  0  0  0  0
    4.9402    1.6466    0.9860 H   0  0  0  0  0  0  0  0  0  0  0  0
    2.5672    1.6976    1.5548 H   0  0  0  0  0  0  0  0  0  0  0  0
    0.2984   -1.0463    1.2521 H   0  0  0  0  0  0  0  0  0  0  0  0
    0.4435    0.6528    1.6583 H   0  0  0  0  0  0  0  0  0  0  0  0
    0.1438    1.2327   -0.7762 H   0  0  0  0  0  0  0  0  0  0  0  0
   -0.1193   -0.4626   -1.1327 H   0  0  0  0  0  0  0  0  0  0  0  0
   -1.8258    1.2268    0.7480 H   0  0  0  0  0  0  0  0  0  0  0  0
   -2.0724    1.9335   -1.6038 H   0  0  0  0  0  0  0  0  0  0  0  0
   -2.3629    0.2663   -2.0928 H   0  0  0  0  0  0  0  0  0  0  0  0
   -4.0830    1.9711   -0.2360 H   0  0  0  0  0  0  0  0  0  0  0  0
   -4.4992    1.4508   -1.8666 H   0  0  0  0  0  0  0  0  0  0  0  0
   -2.2454   -1.5976   -0.3104 H   0  0  0  0  0  0  0  0  0  0  0  0
   -1.9238   -1.1694    1.3643 H   0  0  0  0  0  0  0  0  0  0  0  0
   -4.3231   -1.5883    0.9399 H   0  0  0  0  0  0  0  0  0  0  0  0
   -4.0201    0.0254    1.5767 H   0  0  0  0  0  0  0  0  0  0  0  0
   -6.3474    0.3427   -1.3793 H   0  0  0  0  0  0  0  0  0  0  0  0
   -6.3829   -1.1704    1.2846 H   0  0  0  0  0  0  0  0  0  0  0  0
   -8.5858   -1.8231    0.0599 H   0  0  0  0  0  0  0  0  0  0  0  0
   -8.7954   -0.3568    0.9924 H   0  0  0  0  0  0  0  0  0  0  0  0
   -8.5406   -0.2606   -0.7487 H   0  0  0  0  0  0  0  0  0  0  0  0
 20 19  1  0
 19 18  2  0
 18 17  1  0
 16 17  1  0
 16 15  1  0
 17 14  1  0
 15 12  1  0
 14 13  1  0
 12 13  1  0
 12 11  1  0
 11 10  1  0
 10  9  1  0
  9  8  2  0
  9  6  1  0
  8  7  1  0
  6  5  2  0
  7  4  2  0
  1  2  1  0
  5  4  1  0
  4  2  1  0
  2  3  1  0
  1 21  1  0
  1 22  1  0
  1 23  1  0
  2 24  1  6
  3 25  1  0
  3 26  1  0
  3 27  1  0
  5 28  1  0
  6 29  1  0
  7 30  1  0
  8 31  1  0
 10 32  1  0
 10 33  1  0
 11 34  1  0
 11 35  1  0
 12 36  1  1
 13 37  1  0
 13 38  1  0
 14 39  1  0
 14 40  1  0
 15 41  1  0
 15 42  1  0
 16 43  1  0
 16 44  1  0
 18 45  1  0
 19 46  1  0
 20 47  1  0
 20 48  1  0
 20 49  1  0
M  END
