
     RDKit          3D

 18 17  0  0  0  0  0  0  0  0999 V2000
   -0.6388    0.1155    1.8771 O   0  0  0  0  0  0  0  0  0  0  0  0
    0.7421   -0.0387    2.1188 C   0  0  1  0  0  0  0  0  0  0  0  0
    1.5698    0.1124    0.8504 C   0  0  0  0  0  0  0  0  0  0  0  0
    1.2365    0.9060    3.2137 C   0  0  1  0  0  0  0  0  0  0  0  0
    1.1669    2.2481    2.7803 O   0  0  0  0  0  0  0  0  0  0  0  0
    0.2381    0.8309    4.7449 P   0  0  1  0  0  0  0  0  0  0  0  0
   -1.1334    1.3965    4.7313 O   0  0  0  0  0  0  0  0  0  0  0  0
    0.3306   -0.7323    5.1136 O   0  0  0  0  0  0  0  0  0  0  0  0
    1.2268    1.5806    5.7759 O   0  0  0  0  0  0  0  0  0  0  0  0
   -0.7990    1.0132    1.5661 H   0  0  0  0  0  0  0  0  0  0  0  0
    0.8642   -1.0584    2.4917 H   0  0  0  0  0  0  0  0  0  0  0  0
    2.6246   -0.0826    1.0480 H   0  0  0  0  0  0  0  0  0  0  0  0
    1.2363   -0.6013    0.0970 H   0  0  0  0  0  0  0  0  0  0  0  0
    1.4855    1.1153    0.4308 H   0  0  0  0  0  0  0  0  0  0  0  0
    2.2630    0.6124    3.4649 H   0  0  0  0  0  0  0  0  0  0  0  0
    1.9922    2.6912    2.9926 H   0  0  0  0  0  0  0  0  0  0  0  0
   -0.3322   -1.0260    5.7533 H   0  0  0  0  0  0  0  0  0  0  0  0
    0.7598    2.0819    6.4572 H   0  0  0  0  0  0  0  0  0  0  0  0
  1  2  1  0
  1 10  1  0
  2  3  1  0
  2  4  1  0
  2 11  1  1
  3 12  1  0
  3 13  1  0
  3 14  1  0
  4  5  1  0
  4  6  1  0
  4 15  1  1
  5 16  1  0
  6  7  2  0
  6  8  1  1
  6  9  1  0
  8 17  1  0
  9 18  1  0
M  END
