
     RDKit          3D

 32 32  0  0  0  0  0  0  0  0999 V2000
   -2.0356    1.5210   -1.0246 N   0  0  0  0  0  0  0  0  0  0  0  0
   -1.7724    0.1105   -1.2207 C   0  0  2  0  0  0  0  0  0  0  0  0
   -3.0645   -0.6085   -1.5920 C   0  0  0  0  0  0  0  0  0  0  0  0
   -3.9493   -0.0446   -2.2150 O   0  0  0  0  0  0  0  0  0  0  0  0
   -1.0065   -0.5765   -0.0966 C   0  0  0  0  0  0  0  0  0  0  0  0
   -0.9179   -2.0655   -0.3686 C   0  0  0  0  0  0  0  0  0  0  0  0
   -2.3042   -2.6711   -0.3989 C   0  0  1  0  0  0  0  0  0  0  0  0
   -2.8146   -2.6884    0.9068 O   0  0  0  0  0  0  0  0  0  0  0  0
   -3.1758   -1.9321   -1.3043 N   0  0  0  0  0  0  0  0  0  0  0  0
   -4.3439   -2.6220   -1.8196 C   0  0  1  0  0  0  0  0  0  0  0  0
   -5.6782   -2.2955   -1.0988 C   0  0  1  0  0  0  0  0  0  0  0  0
   -6.6249   -3.4798   -1.1508 C   0  0  0  0  0  0  0  0  0  0  0  0
   -5.4360   -2.0017    0.2687 O   0  0  0  0  0  0  0  0  0  0  0  0
   -4.4648   -2.4473   -3.3270 C   0  0  0  0  0  0  0  0  0  0  0  0
   -5.5097   -2.3542   -3.9188 O   0  0  0  0  0  0  0  0  0  0  0  0
   -3.2853   -2.4980   -3.9255 O   0  0  0  0  0  0  0  0  0  0  0  0
   -1.1496    2.0043   -0.9484 H   0  0  0  0  0  0  0  0  0  0  0  0
   -2.5001    1.6618   -0.1347 H   0  0  0  0  0  0  0  0  0  0  0  0
   -1.1620    0.0220   -2.1302 H   0  0  0  0  0  0  0  0  0  0  0  0
   -1.5030   -0.3919    0.8600 H   0  0  0  0  0  0  0  0  0  0  0  0
   -0.0101   -0.1367   -0.0256 H   0  0  0  0  0  0  0  0  0  0  0  0
   -0.4289   -2.2504   -1.3285 H   0  0  0  0  0  0  0  0  0  0  0  0
   -0.3278   -2.5798    0.3914 H   0  0  0  0  0  0  0  0  0  0  0  0
   -2.2460   -3.6906   -0.7999 H   0  0  0  0  0  0  0  0  0  0  0  0
   -3.7830   -2.6113    0.8590 H   0  0  0  0  0  0  0  0  0  0  0  0
   -4.1464   -3.6917   -1.6734 H   0  0  0  0  0  0  0  0  0  0  0  0
   -6.1473   -1.4342   -1.5773 H   0  0  0  0  0  0  0  0  0  0  0  0
   -6.2092   -4.3346   -0.6130 H   0  0  0  0  0  0  0  0  0  0  0  0
   -6.8152   -3.7887   -2.1767 H   0  0  0  0  0  0  0  0  0  0  0  0
   -7.5821   -3.2228   -0.6973 H   0  0  0  0  0  0  0  0  0  0  0  0
   -5.3545   -1.0488    0.3769 H   0  0  0  0  0  0  0  0  0  0  0  0
   -3.4025   -2.4176   -4.8840 H   0  0  0  0  0  0  0  0  0  0  0  0
  1  2  1  0
  1 17  1  0
  1 18  1  0
  2  3  1  0
  2  5  1  0
  2 19  1  6
  3  4  2  0
  3  9  1  0
  5  6  1  0
  5 20  1  0
  5 21  1  0
  6  7  1  0
  6 22  1  0
  6 23  1  0
  7  8  1  0
  7  9  1  0
  7 24  1  6
  8 25  1  0
  9 10  1  0
 10 11  1  0
 10 14  1  0
 10 26  1  6
 11 12  1  0
 11 13  1  0
 11 27  1  6
 12 28  1  0
 12 29  1  0
 12 30  1  0
 13 31  1  0
 14 15  2  0
 14 16  1  0
 16 32  1  0
M  END
