
     RDKit          3D

 25 26  0  0  0  0  0  0  0  0999 V2000
   -4.7891   -1.1850   -0.1377 O   0  0  0  0  0  0  0  0  0  0  0  0
   -3.6949   -0.6510   -0.1022 C   0  0  0  0  0  0  0  0  0  0  0  0
   -3.4220    0.6862    0.0306 N   0  0  0  0  0  0  0  0  0  0  0  0
   -2.4667   -1.2622   -0.1875 N   0  0  0  0  0  0  0  0  0  0  0  0
   -1.4497   -0.3373   -0.1111 C   0  0  0  0  0  0  0  0  0  0  0  0
   -2.0605    0.9105    0.0281 C   0  0  0  0  0  0  0  0  0  0  0  0
   -1.2957    2.0547    0.1275 C   0  0  0  0  0  0  0  0  0  0  0  0
    0.0855    1.9140    0.0893 C   0  0  0  0  0  0  0  0  0  0  0  0
   -0.0777   -0.4948   -0.1557 C   0  0  0  0  0  0  0  0  0  0  0  0
    0.6991    0.6633   -0.0511 C   0  0  0  0  0  0  0  0  0  0  0  0
    2.0990    0.6567   -0.0994 N   0  0  0  0  0  0  0  0  0  0  0  0
    2.9590   -0.3881    0.0012 C   0  0  0  0  0  0  0  0  0  0  0  0
    2.6166   -1.5474    0.1372 O   0  0  0  0  0  0  0  0  0  0  0  0
    4.4161    0.0313   -0.1083 C   0  0  0  0  0  0  0  0  0  0  0  0
    5.3018   -1.0853    0.1228 N   0  0  0  0  0  0  0  0  0  0  0  0
   -4.1385    1.3881    0.1197 H   0  0  0  0  0  0  0  0  0  0  0  0
   -2.3539   -2.2581   -0.2868 H   0  0  0  0  0  0  0  0  0  0  0  0
   -1.7447    3.0325    0.2370 H   0  0  0  0  0  0  0  0  0  0  0  0
    0.7033    2.7998    0.1719 H   0  0  0  0  0  0  0  0  0  0  0  0
    0.3611   -1.4722   -0.2724 H   0  0  0  0  0  0  0  0  0  0  0  0
    2.5212    1.5705   -0.1749 H   0  0  0  0  0  0  0  0  0  0  0  0
    4.5402    0.5246   -1.0841 H   0  0  0  0  0  0  0  0  0  0  0  0
    4.6121    0.8029    0.6412 H   0  0  0  0  0  0  0  0  0  0  0  0
    5.2233   -1.7482   -0.6371 H   0  0  0  0  0  0  0  0  0  0  0  0
    6.2555   -0.7499    0.1016 H   0  0  0  0  0  0  0  0  0  0  0  0
 15 14  1  0
 13 12  2  0
 14 12  1  0
 12 11  1  0
 11 10  1  0
  9 10  1  0
  9  5  2  0
 10  8  2  0
  4  5  1  0
  4  2  1  0
  5  6  1  0
  8  7  1  0
  2  1  2  0
  2  3  1  0
  6  7  2  0
  6  3  1  0
  3 16  1  0
  4 17  1  0
  7 18  1  0
  8 19  1  0
  9 20  1  0
 11 21  1  0
 14 22  1  0
 14 23  1  0
 15 24  1  0
 15 25  1  0
M  END
