
     RDKit          3D

 43 46  0  0  0  0  0  0  0  0999 V2000
    3.2287    3.5104    0.3567 C   0  0  0  0  0  0  0  0  0  0  0  0
    3.4538    2.8788   -0.8566 C   0  0  0  0  0  0  0  0  0  0  0  0
    3.4995    0.8394   -2.2952 C   0  0  1  0  0  0  0  0  0  0  0  0
   -2.0968   -0.3040    0.1230 C   0  0  0  0  0  0  0  0  0  0  0  0
   -4.5649    0.9952    0.3108 C   0  0  0  0  0  0  0  0  0  0  0  0
   -3.1768   -0.6953   -0.6647 C   0  0  0  0  0  0  0  0  0  0  0  0
   -4.3916   -0.0684   -0.5804 C   0  0  0  0  0  0  0  0  0  0  0  0
   -5.8583    1.6867    0.4319 C   0  0  0  0  0  0  0  0  0  0  0  0
   -6.0388    2.6247    1.1894 O   0  0  0  0  0  0  0  0  0  0  0  0
   -6.8022    1.2064   -0.3481 O   0  0  0  0  0  0  0  0  0  0  0  0
   -3.4845    1.4208    1.1044 C   0  0  0  0  0  0  0  0  0  0  0  0
   -3.5619    2.4275    1.9722 O   0  0  0  0  0  0  0  0  0  0  0  0
   -2.2615    0.7582    0.9959 C   0  0  0  0  0  0  0  0  0  0  0  0
   -0.8016   -0.9797    0.0406 C   0  0  0  0  0  0  0  0  0  0  0  0
   -0.5139   -2.3902    0.0708 C   0  0  0  0  0  0  0  0  0  0  0  0
   -1.3314   -3.4340    0.1435 N   0  0  0  0  0  0  0  0  0  0  0  0
   -0.7423   -4.6133    0.1816 C   0  0  0  0  0  0  0  0  0  0  0  0
    0.3003   -0.2952    0.0145 N   0  0  0  0  0  0  0  0  0  0  0  0
    1.3272   -1.1728    0.0209 N   0  0  0  0  0  0  0  0  0  0  0  0
    0.8797   -2.4750    0.0567 C   0  0  0  0  0  0  0  0  0  0  0  0
    1.5052   -3.7172    0.0931 C   0  0  0  0  0  0  0  0  0  0  0  0
    0.6499   -4.7982    0.1531 C   0  0  0  0  0  0  0  0  0  0  0  0
    2.6284   -0.7153    0.0501 C   0  0  0  0  0  0  0  0  0  0  0  0
    3.5635   -1.4715    0.0467 O   0  0  0  0  0  0  0  0  0  0  0  0
    2.7825    0.7751    0.1129 C   0  0  0  0  0  0  0  0  0  0  0  0
    3.2348    1.5147   -0.9796 C   0  0  0  0  0  0  0  0  0  0  0  0
    3.4698    1.6983   -3.3134 F   0  0  0  0  0  0  0  0  0  0  0  0
    4.6980    0.2473   -2.3141 F   0  0  0  0  0  0  0  0  0  0  0  0
    2.5888   -0.1096   -2.5545 F   0  0  0  0  0  0  0  0  0  0  0  0
    2.7805    2.7906    1.4501 C   0  0  0  0  0  0  0  0  0  0  0  0
    2.5610    1.4299    1.3167 C   0  0  0  0  0  0  0  0  0  0  0  0
    1.9999    0.5311    2.6800 Cl  0  0  0  0  0  0  0  0  0  0  0  0
    3.4000    4.5735    0.4502 H   0  0  0  0  0  0  0  0  0  0  0  0
    3.7961    3.4621   -1.6995 H   0  0  0  0  0  0  0  0  0  0  0  0
   -5.2021   -0.3994   -1.2152 H   0  0  0  0  0  0  0  0  0  0  0  0
   -7.6273    1.7007   -0.2264 H   0  0  0  0  0  0  0  0  0  0  0  0
   -4.4703    2.7919    1.9448 H   0  0  0  0  0  0  0  0  0  0  0  0
   -1.4353    1.0706    1.6220 H   0  0  0  0  0  0  0  0  0  0  0  0
   -1.3914   -5.4786    0.2415 H   0  0  0  0  0  0  0  0  0  0  0  0
    2.5766   -3.8424    0.0790 H   0  0  0  0  0  0  0  0  0  0  0  0
    1.0465   -5.8032    0.1846 H   0  0  0  0  0  0  0  0  0  0  0  0
    2.6003    3.2799    2.3972 H   0  0  0  0  0  0  0  0  0  0  0  0
   -3.0081   -1.6847   -1.5515 F   0  0  0  0  0  0  0  0  0  0  0  0
 22 21  2  0
 22 17  1  0
 21 20  1  0
 17 16  2  0
 24 23  2  0
 20 19  1  0
 20 15  2  0
 32 31  1  0
 16 15  1  0
 23 19  1  0
 23 25  1  0
 19 18  1  0
 15 14  1  0
 31 25  2  0
 31 30  1  0
 25 26  1  0
  3 29  1  6
 18 14  2  0
 14  4  1  0
 30  1  2  0
 26  3  1  0
 26  2  2  0
  3 27  1  0
  3 28  1  0
  4 13  2  0
  4  6  1  0
  1  2  1  0
 43  6  1  0
 13 11  1  0
  6  7  2  0
 11 12  1  0
 11  5  2  0
  7  5  1  0
  5  8  1  0
  8  9  2  0
  8 10  1  0
  1 33  1  0
  2 34  1  0
  7 35  1  0
 10 36  1  0
 12 37  1  0
 13 38  1  0
 17 39  1  0
 21 40  1  0
 22 41  1  0
 30 42  1  0
M  END
