
     RDKit          3D

 26 26  0  0  0  0  0  0  0  0999 V2000
   -2.8693   -1.3312    1.3533 C   0  0  0  0  0  0  0  0  0  0  0  0
    2.0451   -3.4699   -0.1967 O   0  0  0  0  0  0  0  0  0  0  0  0
    1.1922    3.6279   -0.0954 O   0  0  0  0  0  0  0  0  0  0  0  0
   -4.3145   -0.2562   -0.5706 O   0  0  0  0  0  0  0  0  0  0  0  0
   -2.7772    1.2223    0.7627 O   0  0  0  0  0  0  0  0  0  0  0  0
    0.3069   -1.2820   -0.4897 C   0  0  0  0  0  0  0  0  0  0  0  0
    0.0180    1.1024   -0.4581 C   0  0  0  0  0  0  0  0  0  0  0  0
    2.1762    0.1435    0.0303 C   0  0  0  0  0  0  0  0  0  0  0  0
    3.7316   -2.0968    0.3014 O   0  0  0  0  0  0  0  0  0  0  0  0
    3.1461    2.6766    0.4069 O   0  0  0  0  0  0  0  0  0  0  0  0
   -1.8670   -0.3204   -1.0013 N   0  0  0  0  0  0  0  0  0  0  0  0
    2.4776   -2.3565   -0.0278 C   0  0  0  0  0  0  0  0  0  0  0  0
    1.8700    2.6422    0.0615 C   0  0  0  0  0  0  0  0  0  0  0  0
   -0.5092   -0.1695   -0.6364 C   0  0  0  0  0  0  0  0  0  0  0  0
    1.6505   -1.1279   -0.1666 C   0  0  0  0  0  0  0  0  0  0  0  0
    1.3556    1.2574   -0.1150 C   0  0  0  0  0  0  0  0  0  0  0  0
   -3.0613   -0.0550    0.1333 S   0  0  1  0  0  0  0  0  0  0  0  0
   -3.0059   -2.3018    0.8824 H   0  0  0  0  0  0  0  0  0  0  0  0
   -1.8800   -1.2605    1.8005 H   0  0  0  0  0  0  0  0  0  0  0  0
   -3.6294   -1.1764    2.1174 H   0  0  0  0  0  0  0  0  0  0  0  0
   -0.1043   -2.2733   -0.6349 H   0  0  0  0  0  0  0  0  0  0  0  0
   -0.6089    1.9703   -0.6043 H   0  0  0  0  0  0  0  0  0  0  0  0
    3.2182    0.2664    0.2863 H   0  0  0  0  0  0  0  0  0  0  0  0
    4.2331   -2.9215    0.3896 H   0  0  0  0  0  0  0  0  0  0  0  0
    3.4384    3.5943    0.5125 H   0  0  0  0  0  0  0  0  0  0  0  0
   -2.0632   -1.1395   -1.5677 H   0  0  0  0  0  0  0  0  0  0  0  0
  1 17  1  0
  2 12  2  0
  3 13  2  0
  4 17  2  0
  5 17  2  0
  6 14  2  0
  6 15  1  0
  7 14  1  0
  7 16  2  0
  8 15  2  0
  8 16  1  0
  9 12  1  0
 10 13  1  0
 11 14  1  0
 17 11  1  6
 12 15  1  0
 13 16  1  0
  1 18  1  0
  1 19  1  0
  1 20  1  0
  6 21  1  0
  7 22  1  0
  8 23  1  0
  9 24  1  0
 10 25  1  0
 11 26  1  0
M  END
