
     RDKit          3D

 22 21  0  0  0  0  0  0  0  0999 V2000
    2.5396    0.5351   -0.1309 C   0  0  0  0  0  0  0  0  0  0  0  0
    1.2002    1.0512   -0.5715 C   0  0  0  0  0  0  0  0  0  0  0  0
    0.0057    0.3085    0.0572 C   0  0  1  0  0  0  0  0  0  0  0  0
   -1.2545    0.9157   -0.5811 C   0  0  0  0  0  0  0  0  0  0  0  0
   -2.5170    0.2693   -0.0807 C   0  0  0  0  0  0  0  0  0  0  0  0
    0.2485   -1.4960   -1.5018 O   0  0  0  0  0  0  0  0  0  0  0  0
    0.0968   -1.1641   -0.3513 C   0  0  0  0  0  0  0  0  0  0  0  0
    0.0079   -2.0174    0.6491 O   0  0  0  0  0  0  0  0  0  0  0  0
    2.7135   -0.4968    0.4707 O   0  0  0  0  0  0  0  0  0  0  0  0
    3.5244    1.3407   -0.4989 O   0  0  0  0  0  0  0  0  0  0  0  0
   -0.1181    0.4553    1.4913 N   0  0  0  0  0  0  0  0  0  0  0  0
   -3.4219    1.1528    0.3143 O   0  0  0  0  0  0  0  0  0  0  0  0
   -2.7040   -0.9219   -0.0720 O   0  0  0  0  0  0  0  0  0  0  0  0
    1.1238    2.1153   -0.3319 H   0  0  0  0  0  0  0  0  0  0  0  0
    1.1475    0.9886   -1.6652 H   0  0  0  0  0  0  0  0  0  0  0  0
   -1.2643    1.9893   -0.3858 H   0  0  0  0  0  0  0  0  0  0  0  0
   -1.2233    0.7955   -1.6669 H   0  0  0  0  0  0  0  0  0  0  0  0
    0.6891    0.0812    1.9734 H   0  0  0  0  0  0  0  0  0  0  0  0
   -0.1645    1.4391    1.7287 H   0  0  0  0  0  0  0  0  0  0  0  0
    0.0765   -2.9216    0.3075 H   0  0  0  0  0  0  0  0  0  0  0  0
    4.3781    0.9761   -0.2197 H   0  0  0  0  0  0  0  0  0  0  0  0
   -4.2324    0.6976    0.5896 H   0  0  0  0  0  0  0  0  0  0  0  0
  6  7  2  0
  7  8  1  0
  3  7  1  1
  9  1  2  0
 13  5  2  0
  4  3  1  0
  4  5  1  0
  3 11  1  0
  3  2  1  0
  1  2  1  0
  1 10  1  0
  5 12  1  0
  2 14  1  0
  2 15  1  0
  4 16  1  0
  4 17  1  0
 11 18  1  0
 11 19  1  0
  8 20  1  0
 10 21  1  0
 12 22  1  0
M  END
