
     RDKit          3D

 63 66  0  0  0  0  0  0  0  0999 V2000
   -1.5315    2.0245   -2.3482 C   0  0  0  0  0  0  0  0  0  0  0  0
   -1.1565    0.6079   -1.9470 C   0  0  0  0  0  0  0  0  0  0  0  0
   -0.7547    0.4782   -0.5459 N   0  0  0  0  0  0  0  0  0  0  0  0
   -1.6247    0.4128    0.4854 C   0  0  0  0  0  0  0  0  0  0  0  0
   -1.2758    0.4882    1.6524 O   0  0  0  0  0  0  0  0  0  0  0  0
   -3.0667    0.1938    0.1477 C   0  0  0  0  0  0  0  0  0  0  0  0
   -3.4880   -1.0626   -0.2624 C   0  0  0  0  0  0  0  0  0  0  0  0
   -4.8337   -1.3279   -0.4771 C   0  0  0  0  0  0  0  0  0  0  0  0
   -5.7587   -0.3144   -0.2819 C   0  0  0  0  0  0  0  0  0  0  0  0
   -5.3559    0.9516    0.1261 C   0  0  0  0  0  0  0  0  0  0  0  0
   -4.0060    1.2092    0.3524 C   0  0  0  0  0  0  0  0  0  0  0  0
   -3.5146    2.3973    0.7452 O   0  0  0  0  0  0  0  0  0  0  0  0
   -4.4081    3.4802    0.9184 C   0  0  0  0  0  0  0  0  0  0  0  0
    0.6328    0.3958   -0.2621 C   0  0  0  0  0  0  0  0  0  0  0  0
    1.4260    1.5347   -0.4155 C   0  0  0  0  0  0  0  0  0  0  0  0
    2.7834    1.4082   -0.2162 C   0  0  0  0  0  0  0  0  0  0  0  0
    3.8135    2.3168   -0.3079 N   0  0  0  0  0  0  0  0  0  0  0  0
    3.6693    3.7083   -0.6501 C   0  0  0  0  0  0  0  0  0  0  0  0
    5.0054    1.7032    0.0021 C   0  0  0  0  0  0  0  0  0  0  0  0
    6.1083    2.2196    0.0231 O   0  0  0  0  0  0  0  0  0  0  0  0
    4.7023    0.3899    0.2809 N   0  0  0  0  0  0  0  0  0  0  0  0
    5.6627   -0.6162    0.6530 C   0  0  0  0  0  0  0  0  0  0  0  0
    3.3472    0.1853    0.1526 C   0  0  0  0  0  0  0  0  0  0  0  0
    2.5677   -0.9378    0.3228 C   0  0  0  0  0  0  0  0  0  0  0  0
    1.1890   -0.8360    0.1068 C   0  0  0  0  0  0  0  0  0  0  0  0
    0.3451   -1.9688    0.2714 N   0  0  0  0  0  0  0  0  0  0  0  0
    0.3202   -2.4314    1.6567 C   0  0  0  0  0  0  0  0  0  0  0  0
   -0.7308   -3.5146    1.8301 C   0  0  0  0  0  0  0  0  0  0  0  0
   -0.5390   -4.6376    0.9290 N   0  0  0  0  0  0  0  0  0  0  0  0
   -0.4137   -4.1724   -0.4381 C   0  0  0  0  0  0  0  0  0  0  0  0
    0.6238   -3.0692   -0.6572 C   0  0  1  0  0  0  0  0  0  0  0  0
    0.5789   -2.6152   -2.1053 C   0  0  0  0  0  0  0  0  0  0  0  0
   -1.8334    2.0422   -3.3955 H   0  0  0  0  0  0  0  0  0  0  0  0
   -2.3615    2.4047   -1.7548 H   0  0  0  0  0  0  0  0  0  0  0  0
   -0.6927    2.7104   -2.2322 H   0  0  0  0  0  0  0  0  0  0  0  0
   -1.9807   -0.0716   -2.1585 H   0  0  0  0  0  0  0  0  0  0  0  0
   -0.3188    0.2626   -2.5513 H   0  0  0  0  0  0  0  0  0  0  0  0
   -2.7473   -1.8398   -0.4104 H   0  0  0  0  0  0  0  0  0  0  0  0
   -5.1521   -2.3116   -0.7936 H   0  0  0  0  0  0  0  0  0  0  0  0
   -6.8115   -0.5011   -0.4485 H   0  0  0  0  0  0  0  0  0  0  0  0
   -6.1029    1.7212    0.2639 H   0  0  0  0  0  0  0  0  0  0  0  0
   -3.8053    4.3286    1.2319 H   0  0  0  0  0  0  0  0  0  0  0  0
   -4.9212    3.7362   -0.0120 H   0  0  0  0  0  0  0  0  0  0  0  0
   -5.1544    3.2741    1.6896 H   0  0  0  0  0  0  0  0  0  0  0  0
    0.9811    2.4842   -0.6822 H   0  0  0  0  0  0  0  0  0  0  0  0
    3.2096    4.2696    0.1636 H   0  0  0  0  0  0  0  0  0  0  0  0
    4.6478    4.1313   -0.8580 H   0  0  0  0  0  0  0  0  0  0  0  0
    3.0516    3.8115   -1.5414 H   0  0  0  0  0  0  0  0  0  0  0  0
    6.6489   -0.1650    0.7070 H   0  0  0  0  0  0  0  0  0  0  0  0
    5.4183   -1.0379    1.6275 H   0  0  0  0  0  0  0  0  0  0  0  0
    5.6863   -1.4201   -0.0825 H   0  0  0  0  0  0  0  0  0  0  0  0
    3.0068   -1.8855    0.6104 H   0  0  0  0  0  0  0  0  0  0  0  0
    1.2979   -2.8365    1.9690 H   0  0  0  0  0  0  0  0  0  0  0  0
    0.0961   -1.5852    2.3061 H   0  0  0  0  0  0  0  0  0  0  0  0
    1.6214   -3.4992   -0.4528 H   0  0  0  0  0  0  0  0  0  0  0  0
   -0.7217   -3.8744    2.8608 H   0  0  0  0  0  0  0  0  0  0  0  0
   -1.7220   -3.0872    1.6462 H   0  0  0  0  0  0  0  0  0  0  0  0
    0.3088   -5.1281    1.1910 H   0  0  0  0  0  0  0  0  0  0  0  0
   -0.1723   -5.0202   -1.0831 H   0  0  0  0  0  0  0  0  0  0  0  0
   -1.3897   -3.7917   -0.7611 H   0  0  0  0  0  0  0  0  0  0  0  0
    1.3073   -1.8342   -2.3208 H   0  0  0  0  0  0  0  0  0  0  0  0
    0.7971   -3.4565   -2.7646 H   0  0  0  0  0  0  0  0  0  0  0  0
   -0.4119   -2.2356   -2.3595 H   0  0  0  0  0  0  0  0  0  0  0  0
  1  2  1  0
  2  3  1  0
  3  4  1  0
  3 14  1  0
  4  5  2  0
  4  6  1  0
  6  7  2  0
  6 11  1  0
  7  8  1  0
  8  9  2  0
  9 10  1  0
 10 11  2  0
 11 12  1  0
 12 13  1  0
 14 15  2  0
 14 25  1  0
 15 16  1  0
 16 17  1  0
 16 23  2  0
 17 18  1  0
 17 19  1  0
 19 20  2  0
 19 21  1  0
 21 22  1  0
 21 23  1  0
 23 24  1  0
 24 25  2  0
 25 26  1  0
 26 27  1  0
 26 31  1  0
 27 28  1  0
 28 29  1  0
 29 30  1  0
 30 31  1  0
 31 32  1  0
  1 33  1  0
  1 34  1  0
  1 35  1  0
  2 36  1  0
  2 37  1  0
  7 38  1  0
  8 39  1  0
  9 40  1  0
 10 41  1  0
 13 42  1  0
 13 43  1  0
 13 44  1  0
 15 45  1  0
 18 46  1  0
 18 47  1  0
 18 48  1  0
 22 49  1  0
 22 50  1  0
 22 51  1  0
 24 52  1  0
 27 53  1  0
 27 54  1  0
 31 55  1  1
 28 56  1  0
 28 57  1  0
 29 58  1  0
 30 59  1  0
 30 60  1  0
 32 61  1  0
 32 62  1  0
 32 63  1  0
M  END
