
     RDKit          3D

 26 25  0  0  0  0  0  0  0  0999 V2000
   -1.0626    0.0021   -3.2149 C   0  0  0  0  0  0  0  0  0  0  0  0
    0.0443    0.0252   -2.1616 C   0  0  1  0  0  0  0  0  0  0  0  0
   -0.5975    0.0885   -0.7671 C   0  0  0  0  0  0  0  0  0  0  0  0
    0.3955    0.0727    0.3831 C   0  0  0  0  0  0  0  0  0  0  0  0
   -0.2332    0.0133    1.7532 C   0  0  0  0  0  0  0  0  0  0  0  0
    0.7328   -0.0526    2.9113 C   0  0  0  0  0  0  0  0  0  0  0  0
    0.0787   -0.0728    4.2808 C   0  0  0  0  0  0  0  0  0  0  0  0
   -1.4327    0.0216    1.9191 O   0  0  0  0  0  0  0  0  0  0  0  0
    0.8569   -1.1359   -2.2855 O   0  0  0  0  0  0  0  0  0  0  0  0
    0.9647    1.2129   -2.4126 C   0  0  0  0  0  0  0  0  0  0  0  0
   -0.6428   -0.0453   -4.2212 H   0  0  0  0  0  0  0  0  0  0  0  0
   -1.7174   -0.8623   -3.0792 H   0  0  0  0  0  0  0  0  0  0  0  0
   -1.6840    0.8963   -3.1519 H   0  0  0  0  0  0  0  0  0  0  0  0
   -1.2865   -0.7572   -0.6652 H   0  0  0  0  0  0  0  0  0  0  0  0
   -1.2181    0.9869   -0.7094 H   0  0  0  0  0  0  0  0  0  0  0  0
    1.0373    0.9602    0.3665 H   0  0  0  0  0  0  0  0  0  0  0  0
    1.0841   -0.7734    0.2922 H   0  0  0  0  0  0  0  0  0  0  0  0
    1.4204    0.7942    2.8199 H   0  0  0  0  0  0  0  0  0  0  0  0
    1.3616   -0.9376    2.7675 H   0  0  0  0  0  0  0  0  0  0  0  0
    0.8381   -0.1297    5.0596 H   0  0  0  0  0  0  0  0  0  0  0  0
   -0.5104    0.8269    4.4571 H   0  0  0  0  0  0  0  0  0  0  0  0
   -0.5814   -0.9319    4.3987 H   0  0  0  0  0  0  0  0  0  0  0  0
    0.2938   -1.9093   -2.1723 H   0  0  0  0  0  0  0  0  0  0  0  0
    0.4152    2.1493   -2.3119 H   0  0  0  0  0  0  0  0  0  0  0  0
    1.8030    1.2394   -1.7150 H   0  0  0  0  0  0  0  0  0  0  0  0
    1.3751    1.1773   -3.4235 H   0  0  0  0  0  0  0  0  0  0  0  0
  1  2  1  0
  1 11  1  0
  1 12  1  0
  1 13  1  0
  2  3  1  0
  2  9  1  1
  2 10  1  0
  3  4  1  0
  3 14  1  0
  3 15  1  0
  4  5  1  0
  4 16  1  0
  4 17  1  0
  5  6  1  0
  5  8  2  0
  6  7  1  0
  6 18  1  0
  6 19  1  0
  7 20  1  0
  7 21  1  0
  7 22  1  0
  9 23  1  0
 10 24  1  0
 10 25  1  0
 10 26  1  0
M  END
