
     RDKit          3D

 53 57  0  0  0  0  0  0  0  0999 V2000
    5.7621    2.3985   -0.7751 N   0  0  0  0  0  0  0  0  0  0  0  0
    4.6302    1.8317   -1.0633 C   0  0  0  0  0  0  0  0  0  0  0  0
    4.0894    0.7589   -0.3179 C   0  0  0  0  0  0  0  0  0  0  0  0
    4.8702    0.3288    0.7771 C   0  0  0  0  0  0  0  0  0  0  0  0
    6.0481    0.9141    1.0749 N   0  0  0  0  0  0  0  0  0  0  0  0
    6.4368    1.9069    0.3055 C   0  0  0  0  0  0  0  0  0  0  0  0
    2.8626    0.1454   -0.6224 C   0  0  0  0  0  0  0  0  0  0  0  0
    2.3993   -0.9003    0.1396 C   0  0  0  0  0  0  0  0  0  0  0  0
    3.1807   -1.3224    1.2426 C   0  0  0  0  0  0  0  0  0  0  0  0
    4.3794   -0.7387    1.5587 C   0  0  0  0  0  0  0  0  0  0  0  0
    7.5890    2.5394    0.5953 N   0  0  0  0  0  0  0  0  0  0  0  0
    1.1184   -1.5735   -0.1627 C   0  0  0  0  0  0  0  0  0  0  0  0
   -0.0701   -0.7447   -0.1320 C   0  0  0  0  0  0  0  0  0  0  0  0
   -1.2678   -1.4075   -0.3752 N   0  0  0  0  0  0  0  0  0  0  0  0
   -1.3384   -2.7366   -0.6432 C   0  0  0  0  0  0  0  0  0  0  0  0
   -0.2268   -3.5037   -0.6871 C   0  0  0  0  0  0  0  0  0  0  0  0
    1.0426   -2.9140   -0.4443 C   0  0  0  0  0  0  0  0  0  0  0  0
    2.2490   -3.7998   -0.5168 C   0  0  0  0  0  0  0  0  0  0  0  0
   -0.0762    0.4607    0.0913 O   0  0  0  0  0  0  0  0  0  0  0  0
   -2.4791   -0.6436   -0.3573 C   0  0  0  0  0  0  0  0  0  0  0  0
   -3.0004   -0.1830   -1.5544 C   0  0  0  0  0  0  0  0  0  0  0  0
   -4.1928    0.5447   -1.5430 C   0  0  0  0  0  0  0  0  0  0  0  0
   -4.8199    0.8017   -0.3448 C   0  0  0  0  0  0  0  0  0  0  0  0
   -4.2808    0.3228    0.8551 C   0  0  0  0  0  0  0  0  0  0  0  0
   -3.1010   -0.4076    0.8644 C   0  0  0  0  0  0  0  0  0  0  0  0
   -6.1242    1.5055   -0.0436 C   0  0  2  0  0  0  0  0  0  0  0  0
   -5.9785    1.7323    1.4780 C   0  0  0  0  0  0  0  0  0  0  0  0
   -5.0928    0.6583    1.9154 N   0  0  0  0  0  0  0  0  0  0  0  0
   -7.2905    0.5550   -0.3358 C   0  0  0  0  0  0  0  0  0  0  0  0
   -6.3072    2.8162   -0.7967 C   0  0  0  0  0  0  0  0  0  0  0  0
    4.0864    2.2148   -1.9228 H   0  0  0  0  0  0  0  0  0  0  0  0
    2.2992    0.4997   -1.4776 H   0  0  0  0  0  0  0  0  0  0  0  0
    2.8126   -2.1333    1.8595 H   0  0  0  0  0  0  0  0  0  0  0  0
    4.9556   -1.0816    2.4080 H   0  0  0  0  0  0  0  0  0  0  0  0
    8.2176    2.1284    1.2634 H   0  0  0  0  0  0  0  0  0  0  0  0
    7.9819    3.1724   -0.0791 H   0  0  0  0  0  0  0  0  0  0  0  0
   -2.3282   -3.1318   -0.8211 H   0  0  0  0  0  0  0  0  0  0  0  0
   -0.3138   -4.5567   -0.9116 H   0  0  0  0  0  0  0  0  0  0  0  0
    2.4000   -4.3192    0.4318 H   0  0  0  0  0  0  0  0  0  0  0  0
    2.1128   -4.5635   -1.2818 H   0  0  0  0  0  0  0  0  0  0  0  0
    3.1595   -3.2470   -0.7387 H   0  0  0  0  0  0  0  0  0  0  0  0
   -2.4846   -0.3831   -2.4842 H   0  0  0  0  0  0  0  0  0  0  0  0
   -4.6086    0.9063   -2.4763 H   0  0  0  0  0  0  0  0  0  0  0  0
   -2.6693   -0.7804    1.7848 H   0  0  0  0  0  0  0  0  0  0  0  0
   -5.5338    2.7165    1.6726 H   0  0  0  0  0  0  0  0  0  0  0  0
   -6.9371    1.6916    1.9978 H   0  0  0  0  0  0  0  0  0  0  0  0
   -4.6629    0.7591    2.8220 H   0  0  0  0  0  0  0  0  0  0  0  0
   -7.2013   -0.3718    0.2339 H   0  0  0  0  0  0  0  0  0  0  0  0
   -8.2416    1.0213   -0.0703 H   0  0  0  0  0  0  0  0  0  0  0  0
   -7.3255    0.2969   -1.3953 H   0  0  0  0  0  0  0  0  0  0  0  0
   -6.4082    2.6455   -1.8698 H   0  0  0  0  0  0  0  0  0  0  0  0
   -7.2111    3.3286   -0.4616 H   0  0  0  0  0  0  0  0  0  0  0  0
   -5.4612    3.4865   -0.6400 H   0  0  0  0  0  0  0  0  0  0  0  0
  6  1  2  0
  1  2  1  0
  3  2  2  0
  2 31  1  0
  4  3  1  0
  3  7  1  0
 10  4  1  0
  5  4  2  0
  5  6  1  0
 11  6  1  0
  8  7  2  0
  7 32  1  0
  9  8  1  0
  8 12  1  0
 10  9  2  0
  9 33  1  0
 10 34  1  0
 11 35  1  0
 11 36  1  0
 12 17  2  0
 12 13  1  0
 19 13  2  0
 13 14  1  0
 15 14  1  0
 14 20  1  0
 16 15  2  0
 15 37  1  0
 17 16  1  0
 16 38  1  0
 18 17  1  0
 18 39  1  0
 18 40  1  0
 18 41  1  0
 21 20  2  0
 20 25  1  0
 21 22  1  0
 21 42  1  0
 22 23  2  0
 22 43  1  0
 23 26  1  0
 23 24  1  0
 25 24  2  0
 24 28  1  0
 25 44  1  0
 26 29  1  1
 26 30  1  0
 26 27  1  0
 28 27  1  0
 27 45  1  0
 27 46  1  0
 28 47  1  0
 29 48  1  0
 29 49  1  0
 29 50  1  0
 30 51  1  0
 30 52  1  0
 30 53  1  0
M  END
