
     RDKit          3D

 18 17  0  0  0  0  0  0  0  0999 V2000
    4.4887    0.3103   -0.6500 O   0  0  0  0  0  0  0  0  0  0  0  0
    3.6573   -0.2490    0.3468 C   0  0  0  0  0  0  0  0  0  0  0  0
    2.3077    0.3778    0.2564 C   0  0  0  0  0  0  0  0  0  0  0  0
    1.1693   -0.3163    0.1447 C   0  0  0  0  0  0  0  0  0  0  0  0
   -0.1290    0.3156    0.1086 C   0  0  0  0  0  0  0  0  0  0  0  0
   -1.2970   -0.3366   -0.0120 C   0  0  0  0  0  0  0  0  0  0  0  0
   -1.3445   -1.6784   -0.1086 O   0  0  0  0  0  0  0  0  0  0  0  0
   -2.5682    0.4344   -0.0359 C   0  0  0  0  0  0  0  0  0  0  0  0
   -2.6439    1.6350    0.0447 O   0  0  0  0  0  0  0  0  0  0  0  0
   -3.6158   -0.3706   -0.1578 O   0  0  0  0  0  0  0  0  0  0  0  0
    5.3968    0.0652   -0.4506 H   0  0  0  0  0  0  0  0  0  0  0  0
    2.2722    1.4626    0.3174 H   0  0  0  0  0  0  0  0  0  0  0  0
    1.2184   -1.3986    0.0804 H   0  0  0  0  0  0  0  0  0  0  0  0
   -0.1650    1.3947    0.1834 H   0  0  0  0  0  0  0  0  0  0  0  0
   -2.2497   -1.9920   -0.2162 H   0  0  0  0  0  0  0  0  0  0  0  0
   -4.4427    0.1346   -0.1700 H   0  0  0  0  0  0  0  0  0  0  0  0
    3.5677   -1.3380    0.2441 H   0  0  0  0  0  0  0  0  0  0  0  0
    4.0649   -0.0583    1.3489 H   0  0  0  0  0  0  0  0  0  0  0  0
  1  2  1  0
  2  3  1  0
  3  4  2  0
  4  5  1  0
  5  6  2  0
  7  6  1  0
  6  8  1  0
  8  9  2  0
  8 10  1  0
  1 11  1  0
  3 12  1  0
  4 13  1  0
  5 14  1  0
  7 15  1  0
 10 16  1  0
  2 17  1  0
  2 18  1  0
M  END
