
     RDKit          3D

 93 99  0  0  0  0  0  0  0  0999 V2000
   13.2865    2.2433    1.1951 C   0  0  0  0  0  0  0  0  0  0  0  0
   13.2563   -1.3589   -2.3946 C   0  0  0  0  0  0  0  0  0  0  0  0
   14.4039   -1.7540   -0.2847 O   0  0  0  0  0  0  0  0  0  0  0  0
  -10.9200    1.6116   -1.6091 C   0  0  0  0  0  0  0  0  0  0  0  0
   -2.0964    1.5282    0.9992 C   0  0  0  0  0  0  0  0  0  0  0  0
   -2.1538   -0.2227   -0.6325 C   0  0  0  0  0  0  0  0  0  0  0  0
   -0.7213    1.5750    0.9049 C   0  0  0  0  0  0  0  0  0  0  0  0
   -0.7622   -0.1831   -0.7066 C   0  0  0  0  0  0  0  0  0  0  0  0
    6.2844   -0.0003    1.2492 C   0  0  0  0  0  0  0  0  0  0  0  0
    6.3271    0.2750   -1.1294 C   0  0  0  0  0  0  0  0  0  0  0  0
    7.6586   -0.1347    1.2567 C   0  0  0  0  0  0  0  0  0  0  0  0
    7.7024    0.1061   -1.1239 C   0  0  0  0  0  0  0  0  0  0  0  0
  -11.1177    2.5168   -0.5856 C   0  0  0  0  0  0  0  0  0  0  0  0
  -12.0098   -2.0991    2.2709 C   0  0  0  0  0  0  0  0  0  0  0  0
   -9.4915    0.2986   -0.1242 C   0  0  0  0  0  0  0  0  0  0  0  0
  -11.8742   -2.0158    0.1976 C   0  0  0  0  0  0  0  0  0  0  0  0
   10.4554   -1.2565    0.7606 C   0  0  0  0  0  0  0  0  0  0  0  0
   13.9665    0.9998    0.6408 C   0  0  0  0  0  0  0  0  0  0  0  0
   -7.3624   -0.9250   -0.7681 C   0  0  0  0  0  0  0  0  0  0  0  0
    2.0340    0.0347   -1.0587 C   0  0  0  0  0  0  0  0  0  0  0  0
    2.0852    0.6324    1.2492 C   0  0  0  0  0  0  0  0  0  0  0  0
    3.4927    0.4306   -1.2021 C   0  0  0  0  0  0  0  0  0  0  0  0
    3.5377    1.0396    1.1200 C   0  0  0  0  0  0  0  0  0  0  0  0
   -4.9661   -0.2272   -0.3894 C   0  0  0  0  0  0  0  0  0  0  0  0
  -12.7651   -1.9603    1.1605 N   0  0  0  0  0  0  0  0  0  0  0  0
  -10.7259   -2.2366    2.0430 N   0  0  0  0  0  0  0  0  0  0  0  0
   11.7267   -1.1315    0.6239 N   0  0  0  0  0  0  0  0  0  0  0  0
   -8.0763   -0.8404    1.4438 O   0  0  0  0  0  0  0  0  0  0  0  0
  -10.1123    0.5233   -1.3464 C   0  0  0  0  0  0  0  0  0  0  0  0
   -9.7414    1.2383    0.8715 C   0  0  0  0  0  0  0  0  0  0  0  0
   -2.8334    0.6252    0.2293 C   0  0  0  0  0  0  0  0  0  0  0  0
   -0.0155    0.7121    0.0538 C   0  0  0  0  0  0  0  0  0  0  0  0
    5.5760    0.2059    0.0536 C   0  0  0  0  0  0  0  0  0  0  0  0
    8.3779   -0.0987    0.0683 C   0  0  0  0  0  0  0  0  0  0  0  0
  -10.5444    2.3493    0.6575 C   0  0  0  0  0  0  0  0  0  0  0  0
   10.7161    0.5314   -0.5304 C   0  0  0  0  0  0  0  0  0  0  0  0
   14.0043   -0.7649   -1.2087 C   0  0  2  0  0  0  0  0  0  0  0  0
   13.2289    0.3867   -0.5467 C   0  0  1  0  0  0  0  0  0  0  0  0
    1.3861    0.7997   -0.0163 N   0  0  0  0  0  0  0  0  0  0  0  0
    4.1922    0.2927    0.0577 N   0  0  0  0  0  0  0  0  0  0  0  0
  -10.6519   -2.1874    0.7099 N   0  0  0  0  0  0  0  0  0  0  0  0
    9.7776   -0.2844    0.0879 N   0  0  0  0  0  0  0  0  0  0  0  0
   11.8953   -0.0402   -0.1706 N   0  0  0  0  0  0  0  0  0  0  0  0
   -8.6007   -0.9115    0.1362 C   0  0  1  0  0  0  0  0  0  0  0  0
   -6.7404   -0.3428    1.4374 C   0  0  0  0  0  0  0  0  0  0  0  0
   -6.4123   -0.0042   -0.0151 C   0  0  2  0  0  0  0  0  0  0  0  0
   13.1721    3.0120    0.4293 H   0  0  0  0  0  0  0  0  0  0  0  0
   12.2965    2.0232    1.5967 H   0  0  0  0  0  0  0  0  0  0  0  0
   13.8755    2.6706    2.0068 H   0  0  0  0  0  0  0  0  0  0  0  0
   14.9760    1.2525    0.3071 H   0  0  0  0  0  0  0  0  0  0  0  0
   14.0795    0.2529    1.4289 H   0  0  0  0  0  0  0  0  0  0  0  0
   12.3259   -1.8457   -2.0966 H   0  0  0  0  0  0  0  0  0  0  0  0
   13.0133   -0.5882   -3.1276 H   0  0  0  0  0  0  0  0  0  0  0  0
   13.8768   -2.1042   -2.8928 H   0  0  0  0  0  0  0  0  0  0  0  0
   14.9311   -0.3182   -1.5815 H   0  0  0  0  0  0  0  0  0  0  0  0
   13.6143   -2.0599    0.1809 H   0  0  0  0  0  0  0  0  0  0  0  0
  -11.3801    1.7421   -2.5800 H   0  0  0  0  0  0  0  0  0  0  0  0
   -2.6142    2.2083    1.6649 H   0  0  0  0  0  0  0  0  0  0  0  0
   -0.1870    2.3097    1.4944 H   0  0  0  0  0  0  0  0  0  0  0  0
   -2.6755   -0.9395   -1.2525 H   0  0  0  0  0  0  0  0  0  0  0  0
   -0.2783   -0.8802   -1.3773 H   0  0  0  0  0  0  0  0  0  0  0  0
    5.7634   -0.0713    2.1937 H   0  0  0  0  0  0  0  0  0  0  0  0
    8.1698   -0.2809    2.2002 H   0  0  0  0  0  0  0  0  0  0  0  0
    5.8500    0.4633   -2.0803 H   0  0  0  0  0  0  0  0  0  0  0  0
    8.2404    0.1392   -2.0616 H   0  0  0  0  0  0  0  0  0  0  0  0
  -10.7187    3.0665    1.4480 H   0  0  0  0  0  0  0  0  0  0  0  0
   -9.3004    1.1034    1.8484 H   0  0  0  0  0  0  0  0  0  0  0  0
  -12.0647   -1.9521   -0.8630 H   0  0  0  0  0  0  0  0  0  0  0  0
    9.9693   -2.0376    1.3229 H   0  0  0  0  0  0  0  0  0  0  0  0
   13.0852    1.1571   -1.3084 H   0  0  0  0  0  0  0  0  0  0  0  0
   -6.9563   -1.9415   -0.8133 H   0  0  0  0  0  0  0  0  0  0  0  0
   -7.5536   -0.6017   -1.7885 H   0  0  0  0  0  0  0  0  0  0  0  0
   -6.6793    1.0363   -0.2260 H   0  0  0  0  0  0  0  0  0  0  0  0
    1.5425    0.2295   -2.0133 H   0  0  0  0  0  0  0  0  0  0  0  0
    1.9749   -1.0495   -0.8716 H   0  0  0  0  0  0  0  0  0  0  0  0
    3.9327   -0.2339   -1.9450 H   0  0  0  0  0  0  0  0  0  0  0  0
    3.5601    1.4570   -1.5910 H   0  0  0  0  0  0  0  0  0  0  0  0
    2.0278   -0.4111    1.5944 H   0  0  0  0  0  0  0  0  0  0  0  0
    1.6270    1.2538    2.0169 H   0  0  0  0  0  0  0  0  0  0  0  0
    3.6011    2.1199    0.9258 H   0  0  0  0  0  0  0  0  0  0  0  0
    4.0198    0.8522    2.0760 H   0  0  0  0  0  0  0  0  0  0  0  0
   -4.8206   -0.0366   -1.4590 H   0  0  0  0  0  0  0  0  0  0  0  0
   -4.6849   -1.2707   -0.1963 H   0  0  0  0  0  0  0  0  0  0  0  0
   -6.6704    0.5234    2.0982 H   0  0  0  0  0  0  0  0  0  0  0  0
   -6.0727   -1.1207    1.8240 H   0  0  0  0  0  0  0  0  0  0  0  0
   10.5137    1.5151   -1.2193 O   0  0  0  0  0  0  0  0  0  0  0  0
   -4.1768    0.6540    0.3864 O   0  0  0  0  0  0  0  0  0  0  0  0
   -9.3915   -2.2202    0.0105 C   0  0  0  0  0  0  0  0  0  0  0  0
   -9.9429   -0.3639   -2.3427 F   0  0  0  0  0  0  0  0  0  0  0  0
  -11.8921    3.5843   -0.8154 F   0  0  0  0  0  0  0  0  0  0  0  0
  -12.4167   -2.1050    3.2708 H   0  0  0  0  0  0  0  0  0  0  0  0
   -8.7915   -3.0414    0.4020 H   0  0  0  0  0  0  0  0  0  0  0  0
   -9.6048   -2.4378   -1.0341 H   0  0  0  0  0  0  0  0  0  0  0  0
  1 18  1  0
  2 37  1  0
 86 36  2  0
  3 37  1  0
 89 29  1  0
 90 13  1  0
  4 13  2  0
  4 29  1  0
  5  7  2  0
  5 31  1  0
  6  8  1  0
  6 31  2  0
  7 32  1  0
  8 32  2  0
  9 11  2  0
  9 33  1  0
 10 12  1  0
 10 33  2  0
 11 34  1  0
 12 34  2  0
 13 35  1  0
 14 25  1  0
 14 26  2  0
 15 29  2  0
 15 30  1  0
 15 44  1  0
 16 25  2  0
 16 41  1  0
 17 27  2  0
 17 42  1  0
 18 38  1  0
 19 44  1  0
 19 46  1  0
 20 22  1  0
 20 39  1  0
 21 23  1  0
 21 39  1  0
 22 40  1  0
 23 40  1  0
 24 87  1  0
 24 46  1  0
 88 41  1  0
 44 88  1  1
 26 41  1  0
 27 43  1  0
 87 31  1  0
 28 44  1  0
 28 45  1  0
 30 35  2  0
 32 39  1  0
 33 40  1  0
 34 42  1  0
 36 42  1  0
 36 43  1  0
 37 38  1  0
 38 43  1  0
 45 46  1  0
  1 47  1  0
  1 48  1  0
  1 49  1  0
 18 50  1  0
 18 51  1  0
  2 52  1  0
  2 53  1  0
  2 54  1  0
 37 55  1  6
  3 56  1  0
  4 57  1  0
  5 58  1  0
  7 59  1  0
  6 60  1  0
  8 61  1  0
  9 62  1  0
 11 63  1  0
 10 64  1  0
 12 65  1  0
 35 66  1  0
 14 91  1  0
 30 67  1  0
 16 68  1  0
 17 69  1  0
 38 70  1  6
 19 71  1  0
 19 72  1  0
 46 73  1  1
 20 74  1  0
 20 75  1  0
 22 76  1  0
 22 77  1  0
 21 78  1  0
 21 79  1  0
 23 80  1  0
 23 81  1  0
 24 82  1  0
 24 83  1  0
 88 92  1  0
 88 93  1  0
 45 84  1  0
 45 85  1  0
M  END
