
     RDKit          3D

 43 45  0  0  0  0  0  0  0  0999 V2000
   -3.4083    0.1701   -0.0639 C   0  0  0  0  0  0  0  0  0  0  0  0
   -3.1591   -1.1900    0.4263 C   0  0  0  0  0  0  0  0  0  0  0  0
   -1.6578   -3.0278    0.8662 C   0  0  0  0  0  0  0  0  0  0  0  0
   -3.9991   -3.2566    1.3496 C   0  0  0  0  0  0  0  0  0  0  0  0
   -2.5685    1.3199   -0.0012 C   0  0  0  0  0  0  0  0  0  0  0  0
   -0.2079    1.7501   -0.2661 C   0  0  0  0  0  0  0  0  0  0  0  0
    2.2316    2.0512   -0.2514 C   0  0  0  0  0  0  0  0  0  0  0  0
    3.3077    1.0676    0.1531 C   0  0  0  0  0  0  0  0  0  0  0  0
    4.1488    1.4381    1.1962 C   0  0  0  0  0  0  0  0  0  0  0  0
    5.3107   -0.6534    1.0956 C   0  0  0  0  0  0  0  0  0  0  0  0
    2.9721   -1.8881   -1.9880 F   0  0  0  0  0  0  0  0  0  0  0  0
    2.7800    0.1432   -2.6478 F   0  0  0  0  0  0  0  0  0  0  0  0
    1.3426   -0.6900   -1.2799 F   0  0  0  0  0  0  0  0  0  0  0  0
    3.4920   -0.1977   -0.4248 C   0  0  0  0  0  0  0  0  0  0  0  0
    4.4892   -1.0430    0.0474 C   0  0  0  0  0  0  0  0  0  0  0  0
    5.1421    0.5934    1.6709 C   0  0  0  0  0  0  0  0  0  0  0  0
    0.9754    1.7437    0.3898 N   0  0  0  0  0  0  0  0  0  0  0  0
   -0.3323    2.0242   -1.4494 O   0  0  0  0  0  0  0  0  0  0  0  0
   -1.2851    1.4237    0.5236 N   0  0  0  0  0  0  0  0  0  0  0  0
   -3.3157    2.3085   -0.5565 C   0  0  0  0  0  0  0  0  0  0  0  0
   -3.0486    3.7399   -0.8024 C   0  0  0  0  0  0  0  0  0  0  0  0
   -4.5510    0.4744   -0.6144 N   0  0  0  0  0  0  0  0  0  0  0  0
   -4.4869    1.7961   -0.9345 O   0  0  0  0  0  0  0  0  0  0  0  0
   -4.2196   -1.9647    0.8992 C   0  0  0  0  0  0  0  0  0  0  0  0
   -2.7169   -3.7916    1.3367 C   0  0  0  0  0  0  0  0  0  0  0  0
   -1.8751   -1.7344    0.4136 C   0  0  0  0  0  0  0  0  0  0  0  0
   -0.6571   -3.4393    0.8486 H   0  0  0  0  0  0  0  0  0  0  0  0
   -4.8301   -3.8447    1.7163 H   0  0  0  0  0  0  0  0  0  0  0  0
    2.5657    3.0537    0.0293 H   0  0  0  0  0  0  0  0  0  0  0  0
    2.0712    2.0739   -1.3257 H   0  0  0  0  0  0  0  0  0  0  0  0
    4.0226    2.4161    1.6445 H   0  0  0  0  0  0  0  0  0  0  0  0
    6.0796   -1.3252    1.4521 H   0  0  0  0  0  0  0  0  0  0  0  0
    4.6425   -2.0173   -0.3942 H   0  0  0  0  0  0  0  0  0  0  0  0
    5.7790    0.9131    2.4850 H   0  0  0  0  0  0  0  0  0  0  0  0
    0.9927    1.5930    1.3859 H   0  0  0  0  0  0  0  0  0  0  0  0
   -1.1395    1.1296    1.4772 H   0  0  0  0  0  0  0  0  0  0  0  0
   -2.7313    3.9096   -1.8320 H   0  0  0  0  0  0  0  0  0  0  0  0
   -3.9344    4.3452   -0.6147 H   0  0  0  0  0  0  0  0  0  0  0  0
   -2.2500    4.0828   -0.1480 H   0  0  0  0  0  0  0  0  0  0  0  0
   -5.2193   -1.5510    0.9236 H   0  0  0  0  0  0  0  0  0  0  0  0
   -2.5434   -4.7987    1.6925 H   0  0  0  0  0  0  0  0  0  0  0  0
   -1.0401   -1.1612    0.0357 H   0  0  0  0  0  0  0  0  0  0  0  0
    2.6488   -0.6576   -1.5785 C   0  0  1  0  0  0  0  0  0  0  0  0
 18  6  2  0
 43 12  1  6
 21 20  1  0
 23 20  1  0
 23 22  1  0
 20  5  2  0
 22  1  2  0
  6 19  1  0
  6 17  1  0
 26  3  2  0
 26  2  1  0
  5  1  1  0
  5 19  1  0
  1  2  1  0
  7 17  1  0
  7  8  1  0
 43 11  1  0
 43 13  1  0
 43 14  1  0
  3 25  1  0
  2 24  2  0
 14  8  1  0
 14 15  2  0
  8  9  2  0
 25  4  2  0
 24  4  1  0
 15 10  1  0
  9 16  1  0
 10 16  2  0
  3 27  1  0
  4 28  1  0
  7 29  1  0
  7 30  1  0
  9 31  1  0
 10 32  1  0
 15 33  1  0
 16 34  1  0
 17 35  1  0
 19 36  1  0
 21 37  1  0
 21 38  1  0
 21 39  1  0
 24 40  1  0
 25 41  1  0
 26 42  1  0
M  END
