
     RDKit          3D

 68 70  0  0  0  0  0  0  0  0999 V2000
   -3.7786    2.8826   -0.0945 S   0  0  1  0  0  0  0  0  0  0  0  0
   -3.8448    0.3753    1.4443 O   0  0  0  0  0  0  0  0  0  0  0  0
   -4.0312    3.6974   -1.2703 O   0  0  0  0  0  0  0  0  0  0  0  0
   -4.2990    3.2958    1.1917 O   0  0  0  0  0  0  0  0  0  0  0  0
    6.4878    1.0907    0.3139 O   0  0  0  0  0  0  0  0  0  0  0  0
    3.7377   -2.0130   -0.1639 O   0  0  0  0  0  0  0  0  0  0  0  0
   -4.7839   -0.8451   -0.2258 N   0  0  0  0  0  0  0  0  0  0  0  0
   -4.4153    1.3999   -0.5043 N   0  0  0  0  0  0  0  0  0  0  0  0
    5.7992   -1.1038    0.0523 N   0  0  0  0  0  0  0  0  0  0  0  0
    3.8933    0.2250    0.1166 N   0  0  0  0  0  0  0  0  0  0  0  0
   -7.4066   -3.4019   -0.2535 C   0  0  2  0  0  0  0  0  0  0  0  0
   -4.8266   -2.1090    0.4995 C   0  0  1  0  0  0  0  0  0  0  0  0
   -7.3468   -2.2304    0.7254 C   0  0  0  0  0  0  0  0  0  0  0  0
   -6.2307   -3.3385   -1.2263 C   0  0  0  0  0  0  0  0  0  0  0  0
   -6.0138   -2.1713    1.4627 C   0  0  0  0  0  0  0  0  0  0  0  0
   -4.8887   -3.2595   -0.5019 C   0  0  0  0  0  0  0  0  0  0  0  0
   -8.7357   -3.4459   -0.9947 C   0  0  0  0  0  0  0  0  0  0  0  0
   -4.3206    0.2845    0.3269 C   0  0  0  0  0  0  0  0  0  0  0  0
    6.4451   -2.3941   -0.0568 C   0  0  0  0  0  0  0  0  0  0  0  0
    7.8958   -2.0563    0.0569 C   0  0  0  0  0  0  0  0  0  0  0  0
    8.0572   -0.7345    0.2049 C   0  0  0  0  0  0  0  0  0  0  0  0
   -2.0409    2.6113    0.0487 C   0  0  0  0  0  0  0  0  0  0  0  0
    6.7327   -0.0989    0.2012 C   0  0  0  0  0  0  0  0  0  0  0  0
    9.3066    0.0712    0.3158 C   0  0  0  0  0  0  0  0  0  0  0  0
    0.6949    2.1922    0.2343 C   0  0  0  0  0  0  0  0  0  0  0  0
    4.4075   -1.0043   -0.0077 C   0  0  0  0  0  0  0  0  0  0  0  0
    2.4658    0.4512    0.0624 C   0  0  0  0  0  0  0  0  0  0  0  0
    8.9253   -3.1226    0.0030 C   0  0  0  0  0  0  0  0  0  0  0  0
   -1.2778    2.5651   -1.1119 C   0  0  0  0  0  0  0  0  0  0  0  0
   -1.4605    2.4578    1.2986 C   0  0  0  0  0  0  0  0  0  0  0  0
    0.0853    2.3527   -1.0094 C   0  0  0  0  0  0  0  0  0  0  0  0
   -0.0926    2.2483    1.3803 C   0  0  0  0  0  0  0  0  0  0  0  0
    9.7188    0.6850   -1.0215 C   0  0  0  0  0  0  0  0  0  0  0  0
   -5.1676   -0.8153   -1.1570 H   0  0  0  0  0  0  0  0  0  0  0  0
   -4.7028    1.3107   -1.4716 H   0  0  0  0  0  0  0  0  0  0  0  0
    4.5221    1.0091    0.2259 H   0  0  0  0  0  0  0  0  0  0  0  0
   -7.3063   -4.3266    0.3308 H   0  0  0  0  0  0  0  0  0  0  0  0
   -3.8991   -2.1898    1.0700 H   0  0  0  0  0  0  0  0  0  0  0  0
   -7.5124   -1.2935    0.1806 H   0  0  0  0  0  0  0  0  0  0  0  0
   -8.1636   -2.3098    1.4475 H   0  0  0  0  0  0  0  0  0  0  0  0
   -6.2379   -4.2153   -1.8792 H   0  0  0  0  0  0  0  0  0  0  0  0
   -6.3661   -2.4771   -1.8925 H   0  0  0  0  0  0  0  0  0  0  0  0
   -5.9003   -3.0654    2.0841 H   0  0  0  0  0  0  0  0  0  0  0  0
   -5.9838   -1.3171    2.1419 H   0  0  0  0  0  0  0  0  0  0  0  0
   -4.0661   -3.1744   -1.2163 H   0  0  0  0  0  0  0  0  0  0  0  0
   -4.7283   -4.1894    0.0501 H   0  0  0  0  0  0  0  0  0  0  0  0
   -8.7860   -4.3013   -1.6714 H   0  0  0  0  0  0  0  0  0  0  0  0
   -9.5766   -3.5198   -0.3025 H   0  0  0  0  0  0  0  0  0  0  0  0
   -8.8776   -2.5422   -1.5930 H   0  0  0  0  0  0  0  0  0  0  0  0
    6.1258   -3.0730    0.7371 H   0  0  0  0  0  0  0  0  0  0  0  0
    6.2216   -2.8737   -1.0127 H   0  0  0  0  0  0  0  0  0  0  0  0
    9.1598    0.8640    1.0529 H   0  0  0  0  0  0  0  0  0  0  0  0
   10.1155   -0.5533    0.6982 H   0  0  0  0  0  0  0  0  0  0  0  0
    2.6993    2.5381   -0.4107 H   0  0  0  0  0  0  0  0  0  0  0  0
    2.5428    2.2051    1.3109 H   0  0  0  0  0  0  0  0  0  0  0  0
    2.0675    0.1647   -0.9153 H   0  0  0  0  0  0  0  0  0  0  0  0
    1.9559   -0.1622    0.8093 H   0  0  0  0  0  0  0  0  0  0  0  0
    8.7755   -3.8403    0.8118 H   0  0  0  0  0  0  0  0  0  0  0  0
    8.8531   -3.6819   -0.9316 H   0  0  0  0  0  0  0  0  0  0  0  0
    9.9340   -2.7235    0.0836 H   0  0  0  0  0  0  0  0  0  0  0  0
   -1.7286    2.6977   -2.0862 H   0  0  0  0  0  0  0  0  0  0  0  0
   -2.0558    2.5027    2.1987 H   0  0  0  0  0  0  0  0  0  0  0  0
    0.6847    2.3204   -1.9110 H   0  0  0  0  0  0  0  0  0  0  0  0
    0.3658    2.1294    2.3541 H   0  0  0  0  0  0  0  0  0  0  0  0
    9.9147   -0.0905   -1.7625 H   0  0  0  0  0  0  0  0  0  0  0  0
    8.9381    1.3353   -1.4166 H   0  0  0  0  0  0  0  0  0  0  0  0
   10.6249    1.2810   -0.9114 H   0  0  0  0  0  0  0  0  0  0  0  0
    2.1693    1.9256    0.3235 C   0  0  0  0  0  0  0  0  0  0  0  0
  6 26  2  0
 68 27  1  0
 68 25  1  0
 27 10  1  0
 26 10  1  0
 26  9  1  0
 19  9  1  0
 19 20  1  0
 25 32  2  0
 25 31  1  0
 32 30  1  0
  9 23  1  0
 31 29  2  0
 20 28  1  0
 20 21  2  0
 30 22  2  0
 23  5  2  0
 23 21  1  0
 21 24  1  0
 29 22  1  0
 22  1  1  0
  4  1  2  0
 24 33  1  0
  1  8  1  6
  1  3  2  0
  8 18  1  0
 15 12  1  0
 15 13  1  0
  2 18  2  0
 18  7  1  0
  7 12  1  0
 12 16  1  0
 13 11  1  0
 16 14  1  0
 11 14  1  0
 11 17  1  0
  7 34  1  0
  8 35  1  0
 10 36  1  0
 11 37  1  1
 12 38  1  1
 13 39  1  0
 13 40  1  0
 14 41  1  0
 14 42  1  0
 15 43  1  0
 15 44  1  0
 16 45  1  0
 16 46  1  0
 17 47  1  0
 17 48  1  0
 17 49  1  0
 19 50  1  0
 19 51  1  0
 24 52  1  0
 24 53  1  0
 68 54  1  0
 68 55  1  0
 27 56  1  0
 27 57  1  0
 28 58  1  0
 28 59  1  0
 28 60  1  0
 29 61  1  0
 30 62  1  0
 31 63  1  0
 32 64  1  0
 33 65  1  0
 33 66  1  0
 33 67  1  0
M  END
