
     RDKit          3D

 42 44  0  0  0  0  0  0  0  0999 V2000
   -1.4119    0.9882   -3.2479 C   0  0  0  0  0  0  0  0  0  0  0  0
   -2.6379    1.6220   -3.1514 C   0  0  0  0  0  0  0  0  0  0  0  0
   -3.2131    1.8317   -1.9103 C   0  0  0  0  0  0  0  0  0  0  0  0
   -2.5502    1.4107   -0.7655 C   0  0  0  0  0  0  0  0  0  0  0  0
   -3.1405    1.6231    0.4905 N   0  0  0  0  0  0  0  0  0  0  0  0
   -3.2714    0.6872    1.4713 C   0  0  0  0  0  0  0  0  0  0  0  0
   -3.8311    0.9475    2.5218 O   0  0  0  0  0  0  0  0  0  0  0  0
   -2.6906   -0.6657    1.1504 C   0  0  0  0  0  0  0  0  0  0  0  0
   -1.1528   -0.6634    1.1016 C   0  0  1  0  0  0  0  0  0  0  0  0
   -0.6485   -1.9852    0.5458 C   0  0  0  0  0  0  0  0  0  0  0  0
   -0.6032    0.4798    0.3577 N   0  0  0  0  0  0  0  0  0  0  0  0
   -1.2845    0.8121   -0.8474 C   0  0  0  0  0  0  0  0  0  0  0  0
   -0.7162    0.5852   -2.1088 C   0  0  0  0  0  0  0  0  0  0  0  0
    0.6365   -0.0350   -2.3594 C   0  0  0  0  0  0  0  0  0  0  0  0
    0.9540   -0.3863   -3.4913 O   0  0  0  0  0  0  0  0  0  0  0  0
    1.4613   -0.1421   -1.3164 N   0  0  0  0  0  0  0  0  0  0  0  0
    2.7715   -0.7481   -1.4293 C   0  0  0  0  0  0  0  0  0  0  0  0
    3.4878   -0.6519   -0.1109 C   0  0  0  0  0  0  0  0  0  0  0  0
    3.6640   -1.7768    0.6878 C   0  0  0  0  0  0  0  0  0  0  0  0
    4.3085   -1.6805    1.9154 C   0  0  0  0  0  0  0  0  0  0  0  0
    4.7792   -0.4527    2.3583 C   0  0  0  0  0  0  0  0  0  0  0  0
    4.6046    0.6777    1.5679 C   0  0  0  0  0  0  0  0  0  0  0  0
    3.9635    0.5773    0.3421 C   0  0  0  0  0  0  0  0  0  0  0  0
   -0.9759    0.8137   -4.2210 H   0  0  0  0  0  0  0  0  0  0  0  0
   -3.1536    1.9414   -4.0468 H   0  0  0  0  0  0  0  0  0  0  0  0
   -4.1812    2.3090   -1.8244 H   0  0  0  0  0  0  0  0  0  0  0  0
   -3.6304    2.4963    0.6331 H   0  0  0  0  0  0  0  0  0  0  0  0
   -3.0212   -1.3752    1.9082 H   0  0  0  0  0  0  0  0  0  0  0  0
   -3.0884   -1.0102    0.1900 H   0  0  0  0  0  0  0  0  0  0  0  0
   -0.7807   -0.5482    2.1214 H   0  0  0  0  0  0  0  0  0  0  0  0
   -0.9092   -2.1019   -0.5079 H   0  0  0  0  0  0  0  0  0  0  0  0
    0.4340   -2.0654    0.6413 H   0  0  0  0  0  0  0  0  0  0  0  0
   -1.0954   -2.8176    1.0896 H   0  0  0  0  0  0  0  0  0  0  0  0
   -0.5833    1.2949    0.9609 H   0  0  0  0  0  0  0  0  0  0  0  0
    1.0754    0.0922   -0.4024 H   0  0  0  0  0  0  0  0  0  0  0  0
    2.6855   -1.7953   -1.7326 H   0  0  0  0  0  0  0  0  0  0  0  0
    3.3455   -0.2399   -2.2082 H   0  0  0  0  0  0  0  0  0  0  0  0
    3.3008   -2.7389    0.3457 H   0  0  0  0  0  0  0  0  0  0  0  0
    4.4422   -2.5660    2.5233 H   0  0  0  0  0  0  0  0  0  0  0  0
    5.2831   -0.3752    3.3132 H   0  0  0  0  0  0  0  0  0  0  0  0
    4.9710    1.6381    1.9069 H   0  0  0  0  0  0  0  0  0  0  0  0
    3.8356    1.4613   -0.2718 H   0  0  0  0  0  0  0  0  0  0  0  0
  8  9  1  0
  8  6  1  0
  9 10  1  0
  9 11  1  0
 15 14  2  0
 13 14  1  0
 13  1  2  0
 13 12  1  0
 14 16  1  0
  6  7  2  0
  6  5  1  0
  1  2  1  0
 11 12  1  0
 12  4  2  0
  2  3  2  0
  4  3  1  0
  4  5  1  0
 16 17  1  0
 17 18  1  0
 18 19  2  0
 18 23  1  0
 19 20  1  0
 23 22  2  0
 20 21  2  0
 22 21  1  0
  1 24  1  0
  2 25  1  0
  3 26  1  0
  5 27  1  0
  8 28  1  0
  8 29  1  0
  9 30  1  1
 10 31  1  0
 10 32  1  0
 10 33  1  0
 11 34  1  0
 16 35  1  0
 17 36  1  0
 17 37  1  0
 19 38  1  0
 20 39  1  0
 21 40  1  0
 22 41  1  0
 23 42  1  0
M  END
