
     RDKit          3D

 29 30  0  0  0  0  0  0  0  0999 V2000
   -2.4848   -0.1083   -1.2111 S   0  0  0  0  0  0  0  0  0  0  0  0
   -2.9868    0.2984    1.2541 C   0  0  0  0  0  0  0  0  0  0  0  0
    3.3594    2.2618    0.2557 N   0  0  0  0  0  0  0  0  0  0  0  0
    3.4802   -2.5900   -0.5719 O   0  0  0  0  0  0  0  0  0  0  0  0
   -5.3691   -0.6460    1.5374 C   0  0  0  0  0  0  0  0  0  0  0  0
    0.3835    0.1915    0.1812 N   0  0  0  0  0  0  0  0  0  0  0  0
    1.3024   -2.3363   -0.2057 O   0  0  0  0  0  0  0  0  0  0  0  0
   -4.1552   -0.3305    0.7235 C   0  0  0  0  0  0  0  0  0  0  0  0
   -4.0113   -0.6065   -0.6022 C   0  0  0  0  0  0  0  0  0  0  0  0
   -2.0032    0.4872    0.3345 C   0  0  0  0  0  0  0  0  0  0  0  0
   -0.6673    1.1205    0.5330 C   0  0  0  0  0  0  0  0  0  0  0  0
    1.6932    0.5188    0.1332 C   0  0  0  0  0  0  0  0  0  0  0  0
    2.1107    1.8590    0.3217 C   0  0  0  0  0  0  0  0  0  0  0  0
    4.3167    1.3695    0.0063 C   0  0  0  0  0  0  0  0  0  0  0  0
    4.0368    0.0325   -0.1772 C   0  0  0  0  0  0  0  0  0  0  0  0
    2.7200   -0.4240   -0.1145 C   0  0  0  0  0  0  0  0  0  0  0  0
    2.4135   -1.8560   -0.2970 C   0  0  0  0  0  0  0  0  0  0  0  0
   -2.8869    0.5964    2.2900 H   0  0  0  0  0  0  0  0  0  0  0  0
    3.2223   -3.5184   -0.6739 H   0  0  0  0  0  0  0  0  0  0  0  0
   -5.8223    0.2620    1.9381 H   0  0  0  0  0  0  0  0  0  0  0  0
   -6.1224   -1.1628    0.9452 H   0  0  0  0  0  0  0  0  0  0  0  0
   -5.1173   -1.2807    2.3882 H   0  0  0  0  0  0  0  0  0  0  0  0
    0.1680   -0.7932    0.2189 H   0  0  0  0  0  0  0  0  0  0  0  0
   -4.7256   -1.0851   -1.2558 H   0  0  0  0  0  0  0  0  0  0  0  0
   -0.5922    1.4524    1.5748 H   0  0  0  0  0  0  0  0  0  0  0  0
   -0.5898    2.0161   -0.0904 H   0  0  0  0  0  0  0  0  0  0  0  0
    1.3761    2.6244    0.5414 H   0  0  0  0  0  0  0  0  0  0  0  0
    5.3351    1.7346   -0.0396 H   0  0  0  0  0  0  0  0  0  0  0  0
    4.8506   -0.6529   -0.3647 H   0  0  0  0  0  0  0  0  0  0  0  0
  9  1  1  0
 10  1  1  0
  8  2  1  0
  2 10  2  0
  2 18  1  0
 13  3  2  0
  3 14  1  0
 17  4  1  0
  4 19  1  0
  5  8  1  0
  5 20  1  0
  5 21  1  0
  5 22  1  0
 11  6  1  0
  6 12  1  0
  6 23  1  0
  7 17  2  0
  8  9  2  0
  9 24  1  0
 10 11  1  0
 11 25  1  0
 11 26  1  0
 12 13  1  0
 12 16  2  0
 13 27  1  0
 15 14  2  0
 14 28  1  0
 16 15  1  0
 15 29  1  0
 17 16  1  0
M  END
