
     RDKit          3D

 44 46  0  0  0  0  0  0  0  0999 V2000
    1.6361    0.4629    0.2206 C   0  0  0  0  0  0  0  0  0  0  0  0
    2.4390    1.0339   -0.7711 C   0  0  0  0  0  0  0  0  0  0  0  0
    3.7886    0.7661   -0.7790 C   0  0  0  0  0  0  0  0  0  0  0  0
    4.4263   -0.0709    0.1359 C   0  0  0  0  0  0  0  0  0  0  0  0
    7.7543   -1.0420   -1.1919 C   0  0  0  0  0  0  0  0  0  0  0  0
    2.2422   -0.3631    1.1650 C   0  0  0  0  0  0  0  0  0  0  0  0
    7.9769   -0.6171    1.0800 C   0  0  0  0  0  0  0  0  0  0  0  0
    3.6035   -0.6253    1.1113 C   0  0  0  0  0  0  0  0  0  0  0  0
   -0.5752   -0.0408    1.2392 C   0  0  0  0  0  0  0  0  0  0  0  0
    6.4738   -0.6833    1.2793 C   0  0  0  0  0  0  0  0  0  0  0  0
   -1.9722    0.5014    0.9235 C   0  0  2  0  0  0  0  0  0  0  0  0
   -0.4869    1.4915   -0.5084 C   0  0  0  0  0  0  0  0  0  0  0  0
   -2.9345   -0.5955    0.5305 C   0  0  0  0  0  0  0  0  0  0  0  0
    6.2452   -1.1129   -1.0650 C   0  0  0  0  0  0  0  0  0  0  0  0
   -5.2675   -0.8626   -0.0668 C   0  0  0  0  0  0  0  0  0  0  0  0
   -6.5644   -0.1250   -0.4427 C   0  0  1  0  0  0  0  0  0  0  0  0
    4.5306    1.3545   -1.7313 F   0  0  0  0  0  0  0  0  0  0  0  0
    5.8101   -0.2801    0.0524 N   0  0  0  0  0  0  0  0  0  0  0  0
   -4.2459   -0.0583    0.2392 N   0  0  0  0  0  0  0  0  0  0  0  0
    0.2555    0.6844    0.2992 N   0  0  0  0  0  0  0  0  0  0  0  0
   -1.7773    1.4028   -0.1681 O   0  0  0  0  0  0  0  0  0  0  0  0
    8.3954   -1.4261    0.0039 O   0  0  0  0  0  0  0  0  0  0  0  0
   -5.1977   -2.0726   -0.1031 O   0  0  0  0  0  0  0  0  0  0  0  0
   -7.8845   -1.2671   -0.6538 Cl  0  0  0  0  0  0  0  0  0  0  0  0
   -6.9887    1.0825    0.7952 Cl  0  0  0  0  0  0  0  0  0  0  0  0
    2.0385    1.6944   -1.5232 H   0  0  0  0  0  0  0  0  0  0  0  0
    8.0924   -1.7188   -1.9778 H   0  0  0  0  0  0  0  0  0  0  0  0
    8.0453   -0.0205   -1.4737 H   0  0  0  0  0  0  0  0  0  0  0  0
    1.6701   -0.8261    1.9556 H   0  0  0  0  0  0  0  0  0  0  0  0
    8.2772    0.4278    0.9172 H   0  0  0  0  0  0  0  0  0  0  0  0
    8.4840   -0.9765    1.9767 H   0  0  0  0  0  0  0  0  0  0  0  0
    4.0248   -1.2796    1.8624 H   0  0  0  0  0  0  0  0  0  0  0  0
   -0.2921    0.1642    2.2715 H   0  0  0  0  0  0  0  0  0  0  0  0
   -0.5005   -1.1183    1.0707 H   0  0  0  0  0  0  0  0  0  0  0  0
    6.1952   -1.7016    1.5921 H   0  0  0  0  0  0  0  0  0  0  0  0
    6.1960   -0.0026    2.0868 H   0  0  0  0  0  0  0  0  0  0  0  0
   -2.3727    1.0764    1.7609 H   0  0  0  0  0  0  0  0  0  0  0  0
   -2.5390   -1.1400   -0.3320 H   0  0  0  0  0  0  0  0  0  0  0  0
   -2.9947   -1.3016    1.3622 H   0  0  0  0  0  0  0  0  0  0  0  0
    5.8014   -0.7647   -1.9970 H   0  0  0  0  0  0  0  0  0  0  0  0
    5.9300   -2.1581   -0.9236 H   0  0  0  0  0  0  0  0  0  0  0  0
   -6.4292    0.4120   -1.3808 H   0  0  0  0  0  0  0  0  0  0  0  0
   -4.3745    0.9418    0.2303 H   0  0  0  0  0  0  0  0  0  0  0  0
   -0.1210    2.2086   -1.4040 O   0  0  0  0  0  0  0  0  0  0  0  0
  7 10  1  0
  7 22  1  0
 10 18  1  0
 22  5  1  0
  5 14  1  0
 14 18  1  0
 18  4  1  0
  4  8  2  0
  4  3  1  0
  8  6  1  0
 17  3  1  0
  3  2  2  0
  6  1  2  0
  2  1  1  0
  1 20  1  0
 25 16  1  0
 16 24  1  0
 16 15  1  0
 44 12  2  0
 20 12  1  0
 20  9  1  0
 12 21  1  0
 15 19  1  0
 15 23  2  0
 19 13  1  0
  9 11  1  0
 21 11  1  0
 11 13  1  0
  2 26  1  0
  5 27  1  0
  5 28  1  0
  6 29  1  0
  7 30  1  0
  7 31  1  0
  8 32  1  0
  9 33  1  0
  9 34  1  0
 10 35  1  0
 10 36  1  0
 11 37  1  1
 13 38  1  0
 13 39  1  0
 14 40  1  0
 14 41  1  0
 16 42  1  6
 19 43  1  0
M  END
