
     RDKit          3D

 21 20  0  0  0  0  0  0  0  0999 V2000
    1.6401   -0.8202    0.1378 C   0  0  0  0  0  0  0  0  0  0  0  0
    0.2690   -0.6734    0.7545 C   0  0  0  0  0  0  0  0  0  0  0  0
   -0.9217   -0.5083   -1.4046 C   0  0  0  0  0  0  0  0  0  0  0  0
   -0.4610    1.5257   -0.1502 C   0  0  0  0  0  0  0  0  0  0  0  0
   -2.0698   -0.0774    0.6808 C   0  0  0  0  0  0  0  0  0  0  0  0
    2.3071    0.4153    0.1042 O   0  0  0  0  0  0  0  0  0  0  0  0
   -0.7740    0.0709   -0.0429 N   0  0  2  0  0  0  0  0  0  0  0  0
    2.1553   -1.5451    0.7802 H   0  0  0  0  0  0  0  0  0  0  0  0
    1.5745   -1.2836   -0.8521 H   0  0  0  0  0  0  0  0  0  0  0  0
    0.3351   -0.1727    1.7204 H   0  0  0  0  0  0  0  0  0  0  0  0
   -0.1353   -1.6716    0.9225 H   0  0  0  0  0  0  0  0  0  0  0  0
   -0.0173   -0.3410   -1.9802 H   0  0  0  0  0  0  0  0  0  0  0  0
   -1.1172   -1.5743   -1.3210 H   0  0  0  0  0  0  0  0  0  0  0  0
   -1.7570   -0.0230   -1.9025 H   0  0  0  0  0  0  0  0  0  0  0  0
   -1.3003    2.0234   -0.6283 H   0  0  0  0  0  0  0  0  0  0  0  0
   -0.3161    1.9293    0.8482 H   0  0  0  0  0  0  0  0  0  0  0  0
    0.4365    1.6668   -0.7402 H   0  0  0  0  0  0  0  0  0  0  0  0
   -2.3361   -1.1299    0.7269 H   0  0  0  0  0  0  0  0  0  0  0  0
   -1.9648    0.3212    1.6865 H   0  0  0  0  0  0  0  0  0  0  0  0
   -2.8402    0.4712    0.1465 H   0  0  0  0  0  0  0  0  0  0  0  0
    3.1326    0.2996   -0.3756 H   0  0  0  0  0  0  0  0  0  0  0  0
  1  2  1  0
  1  6  1  0
  1  8  1  0
  1  9  1  0
  7  2  1  1
  2 10  1  0
  2 11  1  0
  3  7  1  0
  3 12  1  0
  3 13  1  0
  3 14  1  0
  4  7  1  0
  4 15  1  0
  4 16  1  0
  4 17  1  0
  5  7  1  0
  5 18  1  0
  5 19  1  0
  5 20  1  0
  6 21  1  0
M  CHG  1   7   1
M  END
