
     RDKit          3D

 61 64  0  0  0  0  0  0  0  0999 V2000
    5.5766    2.6060   -0.2453 N   0  0  0  0  0  0  0  0  0  0  0  0
    5.9472   -0.8853   -0.1530 N   0  0  0  0  0  0  0  0  0  0  0  0
   -9.4660    1.2338   -0.3650 C   0  0  0  0  0  0  0  0  0  0  0  0
   -8.6929    0.9427   -1.4816 C   0  0  0  0  0  0  0  0  0  0  0  0
   -7.4237    0.4008   -1.3276 C   0  0  0  0  0  0  0  0  0  0  0  0
   -3.0688   -0.0111    0.0220 C   0  0  0  0  0  0  0  0  0  0  0  0
    6.0780    0.4505   -0.2290 C   0  0  0  0  0  0  0  0  0  0  0  0
   -0.7940    0.6940   -0.0397 C   0  0  0  0  0  0  0  0  0  0  0  0
    1.4386    1.3810   -0.1154 C   0  0  0  0  0  0  0  0  0  0  0  0
    1.4822   -3.4847    0.0279 C   0  0  0  0  0  0  0  0  0  0  0  0
    3.3732   -4.9689    0.4793 C   0  0  0  0  0  0  0  0  0  0  0  0
    2.9025    4.1211    1.1999 C   0  0  0  0  0  0  0  0  0  0  0  0
   -5.5177   -0.4196    0.0870 C   0  0  0  0  0  0  0  0  0  0  0  0
    1.0803   -5.6290    0.9411 O   0  0  0  0  0  0  0  0  0  0  0  0
    1.9048   -4.8967    0.0569 C   0  0  1  0  0  0  0  0  0  0  0  0
    1.7122   -5.5081   -1.3287 C   0  0  0  0  0  0  0  0  0  0  0  0
    0.8240   -0.9404   -0.0318 C   0  0  0  0  0  0  0  0  0  0  0  0
   -0.4596   -0.5887   -0.0131 N   0  0  0  0  0  0  0  0  0  0  0  0
    1.8201    0.0298   -0.0827 C   0  0  0  0  0  0  0  0  0  0  0  0
    3.1788   -0.0754   -0.1118 N   0  0  0  0  0  0  0  0  0  0  0  0
    3.6091    1.1568   -0.1604 C   0  0  0  0  0  0  0  0  0  0  0  0
    2.6042    2.0879   -0.1769 N   0  0  0  0  0  0  0  0  0  0  0  0
    5.0267    1.4343   -0.2065 C   0  0  0  0  0  0  0  0  0  0  0  0
    6.8857    2.4150   -0.2965 O   0  0  0  0  0  0  0  0  0  0  0  0
    7.2085    1.0937   -0.2905 N   0  0  0  0  0  0  0  0  0  0  0  0
    0.1095    1.7571   -0.0910 C   0  0  0  0  0  0  0  0  0  0  0  0
   -4.4341    0.6634    0.1039 C   0  0  1  0  0  0  0  0  0  0  0  0
   -4.6132    1.5236    1.2572 N   0  0  0  0  0  0  0  0  0  0  0  0
   -6.9025    0.1419   -0.0615 C   0  0  0  0  0  0  0  0  0  0  0  0
   -8.9594    0.9761    0.9024 C   0  0  0  0  0  0  0  0  0  0  0  0
   -7.6875    0.4381    1.0500 C   0  0  0  0  0  0  0  0  0  0  0  0
    5.0245   -1.2543   -0.3240 H   0  0  0  0  0  0  0  0  0  0  0  0
    6.7255   -1.4552   -0.4408 H   0  0  0  0  0  0  0  0  0  0  0  0
  -10.4567    1.6540   -0.4826 H   0  0  0  0  0  0  0  0  0  0  0  0
   -9.0800    1.1334   -2.4745 H   0  0  0  0  0  0  0  0  0  0  0  0
   -6.8313    0.1718   -2.2064 H   0  0  0  0  0  0  0  0  0  0  0  0
   -2.9981   -0.6362   -0.8736 H   0  0  0  0  0  0  0  0  0  0  0  0
   -2.9113   -0.6584    0.8915 H   0  0  0  0  0  0  0  0  0  0  0  0
    3.5158   -4.5615    1.4817 H   0  0  0  0  0  0  0  0  0  0  0  0
    3.7074   -6.0074    0.4766 H   0  0  0  0  0  0  0  0  0  0  0  0
    4.0054   -4.4033   -0.2046 H   0  0  0  0  0  0  0  0  0  0  0  0
    1.7776    3.9149   -0.6298 H   0  0  0  0  0  0  0  0  0  0  0  0
    3.5051    3.8316   -0.8578 H   0  0  0  0  0  0  0  0  0  0  0  0
    2.9407    5.2079    1.1354 H   0  0  0  0  0  0  0  0  0  0  0  0
    2.0831    3.8518    1.8660 H   0  0  0  0  0  0  0  0  0  0  0  0
    3.8369    3.7797    1.6444 H   0  0  0  0  0  0  0  0  0  0  0  0
   -5.3155   -1.1109   -0.7352 H   0  0  0  0  0  0  0  0  0  0  0  0
   -5.4467   -1.0069    1.0084 H   0  0  0  0  0  0  0  0  0  0  0  0
    1.2607   -5.3396    1.8425 H   0  0  0  0  0  0  0  0  0  0  0  0
    2.3059   -4.9747   -2.0691 H   0  0  0  0  0  0  0  0  0  0  0  0
    2.0327   -6.5506   -1.3185 H   0  0  0  0  0  0  0  0  0  0  0  0
    0.6668   -5.4671   -1.6347 H   0  0  0  0  0  0  0  0  0  0  0  0
   -0.2301    2.7838   -0.1092 H   0  0  0  0  0  0  0  0  0  0  0  0
   -4.5573    1.2813   -0.7933 H   0  0  0  0  0  0  0  0  0  0  0  0
   -4.5141    0.9837    2.1097 H   0  0  0  0  0  0  0  0  0  0  0  0
   -3.8910    2.2320    1.2839 H   0  0  0  0  0  0  0  0  0  0  0  0
   -9.5554    1.1942    1.7796 H   0  0  0  0  0  0  0  0  0  0  0  0
   -7.3027    0.2386    2.0426 H   0  0  0  0  0  0  0  0  0  0  0  0
   -2.0891    1.0202   -0.0192 O   0  0  0  0  0  0  0  0  0  0  0  0
    1.1615   -2.3237   -0.0013 C   0  0  0  0  0  0  0  0  0  0  0  0
    2.7001    3.5412   -0.1874 C   0  0  0  0  0  0  0  0  0  0  0  0
  1 23  2  0
  1 24  1  0
  2  7  1  0
  3  4  2  0
  3 30  1  0
  4  5  1  0
  5 29  2  0
  6 59  1  0
  6 27  1  0
  7 23  1  0
  7 25  2  0
  8 18  1  0
  8 26  2  0
  8 59  1  0
 60 10  3  0
 60 17  1  0
  9 19  2  0
  9 22  1  0
  9 26  1  0
 15 10  1  6
 11 15  1  0
 61 12  1  0
 61 22  1  0
 13 27  1  0
 13 29  1  0
 14 15  1  0
 15 16  1  0
 17 18  2  0
 17 19  1  0
 19 20  1  0
 20 21  2  0
 21 22  1  0
 21 23  1  0
 24 25  1  0
 27 28  1  0
 29 31  1  0
 30 31  2  0
  2 32  1  0
  2 33  1  0
  3 34  1  0
  4 35  1  0
  5 36  1  0
  6 37  1  0
  6 38  1  0
 11 39  1  0
 11 40  1  0
 11 41  1  0
 61 42  1  0
 61 43  1  0
 12 44  1  0
 12 45  1  0
 12 46  1  0
 13 47  1  0
 13 48  1  0
 14 49  1  0
 16 50  1  0
 16 51  1  0
 16 52  1  0
 26 53  1  0
 27 54  1  6
 28 55  1  0
 28 56  1  0
 30 57  1  0
 31 58  1  0
M  END
