
     RDKit          3D

 22 23  0  0  0  0  0  0  0  0999 V2000
    3.8096    0.0743   -0.6046 N   0  0  0  0  0  0  0  0  0  0  0  0
   -2.1092   -1.4537    0.3345 C   0  0  0  0  0  0  0  0  0  0  0  0
    2.9506   -0.4794    0.4303 C   0  0  0  0  0  0  0  0  0  0  0  0
   -2.4759    0.8319   -0.2562 O   0  0  0  0  0  0  0  0  0  0  0  0
    1.5059   -0.1005    0.2194 C   0  0  0  0  0  0  0  0  0  0  0  0
   -3.1183   -0.4570   -0.2558 C   0  0  0  0  0  0  0  0  0  0  0  0
   -1.1470    0.6259   -0.1227 C   0  0  0  0  0  0  0  0  0  0  0  0
    0.4942   -1.0516    0.3688 C   0  0  0  0  0  0  0  0  0  0  0  0
    1.1542    1.2091   -0.1058 C   0  0  0  0  0  0  0  0  0  0  0  0
   -0.8270   -0.6847    0.1974 C   0  0  0  0  0  0  0  0  0  0  0  0
   -0.1713    1.5946   -0.2820 C   0  0  0  0  0  0  0  0  0  0  0  0
    4.7748   -0.1389   -0.3875 H   0  0  0  0  0  0  0  0  0  0  0  0
    3.6125   -0.3839   -1.4856 H   0  0  0  0  0  0  0  0  0  0  0  0
   -2.1119   -2.3983   -0.2094 H   0  0  0  0  0  0  0  0  0  0  0  0
    3.0160   -1.5722    0.5237 H   0  0  0  0  0  0  0  0  0  0  0  0
    3.2898   -0.0768    1.3896 H   0  0  0  0  0  0  0  0  0  0  0  0
   -3.3707   -0.7181   -1.2865 H   0  0  0  0  0  0  0  0  0  0  0  0
   -4.0403   -0.3801    0.3181 H   0  0  0  0  0  0  0  0  0  0  0  0
    0.7483   -2.0766    0.6156 H   0  0  0  0  0  0  0  0  0  0  0  0
    1.9368    1.9459   -0.2349 H   0  0  0  0  0  0  0  0  0  0  0  0
   -0.4262    2.6157   -0.5356 H   0  0  0  0  0  0  0  0  0  0  0  0
   -2.3226   -1.6784    1.3824 H   0  0  0  0  0  0  0  0  0  0  0  0
  1  3  1  0
  2  6  1  0
  2 10  1  0
  3  5  1  0
  4  6  1  0
  4  7  1  0
  5  8  2  0
  5  9  1  0
  7 10  2  0
  7 11  1  0
  8 10  1  0
  9 11  2  0
  1 12  1  0
  1 13  1  0
  2 22  1  0
  2 14  1  0
  3 15  1  0
  3 16  1  0
  6 17  1  0
  6 18  1  0
  8 19  1  0
  9 20  1  0
 11 21  1  0
M  END
