
     RDKit          3D

 53 59  0  0  0  0  0  0  0  0999 V2000
    4.7277   -0.2943   -0.2283 C   0  0  0  0  0  0  0  0  0  0  0  0
    7.5317    1.9719    0.1621 C   0  0  0  0  0  0  0  0  0  0  0  0
    6.3137    1.6021    0.6574 C   0  0  0  0  0  0  0  0  0  0  0  0
    5.8621    0.5192   -0.1529 C   0  0  0  0  0  0  0  0  0  0  0  0
    6.8694    0.2913   -1.1262 C   0  0  0  0  0  0  0  0  0  0  0  0
    3.6289   -0.1388    0.7701 C   0  0  0  0  0  0  0  0  0  0  0  0
    6.8543   -0.6234   -2.0794 N   0  0  0  0  0  0  0  0  0  0  0  0
    0.5868   -2.8848    1.0136 C   0  0  0  0  0  0  0  0  0  0  0  0
   -1.7269   -3.3770    0.5568 C   0  0  0  0  0  0  0  0  0  0  0  0
   -0.4327   -3.8106    0.8235 C   0  0  0  0  0  0  0  0  0  0  0  0
    4.6999   -1.2594   -1.2257 C   0  0  0  0  0  0  0  0  0  0  0  0
    5.7730   -1.3869   -2.1116 C   0  0  0  0  0  0  0  0  0  0  0  0
    7.8661    1.1879   -0.9041 N   0  0  0  0  0  0  0  0  0  0  0  0
    2.3939   -0.4279    0.3183 N   0  0  0  0  0  0  0  0  0  0  0  0
    3.8620    0.2225    1.9131 O   0  0  0  0  0  0  0  0  0  0  0  0
   -2.0266   -2.0237    0.4581 C   0  0  0  0  0  0  0  0  0  0  0  0
   -1.0090   -1.0921    0.6368 C   0  0  0  0  0  0  0  0  0  0  0  0
    0.2848   -1.5402    0.9263 C   0  0  0  0  0  0  0  0  0  0  0  0
    1.2155   -0.3787    1.1465 C   0  0  2  0  0  0  0  0  0  0  0  0
   -0.9898    0.3823    0.6014 C   0  0  0  0  0  0  0  0  0  0  0  0
    0.3148    0.8035    0.8867 C   0  0  0  0  0  0  0  0  0  0  0  0
    0.6622    2.1370    0.9522 C   0  0  0  0  0  0  0  0  0  0  0  0
   -0.3242    3.0918    0.7392 C   0  0  0  0  0  0  0  0  0  0  0  0
   -1.6249    2.6954    0.4694 C   0  0  0  0  0  0  0  0  0  0  0  0
   -1.9804    1.3459    0.3883 C   0  0  0  0  0  0  0  0  0  0  0  0
   -3.3764    1.0312    0.0646 C   0  0  0  0  0  0  0  0  0  0  0  0
   -4.4040    1.6282    0.7226 N   0  0  0  0  0  0  0  0  0  0  0  0
   -3.7840    0.2334   -0.8889 N   0  0  0  0  0  0  0  0  0  0  0  0
   -5.1521    0.2969   -0.8525 C   0  0  0  0  0  0  0  0  0  0  0  0
   -5.5674    1.1745    0.1632 C   0  0  0  0  0  0  0  0  0  0  0  0
   -6.9075    1.4228    0.4313 C   0  0  0  0  0  0  0  0  0  0  0  0
   -7.8385    0.7693   -0.3554 C   0  0  0  0  0  0  0  0  0  0  0  0
   -7.4156   -0.0961   -1.3673 C   0  0  0  0  0  0  0  0  0  0  0  0
   -6.0954   -0.3585   -1.6464 C   0  0  0  0  0  0  0  0  0  0  0  0
   -8.3646   -0.7046   -2.1045 F   0  0  0  0  0  0  0  0  0  0  0  0
    8.1999    2.7480    0.4985 H   0  0  0  0  0  0  0  0  0  0  0  0
    5.8138    2.0504    1.4982 H   0  0  0  0  0  0  0  0  0  0  0  0
   -2.5156   -4.1045    0.4162 H   0  0  0  0  0  0  0  0  0  0  0  0
   -0.2206   -4.8698    0.8868 H   0  0  0  0  0  0  0  0  0  0  0  0
    3.8685   -1.9449   -1.3241 H   0  0  0  0  0  0  0  0  0  0  0  0
    5.7420   -2.1516   -2.8783 H   0  0  0  0  0  0  0  0  0  0  0  0
    8.7169    1.2576   -1.4386 H   0  0  0  0  0  0  0  0  0  0  0  0
    2.2569   -0.5868   -0.6681 H   0  0  0  0  0  0  0  0  0  0  0  0
   -3.0346   -1.7165    0.2286 H   0  0  0  0  0  0  0  0  0  0  0  0
    1.5480   -0.3605    2.1885 H   0  0  0  0  0  0  0  0  0  0  0  0
    1.6792    2.4342    1.1766 H   0  0  0  0  0  0  0  0  0  0  0  0
   -0.0837    4.1455    0.7825 H   0  0  0  0  0  0  0  0  0  0  0  0
   -2.3790    3.4526    0.2952 H   0  0  0  0  0  0  0  0  0  0  0  0
   -4.3215    2.2470    1.5145 H   0  0  0  0  0  0  0  0  0  0  0  0
   -7.2210    2.0940    1.2193 H   0  0  0  0  0  0  0  0  0  0  0  0
   -8.8968    0.9230   -0.1920 H   0  0  0  0  0  0  0  0  0  0  0  0
   -5.8053   -1.0362   -2.4388 H   0  0  0  0  0  0  0  0  0  0  0  0
    1.5965   -3.2114    1.2308 H   0  0  0  0  0  0  0  0  0  0  0  0
 10  9  1  0
 10  8  2  0
 12 11  2  0
 12  7  1  0
  9 16  2  0
  8 18  1  0
 11  1  1  0
  7  5  2  0
  1  6  1  0
  1  4  2  0
  5  4  1  0
  5 13  1  0
  6 15  2  0
  6 14  1  0
  4  3  1  0
 16 17  1  0
 18 17  2  0
 18 19  1  0
 13  2  1  0
 14 19  1  0
  3  2  2  0
 17 20  1  0
 19 21  1  0
 20 21  2  0
 20 25  1  0
 21 22  1  0
 28 29  1  0
 28 26  2  0
 34 29  1  0
 34 33  2  0
 29 30  2  0
 26 25  1  0
 26 27  1  0
 25 24  2  0
 33 35  1  0
 33 32  1  0
 30 27  1  0
 30 31  1  0
 22 23  2  0
 32 31  2  0
 24 23  1  0
  2 36  1  0
  3 37  1  0
  8 53  1  0
  9 38  1  0
 10 39  1  0
 11 40  1  0
 12 41  1  0
 13 42  1  0
 14 43  1  0
 16 44  1  0
 19 45  1  1
 22 46  1  0
 23 47  1  0
 24 48  1  0
 27 49  1  0
 31 50  1  0
 32 51  1  0
 34 52  1  0
M  END
