
     RDKit          3D

 62 65  0  0  0  0  0  0  0  0999 V2000
    4.9817    3.3860   -0.6933 O   0  0  0  0  0  0  0  0  0  0  0  0
    5.6310    2.1728   -0.9932 C   0  0  0  0  0  0  0  0  0  0  0  0
    5.7589    1.3432    0.2605 C   0  0  1  0  0  0  0  0  0  0  0  0
    4.4807    0.9316    0.7045 O   0  0  0  0  0  0  0  0  0  0  0  0
    6.5762    0.0694    0.0407 C   0  0  1  0  0  0  0  0  0  0  0  0
    7.9325    0.3475    0.2931 O   0  0  0  0  0  0  0  0  0  0  0  0
    5.9302   -0.9111    1.0171 C   0  0  0  0  0  0  0  0  0  0  0  0
    4.5193   -0.3585    1.2640 C   0  0  2  0  0  0  0  0  0  0  0  0
    3.4108   -1.1408    0.7554 N   0  0  0  0  0  0  0  0  0  0  0  0
    2.4157   -1.6739    1.6678 C   0  0  0  0  0  0  0  0  0  0  0  0
    3.3292   -1.4428   -0.5580 C   0  0  0  0  0  0  0  0  0  0  0  0
    4.1794   -1.1912   -1.3895 O   0  0  0  0  0  0  0  0  0  0  0  0
    2.1675   -2.1112   -0.9362 N   0  0  0  0  0  0  0  0  0  0  0  0
    0.9748   -2.1403   -0.2656 C   0  0  0  0  0  0  0  0  0  0  0  0
   -0.0130   -2.6347   -0.7631 O   0  0  0  0  0  0  0  0  0  0  0  0
    1.0017   -1.5179    1.1157 C   0  0  1  0  0  0  0  0  0  0  0  0
    0.0249   -2.2480    2.0288 C   0  0  0  0  0  0  0  0  0  0  0  0
    0.6472   -0.0095    1.0323 C   0  0  0  0  0  0  0  0  0  0  0  0
   -0.6153    0.3002    0.2945 C   0  0  0  0  0  0  0  0  0  0  0  0
   -1.8029    0.4364    0.9106 C   0  0  0  0  0  0  0  0  0  0  0  0
   -0.5743    0.4658   -1.1440 C   0  0  0  0  0  0  0  0  0  0  0  0
    0.4305    0.4024   -1.8281 O   0  0  0  0  0  0  0  0  0  0  0  0
   -1.8049    0.7182   -1.7203 N   0  0  0  0  0  0  0  0  0  0  0  0
   -3.0206    0.8478   -1.1002 C   0  0  0  0  0  0  0  0  0  0  0  0
   -4.0363    1.0748   -1.7220 O   0  0  0  0  0  0  0  0  0  0  0  0
   -2.9805    0.7090    0.2697 N   0  0  0  0  0  0  0  0  0  0  0  0
   -4.2153    0.8039    1.0500 C   0  0  2  0  0  0  0  0  0  0  0  0
   -5.0660   -0.2453    0.6908 O   0  0  0  0  0  0  0  0  0  0  0  0
   -5.0012    2.1104    0.9047 C   0  0  0  0  0  0  0  0  0  0  0  0
   -6.3098    1.7073    0.2235 C   0  0  2  0  0  0  0  0  0  0  0  0
   -7.4568    2.3423    0.7298 O   0  0  0  0  0  0  0  0  0  0  0  0
   -6.3988    0.2115    0.5287 C   0  0  1  0  0  0  0  0  0  0  0  0
   -7.0852   -0.5709   -0.5632 C   0  0  0  0  0  0  0  0  0  0  0  0
   -7.2391   -1.9092   -0.1533 O   0  0  0  0  0  0  0  0  0  0  0  0
    4.8744    3.8771   -1.5127 H   0  0  0  0  0  0  0  0  0  0  0  0
    5.0834    1.5879   -1.7429 H   0  0  0  0  0  0  0  0  0  0  0  0
    6.6430    2.3413   -1.3854 H   0  0  0  0  0  0  0  0  0  0  0  0
    6.2543    1.9382    1.0433 H   0  0  0  0  0  0  0  0  0  0  0  0
    6.4409   -0.2835   -0.9852 H   0  0  0  0  0  0  0  0  0  0  0  0
    8.4554   -0.3872   -0.0403 H   0  0  0  0  0  0  0  0  0  0  0  0
    5.9245   -1.9407    0.6636 H   0  0  0  0  0  0  0  0  0  0  0  0
    6.4866   -0.8909    1.9564 H   0  0  0  0  0  0  0  0  0  0  0  0
    4.3384   -0.2969    2.3406 H   0  0  0  0  0  0  0  0  0  0  0  0
    2.6146   -2.7309    1.8774 H   0  0  0  0  0  0  0  0  0  0  0  0
    2.4950   -1.1400    2.6142 H   0  0  0  0  0  0  0  0  0  0  0  0
    2.1516   -2.4162   -1.9010 H   0  0  0  0  0  0  0  0  0  0  0  0
    0.2497   -3.3139    2.0812 H   0  0  0  0  0  0  0  0  0  0  0  0
    0.0895   -1.8442    3.0401 H   0  0  0  0  0  0  0  0  0  0  0  0
   -1.0040   -2.1411    1.6889 H   0  0  0  0  0  0  0  0  0  0  0  0
    0.5652    0.3476    2.0615 H   0  0  0  0  0  0  0  0  0  0  0  0
    1.4739    0.5418    0.5796 H   0  0  0  0  0  0  0  0  0  0  0  0
   -1.8823    0.3389    1.9852 H   0  0  0  0  0  0  0  0  0  0  0  0
   -1.8217    0.8290   -2.7267 H   0  0  0  0  0  0  0  0  0  0  0  0
   -3.8860    0.6833    2.0852 H   0  0  0  0  0  0  0  0  0  0  0  0
   -5.2217    2.4962    1.9015 H   0  0  0  0  0  0  0  0  0  0  0  0
   -4.4505    2.8817    0.3689 H   0  0  0  0  0  0  0  0  0  0  0  0
   -6.2272    1.8613   -0.8559 H   0  0  0  0  0  0  0  0  0  0  0  0
   -7.4982    3.2288    0.3600 H   0  0  0  0  0  0  0  0  0  0  0  0
   -6.9500    0.0829    1.4725 H   0  0  0  0  0  0  0  0  0  0  0  0
   -8.0528   -0.0895   -0.7577 H   0  0  0  0  0  0  0  0  0  0  0  0
   -6.4917   -0.4900   -1.4828 H   0  0  0  0  0  0  0  0  0  0  0  0
   -7.6580   -2.3944   -0.8697 H   0  0  0  0  0  0  0  0  0  0  0  0
 16 17  1  1
 15 14  2  0
 16 14  1  0
 16 18  1  0
 16 10  1  0
 14 13  1  0
 18 19  1  0
 10  9  1  0
 13 11  1  0
 19 20  2  0
 19 21  1  0
 22 21  2  0
 20 26  1  0
 21 23  1  0
  9 11  1  0
  9  8  1  0
 11 12  2  0
 29 27  1  0
 29 30  1  0
 26 27  1  0
 26 24  1  0
 23 24  1  0
  8  4  1  0
  8  7  1  0
 27 28  1  0
 30 31  1  0
 30 32  1  0
 24 25  2  0
  4  3  1  0
  7  5  1  0
 28 32  1  0
 32 33  1  0
 33 34  1  0
  3  5  1  0
  3  2  1  0
  5  6  1  0
  1  2  1  0
  1 35  1  0
  2 36  1  0
  2 37  1  0
  3 38  1  1
  5 39  1  6
  6 40  1  0
  7 41  1  0
  7 42  1  0
  8 43  1  1
 10 44  1  0
 10 45  1  0
 13 46  1  0
 17 47  1  0
 17 48  1  0
 17 49  1  0
 18 50  1  0
 18 51  1  0
 20 52  1  0
 23 53  1  0
 27 54  1  1
 29 55  1  0
 29 56  1  0
 30 57  1  6
 31 58  1  0
 32 59  1  1
 33 60  1  0
 33 61  1  0
 34 62  1  0
M  END
