
     RDKit          3D

 52 55  0  0  0  0  0  0  0  0999 V2000
    6.6478   -1.5751   -0.4369 C   0  0  0  0  0  0  0  0  0  0  0  0
    5.9462   -1.4022    0.8950 C   0  0  0  0  0  0  0  0  0  0  0  0
    4.9189    0.8465    1.2147 C   0  0  0  0  0  0  0  0  0  0  0  0
    1.0827   -0.3448    0.2672 C   0  0  0  0  0  0  0  0  0  0  0  0
    0.5097    0.8984    0.1139 C   0  0  0  0  0  0  0  0  0  0  0  0
   -0.8860    1.2525   -0.0569 C   0  0  0  0  0  0  0  0  0  0  0  0
   -1.3229    2.5781   -0.1446 C   0  0  0  0  0  0  0  0  0  0  0  0
   -2.6824    2.7588   -0.3073 C   0  0  0  0  0  0  0  0  0  0  0  0
   -3.0360    0.5319   -0.2896 C   0  0  0  0  0  0  0  0  0  0  0  0
   -5.3168   -0.4182   -0.4093 C   0  0  1  0  0  0  0  0  0  0  0  0
   -5.9168   -0.1939    0.9789 C   0  0  0  0  0  0  0  0  0  0  0  0
   -7.4358   -0.2229    0.9092 C   0  0  0  0  0  0  0  0  0  0  0  0
   -7.4343   -1.6138   -0.9701 C   0  0  0  0  0  0  0  0  0  0  0  0
    3.5672   -1.0988    0.5291 C   0  0  0  0  0  0  0  0  0  0  0  0
    4.7773   -0.5485    0.8037 N   0  0  0  0  0  0  0  0  0  0  0  0
    7.0831   -0.3224   -0.8976 O   0  0  0  0  0  0  0  0  0  0  0  0
    7.6511   -0.3824   -2.1798 C   0  0  0  0  0  0  0  0  0  0  0  0
    2.4703   -0.1383    0.4194 C   0  0  0  0  0  0  0  0  0  0  0  0
    1.5234    1.8323    0.1575 N   0  0  0  0  0  0  0  0  0  0  0  0
    2.7015    1.2193    0.3403 C   0  0  0  0  0  0  0  0  0  0  0  0
    4.0619    1.8018    0.3955 C   0  0  0  0  0  0  0  0  0  0  0  0
   -1.7422    0.2403   -0.1283 N   0  0  0  0  0  0  0  0  0  0  0  0
   -3.5525    1.7636   -0.3797 N   0  0  0  0  0  0  0  0  0  0  0  0
   -3.8752   -0.5179   -0.3877 N   0  0  0  0  0  0  0  0  0  0  0  0
   -5.9152   -1.6794   -1.0211 C   0  0  0  0  0  0  0  0  0  0  0  0
   -7.9155   -1.4227    0.3418 O   0  0  0  0  0  0  0  0  0  0  0  0
    7.4923   -2.2674   -0.3064 H   0  0  0  0  0  0  0  0  0  0  0  0
    5.9621   -2.0409   -1.1584 H   0  0  0  0  0  0  0  0  0  0  0  0
    5.6662   -2.3854    1.2723 H   0  0  0  0  0  0  0  0  0  0  0  0
    6.6327   -0.9679    1.6238 H   0  0  0  0  0  0  0  0  0  0  0  0
    4.6568    0.9484    2.2734 H   0  0  0  0  0  0  0  0  0  0  0  0
    5.9650    1.1237    1.1128 H   0  0  0  0  0  0  0  0  0  0  0  0
    0.5522   -1.2831    0.2774 H   0  0  0  0  0  0  0  0  0  0  0  0
   -0.6609    3.4291   -0.0834 H   0  0  0  0  0  0  0  0  0  0  0  0
   -3.0910    3.7613   -0.3798 H   0  0  0  0  0  0  0  0  0  0  0  0
   -5.5836    0.4314   -1.0439 H   0  0  0  0  0  0  0  0  0  0  0  0
   -5.5917    0.7670    1.3848 H   0  0  0  0  0  0  0  0  0  0  0  0
   -7.8677   -0.1463    1.9085 H   0  0  0  0  0  0  0  0  0  0  0  0
   -7.7935    0.6422    0.3308 H   0  0  0  0  0  0  0  0  0  0  0  0
   -7.7850   -0.8037   -1.6273 H   0  0  0  0  0  0  0  0  0  0  0  0
   -7.8691   -2.5440   -1.3387 H   0  0  0  0  0  0  0  0  0  0  0  0
    8.5373   -1.0282   -2.2104 H   0  0  0  0  0  0  0  0  0  0  0  0
    6.9396   -0.7565   -2.9262 H   0  0  0  0  0  0  0  0  0  0  0  0
    7.9504    0.6258   -2.4644 H   0  0  0  0  0  0  0  0  0  0  0  0
    1.4099    2.8295    0.0634 H   0  0  0  0  0  0  0  0  0  0  0  0
    4.0731    2.7873    0.8626 H   0  0  0  0  0  0  0  0  0  0  0  0
    4.4681    1.9157   -0.6146 H   0  0  0  0  0  0  0  0  0  0  0  0
   -3.4694   -1.4218   -0.2010 H   0  0  0  0  0  0  0  0  0  0  0  0
   -5.5956   -1.7917   -2.0599 H   0  0  0  0  0  0  0  0  0  0  0  0
   -5.5658   -2.5626   -0.4752 H   0  0  0  0  0  0  0  0  0  0  0  0
    3.4055   -2.3027    0.3521 O   0  0  0  0  0  0  0  0  0  0  0  0
   -5.5603   -0.9744    1.6583 H   0  0  0  0  0  0  0  0  0  0  0  0
 17 16  1  0
 16  1  1  0
  1  2  1  0
 51 14  2  0
  4 18  1  0
  4  5  2  0
 14 18  1  0
 14 15  1  0
  7  8  2  0
  7  6  1  0
  2 15  1  0
  8 23  1  0
 18 20  2  0
 15  3  1  0
  5  6  1  0
  5 19  1  0
  6 22  2  0
 23  9  2  0
  3 21  1  0
 20 19  1  0
 20 21  1  0
 22  9  1  0
  9 24  1  0
 24 10  1  0
 10 25  1  0
 10 11  1  0
 25 13  1  0
 13 26  1  0
 11 12  1  0
 12 26  1  0
  1 27  1  0
  1 28  1  0
  2 29  1  0
  2 30  1  0
  3 31  1  0
  3 32  1  0
  4 33  1  0
  7 34  1  0
  8 35  1  0
 10 36  1  6
 11 52  1  0
 11 37  1  0
 12 38  1  0
 12 39  1  0
 13 40  1  0
 13 41  1  0
 17 42  1  0
 17 43  1  0
 17 44  1  0
 19 45  1  0
 21 46  1  0
 21 47  1  0
 24 48  1  0
 25 49  1  0
 25 50  1  0
M  END
