
     RDKit          3D

 21 22  0  0  0  0  0  0  0  0999 V2000
    3.4381   -1.4028    0.0275 C   0  0  0  0  0  0  0  0  0  0  0  0
    2.4061   -0.3743    0.0561 C   0  0  0  0  0  0  0  0  0  0  0  0
    3.1877   -2.5610    0.5836 N   0  0  0  0  0  0  0  0  0  0  0  0
    4.5853   -1.1416   -0.5520 N   0  0  0  0  0  0  0  0  0  0  0  0
    2.8351    1.3035    0.1321 S   0  0  0  0  0  0  0  0  0  0  0  0
    1.1694    1.7538    0.0801 C   0  0  0  0  0  0  0  0  0  0  0  0
    0.3245    0.6284    0.0102 C   0  0  0  0  0  0  0  0  0  0  0  0
    1.0669   -0.5887   -0.0008 C   0  0  0  0  0  0  0  0  0  0  0  0
    0.6775    3.0555    0.1113 C   0  0  0  0  0  0  0  0  0  0  0  0
   -0.6884    3.2267    0.0608 C   0  0  0  0  0  0  0  0  0  0  0  0
   -1.5603    2.1307   -0.0142 C   0  0  0  0  0  0  0  0  0  0  0  0
   -1.0612    0.8485   -0.0406 C   0  0  0  0  0  0  0  0  0  0  0  0
   -2.3852   -0.7744   -0.1521 I   0  0  0  0  0  0  0  0  0  0  0  0
    3.8279   -3.3382    0.5137 H   0  0  0  0  0  0  0  0  0  0  0  0
    2.3648   -2.6975    1.1487 H   0  0  0  0  0  0  0  0  0  0  0  0
    4.7144   -0.3179   -1.1181 H   0  0  0  0  0  0  0  0  0  0  0  0
    5.3505   -1.7994   -0.5356 H   0  0  0  0  0  0  0  0  0  0  0  0
    0.6215   -1.5709   -0.0802 H   0  0  0  0  0  0  0  0  0  0  0  0
    1.3451    3.9041    0.1671 H   0  0  0  0  0  0  0  0  0  0  0  0
   -1.1045    4.2248    0.0803 H   0  0  0  0  0  0  0  0  0  0  0  0
   -2.6257    2.3097   -0.0532 H   0  0  0  0  0  0  0  0  0  0  0  0
  1  2  1  0
  1  3  1  0
  1  4  2  0
  2  5  1  0
  2  8  2  0
  3 14  1  0
  3 15  1  0
  4 16  1  0
  4 17  1  0
  5  6  1  0
  6  7  2  0
  6  9  1  0
  7  8  1  0
  7 12  1  0
  8 18  1  0
  9 10  2  0
  9 19  1  0
 10 11  1  0
 10 20  1  0
 11 12  2  0
 11 21  1  0
 12 13  1  0
M  CHG  1   4   1
M  END
