
     RDKit          3D

 26 27  0  0  0  0  0  0  0  0999 V2000
    2.6418    0.2490    0.3784 C   0  0  1  0  0  0  0  0  0  0  0  0
   -3.4547    0.6633   -0.2705 C   0  0  0  0  0  0  0  0  0  0  0  0
   -4.7696    0.1967   -0.2552 C   0  0  0  0  0  0  0  0  0  0  0  0
   -5.0469   -1.1219    0.0551 C   0  0  0  0  0  0  0  0  0  0  0  0
   -4.0148   -2.0051    0.3557 C   0  0  0  0  0  0  0  0  0  0  0  0
   -2.7111   -1.5460    0.3444 C   0  0  0  0  0  0  0  0  0  0  0  0
   -2.4016   -0.2186    0.0383 C   0  0  0  0  0  0  0  0  0  0  0  0
   -1.0105    0.2301    0.0458 C   0  0  0  0  0  0  0  0  0  0  0  0
    0.1578   -0.4908    0.3648 C   0  0  0  0  0  0  0  0  0  0  0  0
    1.1729    0.4192    0.2121 C   0  0  0  0  0  0  0  0  0  0  0  0
    0.6141    1.5775   -0.1769 N   0  0  0  0  0  0  0  0  0  0  0  0
   -0.6970    1.4797   -0.2778 N   0  0  0  0  0  0  0  0  0  0  0  0
    3.2082    1.4320    0.7195 F   0  0  0  0  0  0  0  0  0  0  0  0
    2.8816   -0.6317    1.3741 F   0  0  0  0  0  0  0  0  0  0  0  0
    3.3296   -0.2463   -0.8973 C   0  0  1  0  0  0  0  0  0  0  0  0
    4.6465   -0.4242   -0.6558 F   0  0  0  0  0  0  0  0  0  0  0  0
    2.8017   -1.4471   -1.2232 F   0  0  0  0  0  0  0  0  0  0  0  0
   -2.3062    2.1589   -0.5799 H   0  0  0  0  0  0  0  0  0  0  0  0
   -5.5716    0.8853   -0.4916 H   0  0  0  0  0  0  0  0  0  0  0  0
   -6.0743   -1.4620    0.0614 H   0  0  0  0  0  0  0  0  0  0  0  0
   -4.2251   -3.0384    0.5952 H   0  0  0  0  0  0  0  0  0  0  0  0
   -1.9091   -2.2356    0.5767 H   0  0  0  0  0  0  0  0  0  0  0  0
    0.2499   -1.5199    0.6679 H   0  0  0  0  0  0  0  0  0  0  0  0
    1.0651    2.4607   -0.3648 H   0  0  0  0  0  0  0  0  0  0  0  0
    3.2005    0.4505   -1.7269 H   0  0  0  0  0  0  0  0  0  0  0  0
   -3.2637    1.9527   -0.5836 O   0  0  0  0  0  0  0  0  0  0  0  0
  5  4  2  0
  5  6  1  0
  4  3  1  0
  6  7  2  0
  3  2  2  0
  2  7  1  0
  2 26  1  0
  7  8  1  0
  8  9  1  0
  8 12  2  0
  9 10  2  0
 12 11  1  0
  1 13  1  1
 10 11  1  0
 10  1  1  0
  1 14  1  0
  1 15  1  0
 17 15  1  0
 15 16  1  0
 26 18  1  0
  3 19  1  0
  4 20  1  0
  5 21  1  0
  6 22  1  0
  9 23  1  0
 11 24  1  0
 15 25  1  6
M  END
