
     RDKit          3D

 73 78  0  0  0  0  0  0  0  0999 V2000
    4.4371   -2.5868   -1.2733 O   0  0  0  0  0  0  0  0  0  0  0  0
    4.9321   -1.7295   -0.5744 C   0  0  0  0  0  0  0  0  0  0  0  0
    6.0561   -1.8944    0.1743 N   0  0  0  0  0  0  0  0  0  0  0  0
    6.8816   -3.0040    0.2801 C   0  0  0  0  0  0  0  0  0  0  0  0
    6.7086   -4.2017   -0.4137 C   0  0  0  0  0  0  0  0  0  0  0  0
    7.6279   -5.2176   -0.2027 C   0  0  0  0  0  0  0  0  0  0  0  0
    8.6690   -5.1408    0.6166 N   0  0  0  0  0  0  0  0  0  0  0  0
    8.8230   -3.9950    1.2736 C   0  0  0  0  0  0  0  0  0  0  0  0
    7.9739   -2.9137    1.1460 C   0  0  0  0  0  0  0  0  0  0  0  0
    4.3697   -0.3096   -0.5180 C   0  0  1  0  0  0  0  0  0  0  0  0
    4.9137    0.4923   -1.7140 C   0  0  0  0  0  0  0  0  0  0  0  0
    4.3935    1.8889   -1.7369 C   0  0  0  0  0  0  0  0  0  0  0  0
    4.7215    2.9464   -0.8271 C   0  0  0  0  0  0  0  0  0  0  0  0
    5.5997    3.0551    0.2575 C   0  0  0  0  0  0  0  0  0  0  0  0
    5.6808    4.2564    0.9340 C   0  0  0  0  0  0  0  0  0  0  0  0
    4.9001    5.3588    0.5476 C   0  0  0  0  0  0  0  0  0  0  0  0
    4.0265    5.2822   -0.5200 C   0  0  0  0  0  0  0  0  0  0  0  0
    3.9471    4.0675   -1.1998 C   0  0  0  0  0  0  0  0  0  0  0  0
    3.1926    3.7013   -2.2755 N   0  0  0  0  0  0  0  0  0  0  0  0
    3.4597    2.4012   -2.5944 C   0  0  0  0  0  0  0  0  0  0  0  0
    2.9377   -0.3338   -0.5648 N   0  0  0  0  0  0  0  0  0  0  0  0
    2.2142   -0.8829    0.4302 C   0  0  0  0  0  0  0  0  0  0  0  0
    2.7513   -1.4386    1.3786 O   0  0  0  0  0  0  0  0  0  0  0  0
    0.7453   -0.7290    0.3013 C   0  0  0  0  0  0  0  0  0  0  0  0
   -0.1476   -1.6893    0.7628 C   0  0  0  0  0  0  0  0  0  0  0  0
    0.3250   -2.8290    1.2813 F   0  0  0  0  0  0  0  0  0  0  0  0
   -1.5141   -1.5576    0.6883 C   0  0  0  0  0  0  0  0  0  0  0  0
   -2.0921   -0.3941    0.1475 C   0  0  0  0  0  0  0  0  0  0  0  0
   -1.2019    0.5870   -0.3343 C   0  0  0  0  0  0  0  0  0  0  0  0
    0.1631    0.4132   -0.2500 C   0  0  0  0  0  0  0  0  0  0  0  0
   -3.4523   -0.2187    0.1208 N   0  0  0  0  0  0  0  0  0  0  0  0
   -4.3508   -1.3597    0.1224 C   0  0  0  0  0  0  0  0  0  0  0  0
   -5.7147   -1.0026    0.6827 C   0  0  0  0  0  0  0  0  0  0  0  0
   -6.2875    0.1142   -0.0353 N   0  0  0  0  0  0  0  0  0  0  0  0
   -5.3971    1.2619    0.0067 C   0  0  0  0  0  0  0  0  0  0  0  0
   -4.0308    0.9256   -0.5568 C   0  0  0  0  0  0  0  0  0  0  0  0
   -7.6527    0.3559    0.1066 C   0  0  0  0  0  0  0  0  0  0  0  0
   -8.4591   -0.3821    0.9802 C   0  0  0  0  0  0  0  0  0  0  0  0
   -9.8253   -0.1526    1.0681 C   0  0  0  0  0  0  0  0  0  0  0  0
  -10.4086    0.8337    0.2954 C   0  0  0  0  0  0  0  0  0  0  0  0
  -12.1158    1.1306    0.4078 Cl  0  0  0  0  0  0  0  0  0  0  0  0
   -9.6332    1.5877   -0.5740 C   0  0  0  0  0  0  0  0  0  0  0  0
   -8.2756    1.3460   -0.6680 C   0  0  0  0  0  0  0  0  0  0  0  0
    6.3266   -1.1101    0.7496 H   0  0  0  0  0  0  0  0  0  0  0  0
    5.8943   -4.3589   -1.1002 H   0  0  0  0  0  0  0  0  0  0  0  0
    7.5022   -6.1524   -0.7380 H   0  0  0  0  0  0  0  0  0  0  0  0
    9.6727   -3.9272    1.9434 H   0  0  0  0  0  0  0  0  0  0  0  0
    8.1623   -2.0105    1.7133 H   0  0  0  0  0  0  0  0  0  0  0  0
    4.6919    0.1738    0.4105 H   0  0  0  0  0  0  0  0  0  0  0  0
    6.0052    0.4836   -1.6634 H   0  0  0  0  0  0  0  0  0  0  0  0
    4.6400   -0.0224   -2.6384 H   0  0  0  0  0  0  0  0  0  0  0  0
    6.2115    2.2141    0.5624 H   0  0  0  0  0  0  0  0  0  0  0  0
    6.3548    4.3535    1.7752 H   0  0  0  0  0  0  0  0  0  0  0  0
    4.9860    6.2875    1.0970 H   0  0  0  0  0  0  0  0  0  0  0  0
    3.4270    6.1338   -0.8160 H   0  0  0  0  0  0  0  0  0  0  0  0
    2.5437    4.2923   -2.7670 H   0  0  0  0  0  0  0  0  0  0  0  0
    2.9636    1.9272   -3.4275 H   0  0  0  0  0  0  0  0  0  0  0  0
    2.4791   -0.0070   -1.3998 H   0  0  0  0  0  0  0  0  0  0  0  0
   -2.1104   -2.3710    1.0747 H   0  0  0  0  0  0  0  0  0  0  0  0
   -1.5597    1.5009   -0.7816 H   0  0  0  0  0  0  0  0  0  0  0  0
    0.7933    1.2154   -0.6146 H   0  0  0  0  0  0  0  0  0  0  0  0
   -4.4663   -1.7498   -0.8973 H   0  0  0  0  0  0  0  0  0  0  0  0
   -3.9579   -2.1654    0.7359 H   0  0  0  0  0  0  0  0  0  0  0  0
   -6.3466   -1.8831    0.5660 H   0  0  0  0  0  0  0  0  0  0  0  0
   -5.6263   -0.7957    1.7599 H   0  0  0  0  0  0  0  0  0  0  0  0
   -5.7990    2.0830   -0.5826 H   0  0  0  0  0  0  0  0  0  0  0  0
   -5.2835    1.6251    1.0385 H   0  0  0  0  0  0  0  0  0  0  0  0
   -3.4102    1.8063   -0.4117 H   0  0  0  0  0  0  0  0  0  0  0  0
   -4.1065    0.7433   -1.6369 H   0  0  0  0  0  0  0  0  0  0  0  0
   -8.0359   -1.1462    1.6165 H   0  0  0  0  0  0  0  0  0  0  0  0
  -10.4216   -0.7397    1.7538 H   0  0  0  0  0  0  0  0  0  0  0  0
  -10.0846    2.3553   -1.1883 H   0  0  0  0  0  0  0  0  0  0  0  0
   -7.7022    1.9276   -1.3775 H   0  0  0  0  0  0  0  0  0  0  0  0
 41 40  1  0
 39 38  2  0
 39 40  1  0
 38 37  1  0
 40 42  2  0
 33 32  1  0
 33 34  1  0
 23 22  2  0
 37 34  1  0
 37 43  2  0
 30 29  2  0
 30 24  1  0
 42 43  1  0
 29 28  1  0
 32 31  1  0
 34 35  1  0
  1  2  2  0
  6  5  2  0
  6  7  1  0
  5  4  1  0
 22 24  1  0
 22 21  1  0
 24 25  2  0
 28 31  1  0
 28 27  2  0
 31 36  1  0
  2  3  1  0
  2 10  1  0
 35 36  1  0
  7  8  2  0
  4  3  1  0
  4  9  2  0
 25 27  1  0
 25 26  1  0
 21 10  1  0
 10 11  1  0
  8  9  1  0
 11 12  1  0
 20 12  2  0
 20 19  1  0
 12 13  1  0
 19 18  1  0
 13 18  1  0
 13 14  2  0
 18 17  2  0
 14 15  1  0
 17 16  1  0
 15 16  2  0
  3 44  1  0
  5 45  1  0
  6 46  1  0
  8 47  1  0
  9 48  1  0
 10 49  1  1
 11 50  1  0
 11 51  1  0
 14 52  1  0
 15 53  1  0
 16 54  1  0
 17 55  1  0
 19 56  1  0
 20 57  1  0
 21 58  1  0
 27 59  1  0
 29 60  1  0
 30 61  1  0
 32 62  1  0
 32 63  1  0
 33 64  1  0
 33 65  1  0
 35 66  1  0
 35 67  1  0
 36 68  1  0
 36 69  1  0
 38 70  1  0
 39 71  1  0
 42 72  1  0
 43 73  1  0
M  END
