
     RDKit          3D

 36 37  0  0  0  0  0  0  0  0999 V2000
    3.6246    0.1607    2.3407 C   0  0  0  0  0  0  0  0  0  0  0  0
    3.3416    0.1818    0.8585 C   0  0  0  0  0  0  0  0  0  0  0  0
    1.9306    0.0759    0.6771 O   0  0  0  0  0  0  0  0  0  0  0  0
    1.4145    0.0823   -0.5662 C   0  0  0  0  0  0  0  0  0  0  0  0
    0.0450   -0.0393   -0.6678 C   0  0  0  0  0  0  0  0  0  0  0  0
   -0.7544   -0.2324    0.5839 C   0  0  0  0  0  0  0  0  0  0  0  0
   -1.1260   -1.3407    0.9538 O   0  0  0  0  0  0  0  0  0  0  0  0
   -1.0238    0.8819    1.2673 N   0  0  0  0  0  0  0  0  0  0  0  0
   -1.7495    0.8310    2.5215 C   0  0  0  0  0  0  0  0  0  0  0  0
   -1.0695   -0.1471    3.5757 B   0  0  0  0  0  0  0  0  0  0  0  0
   -1.8663   -0.7027    4.5264 O   0  0  0  0  0  0  0  0  0  0  0  0
    0.2739   -0.3712    3.6044 O   0  0  0  0  0  0  0  0  0  0  0  0
   -0.5868   -0.0562   -1.9337 C   0  0  0  0  0  0  0  0  0  0  0  0
    0.2086    0.0643   -3.1035 C   0  0  0  0  0  0  0  0  0  0  0  0
   -0.4116    0.0587   -4.3748 C   0  0  0  0  0  0  0  0  0  0  0  0
   -1.7686   -0.0583   -4.4894 C   0  0  0  0  0  0  0  0  0  0  0  0
   -2.5624   -0.1719   -3.3286 C   0  0  0  0  0  0  0  0  0  0  0  0
   -1.9918   -0.1711   -2.0853 C   0  0  0  0  0  0  0  0  0  0  0  0
    1.6067    0.1884   -2.9623 C   0  0  0  0  0  0  0  0  0  0  0  0
    2.2039    0.1985   -1.7329 C   0  0  0  0  0  0  0  0  0  0  0  0
    4.6999    0.2330    2.5002 H   0  0  0  0  0  0  0  0  0  0  0  0
    3.1573    1.0045    2.8493 H   0  0  0  0  0  0  0  0  0  0  0  0
    3.2810   -0.7661    2.8009 H   0  0  0  0  0  0  0  0  0  0  0  0
    3.7082    1.1113    0.4128 H   0  0  0  0  0  0  0  0  0  0  0  0
    3.8468   -0.6527    0.3625 H   0  0  0  0  0  0  0  0  0  0  0  0
   -0.7397    1.7715    0.8912 H   0  0  0  0  0  0  0  0  0  0  0  0
   -1.7543    1.8427    2.9326 H   0  0  0  0  0  0  0  0  0  0  0  0
   -2.7978    0.5670    2.3525 H   0  0  0  0  0  0  0  0  0  0  0  0
   -1.3910   -1.2425    5.1670 H   0  0  0  0  0  0  0  0  0  0  0  0
    0.7401    0.0461    2.8730 H   0  0  0  0  0  0  0  0  0  0  0  0
    0.2097    0.1516   -5.2578 H   0  0  0  0  0  0  0  0  0  0  0  0
   -2.2375   -0.0620   -5.4645 H   0  0  0  0  0  0  0  0  0  0  0  0
   -3.6369   -0.2586   -3.4239 H   0  0  0  0  0  0  0  0  0  0  0  0
   -2.6272   -0.2598   -1.2134 H   0  0  0  0  0  0  0  0  0  0  0  0
    2.2195    0.2774   -3.8508 H   0  0  0  0  0  0  0  0  0  0  0  0
    3.2785    0.2941   -1.6703 H   0  0  0  0  0  0  0  0  0  0  0  0
  1  2  1  0
  1 21  1  0
  1 22  1  0
  1 23  1  0
  2  3  1  0
  2 24  1  0
  2 25  1  0
  3  4  1  0
  4  5  2  0
  4 20  1  0
  5  6  1  0
  5 13  1  0
  6  7  2  0
  6  8  1  0
  8  9  1  0
  8 26  1  0
  9 10  1  0
  9 27  1  0
  9 28  1  0
 10 11  1  0
 10 12  1  0
 11 29  1  0
 12 30  1  0
 13 14  2  0
 13 18  1  0
 14 15  1  0
 14 19  1  0
 15 16  2  0
 15 31  1  0
 16 17  1  0
 16 32  1  0
 17 18  2  0
 17 33  1  0
 18 34  1  0
 19 20  2  0
 19 35  1  0
 20 36  1  0
M  END
