
     RDKit          3D

 17 17  0  0  0  0  0  0  0  0999 V2000
    0.0323   -0.0571    0.6755 C   0  0  0  0  0  0  0  0  0  0  0  0
   -1.1352    0.1091   -0.0656 C   0  0  0  0  0  0  0  0  0  0  0  0
   -1.0992    0.2099   -1.4444 C   0  0  0  0  0  0  0  0  0  0  0  0
    0.1189    0.1207   -2.1172 C   0  0  0  0  0  0  0  0  0  0  0  0
    1.2930   -0.0701   -1.3895 C   0  0  0  0  0  0  0  0  0  0  0  0
    1.2440   -0.1536   -0.0101 C   0  0  0  0  0  0  0  0  0  0  0  0
   -0.0738   -0.1590    2.1581 C   0  0  0  0  0  0  0  0  0  0  0  0
   -1.1132   -0.5178    2.6976 O   0  0  0  0  0  0  0  0  0  0  0  0
    1.0310    0.1566    2.8560 N   0  0  0  0  0  0  0  0  0  0  0  0
    0.2166    0.2064   -3.4532 O   0  0  0  0  0  0  0  0  0  0  0  0
   -2.0892    0.1751    0.4407 H   0  0  0  0  0  0  0  0  0  0  0  0
   -2.0195    0.3566   -1.9980 H   0  0  0  0  0  0  0  0  0  0  0  0
    2.2392   -0.1586   -1.9079 H   0  0  0  0  0  0  0  0  0  0  0  0
    2.1715   -0.3239    0.5229 H   0  0  0  0  0  0  0  0  0  0  0  0
    1.0003    0.1406    3.8624 H   0  0  0  0  0  0  0  0  0  0  0  0
    1.8100    0.6330    2.4367 H   0  0  0  0  0  0  0  0  0  0  0  0
   -0.6502    0.3566   -3.8477 H   0  0  0  0  0  0  0  0  0  0  0  0
  1  2  2  0
  1  6  1  0
  1  7  1  0
  2  3  1  0
  2 11  1  0
  3  4  2  0
  3 12  1  0
  4  5  1  0
  4 10  1  0
  5  6  2  0
  5 13  1  0
  6 14  1  0
  7  8  2  0
  7  9  1  0
  9 15  1  0
  9 16  1  0
 10 17  1  0
M  END
