
     RDKit          3D

 22 22  0  0  0  0  0  0  0  0999 V2000
    0.9875   -0.4594   -2.2128 O   0  0  0  0  0  0  0  0  0  0  0  0
    2.9530   -1.5103   -2.1616 O   0  0  0  0  0  0  0  0  0  0  0  0
    1.8890   -0.9651   -1.5849 C   0  0  0  0  0  0  0  0  0  0  0  0
    1.9235   -1.0400   -0.1101 C   0  0  0  0  0  0  0  0  0  0  0  0
    0.8568   -0.5058    0.6127 C   0  0  0  0  0  0  0  0  0  0  0  0
    0.8484   -0.5513    1.9892 C   0  0  0  0  0  0  0  0  0  0  0  0
    1.9090   -1.1324    2.6957 C   0  0  0  0  0  0  0  0  0  0  0  0
    2.9810   -1.6698    1.9772 C   0  0  0  0  0  0  0  0  0  0  0  0
    2.9770   -1.6186    0.5935 C   0  0  0  0  0  0  0  0  0  0  0  0
    2.6753   -1.6153    5.0180 C   0  0  0  0  0  0  0  0  0  0  0  0
    1.8095   -1.1289    4.0809 N   0  0  0  0  0  0  0  0  0  0  0  0
    3.7201   -2.1736    4.7451 O   0  0  0  0  0  0  0  0  0  0  0  0
    2.2274   -1.3673    6.4348 C   0  0  0  0  0  0  0  0  0  0  0  0
    2.8831   -1.4274   -3.1241 H   0  0  0  0  0  0  0  0  0  0  0  0
    0.0231   -0.0497    0.0964 H   0  0  0  0  0  0  0  0  0  0  0  0
    0.0097   -0.1307    2.5302 H   0  0  0  0  0  0  0  0  0  0  0  0
    3.8156   -2.1253    2.4818 H   0  0  0  0  0  0  0  0  0  0  0  0
    3.8220   -2.0437    0.0697 H   0  0  0  0  0  0  0  0  0  0  0  0
    0.9742   -0.6919    4.4416 H   0  0  0  0  0  0  0  0  0  0  0  0
    2.4749   -0.3431    6.7206 H   0  0  0  0  0  0  0  0  0  0  0  0
    2.7424   -2.0434    7.1122 H   0  0  0  0  0  0  0  0  0  0  0  0
    1.1525   -1.4928    6.5580 H   0  0  0  0  0  0  0  0  0  0  0  0
  1  3  2  0
  2  3  1  0
  2 14  1  0
  3  4  1  0
  4  5  2  0
  4  9  1  0
  5  6  1  0
  5 15  1  0
  6  7  2  0
  6 16  1  0
  7  8  1  0
  7 11  1  0
  8  9  2  0
  8 17  1  0
  9 18  1  0
 10 11  1  0
 10 12  2  0
 10 13  1  0
 11 19  1  0
 13 20  1  0
 13 21  1  0
 13 22  1  0
M  END
