
     RDKit          3D

 53 56  0  0  0  0  0  0  0  0999 V2000
    3.0151   -0.8518    1.1612 N   0  0  0  0  0  0  0  0  0  0  0  0
    0.3860   -3.0324    0.0048 C   0  0  0  0  0  0  0  0  0  0  0  0
   -0.6656   -2.2080    0.0299 N   0  0  0  0  0  0  0  0  0  0  0  0
    3.7827    1.2535    0.2611 C   0  0  0  0  0  0  0  0  0  0  0  0
    5.2577   -0.3860    1.1784 C   0  0  1  0  0  0  0  0  0  0  0  0
   -2.7609   -0.1347    0.2384 C   0  0  0  0  0  0  0  0  0  0  0  0
   -4.7844   -1.2351   -0.4708 C   0  0  0  0  0  0  0  0  0  0  0  0
   -9.0258    1.1765   -0.9894 C   0  0  0  0  0  0  0  0  0  0  0  0
   -9.4706    2.6181   -0.8323 C   0  0  0  0  0  0  0  0  0  0  0  0
    3.2813    0.5394    1.5195 C   0  0  2  0  0  0  0  0  0  0  0  0
    4.5779    0.3820    2.3083 C   0  0  0  0  0  0  0  0  0  0  0  0
    6.3955    1.6885   -3.1323 C   0  0  0  0  0  0  0  0  0  0  0  0
   -0.4016   -0.9746    0.4340 C   0  0  0  0  0  0  0  0  0  0  0  0
    0.7843   -0.4927    0.7988 N   0  0  0  0  0  0  0  0  0  0  0  0
    1.8224   -1.3253    0.7719 C   0  0  0  0  0  0  0  0  0  0  0  0
    1.6569   -2.6679    0.3610 C   0  0  0  0  0  0  0  0  0  0  0  0
    4.2868   -1.5515    0.9802 C   0  0  0  0  0  0  0  0  0  0  0  0
    5.0528    0.5426    0.0619 N   0  0  0  0  0  0  0  0  0  0  0  0
   -3.5211    1.0180    0.4826 C   0  0  0  0  0  0  0  0  0  0  0  0
   -4.8790    1.0401    0.2414 C   0  0  0  0  0  0  0  0  0  0  0  0
   -5.5392   -0.0874   -0.2484 C   0  0  0  0  0  0  0  0  0  0  0  0
   -3.4190   -1.2708   -0.2470 C   0  0  0  0  0  0  0  0  0  0  0  0
   -7.0056   -0.1293   -0.5070 C   0  0  0  0  0  0  0  0  0  0  0  0
   -7.6206   -1.1903   -0.5186 O   0  0  0  0  0  0  0  0  0  0  0  0
   -7.6070    1.0531   -0.7209 N   0  0  0  0  0  0  0  0  0  0  0  0
    5.8522    0.6033   -1.0052 C   0  0  0  0  0  0  0  0  0  0  0  0
    6.8571   -0.0728   -1.1503 O   0  0  0  0  0  0  0  0  0  0  0  0
    7.1480    1.7627   -3.9978 N   0  0  0  0  0  0  0  0  0  0  0  0
    0.1855   -4.0471   -0.3208 H   0  0  0  0  0  0  0  0  0  0  0  0
    3.1003    1.1305   -0.5811 H   0  0  0  0  0  0  0  0  0  0  0  0
    3.9369    2.3211    0.4376 H   0  0  0  0  0  0  0  0  0  0  0  0
    6.2982   -0.6675    1.3050 H   0  0  0  0  0  0  0  0  0  0  0  0
   -5.2690   -2.1291   -0.8408 H   0  0  0  0  0  0  0  0  0  0  0  0
   -9.5718    0.5387   -0.2940 H   0  0  0  0  0  0  0  0  0  0  0  0
   -9.2581    0.8190   -1.9972 H   0  0  0  0  0  0  0  0  0  0  0  0
  -10.5370    2.7046   -1.0359 H   0  0  0  0  0  0  0  0  0  0  0  0
   -9.2900    2.9791    0.1806 H   0  0  0  0  0  0  0  0  0  0  0  0
   -8.9480    3.2767   -1.5280 H   0  0  0  0  0  0  0  0  0  0  0  0
    2.4389    1.0174    2.0080 H   0  0  0  0  0  0  0  0  0  0  0  0
   -1.0866    0.8521    0.8275 H   0  0  0  0  0  0  0  0  0  0  0  0
    5.2893    2.6100   -1.6330 H   0  0  0  0  0  0  0  0  0  0  0  0
    4.4540    1.3320   -2.4934 H   0  0  0  0  0  0  0  0  0  0  0  0
    4.4619   -0.2035    3.2195 H   0  0  0  0  0  0  0  0  0  0  0  0
    5.0613    1.3306    2.5393 H   0  0  0  0  0  0  0  0  0  0  0  0
    2.4710   -3.3759    0.3355 H   0  0  0  0  0  0  0  0  0  0  0  0
    4.4364   -2.3366    1.7268 H   0  0  0  0  0  0  0  0  0  0  0  0
    4.3729   -1.9953   -0.0134 H   0  0  0  0  0  0  0  0  0  0  0  0
   -3.0394    1.9050    0.8760 H   0  0  0  0  0  0  0  0  0  0  0  0
   -5.4204    1.9495    0.4709 H   0  0  0  0  0  0  0  0  0  0  0  0
   -2.8656   -2.1736   -0.4452 H   0  0  0  0  0  0  0  0  0  0  0  0
   -7.0372    1.8675   -0.8840 H   0  0  0  0  0  0  0  0  0  0  0  0
   -1.4078   -0.0482    0.5044 N   0  0  0  0  0  0  0  0  0  0  0  0
    5.4188    1.6132   -2.0625 C   0  0  0  0  0  0  0  0  0  0  0  0
 28 12  3  0
 12 53  1  0
 53 26  1  0
 26 27  2  0
 26 18  1  0
 17  5  1  0
 17  1  1  0
 16  2  2  0
 16 15  1  0
  2  3  1  0
  5 18  1  0
  5 11  1  0
 18  4  1  0
  1 15  1  0
  1 10  1  0
 15 14  2  0
  3 13  2  0
  4 10  1  0
 11 10  1  0
 14 13  1  0
 13 52  1  0
 52  6  1  0
  6 22  1  0
  6 19  2  0
 22  7  2  0
 19 20  1  0
  7 21  1  0
 20 21  2  0
 21 23  1  0
 25 23  1  0
 25  8  1  0
 23 24  2  0
  8  9  1  0
  2 29  1  0
  4 30  1  0
  4 31  1  0
  5 32  1  1
  7 33  1  0
  8 34  1  0
  8 35  1  0
  9 36  1  0
  9 37  1  0
  9 38  1  0
 10 39  1  1
 52 40  1  0
 53 41  1  0
 53 42  1  0
 11 43  1  0
 11 44  1  0
 16 45  1  0
 17 46  1  0
 17 47  1  0
 19 48  1  0
 20 49  1  0
 22 50  1  0
 25 51  1  0
M  END
