
     RDKit          3D

 29 29  0  0  0  0  0  0  0  0999 V2000
    2.5693    0.4008    2.3462 O   0  0  0  0  0  0  0  0  0  0  0  0
    1.7006    0.5662    1.5296 C   0  0  0  0  0  0  0  0  0  0  0  0
    1.6882    1.5762    0.6728 O   0  0  0  0  0  0  0  0  0  0  0  0
    0.5165   -0.3690    1.3181 C   0  0  1  0  0  0  0  0  0  0  0  0
    0.2625   -1.1993    2.5723 C   0  0  1  0  0  0  0  0  0  0  0  0
   -0.4649   -0.3853    3.6095 C   0  0  0  0  0  0  0  0  0  0  0  0
   -1.3179    0.5743    3.2402 C   0  0  0  0  0  0  0  0  0  0  0  0
   -1.5327    0.8670    1.8346 C   0  0  0  0  0  0  0  0  0  0  0  0
   -0.5142   -2.3168    2.1880 O   0  0  0  0  0  0  0  0  0  0  0  0
   -0.7028    0.4076    0.8842 C   0  0  0  0  0  0  0  0  0  0  0  0
   -0.9863    0.7036   -0.5422 C   0  0  0  0  0  0  0  0  0  0  0  0
   -1.8337    1.5160   -0.8553 O   0  0  0  0  0  0  0  0  0  0  0  0
   -0.2146   -0.0653   -1.5851 C   0  0  0  0  0  0  0  0  0  0  0  0
   -0.6132    0.2940   -3.0032 C   0  0  0  0  0  0  0  0  0  0  0  0
    0.1665   -0.4759   -4.0331 C   0  0  0  0  0  0  0  0  0  0  0  0
   -0.1826   -0.1299   -5.2679 O   0  0  0  0  0  0  0  0  0  0  0  0
    1.0068   -1.3074   -3.7953 O   0  0  0  0  0  0  0  0  0  0  0  0
    2.4779    2.1265    0.7902 H   0  0  0  0  0  0  0  0  0  0  0  0
    0.8346   -1.0674    0.5350 H   0  0  0  0  0  0  0  0  0  0  0  0
    1.2269   -1.5242    2.9729 H   0  0  0  0  0  0  0  0  0  0  0  0
   -0.3412   -0.6480    4.6533 H   0  0  0  0  0  0  0  0  0  0  0  0
   -1.8982    1.1193    3.9734 H   0  0  0  0  0  0  0  0  0  0  0  0
   -2.3979    1.4581    1.5610 H   0  0  0  0  0  0  0  0  0  0  0  0
   -0.5944   -2.9020    2.9483 H   0  0  0  0  0  0  0  0  0  0  0  0
    0.8535    0.1103   -1.4343 H   0  0  0  0  0  0  0  0  0  0  0  0
   -0.3624   -1.1341   -1.4005 H   0  0  0  0  0  0  0  0  0  0  0  0
   -1.6767    0.1061   -3.1716 H   0  0  0  0  0  0  0  0  0  0  0  0
   -0.4675    1.3608   -3.1910 H   0  0  0  0  0  0  0  0  0  0  0  0
    0.3312   -0.6393   -5.9123 H   0  0  0  0  0  0  0  0  0  0  0  0
  1  2  2  0
  2  3  1  0
  2  4  1  0
  3 18  1  0
  4  5  1  0
  4 10  1  0
  4 19  1  6
  5  6  1  0
  5  9  1  0
  5 20  1  1
  6  7  2  0
  6 21  1  0
  7  8  1  0
  7 22  1  0
  8 10  2  0
  8 23  1  0
  9 24  1  0
 10 11  1  0
 11 12  2  0
 11 13  1  0
 13 14  1  0
 13 25  1  0
 13 26  1  0
 14 15  1  0
 14 27  1  0
 14 28  1  0
 15 16  1  0
 15 17  2  0
 16 29  1  0
M  END
