
     RDKit          3D

 45 49  0  0  0  0  0  0  0  0999 V2000
   -9.0210   -0.7188   -0.1832 O   0  0  0  0  0  0  0  0  0  0  0  0
   -7.6900   -0.5398   -0.0943 C   0  0  0  0  0  0  0  0  0  0  0  0
   -6.8446   -1.4558    0.5265 C   0  0  0  0  0  0  0  0  0  0  0  0
   -5.4824   -1.2124    0.5879 C   0  0  0  0  0  0  0  0  0  0  0  0
   -7.1481    0.6171   -0.6515 C   0  0  0  0  0  0  0  0  0  0  0  0
   -5.7860    0.8471   -0.5802 C   0  0  0  0  0  0  0  0  0  0  0  0
   -4.9217   -0.0581    0.0406 C   0  0  0  0  0  0  0  0  0  0  0  0
   -3.4728    0.1982    0.1197 C   0  0  0  0  0  0  0  0  0  0  0  0
   -2.5474   -0.8456    0.0455 C   0  0  0  0  0  0  0  0  0  0  0  0
   -1.1883   -0.6045    0.1288 C   0  0  0  0  0  0  0  0  0  0  0  0
   -2.9765    1.4941    0.2745 C   0  0  0  0  0  0  0  0  0  0  0  0
   -1.6170    1.7401    0.3506 C   0  0  0  0  0  0  0  0  0  0  0  0
   -0.6966    0.6928    0.2849 C   0  0  0  0  0  0  0  0  0  0  0  0
    0.7411    0.9118    0.3643 C   0  0  0  0  0  0  0  0  0  0  0  0
    1.8130    0.1049    0.0518 C   0  0  0  0  0  0  0  0  0  0  0  0
    2.2132   -1.2331   -0.4791 C   0  0  0  0  0  0  0  0  0  0  0  0
    1.3015    2.0766    0.7919 N   0  0  0  0  0  0  0  0  0  0  0  0
    2.6345    2.0866    0.7815 N   0  0  0  0  0  0  0  0  0  0  0  0
    2.9405    0.8882    0.3267 C   0  0  0  0  0  0  0  0  0  0  0  0
    4.1472    0.1425    0.0085 C   0  0  0  0  0  0  0  0  0  0  0  0
    3.7263   -1.1111   -0.4685 C   0  0  0  0  0  0  0  0  0  0  0  0
    4.6658   -2.0458   -0.8598 C   0  0  0  0  0  0  0  0  0  0  0  0
    6.0174   -1.7236   -0.7744 C   0  0  0  0  0  0  0  0  0  0  0  0
    5.4929    0.4591    0.0928 C   0  0  0  0  0  0  0  0  0  0  0  0
    6.4407   -0.4802   -0.3076 C   0  0  0  0  0  0  0  0  0  0  0  0
    7.9053   -0.1708   -0.1870 C   0  0  0  0  0  0  0  0  0  0  0  0
    8.3251   -0.5192    1.1175 O   0  0  0  0  0  0  0  0  0  0  0  0
   -9.2803   -1.5453    0.2394 H   0  0  0  0  0  0  0  0  0  0  0  0
   -7.2480   -2.3582    0.9712 H   0  0  0  0  0  0  0  0  0  0  0  0
   -4.8525   -1.9330    1.0947 H   0  0  0  0  0  0  0  0  0  0  0  0
   -7.7949    1.3307   -1.1464 H   0  0  0  0  0  0  0  0  0  0  0  0
   -5.3912    1.7450   -1.0389 H   0  0  0  0  0  0  0  0  0  0  0  0
   -2.8894   -1.8633   -0.0952 H   0  0  0  0  0  0  0  0  0  0  0  0
   -0.5028   -1.4403    0.0736 H   0  0  0  0  0  0  0  0  0  0  0  0
   -3.6608    2.3292    0.3531 H   0  0  0  0  0  0  0  0  0  0  0  0
   -1.2869    2.7658    0.4588 H   0  0  0  0  0  0  0  0  0  0  0  0
    1.8781   -2.0654    0.1465 H   0  0  0  0  0  0  0  0  0  0  0  0
    1.8333   -1.4268   -1.4863 H   0  0  0  0  0  0  0  0  0  0  0  0
    0.8158    2.8848    1.1472 H   0  0  0  0  0  0  0  0  0  0  0  0
    4.3605   -3.0157   -1.2329 H   0  0  0  0  0  0  0  0  0  0  0  0
    6.7568   -2.4527   -1.0843 H   0  0  0  0  0  0  0  0  0  0  0  0
    5.8094    1.4291    0.4584 H   0  0  0  0  0  0  0  0  0  0  0  0
    8.4605   -0.7297   -0.9494 H   0  0  0  0  0  0  0  0  0  0  0  0
    8.0694    0.8946   -0.3883 H   0  0  0  0  0  0  0  0  0  0  0  0
    9.2647   -0.3226    1.1861 H   0  0  0  0  0  0  0  0  0  0  0  0
 27 26  1  0
 26 25  1  0
 18 17  1  0
 18 19  2  0
 24 25  1  0
 24 20  2  0
 25 23  2  0
 17 14  1  0
 19 20  1  0
 19 15  1  0
 20 21  1  0
 23 22  1  0
 14 15  2  0
 14 13  1  0
 15 16  1  0
 21 22  2  0
 21 16  1  0
 13 12  2  0
 13 10  1  0
 12 11  1  0
 10  9  2  0
 11  8  2  0
  9  8  1  0
  8  7  1  0
  7  6  2  0
  7  4  1  0
  6  5  1  0
  4  3  2  0
  5  2  2  0
  3  2  1  0
  2  1  1  0
  1 28  1  0
  3 29  1  0
  4 30  1  0
  5 31  1  0
  6 32  1  0
  9 33  1  0
 10 34  1  0
 11 35  1  0
 12 36  1  0
 16 37  1  0
 16 38  1  0
 17 39  1  0
 22 40  1  0
 23 41  1  0
 24 42  1  0
 26 43  1  0
 26 44  1  0
 27 45  1  0
M  END
