
     RDKit          3D

 69 72  0  0  0  0  0  0  0  0999 V2000
   -4.4931   -0.9526    0.5300 C   0  0  0  0  0  0  0  0  0  0  0  0
   -6.3715    0.2914   -0.2451 C   0  0  0  0  0  0  0  0  0  0  0  0
   -7.5723    0.9807    0.3736 C   0  0  0  0  0  0  0  0  0  0  0  0
   -8.4045    1.6460   -0.7138 C   0  0  0  0  0  0  0  0  0  0  0  0
  -10.6313    3.2292   -1.3710 C   0  0  0  0  0  0  0  0  0  0  0  0
   -3.8415   -1.5412    1.6112 C   0  0  0  0  0  0  0  0  0  0  0  0
   -1.9428   -2.7908    2.6377 C   0  0  0  0  0  0  0  0  0  0  0  0
   -0.6992   -2.8562   -0.0042 C   0  0  0  0  0  0  0  0  0  0  0  0
    1.8033   -4.0587   -0.3208 C   0  0  0  0  0  0  0  0  0  0  0  0
    1.7078   -2.8169    0.3007 C   0  0  0  0  0  0  0  0  0  0  0  0
    2.9403   -2.1154    0.7839 C   0  0  0  0  0  0  0  0  0  0  0  0
    4.7277   -0.8585   -0.1630 C   0  0  0  0  0  0  0  0  0  0  0  0
    6.5424    0.0218    1.1628 C   0  0  0  0  0  0  0  0  0  0  0  0
    8.4020    1.2936   -0.2014 C   0  0  2  0  0  0  0  0  0  0  0  0
   -2.0743   -1.6618   -2.2884 C   0  0  0  0  0  0  0  0  0  0  0  0
   -2.6792   -1.6302   -0.9128 C   0  0  0  0  0  0  0  0  0  0  0  0
   -3.9128   -1.0051   -0.7308 C   0  0  0  0  0  0  0  0  0  0  0  0
   -5.6710   -0.3529    0.8016 O   0  0  0  0  0  0  0  0  0  0  0  0
   -9.6966    2.6449    0.0228 S   0  0  1  0  0  0  0  0  0  0  0  0
  -10.5516    1.7758    0.8330 O   0  0  0  0  0  0  0  0  0  0  0  0
   -9.0728    3.7917    0.6852 O   0  0  0  0  0  0  0  0  0  0  0  0
   -2.6151   -2.1666    1.4479 C   0  0  0  0  0  0  0  0  0  0  0  0
   -2.0237   -2.2085    0.1762 C   0  0  0  0  0  0  0  0  0  0  0  0
   -0.5834   -4.0993   -0.6201 C   0  0  0  0  0  0  0  0  0  0  0  0
    0.6608   -4.6959   -0.7796 C   0  0  0  0  0  0  0  0  0  0  0  0
    3.5675   -1.5229   -0.3454 O   0  0  0  0  0  0  0  0  0  0  0  0
    5.3382   -0.6797    1.0777 C   0  0  0  0  0  0  0  0  0  0  0  0
    7.1200    0.5421    0.0268 C   0  0  0  0  0  0  0  0  0  0  0  0
    8.5636    2.4944    0.7179 C   0  0  0  0  0  0  0  0  0  0  0  0
    9.8495    3.2399    0.4898 C   0  0  0  0  0  0  0  0  0  0  0  0
   10.0123    4.2264    1.3631 O   0  0  0  0  0  0  0  0  0  0  0  0
   10.6457    2.9869   -0.3801 O   0  0  0  0  0  0  0  0  0  0  0  0
    8.2615    1.6686   -1.6924 C   0  0  0  0  0  0  0  0  0  0  0  0
    7.1634    0.9047   -2.2258 O   0  0  0  0  0  0  0  0  0  0  0  0
    6.4915    0.3543   -1.1984 C   0  0  0  0  0  0  0  0  0  0  0  0
    5.3037   -0.3342   -1.3271 C   0  0  0  0  0  0  0  0  0  0  0  0
    0.4589   -2.2261    0.4467 C   0  0  0  0  0  0  0  0  0  0  0  0
   -6.6894   -0.4362   -1.0007 H   0  0  0  0  0  0  0  0  0  0  0  0
   -5.7331    1.0297   -0.7430 H   0  0  0  0  0  0  0  0  0  0  0  0
   -8.1809    0.2540    0.9137 H   0  0  0  0  0  0  0  0  0  0  0  0
   -7.2232    1.7271    1.0900 H   0  0  0  0  0  0  0  0  0  0  0  0
   -7.8070    2.3156   -1.3359 H   0  0  0  0  0  0  0  0  0  0  0  0
   -8.8915    0.9128   -1.3587 H   0  0  0  0  0  0  0  0  0  0  0  0
  -11.0562    2.3814   -1.9027 H   0  0  0  0  0  0  0  0  0  0  0  0
  -11.4280    3.8625   -0.9831 H   0  0  0  0  0  0  0  0  0  0  0  0
   -9.9830    3.8048   -2.0272 H   0  0  0  0  0  0  0  0  0  0  0  0
   -4.3023   -1.5006    2.5915 H   0  0  0  0  0  0  0  0  0  0  0  0
   -1.6305   -3.8152    2.4320 H   0  0  0  0  0  0  0  0  0  0  0  0
   -1.0464   -2.2410    2.9281 H   0  0  0  0  0  0  0  0  0  0  0  0
   -2.6102   -2.8092    3.4982 H   0  0  0  0  0  0  0  0  0  0  0  0
    2.7707   -4.5321   -0.4394 H   0  0  0  0  0  0  0  0  0  0  0  0
    2.6812   -1.3499    1.5228 H   0  0  0  0  0  0  0  0  0  0  0  0
    3.6220   -2.8244    1.2658 H   0  0  0  0  0  0  0  0  0  0  0  0
    7.0092    0.1477    2.1323 H   0  0  0  0  0  0  0  0  0  0  0  0
    9.2557    0.6233   -0.0615 H   0  0  0  0  0  0  0  0  0  0  0  0
   -1.0307   -1.3463   -2.2761 H   0  0  0  0  0  0  0  0  0  0  0  0
   -2.0954   -2.6678   -2.7105 H   0  0  0  0  0  0  0  0  0  0  0  0
   -2.6152   -1.0082   -2.9713 H   0  0  0  0  0  0  0  0  0  0  0  0
   -4.3965   -0.5582   -1.5896 H   0  0  0  0  0  0  0  0  0  0  0  0
   -1.4734   -4.6065   -0.9728 H   0  0  0  0  0  0  0  0  0  0  0  0
    0.7369   -5.6636   -1.2584 H   0  0  0  0  0  0  0  0  0  0  0  0
    4.9013   -1.0737    1.9840 H   0  0  0  0  0  0  0  0  0  0  0  0
    7.7284    3.1904    0.5888 H   0  0  0  0  0  0  0  0  0  0  0  0
    8.5290    2.1805    1.7648 H   0  0  0  0  0  0  0  0  0  0  0  0
   10.8471    4.6874    1.1916 H   0  0  0  0  0  0  0  0  0  0  0  0
    8.0298    2.7304   -1.8183 H   0  0  0  0  0  0  0  0  0  0  0  0
    9.1498    1.4379   -2.2759 H   0  0  0  0  0  0  0  0  0  0  0  0
    4.8245   -0.4725   -2.2882 H   0  0  0  0  0  0  0  0  0  0  0  0
    0.3836   -1.2562    0.9268 H   0  0  0  0  0  0  0  0  0  0  0  0
 25  9  2  0
 25 24  1  0
  9 10  1  0
 24  8  2  0
 10 11  1  0
 10 37  2  0
  8 37  1  0
  8 23  1  0
 15 16  1  0
 11 26  1  0
 23 16  2  0
 23 22  1  0
 16 17  1  0
 26 12  1  0
  7 22  1  0
 22  6  2  0
 17  1  2  0
 12 27  1  0
 12 36  2  0
 27 13  2  0
 32 30  2  0
 36 35  1  0
  6  1  1  0
  1 18  1  0
 29 30  1  0
 29 14  1  0
 13 28  1  0
 35 28  2  0
 35 34  1  0
 30 31  1  0
 28 14  1  0
 18  2  1  0
 34 33  1  0
  2  3  1  0
 14 33  1  0
  3  4  1  0
 19  5  1  6
  4 19  1  0
 20 19  2  0
 19 21  2  0
  2 38  1  0
  2 39  1  0
  3 40  1  0
  3 41  1  0
  4 42  1  0
  4 43  1  0
  5 44  1  0
  5 45  1  0
  5 46  1  0
  6 47  1  0
  7 48  1  0
  7 49  1  0
  7 50  1  0
  9 51  1  0
 11 52  1  0
 11 53  1  0
 13 54  1  0
 14 55  1  6
 15 56  1  0
 15 57  1  0
 15 58  1  0
 17 59  1  0
 24 60  1  0
 25 61  1  0
 27 62  1  0
 29 63  1  0
 29 64  1  0
 31 65  1  0
 33 66  1  0
 33 67  1  0
 36 68  1  0
 37 69  1  0
M  END
