
     RDKit          3D

 59 62  0  0  0  0  0  0  0  0999 V2000
    6.1312    2.9132   -0.5690 C   0  0  0  0  0  0  0  0  0  0  0  0
    4.3559    1.6343   -0.3943 C   0  0  0  0  0  0  0  0  0  0  0  0
    3.5000    2.6828   -0.6764 C   0  0  0  0  0  0  0  0  0  0  0  0
    4.0978    3.9331   -0.9075 C   0  0  0  0  0  0  0  0  0  0  0  0
    3.5457    0.5444   -0.2073 N   0  0  0  0  0  0  0  0  0  0  0  0
   -9.9907   -0.7031   -2.3296 C   0  0  0  0  0  0  0  0  0  0  0  0
   -8.5563    0.0702   -0.2639 C   0  0  0  0  0  0  0  0  0  0  0  0
   -7.3001    0.6490   -0.4574 C   0  0  0  0  0  0  0  0  0  0  0  0
   -9.0476   -0.0921    1.0335 C   0  0  0  0  0  0  0  0  0  0  0  0
   -8.2852    0.3246    2.1121 C   0  0  0  0  0  0  0  0  0  0  0  0
   -7.0378    0.8995    1.9094 C   0  0  0  0  0  0  0  0  0  0  0  0
   -6.5328    1.0681    0.6222 C   0  0  0  0  0  0  0  0  0  0  0  0
   -5.1652    1.6513    0.4020 C   0  0  0  0  0  0  0  0  0  0  0  0
   -4.1070    0.5538    0.3993 C   0  0  0  0  0  0  0  0  0  0  0  0
   -2.7909    1.1224    0.1881 N   0  0  0  0  0  0  0  0  0  0  0  0
   -1.7070    0.3656   -0.0062 C   0  0  0  0  0  0  0  0  0  0  0  0
   -1.7275   -0.8560   -0.0275 O   0  0  0  0  0  0  0  0  0  0  0  0
   -0.4188    1.1367   -0.2152 C   0  0  0  0  0  0  0  0  0  0  0  0
    2.2564    0.9934   -0.3945 C   0  0  0  0  0  0  0  0  0  0  0  0
    2.1947    2.2618   -0.6785 N   0  0  0  0  0  0  0  0  0  0  0  0
    3.3908    5.0283   -1.1978 N   0  0  0  0  0  0  0  0  0  0  0  0
    5.4326    4.0096   -0.8450 N   0  0  0  0  0  0  0  0  0  0  0  0
    5.6813    1.6924   -0.3280 N   0  0  0  0  0  0  0  0  0  0  0  0
    4.0064   -0.7534    0.2107 C   0  0  2  0  0  0  0  0  0  0  0  0
    3.3895   -1.7405   -0.5654 O   0  0  0  0  0  0  0  0  0  0  0  0
    3.6717   -1.1197    1.6537 C   0  0  2  0  0  0  0  0  0  0  0  0
    4.5133   -0.4327    2.5206 O   0  0  0  0  0  0  0  0  0  0  0  0
    3.8344   -2.6406    1.5973 C   0  0  2  0  0  0  0  0  0  0  0  0
    5.2007   -2.9318    1.7178 O   0  0  0  0  0  0  0  0  0  0  0  0
    3.2861   -2.9495    0.1924 C   0  0  1  0  0  0  0  0  0  0  0  0
    1.8452   -3.4348    0.2307 C   0  0  0  0  0  0  0  0  0  0  0  0
    1.2695   -3.5925   -1.1042 N   0  0  0  0  0  0  0  0  0  0  0  0
    1.5984   -4.5876   -1.7230 N   0  0  0  0  0  0  0  0  0  0  0  0
    1.8325   -5.4717   -2.3777 N   0  0  0  0  0  0  0  0  0  0  0  0
    7.2079    3.0406   -0.5358 H   0  0  0  0  0  0  0  0  0  0  0  0
  -10.5756   -1.0175   -3.1635 H   0  0  0  0  0  0  0  0  0  0  0  0
  -10.0200   -0.5394    1.1907 H   0  0  0  0  0  0  0  0  0  0  0  0
   -8.6662    0.2026    3.1173 H   0  0  0  0  0  0  0  0  0  0  0  0
   -6.4541    1.2259    2.7620 H   0  0  0  0  0  0  0  0  0  0  0  0
   -5.1357    2.1886   -0.5492 H   0  0  0  0  0  0  0  0  0  0  0  0
   -4.9420    2.3757    1.1894 H   0  0  0  0  0  0  0  0  0  0  0  0
   -4.1370    0.0072    1.3464 H   0  0  0  0  0  0  0  0  0  0  0  0
   -4.3238   -0.1661   -0.3931 H   0  0  0  0  0  0  0  0  0  0  0  0
   -2.6876    2.1240    0.2358 H   0  0  0  0  0  0  0  0  0  0  0  0
   -0.4625    1.7130   -1.1405 H   0  0  0  0  0  0  0  0  0  0  0  0
   -0.2408    1.8355    0.6033 H   0  0  0  0  0  0  0  0  0  0  0  0
    3.8494    5.9196   -1.2778 H   0  0  0  0  0  0  0  0  0  0  0  0
    2.3865    5.0152   -1.1676 H   0  0  0  0  0  0  0  0  0  0  0  0
    5.0943   -0.7402    0.0745 H   0  0  0  0  0  0  0  0  0  0  0  0
    2.6140   -0.8929    1.8428 H   0  0  0  0  0  0  0  0  0  0  0  0
    4.1871   -0.5381    3.4196 H   0  0  0  0  0  0  0  0  0  0  0  0
    3.2452   -3.1474    2.3719 H   0  0  0  0  0  0  0  0  0  0  0  0
    5.3147   -3.8863    1.6694 H   0  0  0  0  0  0  0  0  0  0  0  0
    3.9075   -3.7149   -0.2871 H   0  0  0  0  0  0  0  0  0  0  0  0
    1.8129   -4.3741    0.7903 H   0  0  0  0  0  0  0  0  0  0  0  0
    1.2043   -2.7229    0.7473 H   0  0  0  0  0  0  0  0  0  0  0  0
    0.9016   -0.0971   -0.3011 S   0  0  0  0  0  0  0  0  0  0  0  0
   -6.9238    0.7766   -1.4653 H   0  0  0  0  0  0  0  0  0  0  0  0
   -9.3335   -0.3488   -1.3854 C   0  0  0  0  0  0  0  0  0  0  0  0
 14 13  1  0
 14 15  1  0
 13 12  1  0
 17 16  2  0
 21  4  1  0
 15 16  1  0
 12 11  2  0
 12  8  1  0
 16 18  1  0
 11 10  1  0
  8  7  2  0
  4 22  1  0
  4  3  2  0
 22  1  2  0
 10  9  2  0
 20  3  1  0
 20 19  2  0
 18 57  1  0
  3  2  1  0
  7  9  1  0
  7 59  1  0
  1 23  1  0
 19 57  1  0
 19  5  1  0
 59  6  3  0
  2 23  2  0
  2  5  1  0
  5 24  1  0
 25 24  1  0
 25 30  1  0
 24 26  1  0
 34 33  2  0
 33 32  2  0
 31 30  1  0
 31 32  1  0
 30 28  1  0
 26 28  1  0
 26 27  1  0
 28 29  1  0
  1 35  1  0
  6 36  1  0
  8 58  1  0
  9 37  1  0
 10 38  1  0
 11 39  1  0
 13 40  1  0
 13 41  1  0
 14 42  1  0
 14 43  1  0
 15 44  1  0
 18 45  1  0
 18 46  1  0
 21 47  1  0
 21 48  1  0
 24 49  1  1
 26 50  1  1
 27 51  1  0
 28 52  1  1
 29 53  1  0
 30 54  1  6
 31 55  1  0
 31 56  1  0
M  CHG  2  33   1  34  -1
M  END
