
     RDKit          3D

 45 46  0  0  0  0  0  0  0  0999 V2000
   -2.4427    0.3508   -0.0815 N   0  0  0  0  0  0  0  0  0  0  0  0
    0.8674   -1.1147    0.3438 C   0  0  0  0  0  0  0  0  0  0  0  0
   -0.0761   -0.1058    0.0932 C   0  0  0  0  0  0  0  0  0  0  0  0
    2.2453   -0.7803    0.2934 C   0  0  0  0  0  0  0  0  0  0  0  0
    0.5167   -2.3970    0.6231 N   0  0  0  0  0  0  0  0  0  0  0  0
    0.3383    1.2099   -0.1919 C   0  0  0  0  0  0  0  0  0  0  0  0
   -1.4572   -0.5224    0.1486 C   0  0  0  0  0  0  0  0  0  0  0  0
    2.6426    0.5084    0.0275 C   0  0  0  0  0  0  0  0  0  0  0  0
   -0.7635   -2.6343    0.6519 C   0  0  0  0  0  0  0  0  0  0  0  0
    1.6771    1.5173   -0.2344 C   0  0  0  0  0  0  0  0  0  0  0  0
   -1.7647   -1.7778    0.4319 N   0  0  0  0  0  0  0  0  0  0  0  0
    3.9536    0.8381    0.0293 O   0  0  0  0  0  0  0  0  0  0  0  0
    3.4610   -2.0192    1.8521 C   0  0  0  0  0  0  0  0  0  0  0  0
    2.1856    2.7289   -0.4989 O   0  0  0  0  0  0  0  0  0  0  0  0
    4.5995    0.6967   -1.2316 C   0  0  0  0  0  0  0  0  0  0  0  0
    1.2871    3.7816   -0.7904 C   0  0  0  0  0  0  0  0  0  0  0  0
   -3.8654    0.0573   -0.0730 C   0  0  1  0  0  0  0  0  0  0  0  0
   -4.5829    0.9762    0.9148 C   0  0  0  0  0  0  0  0  0  0  0  0
   -4.4485    0.1726   -1.4820 C   0  0  0  0  0  0  0  0  0  0  0  0
   -4.1186    0.8034    2.3529 C   0  0  0  0  0  0  0  0  0  0  0  0
   -3.7965   -0.7609   -2.4915 C   0  0  0  0  0  0  0  0  0  0  0  0
   -2.1985    1.2954   -0.3295 H   0  0  0  0  0  0  0  0  0  0  0  0
   -0.3897    1.9872   -0.3757 H   0  0  0  0  0  0  0  0  0  0  0  0
   -1.0671   -3.6522    0.8782 H   0  0  0  0  0  0  0  0  0  0  0  0
    4.2324   -2.7863    1.8680 H   0  0  0  0  0  0  0  0  0  0  0  0
    3.8349   -1.1344    2.3730 H   0  0  0  0  0  0  0  0  0  0  0  0
    2.5788   -2.3949    2.3736 H   0  0  0  0  0  0  0  0  0  0  0  0
    5.6321    1.0124   -1.0977 H   0  0  0  0  0  0  0  0  0  0  0  0
    4.5885   -0.3408   -1.5719 H   0  0  0  0  0  0  0  0  0  0  0  0
    4.1362    1.3247   -1.9958 H   0  0  0  0  0  0  0  0  0  0  0  0
    1.8949    4.6591   -0.9945 H   0  0  0  0  0  0  0  0  0  0  0  0
    0.6760    3.5607   -1.6694 H   0  0  0  0  0  0  0  0  0  0  0  0
    0.6275    3.9976    0.0542 H   0  0  0  0  0  0  0  0  0  0  0  0
   -3.9728   -0.9739    0.2654 H   0  0  0  0  0  0  0  0  0  0  0  0
   -4.4556    2.0179    0.6006 H   0  0  0  0  0  0  0  0  0  0  0  0
   -5.6539    0.7693    0.8471 H   0  0  0  0  0  0  0  0  0  0  0  0
   -5.5180   -0.0448   -1.4191 H   0  0  0  0  0  0  0  0  0  0  0  0
   -4.3682    1.2101   -1.8239 H   0  0  0  0  0  0  0  0  0  0  0  0
   -4.6779    1.4549    3.0247 H   0  0  0  0  0  0  0  0  0  0  0  0
   -4.2620   -0.2239    2.6925 H   0  0  0  0  0  0  0  0  0  0  0  0
   -3.0616    1.0452    2.4677 H   0  0  0  0  0  0  0  0  0  0  0  0
   -4.2859   -0.6845   -3.4629 H   0  0  0  0  0  0  0  0  0  0  0  0
   -2.7420   -0.5240   -2.6368 H   0  0  0  0  0  0  0  0  0  0  0  0
   -3.8626   -1.8010   -2.1681 H   0  0  0  0  0  0  0  0  0  0  0  0
    3.1807   -1.7373    0.4865 O   0  0  0  0  0  0  0  0  0  0  0  0
 13 45  1  0
 45  4  1  0
 15 12  1  0
 12  8  1  0
  4  8  2  0
  4  2  1  0
  8 10  1  0
  5  2  2  0
  5  9  1  0
  2  3  1  0
 10 14  1  0
 10  6  2  0
 14 16  1  0
  9 11  2  0
  3  6  1  0
  3  7  2  0
 11  7  1  0
  7  1  1  0
 20 18  1  0
  1 17  1  0
 18 17  1  0
 17 19  1  0
 19 21  1  0
  1 22  1  0
  6 23  1  0
  9 24  1  0
 13 25  1  0
 13 26  1  0
 13 27  1  0
 15 28  1  0
 15 29  1  0
 15 30  1  0
 16 31  1  0
 16 32  1  0
 16 33  1  0
 17 34  1  1
 18 35  1  0
 18 36  1  0
 19 37  1  0
 19 38  1  0
 20 39  1  0
 20 40  1  0
 20 41  1  0
 21 42  1  0
 21 43  1  0
 21 44  1  0
M  END
