
     RDKit          3D

 42 44  0  0  0  0  0  0  0  0999 V2000
    2.6218   -0.9595    0.2683 C   0  0  0  0  0  0  0  0  0  0  0  0
    1.3092   -1.2734   -0.0178 C   0  0  0  0  0  0  0  0  0  0  0  0
    0.3558   -0.2675   -0.1737 C   0  0  0  0  0  0  0  0  0  0  0  0
    2.0741    1.3756    0.1804 C   0  0  0  0  0  0  0  0  0  0  0  0
    0.7483    1.0576   -0.0760 C   0  0  0  0  0  0  0  0  0  0  0  0
    3.0090    0.3719    0.3562 C   0  0  0  0  0  0  0  0  0  0  0  0
    0.9646   -2.6742   -0.1838 N   0  0  0  0  0  0  0  0  0  0  0  0
    1.4436   -3.4588    0.5969 O   0  0  0  0  0  0  0  0  0  0  0  0
    4.4292    0.7169    0.6893 C   0  0  1  0  0  0  0  0  0  0  0  0
    4.7982    1.8758    0.1389 F   0  0  0  0  0  0  0  0  0  0  0  0
    4.6012    0.8391    2.0114 F   0  0  0  0  0  0  0  0  0  0  0  0
    5.2832   -0.2184    0.2679 F   0  0  0  0  0  0  0  0  0  0  0  0
   -0.9270   -0.5879   -0.3889 O   0  0  0  0  0  0  0  0  0  0  0  0
   -1.8582    0.3976   -0.4406 C   0  0  0  0  0  0  0  0  0  0  0  0
   -1.5713    1.6552   -0.3737 N   0  0  0  0  0  0  0  0  0  0  0  0
   -0.2898    2.0943   -0.2539 C   0  0  0  0  0  0  0  0  0  0  0  0
   -0.0085    3.2771   -0.2558 O   0  0  0  0  0  0  0  0  0  0  0  0
   -3.0977   -0.0618   -0.6208 N   0  0  0  0  0  0  0  0  0  0  0  0
   -3.6664   -1.2364    0.0962 C   0  0  1  0  0  0  0  0  0  0  0  0
   -2.8074   -2.4779    0.2570 C   0  0  0  0  0  0  0  0  0  0  0  0
   -4.1971   -0.7323    1.4407 C   0  0  0  0  0  0  0  0  0  0  0  0
   -5.2283    0.3809    1.2731 C   0  0  0  0  0  0  0  0  0  0  0  0
   -4.7384    1.4890    0.3439 C   0  0  0  0  0  0  0  0  0  0  0  0
   -4.1834    0.8936   -0.9452 C   0  0  1  0  0  0  0  0  0  0  0  0
   -3.8712    1.9133   -2.0286 C   0  0  0  0  0  0  0  0  0  0  0  0
    3.3395   -1.7587    0.3941 H   0  0  0  0  0  0  0  0  0  0  0  0
    2.3483    2.4203    0.2453 H   0  0  0  0  0  0  0  0  0  0  0  0
   -4.5170   -1.5327   -0.5227 H   0  0  0  0  0  0  0  0  0  0  0  0
   -2.0218   -2.3641    1.0015 H   0  0  0  0  0  0  0  0  0  0  0  0
   -3.4684   -3.2718    0.6054 H   0  0  0  0  0  0  0  0  0  0  0  0
   -2.3703   -2.8046   -0.6832 H   0  0  0  0  0  0  0  0  0  0  0  0
   -4.6407   -1.5719    1.9803 H   0  0  0  0  0  0  0  0  0  0  0  0
   -3.3497   -0.3861    2.0431 H   0  0  0  0  0  0  0  0  0  0  0  0
   -6.1457   -0.0488    0.8584 H   0  0  0  0  0  0  0  0  0  0  0  0
   -5.4940    0.7925    2.2487 H   0  0  0  0  0  0  0  0  0  0  0  0
   -5.5614    2.1657    0.1024 H   0  0  0  0  0  0  0  0  0  0  0  0
   -3.9639    2.0905    0.8270 H   0  0  0  0  0  0  0  0  0  0  0  0
   -4.9550    0.2446   -1.3697 H   0  0  0  0  0  0  0  0  0  0  0  0
   -3.3239    1.4604   -2.8561 H   0  0  0  0  0  0  0  0  0  0  0  0
   -4.8214    2.2731   -2.4251 H   0  0  0  0  0  0  0  0  0  0  0  0
   -3.3085    2.7679   -1.6661 H   0  0  0  0  0  0  0  0  0  0  0  0
    0.2487   -2.9626   -1.1097 O   0  0  0  0  0  0  0  0  0  0  0  0
  9 12  1  6
 10  9  1  0
 17 16  2  0
  9 11  1  0
  9  6  1  0
  4  6  1  0
  4  5  2  0
 16  5  1  0
 16 15  1  0
  6  1  2  0
  5  3  1  0
 15 14  2  0
  1  2  1  0
  3  2  2  0
  3 13  1  0
 20 19  1  0
 14 13  1  0
 14 18  1  0
  2  7  1  0
 19 18  1  0
 19 21  1  0
 18 24  1  0
  7  8  2  0
 21 22  1  0
 25 24  1  0
 24 23  1  0
 22 23  1  0
  1 26  1  0
  4 27  1  0
 19 28  1  6
 20 29  1  0
 20 30  1  0
 20 31  1  0
 21 32  1  0
 21 33  1  0
 22 34  1  0
 22 35  1  0
 23 36  1  0
 23 37  1  0
 24 38  1  6
 25 39  1  0
 25 40  1  0
 25 41  1  0
  7 42  1  0
M  CHG  2   7   1  42  -1
M  END
