
     RDKit          3D

 42 44  0  0  0  0  0  0  0  0999 V2000
    0.2021    0.5827    2.6861 C   0  0  0  0  0  0  0  0  0  0  0  0
    0.6472   -2.1986   -1.1844 C   0  0  0  0  0  0  0  0  0  0  0  0
    1.5125   -1.3727   -0.2147 C   0  0  1  0  0  0  0  0  0  0  0  0
   -1.3001   -0.2083   -5.0486 C   0  0  0  0  0  0  0  0  0  0  0  0
   -0.3890    0.8332   -5.1793 C   0  0  0  0  0  0  0  0  0  0  0  0
    0.4797    1.1179   -4.1287 C   0  0  0  0  0  0  0  0  0  0  0  0
    0.4198    0.3594   -2.9575 C   0  0  0  0  0  0  0  0  0  0  0  0
    1.4707    2.9395   -5.2797 C   0  0  0  0  0  0  0  0  0  0  0  0
    0.4154    1.4569    4.1933 S   0  0  1  0  0  0  0  0  0  0  0  0
   -0.7679    1.2389    5.0055 O   0  0  0  0  0  0  0  0  0  0  0  0
    1.7235    1.0838    4.7012 O   0  0  0  0  0  0  0  0  0  0  0  0
   -1.3633    0.4193    2.0074 S   0  0  0  0  0  0  0  0  0  0  0  0
   -0.6901   -0.4651    0.7054 C   0  0  0  0  0  0  0  0  0  0  0  0
    0.6635   -0.6374    0.7885 C   0  0  0  0  0  0  0  0  0  0  0  0
    1.1804   -0.0149    1.9552 C   0  0  0  0  0  0  0  0  0  0  0  0
   -0.5386   -1.5005   -1.6866 N   0  0  0  0  0  0  0  0  0  0  0  0
   -1.6864   -1.1883   -0.5479 S   0  0  2  0  0  0  0  0  0  0  0  0
   -2.6157   -0.2031   -1.0587 O   0  0  0  0  0  0  0  0  0  0  0  0
   -2.1962   -2.4409   -0.0264 O   0  0  0  0  0  0  0  0  0  0  0  0
    2.5074   -2.1589    0.4769 N   0  0  0  0  0  0  0  0  0  0  0  0
   -0.4863   -0.6822   -2.8519 C   0  0  0  0  0  0  0  0  0  0  0  0
   -1.3560   -0.9740   -3.8978 C   0  0  0  0  0  0  0  0  0  0  0  0
    1.2274   -2.5066   -2.0525 H   0  0  0  0  0  0  0  0  0  0  0  0
    0.3241   -3.1136   -0.6813 H   0  0  0  0  0  0  0  0  0  0  0  0
    2.0617   -0.6133   -0.7830 H   0  0  0  0  0  0  0  0  0  0  0  0
    4.3007   -3.1873    0.2507 H   0  0  0  0  0  0  0  0  0  0  0  0
    3.2945   -3.2759   -1.1953 H   0  0  0  0  0  0  0  0  0  0  0  0
    4.1255   -1.7748   -0.7835 H   0  0  0  0  0  0  0  0  0  0  0  0
   -1.9698   -0.4258   -5.8700 H   0  0  0  0  0  0  0  0  0  0  0  0
   -0.3715    1.4036   -6.0975 H   0  0  0  0  0  0  0  0  0  0  0  0
    1.0884    0.6089   -2.1441 H   0  0  0  0  0  0  0  0  0  0  0  0
    2.2464    3.6721   -5.0710 H   0  0  0  0  0  0  0  0  0  0  0  0
    1.7454    2.3824   -6.1791 H   0  0  0  0  0  0  0  0  0  0  0  0
    0.5294    3.4642   -5.4617 H   0  0  0  0  0  0  0  0  0  0  0  0
    0.0284    3.6429    4.4184 H   0  0  0  0  0  0  0  0  0  0  0  0
    1.2040    3.3486    3.2661 H   0  0  0  0  0  0  0  0  0  0  0  0
    2.2258   -0.0258    2.2252 H   0  0  0  0  0  0  0  0  0  0  0  0
    2.0679   -2.9348    0.9575 H   0  0  0  0  0  0  0  0  0  0  0  0
   -2.0521   -1.7966   -3.8108 H   0  0  0  0  0  0  0  0  0  0  0  0
    3.5942   -2.6298   -0.3623 C   0  0  0  0  0  0  0  0  0  0  0  0
    1.3942    2.1022   -4.1418 O   0  0  0  0  0  0  0  0  0  0  0  0
    0.3401    3.0164    3.6819 N   0  0  0  0  0  0  0  0  0  0  0  0
  1  9  1  0
  1 12  1  0
  1 15  2  0
  2  3  1  0
  2 16  1  0
  2 23  1  0
  2 24  1  0
  3 14  1  0
  3 20  1  0
  3 25  1  6
 40 20  1  0
 40 26  1  0
 40 27  1  0
 40 28  1  0
  4  5  2  0
  4 22  1  0
  4 29  1  0
  5  6  1  0
  5 30  1  0
  6  7  2  0
  6 41  1  0
  7 21  1  0
  7 31  1  0
  8 41  1  0
  8 32  1  0
  8 33  1  0
  8 34  1  0
  9 42  1  6
 42 35  1  0
 42 36  1  0
  9 10  2  0
  9 11  2  0
 12 13  1  0
 13 14  2  0
 13 17  1  0
 14 15  1  0
 15 37  1  0
 17 16  1  6
 16 21  1  0
 17 18  2  0
 17 19  2  0
 20 38  1  0
 21 22  2  0
 22 39  1  0
M  END
