
     RDKit          3D

 52 55  0  0  0  0  0  0  0  0999 V2000
   -8.5077    1.8643   -0.3315 C   0  0  0  0  0  0  0  0  0  0  0  0
   -7.3473    2.6138   -0.1001 C   0  0  0  0  0  0  0  0  0  0  0  0
   -8.4604    0.4849   -0.4119 C   0  0  0  0  0  0  0  0  0  0  0  0
   -6.1086    2.0155    0.0624 C   0  0  0  0  0  0  0  0  0  0  0  0
    3.0934   -2.3590    0.4864 C   0  0  0  0  0  0  0  0  0  0  0  0
    1.7267   -2.5179    0.4426 C   0  0  0  0  0  0  0  0  0  0  0  0
   -2.7460   -1.0264   -0.0940 C   0  0  0  0  0  0  0  0  0  0  0  0
    2.7816   -0.1309   -0.2988 C   0  0  0  0  0  0  0  0  0  0  0  0
   -2.0725    1.2648    1.0508 C   0  0  0  0  0  0  0  0  0  0  0  0
   -5.6369   -1.5366   -0.1171 C   0  0  0  0  0  0  0  0  0  0  0  0
   -7.2233   -0.1336   -0.2537 C   0  0  0  0  0  0  0  0  0  0  0  0
   -6.0685    0.6273   -0.0170 C   0  0  0  0  0  0  0  0  0  0  0  0
    3.6513   -1.1332    0.1191 C   0  0  0  0  0  0  0  0  0  0  0  0
   -3.6848   -0.0867    0.2743 C   0  0  0  0  0  0  0  0  0  0  0  0
    0.9418   -1.4476    0.0074 C   0  0  0  0  0  0  0  0  0  0  0  0
   -1.4105   -0.7181    0.2050 C   0  0  0  0  0  0  0  0  0  0  0  0
    9.9385    0.6257   -0.7828 C   0  0  0  0  0  0  0  0  0  0  0  0
    9.7108    2.7844    0.1929 C   0  0  0  0  0  0  0  0  0  0  0  0
    7.0707    0.1260    0.1206 C   0  0  0  0  0  0  0  0  0  0  0  0
    7.7590    1.4541   -0.1711 C   0  0  0  0  0  0  0  0  0  0  0  0
    5.5784    0.2405   -0.1078 C   0  0  0  0  0  0  0  0  0  0  0  0
    1.4645   -0.2993   -0.3658 N   0  0  0  0  0  0  0  0  0  0  0  0
   -3.3626    1.0715    0.8406 N   0  0  0  0  0  0  0  0  0  0  0  0
   -1.0811    0.4391    0.7813 N   0  0  0  0  0  0  0  0  0  0  0  0
   -6.9130   -1.4774   -0.3010 N   0  0  0  0  0  0  0  0  0  0  0  0
   -5.0458   -0.3088    0.0594 N   0  0  0  0  0  0  0  0  0  0  0  0
   -0.4435   -1.6220   -0.0844 N   0  0  0  0  0  0  0  0  0  0  0  0
    9.1762    1.4408    0.1391 N   0  0  0  0  0  0  0  0  0  0  0  0
   -9.4535    2.3762   -0.4516 H   0  0  0  0  0  0  0  0  0  0  0  0
   -7.4181    3.6920   -0.0437 H   0  0  0  0  0  0  0  0  0  0  0  0
   -9.3503   -0.1021   -0.5981 H   0  0  0  0  0  0  0  0  0  0  0  0
   -5.2246    2.6042    0.2496 H   0  0  0  0  0  0  0  0  0  0  0  0
    3.7308   -3.1700    0.8155 H   0  0  0  0  0  0  0  0  0  0  0  0
    1.2725   -3.4521    0.7451 H   0  0  0  0  0  0  0  0  0  0  0  0
   -3.0032   -1.9451   -0.6015 H   0  0  0  0  0  0  0  0  0  0  0  0
    3.1454    0.8412   -0.6090 H   0  0  0  0  0  0  0  0  0  0  0  0
   -1.7994    2.2089    1.5095 H   0  0  0  0  0  0  0  0  0  0  0  0
   -5.0614   -2.4493   -0.0739 H   0  0  0  0  0  0  0  0  0  0  0  0
   -0.7579   -2.5469   -0.3337 H   0  0  0  0  0  0  0  0  0  0  0  0
   10.9914    0.6338   -0.4980 H   0  0  0  0  0  0  0  0  0  0  0  0
    9.6060   -0.4117   -0.7588 H   0  0  0  0  0  0  0  0  0  0  0  0
    9.8704    0.9755   -1.8253 H   0  0  0  0  0  0  0  0  0  0  0  0
    9.6490    3.3225   -0.7666 H   0  0  0  0  0  0  0  0  0  0  0  0
    9.1750    3.3739    0.9385 H   0  0  0  0  0  0  0  0  0  0  0  0
   10.7615    2.7556    0.4858 H   0  0  0  0  0  0  0  0  0  0  0  0
    7.4690   -0.6695   -0.5136 H   0  0  0  0  0  0  0  0  0  0  0  0
    7.2645   -0.1543    1.1589 H   0  0  0  0  0  0  0  0  0  0  0  0
    7.5764    1.7465   -1.2206 H   0  0  0  0  0  0  0  0  0  0  0  0
    7.2910    2.2274    0.4450 H   0  0  0  0  0  0  0  0  0  0  0  0
    5.1536    1.0209    0.5343 H   0  0  0  0  0  0  0  0  0  0  0  0
    5.3703    0.5199   -1.1471 H   0  0  0  0  0  0  0  0  0  0  0  0
    4.9871   -1.0158    0.1937 O   0  0  0  0  0  0  0  0  0  0  0  0
  1  2  2  0
  1  3  1  0
  2  4  1  0
  3 11  2  0
  4 12  2  0
  5  6  2  0
  5 13  1  0
  6 15  1  0
  7 14  2  0
  7 16  1  0
  8 13  2  0
  8 22  1  0
  9 23  2  0
  9 24  1  0
 10 25  2  0
 10 26  1  0
 11 12  1  0
 11 25  1  0
 12 26  1  0
 13 52  1  0
 14 23  1  0
 14 26  1  0
 15 22  2  0
 15 27  1  0
 16 24  2  0
 16 27  1  0
 17 28  1  0
 18 28  1  0
 19 20  1  0
 19 21  1  0
 20 28  1  0
 21 52  1  0
  1 29  1  0
  2 30  1  0
  3 31  1  0
  4 32  1  0
  5 33  1  0
  6 34  1  0
  7 35  1  0
  8 36  1  0
  9 37  1  0
 10 38  1  0
 27 39  1  0
 17 40  1  0
 17 41  1  0
 17 42  1  0
 18 43  1  0
 18 44  1  0
 18 45  1  0
 19 46  1  0
 19 47  1  0
 20 48  1  0
 20 49  1  0
 21 50  1  0
 21 51  1  0
M  END
