
     RDKit          3D

 25 24  0  0  0  0  0  0  0  0999 V2000
   -2.1532   -0.5377   -1.9155 O   0  0  0  0  0  0  0  0  0  0  0  0
   -1.1579    0.1151   -1.7196 C   0  0  0  0  0  0  0  0  0  0  0  0
   -1.0763    1.4124   -1.9912 O   0  0  0  0  0  0  0  0  0  0  0  0
    0.1103   -0.4099   -1.1043 C   0  0  0  0  0  0  0  0  0  0  0  0
    0.2523   -1.9241   -1.1475 C   0  0  0  0  0  0  0  0  0  0  0  0
    0.2819   -2.5488   -2.5532 C   0  0  1  0  0  0  0  0  0  0  0  0
    1.3413   -1.8548   -3.3803 C   0  0  0  0  0  0  0  0  0  0  0  0
    0.8253   -0.9656   -4.2179 O   0  0  0  0  0  0  0  0  0  0  0  0
    2.5260   -2.0356   -3.2482 O   0  0  0  0  0  0  0  0  0  0  0  0
    0.5778   -4.0444   -2.4371 C   0  0  0  0  0  0  0  0  0  0  0  0
    0.3884   -4.8846   -4.0163 P   0  0  2  0  0  0  0  0  0  0  0  0
    1.0443   -4.2353   -5.1811 O   0  0  0  0  0  0  0  0  0  0  0  0
   -1.2125   -4.9971   -4.1491 O   0  0  0  0  0  0  0  0  0  0  0  0
    0.9157   -6.3626   -3.6712 O   0  0  0  0  0  0  0  0  0  0  0  0
   -1.9223    1.7327   -2.3389 H   0  0  0  0  0  0  0  0  0  0  0  0
    0.9725    0.0954   -1.5438 H   0  0  0  0  0  0  0  0  0  0  0  0
    0.1041   -0.0920   -0.0561 H   0  0  0  0  0  0  0  0  0  0  0  0
   -0.5658   -2.3888   -0.5947 H   0  0  0  0  0  0  0  0  0  0  0  0
    1.1720   -2.1913   -0.6231 H   0  0  0  0  0  0  0  0  0  0  0  0
   -0.6946   -2.3990   -3.0162 H   0  0  0  0  0  0  0  0  0  0  0  0
   -0.0891   -4.5002   -1.7024 H   0  0  0  0  0  0  0  0  0  0  0  0
    1.5980   -4.2024   -2.0825 H   0  0  0  0  0  0  0  0  0  0  0  0
    1.5341   -0.5004   -4.6882 H   0  0  0  0  0  0  0  0  0  0  0  0
   -1.5224   -5.0890   -5.0602 H   0  0  0  0  0  0  0  0  0  0  0  0
    1.0952   -6.9073   -4.4498 H   0  0  0  0  0  0  0  0  0  0  0  0
  1  2  2  0
  2  3  1  0
  2  4  1  0
  3 15  1  0
  4 16  1  0
  4 17  1  0
  4  5  1  0
  5 18  1  0
  5 19  1  0
  5  6  1  0
  6 20  1  6
  6 10  1  0
  6  7  1  0
  7  8  1  0
  7  9  2  0
  8 23  1  0
 10 21  1  0
 10 22  1  0
 10 11  1  0
 11 14  1  1
 11 12  2  0
 11 13  1  0
 13 24  1  0
 14 25  1  0
M  END
