
     RDKit          3D

 52 55  0  0  0  0  0  0  0  0999 V2000
   -0.6616    1.1665   -5.3997 C   0  0  1  0  0  0  0  0  0  0  0  0
   -1.9909    0.4930   -5.0537 C   0  0  0  0  0  0  0  0  0  0  0  0
    0.0181    1.6324   -4.1120 C   0  0  0  0  0  0  0  0  0  0  0  0
    0.2451    0.1699   -6.1235 C   0  0  0  0  0  0  0  0  0  0  0  0
   -0.8192   -1.7051   -4.8589 C   0  0  0  0  0  0  0  0  0  0  0  0
   -1.7284   -0.7058   -4.1403 C   0  0  1  0  0  0  0  0  0  0  0  0
    0.5075   -1.0279   -5.2102 C   0  0  2  0  0  0  0  0  0  0  0  0
   -1.0510   -0.2284   -2.8527 C   0  0  0  0  0  0  0  0  0  0  0  0
    1.1942   -0.5505   -3.9270 C   0  0  0  0  0  0  0  0  0  0  0  0
    0.2904    0.4417   -3.1811 C   0  0  1  0  0  0  0  0  0  0  0  0
    2.0768    1.0510   -0.0181 N   0  0  0  0  0  0  0  0  0  0  0  0
    0.9346    0.9930   -1.9955 N   0  0  0  0  0  0  0  0  0  0  0  0
    1.2872   -0.9225   -0.8047 O   0  0  0  0  0  0  0  0  0  0  0  0
    2.5398    0.5097    1.2273 C   0  0  0  0  0  0  0  0  0  0  0  0
    1.9003    0.0133    3.5993 C   0  0  0  0  0  0  0  0  0  0  0  0
    1.5098    0.4448    2.3338 C   0  0  0  0  0  0  0  0  0  0  0  0
    0.1811    0.8031    2.1534 C   0  0  0  0  0  0  0  0  0  0  0  0
   -0.7318    0.7101    3.1946 C   0  0  0  0  0  0  0  0  0  0  0  0
   -0.3359    0.2752    4.4572 C   0  0  0  0  0  0  0  0  0  0  0  0
    1.0061   -0.0593    4.6535 C   0  0  0  0  0  0  0  0  0  0  0  0
   -1.2757    0.2617    5.4934 N   0  0  0  0  0  0  0  0  0  0  0  0
   -1.4528   -0.6803    6.4860 C   0  0  0  0  0  0  0  0  0  0  0  0
   -0.6599   -1.7947    6.4076 N   0  0  0  0  0  0  0  0  0  0  0  0
   -0.8420    2.0349   -6.0397 H   0  0  0  0  0  0  0  0  0  0  0  0
   -2.6549    1.2075   -4.5558 H   0  0  0  0  0  0  0  0  0  0  0  0
   -2.5014    0.1700   -5.9670 H   0  0  0  0  0  0  0  0  0  0  0  0
   -0.6172    2.3616   -3.5962 H   0  0  0  0  0  0  0  0  0  0  0  0
    0.9636    2.1342   -4.3486 H   0  0  0  0  0  0  0  0  0  0  0  0
   -0.2239   -0.1563   -7.0571 H   0  0  0  0  0  0  0  0  0  0  0  0
    1.1911    0.6489   -6.3954 H   0  0  0  0  0  0  0  0  0  0  0  0
   -0.6403   -2.5791   -4.2247 H   0  0  0  0  0  0  0  0  0  0  0  0
   -1.3085   -2.0684   -5.7682 H   0  0  0  0  0  0  0  0  0  0  0  0
   -2.6764   -1.1889   -3.8848 H   0  0  0  0  0  0  0  0  0  0  0  0
    1.1612   -1.7418   -5.7203 H   0  0  0  0  0  0  0  0  0  0  0  0
   -0.8948   -1.0678   -2.1727 H   0  0  0  0  0  0  0  0  0  0  0  0
   -1.6933    0.4901   -2.3323 H   0  0  0  0  0  0  0  0  0  0  0  0
    2.1418   -0.0563   -4.1677 H   0  0  0  0  0  0  0  0  0  0  0  0
    1.4280   -1.4042   -3.2882 H   0  0  0  0  0  0  0  0  0  0  0  0
    2.0745    2.0536   -0.1107 H   0  0  0  0  0  0  0  0  0  0  0  0
    1.1252    1.9822   -2.0206 H   0  0  0  0  0  0  0  0  0  0  0  0
    3.3815    1.1202    1.5607 H   0  0  0  0  0  0  0  0  0  0  0  0
    2.9453   -0.4883    1.0538 H   0  0  0  0  0  0  0  0  0  0  0  0
   -0.1640    1.1601    1.1915 H   0  0  0  0  0  0  0  0  0  0  0  0
   -1.7671    0.9784    3.0213 H   0  0  0  0  0  0  0  0  0  0  0  0
    1.3575   -0.3659    5.6288 H   0  0  0  0  0  0  0  0  0  0  0  0
   -2.0332    0.9191    5.3983 H   0  0  0  0  0  0  0  0  0  0  0  0
   -2.7106    0.3702    7.4464 H   0  0  0  0  0  0  0  0  0  0  0  0
   -0.9392   -2.5239    7.0442 H   0  0  0  0  0  0  0  0  0  0  0  0
   -0.4395   -2.1451    5.4882 H   0  0  0  0  0  0  0  0  0  0  0  0
    1.4130    0.2907   -0.9396 C   0  0  0  0  0  0  0  0  0  0  0  0
    2.9362   -0.2535    3.7773 H   0  0  0  0  0  0  0  0  0  0  0  0
   -2.2759   -0.5451    7.4581 N   0  0  0  0  0  0  0  0  0  0  0  0
  1  2  1  0
  1  3  1  0
  1  4  1  0
  1 24  1  6
  2  6  1  0
  2 25  1  0
  2 26  1  0
  3 10  1  0
  3 27  1  0
  3 28  1  0
  4  7  1  0
  4 29  1  0
  4 30  1  0
  5  6  1  0
  5  7  1  0
  5 31  1  0
  5 32  1  0
  6  8  1  0
  6 33  1  1
  7  9  1  0
  7 34  1  6
  8 10  1  0
  8 35  1  0
  8 36  1  0
  9 10  1  0
  9 37  1  0
  9 38  1  0
 10 12  1  1
 11 50  1  0
 11 14  1  0
 11 39  1  0
 50 12  1  0
 50 13  2  0
 12 40  1  0
 14 16  1  0
 14 41  1  0
 14 42  1  0
 15 16  2  0
 15 20  1  0
 15 51  1  0
 16 17  1  0
 17 18  2  0
 17 43  1  0
 18 19  1  0
 18 44  1  0
 19 20  2  0
 19 21  1  0
 20 45  1  0
 21 22  1  0
 21 46  1  0
 52 22  2  0
 52 47  1  0
 22 23  1  0
 23 48  1  0
 23 49  1  0
M  END
