
     RDKit          3D

 39 41  0  0  0  0  0  0  0  0999 V2000
   -0.4116   -0.2085   -0.0005 C   0  0  2  0  0  0  0  0  0  0  0  0
    1.0025   -0.5566   -0.0254 N   0  0  0  0  0  0  0  0  0  0  0  0
   -0.8416    0.4958    1.2988 C   0  0  0  0  0  0  0  0  0  0  0  0
    3.2711   -0.3836    0.0952 N   0  0  0  0  0  0  0  0  0  0  0  0
   -2.3501    0.7557    1.2855 C   0  0  2  0  0  0  0  0  0  0  0  0
   -3.0958   -0.5754    1.1926 C   0  0  0  0  0  0  0  0  0  0  0  0
   -2.6901   -1.2935   -0.0959 C   0  0  2  0  0  0  0  0  0  0  0  0
   -1.1804   -1.5354   -0.0931 C   0  0  0  0  0  0  0  0  0  0  0  0
   -3.0640   -0.4280   -1.2996 C   0  0  0  0  0  0  0  0  0  0  0  0
   -2.3158    0.9030   -1.2126 C   0  0  2  0  0  0  0  0  0  0  0  0
   -0.8074    0.6437   -1.2167 C   0  0  0  0  0  0  0  0  0  0  0  0
   -2.7038    1.6281    0.0784 C   0  0  0  0  0  0  0  0  0  0  0  0
    2.0784    1.5812    0.0827 N   0  0  0  0  0  0  0  0  0  0  0  0
    2.0743    0.2973    0.0506 C   0  0  0  0  0  0  0  0  0  0  0  0
    4.5215    0.3380   -0.0036 C   0  0  0  0  0  0  0  0  0  0  0  0
    5.6894   -0.6264    0.0992 C   0  0  0  0  0  0  0  0  0  0  0  0
    1.1979   -1.4978    0.2801 H   0  0  0  0  0  0  0  0  0  0  0  0
   -0.5668   -0.1311    2.1536 H   0  0  0  0  0  0  0  0  0  0  0  0
   -0.3132    1.4439    1.4302 H   0  0  0  0  0  0  0  0  0  0  0  0
    3.2706   -1.2689   -0.3894 H   0  0  0  0  0  0  0  0  0  0  0  0
   -2.6324    1.2708    2.2082 H   0  0  0  0  0  0  0  0  0  0  0  0
   -2.8671   -1.2005    2.0616 H   0  0  0  0  0  0  0  0  0  0  0  0
   -4.1772   -0.4063    1.2036 H   0  0  0  0  0  0  0  0  0  0  0  0
   -3.2034   -2.2571   -0.1592 H   0  0  0  0  0  0  0  0  0  0  0  0
   -0.8773   -2.0639   -1.0030 H   0  0  0  0  0  0  0  0  0  0  0  0
   -0.9072   -2.1769    0.7533 H   0  0  0  0  0  0  0  0  0  0  0  0
   -2.8102   -0.9427   -2.2316 H   0  0  0  0  0  0  0  0  0  0  0  0
   -4.1446   -0.2554   -1.3191 H   0  0  0  0  0  0  0  0  0  0  0  0
   -2.5704    1.5263   -2.0745 H   0  0  0  0  0  0  0  0  0  0  0  0
   -0.2728    1.5966   -1.2239 H   0  0  0  0  0  0  0  0  0  0  0  0
   -0.5105    0.1175   -2.1293 H   0  0  0  0  0  0  0  0  0  0  0  0
   -3.7753    1.8515    0.0769 H   0  0  0  0  0  0  0  0  0  0  0  0
   -2.1823    2.5888    0.1421 H   0  0  0  0  0  0  0  0  0  0  0  0
    1.1428    1.9553    0.1480 H   0  0  0  0  0  0  0  0  0  0  0  0
    4.5886    0.9076   -0.9380 H   0  0  0  0  0  0  0  0  0  0  0  0
    4.5711    1.0680    0.8048 H   0  0  0  0  0  0  0  0  0  0  0  0
    5.6699   -1.1724    1.0432 H   0  0  0  0  0  0  0  0  0  0  0  0
    5.6778   -1.3548   -0.7137 H   0  0  0  0  0  0  0  0  0  0  0  0
    6.6331   -0.0851    0.0427 H   0  0  0  0  0  0  0  0  0  0  0  0
 16 15  1  0
 15  4  1  0
  4 14  1  0
 14  2  1  0
 14 13  2  0
  1  2  1  1
  1 11  1  0
  1  3  1  0
  1  8  1  0
 11 10  1  0
  3  5  1  0
  8  7  1  0
 10 12  1  0
 10  9  1  0
  5 12  1  0
  5  6  1  0
  7  9  1  0
  7  6  1  0
  2 17  1  0
  3 18  1  0
  3 19  1  0
  4 20  1  0
  5 21  1  1
  6 22  1  0
  6 23  1  0
  7 24  1  6
  8 25  1  0
  8 26  1  0
  9 27  1  0
  9 28  1  0
 10 29  1  6
 11 30  1  0
 11 31  1  0
 12 32  1  0
 12 33  1  0
 13 34  1  0
 15 35  1  0
 15 36  1  0
 16 37  1  0
 16 38  1  0
 16 39  1  0
M  END
