
     RDKit          3D

 35 38  0  0  0  0  0  0  0  0999 V2000
    0.4148   -0.4283   -0.1227 N   0  0  0  0  0  0  0  0  0  0  0  0
   -0.5191   -1.4504   -0.1034 C   0  0  0  0  0  0  0  0  0  0  0  0
    2.1367    2.1646   -0.2118 C   0  0  0  0  0  0  0  0  0  0  0  0
   -0.1751   -2.8074   -0.1089 C   0  0  0  0  0  0  0  0  0  0  0  0
   -3.5986    2.0500    0.0440 C   0  0  0  0  0  0  0  0  0  0  0  0
    3.7881   -1.5122    0.1828 C   0  0  0  0  0  0  0  0  0  0  0  0
   -1.1505   -3.7885   -0.1017 C   0  0  0  0  0  0  0  0  0  0  0  0
   -2.4968   -3.4541   -0.0904 C   0  0  0  0  0  0  0  0  0  0  0  0
   -4.7980    2.9070    0.1812 C   0  0  0  0  0  0  0  0  0  0  0  0
   -3.6223    0.6969    0.0920 N   0  0  0  0  0  0  0  0  0  0  0  0
   -2.3715    2.4520   -0.1357 N   0  0  0  0  0  0  0  0  0  0  0  0
   -1.5888    1.3527   -0.2062 N   0  0  0  0  0  0  0  0  0  0  0  0
   -2.3396    0.2873   -0.0694 C   0  0  0  0  0  0  0  0  0  0  0  0
   -1.8940   -1.1029   -0.0862 C   0  0  0  0  0  0  0  0  0  0  0  0
   -2.8508   -2.1189   -0.0849 C   0  0  0  0  0  0  0  0  0  0  0  0
    1.7715   -0.4454   -0.0352 C   0  0  0  0  0  0  0  0  0  0  0  0
    2.4624    0.7814   -0.0838 C   0  0  0  0  0  0  0  0  0  0  0  0
    3.8561    0.6883    0.0189 C   0  0  0  0  0  0  0  0  0  0  0  0
    4.3570    1.9435   -0.0425 N   0  0  0  0  0  0  0  0  0  0  0  0
    3.3246    2.8353   -0.1820 C   0  0  0  0  0  0  0  0  0  0  0  0
    4.5526   -0.4428    0.1527 N   0  0  0  0  0  0  0  0  0  0  0  0
    2.4565   -1.5741    0.0980 N   0  0  0  0  0  0  0  0  0  0  0  0
    0.0006    0.5035   -0.1943 H   0  0  0  0  0  0  0  0  0  0  0  0
    1.1607    2.6120   -0.3135 H   0  0  0  0  0  0  0  0  0  0  0  0
    0.8657   -3.0850   -0.1179 H   0  0  0  0  0  0  0  0  0  0  0  0
    4.2923   -2.4664    0.2908 H   0  0  0  0  0  0  0  0  0  0  0  0
   -0.8484   -4.8278   -0.1094 H   0  0  0  0  0  0  0  0  0  0  0  0
   -3.2608   -4.2187   -0.0898 H   0  0  0  0  0  0  0  0  0  0  0  0
   -5.2823    2.7543    1.1458 H   0  0  0  0  0  0  0  0  0  0  0  0
   -4.5118    3.9525    0.1012 H   0  0  0  0  0  0  0  0  0  0  0  0
   -5.5295    2.6874   -0.5966 H   0  0  0  0  0  0  0  0  0  0  0  0
   -4.4404    0.1266    0.2405 H   0  0  0  0  0  0  0  0  0  0  0  0
   -3.9042   -1.8716   -0.0854 H   0  0  0  0  0  0  0  0  0  0  0  0
    5.3344    2.1834    0.0029 H   0  0  0  0  0  0  0  0  0  0  0  0
    3.5215    3.8923   -0.2506 H   0  0  0  0  0  0  0  0  0  0  0  0
  1  2  1  0
  1 16  1  0
  2  4  2  0
  2 14  1  0
  3 17  1  0
  3 20  2  0
  4  7  1  0
  5  9  1  0
  5 10  1  0
  5 11  2  0
  6 21  1  0
  6 22  2  0
  7  8  2  0
  8 15  1  0
 10 13  1  0
 11 12  1  0
 12 13  2  0
 13 14  1  0
 14 15  2  0
 16 17  2  0
 16 22  1  0
 17 18  1  0
 18 19  1  0
 18 21  2  0
 19 20  1  0
  1 23  1  0
  3 24  1  0
  4 25  1  0
  6 26  1  0
  7 27  1  0
  8 28  1  0
  9 29  1  0
  9 30  1  0
  9 31  1  0
 10 32  1  0
 15 33  1  0
 19 34  1  0
 20 35  1  0
M  END
