
     RDKit          3D

 26 28  0  0  0  0  0  0  0  0999 V2000
    0.6313   -0.2578    0.0142 C   0  0  0  0  0  0  0  0  0  0  0  0
    1.9361    0.2267   -0.0525 C   0  0  0  0  0  0  0  0  0  0  0  0
    1.2900    3.9351    0.0640 C   0  0  0  0  0  0  0  0  0  0  0  0
    1.0741    2.4478    0.0515 C   0  0  0  0  0  0  0  0  0  0  0  0
   -0.2154    1.9273    0.1175 C   0  0  0  0  0  0  0  0  0  0  0  0
   -0.4870    0.5488    0.1000 C   0  0  0  0  0  0  0  0  0  0  0  0
   -1.8491    0.0582    0.1684 C   0  0  0  0  0  0  0  0  0  0  0  0
   -3.0519    0.6948    0.2339 C   0  0  0  0  0  0  0  0  0  0  0  0
   -4.0436   -0.3260    0.2796 C   0  0  0  0  0  0  0  0  0  0  0  0
   -3.3731   -1.5012    0.2378 C   0  0  0  0  0  0  0  0  0  0  0  0
   -2.0461   -1.2780    0.1708 O   0  0  0  0  0  0  0  0  0  0  0  0
    0.7111   -1.6210   -0.0246 O   0  0  0  0  0  0  0  0  0  0  0  0
    2.0343   -1.8805   -0.1117 C   0  0  0  0  0  0  0  0  0  0  0  0
    2.3882   -3.1695   -0.1172 N   0  0  0  0  0  0  0  0  0  0  0  0
    2.8079   -0.8421   -0.1338 N   0  0  0  0  0  0  0  0  0  0  0  0
    2.1739    1.5900   -0.0349 C   0  0  0  0  0  0  0  0  0  0  0  0
    1.6998    4.2804   -0.8865 H   0  0  0  0  0  0  0  0  0  0  0  0
    0.3604    4.4749    0.2386 H   0  0  0  0  0  0  0  0  0  0  0  0
    1.9968    4.2262    0.8420 H   0  0  0  0  0  0  0  0  0  0  0  0
   -1.0459    2.6186    0.1885 H   0  0  0  0  0  0  0  0  0  0  0  0
   -3.2162    1.7600    0.2479 H   0  0  0  0  0  0  0  0  0  0  0  0
   -5.1121   -0.1980    0.3350 H   0  0  0  0  0  0  0  0  0  0  0  0
   -3.6889   -2.5316    0.2491 H   0  0  0  0  0  0  0  0  0  0  0  0
    1.7061   -3.8661   -0.3676 H   0  0  0  0  0  0  0  0  0  0  0  0
    3.3418   -3.3826   -0.3569 H   0  0  0  0  0  0  0  0  0  0  0  0
    3.1834    1.9788   -0.0862 H   0  0  0  0  0  0  0  0  0  0  0  0
  3  4  1  0
  5  4  2  0
  5  6  1  0
  4 16  1  0
  8  9  1  0
  8  7  2  0
  9 10  2  0
 16  2  2  0
  7  6  1  0
  7 11  1  0
  6  1  2  0
 10 11  1  0
  2  1  1  0
  2 15  1  0
  1 12  1  0
 15 13  2  0
 12 13  1  0
 13 14  1  0
  3 17  1  0
  3 18  1  0
  3 19  1  0
  5 20  1  0
  8 21  1  0
  9 22  1  0
 10 23  1  0
 14 24  1  0
 14 25  1  0
 16 26  1  0
M  END
