
     RDKit          3D

 30 31  0  0  0  0  0  0  0  0999 V2000
    2.2272    0.1940    0.2265 C   0  0  0  0  0  0  0  0  0  0  0  0
    1.6988   -1.0708   -0.0228 C   0  0  0  0  0  0  0  0  0  0  0  0
    0.2566   -1.2842   -0.1081 C   0  0  0  0  0  0  0  0  0  0  0  0
   -1.8442   -2.2751   -0.0314 C   0  0  0  0  0  0  0  0  0  0  0  0
    2.5810   -2.1435   -0.1839 C   0  0  0  0  0  0  0  0  0  0  0  0
    3.6009    0.3555    0.3051 C   0  0  0  0  0  0  0  0  0  0  0  0
    4.1346    1.6873    0.5627 N   0  0  0  0  0  0  0  0  0  0  0  0
    3.3545    2.6055    0.6517 O   0  0  0  0  0  0  0  0  0  0  0  0
    5.3315    1.8062    0.6728 O   0  0  0  0  0  0  0  0  0  0  0  0
   -0.8154   -0.0153   -0.5869 S   0  0  0  0  0  0  0  0  0  0  0  0
   -2.2051   -1.0219   -0.4287 C   0  0  0  0  0  0  0  0  0  0  0  0
   -4.0105    0.5025    0.3895 C   0  0  0  0  0  0  0  0  0  0  0  0
   -5.3961    1.0424    0.1657 C   0  0  0  0  0  0  0  0  0  0  0  0
   -5.7526    1.8904    1.1241 O   0  0  0  0  0  0  0  0  0  0  0  0
   -6.1117    0.7539   -0.7606 O   0  0  0  0  0  0  0  0  0  0  0  0
   -0.4461   -2.4279    0.1492 C   0  0  0  0  0  0  0  0  0  0  0  0
    3.9501   -1.9612   -0.0875 C   0  0  0  0  0  0  0  0  0  0  0  0
    4.4811   -0.7047    0.1567 C   0  0  0  0  0  0  0  0  0  0  0  0
    1.5717    1.0411    0.3754 H   0  0  0  0  0  0  0  0  0  0  0  0
   -3.6171   -0.0138   -1.6686 H   0  0  0  0  0  0  0  0  0  0  0  0
   -4.2654   -1.3331   -0.7149 H   0  0  0  0  0  0  0  0  0  0  0  0
   -2.5627   -3.0663    0.1326 H   0  0  0  0  0  0  0  0  0  0  0  0
    2.1940   -3.1295   -0.4039 H   0  0  0  0  0  0  0  0  0  0  0  0
   -3.9777    0.0320    1.3761 H   0  0  0  0  0  0  0  0  0  0  0  0
   -3.3188    1.3483    0.4421 H   0  0  0  0  0  0  0  0  0  0  0  0
    0.0150   -3.3478    0.4808 H   0  0  0  0  0  0  0  0  0  0  0  0
    4.6145   -2.8041   -0.2165 H   0  0  0  0  0  0  0  0  0  0  0  0
    5.5501   -0.5671    0.2214 H   0  0  0  0  0  0  0  0  0  0  0  0
   -6.6481    2.2205    0.9579 H   0  0  0  0  0  0  0  0  0  0  0  0
   -3.5758   -0.4885   -0.6860 C   0  0  0  0  0  0  0  0  0  0  0  0
  1  2  2  0
  1  6  1  0
  2  3  1  0
  2  5  1  0
  3 10  1  0
  3 16  2  0
 30 11  1  0
 30 12  1  0
  4 11  2  0
  4 16  1  0
  5 17  2  0
  6  7  1  0
  6 18  2  0
  7  8  1  0
  7  9  2  0
 10 11  1  0
 12 13  1  0
 13 14  1  0
 13 15  2  0
 17 18  1  0
  1 19  1  0
 30 20  1  0
 30 21  1  0
  4 22  1  0
  5 23  1  0
 12 24  1  0
 12 25  1  0
 16 26  1  0
 17 27  1  0
 18 28  1  0
 14 29  1  0
M  CHG  2   7   1   8  -1
M  END
