
     RDKit          3D

 49 50  0  0  0  0  0  0  0  0999 V2000
    2.8662    0.3336   -0.6298 C   0  0  2  0  0  0  0  0  0  0  0  0
    4.0021    0.0686    0.3591 C   0  0  0  0  0  0  0  0  0  0  0  0
   -3.7006   -2.2868    0.5593 C   0  0  0  0  0  0  0  0  0  0  0  0
    6.2005    0.6939    0.8817 O   0  0  0  0  0  0  0  0  0  0  0  0
    1.5992   -0.1791   -0.1154 N   0  0  0  0  0  0  0  0  0  0  0  0
   -0.6707    1.0774    0.6653 C   0  0  0  0  0  0  0  0  0  0  0  0
   -0.8997    1.4518   -0.6507 C   0  0  0  0  0  0  0  0  0  0  0  0
   -2.1679    1.8251   -1.0697 C   0  0  0  0  0  0  0  0  0  0  0  0
   -3.1664    1.8347   -0.1036 C   0  0  0  0  0  0  0  0  0  0  0  0
   -2.9559    1.4876    1.2151 C   0  0  0  0  0  0  0  0  0  0  0  0
   -1.6870    1.0936    1.6075 C   0  0  0  0  0  0  0  0  0  0  0  0
   -0.1831   -1.7378   -0.7869 C   0  0  0  0  0  0  0  0  0  0  0  0
   -0.4463   -1.5135   -2.1359 C   0  0  0  0  0  0  0  0  0  0  0  0
   -1.7466   -1.5583   -2.6100 C   0  0  0  0  0  0  0  0  0  0  0  0
   -2.7951   -1.8233   -1.7387 C   0  0  0  0  0  0  0  0  0  0  0  0
   -1.2385   -2.0209    0.0695 C   0  0  0  0  0  0  0  0  0  0  0  0
   -2.5529   -2.0572   -0.3899 C   0  0  0  0  0  0  0  0  0  0  0  0
    1.2201   -1.5936   -0.2571 C   0  0  0  0  0  0  0  0  0  0  0  0
    3.2198   -0.2423   -1.9998 C   0  0  0  0  0  0  0  0  0  0  0  0
    5.0310    0.9181    0.2231 N   0  0  0  0  0  0  0  0  0  0  0  0
    3.9615   -0.8326    1.1746 O   0  0  0  0  0  0  0  0  0  0  0  0
    0.9575    0.6188    1.1857 S   0  0  1  0  0  0  0  0  0  0  0  0
    0.8034   -0.2753    2.3246 O   0  0  0  0  0  0  0  0  0  0  0  0
    1.7432    1.8334    1.3667 O   0  0  0  0  0  0  0  0  0  0  0  0
   -4.4023    2.1905   -0.4803 F   0  0  0  0  0  0  0  0  0  0  0  0
   -2.4617    2.1777   -2.4941 C   0  0  0  0  0  0  0  0  0  0  0  0
   -3.3569   -3.2002    1.6344 N   0  0  0  0  0  0  0  0  0  0  0  0
    2.7519    1.4090   -0.7699 H   0  0  0  0  0  0  0  0  0  0  0  0
   -3.9625   -1.3249    1.0110 H   0  0  0  0  0  0  0  0  0  0  0  0
   -4.5811   -2.5940   -0.0214 H   0  0  0  0  0  0  0  0  0  0  0  0
    6.1655    1.2310    1.6842 H   0  0  0  0  0  0  0  0  0  0  0  0
   -0.0993    1.4139   -1.3773 H   0  0  0  0  0  0  0  0  0  0  0  0
   -3.7724    1.5092    1.9241 H   0  0  0  0  0  0  0  0  0  0  0  0
   -1.5141    0.7929    2.6310 H   0  0  0  0  0  0  0  0  0  0  0  0
    0.3673   -1.3010   -2.8194 H   0  0  0  0  0  0  0  0  0  0  0  0
   -1.9456   -1.3870   -3.6603 H   0  0  0  0  0  0  0  0  0  0  0  0
   -3.8117   -1.8541   -2.1143 H   0  0  0  0  0  0  0  0  0  0  0  0
   -1.0478   -2.2048    1.1198 H   0  0  0  0  0  0  0  0  0  0  0  0
    1.9209   -2.0484   -0.9524 H   0  0  0  0  0  0  0  0  0  0  0  0
    1.3397   -2.1269    0.6860 H   0  0  0  0  0  0  0  0  0  0  0  0
    2.3670   -0.1751   -2.6740 H   0  0  0  0  0  0  0  0  0  0  0  0
    4.0280    0.3436   -2.4349 H   0  0  0  0  0  0  0  0  0  0  0  0
    3.5538   -1.2778   -1.9564 H   0  0  0  0  0  0  0  0  0  0  0  0
    5.0791    1.6142   -0.5069 H   0  0  0  0  0  0  0  0  0  0  0  0
   -3.2280    1.5245   -2.9126 H   0  0  0  0  0  0  0  0  0  0  0  0
   -2.8182    3.2039   -2.5912 H   0  0  0  0  0  0  0  0  0  0  0  0
   -1.5687    2.0753   -3.1072 H   0  0  0  0  0  0  0  0  0  0  0  0
   -4.1106   -3.2197    2.3086 H   0  0  0  0  0  0  0  0  0  0  0  0
   -3.2847   -4.1414    1.2686 H   0  0  0  0  0  0  0  0  0  0  0  0
 27  3  1  0
  3 17  1  0
 17 15  2  0
 17 16  1  0
 15 14  1  0
 16 12  2  0
 14 13  2  0
 24 22  2  0
 12 13  1  0
 12 18  1  0
 23 22  2  0
 19  1  1  0
 22  5  1  6
 22  6  1  0
  1  5  1  0
  1  2  1  0
  5 18  1  0
 20  2  1  0
 20  4  1  0
  2 21  2  0
  6 11  1  0
  6  7  2  0
 11 10  2  0
  7  8  1  0
 10  9  1  0
  8  9  2  0
  8 26  1  0
  9 25  1  0
  1 28  1  6
  3 29  1  0
  3 30  1  0
  4 31  1  0
  7 32  1  0
 10 33  1  0
 11 34  1  0
 13 35  1  0
 14 36  1  0
 15 37  1  0
 16 38  1  0
 18 39  1  0
 18 40  1  0
 19 41  1  0
 19 42  1  0
 19 43  1  0
 20 44  1  0
 26 45  1  0
 26 46  1  0
 26 47  1  0
 27 48  1  0
 27 49  1  0
M  END
