
     RDKit          3D

 45 44  0  0  0  0  0  0  0  0999 V2000
    8.5963    1.9933   -0.5830 C   0  0  0  0  0  0  0  0  0  0  0  0
    8.0585    0.6938    0.0137 C   0  0  0  0  0  0  0  0  0  0  0  0
    6.7998    0.9171    0.7894 C   0  0  0  0  0  0  0  0  0  0  0  0
    5.6043    0.3387    0.6127 C   0  0  0  0  0  0  0  0  0  0  0  0
    5.2721   -0.6579   -0.3933 C   0  0  0  0  0  0  0  0  0  0  0  0
    4.0942   -1.2829   -0.5245 C   0  0  0  0  0  0  0  0  0  0  0  0
    2.8652   -1.1125    0.3086 C   0  0  0  0  0  0  0  0  0  0  0  0
    1.6253   -0.7968   -0.5294 C   0  0  0  0  0  0  0  0  0  0  0  0
    0.3675   -0.6776    0.3218 C   0  0  0  0  0  0  0  0  0  0  0  0
   -0.8962   -0.4217   -0.4891 C   0  0  0  0  0  0  0  0  0  0  0  0
   -2.1421   -0.3096    0.3811 C   0  0  0  0  0  0  0  0  0  0  0  0
   -3.4222   -0.0832   -0.4133 C   0  0  0  0  0  0  0  0  0  0  0  0
   -4.6577    0.0102    0.4728 C   0  0  0  0  0  0  0  0  0  0  0  0
   -5.9438    0.2251   -0.3144 C   0  0  0  0  0  0  0  0  0  0  0  0
   -7.1715    0.2926    0.5961 C   0  0  0  0  0  0  0  0  0  0  0  0
   -8.4141    0.6047   -0.1739 C   0  0  0  0  0  0  0  0  0  0  0  0
   -9.4468   -0.0174   -0.1213 O   0  0  0  0  0  0  0  0  0  0  0  0
    9.5450    1.8258   -1.0934 H   0  0  0  0  0  0  0  0  0  0  0  0
    7.8963    2.4142   -1.3056 H   0  0  0  0  0  0  0  0  0  0  0  0
    8.7649    2.7431    0.1919 H   0  0  0  0  0  0  0  0  0  0  0  0
    7.9168   -0.0445   -0.7760 H   0  0  0  0  0  0  0  0  0  0  0  0
    8.8145    0.2767    0.6872 H   0  0  0  0  0  0  0  0  0  0  0  0
    6.8823    1.6486    1.5887 H   0  0  0  0  0  0  0  0  0  0  0  0
    4.8098    0.6394    1.2875 H   0  0  0  0  0  0  0  0  0  0  0  0
    6.0527   -0.9248   -1.0977 H   0  0  0  0  0  0  0  0  0  0  0  0
    4.0050   -2.0098   -1.3273 H   0  0  0  0  0  0  0  0  0  0  0  0
    2.6814   -2.0446    0.8560 H   0  0  0  0  0  0  0  0  0  0  0  0
    2.9983   -0.3384    1.0666 H   0  0  0  0  0  0  0  0  0  0  0  0
    1.7858    0.1337   -1.0830 H   0  0  0  0  0  0  0  0  0  0  0  0
    1.4863   -1.5811   -1.2810 H   0  0  0  0  0  0  0  0  0  0  0  0
    0.2408   -1.5953    0.9073 H   0  0  0  0  0  0  0  0  0  0  0  0
    0.5004    0.1287    1.0516 H   0  0  0  0  0  0  0  0  0  0  0  0
   -0.7773    0.4957   -1.0762 H   0  0  0  0  0  0  0  0  0  0  0  0
   -1.0323   -1.2309   -1.2150 H   0  0  0  0  0  0  0  0  0  0  0  0
   -2.2460   -1.2209    0.9809 H   0  0  0  0  0  0  0  0  0  0  0  0
   -2.0104    0.5087    1.0977 H   0  0  0  0  0  0  0  0  0  0  0  0
   -3.3281    0.8333   -1.0062 H   0  0  0  0  0  0  0  0  0  0  0  0
   -3.5528   -0.8985   -1.1333 H   0  0  0  0  0  0  0  0  0  0  0  0
   -4.7458   -0.9043    1.0691 H   0  0  0  0  0  0  0  0  0  0  0  0
   -4.5318    0.8292    1.1892 H   0  0  0  0  0  0  0  0  0  0  0  0
   -5.8676    1.1500   -0.8951 H   0  0  0  0  0  0  0  0  0  0  0  0
   -6.0701   -0.5849   -1.0390 H   0  0  0  0  0  0  0  0  0  0  0  0
   -7.2996   -0.6319    1.1620 H   0  0  0  0  0  0  0  0  0  0  0  0
   -7.0318    1.1080    1.3162 H   0  0  0  0  0  0  0  0  0  0  0  0
   -8.3278    1.4922   -0.8286 H   0  0  0  0  0  0  0  0  0  0  0  0
  1  2  1  0
  3  2  1  0
  3  4  2  0
 17 16  2  0
 13 14  1  0
 13 12  1  0
  4  5  1  0
 14 15  1  0
 15 16  1  0
 11 12  1  0
 11 10  1  0
  7  6  1  0
  7  8  1  0
  5  6  2  0
  9 10  1  0
  9  8  1  0
  1 18  1  0
  1 19  1  0
  1 20  1  0
  2 21  1  0
  2 22  1  0
  3 23  1  0
  4 24  1  0
  5 25  1  0
  6 26  1  0
  7 27  1  0
  7 28  1  0
  8 29  1  0
  8 30  1  0
  9 31  1  0
  9 32  1  0
 10 33  1  0
 10 34  1  0
 11 35  1  0
 11 36  1  0
 12 37  1  0
 12 38  1  0
 13 39  1  0
 13 40  1  0
 14 41  1  0
 14 42  1  0
 15 43  1  0
 15 44  1  0
 16 45  1  0
M  END
