
     RDKit          3D

 49 51  0  0  0  0  0  0  0  0999 V2000
    5.2117   -2.1277   -0.7358 C   0  0  0  0  0  0  0  0  0  0  0  0
    4.1128   -1.3577   -0.0570 C   0  0  0  0  0  0  0  0  0  0  0  0
    4.3259   -0.7004    0.9409 O   0  0  0  0  0  0  0  0  0  0  0  0
    2.7427   -1.4205   -0.6418 C   0  0  0  0  0  0  0  0  0  0  0  0
    1.7195   -0.6898   -0.0299 C   0  0  0  0  0  0  0  0  0  0  0  0
    2.4569   -2.1878   -1.7645 C   0  0  0  0  0  0  0  0  0  0  0  0
    1.1605   -2.2248   -2.2607 C   0  0  0  0  0  0  0  0  0  0  0  0
    0.1579   -1.5002   -1.6426 C   0  0  0  0  0  0  0  0  0  0  0  0
    0.4260   -0.7125   -0.5178 C   0  0  0  0  0  0  0  0  0  0  0  0
   -0.7388    0.0328    0.1362 C   0  0  1  0  0  0  0  0  0  0  0  0
   -1.7098   -1.0471    0.6214 C   0  0  0  0  0  0  0  0  0  0  0  0
   -2.8921   -1.3361   -0.0531 C   0  0  0  0  0  0  0  0  0  0  0  0
   -3.7153   -2.3735    0.3685 C   0  0  0  0  0  0  0  0  0  0  0  0
   -3.3697   -3.1415    1.4696 C   0  0  0  0  0  0  0  0  0  0  0  0
   -2.1817   -2.8737    2.1379 C   0  0  0  0  0  0  0  0  0  0  0  0
   -1.3573   -1.8441    1.7117 C   0  0  0  0  0  0  0  0  0  0  0  0
   -0.2352    0.9626    1.6541 S   0  0  0  0  0  0  0  0  0  0  0  0
    0.6463    2.3881    0.9556 C   0  0  0  0  0  0  0  0  0  0  0  0
    1.4113    3.0896    2.0694 C   0  0  0  0  0  0  0  0  0  0  0  0
    2.0411    4.2857    1.5348 N   0  0  0  0  0  0  0  0  0  0  0  0
   -1.3819    1.0551   -0.7934 C   0  0  0  0  0  0  0  0  0  0  0  0
   -2.5562    1.6978   -0.3904 C   0  0  0  0  0  0  0  0  0  0  0  0
   -3.1421    2.6732   -1.1773 C   0  0  0  0  0  0  0  0  0  0  0  0
   -2.5580    3.0446   -2.3843 C   0  0  0  0  0  0  0  0  0  0  0  0
   -1.3816    2.4337   -2.7822 C   0  0  0  0  0  0  0  0  0  0  0  0
   -0.7970    1.4485   -1.9913 C   0  0  0  0  0  0  0  0  0  0  0  0
    6.1553   -1.9753   -0.2171 H   0  0  0  0  0  0  0  0  0  0  0  0
    4.9861   -3.1956   -0.7466 H   0  0  0  0  0  0  0  0  0  0  0  0
    5.3258   -1.8139   -1.7746 H   0  0  0  0  0  0  0  0  0  0  0  0
    1.9507   -0.1116    0.8543 H   0  0  0  0  0  0  0  0  0  0  0  0
    3.2264   -2.7655   -2.2582 H   0  0  0  0  0  0  0  0  0  0  0  0
    0.9318   -2.8265   -3.1300 H   0  0  0  0  0  0  0  0  0  0  0  0
   -0.8475   -1.5527   -2.0431 H   0  0  0  0  0  0  0  0  0  0  0  0
   -3.1870   -0.7585   -0.9189 H   0  0  0  0  0  0  0  0  0  0  0  0
   -0.4226   -1.6730    2.2321 H   0  0  0  0  0  0  0  0  0  0  0  0
   -4.6313   -2.5778   -0.1706 H   0  0  0  0  0  0  0  0  0  0  0  0
   -4.0149   -3.9442    1.8020 H   0  0  0  0  0  0  0  0  0  0  0  0
   -1.8893   -3.4717    2.9914 H   0  0  0  0  0  0  0  0  0  0  0  0
    1.3396    2.0598    0.1800 H   0  0  0  0  0  0  0  0  0  0  0  0
   -0.0736    3.0696    0.4981 H   0  0  0  0  0  0  0  0  0  0  0  0
    0.7348    3.2850    2.9132 H   0  0  0  0  0  0  0  0  0  0  0  0
    2.1923    2.4247    2.4441 H   0  0  0  0  0  0  0  0  0  0  0  0
    1.3344    4.9899    1.3614 H   0  0  0  0  0  0  0  0  0  0  0  0
    2.6572    4.6818    2.2328 H   0  0  0  0  0  0  0  0  0  0  0  0
   -3.0131    1.4370    0.5559 H   0  0  0  0  0  0  0  0  0  0  0  0
    0.1294    1.0015   -2.3241 H   0  0  0  0  0  0  0  0  0  0  0  0
   -4.0555    3.1503   -0.8461 H   0  0  0  0  0  0  0  0  0  0  0  0
   -3.0145    3.8085   -3.0001 H   0  0  0  0  0  0  0  0  0  0  0  0
   -0.9056    2.7211   -3.7109 H   0  0  0  0  0  0  0  0  0  0  0  0
  1  2  1  0
  2  3  2  0
  2  4  1  0
  4  5  2  0
  4  6  1  0
  5  9  1  0
  6  7  2  0
  7  8  1  0
  8  9  2  0
  9 10  1  0
 10 11  1  0
 10 17  1  1
 10 21  1  0
 11 12  2  0
 11 16  1  0
 12 13  1  0
 13 14  2  0
 14 15  1  0
 15 16  2  0
 17 18  1  0
 18 19  1  0
 19 20  1  0
 21 22  2  0
 21 26  1  0
 22 23  1  0
 23 24  2  0
 24 25  1  0
 25 26  2  0
  1 27  1  0
  1 28  1  0
  1 29  1  0
  5 30  1  0
  6 31  1  0
  7 32  1  0
  8 33  1  0
 12 34  1  0
 16 35  1  0
 13 36  1  0
 14 37  1  0
 15 38  1  0
 18 39  1  0
 18 40  1  0
 19 41  1  0
 19 42  1  0
 20 43  1  0
 20 44  1  0
 22 45  1  0
 26 46  1  0
 23 47  1  0
 24 48  1  0
 25 49  1  0
M  END
