
     RDKit          3D

 30 31  0  0  0  0  0  0  0  0999 V2000
    1.6708   -3.4824   -2.3029 C   0  0  0  0  0  0  0  0  0  0  0  0
    1.7146   -2.0085   -2.5208 C   0  0  0  0  0  0  0  0  0  0  0  0
    1.6563   -1.5081   -3.7426 N   0  0  0  0  0  0  0  0  0  0  0  0
    1.6946   -0.1889   -3.5898 N   0  0  0  0  0  0  0  0  0  0  0  0
    1.7680    0.1880   -2.3085 C   0  0  0  0  0  0  0  0  0  0  0  0
    1.7860   -0.9700   -1.5554 C   0  0  0  0  0  0  0  0  0  0  0  0
    1.8360   -1.0567   -0.0954 C   0  0  0  0  0  0  0  0  0  0  0  0
    1.2222   -0.0810    0.6940 C   0  0  0  0  0  0  0  0  0  0  0  0
    1.2795   -0.1385    2.0775 C   0  0  0  0  0  0  0  0  0  0  0  0
    1.9429   -1.1748    2.7304 C   0  0  0  0  0  0  0  0  0  0  0  0
    1.9570   -1.2671    4.2293 C   0  0  0  0  0  0  0  0  0  0  0  0
    0.8365   -2.1645    4.7521 C   0  0  0  0  0  0  0  0  0  0  0  0
    0.8703   -2.2338    6.2046 N   0  0  0  0  0  0  0  0  0  0  0  0
    2.5523   -2.1498    1.9448 C   0  0  0  0  0  0  0  0  0  0  0  0
    2.5053   -2.0924    0.5600 C   0  0  0  0  0  0  0  0  0  0  0  0
    2.6533   -3.8905   -2.0585 H   0  0  0  0  0  0  0  0  0  0  0  0
    1.0016   -3.7423   -1.4824 H   0  0  0  0  0  0  0  0  0  0  0  0
    1.3210   -3.9897   -3.2009 H   0  0  0  0  0  0  0  0  0  0  0  0
    1.6695    0.4114   -4.3980 H   0  0  0  0  0  0  0  0  0  0  0  0
    1.8157    1.2259   -2.0208 H   0  0  0  0  0  0  0  0  0  0  0  0
    0.6837    0.7309    0.2202 H   0  0  0  0  0  0  0  0  0  0  0  0
    3.0159   -2.8552   -0.0127 H   0  0  0  0  0  0  0  0  0  0  0  0
    0.7937    0.6364    2.6595 H   0  0  0  0  0  0  0  0  0  0  0  0
    1.8459   -0.2678    4.6601 H   0  0  0  0  0  0  0  0  0  0  0  0
    2.9151   -1.6601    4.5778 H   0  0  0  0  0  0  0  0  0  0  0  0
    3.0828   -2.9661    2.4221 H   0  0  0  0  0  0  0  0  0  0  0  0
   -0.1205   -1.8072    4.3463 H   0  0  0  0  0  0  0  0  0  0  0  0
    0.9792   -3.1739    4.3573 H   0  0  0  0  0  0  0  0  0  0  0  0
    0.1649   -2.8844    6.5257 H   0  0  0  0  0  0  0  0  0  0  0  0
    0.6056   -1.3351    6.5897 H   0  0  0  0  0  0  0  0  0  0  0  0
  1  2  1  0
  2  3  2  0
  3  4  1  0
  4  5  1  0
  2  6  1  0
  5  6  2  0
  6  7  1  0
  7  8  2  0
  8  9  1  0
  9 10  2  0
 10 11  1  0
 11 12  1  0
 12 13  1  0
 10 14  1  0
  7 15  1  0
 14 15  2  0
  1 16  1  0
  1 17  1  0
  1 18  1  0
  4 19  1  0
  5 20  1  0
  8 21  1  0
 15 22  1  0
  9 23  1  0
 11 24  1  0
 11 25  1  0
 14 26  1  0
 12 27  1  0
 12 28  1  0
 13 29  1  0
 13 30  1  0
M  END
