
     RDKit          3D

 60 62  0  0  0  0  0  0  0  0999 V2000
    3.3569    0.1390    1.8756 C   0  0  0  0  0  0  0  0  0  0  0  0
    3.7919    0.8118   -0.3427 C   0  0  2  0  0  0  0  0  0  0  0  0
    3.4440    2.0474   -1.1648 C   0  0  0  0  0  0  0  0  0  0  0  0
    1.8474    3.7765   -0.3202 C   0  0  0  0  0  0  0  0  0  0  0  0
    0.0759    2.4838   -0.3965 C   0  0  0  0  0  0  0  0  0  0  0  0
   -1.5870    0.7030    0.0143 C   0  0  0  0  0  0  0  0  0  0  0  0
   -0.7115   -0.3742    0.0810 C   0  0  0  0  0  0  0  0  0  0  0  0
   -1.1443   -1.6527    0.4304 C   0  0  0  0  0  0  0  0  0  0  0  0
   -2.4854   -1.8859    0.7146 C   0  0  0  0  0  0  0  0  0  0  0  0
   -2.9827   -3.2483    1.1063 C   0  0  0  0  0  0  0  0  0  0  0  0
   -5.7911    2.7519    0.2654 C   0  0  0  0  0  0  0  0  0  0  0  0
   -0.1370   -2.7430    0.5024 C   0  0  0  0  0  0  0  0  0  0  0  0
    0.6193   -2.9023    1.6598 C   0  0  0  0  0  0  0  0  0  0  0  0
    1.5763   -3.9033    1.7596 C   0  0  0  0  0  0  0  0  0  0  0  0
    1.7805   -4.7585    0.6876 C   0  0  0  0  0  0  0  0  0  0  0  0
    1.0343   -4.6005   -0.4729 C   0  0  0  0  0  0  0  0  0  0  0  0
    0.0736   -3.5985   -0.5868 C   0  0  0  0  0  0  0  0  0  0  0  0
    3.7572    1.1761    1.0158 O   0  0  0  0  0  0  0  0  0  0  0  0
    5.1302    0.2270   -0.7564 C   0  0  0  0  0  0  0  0  0  0  0  0
    6.1340    1.2034   -0.6140 O   0  0  0  0  0  0  0  0  0  0  0  0
    2.1469    2.5657   -0.8083 N   0  0  0  0  0  0  0  0  0  0  0  0
    0.5011    3.7814   -0.0395 C   0  0  0  0  0  0  0  0  0  0  0  0
   -3.3739   -0.8102    0.6357 C   0  0  0  0  0  0  0  0  0  0  0  0
   -2.9482    0.4610    0.2901 C   0  0  0  0  0  0  0  0  0  0  0  0
   -3.7524    1.5442    0.2078 O   0  0  0  0  0  0  0  0  0  0  0  0
   -5.1371    1.4079    0.4831 C   0  0  0  0  0  0  0  0  0  0  0  0
   -5.7311    3.1480   -1.1315 N   0  0  0  0  0  0  0  0  0  0  0  0
   -0.7028   -3.4290   -1.8606 C   0  0  0  0  0  0  0  0  0  0  0  0
    1.0780    1.7665   -0.8717 N   0  0  0  0  0  0  0  0  0  0  0  0
    2.3594   -0.2397    1.6201 H   0  0  0  0  0  0  0  0  0  0  0  0
    4.0491   -0.7112    1.8728 H   0  0  0  0  0  0  0  0  0  0  0  0
    3.3226    0.5407    2.8878 H   0  0  0  0  0  0  0  0  0  0  0  0
    3.0336    0.0436   -0.5523 H   0  0  0  0  0  0  0  0  0  0  0  0
    4.1696    2.8438   -1.0060 H   0  0  0  0  0  0  0  0  0  0  0  0
    3.4606    1.7913   -2.2265 H   0  0  0  0  0  0  0  0  0  0  0  0
    2.5972    4.5416   -0.1991 H   0  0  0  0  0  0  0  0  0  0  0  0
    0.3328   -0.2206   -0.1471 H   0  0  0  0  0  0  0  0  0  0  0  0
   -2.4326   -3.6450    1.9609 H   0  0  0  0  0  0  0  0  0  0  0  0
   -4.0386   -3.2197    1.3739 H   0  0  0  0  0  0  0  0  0  0  0  0
   -2.8708   -3.9712    0.2955 H   0  0  0  0  0  0  0  0  0  0  0  0
   -6.8391    2.6421    0.5518 H   0  0  0  0  0  0  0  0  0  0  0  0
   -5.3537    3.4808    0.9618 H   0  0  0  0  0  0  0  0  0  0  0  0
    0.4528   -2.2304    2.4936 H   0  0  0  0  0  0  0  0  0  0  0  0
    2.1552   -4.0125    2.6677 H   0  0  0  0  0  0  0  0  0  0  0  0
    2.5218   -5.5449    0.7487 H   0  0  0  0  0  0  0  0  0  0  0  0
    1.2055   -5.2670   -1.3103 H   0  0  0  0  0  0  0  0  0  0  0  0
    5.3377   -0.6608   -0.1449 H   0  0  0  0  0  0  0  0  0  0  0  0
    5.0405   -0.1246   -1.7928 H   0  0  0  0  0  0  0  0  0  0  0  0
    6.9722    0.8143   -0.8784 H   0  0  0  0  0  0  0  0  0  0  0  0
   -0.0861    4.5854    0.3725 H   0  0  0  0  0  0  0  0  0  0  0  0
   -1.9031    2.7055   -0.0906 H   0  0  0  0  0  0  0  0  0  0  0  0
   -4.4179   -0.9905    0.8589 H   0  0  0  0  0  0  0  0  0  0  0  0
   -5.2908    1.0777    1.5163 H   0  0  0  0  0  0  0  0  0  0  0  0
   -5.5867    0.6643   -0.1839 H   0  0  0  0  0  0  0  0  0  0  0  0
   -6.2665    3.9958   -1.2643 H   0  0  0  0  0  0  0  0  0  0  0  0
   -4.7790    3.3823   -1.3810 H   0  0  0  0  0  0  0  0  0  0  0  0
   -0.5765   -2.4263   -2.2716 H   0  0  0  0  0  0  0  0  0  0  0  0
   -0.3806   -4.1443   -2.6168 H   0  0  0  0  0  0  0  0  0  0  0  0
   -1.7740   -3.5713   -1.7055 H   0  0  0  0  0  0  0  0  0  0  0  0
   -1.2136    2.0024   -0.2998 N   0  0  0  0  0  0  0  0  0  0  0  0
 14 13  2  0
 14 15  1  0
 13 12  1  0
 15 16  2  0
 10  9  1  0
 12  8  1  0
 12 17  2  0
 16 17  1  0
  9  8  1  0
  9 23  2  0
  8  7  2  0
 22  4  2  0
 22  5  1  0
  4 21  1  0
 17 28  1  0
 23 24  1  0
  7  6  1  0
 24  6  2  0
 24 25  1  0
  6 60  1  0
 26 25  1  0
 26 11  1  0
  5 60  1  0
  5 29  2  0
 21  3  1  0
 21 29  1  0
 11 27  1  0
  3  2  1  0
 18  2  1  0
 18  1  1  0
  2 19  1  0
 19 20  1  0
  1 30  1  0
  1 31  1  0
  1 32  1  0
  2 33  1  1
  3 34  1  0
  3 35  1  0
  4 36  1  0
  7 37  1  0
 10 38  1  0
 10 39  1  0
 10 40  1  0
 11 41  1  0
 11 42  1  0
 13 43  1  0
 14 44  1  0
 15 45  1  0
 16 46  1  0
 19 47  1  0
 19 48  1  0
 20 49  1  0
 22 50  1  0
 60 51  1  0
 23 52  1  0
 26 53  1  0
 26 54  1  0
 27 55  1  0
 27 56  1  0
 28 57  1  0
 28 58  1  0
 28 59  1  0
M  END
