
     RDKit          3D

 37 38  0  0  0  0  0  0  0  0999 V2000
    0.6975    0.9409    0.1507 C   0  0  0  0  0  0  0  0  0  0  0  0
   -2.6823   -0.6761    0.0427 C   0  0  0  0  0  0  0  0  0  0  0  0
   -2.1157    1.6597    0.0264 C   0  0  0  0  0  0  0  0  0  0  0  0
    6.3398   -0.3893   -1.2908 C   0  0  0  0  0  0  0  0  0  0  0  0
    5.1225    0.2724   -1.2052 C   0  0  0  0  0  0  0  0  0  0  0  0
    4.5348    0.5544    0.0258 C   0  0  0  0  0  0  0  0  0  0  0  0
    5.2010    0.1514    1.1806 C   0  0  0  0  0  0  0  0  0  0  0  0
    6.4193   -0.5114    1.1201 C   0  0  0  0  0  0  0  0  0  0  0  0
    6.9668   -0.7709   -0.1208 C   0  0  0  0  0  0  0  0  0  0  0  0
    3.1973    1.2352    0.1052 C   0  0  0  0  0  0  0  0  0  0  0  0
    2.0412    0.2364    0.0634 C   0  0  0  0  0  0  0  0  0  0  0  0
   -1.6883    0.3353    0.0533 C   0  0  0  0  0  0  0  0  0  0  0  0
   -3.9894   -0.2752   -0.0025 C   0  0  0  0  0  0  0  0  0  0  0  0
   -3.4898    1.9359   -0.0156 C   0  0  0  0  0  0  0  0  0  0  0  0
   -5.1099   -1.2785   -0.0264 C   0  0  1  0  0  0  0  0  0  0  0  0
    8.1480   -1.4100   -0.1926 F   0  0  0  0  0  0  0  0  0  0  0  0
   -5.9207   -1.1292    1.0288 F   0  0  0  0  0  0  0  0  0  0  0  0
   -5.8682   -1.1347   -1.1205 F   0  0  0  0  0  0  0  0  0  0  0  0
   -4.6768   -2.5427   -0.0127 F   0  0  0  0  0  0  0  0  0  0  0  0
   -0.3855   -0.0095    0.0753 N   0  0  0  0  0  0  0  0  0  0  0  0
   -4.4198    0.9836   -0.0333 N   0  0  0  0  0  0  0  0  0  0  0  0
   -3.9314    3.2241    0.0075 N   0  0  0  0  0  0  0  0  0  0  0  0
    0.6463    1.5216    1.0809 H   0  0  0  0  0  0  0  0  0  0  0  0
    0.6118    1.6594   -0.6712 H   0  0  0  0  0  0  0  0  0  0  0  0
   -2.3968   -1.7187    0.0625 H   0  0  0  0  0  0  0  0  0  0  0  0
   -1.4116    2.4803    0.0452 H   0  0  0  0  0  0  0  0  0  0  0  0
    4.6275    0.5767   -2.1195 H   0  0  0  0  0  0  0  0  0  0  0  0
    4.7667    0.3614    2.1506 H   0  0  0  0  0  0  0  0  0  0  0  0
    6.9329   -0.8142    2.0234 H   0  0  0  0  0  0  0  0  0  0  0  0
    3.1360    1.8209    1.0263 H   0  0  0  0  0  0  0  0  0  0  0  0
    3.0913    1.9424   -0.7214 H   0  0  0  0  0  0  0  0  0  0  0  0
    2.1417   -0.4722    0.8911 H   0  0  0  0  0  0  0  0  0  0  0  0
    2.0903   -0.3455   -0.8616 H   0  0  0  0  0  0  0  0  0  0  0  0
   -0.1647   -0.9806    0.2233 H   0  0  0  0  0  0  0  0  0  0  0  0
   -3.2913    3.9461   -0.2772 H   0  0  0  0  0  0  0  0  0  0  0  0
   -4.8853    3.3783   -0.2742 H   0  0  0  0  0  0  0  0  0  0  0  0
    6.7924   -0.5989   -2.2512 H   0  0  0  0  0  0  0  0  0  0  0  0
 15 18  1  6
 22 14  1  0
 19 15  1  0
 16  9  1  0
 15 13  1  0
 15 17  1  0
 21 14  2  0
 21 13  1  0
 14  3  1  0
 13  2  2  0
  4  9  2  0
  4  5  1  0
  9  8  1  0
  5  6  2  0
  3 12  2  0
  2 12  1  0
  8  7  2  0
 12 20  1  0
  6  7  1  0
  6 10  1  0
 11  1  1  0
 11 10  1  0
  1 20  1  0
  1 23  1  0
  1 24  1  0
  2 25  1  0
  3 26  1  0
  4 37  1  0
  5 27  1  0
  7 28  1  0
  8 29  1  0
 10 30  1  0
 10 31  1  0
 11 32  1  0
 11 33  1  0
 20 34  1  0
 22 35  1  0
 22 36  1  0
M  END
