
     RDKit          3D

 58 62  0  0  0  0  0  0  0  0999 V2000
    1.0987    1.3211   -0.5270 N   0  0  0  0  0  0  0  0  0  0  0  0
   -1.7529    5.2164   -1.6176 N   0  0  0  0  0  0  0  0  0  0  0  0
   -1.9658   -0.0260   -1.9002 C   0  0  0  0  0  0  0  0  0  0  0  0
   -0.0677    1.4468   -1.0973 C   0  0  0  0  0  0  0  0  0  0  0  0
    1.3745   -0.0192   -0.5661 C   0  0  0  0  0  0  0  0  0  0  0  0
    2.4863   -0.7137   -0.0921 C   0  0  0  0  0  0  0  0  0  0  0  0
    2.5291   -2.0863   -0.3091 C   0  0  0  0  0  0  0  0  0  0  0  0
    0.3587   -2.0766   -1.4263 C   0  0  0  0  0  0  0  0  0  0  0  0
    4.8756   -0.0415    0.0282 C   0  0  0  0  0  0  0  0  0  0  0  0
    5.7457    1.2802    1.8317 C   0  0  0  0  0  0  0  0  0  0  0  0
    3.4309    0.6591    1.7932 C   0  0  0  0  0  0  0  0  0  0  0  0
   -1.5259    4.7088   -0.2779 C   0  0  0  0  0  0  0  0  0  0  0  0
   -0.4096    3.6812   -0.3003 C   0  0  0  0  0  0  0  0  0  0  0  0
   -3.0309    0.2358    0.3576 C   0  0  0  0  0  0  0  0  0  0  0  0
   -4.1342   -1.5729    1.4099 C   0  0  0  0  0  0  0  0  0  0  0  0
   -3.8876   -2.4246    0.3473 C   0  0  0  0  0  0  0  0  0  0  0  0
   -4.3618   -3.8465    0.3625 C   0  0  0  0  0  0  0  0  0  0  0  0
   -3.7310   -0.2455    1.4564 C   0  0  0  0  0  0  0  0  0  0  0  0
   -2.7449   -0.5778   -0.7347 C   0  0  0  0  0  0  0  0  0  0  0  0
   -3.1795   -1.8950   -0.7292 C   0  0  0  0  0  0  0  0  0  0  0  0
   -0.5860    0.2537   -1.5434 N   0  0  0  0  0  0  0  0  0  0  0  0
    0.3376   -0.7080   -1.2134 C   0  0  0  0  0  0  0  0  0  0  0  0
    1.4818   -2.7390   -0.9593 C   0  0  0  0  0  0  0  0  0  0  0  0
    1.5893   -4.4581   -1.1840 Cl  0  0  0  0  0  0  0  0  0  0  0  0
    3.5981   -0.0200    0.5864 C   0  0  0  0  0  0  0  0  0  0  0  0
    4.4875    1.3079    2.4145 C   0  0  0  0  0  0  0  0  0  0  0  0
    5.9425    0.5992    0.6391 C   0  0  0  0  0  0  0  0  0  0  0  0
   -0.7744    2.6130   -1.2214 N   0  0  0  0  0  0  0  0  0  0  0  0
   -2.1313    4.1488   -2.5231 C   0  0  0  0  0  0  0  0  0  0  0  0
   -1.0203    3.1197   -2.5731 C   0  0  0  0  0  0  0  0  0  0  0  0
   -2.4747    5.9242   -1.5996 H   0  0  0  0  0  0  0  0  0  0  0  0
   -1.9766   -0.7214   -2.7411 H   0  0  0  0  0  0  0  0  0  0  0  0
   -2.4245    0.8955   -2.2502 H   0  0  0  0  0  0  0  0  0  0  0  0
    3.3772   -2.6573    0.0454 H   0  0  0  0  0  0  0  0  0  0  0  0
   -0.4402   -2.6052   -1.9275 H   0  0  0  0  0  0  0  0  0  0  0  0
    5.0267   -0.5626   -0.9086 H   0  0  0  0  0  0  0  0  0  0  0  0
    6.5689    1.7883    2.3158 H   0  0  0  0  0  0  0  0  0  0  0  0
   -1.2354    5.5330    0.3762 H   0  0  0  0  0  0  0  0  0  0  0  0
   -2.4229    4.2417    0.1592 H   0  0  0  0  0  0  0  0  0  0  0  0
    0.5335    4.1581   -0.5958 H   0  0  0  0  0  0  0  0  0  0  0  0
   -0.2693    3.2617    0.6952 H   0  0  0  0  0  0  0  0  0  0  0  0
   -2.7132    1.2728    0.3524 H   0  0  0  0  0  0  0  0  0  0  0  0
   -3.5762    0.2409    3.5495 H   0  0  0  0  0  0  0  0  0  0  0  0
   -3.6879    1.6334    2.4795 H   0  0  0  0  0  0  0  0  0  0  0  0
   -5.1190    0.6707    2.8289 H   0  0  0  0  0  0  0  0  0  0  0  0
   -5.4499   -3.9081    0.4123 H   0  0  0  0  0  0  0  0  0  0  0  0
   -4.0410   -4.3645   -0.5394 H   0  0  0  0  0  0  0  0  0  0  0  0
   -3.9676   -4.3950    1.2189 H   0  0  0  0  0  0  0  0  0  0  0  0
   -2.9744   -2.5347   -1.5804 H   0  0  0  0  0  0  0  0  0  0  0  0
    4.3296    1.8259    3.3507 H   0  0  0  0  0  0  0  0  0  0  0  0
    6.9225    0.5687    0.1823 H   0  0  0  0  0  0  0  0  0  0  0  0
   -3.0644    3.6429   -2.2273 H   0  0  0  0  0  0  0  0  0  0  0  0
   -2.2831    4.5583   -3.5232 H   0  0  0  0  0  0  0  0  0  0  0  0
   -0.1070    3.5783   -2.9746 H   0  0  0  0  0  0  0  0  0  0  0  0
   -1.2957    2.3069   -3.2437 H   0  0  0  0  0  0  0  0  0  0  0  0
    1.8879    0.6658    2.5800 Cl  0  0  0  0  0  0  0  0  0  0  0  0
   -4.0462    0.6182    2.6402 C   0  0  0  0  0  0  0  0  0  0  0  0
   -4.8126   -2.0615    2.4665 F   0  0  0  0  0  0  0  0  0  0  0  0
 17 16  1  0
  2 12  1  0
  2 29  1  0
 58 15  1  0
 12 13  1  0
 16 15  2  0
 16 20  1  0
 29 30  1  0
 15 18  1  0
 20 19  2  0
 13 28  1  0
 18 57  1  0
 18 14  2  0
 30 28  1  0
 28  4  1  0
 19 14  1  0
 19  3  1  0
  3 21  1  0
  4 21  1  0
  4  1  2  0
 21 22  1  0
  1  5  1  0
 56 11  1  0
 22  5  2  0
 22  8  1  0
  5  6  1  0
 11 26  2  0
 11 25  1  0
 26 10  1  0
  8 23  2  0
  6 25  1  0
  6  7  2  0
 25  9  2  0
 10 27  2  0
 23  7  1  0
 23 24  1  0
  9 27  1  0
  2 31  1  0
  3 32  1  0
  3 33  1  0
  7 34  1  0
  8 35  1  0
  9 36  1  0
 10 37  1  0
 12 38  1  0
 12 39  1  0
 13 40  1  0
 13 41  1  0
 14 42  1  0
 57 43  1  0
 57 44  1  0
 57 45  1  0
 17 46  1  0
 17 47  1  0
 17 48  1  0
 20 49  1  0
 26 50  1  0
 27 51  1  0
 29 52  1  0
 29 53  1  0
 30 54  1  0
 30 55  1  0
M  END
