
     RDKit          3D

 46 50  0  0  0  0  0  0  0  0999 V2000
    4.3860    5.1335    0.5921 O   0  0  0  0  0  0  0  0  0  0  0  0
    5.1317    4.3982   -0.3538 C   0  0  0  0  0  0  0  0  0  0  0  0
    4.9378    2.9216   -0.0886 C   0  0  0  0  0  0  0  0  0  0  0  0
    3.5465    2.5616   -0.2273 N   0  0  0  0  0  0  0  0  0  0  0  0
    3.0880    1.2831   -0.1652 C   0  0  0  0  0  0  0  0  0  0  0  0
    3.9689    0.1737   -0.2414 C   0  0  0  0  0  0  0  0  0  0  0  0
    3.4836   -1.1082   -0.2209 C   0  0  0  0  0  0  0  0  0  0  0  0
    1.7186    1.0381   -0.0490 C   0  0  0  0  0  0  0  0  0  0  0  0
    1.2166   -0.2609   -0.0243 C   0  0  0  0  0  0  0  0  0  0  0  0
    2.1094   -1.3519   -0.1155 C   0  0  0  0  0  0  0  0  0  0  0  0
   -0.1430   -0.4357    0.0922 N   0  0  0  0  0  0  0  0  0  0  0  0
   -0.6390   -1.6206    0.1134 C   0  0  0  0  0  0  0  0  0  0  0  0
    0.1715   -2.7167    0.0206 N   0  0  0  0  0  0  0  0  0  0  0  0
   -0.2248   -4.0121    0.0214 N   0  0  0  0  0  0  0  0  0  0  0  0
    1.5253   -2.6424   -0.0909 C   0  0  0  0  0  0  0  0  0  0  0  0
    2.0277   -3.8551   -0.1573 N   0  0  0  0  0  0  0  0  0  0  0  0
    0.9270   -4.6473   -0.0846 C   0  0  0  0  0  0  0  0  0  0  0  0
    1.0268   -5.9998   -0.0693 N   0  0  0  0  0  0  0  0  0  0  0  0
   -2.1088   -1.8834    0.2394 C   0  0  0  0  0  0  0  0  0  0  0  0
   -2.9216   -0.6286    0.3637 C   0  0  0  0  0  0  0  0  0  0  0  0
   -3.2602    0.0900   -0.7933 C   0  0  0  0  0  0  0  0  0  0  0  0
   -3.9923    1.2375   -0.6308 C   0  0  0  0  0  0  0  0  0  0  0  0
   -4.4590    2.0843   -1.5814 O   0  0  0  0  0  0  0  0  0  0  0  0
   -5.0037    3.1985   -0.8869 C   0  0  0  0  0  0  0  0  0  0  0  0
   -5.1214    2.8203    0.4778 O   0  0  0  0  0  0  0  0  0  0  0  0
   -4.3926    1.6850    0.6191 C   0  0  0  0  0  0  0  0  0  0  0  0
   -4.0758    0.9992    1.7637 C   0  0  0  0  0  0  0  0  0  0  0  0
   -3.3269   -0.1751    1.6094 C   0  0  0  0  0  0  0  0  0  0  0  0
    4.3588    6.0518    0.3092 H   0  0  0  0  0  0  0  0  0  0  0  0
    4.8127    4.6215   -1.3785 H   0  0  0  0  0  0  0  0  0  0  0  0
    6.2038    4.6182   -0.2899 H   0  0  0  0  0  0  0  0  0  0  0  0
    5.5412    2.3812   -0.8208 H   0  0  0  0  0  0  0  0  0  0  0  0
    5.3321    2.6624    0.9030 H   0  0  0  0  0  0  0  0  0  0  0  0
    2.8907    3.2740    0.0546 H   0  0  0  0  0  0  0  0  0  0  0  0
    5.0364    0.3254   -0.3181 H   0  0  0  0  0  0  0  0  0  0  0  0
    1.0205    1.8640    0.0183 H   0  0  0  0  0  0  0  0  0  0  0  0
    4.1714   -1.9416   -0.2818 H   0  0  0  0  0  0  0  0  0  0  0  0
   -2.4287   -2.4682   -0.6285 H   0  0  0  0  0  0  0  0  0  0  0  0
   -2.2674   -2.5351    1.1028 H   0  0  0  0  0  0  0  0  0  0  0  0
    0.1931   -6.5112   -0.3085 H   0  0  0  0  0  0  0  0  0  0  0  0
    1.8628   -6.3781   -0.4833 H   0  0  0  0  0  0  0  0  0  0  0  0
   -2.9566   -0.2519   -1.7747 H   0  0  0  0  0  0  0  0  0  0  0  0
   -3.0596   -0.7402    2.4936 H   0  0  0  0  0  0  0  0  0  0  0  0
   -4.3306    4.0578   -0.9778 H   0  0  0  0  0  0  0  0  0  0  0  0
   -5.9873    3.4397   -1.2897 H   0  0  0  0  0  0  0  0  0  0  0  0
   -4.3894    1.3411    2.7407 H   0  0  0  0  0  0  0  0  0  0  0  0
  1  2  1  0
  2  3  1  0
  3  4  1  0
  4  5  1  0
  5  6  2  0
  5  8  1  0
  6  7  1  0
  7 10  2  0
  8  9  2  0
  9 10  1  0
  9 11  1  0
 10 15  1  0
 11 12  2  0
 12 13  1  0
 12 19  1  0
 13 14  1  0
 13 15  1  0
 14 17  2  0
 15 16  2  0
 16 17  1  0
 17 18  1  0
 19 20  1  0
 20 21  2  0
 20 28  1  0
 21 22  1  0
 22 23  1  0
 22 26  2  0
 23 24  1  0
 24 25  1  0
 25 26  1  0
 26 27  1  0
 27 28  2  0
  1 29  1  0
  2 30  1  0
  2 31  1  0
  3 32  1  0
  3 33  1  0
  4 34  1  0
  6 35  1  0
  8 36  1  0
  7 37  1  0
 19 38  1  0
 19 39  1  0
 18 40  1  0
 18 41  1  0
 21 42  1  0
 28 43  1  0
 24 44  1  0
 24 45  1  0
 27 46  1  0
M  END
