
     RDKit          3D

  9  8  0  0  0  0  0  0  0  0999 V2000
    0.4771    0.1036    0.1595 C   0  0  0  0  0  0  0  0  0  0  0  0
   -1.7848   -0.0573    0.1690 O   0  0  0  0  0  0  0  0  0  0  0  0
    0.3716    1.2623    0.4444 O   0  0  0  0  0  0  0  0  0  0  0  0
   -0.5644   -0.7273   -0.0097 O   0  0  0  0  0  0  0  0  0  0  0  0
    1.7617   -0.6407   -0.0454 C   0  0  0  0  0  0  0  0  0  0  0  0
   -2.3362   -0.5385   -0.4650 H   0  0  0  0  0  0  0  0  0  0  0  0
    2.3845   -0.5207    0.8399 H   0  0  0  0  0  0  0  0  0  0  0  0
    1.6212   -1.7016   -0.2364 H   0  0  0  0  0  0  0  0  0  0  0  0
    2.2921   -0.1994   -0.8892 H   0  0  0  0  0  0  0  0  0  0  0  0
  1  3  2  0
  1  4  1  0
  1  5  1  0
  2  4  1  0
  2  6  1  0
  5  7  1  0
  5  8  1  0
  5  9  1  0
M  END
