
     RDKit          3D

 33 35  0  0  0  0  0  0  0  0999 V2000
    2.8636   -4.8750    2.5462 O   0  0  0  0  0  0  0  0  0  0  0  0
    2.0140   -4.7344    1.6874 C   0  0  0  0  0  0  0  0  0  0  0  0
    1.3882   -5.9383    1.0224 C   0  0  0  0  0  0  0  0  0  0  0  0
    0.9678   -5.6283   -0.4004 C   0  0  1  0  0  0  0  0  0  0  0  0
    0.2664   -6.7724   -1.0698 C   0  0  0  0  0  0  0  0  0  0  0  0
    0.8910   -7.4757   -2.0864 C   0  0  0  0  0  0  0  0  0  0  0  0
    0.2652   -8.5677   -2.6778 C   0  0  0  0  0  0  0  0  0  0  0  0
   -0.9961   -8.9623   -2.2665 C   0  0  0  0  0  0  0  0  0  0  0  0
   -1.5828  -10.0206   -2.8608 O   0  0  0  0  0  0  0  0  0  0  0  0
   -1.6354   -8.2483   -1.2407 C   0  0  0  0  0  0  0  0  0  0  0  0
   -2.8660   -8.6877   -0.8942 O   0  0  0  0  0  0  0  0  0  0  0  0
   -1.0044   -7.1687   -0.6504 C   0  0  0  0  0  0  0  0  0  0  0  0
    0.0864   -4.5054   -0.4062 O   0  0  0  0  0  0  0  0  0  0  0  0
    0.4947   -3.4021    0.2386 C   0  0  0  0  0  0  0  0  0  0  0  0
    1.4817   -3.4449    1.2491 C   0  0  0  0  0  0  0  0  0  0  0  0
   -0.1193   -2.2231   -0.1448 C   0  0  0  0  0  0  0  0  0  0  0  0
    0.2497   -1.0379    0.4815 C   0  0  0  0  0  0  0  0  0  0  0  0
   -0.3623    0.0809    0.0839 O   0  0  0  0  0  0  0  0  0  0  0  0
    1.2313   -1.0282    1.4695 C   0  0  0  0  0  0  0  0  0  0  0  0
    1.8411   -2.2146    1.8480 C   0  0  0  0  0  0  0  0  0  0  0  0
    2.7746   -2.2190    2.8005 O   0  0  0  0  0  0  0  0  0  0  0  0
    2.0964   -6.7675    1.0307 H   0  0  0  0  0  0  0  0  0  0  0  0
    0.5206   -6.2466    1.6173 H   0  0  0  0  0  0  0  0  0  0  0  0
    1.8603   -5.3648   -0.9820 H   0  0  0  0  0  0  0  0  0  0  0  0
    1.8754   -7.1803   -2.4271 H   0  0  0  0  0  0  0  0  0  0  0  0
    0.7575   -9.1172   -3.4706 H   0  0  0  0  0  0  0  0  0  0  0  0
   -2.4547  -10.1833   -2.4822 H   0  0  0  0  0  0  0  0  0  0  0  0
   -3.2426   -8.1456   -0.1925 H   0  0  0  0  0  0  0  0  0  0  0  0
   -1.5154   -6.6294    0.1411 H   0  0  0  0  0  0  0  0  0  0  0  0
   -0.8664   -2.2259   -0.9275 H   0  0  0  0  0  0  0  0  0  0  0  0
   -0.0281    0.8466    0.5658 H   0  0  0  0  0  0  0  0  0  0  0  0
    1.5185   -0.0968    1.9467 H   0  0  0  0  0  0  0  0  0  0  0  0
    2.8978   -1.3251    3.1428 H   0  0  0  0  0  0  0  0  0  0  0  0
  1  2  2  0
  2 15  1  0
  2  3  1  0
  3  4  1  0
  3 22  1  0
  3 23  1  0
  4 13  1  0
  4  5  1  0
  4 24  1  6
  5  6  2  0
  5 12  1  0
  6  7  1  0
  6 25  1  0
  7  8  2  0
  7 26  1  0
  8 10  1  0
  8  9  1  0
  9 27  1  0
 10 12  2  0
 10 11  1  0
 11 28  1  0
 12 29  1  0
 13 14  1  0
 14 15  2  0
 14 16  1  0
 15 20  1  0
 16 17  2  0
 16 30  1  0
 17 19  1  0
 17 18  1  0
 18 31  1  0
 19 20  2  0
 19 32  1  0
 20 21  1  0
 21 33  1  0
M  END
