
     RDKit          3D

 25 26  0  0  0  0  0  0  0  0999 V2000
   -4.1173   -0.5168    0.0845 C   0  0  0  0  0  0  0  0  0  0  0  0
    1.5846    0.9644    0.4334 C   0  0  0  0  0  0  0  0  0  0  0  0
    2.9333    0.7326    0.5901 C   0  0  0  0  0  0  0  0  0  0  0  0
    3.4691   -0.4573    0.1024 C   0  0  0  0  0  0  0  0  0  0  0  0
   -5.1305   -1.0089    0.3405 N   0  0  0  0  0  0  0  0  0  0  0  0
    2.6376   -1.3819   -0.5290 C   0  0  0  0  0  0  0  0  0  0  0  0
    1.2891   -1.1098   -0.6686 C   0  0  0  0  0  0  0  0  0  0  0  0
   -1.6840   -0.4431    0.1023 N   0  0  0  0  0  0  0  0  0  0  0  0
   -1.5121   -1.6806    0.8357 C   0  0  0  0  0  0  0  0  0  0  0  0
   -0.7015    0.3778   -0.3488 C   0  0  0  0  0  0  0  0  0  0  0  0
    0.7207    0.0711   -0.1894 C   0  0  0  0  0  0  0  0  0  0  0  0
   -1.2928    1.4661   -0.9707 C   0  0  0  0  0  0  0  0  0  0  0  0
   -2.6784    1.2913   -0.9059 C   0  0  0  0  0  0  0  0  0  0  0  0
   -2.8954    0.1005   -0.2380 C   0  0  0  0  0  0  0  0  0  0  0  0
    1.0849    2.1081    0.9182 F   0  0  0  0  0  0  0  0  0  0  0  0
    4.7844   -0.6552    0.2671 O   0  0  0  0  0  0  0  0  0  0  0  0
    3.5601    1.4612    1.0887 H   0  0  0  0  0  0  0  0  0  0  0  0
    3.0422   -2.3074   -0.9193 H   0  0  0  0  0  0  0  0  0  0  0  0
    0.6634   -1.8308   -1.1793 H   0  0  0  0  0  0  0  0  0  0  0  0
   -1.5192   -2.5407    0.1680 H   0  0  0  0  0  0  0  0  0  0  0  0
   -0.5688   -1.6574    1.3733 H   0  0  0  0  0  0  0  0  0  0  0  0
   -2.3133   -1.7904    1.5630 H   0  0  0  0  0  0  0  0  0  0  0  0
   -0.7655    2.2818   -1.4378 H   0  0  0  0  0  0  0  0  0  0  0  0
   -3.4455    1.9432   -1.2917 H   0  0  0  0  0  0  0  0  0  0  0  0
    5.0529   -1.4984   -0.1158 H   0  0  0  0  0  0  0  0  0  0  0  0
  6  7  2  0
  6  4  1  0
  7 11  1  0
  9  8  1  0
 16  4  1  0
  4  3  2  0
  5  1  3  0
  8 14  1  0
  8 10  1  0
  1 14  1  0
 11 10  1  0
 11  2  2  0
 14 13  2  0
 10 12  2  0
  3  2  1  0
  2 15  1  0
 13 12  1  0
  3 17  1  0
  6 18  1  0
  7 19  1  0
  9 20  1  0
  9 21  1  0
  9 22  1  0
 12 23  1  0
 13 24  1  0
 16 25  1  0
M  END
