
     RDKit          3D

 49 52  0  0  0  0  0  0  0  0999 V2000
   -4.6424   -0.9665    1.2019 C   0  0  0  0  0  0  0  0  0  0  0  0
   -6.0062   -0.9873    1.4327 C   0  0  0  0  0  0  0  0  0  0  0  0
   -6.7921    0.1367    1.2397 C   0  0  0  0  0  0  0  0  0  0  0  0
   -6.1806    1.2997    0.8037 C   0  0  0  0  0  0  0  0  0  0  0  0
   -4.8143    1.3379    0.5550 C   0  0  0  0  0  0  0  0  0  0  0  0
   -4.0126    0.1986    0.7503 C   0  0  0  0  0  0  0  0  0  0  0  0
    2.1023   -2.5332   -0.2748 C   0  0  0  0  0  0  0  0  0  0  0  0
    0.7680   -2.3460   -0.0494 C   0  0  0  0  0  0  0  0  0  0  0  0
    0.5230   -0.9406   -0.1125 C   0  0  0  0  0  0  0  0  0  0  0  0
    1.7330   -0.3695   -0.3944 N   0  0  0  0  0  0  0  0  0  0  0  0
    2.7108   -1.3256   -0.4139 N   0  0  0  0  0  0  0  0  0  0  0  0
    2.1025    0.9896   -0.3430 C   0  0  0  0  0  0  0  0  0  0  0  0
    3.2437    1.3572    0.3589 C   0  0  0  0  0  0  0  0  0  0  0  0
    3.6434    2.6881    0.3978 C   0  0  0  0  0  0  0  0  0  0  0  0
    2.8787    3.6422   -0.2638 C   0  0  0  0  0  0  0  0  0  0  0  0
    1.7364    3.2688   -0.9597 C   0  0  0  0  0  0  0  0  0  0  0  0
    1.3430    1.9420   -1.0143 C   0  0  0  0  0  0  0  0  0  0  0  0
   -0.5174   -0.1654    0.0771 N   0  0  0  0  0  0  0  0  0  0  0  0
   -1.7268   -0.7155    0.3398 C   0  0  0  0  0  0  0  0  0  0  0  0
   -2.0271   -1.9014    0.4148 O   0  0  0  0  0  0  0  0  0  0  0  0
   -2.6580    0.2957    0.5139 N   0  0  0  0  0  0  0  0  0  0  0  0
    4.6168   -5.4814   -0.3577 C   0  0  0  0  0  0  0  0  0  0  0  0
    4.5641   -3.7911   -0.1193 S   0  0  0  0  0  0  0  0  0  0  0  0
    2.8550   -3.7595   -0.3532 C   0  0  0  0  0  0  0  0  0  0  0  0
    2.3657   -5.0153   -0.5942 C   0  0  0  0  0  0  0  0  0  0  0  0
    3.3793   -6.0023   -0.5954 C   0  0  0  0  0  0  0  0  0  0  0  0
    4.8887    3.0787    1.1355 C   0  0  0  0  0  0  0  0  0  0  0  0
    6.1447    2.8243    0.3138 C   0  0  0  0  0  0  0  0  0  0  0  0
    6.2289    1.8853   -0.4619 O   0  0  0  0  0  0  0  0  0  0  0  0
    7.1438    3.6881    0.5385 N   0  0  0  0  0  0  0  0  0  0  0  0
   -4.0922    2.8026   -0.0094 Cl  0  0  0  0  0  0  0  0  0  0  0  0
   -7.1408    2.7117    0.5615 Cl  0  0  0  0  0  0  0  0  0  0  0  0
   -4.0590   -1.8552    1.3742 H   0  0  0  0  0  0  0  0  0  0  0  0
   -6.4661   -1.9025    1.7800 H   0  0  0  0  0  0  0  0  0  0  0  0
   -7.8564    0.1156    1.4251 H   0  0  0  0  0  0  0  0  0  0  0  0
    3.4393   -1.1802   -1.1035 H   0  0  0  0  0  0  0  0  0  0  0  0
    3.8142    0.6108    0.8968 H   0  0  0  0  0  0  0  0  0  0  0  0
    3.1754    4.6835   -0.2356 H   0  0  0  0  0  0  0  0  0  0  0  0
    1.1501    4.0177   -1.4752 H   0  0  0  0  0  0  0  0  0  0  0  0
    0.4610    1.6527   -1.5651 H   0  0  0  0  0  0  0  0  0  0  0  0
   -2.2845    1.2188    0.3584 H   0  0  0  0  0  0  0  0  0  0  0  0
    5.5590   -6.0048   -0.3027 H   0  0  0  0  0  0  0  0  0  0  0  0
    1.3202   -5.2196   -0.7767 H   0  0  0  0  0  0  0  0  0  0  0  0
    3.1985   -7.0530   -0.7671 H   0  0  0  0  0  0  0  0  0  0  0  0
    4.8372    4.1221    1.4500 H   0  0  0  0  0  0  0  0  0  0  0  0
    4.9861    2.4853    2.0498 H   0  0  0  0  0  0  0  0  0  0  0  0
    7.0469    4.4605    1.1741 H   0  0  0  0  0  0  0  0  0  0  0  0
    8.0358    3.5672    0.0865 H   0  0  0  0  0  0  0  0  0  0  0  0
    0.0484   -3.1090    0.1809 H   0  0  0  0  0  0  0  0  0  0  0  0
  1  2  2  0
  1  6  1  0
  2  3  1  0
  3  4  2  0
  4  5  1  0
  4 32  1  0
  5  6  2  0
  5 31  1  0
  6 21  1  0
  7  8  2  0
  7 11  1  0
  7 24  1  0
  8  9  1  0
  9 10  1  0
  9 18  2  0
 10 11  1  0
 10 12  1  0
 12 13  2  0
 12 17  1  0
 13 14  1  0
 14 15  2  0
 14 27  1  0
 15 16  1  0
 16 17  2  0
 18 19  1  0
 19 20  2  0
 19 21  1  0
 22 23  1  0
 22 26  2  0
 23 24  1  0
 24 25  2  0
 25 26  1  0
 27 28  1  0
 28 29  2  0
 28 30  1  0
  1 33  1  0
  2 34  1  0
  3 35  1  0
  8 49  1  0
 11 36  1  0
 13 37  1  0
 15 38  1  0
 16 39  1  0
 17 40  1  0
 21 41  1  0
 22 42  1  0
 25 43  1  0
 26 44  1  0
 27 45  1  0
 27 46  1  0
 30 47  1  0
 30 48  1  0
M  END
