
     RDKit          3D

 38 41  0  0  0  0  0  0  0  0999 V2000
   -1.4281   -0.4018    0.2027 C   0  0  0  0  0  0  0  0  0  0  0  0
    4.6595    0.8589    0.0419 C   0  0  0  0  0  0  0  0  0  0  0  0
    5.6961    0.0373   -0.2903 C   0  0  0  0  0  0  0  0  0  0  0  0
   -6.1313   -0.0783   -0.3546 C   0  0  0  0  0  0  0  0  0  0  0  0
   -4.1671   -1.3570    1.1719 C   0  0  0  0  0  0  0  0  0  0  0  0
   -5.4564   -1.8561    1.1441 C   0  0  0  0  0  0  0  0  0  0  0  0
   -6.4288   -1.2146    0.3909 C   0  0  0  0  0  0  0  0  0  0  0  0
    2.1223    0.6372    0.2035 N   0  0  0  0  0  0  0  0  0  0  0  0
    1.0550   -0.2362    0.0431 C   0  0  0  0  0  0  0  0  0  0  0  0
   -0.1602    0.3153    0.3120 C   0  0  0  0  0  0  0  0  0  0  0  0
    1.7602    1.9071    0.6067 C   0  0  0  0  0  0  0  0  0  0  0  0
    3.4210    0.1730   -0.0473 C   0  0  0  0  0  0  0  0  0  0  0  0
    3.5762   -1.1350   -0.4423 C   0  0  0  0  0  0  0  0  0  0  0  0
    1.2730   -1.5156   -0.3505 N   0  0  0  0  0  0  0  0  0  0  0  0
    0.0517    1.9733    0.7866 S   0  0  0  0  0  0  0  0  0  0  0  0
    2.4970   -2.0751   -0.6210 C   0  0  0  0  0  0  0  0  0  0  0  0
   -2.5472    0.3062    0.4698 N   0  0  0  0  0  0  0  0  0  0  0  0
    5.2109   -1.5408   -0.7064 S   0  0  0  0  0  0  0  0  0  0  0  0
   -3.8556   -0.2295    0.4201 C   0  0  0  0  0  0  0  0  0  0  0  0
    2.7054    3.2188    0.9043 S   0  0  0  0  0  0  0  0  0  0  0  0
   -4.8184    0.4163   -0.3612 C   0  0  0  0  0  0  0  0  0  0  0  0
    2.6250   -3.2299   -0.9682 O   0  0  0  0  0  0  0  0  0  0  0  0
   -1.4479   -1.5865   -0.1196 O   0  0  0  0  0  0  0  0  0  0  0  0
   -4.4464    1.6263   -1.1699 C   0  0  0  0  0  0  0  0  0  0  0  0
    4.7900    1.8862    0.3296 H   0  0  0  0  0  0  0  0  0  0  0  0
    6.7418    0.3029   -0.3066 H   0  0  0  0  0  0  0  0  0  0  0  0
   -3.4133   -1.8277    1.7878 H   0  0  0  0  0  0  0  0  0  0  0  0
   -5.7075   -2.7357    1.7221 H   0  0  0  0  0  0  0  0  0  0  0  0
   -7.4417   -1.5987    0.3873 H   0  0  0  0  0  0  0  0  0  0  0  0
   -2.4771    1.2977    0.6418 H   0  0  0  0  0  0  0  0  0  0  0  0
   -4.4618    2.5355   -0.5625 H   0  0  0  0  0  0  0  0  0  0  0  0
   -3.4459    1.5365   -1.5924 H   0  0  0  0  0  0  0  0  0  0  0  0
   -5.1333    1.7863   -1.9973 H   0  0  0  0  0  0  0  0  0  0  0  0
   -7.3225    1.6469   -0.8753 H   0  0  0  0  0  0  0  0  0  0  0  0
   -7.0200    0.5589   -2.2187 H   0  0  0  0  0  0  0  0  0  0  0  0
   -8.1779    0.1122   -0.9733 H   0  0  0  0  0  0  0  0  0  0  0  0
    0.4293   -2.0810   -0.4342 H   0  0  0  0  0  0  0  0  0  0  0  0
   -7.2170    0.5948   -1.1453 C   0  0  0  0  0  0  0  0  0  0  0  0
 18  3  1  0
 18 13  1  0
  3  2  2  0
 22 16  2  0
 13 16  1  0
 13 12  2  0
  2 12  1  0
 16 14  1  0
 12  8  1  0
 14  9  1  0
  8  9  1  0
  8 11  1  0
  9 10  2  0
 24 21  1  0
 11 20  2  0
 11 15  1  0
 10 15  1  0
 10  1  1  0
 38  4  1  0
 21  4  2  0
 21 19  1  0
 17  1  1  0
 17 19  1  0
  1 23  2  0
  4  7  1  0
 19  5  2  0
  7  6  2  0
  5  6  1  0
  2 25  1  0
  3 26  1  0
  5 27  1  0
  6 28  1  0
  7 29  1  0
 17 30  1  0
 24 31  1  0
 24 32  1  0
 24 33  1  0
 38 34  1  0
 38 35  1  0
 38 36  1  0
 14 37  1  0
M  END
