
     RDKit          3D

 26 25  0  0  0  0  0  0  0  0999 V2000
    0.2905   -0.4290    0.2088 C   0  0  2  0  0  0  0  0  0  0  0  0
    1.2738   -1.5229   -0.1807 C   0  0  0  0  0  0  0  0  0  0  0  0
    2.0363   -1.4614   -1.1089 O   0  0  0  0  0  0  0  0  0  0  0  0
    1.1579   -2.5773    0.6152 O   0  0  0  0  0  0  0  0  0  0  0  0
   -1.1173   -0.7947   -0.2743 C   0  0  0  0  0  0  0  0  0  0  0  0
   -2.1776    0.1935    0.1963 C   0  0  0  0  0  0  0  0  0  0  0  0
   -3.5739   -0.2191   -0.2454 C   0  0  0  0  0  0  0  0  0  0  0  0
   -4.5642    0.7462    0.2090 N   0  0  0  0  0  0  0  0  0  0  0  0
    0.7003    0.8346   -0.3368 N   0  0  0  0  0  0  0  0  0  0  0  0
    1.7949    1.4771    0.1094 C   0  0  0  0  0  0  0  0  0  0  0  0
    2.4689    1.0408    1.0325 O   0  0  0  0  0  0  0  0  0  0  0  0
    2.1215    2.7733   -0.5841 C   0  0  0  0  0  0  0  0  0  0  0  0
    0.2728   -0.3637    1.3005 H   0  0  0  0  0  0  0  0  0  0  0  0
    1.7495   -3.2868    0.3223 H   0  0  0  0  0  0  0  0  0  0  0  0
   -1.1207   -0.8649   -1.3670 H   0  0  0  0  0  0  0  0  0  0  0  0
   -1.3623   -1.7904    0.1011 H   0  0  0  0  0  0  0  0  0  0  0  0
   -2.1515    0.2670    1.2873 H   0  0  0  0  0  0  0  0  0  0  0  0
   -1.9622    1.1949   -0.1888 H   0  0  0  0  0  0  0  0  0  0  0  0
   -3.5749   -0.3679   -1.3352 H   0  0  0  0  0  0  0  0  0  0  0  0
   -3.8157   -1.1898    0.1956 H   0  0  0  0  0  0  0  0  0  0  0  0
   -4.4434    1.6124   -0.3022 H   0  0  0  0  0  0  0  0  0  0  0  0
   -5.4903    0.4170   -0.0323 H   0  0  0  0  0  0  0  0  0  0  0  0
    0.2276    1.1775   -1.1575 H   0  0  0  0  0  0  0  0  0  0  0  0
    3.1387    2.7313   -0.9725 H   0  0  0  0  0  0  0  0  0  0  0  0
    1.4468    3.0111   -1.4044 H   0  0  0  0  0  0  0  0  0  0  0  0
    2.0834    3.5873    0.1399 H   0  0  0  0  0  0  0  0  0  0  0  0
  1  2  1  0
  1  5  1  0
  1  9  1  0
  1 13  1  1
  2  3  2  0
  2  4  1  0
  4 14  1  0
  5  6  1  0
  5 15  1  0
  5 16  1  0
  6  7  1  0
  6 17  1  0
  6 18  1  0
  7  8  1  0
  7 19  1  0
  7 20  1  0
  8 21  1  0
  8 22  1  0
  9 10  1  0
  9 23  1  0
 10 11  2  0
 10 12  1  0
 12 24  1  0
 12 25  1  0
 12 26  1  0
M  END
