
     RDKit          3D

 78 80  0  0  0  0  0  0  0  0999 V2000
    3.5454   -0.2983   -0.1509 N   0  0  0  0  0  0  0  0  0  0  0  0
    2.2985   -0.8530   -0.6007 C   0  0  2  0  0  0  0  0  0  0  0  0
    9.6796    2.3869    0.4169 C   0  0  0  0  0  0  0  0  0  0  0  0
    8.5349    1.9824   -0.2576 C   0  0  0  0  0  0  0  0  0  0  0  0
    7.3586    2.7243   -0.1791 C   0  0  0  0  0  0  0  0  0  0  0  0
    7.3551    3.8836    0.5938 C   0  0  0  0  0  0  0  0  0  0  0  0
    8.4962    4.2920    1.2712 C   0  0  0  0  0  0  0  0  0  0  0  0
    9.6633    3.5433    1.1857 C   0  0  0  0  0  0  0  0  0  0  0  0
    6.1088    2.2609   -0.8751 C   0  0  0  0  0  0  0  0  0  0  0  0
    5.2608    1.3886    0.0474 C   0  0  0  0  0  0  0  0  0  0  0  0
    3.9988    0.8827   -0.6139 C   0  0  0  0  0  0  0  0  0  0  0  0
    5.2667   -4.4880    0.2022 C   0  0  1  0  0  0  0  0  0  0  0  0
    4.9385   -5.7769   -0.5519 C   0  0  0  0  0  0  0  0  0  0  0  0
    5.7626   -4.8389    1.6037 C   0  0  0  0  0  0  0  0  0  0  0  0
    6.3450   -3.6891   -0.5310 C   0  0  0  0  0  0  0  0  0  0  0  0
   -1.2361    0.5245   -0.5981 C   0  0  0  0  0  0  0  0  0  0  0  0
   -2.0675   -0.2984    0.3873 C   0  0  0  0  0  0  0  0  0  0  0  0
    1.1163    0.0034   -0.1378 C   0  0  0  0  0  0  0  0  0  0  0  0
    1.1744    0.6954    0.8641 O   0  0  0  0  0  0  0  0  0  0  0  0
    0.0239   -0.1082   -0.9074 N   0  0  0  0  0  0  0  0  0  0  0  0
   -3.3395    0.3244    0.6672 N   0  0  0  0  0  0  0  0  0  0  0  0
    3.4224    1.4901   -1.5030 O   0  0  0  0  0  0  0  0  0  0  0  0
    2.1476   -2.2753   -0.0596 C   0  0  0  0  0  0  0  0  0  0  0  0
   -4.4246    0.1465   -0.1046 C   0  0  0  0  0  0  0  0  0  0  0  0
   -5.6462    0.9158    0.2886 C   0  0  0  0  0  0  0  0  0  0  0  0
   -5.5807    2.1480    0.9338 C   0  0  0  0  0  0  0  0  0  0  0  0
   -6.7509    2.8194    1.2561 C   0  0  0  0  0  0  0  0  0  0  0  0
   -7.9832    2.2680    0.9439 C   0  0  0  0  0  0  0  0  0  0  0  0
   -8.0689    1.0354    0.2932 C   0  0  0  0  0  0  0  0  0  0  0  0
   -6.8866    0.3774   -0.0376 C   0  0  0  0  0  0  0  0  0  0  0  0
   -9.3806    0.4430   -0.0406 C   0  0  0  0  0  0  0  0  0  0  0  0
  -10.4693    0.5878    0.8211 C   0  0  0  0  0  0  0  0  0  0  0  0
  -11.7005    0.0291    0.5100 C   0  0  0  0  0  0  0  0  0  0  0  0
  -11.8662   -0.6865   -0.6686 C   0  0  0  0  0  0  0  0  0  0  0  0
  -10.7907   -0.8363   -1.5345 C   0  0  0  0  0  0  0  0  0  0  0  0
   -9.5601   -0.2767   -1.2236 C   0  0  0  0  0  0  0  0  0  0  0  0
   -4.4374   -0.6112   -1.0656 O   0  0  0  0  0  0  0  0  0  0  0  0
    3.2896   -3.1423   -0.5670 C   0  0  0  0  0  0  0  0  0  0  0  0
    4.0630   -3.6680    0.3918 N   0  0  0  0  0  0  0  0  0  0  0  0
    3.4640   -3.2973   -1.7676 O   0  0  0  0  0  0  0  0  0  0  0  0
    4.0000   -0.7111    0.6484 H   0  0  0  0  0  0  0  0  0  0  0  0
    2.3002   -0.8985   -1.6932 H   0  0  0  0  0  0  0  0  0  0  0  0
    8.5578    1.0801   -0.8583 H   0  0  0  0  0  0  0  0  0  0  0  0
    6.4493    4.4751    0.6629 H   0  0  0  0  0  0  0  0  0  0  0  0
    8.4747    5.1975    1.8644 H   0  0  0  0  0  0  0  0  0  0  0  0
   10.5541    3.8604    1.7128 H   0  0  0  0  0  0  0  0  0  0  0  0
    5.5250    3.1213   -1.2056 H   0  0  0  0  0  0  0  0  0  0  0  0
    6.3742    1.6943   -1.7704 H   0  0  0  0  0  0  0  0  0  0  0  0
    5.8524    0.5487    0.4207 H   0  0  0  0  0  0  0  0  0  0  0  0
    4.9639    1.9633    0.9312 H   0  0  0  0  0  0  0  0  0  0  0  0
    4.6302   -5.5826   -1.5770 H   0  0  0  0  0  0  0  0  0  0  0  0
    5.8197   -6.4191   -0.5822 H   0  0  0  0  0  0  0  0  0  0  0  0
    4.1405   -6.3265   -0.0498 H   0  0  0  0  0  0  0  0  0  0  0  0
    5.0148   -5.4090    2.1588 H   0  0  0  0  0  0  0  0  0  0  0  0
    6.6660   -5.4452    1.5409 H   0  0  0  0  0  0  0  0  0  0  0  0
    6.0050   -3.9409    2.1760 H   0  0  0  0  0  0  0  0  0  0  0  0
    6.5906   -2.7773    0.0161 H   0  0  0  0  0  0  0  0  0  0  0  0
    7.2556   -4.2839   -0.6163 H   0  0  0  0  0  0  0  0  0  0  0  0
    6.0289   -3.4114   -1.5348 H   0  0  0  0  0  0  0  0  0  0  0  0
   -1.7843    0.6482   -1.5312 H   0  0  0  0  0  0  0  0  0  0  0  0
   -1.0540    1.5196   -0.1917 H   0  0  0  0  0  0  0  0  0  0  0  0
   -2.2293   -1.3008   -0.0095 H   0  0  0  0  0  0  0  0  0  0  0  0
   -1.5305   -0.4016    1.3294 H   0  0  0  0  0  0  0  0  0  0  0  0
    0.0552   -0.7146   -1.7116 H   0  0  0  0  0  0  0  0  0  0  0  0
   -3.4001    0.9107    1.4830 H   0  0  0  0  0  0  0  0  0  0  0  0
    2.0921   -2.2579    1.0318 H   0  0  0  0  0  0  0  0  0  0  0  0
    1.2096   -2.7016   -0.4202 H   0  0  0  0  0  0  0  0  0  0  0  0
   -4.6282    2.6092    1.1629 H   0  0  0  0  0  0  0  0  0  0  0  0
   -6.7008    3.7847    1.7421 H   0  0  0  0  0  0  0  0  0  0  0  0
   -8.8860    2.8139    1.1871 H   0  0  0  0  0  0  0  0  0  0  0  0
   -6.9272   -0.5835   -0.5348 H   0  0  0  0  0  0  0  0  0  0  0  0
  -10.3536    1.1256    1.7542 H   0  0  0  0  0  0  0  0  0  0  0  0
  -12.5303    0.1480    1.1944 H   0  0  0  0  0  0  0  0  0  0  0  0
  -12.8260   -1.1242   -0.9106 H   0  0  0  0  0  0  0  0  0  0  0  0
  -10.9105   -1.3858   -2.4593 H   0  0  0  0  0  0  0  0  0  0  0  0
   -8.7377   -0.3866   -1.9194 H   0  0  0  0  0  0  0  0  0  0  0  0
    3.7990   -3.4790    1.3456 H   0  0  0  0  0  0  0  0  0  0  0  0
   10.5857    1.7995    0.3388 H   0  0  0  0  0  0  0  0  0  0  0  0
  3  8  2  0
  3  4  1  0
  8  7  1  0
  4  5  2  0
  7  6  2  0
  5  6  1  0
  5  9  1  0
  9 10  1  0
 10 11  1  0
 22 11  2  0
 11  1  1  0
 13 12  1  0
  1  2  1  0
 40 38  2  0
  2 23  1  0
  2 18  1  0
 12 39  1  1
 12 15  1  0
 12 14  1  0
 38 39  1  0
 38 23  1  0
 20 18  1  0
 20 16  1  0
 18 19  2  0
 16 17  1  0
 17 21  1  0
 21 24  1  0
 24 37  2  0
 24 25  1  0
 34 35  2  0
 34 33  1  0
 35 36  1  0
 30 25  1  0
 30 29  2  0
 33 32  2  0
 36 31  2  0
 25 26  2  0
 32 31  1  0
 31 29  1  0
 29 28  1  0
 26 27  1  0
 28 27  2  0
  1 41  1  0
  2 42  1  6
  3 78  1  0
  4 43  1  0
  6 44  1  0
  7 45  1  0
  8 46  1  0
  9 47  1  0
  9 48  1  0
 10 49  1  0
 10 50  1  0
 13 51  1  0
 13 52  1  0
 13 53  1  0
 14 54  1  0
 14 55  1  0
 14 56  1  0
 15 57  1  0
 15 58  1  0
 15 59  1  0
 16 60  1  0
 16 61  1  0
 17 62  1  0
 17 63  1  0
 20 64  1  0
 21 65  1  0
 23 66  1  0
 23 67  1  0
 26 68  1  0
 27 69  1  0
 28 70  1  0
 30 71  1  0
 32 72  1  0
 33 73  1  0
 34 74  1  0
 35 75  1  0
 36 76  1  0
 39 77  1  0
M  END
