
     RDKit          3D

120119  0  0  0  0  0  0  0  0999 V2000
    5.7726    9.4014    0.5969 O   0  0  0  0  0  0  0  0  0  0  0  0
    4.5207    6.9346    0.4999 N   0  0  0  0  0  0  0  0  0  0  0  0
    6.5140    8.2810    0.1687 C   0  0  0  0  0  0  0  0  0  0  0  0
    5.9415    7.0027    0.7692 C   0  0  1  0  0  0  0  0  0  0  0  0
    6.2598    6.8101    2.2633 C   0  0  1  0  0  0  0  0  0  0  0  0
    5.7849    7.8663    3.0719 O   0  0  0  0  0  0  0  0  0  0  0  0
    5.7576    5.4844    2.7527 C   0  0  0  0  0  0  0  0  0  0  0  0
    6.5321    4.4454    3.0425 C   0  0  0  0  0  0  0  0  0  0  0  0
    6.0209    3.1013    3.4515 C   0  0  0  0  0  0  0  0  0  0  0  0
    6.1440    2.0736    2.3247 C   0  0  0  0  0  0  0  0  0  0  0  0
    5.6553    0.6909    2.7364 C   0  0  0  0  0  0  0  0  0  0  0  0
    5.7482   -0.3423    1.6209 C   0  0  0  0  0  0  0  0  0  0  0  0
    5.2610   -1.7224    2.0448 C   0  0  0  0  0  0  0  0  0  0  0  0
    5.3420   -2.7635    0.9355 C   0  0  0  0  0  0  0  0  0  0  0  0
    4.8545   -4.1402    1.3694 C   0  0  0  0  0  0  0  0  0  0  0  0
    4.9290   -5.1867    0.2647 C   0  0  0  0  0  0  0  0  0  0  0  0
    4.4400   -6.5608    0.7052 C   0  0  0  0  0  0  0  0  0  0  0  0
    4.5110   -7.6111   -0.3961 C   0  0  0  0  0  0  0  0  0  0  0  0
    4.4726    4.8173   -0.2949 O   0  0  0  0  0  0  0  0  0  0  0  0
    2.4058    6.0235   -0.2327 C   0  0  0  0  0  0  0  0  0  0  0  0
    1.9486    5.5219   -1.5982 C   0  0  0  0  0  0  0  0  0  0  0  0
    0.4361    5.5850   -1.7633 C   0  0  0  0  0  0  0  0  0  0  0  0
   -0.0221    5.1080   -3.1356 C   0  0  0  0  0  0  0  0  0  0  0  0
   -1.5437    5.1094   -3.2966 C   0  0  0  0  0  0  0  0  0  0  0  0
   -1.9567    4.7188   -4.6827 C   0  0  0  0  0  0  0  0  0  0  0  0
   -2.4050    3.5309   -5.0864 C   0  0  0  0  0  0  0  0  0  0  0  0
   -2.6471    2.3130   -4.2511 C   0  0  0  0  0  0  0  0  0  0  0  0
   -4.0877    1.8131   -4.3616 C   0  0  0  0  0  0  0  0  0  0  0  0
   -4.3410    0.5458   -3.5555 C   0  0  0  0  0  0  0  0  0  0  0  0
   -5.7638    0.0214   -3.7012 C   0  0  0  0  0  0  0  0  0  0  0  0
   -6.0229   -1.2422   -2.8910 C   0  0  0  0  0  0  0  0  0  0  0  0
   -7.4444   -1.7781   -3.0712 C   0  0  0  0  0  0  0  0  0  0  0  0
   -7.6743   -3.0567   -2.3356 C   0  0  0  0  0  0  0  0  0  0  0  0
   -8.5972   -3.2453   -1.3873 C   0  0  0  0  0  0  0  0  0  0  0  0
   -8.7963   -4.5019   -0.6851 C   0  0  0  0  0  0  0  0  0  0  0  0
   -9.7260   -4.6992    0.2548 C   0  0  0  0  0  0  0  0  0  0  0  0
   -9.6596   -5.8467    2.4931 C   0  0  0  0  0  0  0  0  0  0  0  0
   -9.9422   -7.1326    3.2586 C   0  0  0  0  0  0  0  0  0  0  0  0
   -9.9358   -5.9794    0.9942 C   0  0  0  0  0  0  0  0  0  0  0  0
    5.9266   10.1169   -0.0257 H   0  0  0  0  0  0  0  0  0  0  0  0
    3.9919    7.7851    0.6148 H   0  0  0  0  0  0  0  0  0  0  0  0
    6.4798    8.1815   -0.9221 H   0  0  0  0  0  0  0  0  0  0  0  0
    7.5723    8.3599    0.4496 H   0  0  0  0  0  0  0  0  0  0  0  0
    6.4180    6.1708    0.2467 H   0  0  0  0  0  0  0  0  0  0  0  0
    7.3506    6.8308    2.3564 H   0  0  0  0  0  0  0  0  0  0  0  0
    4.8253    7.9022    2.9983 H   0  0  0  0  0  0  0  0  0  0  0  0
    4.6783    5.3809    2.8514 H   0  0  0  0  0  0  0  0  0  0  0  0
    7.6109    4.5428    2.9341 H   0  0  0  0  0  0  0  0  0  0  0  0
    6.5742    2.7421    4.3256 H   0  0  0  0  0  0  0  0  0  0  0  0
    4.9725    3.1804    3.7536 H   0  0  0  0  0  0  0  0  0  0  0  0
    5.5745    2.4303    1.4603 H   0  0  0  0  0  0  0  0  0  0  0  0
    7.1877    2.0102    1.9992 H   0  0  0  0  0  0  0  0  0  0  0  0
    6.2337    0.3457    3.6008 H   0  0  0  0  0  0  0  0  0  0  0  0
    4.6167    0.7617    3.0776 H   0  0  0  0  0  0  0  0  0  0  0  0
    5.1656   -0.0001    0.7582 H   0  0  0  0  0  0  0  0  0  0  0  0
    6.7856   -0.4134    1.2761 H   0  0  0  0  0  0  0  0  0  0  0  0
    5.8464   -2.0636    2.9061 H   0  0  0  0  0  0  0  0  0  0  0  0
    4.2256   -1.6478    2.3954 H   0  0  0  0  0  0  0  0  0  0  0  0
    4.7545   -2.4246    0.0748 H   0  0  0  0  0  0  0  0  0  0  0  0
    6.3768   -2.8392    0.5834 H   0  0  0  0  0  0  0  0  0  0  0  0
    5.4434   -4.4782    2.2297 H   0  0  0  0  0  0  0  0  0  0  0  0
    3.8209   -4.0621    1.7245 H   0  0  0  0  0  0  0  0  0  0  0  0
    4.3393   -4.8500   -0.5955 H   0  0  0  0  0  0  0  0  0  0  0  0
    5.9623   -5.2661   -0.0907 H   0  0  0  0  0  0  0  0  0  0  0  0
    5.0301   -6.8966    1.5655 H   0  0  0  0  0  0  0  0  0  0  0  0
    3.4072   -6.4798    1.0620 H   0  0  0  0  0  0  0  0  0  0  0  0
    3.9208   -7.2760   -1.2566 H   0  0  0  0  0  0  0  0  0  0  0  0
    5.5438   -7.6931   -0.7528 H   0  0  0  0  0  0  0  0  0  0  0  0
    1.9047    5.4480    0.5528 H   0  0  0  0  0  0  0  0  0  0  0  0
    2.0985    7.0627   -0.0931 H   0  0  0  0  0  0  0  0  0  0  0  0
    2.4268    6.1155   -2.3837 H   0  0  0  0  0  0  0  0  0  0  0  0
    2.2857    4.4925   -1.7398 H   0  0  0  0  0  0  0  0  0  0  0  0
   -0.0381    4.9752   -0.9865 H   0  0  0  0  0  0  0  0  0  0  0  0
    0.0882    6.6107   -1.5998 H   0  0  0  0  0  0  0  0  0  0  0  0
    0.4278    5.7391   -3.9091 H   0  0  0  0  0  0  0  0  0  0  0  0
    0.3502    4.0946   -3.3158 H   0  0  0  0  0  0  0  0  0  0  0  0
   -1.9851    4.4461   -2.5493 H   0  0  0  0  0  0  0  0  0  0  0  0
   -1.9233    6.1131   -3.0793 H   0  0  0  0  0  0  0  0  0  0  0  0
   -1.8338    5.4907   -5.4378 H   0  0  0  0  0  0  0  0  0  0  0  0
   -2.6330    3.4128   -6.1433 H   0  0  0  0  0  0  0  0  0  0  0  0
   -1.9754    1.5140   -4.5866 H   0  0  0  0  0  0  0  0  0  0  0  0
   -2.4004    2.4959   -3.2024 H   0  0  0  0  0  0  0  0  0  0  0  0
   -4.7704    2.6020   -4.0299 H   0  0  0  0  0  0  0  0  0  0  0  0
   -4.3254    1.6283   -5.4150 H   0  0  0  0  0  0  0  0  0  0  0  0
   -3.6354   -0.2318   -3.8690 H   0  0  0  0  0  0  0  0  0  0  0  0
   -4.1290    0.7383   -2.4981 H   0  0  0  0  0  0  0  0  0  0  0  0
   -6.4724    0.8001   -3.3979 H   0  0  0  0  0  0  0  0  0  0  0  0
   -5.9689   -0.1784   -4.7588 H   0  0  0  0  0  0  0  0  0  0  0  0
   -5.3055   -2.0167   -3.1832 H   0  0  0  0  0  0  0  0  0  0  0  0
   -5.8419   -1.0439   -1.8299 H   0  0  0  0  0  0  0  0  0  0  0  0
   -8.1690   -1.0236   -2.7505 H   0  0  0  0  0  0  0  0  0  0  0  0
   -7.6183   -1.9412   -4.1414 H   0  0  0  0  0  0  0  0  0  0  0  0
   -7.0211   -3.8861   -2.6012 H   0  0  0  0  0  0  0  0  0  0  0  0
   -9.2536   -2.4215   -1.1146 H   0  0  0  0  0  0  0  0  0  0  0  0
   -8.1384   -5.3243   -0.9582 H   0  0  0  0  0  0  0  0  0  0  0  0
  -10.3793   -3.8724    0.5276 H   0  0  0  0  0  0  0  0  0  0  0  0
  -10.2672   -5.0344    2.9060 H   0  0  0  0  0  0  0  0  0  0  0  0
   -8.6159   -5.5511    2.6402 H   0  0  0  0  0  0  0  0  0  0  0  0
  -10.9898   -7.4190    3.1127 H   0  0  0  0  0  0  0  0  0  0  0  0
   -9.3455   -7.9479    2.8340 H   0  0  0  0  0  0  0  0  0  0  0  0
   -9.6537   -7.0205    4.7503 C   0  0  0  0  0  0  0  0  0  0  0  0
  -10.9720   -6.3103    0.8596 H   0  0  0  0  0  0  0  0  0  0  0  0
   -9.3009   -6.7643    0.5726 H   0  0  0  0  0  0  0  0  0  0  0  0
   -9.9452   -8.3092    5.5063 C   0  0  0  0  0  0  0  0  0  0  0  0
    4.0208   -8.9833    0.0486 C   0  0  0  0  0  0  0  0  0  0  0  0
    4.0907  -10.0372   -1.0497 C   0  0  0  0  0  0  0  0  0  0  0  0
    3.5972  -11.4032   -0.5932 C   0  0  0  0  0  0  0  0  0  0  0  0
  -10.9961   -8.5910    5.4150 H   0  0  0  0  0  0  0  0  0  0  0  0
   -9.3494   -9.1372    5.1170 H   0  0  0  0  0  0  0  0  0  0  0  0
   -9.7207   -8.2117    6.5690 H   0  0  0  0  0  0  0  0  0  0  0  0
    4.6104   -9.3177    0.9098 H   0  0  0  0  0  0  0  0  0  0  0  0
    2.9879   -8.9013    0.4052 H   0  0  0  0  0  0  0  0  0  0  0  0
    3.5025   -9.7025   -1.9101 H   0  0  0  0  0  0  0  0  0  0  0  0
    5.1225  -10.1213   -1.4046 H   0  0  0  0  0  0  0  0  0  0  0  0
    4.1863  -11.7728    0.2483 H   0  0  0  0  0  0  0  0  0  0  0  0
    2.5555  -11.3593   -0.2696 H   0  0  0  0  0  0  0  0  0  0  0  0
    3.6639  -12.1423   -1.3922 H   0  0  0  0  0  0  0  0  0  0  0  0
   -8.6061   -6.7388    4.8946 H   0  0  0  0  0  0  0  0  0  0  0  0
  -10.2469   -6.2035    5.1727 H   0  0  0  0  0  0  0  0  0  0  0  0
    3.8959    5.8607   -0.0224 C   0  0  0  0  0  0  0  0  0  0  0  0
  1  3  1  0
  1 40  1  0
  2  4  1  0
  2120  1  0
  2 41  1  0
  3  4  1  0
  3 42  1  0
  3 43  1  0
  4  5  1  0
  4 44  1  6
  5  6  1  0
  5  7  1  0
  5 45  1  6
  6 46  1  0
  7  8  2  0
  7 47  1  0
  8  9  1  0
  8 48  1  0
  9 10  1  0
  9 49  1  0
  9 50  1  0
 10 11  1  0
 10 51  1  0
 10 52  1  0
 11 12  1  0
 11 53  1  0
 11 54  1  0
 12 13  1  0
 12 55  1  0
 12 56  1  0
 13 14  1  0
 13 57  1  0
 13 58  1  0
 14 15  1  0
 14 59  1  0
 14 60  1  0
 15 16  1  0
 15 61  1  0
 15 62  1  0
 16 17  1  0
 16 63  1  0
 16 64  1  0
 17 18  1  0
 17 65  1  0
 17 66  1  0
 18 67  1  0
 18 68  1  0
 18105  1  0
 19120  2  0
120 20  1  0
 20 21  1  0
 20 69  1  0
 20 70  1  0
 21 22  1  0
 21 71  1  0
 21 72  1  0
 22 23  1  0
 22 73  1  0
 22 74  1  0
 23 24  1  0
 23 75  1  0
 23 76  1  0
 24 25  1  0
 24 77  1  0
 24 78  1  0
 25 26  2  0
 25 79  1  0
 26 27  1  0
 26 80  1  0
 27 28  1  0
 27 81  1  0
 27 82  1  0
 28 29  1  0
 28 83  1  0
 28 84  1  0
 29 30  1  0
 29 85  1  0
 29 86  1  0
 30 31  1  0
 30 87  1  0
 30 88  1  0
 31 32  1  0
 31 89  1  0
 31 90  1  0
 32 33  1  0
 32 91  1  0
 32 92  1  0
 33 34  2  0
 33 93  1  0
 34 35  1  0
 34 94  1  0
 35 36  2  0
 35 95  1  0
 36 39  1  0
 36 96  1  0
 37 38  1  0
 37 39  1  0
 37 97  1  0
 37 98  1  0
 38101  1  0
 38 99  1  0
 38100  1  0
101104  1  0
 39102  1  0
 39103  1  0
104108  1  0
104109  1  0
104110  1  0
105106  1  0
105111  1  0
105112  1  0
106107  1  0
106113  1  0
106114  1  0
107115  1  0
107116  1  0
107117  1  0
101118  1  0
101119  1  0
M  END
