
     RDKit          3D

 43 46  0  0  0  0  0  0  0  0999 V2000
    3.3203   -2.9419   -1.1399 C   0  0  0  0  0  0  0  0  0  0  0  0
    4.0498   -1.4871    0.6792 C   0  0  0  0  0  0  0  0  0  0  0  0
    4.2072   -0.1257    0.0285 C   0  0  0  0  0  0  0  0  0  0  0  0
    2.8961    0.6039    0.0762 C   0  0  0  0  0  0  0  0  0  0  0  0
   -4.7135    1.3506    0.4120 C   0  0  0  0  0  0  0  0  0  0  0  0
   -3.2136   -0.4819    0.1965 C   0  0  0  0  0  0  0  0  0  0  0  0
   -2.0929    0.3085    0.2273 C   0  0  0  0  0  0  0  0  0  0  0  0
   -0.7910   -0.2335    0.0990 C   0  0  0  0  0  0  0  0  0  0  0  0
   -0.6885   -1.6377   -0.0104 C   0  0  0  0  0  0  0  0  0  0  0  0
    0.5804   -2.2756   -0.0222 C   0  0  0  0  0  0  0  0  0  0  0  0
    1.7348   -1.5676    0.0558 C   0  0  0  0  0  0  0  0  0  0  0  0
    2.9665   -2.2454    0.0860 N   0  0  0  0  0  0  0  0  0  0  0  0
    2.8735    1.9763    0.0916 C   0  0  0  0  0  0  0  0  0  0  0  0
    1.6593    2.6629    0.0773 C   0  0  0  0  0  0  0  0  0  0  0  0
    0.4596    1.9670    0.0611 C   0  0  0  0  0  0  0  0  0  0  0  0
   -0.6751    2.7230    0.0017 O   0  0  0  0  0  0  0  0  0  0  0  0
   -1.0762    3.0558   -1.3223 C   0  0  0  0  0  0  0  0  0  0  0  0
    0.4324    0.5530    0.0912 C   0  0  0  0  0  0  0  0  0  0  0  0
    1.6871   -0.1260    0.0907 C   0  0  0  0  0  0  0  0  0  0  0  0
    1.5984    4.0074    0.0676 O   0  0  0  0  0  0  0  0  0  0  0  0
   -1.8503   -2.4352   -0.0482 C   0  0  0  0  0  0  0  0  0  0  0  0
   -3.0995   -1.8840    0.0407 C   0  0  0  0  0  0  0  0  0  0  0  0
   -4.1898   -2.6700   -0.0039 O   0  0  0  0  0  0  0  0  0  0  0  0
    4.1917   -3.5716   -0.9604 H   0  0  0  0  0  0  0  0  0  0  0  0
    2.5050   -3.5911   -1.4532 H   0  0  0  0  0  0  0  0  0  0  0  0
    3.5517   -2.2694   -1.9760 H   0  0  0  0  0  0  0  0  0  0  0  0
    4.9668   -2.0722    0.6025 H   0  0  0  0  0  0  0  0  0  0  0  0
    3.8458   -1.3567    1.7463 H   0  0  0  0  0  0  0  0  0  0  0  0
    4.9830    0.4552    0.5310 H   0  0  0  0  0  0  0  0  0  0  0  0
    4.5302   -0.2402   -1.0120 H   0  0  0  0  0  0  0  0  0  0  0  0
   -5.7904    1.4851    0.4689 H   0  0  0  0  0  0  0  0  0  0  0  0
   -4.2567    1.7699    1.3119 H   0  0  0  0  0  0  0  0  0  0  0  0
   -4.3351    1.8882   -0.4620 H   0  0  0  0  0  0  0  0  0  0  0  0
   -2.2112    1.3662    0.3822 H   0  0  0  0  0  0  0  0  0  0  0  0
    0.6151   -3.3586   -0.0537 H   0  0  0  0  0  0  0  0  0  0  0  0
    3.8050    2.5336    0.0992 H   0  0  0  0  0  0  0  0  0  0  0  0
   -0.3009    3.6137   -1.8519 H   0  0  0  0  0  0  0  0  0  0  0  0
   -1.3280    2.1644   -1.9032 H   0  0  0  0  0  0  0  0  0  0  0  0
   -1.9629    3.6825   -1.2423 H   0  0  0  0  0  0  0  0  0  0  0  0
    2.4884    4.3756    0.0430 H   0  0  0  0  0  0  0  0  0  0  0  0
   -1.7485   -3.5100   -0.1414 H   0  0  0  0  0  0  0  0  0  0  0  0
   -4.9894   -2.1338    0.0656 H   0  0  0  0  0  0  0  0  0  0  0  0
   -4.4854   -0.0398    0.3072 O   0  0  0  0  0  0  0  0  0  0  0  0
  2  3  1  0
  2 12  1  0
  1 12  1  0
  3  4  1  0
 12 11  1  0
  4 13  2  0
  4 19  1  0
 11 19  2  0
 11 10  1  0
 13 14  1  0
 19 18  1  0
 10  9  2  0
 14 20  1  0
 14 15  2  0
 18 15  1  0
 18  8  2  0
  9  8  1  0
  9 21  1  0
 15 16  1  0
  8  7  1  0
 21 22  2  0
 16 17  1  0
  7  6  2  0
 22  6  1  0
 22 23  1  0
  6 43  1  0
 43  5  1  0
  1 24  1  0
  1 25  1  0
  1 26  1  0
  2 27  1  0
  2 28  1  0
  3 29  1  0
  3 30  1  0
  5 31  1  0
  5 32  1  0
  5 33  1  0
  7 34  1  0
 10 35  1  0
 13 36  1  0
 17 37  1  0
 17 38  1  0
 17 39  1  0
 20 40  1  0
 21 41  1  0
 23 42  1  0
M  END
