
     RDKit          3D

 13 12  0  0  0  0  0  0  0  0999 V2000
   -0.6658   -0.2699   -0.7225 C   0  0  0  0  0  0  0  0  0  0  0  0
    0.0092    0.3249    0.5015 C   0  0  1  0  0  0  0  0  0  0  0  0
   -0.7624   -0.0376    1.7621 C   0  0  0  0  0  0  0  0  0  0  0  0
   -0.0020    0.1645   -1.8856 O   0  0  0  0  0  0  0  0  0  0  0  0
    1.3706   -0.0456    0.5894 O   0  0  0  0  0  0  0  0  0  0  0  0
   -0.6589   -1.3672   -0.6370 H   0  0  0  0  0  0  0  0  0  0  0  0
   -1.7200    0.0370   -0.7182 H   0  0  0  0  0  0  0  0  0  0  0  0
    0.0125    1.4145    0.3939 H   0  0  0  0  0  0  0  0  0  0  0  0
   -0.2958    0.4032    2.6431 H   0  0  0  0  0  0  0  0  0  0  0  0
   -1.7896    0.3251    1.7118 H   0  0  0  0  0  0  0  0  0  0  0  0
   -0.8001   -1.1205    1.9062 H   0  0  0  0  0  0  0  0  0  0  0  0
   -0.4477   -0.2218   -2.6444 H   0  0  0  0  0  0  0  0  0  0  0  0
    1.4154   -1.0003    0.7110 H   0  0  0  0  0  0  0  0  0  0  0  0
  1  2  1  0
  1  4  1  0
  1  6  1  0
  1  7  1  0
  2  3  1  0
  2  5  1  0
  2  8  1  6
  3  9  1  0
  3 10  1  0
  3 11  1  0
  4 12  1  0
  5 13  1  0
M  END
