
     RDKit          3D

 37 37  0  0  0  0  0  0  0  0999 V2000
   -3.9797   -1.7189    0.8280 C   0  0  0  0  0  0  0  0  0  0  0  0
   -2.3604   -0.2997   -0.2355 N   0  0  0  0  0  0  0  0  0  0  0  0
   -4.0277   -0.9654    1.7627 O   0  0  0  0  0  0  0  0  0  0  0  0
    4.2438   -1.3177   -0.0155 P   0  0  1  0  0  0  0  0  0  0  0  0
    1.0453    3.3190    0.1203 N   0  0  0  0  0  0  0  0  0  0  0  0
   -0.2707    3.3438    0.1040 C   0  0  0  0  0  0  0  0  0  0  0  0
   -1.0174    2.1526   -0.0035 C   0  0  0  0  0  0  0  0  0  0  0  0
   -2.3406    2.2403   -0.0123 O   0  0  0  0  0  0  0  0  0  0  0  0
   -0.3368    0.9321   -0.0982 C   0  0  0  0  0  0  0  0  0  0  0  0
    1.0690    0.9404   -0.0785 C   0  0  0  0  0  0  0  0  0  0  0  0
    1.7033    2.1602    0.0330 C   0  0  0  0  0  0  0  0  0  0  0  0
   -3.0822   -1.5332   -0.3845 C   0  0  2  0  0  0  0  0  0  0  0  0
   -3.9115   -1.4972   -1.6644 C   0  0  0  0  0  0  0  0  0  0  0  0
   -4.9040   -0.5169   -1.5073 O   0  0  0  0  0  0  0  0  0  0  0  0
    4.0672   -1.9168    1.4552 O   0  0  0  0  0  0  0  0  0  0  0  0
    5.5757   -0.4472   -0.0405 O   0  0  0  0  0  0  0  0  0  0  0  0
    4.0973   -2.3948   -1.0107 O   0  0  0  0  0  0  0  0  0  0  0  0
   -1.0910   -0.3126   -0.2150 C   0  0  0  0  0  0  0  0  0  0  0  0
    3.2216   -0.0927   -0.1380 O   0  0  0  0  0  0  0  0  0  0  0  0
    1.8259   -0.3536   -0.1945 C   0  0  0  0  0  0  0  0  0  0  0  0
   -4.6874   -2.8341    0.7332 O   0  0  0  0  0  0  0  0  0  0  0  0
   -2.7027    1.3115   -0.1023 H   0  0  0  0  0  0  0  0  0  0  0  0
    2.7825    2.2300    0.0532 H   0  0  0  0  0  0  0  0  0  0  0  0
   -2.4069   -2.3988   -0.4445 H   0  0  0  0  0  0  0  0  0  0  0  0
   -3.2361   -1.2792   -2.5002 H   0  0  0  0  0  0  0  0  0  0  0  0
   -4.3303   -2.4933   -1.8411 H   0  0  0  0  0  0  0  0  0  0  0  0
   -5.4451   -0.5013   -2.3021 H   0  0  0  0  0  0  0  0  0  0  0  0
    4.2115   -1.2978    2.1839 H   0  0  0  0  0  0  0  0  0  0  0  0
   -1.6279    4.8336   -0.6515 H   0  0  0  0  0  0  0  0  0  0  0  0
   -1.5977    4.7144    1.0976 H   0  0  0  0  0  0  0  0  0  0  0  0
   -0.2443    5.4681    0.2475 H   0  0  0  0  0  0  0  0  0  0  0  0
    6.3861   -0.9702   -0.1098 H   0  0  0  0  0  0  0  0  0  0  0  0
   -0.5363   -1.2501   -0.2875 H   0  0  0  0  0  0  0  0  0  0  0  0
    1.5337   -1.0300    0.6153 H   0  0  0  0  0  0  0  0  0  0  0  0
    1.5792   -0.8462   -1.1396 H   0  0  0  0  0  0  0  0  0  0  0  0
   -5.2496   -2.9403    1.5154 H   0  0  0  0  0  0  0  0  0  0  0  0
   -0.9726    4.6615    0.2041 C   0  0  0  0  0  0  0  0  0  0  0  0
  3  1  2  0
 21  1  1  0
  1 12  1  0
  8  7  1  0
 12  2  1  0
 12 13  1  0
 37  6  1  0
  2 18  2  0
  7  6  1  0
  7  9  2  0
 13 14  1  0
  6  5  2  0
 18  9  1  0
  9 10  1  0
  5 11  1  0
 10 11  2  0
 10 20  1  0
 20 19  1  0
  4 19  1  6
 17  4  2  0
  4 16  1  0
  4 15  1  0
  8 22  1  0
 11 23  1  0
 12 24  1  6
 13 25  1  0
 13 26  1  0
 14 27  1  0
 15 28  1  0
 37 29  1  0
 37 30  1  0
 37 31  1  0
 16 32  1  0
 18 33  1  0
 20 34  1  0
 20 35  1  0
 21 36  1  0
M  END
