
     RDKit          3D

 43 46  0  0  0  0  0  0  0  0999 V2000
   -5.9261    1.0668   -0.1516 N   0  0  0  0  0  0  0  0  0  0  0  0
   -5.4316   -0.1411   -0.4166 C   0  0  0  0  0  0  0  0  0  0  0  0
   -3.1944    0.4663    0.1749 C   0  0  0  0  0  0  0  0  0  0  0  0
   -5.0902   -2.1307   -0.9363 C   0  0  0  0  0  0  0  0  0  0  0  0
   -0.0831   -1.3281    1.5220 C   0  0  2  0  0  0  0  0  0  0  0  0
    3.4494    0.9498    0.0604 C   0  0  0  0  0  0  0  0  0  0  0  0
    4.8055    0.7133    0.1955 C   0  0  0  0  0  0  0  0  0  0  0  0
    4.6263   -1.2157   -1.2382 C   0  0  0  0  0  0  0  0  0  0  0  0
    3.2644   -0.9887   -1.3559 C   0  0  0  0  0  0  0  0  0  0  0  0
    2.6718    0.0883   -0.7046 C   0  0  0  0  0  0  0  0  0  0  0  0
    5.3820   -0.3659   -0.4571 C   0  0  0  0  0  0  0  0  0  0  0  0
   -3.6989    1.7041    0.4431 C   0  0  0  0  0  0  0  0  0  0  0  0
   -5.0804    1.9775    0.2688 C   0  0  0  0  0  0  0  0  0  0  0  0
   -1.5476   -0.9693    1.4225 C   0  0  0  0  0  0  0  0  0  0  0  0
   -1.0809   -0.3154   -0.9723 C   0  0  0  0  0  0  0  0  0  0  0  0
    0.5343   -1.6923    0.1810 C   0  0  0  0  0  0  0  0  0  0  0  0
   -1.7524    0.1089    0.3457 C   0  0  1  0  0  0  0  0  0  0  0  0
   -6.0664   -1.2172   -0.8479 N   0  0  0  0  0  0  0  0  0  0  0  0
   -3.8838   -1.7267   -0.5960 N   0  0  0  0  0  0  0  0  0  0  0  0
   -4.0994   -0.4464   -0.2615 N   0  0  0  0  0  0  0  0  0  0  0  0
    0.3261   -0.5875   -0.7344 N   0  0  0  0  0  0  0  0  0  0  0  0
    0.9041    1.5447   -1.2342 O   0  0  0  0  0  0  0  0  0  0  0  0
    6.6899   -0.5764   -0.3237 F   0  0  0  0  0  0  0  0  0  0  0  0
    0.0895   -2.3611    2.3932 F   0  0  0  0  0  0  0  0  0  0  0  0
   -5.2607   -3.1446   -1.2661 H   0  0  0  0  0  0  0  0  0  0  0  0
    3.0037    1.7997    0.5596 H   0  0  0  0  0  0  0  0  0  0  0  0
    5.1001   -2.0445   -1.7469 H   0  0  0  0  0  0  0  0  0  0  0  0
    2.6701   -1.6518   -1.9709 H   0  0  0  0  0  0  0  0  0  0  0  0
   -3.0359    2.4811    0.7958 H   0  0  0  0  0  0  0  0  0  0  0  0
   -2.0970   -1.8742    1.1583 H   0  0  0  0  0  0  0  0  0  0  0  0
   -1.9143   -0.6222    2.3905 H   0  0  0  0  0  0  0  0  0  0  0  0
   -1.5363   -1.2274   -1.3593 H   0  0  0  0  0  0  0  0  0  0  0  0
   -1.1863    0.4592   -1.7271 H   0  0  0  0  0  0  0  0  0  0  0  0
    1.5897   -1.9224    0.3105 H   0  0  0  0  0  0  0  0  0  0  0  0
    0.0466   -2.5855   -0.2141 H   0  0  0  0  0  0  0  0  0  0  0  0
   -1.2668    1.0304    0.6773 H   0  0  0  0  0  0  0  0  0  0  0  0
   -5.5982    3.3490    0.5496 C   0  0  0  0  0  0  0  0  0  0  0  0
    0.6192   -0.2726    2.0441 F   0  0  0  0  0  0  0  0  0  0  0  0
    1.2271    0.4197   -0.8952 C   0  0  0  0  0  0  0  0  0  0  0  0
    5.7925    1.7442    1.1571 Cl  0  0  0  0  0  0  0  0  0  0  0  0
   -5.3838    4.0059   -0.2962 H   0  0  0  0  0  0  0  0  0  0  0  0
   -6.6746    3.3363    0.7032 H   0  0  0  0  0  0  0  0  0  0  0  0
   -5.1143    3.7826    1.4236 H   0  0  0  0  0  0  0  0  0  0  0  0
  5 24  1  1
 16  5  1  0
 16 21  1  0
 22 39  2  0
  5 38  1  0
  5 14  1  0
 39 21  1  0
 39 10  1  0
 21 15  1  0
 14 17  1  0
  9 10  1  0
  9  8  2  0
 15 17  1  0
 10  6  2  0
 17  3  1  0
  8 11  1  0
  6  7  1  0
 12  3  2  0
 12 13  1  0
  3 20  1  0
 11  7  2  0
 11 23  1  0
  7 40  1  0
 37 13  1  0
 13  1  2  0
 20 19  1  0
 20  2  1  0
 19  4  2  0
  1  2  1  0
  2 18  2  0
  4 18  1  0
  4 25  1  0
 37 41  1  0
 37 42  1  0
 37 43  1  0
  6 26  1  0
  8 27  1  0
  9 28  1  0
 12 29  1  0
 14 30  1  0
 14 31  1  0
 15 32  1  0
 15 33  1  0
 16 34  1  0
 16 35  1  0
 17 36  1  1
M  END
