
     RDKit          3D

 59 63  0  0  0  0  0  0  0  0999 V2000
    4.8066   -4.0814   -0.5260 C   0  0  0  0  0  0  0  0  0  0  0  0
   -8.2242   -1.4839   -1.4441 F   0  0  0  0  0  0  0  0  0  0  0  0
    6.7542   -5.0858    0.4660 N   0  0  0  0  0  0  0  0  0  0  0  0
    0.8709   -1.3768    1.3891 O   0  0  0  0  0  0  0  0  0  0  0  0
    5.7142   -5.1157   -0.3576 C   0  0  0  0  0  0  0  0  0  0  0  0
   -1.5418   -2.8218    0.8423 F   0  0  0  0  0  0  0  0  0  0  0  0
    6.9194   -3.9713    1.1723 C   0  0  0  0  0  0  0  0  0  0  0  0
    2.5096   -0.1652   -0.4631 C   0  0  1  0  0  0  0  0  0  0  0  0
    1.0756   -0.1751   -0.4998 N   0  0  0  0  0  0  0  0  0  0  0  0
    6.0823   -2.8763    1.0904 C   0  0  0  0  0  0  0  0  0  0  0  0
    1.3596    3.9233   -2.0664 N   0  0  0  0  0  0  0  0  0  0  0  0
    4.9912   -2.9173    0.2197 C   0  0  0  0  0  0  0  0  0  0  0  0
    3.0567   -1.5871   -0.5807 C   0  0  0  0  0  0  0  0  0  0  0  0
   -1.1189   -0.5601    0.3599 C   0  0  0  0  0  0  0  0  0  0  0  0
   -1.6534    0.6945    0.0736 C   0  0  0  0  0  0  0  0  0  0  0  0
   -3.0205    0.9007    0.0283 C   0  0  0  0  0  0  0  0  0  0  0  0
   -3.8970   -0.1593    0.2539 C   0  0  0  0  0  0  0  0  0  0  0  0
   -5.3603    0.0208    0.1722 C   0  0  0  0  0  0  0  0  0  0  0  0
   -6.0185    1.0258    0.8701 C   0  0  0  0  0  0  0  0  0  0  0  0
   -7.3861    1.2022    0.8041 C   0  0  0  0  0  0  0  0  0  0  0  0
   -8.1445    0.3508    0.0155 C   0  0  0  0  0  0  0  0  0  0  0  0
   -7.5001   -0.6566   -0.6758 C   0  0  0  0  0  0  0  0  0  0  0  0
   -6.1340   -0.8368   -0.6087 C   0  0  0  0  0  0  0  0  0  0  0  0
   -3.3780   -1.4216    0.5298 C   0  0  0  0  0  0  0  0  0  0  0  0
   -2.0110   -1.5976    0.5856 C   0  0  0  0  0  0  0  0  0  0  0  0
    3.0529    0.6811   -1.6286 C   0  0  0  0  0  0  0  0  0  0  0  0
    2.5394    2.0797   -1.5924 C   0  0  0  0  0  0  0  0  0  0  0  0
    1.6226    2.6373   -2.4402 C   0  0  0  0  0  0  0  0  0  0  0  0
    2.0980    4.2340   -0.9623 C   0  0  0  0  0  0  0  0  0  0  0  0
    2.1742    5.4156   -0.2262 C   0  0  0  0  0  0  0  0  0  0  0  0
    3.0303    5.4366    0.8580 C   0  0  0  0  0  0  0  0  0  0  0  0
    3.7966    4.3118    1.2064 C   0  0  0  0  0  0  0  0  0  0  0  0
    3.7188    3.1435    0.4740 C   0  0  0  0  0  0  0  0  0  0  0  0
    2.8589    3.0916   -0.6291 C   0  0  0  0  0  0  0  0  0  0  0  0
   -5.3047    1.8452    1.6562 F   0  0  0  0  0  0  0  0  0  0  0  0
    4.4549   -1.0391    0.7706 H   0  0  0  0  0  0  0  0  0  0  0  0
    2.8392    0.2777    0.4829 H   0  0  0  0  0  0  0  0  0  0  0  0
    3.9924   -4.2004   -1.2201 H   0  0  0  0  0  0  0  0  0  0  0  0
    6.2805   -2.0006    1.6956 H   0  0  0  0  0  0  0  0  0  0  0  0
    5.5792   -6.0250   -0.9331 H   0  0  0  0  0  0  0  0  0  0  0  0
    7.7685   -3.9421    1.8457 H   0  0  0  0  0  0  0  0  0  0  0  0
    4.1447    0.6648   -1.5807 H   0  0  0  0  0  0  0  0  0  0  0  0
    2.7741    0.2058   -2.5723 H   0  0  0  0  0  0  0  0  0  0  0  0
    0.6087    0.2505   -1.2854 H   0  0  0  0  0  0  0  0  0  0  0  0
    1.1370    2.2052   -3.3018 H   0  0  0  0  0  0  0  0  0  0  0  0
    4.3200    2.2851    0.7506 H   0  0  0  0  0  0  0  0  0  0  0  0
    4.4570    4.3655    2.0620 H   0  0  0  0  0  0  0  0  0  0  0  0
    3.1137    6.3386    1.4504 H   0  0  0  0  0  0  0  0  0  0  0  0
    1.5858    6.2846   -0.4926 H   0  0  0  0  0  0  0  0  0  0  0  0
    0.7186    4.5390   -2.5376 H   0  0  0  0  0  0  0  0  0  0  0  0
   -0.9903    1.5333   -0.0961 H   0  0  0  0  0  0  0  0  0  0  0  0
   -4.0325   -2.2651    0.7100 H   0  0  0  0  0  0  0  0  0  0  0  0
   -3.3974    1.8853   -0.2104 H   0  0  0  0  0  0  0  0  0  0  0  0
   -5.6638   -1.6305   -1.1752 H   0  0  0  0  0  0  0  0  0  0  0  0
   -9.2167    0.4741   -0.0556 H   0  0  0  0  0  0  0  0  0  0  0  0
   -7.8586    1.9959    1.3671 H   0  0  0  0  0  0  0  0  0  0  0  0
    4.1775   -1.7950    0.1614 N   0  0  0  0  0  0  0  0  0  0  0  0
    0.3559   -0.7600    0.4708 C   0  0  0  0  0  0  0  0  0  0  0  0
    2.5531   -2.4072   -1.3165 O   0  0  0  0  0  0  0  0  0  0  0  0
 59 13  2  0
 13 57  1  0
 13  8  1  0
 57 12  1  0
 12  1  2  0
 12 10  1  0
  1  5  1  0
  5  3  2  0
  3  7  1  0
  7 10  2  0
  8 26  1  0
  8  9  1  0
 26 27  1  0
 27 34  1  0
 27 28  2  0
 34 33  1  0
 34 29  2  0
 33 32  2  0
 32 31  1  0
 31 30  2  0
 30 29  1  0
 29 11  1  0
 11 28  1  0
  9 58  1  0
 58  4  2  0
 58 14  1  0
 14 25  1  0
 14 15  2  0
 25  6  1  0
 25 24  2  0
 24 17  1  0
 17 16  2  0
 17 18  1  0
 16 15  1  0
 18 23  1  0
 18 19  2  0
 23 22  2  0
 22  2  1  0
 22 21  1  0
 21 20  2  0
 20 19  1  0
 19 35  1  0
 57 36  1  0
  8 37  1  1
  1 38  1  0
 10 39  1  0
  5 40  1  0
  7 41  1  0
 26 42  1  0
 26 43  1  0
  9 44  1  0
 28 45  1  0
 33 46  1  0
 32 47  1  0
 31 48  1  0
 30 49  1  0
 11 50  1  0
 15 51  1  0
 24 52  1  0
 16 53  1  0
 23 54  1  0
 21 55  1  0
 20 56  1  0
M  END
