
     RDKit          3D

 35 36  0  0  0  0  0  0  0  0999 V2000
    0.6034   -0.5475    0.8083 C   0  0  0  0  0  0  0  0  0  0  0  0
    1.5191    0.4481    0.5551 N   0  0  0  0  0  0  0  0  0  0  0  0
    2.7825    0.2567   -0.0115 C   0  0  0  0  0  0  0  0  0  0  0  0
    4.3035   -0.7699   -1.5721 C   0  0  0  0  0  0  0  0  0  0  0  0
    5.0835    0.9866   -0.1486 C   0  0  0  0  0  0  0  0  0  0  0  0
   -4.0710    0.1805   -1.0855 C   0  0  0  0  0  0  0  0  0  0  0  0
   -3.1905    0.1781    0.1509 C   0  0  2  0  0  0  0  0  0  0  0  0
   -2.0899    1.2353   -0.0059 C   0  0  0  0  0  0  0  0  0  0  0  0
   -1.1350    1.2006    1.1817 C   0  0  0  0  0  0  0  0  0  0  0  0
   -1.6116   -1.1269    1.5913 C   0  0  0  0  0  0  0  0  0  0  0  0
   -2.5811   -1.1956    0.4183 C   0  0  0  0  0  0  0  0  0  0  0  0
    3.0328   -0.6719   -1.0237 C   0  0  0  0  0  0  0  0  0  0  0  0
    5.3373    0.0516   -1.1426 C   0  0  0  0  0  0  0  0  0  0  0  0
    3.8214    1.0853    0.4160 C   0  0  0  0  0  0  0  0  0  0  0  0
   -5.1674    0.9476   -0.9978 N   0  0  0  0  0  0  0  0  0  0  0  0
   -0.5753   -0.1317    1.3584 N   0  0  0  0  0  0  0  0  0  0  0  0
   -3.7789   -0.4466   -2.0948 O   0  0  0  0  0  0  0  0  0  0  0  0
    0.8486   -1.7236    0.5841 O   0  0  0  0  0  0  0  0  0  0  0  0
    1.4161    1.3164    1.0553 H   0  0  0  0  0  0  0  0  0  0  0  0
    4.4789   -1.4960   -2.3557 H   0  0  0  0  0  0  0  0  0  0  0  0
    5.8714    1.6427    0.1983 H   0  0  0  0  0  0  0  0  0  0  0  0
   -3.7982    0.4577    1.0193 H   0  0  0  0  0  0  0  0  0  0  0  0
   -1.5249    1.0567   -0.9254 H   0  0  0  0  0  0  0  0  0  0  0  0
   -2.5278    2.2331   -0.0831 H   0  0  0  0  0  0  0  0  0  0  0  0
   -0.3646    1.9565    1.0546 H   0  0  0  0  0  0  0  0  0  0  0  0
   -1.6671    1.4669    2.0988 H   0  0  0  0  0  0  0  0  0  0  0  0
   -2.1445   -0.8414    2.5029 H   0  0  0  0  0  0  0  0  0  0  0  0
   -1.1581   -2.0964    1.7776 H   0  0  0  0  0  0  0  0  0  0  0  0
   -3.3672   -1.9211    0.6407 H   0  0  0  0  0  0  0  0  0  0  0  0
   -2.0521   -1.5541   -0.4670 H   0  0  0  0  0  0  0  0  0  0  0  0
    2.2460   -1.3101   -1.3955 H   0  0  0  0  0  0  0  0  0  0  0  0
    6.3231   -0.0317   -1.5801 H   0  0  0  0  0  0  0  0  0  0  0  0
    3.6393    1.8135    1.1980 H   0  0  0  0  0  0  0  0  0  0  0  0
   -5.3856    1.4657   -0.1647 H   0  0  0  0  0  0  0  0  0  0  0  0
   -5.7705    1.0745   -1.7945 H   0  0  0  0  0  0  0  0  0  0  0  0
  6 15  1  0
 17  6  2  0
  7  6  1  0
  8  7  1  0
  9  8  1  0
 16  9  1  0
 11 10  1  0
 10 16  1  0
  1 16  1  0
 18  1  2  0
  2  1  1  0
  3  2  1  0
 12  3  1  0
  4 12  2  0
 13  4  1  0
  5 13  2  0
 14  5  1  0
  7 11  1  0
  3 14  2  0
  2 19  1  0
  4 20  1  0
  5 21  1  0
  7 22  1  1
  8 23  1  0
  8 24  1  0
  9 25  1  0
  9 26  1  0
 10 27  1  0
 10 28  1  0
 11 29  1  0
 11 30  1  0
 12 31  1  0
 13 32  1  0
 14 33  1  0
 15 34  1  0
 15 35  1  0
M  END
