
     RDKit          3D

 48 50  0  0  0  0  0  0  0  0999 V2000
    2.4671   -1.1982    0.5408 C   0  0  0  0  0  0  0  0  0  0  0  0
   -1.6331   -2.3576   -0.5944 C   0  0  0  0  0  0  0  0  0  0  0  0
   -3.7545   -2.0933    0.5163 C   0  0  0  0  0  0  0  0  0  0  0  0
   -6.0920   -4.6658   -0.5411 C   0  0  0  0  0  0  0  0  0  0  0  0
   -3.4410   -3.8934   -1.0653 C   0  0  0  0  0  0  0  0  0  0  0  0
   -2.1447   -3.4603   -1.2751 C   0  0  0  0  0  0  0  0  0  0  0  0
   -1.9848    3.4927    0.1102 C   0  0  0  0  0  0  0  0  0  0  0  0
   -1.6068    2.9241   -2.1665 O   0  0  0  0  0  0  0  0  0  0  0  0
   -1.2695    2.7813   -1.0037 C   0  0  0  0  0  0  0  0  0  0  0  0
   -0.2135    2.0607   -0.6135 N   0  0  0  0  0  0  0  0  0  0  0  0
    0.6311    1.3681   -1.5679 C   0  0  0  0  0  0  0  0  0  0  0  0
    1.7259    0.6259   -0.8528 C   0  0  0  0  0  0  0  0  0  0  0  0
    3.0292    1.1037   -0.8895 C   0  0  0  0  0  0  0  0  0  0  0  0
    4.0357    0.4241   -0.2218 C   0  0  0  0  0  0  0  0  0  0  0  0
    5.7981    1.0817   -0.2871 Br  0  0  0  0  0  0  0  0  0  0  0  0
    3.7709   -0.7275    0.5016 C   0  0  0  0  0  0  0  0  0  0  0  0
    2.0684   -2.7428    1.5272 Br  0  0  0  0  0  0  0  0  0  0  0  0
    1.4507   -0.5284   -0.1275 C   0  0  0  0  0  0  0  0  0  0  0  0
    0.1590   -0.9625   -0.0273 O   0  0  0  0  0  0  0  0  0  0  0  0
   -0.2470   -1.9595   -0.8555 C   0  0  0  0  0  0  0  0  0  0  0  0
   -2.4593   -1.6771    0.3065 C   0  0  0  0  0  0  0  0  0  0  0  0
   -4.2582   -3.2088   -0.1625 C   0  0  0  0  0  0  0  0  0  0  0  0
   -5.5222   -3.5428    0.1097 O   0  0  0  0  0  0  0  0  0  0  0  0
    0.4834   -2.4294   -1.6852 O   0  0  0  0  0  0  0  0  0  0  0  0
   -3.3422    3.3270    0.3699 C   0  0  0  0  0  0  0  0  0  0  0  0
   -4.0893    2.2842   -0.3163 N   0  0  0  0  0  0  0  0  0  0  0  0
   -5.2688    2.4651   -0.5032 O   0  0  0  0  0  0  0  0  0  0  0  0
   -3.4896    1.2885   -0.6420 O   0  0  0  0  0  0  0  0  0  0  0  0
   -4.0112    4.0926    1.3090 C   0  0  0  0  0  0  0  0  0  0  0  0
   -3.3064    5.0494    2.0228 C   0  0  0  0  0  0  0  0  0  0  0  0
   -1.9539    5.2341    1.7834 C   0  0  0  0  0  0  0  0  0  0  0  0
   -1.3007    4.4628    0.8308 C   0  0  0  0  0  0  0  0  0  0  0  0
   -4.3932   -1.5601    1.2083 H   0  0  0  0  0  0  0  0  0  0  0  0
   -7.1138   -4.7430   -0.1800 H   0  0  0  0  0  0  0  0  0  0  0  0
   -6.1083   -4.5399   -1.6260 H   0  0  0  0  0  0  0  0  0  0  0  0
   -5.5586   -5.5872   -0.2966 H   0  0  0  0  0  0  0  0  0  0  0  0
   -3.7965   -4.7587   -1.6068 H   0  0  0  0  0  0  0  0  0  0  0  0
   -1.5210   -3.9981   -1.9765 H   0  0  0  0  0  0  0  0  0  0  0  0
   -0.0083    1.9796    0.3698 H   0  0  0  0  0  0  0  0  0  0  0  0
    0.0306    0.6864   -2.1750 H   0  0  0  0  0  0  0  0  0  0  0  0
    1.0828    2.0842   -2.2563 H   0  0  0  0  0  0  0  0  0  0  0  0
    3.2440    2.0064   -1.4465 H   0  0  0  0  0  0  0  0  0  0  0  0
    4.5578   -1.2513    1.0267 H   0  0  0  0  0  0  0  0  0  0  0  0
   -2.1014   -0.8081    0.8394 H   0  0  0  0  0  0  0  0  0  0  0  0
   -5.0623    3.9341    1.5042 H   0  0  0  0  0  0  0  0  0  0  0  0
   -3.8184    5.6437    2.7666 H   0  0  0  0  0  0  0  0  0  0  0  0
   -1.4009    5.9829    2.3335 H   0  0  0  0  0  0  0  0  0  0  0  0
   -0.2500    4.6314    0.6342 H   0  0  0  0  0  0  0  0  0  0  0  0
  8  9  2  0
 28 26  2  0
 24 20  2  0
 26 27  1  0
 26 25  1  0
  9  7  1  0
  9 10  1  0
 25  7  2  0
 25 29  1  0
 15 14  1  0
 21  3  2  0
 21  2  1  0
 13 14  2  0
 13 12  1  0
  7 32  1  0
 14 16  1  0
 29 30  2  0
 20  2  1  0
 20 19  1  0
 12 11  1  0
 12 18  2  0
 11 10  1  0
 16  1  2  0
  3 22  1  0
 32 31  2  0
 18  1  1  0
 18 19  1  0
  2  6  2  0
 30 31  1  0
  1 17  1  0
 22 23  1  0
 22  5  2  0
  6  5  1  0
 23  4  1  0
  3 33  1  0
  4 34  1  0
  4 35  1  0
  4 36  1  0
  5 37  1  0
  6 38  1  0
 10 39  1  0
 11 40  1  0
 11 41  1  0
 13 42  1  0
 16 43  1  0
 21 44  1  0
 29 45  1  0
 30 46  1  0
 31 47  1  0
 32 48  1  0
M  CHG  2  26   1  27  -1
M  END
