
     RDKit          3D

 40 42  0  0  0  0  0  0  0  0999 V2000
   -2.3775   -1.1232    0.5297 N   0  0  0  0  0  0  0  0  0  0  0  0
   -6.0308    2.3998    0.8275 F   0  0  0  0  0  0  0  0  0  0  0  0
   -2.6223    0.2966   -1.2414 O   0  0  0  0  0  0  0  0  0  0  0  0
   -5.5058    0.3045   -0.1046 C   0  0  0  0  0  0  0  0  0  0  0  0
   -4.7895    2.3986   -0.9220 F   0  0  0  0  0  0  0  0  0  0  0  0
    2.1022    0.0426   -0.6744 O   0  0  0  0  0  0  0  0  0  0  0  0
   -4.5667   -0.7072   -0.3225 C   0  0  0  0  0  0  0  0  0  0  0  0
   -3.9894    1.7511    0.9716 F   0  0  0  0  0  0  0  0  0  0  0  0
   -5.0041   -2.0038   -0.5643 C   0  0  0  0  0  0  0  0  0  0  0  0
   -6.3598   -2.2958   -0.6114 C   0  0  0  0  0  0  0  0  0  0  0  0
   -7.2877   -1.2894   -0.4043 C   0  0  0  0  0  0  0  0  0  0  0  0
   -6.8611    0.0053   -0.1438 C   0  0  0  0  0  0  0  0  0  0  0  0
   -3.0911   -0.4382   -0.3955 C   0  0  0  0  0  0  0  0  0  0  0  0
   -0.9962   -1.1548    0.7340 C   0  0  0  0  0  0  0  0  0  0  0  0
   -0.5445   -1.8796    1.8415 C   0  0  0  0  0  0  0  0  0  0  0  0
    0.8069   -1.9562    2.1096 C   0  0  0  0  0  0  0  0  0  0  0  0
    1.7419   -1.3248    1.2975 C   0  0  0  0  0  0  0  0  0  0  0  0
    1.2763   -0.6162    0.2040 C   0  0  0  0  0  0  0  0  0  0  0  0
   -0.0770   -0.5188   -0.0939 C   0  0  0  0  0  0  0  0  0  0  0  0
    3.4312    0.0645   -0.4281 C   0  0  0  0  0  0  0  0  0  0  0  0
    4.2655   -0.8988   -0.9740 C   0  0  0  0  0  0  0  0  0  0  0  0
    5.6325   -0.8402   -0.7786 C   0  0  0  0  0  0  0  0  0  0  0  0
    6.1749    0.1860   -0.0267 C   0  0  0  0  0  0  0  0  0  0  0  0
    5.3532    1.1491    0.5299 C   0  0  0  0  0  0  0  0  0  0  0  0
    3.9875    1.0834    0.3303 C   0  0  0  0  0  0  0  0  0  0  0  0
   -2.9168   -1.6453    1.2049 H   0  0  0  0  0  0  0  0  0  0  0  0
   -4.2809   -2.7912   -0.7345 H   0  0  0  0  0  0  0  0  0  0  0  0
   -6.6849   -3.3077   -0.8113 H   0  0  0  0  0  0  0  0  0  0  0  0
   -8.3467   -1.5054   -0.4370 H   0  0  0  0  0  0  0  0  0  0  0  0
   -7.6008    0.7738    0.0318 H   0  0  0  0  0  0  0  0  0  0  0  0
   -1.2538   -2.3815    2.4879 H   0  0  0  0  0  0  0  0  0  0  0  0
    1.1474   -2.5170    2.9694 H   0  0  0  0  0  0  0  0  0  0  0  0
    2.7946   -1.3997    1.5344 H   0  0  0  0  0  0  0  0  0  0  0  0
   -0.3867    0.0435   -0.9600 H   0  0  0  0  0  0  0  0  0  0  0  0
   -5.0771    1.7130    0.1902 C   0  0  1  0  0  0  0  0  0  0  0  0
    3.7436   -1.8879   -1.6856 F   0  0  0  0  0  0  0  0  0  0  0  0
    6.4254   -1.7639   -1.3058 F   0  0  0  0  0  0  0  0  0  0  0  0
    7.4852    0.2475    0.1602 F   0  0  0  0  0  0  0  0  0  0  0  0
    5.8790    2.1309    1.2503 F   0  0  0  0  0  0  0  0  0  0  0  0
    3.1980    2.0023    0.8682 F   0  0  0  0  0  0  0  0  0  0  0  0
  1 13  1  0
  1 14  1  0
 35  2  1  1
 35  4  1  0
 35  5  1  0
 35  8  1  0
  3 13  2  0
  4  7  2  0
  4 12  1  0
  6 18  1  0
  6 20  1  0
  7  9  1  0
  7 13  1  0
  9 10  2  0
 36 21  1  0
 10 11  1  0
 37 22  1  0
 11 12  2  0
 38 23  1  0
 39 24  1  0
 40 25  1  0
 14 15  2  0
 14 19  1  0
 15 16  1  0
 16 17  2  0
 17 18  1  0
 18 19  2  0
 20 21  2  0
 20 25  1  0
 21 22  1  0
 22 23  2  0
 23 24  1  0
 24 25  2  0
  1 26  1  0
  9 27  1  0
 10 28  1  0
 11 29  1  0
 12 30  1  0
 15 31  1  0
 16 32  1  0
 17 33  1  0
 19 34  1  0
M  END
