
     RDKit          3D

 49 52  0  0  0  0  0  0  0  0999 V2000
    1.2506    1.7504    1.2904 C   0  0  0  0  0  0  0  0  0  0  0  0
    0.4506    2.6500    0.6130 C   0  0  0  0  0  0  0  0  0  0  0  0
   -0.7690    2.9235    1.1048 F   0  0  0  0  0  0  0  0  0  0  0  0
    0.8567    3.2692   -0.5514 C   0  0  0  0  0  0  0  0  0  0  0  0
    2.1221    2.9715   -1.0409 C   0  0  0  0  0  0  0  0  0  0  0  0
    2.9412    2.0659   -0.3837 C   0  0  0  0  0  0  0  0  0  0  0  0
    2.5086    1.4401    0.7823 C   0  0  0  0  0  0  0  0  0  0  0  0
    3.3244    0.3497    1.4192 C   0  0  0  0  0  0  0  0  0  0  0  0
    3.1847   -0.9535    0.6058 C   0  0  1  0  0  0  0  0  0  0  0  0
    3.8133   -2.4082    1.5036 P   0  0  1  0  0  0  0  0  0  0  0  0
    5.3853   -2.1434    1.6430 O   0  0  0  0  0  0  0  0  0  0  0  0
    3.0741   -2.6803    2.7603 O   0  0  0  0  0  0  0  0  0  0  0  0
    3.8386   -3.5892    0.4174 O   0  0  0  0  0  0  0  0  0  0  0  0
    1.8038   -1.2360    0.2679 N   0  0  0  0  0  0  0  0  0  0  0  0
    1.2769   -0.8405   -0.9207 C   0  0  0  0  0  0  0  0  0  0  0  0
    2.0675   -0.7785   -1.9827 N   0  0  0  0  0  0  0  0  0  0  0  0
    1.5493   -0.3762   -3.1379 C   0  0  0  0  0  0  0  0  0  0  0  0
    0.3045   -0.0113   -3.3743 N   0  0  0  0  0  0  0  0  0  0  0  0
   -0.4830   -0.0773   -2.3048 C   0  0  0  0  0  0  0  0  0  0  0  0
   -2.1446    0.4026   -2.3082 S   0  0  0  0  0  0  0  0  0  0  0  0
   -0.0873   -0.4965   -1.0369 C   0  0  0  0  0  0  0  0  0  0  0  0
   -1.1392   -0.4296   -0.0787 C   0  0  0  0  0  0  0  0  0  0  0  0
   -2.3018    0.0318   -0.6085 C   0  0  0  0  0  0  0  0  0  0  0  0
   -3.5740    0.2460    0.0757 C   0  0  0  0  0  0  0  0  0  0  0  0
   -3.5932    0.5627    1.4359 C   0  0  0  0  0  0  0  0  0  0  0  0
   -4.7926    0.7360    2.1045 C   0  0  0  0  0  0  0  0  0  0  0  0
   -6.0142    0.6182    1.4429 C   0  0  0  0  0  0  0  0  0  0  0  0
   -7.3088    0.8424    2.1658 C   0  0  0  0  0  0  0  0  0  0  0  0
   -5.9906    0.3133    0.0839 C   0  0  0  0  0  0  0  0  0  0  0  0
   -4.7944    0.1292   -0.5910 C   0  0  0  0  0  0  0  0  0  0  0  0
    0.8899    1.2812    2.1980 H   0  0  0  0  0  0  0  0  0  0  0  0
    0.2051    3.9646   -1.0633 H   0  0  0  0  0  0  0  0  0  0  0  0
    2.4637    3.4464   -1.9510 H   0  0  0  0  0  0  0  0  0  0  0  0
    3.9158    1.8267   -0.7912 H   0  0  0  0  0  0  0  0  0  0  0  0
    4.3798    0.6233    1.4653 H   0  0  0  0  0  0  0  0  0  0  0  0
    2.9873    0.1870    2.4456 H   0  0  0  0  0  0  0  0  0  0  0  0
    3.7435   -0.8646   -0.3270 H   0  0  0  0  0  0  0  0  0  0  0  0
    5.7030   -2.1693    2.5553 H   0  0  0  0  0  0  0  0  0  0  0  0
    2.9630   -3.9199    0.1772 H   0  0  0  0  0  0  0  0  0  0  0  0
    1.1667   -1.2221    1.0507 H   0  0  0  0  0  0  0  0  0  0  0  0
    2.2326   -0.3433   -3.9791 H   0  0  0  0  0  0  0  0  0  0  0  0
   -1.0494   -0.7271    0.9571 H   0  0  0  0  0  0  0  0  0  0  0  0
   -2.6629    0.6910    1.9742 H   0  0  0  0  0  0  0  0  0  0  0  0
   -4.7773    0.9760    3.1610 H   0  0  0  0  0  0  0  0  0  0  0  0
   -7.5897    1.8976    2.1416 H   0  0  0  0  0  0  0  0  0  0  0  0
   -8.1238    0.2796    1.7120 H   0  0  0  0  0  0  0  0  0  0  0  0
   -7.2364    0.5523    3.2135 H   0  0  0  0  0  0  0  0  0  0  0  0
   -6.9225    0.2056   -0.4582 H   0  0  0  0  0  0  0  0  0  0  0  0
   -4.8220   -0.1294   -1.6430 H   0  0  0  0  0  0  0  0  0  0  0  0
 12 10  2  0
 10 13  1  6
 18 17  1  0
 18 19  2  0
 17 16  2  0
 20 19  1  0
 20 23  1  0
 19 21  1  0
 10  9  1  0
 10 11  1  0
 16 15  1  0
 21 15  2  0
 21 22  1  0
 15 14  1  0
 23 22  2  0
 23 24  1  0
 25 24  2  0
 25 26  1  0
 24 30  1  0
 26 27  2  0
 30 29  2  0
 27 29  1  0
 27 28  1  0
 14  9  1  0
  9  8  1  0
  8  7  1  0
  1  7  2  0
  1  2  1  0
  7  6  1  0
  3  2  1  0
  2  4  2  0
  6  5  2  0
  4  5  1  0
  1 31  1  0
  4 32  1  0
  5 33  1  0
  6 34  1  0
  8 35  1  0
  8 36  1  0
  9 37  1  6
 11 38  1  0
 13 39  1  0
 14 40  1  0
 17 41  1  0
 22 42  1  0
 25 43  1  0
 26 44  1  0
 28 45  1  0
 28 46  1  0
 28 47  1  0
 29 48  1  0
 30 49  1  0
M  END
