
     RDKit          3D

 21 22  0  0  0  0  0  0  0  0999 V2000
   -3.0811    1.2671    0.0900 O   0  0  0  0  0  0  0  0  0  0  0  0
   -1.8911    0.6564    0.0736 C   0  0  0  0  0  0  0  0  0  0  0  0
   -0.8606    1.4437    0.0724 N   0  0  0  0  0  0  0  0  0  0  0  0
    0.3724    0.8785    0.0587 C   0  0  0  0  0  0  0  0  0  0  0  0
    0.5739   -0.5232    0.0458 C   0  0  0  0  0  0  0  0  0  0  0  0
   -0.5822   -1.3609    0.0459 C   0  0  0  0  0  0  0  0  0  0  0  0
   -0.4561   -2.8505    0.0321 C   0  0  0  0  0  0  0  0  0  0  0  0
   -1.8074   -0.7605    0.0597 C   0  0  0  0  0  0  0  0  0  0  0  0
    1.8904   -1.0300    0.0342 C   0  0  0  0  0  0  0  0  0  0  0  0
    2.9681   -0.1821    0.0351 C   0  0  0  0  0  0  0  0  0  0  0  0
    2.7663    1.2100    0.0475 C   0  0  0  0  0  0  0  0  0  0  0  0
    1.4981    1.7299    0.0587 C   0  0  0  0  0  0  0  0  0  0  0  0
    0.0948   -3.2069    0.9039 H   0  0  0  0  0  0  0  0  0  0  0  0
   -1.4342   -3.3270    0.0327 H   0  0  0  0  0  0  0  0  0  0  0  0
    0.0855   -3.1916   -0.8517 H   0  0  0  0  0  0  0  0  0  0  0  0
   -2.7110   -1.3593    0.0601 H   0  0  0  0  0  0  0  0  0  0  0  0
    2.0499   -2.1004    0.0247 H   0  0  0  0  0  0  0  0  0  0  0  0
    3.9739   -0.5807    0.0265 H   0  0  0  0  0  0  0  0  0  0  0  0
    3.6200    1.8753    0.0488 H   0  0  0  0  0  0  0  0  0  0  0  0
    1.3354    2.8002    0.0685 H   0  0  0  0  0  0  0  0  0  0  0  0
   -3.7984    0.6231    0.0985 H   0  0  0  0  0  0  0  0  0  0  0  0
 11 10  2  0
 11 12  1  0
 10  9  1  0
 12  4  2  0
  9  5  2  0
  4  5  1  0
  4  3  1  0
  5  6  1  0
  3  2  2  0
  6  7  1  0
  6  8  2  0
  2  8  1  0
  2  1  1  0
  7 13  1  0
  7 14  1  0
  7 15  1  0
  8 16  1  0
  9 17  1  0
 10 18  1  0
 11 19  1  0
 12 20  1  0
  1 21  1  0
M  END
