
     RDKit          3D

 28 29  0  0  0  0  0  0  0  0999 V2000
    0.1037    2.0462   -1.7865 O   0  0  0  0  0  0  0  0  0  0  0  0
   -0.2390    1.9173   -0.3845 S   0  0  1  0  0  0  0  0  0  0  0  0
   -0.7441    3.0641    0.3504 O   0  0  0  0  0  0  0  0  0  0  0  0
   -1.3296    0.5702   -0.1806 C   0  0  0  0  0  0  0  0  0  0  0  0
   -2.0825    0.4718    0.9896 C   0  0  0  0  0  0  0  0  0  0  0  0
   -2.9372   -0.5908    1.1723 C   0  0  0  0  0  0  0  0  0  0  0  0
   -1.4395   -0.4091   -1.1651 C   0  0  0  0  0  0  0  0  0  0  0  0
   -2.2944   -1.4738   -0.9830 C   0  0  0  0  0  0  0  0  0  0  0  0
   -3.0643   -1.5906    0.1886 C   0  0  0  0  0  0  0  0  0  0  0  0
   -3.9317   -2.6153    0.3505 N   0  0  0  0  0  0  0  0  0  0  0  0
    1.1662    1.5227    0.4382 N   0  0  0  0  0  0  0  0  0  0  0  0
    1.9279    0.4073    0.1616 C   0  0  0  0  0  0  0  0  0  0  0  0
    1.8451   -0.2418   -0.9649 N   0  0  0  0  0  0  0  0  0  0  0  0
    2.7522   -1.2630   -0.8590 O   0  0  0  0  0  0  0  0  0  0  0  0
    3.3705   -1.2098    0.3225 C   0  0  0  0  0  0  0  0  0  0  0  0
    2.8910   -0.1626    1.0336 C   0  0  0  0  0  0  0  0  0  0  0  0
    4.3901   -2.2402    0.6177 C   0  0  0  0  0  0  0  0  0  0  0  0
   -2.0098    1.2254    1.7627 H   0  0  0  0  0  0  0  0  0  0  0  0
   -3.5224   -0.6541    2.0812 H   0  0  0  0  0  0  0  0  0  0  0  0
   -0.8609   -0.3468   -2.0756 H   0  0  0  0  0  0  0  0  0  0  0  0
   -2.3791   -2.2284   -1.7546 H   0  0  0  0  0  0  0  0  0  0  0  0
   -3.8577   -3.4232   -0.2436 H   0  0  0  0  0  0  0  0  0  0  0  0
   -4.3341   -2.7825    1.2567 H   0  0  0  0  0  0  0  0  0  0  0  0
    1.1904    1.8518    1.3948 H   0  0  0  0  0  0  0  0  0  0  0  0
    3.1692    0.1581    2.0230 H   0  0  0  0  0  0  0  0  0  0  0  0
    5.1812   -2.2384   -0.1326 H   0  0  0  0  0  0  0  0  0  0  0  0
    4.8378   -2.0515    1.5899 H   0  0  0  0  0  0  0  0  0  0  0  0
    3.9476   -3.2370    0.6324 H   0  0  0  0  0  0  0  0  0  0  0  0
 10  9  1  0
  8  9  2  0
  8  7  1  0
  9  6  1  0
  7  4  2  0
  6  5  2  0
  4  5  1  0
  4  2  1  0
 11 12  1  0
  2 11  1  1
 12 16  1  0
 12 13  2  0
 16 15  2  0
 13 14  1  0
 15 14  1  0
 15 17  1  0
  2  1  2  0
  2  3  2  0
  5 18  1  0
  6 19  1  0
  7 20  1  0
  8 21  1  0
 10 22  1  0
 10 23  1  0
 11 24  1  0
 16 25  1  0
 17 26  1  0
 17 27  1  0
 17 28  1  0
M  END
