
     RDKit          3D

 31 33  0  0  0  0  0  0  0  0999 V2000
    0.8842    2.4223    0.1528 Cl  0  0  0  0  0  0  0  0  0  0  0  0
   -3.2818   -0.4511   -0.3002 C   0  0  0  0  0  0  0  0  0  0  0  0
   -4.2941    0.4145   -0.8771 C   0  0  0  0  0  0  0  0  0  0  0  0
   -4.1215    1.5780   -1.1586 O   0  0  0  0  0  0  0  0  0  0  0  0
   -1.9677   -0.0947    0.0100 C   0  0  0  0  0  0  0  0  0  0  0  0
   -5.4462   -0.2235   -1.0625 O   0  0  0  0  0  0  0  0  0  0  0  0
   -1.4127   -1.2350    0.5304 N   0  0  0  0  0  0  0  0  0  0  0  0
   -0.1320   -1.2934    0.9611 C   0  0  0  0  0  0  0  0  0  0  0  0
    0.3083   -2.4282    1.4364 O   0  0  0  0  0  0  0  0  0  0  0  0
    0.6349   -0.1526    0.8687 C   0  0  0  0  0  0  0  0  0  0  0  0
    2.0626   -0.1247    1.3306 C   0  0  0  0  0  0  0  0  0  0  0  0
    3.0632   -0.1002    0.1989 C   0  0  0  0  0  0  0  0  0  0  0  0
    4.1342    0.7866    0.2276 C   0  0  0  0  0  0  0  0  0  0  0  0
    5.0797    0.7924   -0.7900 C   0  0  0  0  0  0  0  0  0  0  0  0
    4.9614   -0.0887   -1.8561 C   0  0  0  0  0  0  0  0  0  0  0  0
    3.8936   -0.9764   -1.8945 C   0  0  0  0  0  0  0  0  0  0  0  0
    2.9530   -0.9814   -0.8739 C   0  0  0  0  0  0  0  0  0  0  0  0
   -0.0215    0.9638    0.3114 C   0  0  0  0  0  0  0  0  0  0  0  0
   -1.2540    1.0219   -0.1033 N   0  0  0  0  0  0  0  0  0  0  0  0
   -2.2572   -2.2774    0.5740 N   0  0  0  0  0  0  0  0  0  0  0  0
   -3.3784   -1.8038    0.0753 C   0  0  0  0  0  0  0  0  0  0  0  0
   -4.2394   -2.4494   -0.0041 H   0  0  0  0  0  0  0  0  0  0  0  0
   -6.0980    0.3809   -1.4467 H   0  0  0  0  0  0  0  0  0  0  0  0
    2.2137    0.7424    1.9764 H   0  0  0  0  0  0  0  0  0  0  0  0
    2.2546   -0.9935    1.9629 H   0  0  0  0  0  0  0  0  0  0  0  0
    4.2309    1.4836    1.0515 H   0  0  0  0  0  0  0  0  0  0  0  0
    2.1273   -1.6816   -0.9210 H   0  0  0  0  0  0  0  0  0  0  0  0
    5.9061    1.4903   -0.7512 H   0  0  0  0  0  0  0  0  0  0  0  0
    5.6937   -0.0829   -2.6528 H   0  0  0  0  0  0  0  0  0  0  0  0
    3.7916   -1.6679   -2.7210 H   0  0  0  0  0  0  0  0  0  0  0  0
   -0.3850   -3.1103    1.4198 H   0  0  0  0  0  0  0  0  0  0  0  0
  1 18  1  0
  2  3  1  0
  2  5  2  0
  2 21  1  0
  3  4  2  0
  3  6  1  0
  5  7  1  0
  5 19  1  0
  7  8  1  0
  7 20  1  0
  8  9  1  0
  8 10  2  0
 10 11  1  0
 10 18  1  0
 11 12  1  0
 12 13  2  0
 12 17  1  0
 13 14  1  0
 14 15  2  0
 15 16  1  0
 16 17  2  0
 18 19  2  0
 20 21  2  0
 21 22  1  0
  6 23  1  0
 11 24  1  0
 11 25  1  0
 13 26  1  0
 17 27  1  0
 14 28  1  0
 15 29  1  0
 16 30  1  0
  9 31  1  0
M  END
