
     RDKit          3D

 27 27  0  0  0  0  0  0  0  0999 V2000
    1.9707    1.0745    1.7591 O   0  0  0  0  0  0  0  0  0  0  0  0
    2.7697    0.6509    0.9615 C   0  0  0  0  0  0  0  0  0  0  0  0
    3.9976    1.1254    0.8157 O   0  0  0  0  0  0  0  0  0  0  0  0
    2.4625   -0.4709    0.0383 C   0  0  0  0  0  0  0  0  0  0  0  0
    3.3427   -1.0414   -0.7835 C   0  0  0  0  0  0  0  0  0  0  0  0
    3.0628   -2.1742   -1.7028 C   0  0  0  0  0  0  0  0  0  0  0  0
    1.1891   -0.9528    0.1601 O   0  0  0  0  0  0  0  0  0  0  0  0
    0.1605   -0.1628   -0.2549 C   0  0  0  0  0  0  0  0  0  0  0  0
    0.2783    0.8144   -1.2184 C   0  0  0  0  0  0  0  0  0  0  0  0
   -0.8369    1.5591   -1.6068 C   0  0  0  0  0  0  0  0  0  0  0  0
   -2.0635    1.3105   -1.0373 C   0  0  0  0  0  0  0  0  0  0  0  0
   -1.0826   -0.4325    0.3418 C   0  0  0  0  0  0  0  0  0  0  0  0
   -1.1172   -1.3913    1.2626 O   0  0  0  0  0  0  0  0  0  0  0  0
   -2.2015    0.3112   -0.0628 C   0  0  0  0  0  0  0  0  0  0  0  0
   -3.4969    0.0178    0.5654 C   0  0  0  0  0  0  0  0  0  0  0  0
   -4.4937    0.7574    0.1258 O   0  0  0  0  0  0  0  0  0  0  0  0
   -3.6463   -0.8383    1.4231 O   0  0  0  0  0  0  0  0  0  0  0  0
    4.1529    1.8388    1.4524 H   0  0  0  0  0  0  0  0  0  0  0  0
    4.3578   -0.6663   -0.7742 H   0  0  0  0  0  0  0  0  0  0  0  0
    3.3731   -1.9149   -2.7163 H   0  0  0  0  0  0  0  0  0  0  0  0
    3.6560   -3.0439   -1.4122 H   0  0  0  0  0  0  0  0  0  0  0  0
    2.0156   -2.4647   -1.7218 H   0  0  0  0  0  0  0  0  0  0  0  0
    1.2374    1.0083   -1.6827 H   0  0  0  0  0  0  0  0  0  0  0  0
   -0.7306    2.3263   -2.3605 H   0  0  0  0  0  0  0  0  0  0  0  0
   -2.9223    1.8899   -1.3448 H   0  0  0  0  0  0  0  0  0  0  0  0
   -2.0386   -1.4607    1.5905 H   0  0  0  0  0  0  0  0  0  0  0  0
   -5.3159    0.5163    0.5788 H   0  0  0  0  0  0  0  0  0  0  0  0
 17 15  2  0
 16 15  1  0
 15 14  1  0
 14 11  2  0
 14 12  1  0
 13 12  1  0
 11 10  1  0
 12  8  2  0
 10  9  2  0
  8  9  1  0
  8  7  1  0
  7  4  1  0
  6  5  1  0
  4  5  2  0
  4  2  1  0
  1  2  2  0
  2  3  1  0
  3 18  1  0
  5 19  1  0
  6 20  1  0
  6 21  1  0
  6 22  1  0
  9 23  1  0
 10 24  1  0
 11 25  1  0
 13 26  1  0
 16 27  1  0
M  END
