
     RDKit          3D

 12 11  0  0  0  0  0  0  0  0999 V2000
   -1.1259    0.8656   -1.2246 O   0  0  0  0  0  0  0  0  0  0  0  0
   -0.9932    0.1274    0.0132 S   0  0  1  0  0  0  0  0  0  0  0  0
   -1.1108    0.8416    1.2665 O   0  0  0  0  0  0  0  0  0  0  0  0
   -2.0028   -1.1141    0.0077 O   0  0  0  0  0  0  0  0  0  0  0  0
    0.4964   -0.8577   -0.0074 C   0  0  0  0  0  0  0  0  0  0  0  0
    1.7141    0.0331   -0.0174 C   0  0  0  0  0  0  0  0  0  0  0  0
    1.6771    1.2335   -0.0067 O   0  0  0  0  0  0  0  0  0  0  0  0
    2.8123   -0.6953   -0.0394 O   0  0  0  0  0  0  0  0  0  0  0  0
   -2.9311   -0.8224    0.0212 H   0  0  0  0  0  0  0  0  0  0  0  0
    0.4986   -1.5014    0.8749 H   0  0  0  0  0  0  0  0  0  0  0  0
    0.4781   -1.4946   -0.8946 H   0  0  0  0  0  0  0  0  0  0  0  0
    3.5972   -0.1251   -0.0454 H   0  0  0  0  0  0  0  0  0  0  0  0
  1  2  2  0
  2  3  2  0
  2  4  1  1
  2  5  1  0
  5  6  1  0
  6  7  2  0
  6  8  1  0
  4  9  1  0
  5 10  1  0
  5 11  1  0
  8 12  1  0
M  END
