
     RDKit          3D

 10 10  0  0  0  0  0  0  0  0999 V2000
   -1.1491   -0.0073   -0.2374 S   0  0  0  0  0  0  0  0  0  0  0  0
    0.2501    0.0618    0.8017 C   0  0  0  0  0  0  0  0  0  0  0  0
    1.3860    0.0485    0.1737 N   0  0  0  0  0  0  0  0  0  0  0  0
    1.1903   -0.0187   -1.1795 C   0  0  0  0  0  0  0  0  0  0  0  0
   -0.0911   -0.0593   -1.6064 C   0  0  0  0  0  0  0  0  0  0  0  0
    0.1156    0.1800    2.1451 N   0  0  0  0  0  0  0  0  0  0  0  0
    2.0490   -0.0398   -1.8363 H   0  0  0  0  0  0  0  0  0  0  0  0
   -0.4709   -0.1193   -2.6131 H   0  0  0  0  0  0  0  0  0  0  0  0
    0.9386   -0.0448    2.6820 H   0  0  0  0  0  0  0  0  0  0  0  0
   -0.7403   -0.1396    2.5678 H   0  0  0  0  0  0  0  0  0  0  0  0
  1  2  1  0
  1  5  1  0
  2  3  2  0
  2  6  1  0
  3  4  1  0
  4  5  2  0
  4  7  1  0
  5  8  1  0
  6  9  1  0
  6 10  1  0
M  END
