
     RDKit          3D

 27 27  0  0  0  0  0  0  0  0999 V2000
   -0.4955   -0.6142   -1.0171 C   0  0  2  0  0  0  0  0  0  0  0  0
    1.0262   -0.6142   -1.0171 C   0  0  1  0  0  0  0  0  0  0  0  0
    1.5832   -0.6142    0.3580 C   0  0  2  0  0  0  0  0  0  0  0  0
    1.0183    0.4938    1.1931 C   0  0  2  0  0  0  0  0  0  0  0  0
   -0.5110    0.4942    1.1885 C   0  0  1  0  0  0  0  0  0  0  0  0
   -0.9989    1.7154    1.9107 C   0  0  0  0  0  0  0  0  0  0  0  0
   -2.1196   -1.1774   -2.5762 C   0  0  0  0  0  0  0  0  0  0  0  0
   -0.9366   -0.4680   -2.2964 O   0  0  0  0  0  0  0  0  0  0  0  0
    1.4913   -1.7907   -1.7073 O   0  0  0  0  0  0  0  0  0  0  0  0
    3.0271   -0.4534    0.2793 O   0  0  0  0  0  0  0  0  0  0  0  0
    1.4817    1.7430    0.6770 O   0  0  0  0  0  0  0  0  0  0  0  0
   -1.0610    0.4961   -0.1770 O   0  0  0  0  0  0  0  0  0  0  0  0
   -2.3844    1.6168    2.1135 O   0  0  0  0  0  0  0  0  0  0  0  0
   -0.8452   -1.5618   -0.6256 H   0  0  0  0  0  0  0  0  0  0  0  0
    1.3772    0.2684   -1.5381 H   0  0  0  0  0  0  0  0  0  0  0  0
    1.3537   -1.5619    0.8300 H   0  0  0  0  0  0  0  0  0  0  0  0
    1.3659    0.3770    2.2125 H   0  0  0  0  0  0  0  0  0  0  0  0
   -0.8626   -0.3902    1.7059 H   0  0  0  0  0  0  0  0  0  0  0  0
   -0.4985    1.7927    2.8683 H   0  0  0  0  0  0  0  0  0  0  0  0
   -0.7826    2.5961    1.3181 H   0  0  0  0  0  0  0  0  0  0  0  0
   -1.9288   -2.2412   -2.5026 H   0  0  0  0  0  0  0  0  0  0  0  0
   -2.4549   -0.9392   -3.5784 H   0  0  0  0  0  0  0  0  0  0  0  0
   -2.8857   -0.8977   -1.8631 H   0  0  0  0  0  0  0  0  0  0  0  0
    2.0983   -1.5392   -2.3835 H   0  0  0  0  0  0  0  0  0  0  0  0
    3.4473   -1.1465    0.7610 H   0  0  0  0  0  0  0  0  0  0  0  0
    2.1725    2.0736    1.2270 H   0  0  0  0  0  0  0  0  0  0  0  0
   -2.6775    2.3422    2.6397 H   0  0  0  0  0  0  0  0  0  0  0  0
  1  2  1  0
  1  8  1  0
  1 12  1  0
  1 14  1  1
  2  3  1  0
  2  9  1  0
  2 15  1  6
  3  4  1  0
  3 10  1  0
  3 16  1  1
  4  5  1  0
  4 11  1  0
  4 17  1  1
  5  6  1  0
  5 12  1  0
  5 18  1  1
  6 13  1  0
  6 19  1  0
  6 20  1  0
  7  8  1  0
  7 21  1  0
  7 22  1  0
  7 23  1  0
  9 24  1  0
 10 25  1  0
 11 26  1  0
 13 27  1  0
M  END
