
     RDKit          3D

 46 48  0  0  0  0  0  0  0  0999 V2000
   -1.9395    2.8979   -1.0178 O   0  0  0  0  0  0  0  0  0  0  0  0
   -1.6193    3.0124    0.1342 C   0  0  0  0  0  0  0  0  0  0  0  0
   -1.0831    4.1000    0.6640 O   0  0  0  0  0  0  0  0  0  0  0  0
   -1.8224    1.9449    1.1874 C   0  0  0  0  0  0  0  0  0  0  0  0
   -2.1331    0.6739    0.6005 N   0  0  0  0  0  0  0  0  0  0  0  0
   -3.3955    0.1633    0.4637 C   0  0  0  0  0  0  0  0  0  0  0  0
   -4.6295    0.6852    0.8432 C   0  0  0  0  0  0  0  0  0  0  0  0
   -5.7603   -0.0609    0.5801 C   0  0  0  0  0  0  0  0  0  0  0  0
   -5.6821   -1.3204   -0.0528 C   0  0  0  0  0  0  0  0  0  0  0  0
   -6.7675   -2.0782   -0.3293 O   0  0  0  0  0  0  0  0  0  0  0  0
   -8.0473   -1.5979    0.0246 C   0  0  0  0  0  0  0  0  0  0  0  0
   -4.4569   -1.8405   -0.4254 C   0  0  0  0  0  0  0  0  0  0  0  0
   -3.3023   -1.0961   -0.1632 C   0  0  0  0  0  0  0  0  0  0  0  0
   -1.9236   -1.3256   -0.4082 C   0  0  0  0  0  0  0  0  0  0  0  0
   -1.2472   -0.2277    0.0593 C   0  0  0  0  0  0  0  0  0  0  0  0
    0.1855    0.0580   -0.0481 C   0  0  0  0  0  0  0  0  0  0  0  0
    0.6555    1.1776   -0.0291 O   0  0  0  0  0  0  0  0  0  0  0  0
    0.9713   -1.0618   -0.1791 N   0  0  0  0  0  0  0  0  0  0  0  0
    2.6081   -1.0186   -0.5610 S   0  0  1  0  0  0  0  0  0  0  0  0
    2.9788   -2.4147   -0.6944 O   0  0  0  0  0  0  0  0  0  0  0  0
    2.8078   -0.1136   -1.6737 O   0  0  0  0  0  0  0  0  0  0  0  0
    3.3844   -0.3390    0.9083 C   0  0  0  0  0  0  0  0  0  0  0  0
    4.8668   -0.3088    0.7010 C   0  0  0  0  0  0  0  0  0  0  0  0
    5.4704    0.8025    0.1193 C   0  0  0  0  0  0  0  0  0  0  0  0
    6.8430    0.8280   -0.0791 C   0  0  0  0  0  0  0  0  0  0  0  0
    7.6208   -0.2600    0.2957 C   0  0  0  0  0  0  0  0  0  0  0  0
    7.0221   -1.3732    0.8714 C   0  0  0  0  0  0  0  0  0  0  0  0
    5.6491   -1.3995    1.0694 C   0  0  0  0  0  0  0  0  0  0  0  0
   -0.9938    4.7932   -0.0075 H   0  0  0  0  0  0  0  0  0  0  0  0
   -0.9527    1.8764    1.8386 H   0  0  0  0  0  0  0  0  0  0  0  0
   -2.6510    2.2479    1.8309 H   0  0  0  0  0  0  0  0  0  0  0  0
   -4.7260    1.6490    1.3252 H   0  0  0  0  0  0  0  0  0  0  0  0
   -6.7170    0.3502    0.8703 H   0  0  0  0  0  0  0  0  0  0  0  0
   -8.2919   -0.6606   -0.4829 H   0  0  0  0  0  0  0  0  0  0  0  0
   -8.7590   -2.3574   -0.2903 H   0  0  0  0  0  0  0  0  0  0  0  0
   -8.1501   -1.4506    1.1032 H   0  0  0  0  0  0  0  0  0  0  0  0
   -4.3974   -2.8069   -0.9110 H   0  0  0  0  0  0  0  0  0  0  0  0
   -1.4920   -2.1810   -0.9035 H   0  0  0  0  0  0  0  0  0  0  0  0
    0.5890   -1.9851   -0.0112 H   0  0  0  0  0  0  0  0  0  0  0  0
    2.9648    0.6549    1.0631 H   0  0  0  0  0  0  0  0  0  0  0  0
    3.0903   -0.9848    1.7364 H   0  0  0  0  0  0  0  0  0  0  0  0
    4.8684    1.6554   -0.1683 H   0  0  0  0  0  0  0  0  0  0  0  0
    7.3054    1.6985   -0.5252 H   0  0  0  0  0  0  0  0  0  0  0  0
    8.6920   -0.2387    0.1431 H   0  0  0  0  0  0  0  0  0  0  0  0
    7.6245   -2.2215    1.1687 H   0  0  0  0  0  0  0  0  0  0  0  0
    5.1861   -2.2669    1.5226 H   0  0  0  0  0  0  0  0  0  0  0  0
 10 11  1  0
 10  9  1  0
  8  9  2  0
  8  7  1  0
  9 12  1  0
  7  6  2  0
 12 13  2  0
  6 13  1  0
  6  5  1  0
 13 14  1  0
  4  5  1  0
  4  2  1  0
  5 15  1  0
  2  1  2  0
  2  3  1  0
 14 15  2  0
 15 16  1  0
 16 17  2  0
 16 18  1  0
 19 18  1  1
 19 20  2  0
 19 21  2  0
 19 22  1  0
 22 23  1  0
 23 24  2  0
 23 28  1  0
 24 25  1  0
 28 27  2  0
 25 26  2  0
 27 26  1  0
  3 29  1  0
  4 30  1  0
  4 31  1  0
  7 32  1  0
  8 33  1  0
 11 34  1  0
 11 35  1  0
 11 36  1  0
 12 37  1  0
 14 38  1  0
 18 39  1  0
 22 40  1  0
 22 41  1  0
 24 42  1  0
 25 43  1  0
 26 44  1  0
 27 45  1  0
 28 46  1  0
M  END
