
     RDKit          3D

 25 25  0  0  0  0  0  0  0  0999 V2000
    4.5276   -1.4585    0.4271 C   0  0  0  0  0  0  0  0  0  0  0  0
    5.4428   -0.6282   -0.2050 C   0  0  0  0  0  0  0  0  0  0  0  0
    5.0221    0.5773   -0.7553 C   0  0  0  0  0  0  0  0  0  0  0  0
    3.6918    0.9507   -0.6710 C   0  0  0  0  0  0  0  0  0  0  0  0
    2.7630    0.1228   -0.0366 C   0  0  0  0  0  0  0  0  0  0  0  0
    3.1941   -1.0860    0.5100 C   0  0  0  0  0  0  0  0  0  0  0  0
    1.3413    0.5575    0.0311 C   0  0  0  0  0  0  0  0  0  0  0  0
    0.9910    1.6236   -0.4266 O   0  0  0  0  0  0  0  0  0  0  0  0
    0.3394   -0.3752    0.6781 C   0  0  0  0  0  0  0  0  0  0  0  0
   -1.0267    0.2133    0.7498 C   0  0  0  0  0  0  0  0  0  0  0  0
   -2.0995   -0.3260    0.1702 C   0  0  0  0  0  0  0  0  0  0  0  0
   -3.4436    0.2783    0.2989 C   0  0  0  0  0  0  0  0  0  0  0  0
   -3.6351    1.2995    0.9255 O   0  0  0  0  0  0  0  0  0  0  0  0
   -4.6259   -0.4492   -0.4048 C   0  0  0  0  0  0  0  0  0  0  0  0
   -4.3291   -1.4808   -1.0330 O   0  0  0  0  0  0  0  0  0  0  0  0
   -5.7369    0.0773   -0.2610 O   0  0  0  0  0  0  0  0  0  0  0  0
    4.8506   -2.3972    0.8567 H   0  0  0  0  0  0  0  0  0  0  0  0
    6.4833   -0.9191   -0.2687 H   0  0  0  0  0  0  0  0  0  0  0  0
    5.7333    1.2256   -1.2497 H   0  0  0  0  0  0  0  0  0  0  0  0
    3.3704    1.8903   -1.1001 H   0  0  0  0  0  0  0  0  0  0  0  0
    2.4998   -1.7490    1.0089 H   0  0  0  0  0  0  0  0  0  0  0  0
    0.3323   -1.3219    0.1299 H   0  0  0  0  0  0  0  0  0  0  0  0
    0.6881   -0.6131    1.6892 H   0  0  0  0  0  0  0  0  0  0  0  0
   -1.1343    1.1208    1.3359 H   0  0  0  0  0  0  0  0  0  0  0  0
   -2.0104   -1.2315   -0.4151 H   0  0  0  0  0  0  0  0  0  0  0  0
  1  6  2  0
  1  2  1  0
  1 17  1  0
  2  3  2  0
  2 18  1  0
  3  4  1  0
  3 19  1  0
  4  5  2  0
  4 20  1  0
  5  7  1  0
  5  6  1  0
  6 21  1  0
  7  8  2  0
  7  9  1  0
  9 10  1  0
  9 22  1  0
  9 23  1  0
 10 11  2  0
 10 24  1  0
 11 12  1  0
 11 25  1  0
 12 14  1  0
 12 13  2  0
 14 16  2  0
 14 15  1  0
M  CHG  1  15  -1
M  END
