
     RDKit          3D

 31 32  0  0  0  0  0  0  0  0999 V2000
    3.5534    1.4004   -1.2043 C   0  0  0  0  0  0  0  0  0  0  0  0
    2.3482    2.0596   -1.3718 C   0  0  0  0  0  0  0  0  0  0  0  0
    2.5261    0.0101    0.4493 C   0  0  0  0  0  0  0  0  0  0  0  0
    3.6438    0.3778   -0.2737 C   0  0  0  0  0  0  0  0  0  0  0  0
   -1.6021   -0.3944   -0.4687 C   0  0  0  0  0  0  0  0  0  0  0  0
   -1.1548    0.2263    0.7026 C   0  0  0  0  0  0  0  0  0  0  0  0
    1.2435    1.7012   -0.6162 C   0  0  0  0  0  0  0  0  0  0  0  0
   -2.0843    0.7771    1.5743 C   0  0  0  0  0  0  0  0  0  0  0  0
   -3.4416    0.7382    1.3031 C   0  0  0  0  0  0  0  0  0  0  0  0
   -3.8872    0.1554    0.1221 C   0  0  0  0  0  0  0  0  0  0  0  0
    2.6712   -1.3020    1.5770 Cl  0  0  0  0  0  0  0  0  0  0  0  0
   -0.1981    2.6416   -0.8121 Cl  0  0  0  0  0  0  0  0  0  0  0  0
    1.2778    0.6440    0.3075 C   0  0  0  0  0  0  0  0  0  0  0  0
    0.2087    0.2544    1.0738 N   0  0  0  0  0  0  0  0  0  0  0  0
   -5.1900    0.0988   -0.2220 O   0  0  0  0  0  0  0  0  0  0  0  0
   -2.9606   -0.4061   -0.7516 C   0  0  0  0  0  0  0  0  0  0  0  0
    0.1114   -2.1934   -0.8031 C   0  0  0  0  0  0  0  0  0  0  0  0
    1.2425   -2.4395   -1.4519 O   0  0  0  0  0  0  0  0  0  0  0  0
   -0.2718   -2.8426    0.1356 O   0  0  0  0  0  0  0  0  0  0  0  0
    4.4175    1.6868   -1.7868 H   0  0  0  0  0  0  0  0  0  0  0  0
    2.2637    2.8736   -2.0786 H   0  0  0  0  0  0  0  0  0  0  0  0
    4.5773   -0.1457   -0.1198 H   0  0  0  0  0  0  0  0  0  0  0  0
   -1.2100   -1.4691   -2.2648 H   0  0  0  0  0  0  0  0  0  0  0  0
    0.0442   -0.3348   -1.8742 H   0  0  0  0  0  0  0  0  0  0  0  0
   -1.7368    1.2525    2.4827 H   0  0  0  0  0  0  0  0  0  0  0  0
   -4.1440    1.1751    2.0036 H   0  0  0  0  0  0  0  0  0  0  0  0
    0.4393   -0.3093    1.8771 H   0  0  0  0  0  0  0  0  0  0  0  0
   -5.7349    0.4996    0.4641 H   0  0  0  0  0  0  0  0  0  0  0  0
   -3.3122   -0.8771   -1.6621 H   0  0  0  0  0  0  0  0  0  0  0  0
    1.6908   -3.2022   -1.0567 H   0  0  0  0  0  0  0  0  0  0  0  0
   -0.6495   -1.0476   -1.4242 C   0  0  0  0  0  0  0  0  0  0  0  0
  2  1  2  0
  2  7  1  0
  1  4  1  0
 12  7  1  0
  7 13  2  0
  4  3  2  0
 13  3  1  0
 13 14  1  0
  3 11  1  0
 14  6  1  0
  8  6  1  0
  8  9  2  0
  6  5  2  0
 19 17  2  0
 18 17  1  0
  9 10  1  0
 17 31  1  0
  5 31  1  0
  5 16  1  0
 10 16  2  0
 10 15  1  0
  1 20  1  0
  2 21  1  0
  4 22  1  0
 31 23  1  0
 31 24  1  0
  8 25  1  0
  9 26  1  0
 14 27  1  0
 15 28  1  0
 16 29  1  0
 18 30  1  0
M  END
