
     RDKit          3D

 36 38  0  0  0  0  0  0  0  0999 V2000
    6.1662   -0.6437   -0.2273 C   0  0  0  0  0  0  0  0  0  0  0  0
    4.7733   -0.0928   -0.1775 C   0  0  0  0  0  0  0  0  0  0  0  0
    4.5044    1.2725   -0.1085 C   0  0  0  0  0  0  0  0  0  0  0  0
    3.2150    1.7694   -0.0706 C   0  0  0  0  0  0  0  0  0  0  0  0
    2.1138    0.9053   -0.0989 C   0  0  0  0  0  0  0  0  0  0  0  0
    2.3513   -0.4694   -0.1657 C   0  0  0  0  0  0  0  0  0  0  0  0
    3.6585   -0.9129   -0.2041 C   0  0  0  0  0  0  0  0  0  0  0  0
    3.8541   -2.2438   -0.2753 F   0  0  0  0  0  0  0  0  0  0  0  0
    0.8564    1.4883   -0.0647 N   0  0  0  0  0  0  0  0  0  0  0  0
   -0.3922    0.9327   -0.0530 C   0  0  0  0  0  0  0  0  0  0  0  0
   -1.4926    1.8339   -0.0379 C   0  0  0  0  0  0  0  0  0  0  0  0
   -2.7709    1.3667   -0.0255 C   0  0  0  0  0  0  0  0  0  0  0  0
   -2.9811   -0.0554   -0.0248 C   0  0  0  0  0  0  0  0  0  0  0  0
   -1.8091   -0.8691   -0.0423 C   0  0  0  0  0  0  0  0  0  0  0  0
   -0.5523   -0.3599   -0.0563 N   0  0  0  0  0  0  0  0  0  0  0  0
   -1.9146   -2.2725   -0.0458 C   0  0  0  0  0  0  0  0  0  0  0  0
   -3.1488   -2.8675   -0.0320 C   0  0  0  0  0  0  0  0  0  0  0  0
   -4.3118   -2.0961   -0.0138 C   0  0  0  0  0  0  0  0  0  0  0  0
   -4.2435   -0.7169   -0.0097 C   0  0  0  0  0  0  0  0  0  0  0  0
   -5.4360   -0.0893    0.0086 O   0  0  0  0  0  0  0  0  0  0  0  0
   -3.8764    2.3834   -0.0177 C   0  0  0  0  0  0  0  0  0  0  0  0
    6.3551   -1.3507    0.5817 H   0  0  0  0  0  0  0  0  0  0  0  0
    6.3609   -1.1677   -1.1645 H   0  0  0  0  0  0  0  0  0  0  0  0
    6.8966    0.1590   -0.1416 H   0  0  0  0  0  0  0  0  0  0  0  0
    5.3326    1.9698   -0.0843 H   0  0  0  0  0  0  0  0  0  0  0  0
    3.0594    2.8404   -0.0189 H   0  0  0  0  0  0  0  0  0  0  0  0
    1.5390   -1.1778   -0.1880 H   0  0  0  0  0  0  0  0  0  0  0  0
    0.8686    2.4961   -0.0466 H   0  0  0  0  0  0  0  0  0  0  0  0
   -1.3108    2.9018   -0.0397 H   0  0  0  0  0  0  0  0  0  0  0  0
   -4.5137    2.3077   -0.9019 H   0  0  0  0  0  0  0  0  0  0  0  0
   -4.4951    2.3163    0.8808 H   0  0  0  0  0  0  0  0  0  0  0  0
   -3.4639    3.3899   -0.0262 H   0  0  0  0  0  0  0  0  0  0  0  0
   -1.0055   -2.8586   -0.0589 H   0  0  0  0  0  0  0  0  0  0  0  0
   -3.2321   -3.9466   -0.0344 H   0  0  0  0  0  0  0  0  0  0  0  0
   -5.2838   -2.5724   -0.0019 H   0  0  0  0  0  0  0  0  0  0  0  0
   -5.3608    0.8679    0.0219 H   0  0  0  0  0  0  0  0  0  0  0  0
  1  2  1  0
  2  3  2  0
  2  7  1  0
  3  4  1  0
  4  5  2  0
  5  6  1  0
  5  9  1  0
  6  7  2  0
  7  8  1  0
  9 10  1  0
 10 11  2  0
 10 15  1  0
 11 12  1  0
 12 13  2  0
 12 21  1  0
 13 14  1  0
 13 19  1  0
 14 15  2  0
 14 16  1  0
 16 17  2  0
 17 18  1  0
 18 19  2  0
 19 20  1  0
  1 22  1  0
  1 23  1  0
  1 24  1  0
  3 25  1  0
  4 26  1  0
  6 27  1  0
  9 28  1  0
 11 29  1  0
 21 30  1  0
 21 31  1  0
 21 32  1  0
 16 33  1  0
 17 34  1  0
 18 35  1  0
 20 36  1  0
M  END
