
     RDKit          3D

 24 24  0  0  0  0  0  0  0  0999 V2000
   -2.9921   -1.0492   -1.0358 O   0  0  0  0  0  0  0  0  0  0  0  0
   -2.6211    0.0978   -0.2220 S   0  0  1  0  0  0  0  0  0  0  0  0
   -2.9679    1.4324   -0.6878 O   0  0  0  0  0  0  0  0  0  0  0  0
   -3.2274   -0.2200    1.2879 N   0  0  0  0  0  0  0  0  0  0  0  0
   -0.8823    0.0621    0.0860 C   0  0  0  0  0  0  0  0  0  0  0  0
   -0.2530   -1.1655    0.2442 C   0  0  0  0  0  0  0  0  0  0  0  0
   -0.1645    1.2467    0.1418 C   0  0  0  0  0  0  0  0  0  0  0  0
    1.2026    1.1937    0.3617 C   0  0  0  0  0  0  0  0  0  0  0  0
    1.8607   -0.0231    0.5166 C   0  0  0  0  0  0  0  0  0  0  0  0
    1.1133   -1.1981    0.4568 C   0  0  0  0  0  0  0  0  0  0  0  0
    3.3505   -0.0661    0.6882 C   0  0  0  0  0  0  0  0  0  0  0  0
    4.0503    0.0563   -0.6590 C   0  0  0  0  0  0  0  0  0  0  0  0
    5.4381    0.0093   -0.4417 O   0  0  0  0  0  0  0  0  0  0  0  0
   -3.1842    0.5822    1.9054 H   0  0  0  0  0  0  0  0  0  0  0  0
   -4.1819   -0.5582    1.2321 H   0  0  0  0  0  0  0  0  0  0  0  0
   -0.8133   -2.0894    0.2001 H   0  0  0  0  0  0  0  0  0  0  0  0
   -0.6528    2.2023    0.0131 H   0  0  0  0  0  0  0  0  0  0  0  0
    1.7630    2.1190    0.4107 H   0  0  0  0  0  0  0  0  0  0  0  0
    1.6054   -2.1546    0.5785 H   0  0  0  0  0  0  0  0  0  0  0  0
    3.6779    0.7486    1.3383 H   0  0  0  0  0  0  0  0  0  0  0  0
    3.6483   -1.0019    1.1658 H   0  0  0  0  0  0  0  0  0  0  0  0
    3.7115   -0.7556   -1.3158 H   0  0  0  0  0  0  0  0  0  0  0  0
    3.7445    0.9960   -1.1376 H   0  0  0  0  0  0  0  0  0  0  0  0
    5.8732    0.1281   -1.2883 H   0  0  0  0  0  0  0  0  0  0  0  0
 13 12  1  0
 12 11  1  0
 11  9  1  0
  9 10  2  0
  9  8  1  0
 10  6  1  0
  8  7  2  0
  6  5  2  0
  7  5  1  0
  5  2  1  0
  2  4  1  1
  1  2  2  0
  2  3  2  0
  4 14  1  0
  4 15  1  0
  6 16  1  0
  7 17  1  0
  8 18  1  0
 10 19  1  0
 11 20  1  0
 11 21  1  0
 12 22  1  0
 12 23  1  0
 13 24  1  0
M  END
