
     RDKit          3D

 48 49  0  0  0  0  0  0  0  0999 V2000
   -1.4512   -2.7995   -1.5761 C   0  0  0  0  0  0  0  0  0  0  0  0
   -2.8083   -2.9801   -1.7912 C   0  0  0  0  0  0  0  0  0  0  0  0
   -3.7005   -2.0018   -1.3765 C   0  0  0  0  0  0  0  0  0  0  0  0
   -4.8082    0.1876    0.8150 N   0  0  0  0  0  0  0  0  0  0  0  0
   -4.4313   -0.8068    1.6255 O   0  0  0  0  0  0  0  0  0  0  0  0
   -5.0932   -0.7100    2.8819 C   0  0  0  0  0  0  0  0  0  0  0  0
   -0.9863   -1.6492   -0.9516 C   0  0  0  0  0  0  0  0  0  0  0  0
   -1.8730   -0.6628   -0.5314 C   0  0  0  0  0  0  0  0  0  0  0  0
   -3.2396   -0.8483   -0.7558 C   0  0  0  0  0  0  0  0  0  0  0  0
   -4.2256    0.1685   -0.3175 C   0  0  0  0  0  0  0  0  0  0  0  0
   -4.5669    1.2539   -1.2781 C   0  0  0  0  0  0  0  0  0  0  0  0
   -5.5133    2.0606   -0.8469 O   0  0  0  0  0  0  0  0  0  0  0  0
   -5.8901    3.1431   -1.7010 C   0  0  0  0  0  0  0  0  0  0  0  0
   -4.0040    1.3564   -2.3400 O   0  0  0  0  0  0  0  0  0  0  0  0
    6.9000    0.0593    0.2993 F   0  0  0  0  0  0  0  0  0  0  0  0
   -1.4083    0.6065    0.1278 C   0  0  0  0  0  0  0  0  0  0  0  0
   -0.0312    0.5000    0.4035 O   0  0  0  0  0  0  0  0  0  0  0  0
    0.4100    1.6347    1.0228 N   0  0  0  0  0  0  0  0  0  0  0  0
    1.6451    1.5996    1.3258 C   0  0  0  0  0  0  0  0  0  0  0  0
    2.5485    0.4472    1.0845 C   0  0  0  0  0  0  0  0  0  0  0  0
    3.7348    0.6481    0.3862 C   0  0  0  0  0  0  0  0  0  0  0  0
    4.6040   -0.4115    0.1616 C   0  0  0  0  0  0  0  0  0  0  0  0
    5.8962   -0.1817   -0.5583 C   0  0  1  0  0  0  0  0  0  0  0  0
    5.8396    0.8651   -1.3884 F   0  0  0  0  0  0  0  0  0  0  0  0
    2.2176    2.8122    1.9871 C   0  0  0  0  0  0  0  0  0  0  0  0
    2.2518   -0.8249    1.5701 C   0  0  0  0  0  0  0  0  0  0  0  0
    3.1309   -1.8749    1.3598 C   0  0  0  0  0  0  0  0  0  0  0  0
    4.3067   -1.6767    0.6523 C   0  0  0  0  0  0  0  0  0  0  0  0
    6.2620   -1.2426   -1.2871 F   0  0  0  0  0  0  0  0  0  0  0  0
   -0.7451   -3.5554   -1.8942 H   0  0  0  0  0  0  0  0  0  0  0  0
   -3.1735   -3.8755   -2.2760 H   0  0  0  0  0  0  0  0  0  0  0  0
   -4.7627   -2.1351   -1.5391 H   0  0  0  0  0  0  0  0  0  0  0  0
   -4.8323    0.2150    3.3971 H   0  0  0  0  0  0  0  0  0  0  0  0
   -6.1758   -0.7716    2.7653 H   0  0  0  0  0  0  0  0  0  0  0  0
   -4.7451   -1.5580    3.4662 H   0  0  0  0  0  0  0  0  0  0  0  0
    0.0765   -1.5306   -0.7924 H   0  0  0  0  0  0  0  0  0  0  0  0
   -6.6700    3.6802   -1.1702 H   0  0  0  0  0  0  0  0  0  0  0  0
   -5.0503    3.8123   -1.8857 H   0  0  0  0  0  0  0  0  0  0  0  0
   -6.2809    2.7820   -2.6516 H   0  0  0  0  0  0  0  0  0  0  0  0
   -1.5987    1.4596   -0.5356 H   0  0  0  0  0  0  0  0  0  0  0  0
   -1.9680    0.7824    1.0532 H   0  0  0  0  0  0  0  0  0  0  0  0
    3.9686    1.6349    0.0088 H   0  0  0  0  0  0  0  0  0  0  0  0
    2.6224    2.5562    2.9673 H   0  0  0  0  0  0  0  0  0  0  0  0
    3.0396    3.2261    1.4008 H   0  0  0  0  0  0  0  0  0  0  0  0
    1.4615    3.5851    2.1085 H   0  0  0  0  0  0  0  0  0  0  0  0
    1.3403   -0.9976    2.1255 H   0  0  0  0  0  0  0  0  0  0  0  0
    2.8964   -2.8578    1.7452 H   0  0  0  0  0  0  0  0  0  0  0  0
    4.9771   -2.5105    0.4916 H   0  0  0  0  0  0  0  0  0  0  0  0
  1  2  2  0
  1  7  1  0
  2  3  1  0
  3  9  2  0
  4  5  1  0
  4 10  2  0
  5  6  1  0
  7  8  2  0
  8  9  1  0
  8 16  1  0
  9 10  1  0
 10 11  1  0
 11 12  1  0
 11 14  2  0
 12 13  1  0
 23 15  1  1
 16 17  1  0
 17 18  1  0
 18 19  2  0
 19 20  1  0
 19 25  1  0
 20 21  2  0
 20 26  1  0
 21 22  1  0
 22 23  1  0
 22 28  2  0
 23 24  1  0
 23 29  1  0
 26 27  2  0
 27 28  1  0
  1 30  1  0
  2 31  1  0
  3 32  1  0
  6 33  1  0
  6 34  1  0
  6 35  1  0
  7 36  1  0
 13 37  1  0
 13 38  1  0
 13 39  1  0
 16 40  1  0
 16 41  1  0
 21 42  1  0
 25 43  1  0
 25 44  1  0
 25 45  1  0
 26 46  1  0
 27 47  1  0
 28 48  1  0
M  END
