
     RDKit          3D

 43 46  0  0  0  0  0  0  0  0999 V2000
   -0.2304    1.6396   -0.2909 N   0  0  0  0  0  0  0  0  0  0  0  0
   -5.7070   -1.4260   -0.6823 N   0  0  0  0  0  0  0  0  0  0  0  0
    2.0265    0.5825   -0.2082 C   0  0  0  0  0  0  0  0  0  0  0  0
    0.6395    0.5894   -0.1207 C   0  0  0  0  0  0  0  0  0  0  0  0
   -0.0908   -0.5771    0.1767 C   0  0  0  0  0  0  0  0  0  0  0  0
   -1.5083    1.1890   -0.0856 C   0  0  0  0  0  0  0  0  0  0  0  0
   -1.4756   -0.1934    0.1973 C   0  0  0  0  0  0  0  0  0  0  0  0
   -3.8634   -0.1911    0.3901 C   0  0  0  0  0  0  0  0  0  0  0  0
    0.1537    3.0191   -0.5006 C   0  0  0  0  0  0  0  0  0  0  0  0
    4.1498   -0.6674   -0.0819 C   0  0  0  0  0  0  0  0  0  0  0  0
    5.0393    0.2957   -0.6365 C   0  0  0  0  0  0  0  0  0  0  0  0
    0.5884   -1.7751    0.3807 C   0  0  0  0  0  0  0  0  0  0  0  0
    1.9654   -1.7909    0.2880 C   0  0  0  0  0  0  0  0  0  0  0  0
    2.6922   -0.6207   -0.0020 C   0  0  0  0  0  0  0  0  0  0  0  0
   -2.6599   -0.8807    0.4318 C   0  0  0  0  0  0  0  0  0  0  0  0
   -3.8741    1.1854    0.1161 C   0  0  0  0  0  0  0  0  0  0  0  0
   -2.7100    1.8917   -0.1211 C   0  0  0  0  0  0  0  0  0  0  0  0
    0.4246    3.7565    0.8013 C   0  0  0  0  0  0  0  0  0  0  0  0
    5.0057   -1.6298    0.3506 C   0  0  0  0  0  0  0  0  0  0  0  0
    6.2620   -1.2839    0.0832 O   0  0  0  0  0  0  0  0  0  0  0  0
    6.2785   -0.0734   -0.5380 N   0  0  0  0  0  0  0  0  0  0  0  0
   -5.1515   -0.9179    0.6111 C   0  0  0  0  0  0  0  0  0  0  0  0
   -6.9858   -2.1574   -0.5372 C   0  0  0  0  0  0  0  0  0  0  0  0
   -5.8358   -0.6434   -1.3249 H   0  0  0  0  0  0  0  0  0  0  0  0
   -5.0186   -2.0318   -1.1310 H   0  0  0  0  0  0  0  0  0  0  0  0
    2.5741    1.4923   -0.4196 H   0  0  0  0  0  0  0  0  0  0  0  0
    1.0346    3.0329   -1.1426 H   0  0  0  0  0  0  0  0  0  0  0  0
   -0.6393    3.5114   -1.0638 H   0  0  0  0  0  0  0  0  0  0  0  0
    4.8026    1.2368   -1.1106 H   0  0  0  0  0  0  0  0  0  0  0  0
    0.0506   -2.6867    0.6089 H   0  0  0  0  0  0  0  0  0  0  0  0
    2.4921   -2.7246    0.4360 H   0  0  0  0  0  0  0  0  0  0  0  0
   -2.6447   -1.9419    0.6533 H   0  0  0  0  0  0  0  0  0  0  0  0
   -4.8188    1.7156    0.0982 H   0  0  0  0  0  0  0  0  0  0  0  0
   -2.7468    2.9549   -0.3179 H   0  0  0  0  0  0  0  0  0  0  0  0
    0.6911    4.7927    0.5952 H   0  0  0  0  0  0  0  0  0  0  0  0
   -0.4560    3.7552    1.4437 H   0  0  0  0  0  0  0  0  0  0  0  0
    1.2486    3.3006    1.3509 H   0  0  0  0  0  0  0  0  0  0  0  0
    4.8618   -2.5735    0.8542 H   0  0  0  0  0  0  0  0  0  0  0  0
   -5.9179   -0.2771    1.0438 H   0  0  0  0  0  0  0  0  0  0  0  0
   -5.0251   -1.7862    1.2555 H   0  0  0  0  0  0  0  0  0  0  0  0
   -6.8233   -3.0205    0.1002 H   0  0  0  0  0  0  0  0  0  0  0  0
   -7.7181   -1.4922   -0.0905 H   0  0  0  0  0  0  0  0  0  0  0  0
   -7.3193   -2.4753   -1.5192 H   0  0  0  0  0  0  0  0  0  0  0  0
 21 11  2  0
 21 20  1  0
 11 10  1  0
 20 19  1  0
 10 19  2  0
 10 14  1  0
 13 14  2  0
 13 12  1  0
 14  3  1  0
 12  5  2  0
  3  4  2  0
  5  4  1  0
  5  7  1  0
  4  1  1  0
  7 15  1  0
  7  6  2  0
 15  8  2  0
  1  6  1  0
  1  9  1  0
  6 17  1  0
  9 18  1  0
  8 22  1  0
  8 16  1  0
 22  2  1  0
  2 23  1  0
 17 16  2  0
  2 24  1  0
  2 25  1  0
  3 26  1  0
  9 27  1  0
  9 28  1  0
 11 29  1  0
 12 30  1  0
 13 31  1  0
 15 32  1  0
 16 33  1  0
 17 34  1  0
 18 35  1  0
 18 36  1  0
 18 37  1  0
 19 38  1  0
 22 39  1  0
 22 40  1  0
 23 41  1  0
 23 42  1  0
 23 43  1  0
M  CHG  1   2   1
M  END
