
     RDKit          3D

 35 36  0  0  0  0  0  0  0  0999 V2000
   -2.5088   -3.0538    0.5050 O   0  0  0  0  0  0  0  0  0  0  0  0
   -1.6014   -2.1802    0.1046 C   0  0  0  0  0  0  0  0  0  0  0  0
   -0.4835   -2.4554   -0.2325 O   0  0  0  0  0  0  0  0  0  0  0  0
   -2.1555   -0.7879    0.1061 C   0  0  0  0  0  0  0  0  0  0  0  0
   -3.5076   -0.7063   -0.1139 N   0  0  0  0  0  0  0  0  0  0  0  0
   -4.2034    0.4649   -0.1809 C   0  0  0  0  0  0  0  0  0  0  0  0
   -5.3963    0.5201   -0.3931 O   0  0  0  0  0  0  0  0  0  0  0  0
   -3.4237    1.5746    0.0132 N   0  0  0  0  0  0  0  0  0  0  0  0
   -2.0671    1.6103    0.2576 C   0  0  0  0  0  0  0  0  0  0  0  0
   -1.5003    2.6739    0.4157 O   0  0  0  0  0  0  0  0  0  0  0  0
   -1.3933    0.3089    0.3054 C   0  0  0  0  0  0  0  0  0  0  0  0
    0.0796    0.3384    0.5790 C   0  0  0  0  0  0  0  0  0  0  0  0
    0.9018    0.6162   -0.6906 C   0  0  0  0  0  0  0  0  0  0  0  0
    2.3574    0.8258   -0.3792 C   0  0  0  0  0  0  0  0  0  0  0  0
    2.8676    2.1087   -0.2370 C   0  0  0  0  0  0  0  0  0  0  0  0
    4.2009    2.3389    0.0845 C   0  0  0  0  0  0  0  0  0  0  0  0
    5.0446    1.2568    0.2668 C   0  0  0  0  0  0  0  0  0  0  0  0
    4.5643   -0.0418    0.1354 C   0  0  0  0  0  0  0  0  0  0  0  0
    3.2261   -0.2603   -0.1829 C   0  0  0  0  0  0  0  0  0  0  0  0
    2.6790   -1.4830   -0.3205 O   0  0  0  0  0  0  0  0  0  0  0  0
    3.4871   -2.6220   -0.1208 C   0  0  0  0  0  0  0  0  0  0  0  0
   -2.1587   -3.9573    0.4580 H   0  0  0  0  0  0  0  0  0  0  0  0
   -3.9011    2.4667   -0.0330 H   0  0  0  0  0  0  0  0  0  0  0  0
    0.2706    1.1337    1.3015 H   0  0  0  0  0  0  0  0  0  0  0  0
    0.4134   -0.5896    1.0363 H   0  0  0  0  0  0  0  0  0  0  0  0
    0.7637   -0.2083   -1.3903 H   0  0  0  0  0  0  0  0  0  0  0  0
    0.5175    1.5143   -1.1780 H   0  0  0  0  0  0  0  0  0  0  0  0
    2.1997    2.9502   -0.3828 H   0  0  0  0  0  0  0  0  0  0  0  0
    4.5705    3.3504    0.1876 H   0  0  0  0  0  0  0  0  0  0  0  0
    6.0874    1.4113    0.5125 H   0  0  0  0  0  0  0  0  0  0  0  0
    5.2454   -0.8693    0.2818 H   0  0  0  0  0  0  0  0  0  0  0  0
    3.8997   -2.6601    0.8910 H   0  0  0  0  0  0  0  0  0  0  0  0
    2.8428   -3.4854   -0.2678 H   0  0  0  0  0  0  0  0  0  0  0  0
    4.3124   -2.6728   -0.8365 H   0  0  0  0  0  0  0  0  0  0  0  0
   -4.0422   -1.5503   -0.2654 H   0  0  0  0  0  0  0  0  0  0  0  0
 15 16  2  0
 15 14  1  0
 16 17  1  0
 13 14  1  0
 13 12  1  0
 14 19  2  0
 17 18  2  0
 19 18  1  0
 19 20  1  0
 20 21  1  0
 12 11  1  0
 10  9  2  0
 11  9  1  0
 11  4  2  0
  9  8  1  0
  4  2  1  0
  4  5  1  0
  3  2  2  0
  2  1  1  0
  8  6  1  0
  5  6  1  0
  6  7  2  0
  1 22  1  0
  8 23  1  0
 12 24  1  0
 12 25  1  0
 13 26  1  0
 13 27  1  0
 15 28  1  0
 16 29  1  0
 17 30  1  0
 18 31  1  0
 21 32  1  0
 21 33  1  0
 21 34  1  0
  5 35  1  0
M  END
