
     RDKit          3D

 51 54  0  0  0  0  0  0  0  0999 V2000
   -5.3855    3.2274    0.6140 C   0  0  0  0  0  0  0  0  0  0  0  0
    4.9956   -2.6775    0.8689 C   0  0  0  0  0  0  0  0  0  0  0  0
    4.9619    2.1484    1.7996 C   0  0  0  0  0  0  0  0  0  0  0  0
    3.2571   -2.8351   -2.2649 C   0  0  0  0  0  0  0  0  0  0  0  0
    5.3713    2.7394    0.6132 C   0  0  0  0  0  0  0  0  0  0  0  0
    4.1261    1.0400    1.7847 C   0  0  0  0  0  0  0  0  0  0  0  0
   -1.2250    0.9916    0.2442 C   0  0  0  0  0  0  0  0  0  0  0  0
   -2.4897    1.4805   -0.0244 C   0  0  0  0  0  0  0  0  0  0  0  0
    4.2513   -3.2914   -1.4501 C   0  0  0  0  0  0  0  0  0  0  0  0
    4.0986    1.0885   -0.6206 C   0  0  0  0  0  0  0  0  0  0  0  0
   -2.0801   -1.2425    0.2443 C   0  0  0  0  0  0  0  0  0  0  0  0
   -5.1050    2.4957   -0.6873 C   0  0  0  0  0  0  0  0  0  0  0  0
    4.9262    2.1925   -0.5752 C   0  0  0  0  0  0  0  0  0  0  0  0
   -1.0037   -0.3773    0.3693 C   0  0  0  0  0  0  0  0  0  0  0  0
    3.6923    0.5071    0.5767 C   0  0  0  0  0  0  0  0  0  0  0  0
    3.1279   -1.6922   -0.4729 C   0  0  0  0  0  0  0  0  0  0  0  0
   -5.6836   -1.2616   -0.3920 C   0  0  0  0  0  0  0  0  0  0  0  0
   -5.9292    0.2314   -0.5417 C   0  0  0  0  0  0  0  0  0  0  0  0
   -3.3468   -0.7572   -0.0349 C   0  0  0  0  0  0  0  0  0  0  0  0
   -3.5711    0.6156   -0.1860 C   0  0  0  0  0  0  0  0  0  0  0  0
    2.7449   -0.6754    0.5638 C   0  0  2  0  0  0  0  0  0  0  0  0
    5.3145    2.7520   -1.7316 F   0  0  0  0  0  0  0  0  0  0  0  0
    2.5635   -1.8353   -1.6446 N   0  0  0  0  0  0  0  0  0  0  0  0
    1.3977   -0.1991    0.3555 N   0  0  0  0  0  0  0  0  0  0  0  0
   -4.4094   -1.6311   -0.1662 N   0  0  0  0  0  0  0  0  0  0  0  0
    4.1591   -2.5495   -0.3046 N   0  0  0  0  0  0  0  0  0  0  0  0
   -4.8543    1.0661   -0.4866 N   0  0  0  0  0  0  0  0  0  0  0  0
    0.4473   -2.0602    1.1968 O   0  0  0  0  0  0  0  0  0  0  0  0
   -7.0639    0.6144   -0.7248 O   0  0  0  0  0  0  0  0  0  0  0  0
   -5.5499    4.2846    0.4081 H   0  0  0  0  0  0  0  0  0  0  0  0
   -6.2789    2.8367    1.1002 H   0  0  0  0  0  0  0  0  0  0  0  0
   -4.5543    3.1483    1.3139 H   0  0  0  0  0  0  0  0  0  0  0  0
    4.4145   -3.0099    1.7279 H   0  0  0  0  0  0  0  0  0  0  0  0
    5.7687   -3.4139    0.6726 H   0  0  0  0  0  0  0  0  0  0  0  0
    5.4761   -1.7301    1.1078 H   0  0  0  0  0  0  0  0  0  0  0  0
    3.0055   -3.1735   -3.2580 H   0  0  0  0  0  0  0  0  0  0  0  0
    6.0247    3.6017    0.6112 H   0  0  0  0  0  0  0  0  0  0  0  0
    3.8147    0.5860    2.7169 H   0  0  0  0  0  0  0  0  0  0  0  0
   -0.4244    1.7056    0.3823 H   0  0  0  0  0  0  0  0  0  0  0  0
   -2.6174    2.5501   -0.0942 H   0  0  0  0  0  0  0  0  0  0  0  0
    4.9962   -4.0598   -1.5743 H   0  0  0  0  0  0  0  0  0  0  0  0
    3.7802    0.6880   -1.5758 H   0  0  0  0  0  0  0  0  0  0  0  0
   -1.9375   -2.3101    0.3553 H   0  0  0  0  0  0  0  0  0  0  0  0
   -5.9481    2.5898   -1.3662 H   0  0  0  0  0  0  0  0  0  0  0  0
   -4.2480    2.9213   -1.2051 H   0  0  0  0  0  0  0  0  0  0  0  0
    2.7787   -1.1471    1.5505 H   0  0  0  0  0  0  0  0  0  0  0  0
    1.2755    0.5871   -0.2634 H   0  0  0  0  0  0  0  0  0  0  0  0
   -4.2269   -2.6222   -0.0657 H   0  0  0  0  0  0  0  0  0  0  0  0
   -6.6095   -2.0374   -0.4836 O   0  0  0  0  0  0  0  0  0  0  0  0
    0.3334   -0.9621    0.6744 C   0  0  0  0  0  0  0  0  0  0  0  0
    5.2991    2.5566    2.7428 H   0  0  0  0  0  0  0  0  0  0  0  0
 29 18  2  0
 49 17  2  0
  1 12  1  0
 18 17  1  0
 18 27  1  0
 17 25  1  0
 12 27  1  0
 27 20  1  0
 25 19  1  0
 20 19  2  0
 20  8  1  0
 19 11  1  0
  8  7  2  0
 11 14  2  0
  7 14  1  0
 14 50  1  0
 50 28  2  0
 50 24  1  0
 24 21  1  0
 21 15  1  0
 21 16  1  0
  6 15  1  0
  6  3  2  0
 15 10  2  0
  3  5  1  0
 10 13  1  0
  5 13  2  0
 13 22  1  0
 16 23  2  0
 16 26  1  0
 23  4  1  0
 26  2  1  0
 26  9  1  0
  4  9  2  0
  1 30  1  0
  1 31  1  0
  1 32  1  0
  2 33  1  0
  2 34  1  0
  2 35  1  0
  3 51  1  0
  4 36  1  0
  5 37  1  0
  6 38  1  0
  7 39  1  0
  8 40  1  0
  9 41  1  0
 10 42  1  0
 11 43  1  0
 12 44  1  0
 12 45  1  0
 21 46  1  1
 24 47  1  0
 25 48  1  0
M  END
