
     RDKit          3D

 18 18  0  0  0  0  0  0  0  0999 V2000
   -2.7127   -0.3095   -0.3915 O   0  0  0  0  0  0  0  0  0  0  0  0
   -1.8303    0.5162   -0.2205 C   0  0  0  0  0  0  0  0  0  0  0  0
    1.6446    0.9733   -0.4017 C   0  0  0  0  0  0  0  0  0  0  0  0
    1.1402   -1.3629   -0.2472 C   0  0  0  0  0  0  0  0  0  0  0  0
    0.3918    1.3175    0.3863 C   0  0  0  0  0  0  0  0  0  0  0  0
   -0.1251   -1.0694    0.5428 C   0  0  0  0  0  0  0  0  0  0  0  0
    2.1254   -0.3304    0.0161 N   0  0  0  0  0  0  0  0  0  0  0  0
   -0.5961    0.2675    0.2335 N   0  0  0  0  0  0  0  0  0  0  0  0
   -1.9827    1.5863   -0.4327 H   0  0  0  0  0  0  0  0  0  0  0  0
    2.4101    1.7240   -0.1998 H   0  0  0  0  0  0  0  0  0  0  0  0
    1.5378   -2.3300    0.0650 H   0  0  0  0  0  0  0  0  0  0  0  0
    0.8784   -1.4440   -1.3138 H   0  0  0  0  0  0  0  0  0  0  0  0
    0.6442    1.4286    1.4451 H   0  0  0  0  0  0  0  0  0  0  0  0
   -0.0288    2.2628    0.0427 H   0  0  0  0  0  0  0  0  0  0  0  0
   -0.9044   -1.7900    0.3057 H   0  0  0  0  0  0  0  0  0  0  0  0
    0.0844   -1.1377    1.6150 H   0  0  0  0  0  0  0  0  0  0  0  0
    2.9865   -0.5492   -0.4662 H   0  0  0  0  0  0  0  0  0  0  0  0
    1.4108    1.0217   -1.4770 H   0  0  0  0  0  0  0  0  0  0  0  0
  1  2  2  0
  2  8  1  0
  3  5  1  0
  3  7  1  0
  4  6  1  0
  4  7  1  0
  5  8  1  0
  6  8  1  0
  2  9  1  0
  3 18  1  0
  3 10  1  0
  4 11  1  0
  4 12  1  0
  5 13  1  0
  5 14  1  0
  6 15  1  0
  6 16  1  0
  7 17  1  0
M  END
