
     RDKit          3D

 49 52  0  0  0  0  0  0  0  0999 V2000
    1.4844   -2.4246   -0.2099 C   0  0  0  0  0  0  0  0  0  0  0  0
    0.4227   -3.2807    0.0732 C   0  0  0  0  0  0  0  0  0  0  0  0
   -0.8679   -2.7562    0.1903 C   0  0  0  0  0  0  0  0  0  0  0  0
    3.3678    3.3000   -0.4637 C   0  0  0  0  0  0  0  0  0  0  0  0
    4.7487    2.6700    1.3301 C   0  0  0  0  0  0  0  0  0  0  0  0
    3.9462    1.4430    0.9467 C   0  0  0  0  0  0  0  0  0  0  0  0
    3.4167    1.7646   -0.4503 C   0  0  1  0  0  0  0  0  0  0  0  0
    2.0751    1.1392   -0.7806 C   0  0  1  0  0  0  0  0  0  0  0  0
    1.6005    1.4760   -2.1817 C   0  0  0  0  0  0  0  0  0  0  0  0
   -2.5104    0.5357   -0.4553 C   0  0  0  0  0  0  0  0  0  0  0  0
   -3.7285    1.1839   -0.4025 C   0  0  0  0  0  0  0  0  0  0  0  0
   -4.8191    0.5710    0.2512 C   0  0  0  0  0  0  0  0  0  0  0  0
   -4.6414   -0.6741    0.8318 C   0  0  0  0  0  0  0  0  0  0  0  0
   -3.4100   -1.3194    0.7668 C   0  0  0  0  0  0  0  0  0  0  0  0
   -2.9305    3.0511   -1.6184 C   0  0  0  0  0  0  0  0  0  0  0  0
   -7.1005    0.6880    0.8654 C   0  0  0  0  0  0  0  0  0  0  0  0
   -1.0185   -1.3917    0.0260 C   0  0  0  0  0  0  0  0  0  0  0  0
    0.0222   -0.5809   -0.2539 N   0  0  0  0  0  0  0  0  0  0  0  0
    1.2290   -1.0587   -0.3729 C   0  0  0  0  0  0  0  0  0  0  0  0
   -2.3347   -0.7302    0.1208 C   0  0  0  0  0  0  0  0  0  0  0  0
    2.9576   -3.3074   -0.3056 S   0  0  0  0  0  0  0  0  0  0  0  0
    2.0471   -4.7416    0.0332 C   0  0  0  0  0  0  0  0  0  0  0  0
    0.7791   -4.6007    0.2039 N   0  0  0  0  0  0  0  0  0  0  0  0
    4.4046    3.6520    0.4790 N   0  0  0  0  0  0  0  0  0  0  0  0
    5.5455    2.7610    2.2495 O   0  0  0  0  0  0  0  0  0  0  0  0
    2.2694   -0.2780   -0.6414 O   0  0  0  0  0  0  0  0  0  0  0  0
   -3.9801    2.3914   -0.9409 O   0  0  0  0  0  0  0  0  0  0  0  0
   -1.7056   -3.4115    0.3803 H   0  0  0  0  0  0  0  0  0  0  0  0
    3.5729    3.7168   -1.4491 H   0  0  0  0  0  0  0  0  0  0  0  0
    2.3914    3.6753   -0.1350 H   0  0  0  0  0  0  0  0  0  0  0  0
    4.5531    0.5402    0.9942 H   0  0  0  0  0  0  0  0  0  0  0  0
    3.1337    1.3332    1.6740 H   0  0  0  0  0  0  0  0  0  0  0  0
    4.1551    1.4414   -1.1916 H   0  0  0  0  0  0  0  0  0  0  0  0
    1.3330    1.4703   -0.0473 H   0  0  0  0  0  0  0  0  0  0  0  0
    0.6609    0.9774   -2.4168 H   0  0  0  0  0  0  0  0  0  0  0  0
    1.4307    2.5493   -2.2756 H   0  0  0  0  0  0  0  0  0  0  0  0
    2.3433    1.1877   -2.9271 H   0  0  0  0  0  0  0  0  0  0  0  0
   -1.6664    0.9933   -0.9518 H   0  0  0  0  0  0  0  0  0  0  0  0
   -5.4542   -1.1619    1.3518 H   0  0  0  0  0  0  0  0  0  0  0  0
   -3.3085   -2.2804    1.2530 H   0  0  0  0  0  0  0  0  0  0  0  0
   -2.0829    3.2582   -0.9594 H   0  0  0  0  0  0  0  0  0  0  0  0
   -2.5762    2.4776   -2.4794 H   0  0  0  0  0  0  0  0  0  0  0  0
   -3.3366    3.9959   -1.9711 H   0  0  0  0  0  0  0  0  0  0  0  0
   -7.3681   -0.2649    0.4017 H   0  0  0  0  0  0  0  0  0  0  0  0
   -6.9520    0.5293    1.9367 H   0  0  0  0  0  0  0  0  0  0  0  0
   -7.9194    1.3889    0.7257 H   0  0  0  0  0  0  0  0  0  0  0  0
    2.5539   -5.6958    0.0910 H   0  0  0  0  0  0  0  0  0  0  0  0
    4.7246    4.6006    0.5988 H   0  0  0  0  0  0  0  0  0  0  0  0
   -5.9657    1.2699    0.2543 O   0  0  0  0  0  0  0  0  0  0  0  0
  9  8  1  0
  6  7  1  0
  6  5  1  0
 25  5  2  0
  7  8  1  0
  7  4  1  0
  8 26  1  0
  5 24  1  0
 26 19  1  0
 15 27  1  0
 27 11  1  0
 19 18  2  0
 19  1  1  0
 18 17  1  0
 24  4  1  0
 10 11  2  0
 10 20  1  0
 11 12  1  0
 21  1  1  0
 21 22  1  0
  1  2  2  0
 17 20  1  0
 17  3  2  0
 20 14  2  0
 12 49  1  0
 12 13  2  0
 49 16  1  0
  2  3  1  0
  2 23  1  0
 22 23  2  0
 14 13  1  0
  3 28  1  0
  4 29  1  0
  4 30  1  0
  6 31  1  0
  6 32  1  0
  7 33  1  6
  8 34  1  1
  9 35  1  0
  9 36  1  0
  9 37  1  0
 10 38  1  0
 13 39  1  0
 14 40  1  0
 15 41  1  0
 15 42  1  0
 15 43  1  0
 16 44  1  0
 16 45  1  0
 16 46  1  0
 22 47  1  0
 24 48  1  0
M  END
