
     RDKit          3D

 24 24  0  0  0  0  0  0  0  0999 V2000
    2.6195    1.1903    0.1634 C   0  0  0  0  0  0  0  0  0  0  0  0
   -1.9917    1.5302   -0.5215 C   0  0  0  0  0  0  0  0  0  0  0  0
   -1.4006    0.2605    1.5497 C   0  0  0  0  0  0  0  0  0  0  0  0
    1.3525   -0.8281   -0.6607 C   0  0  0  0  0  0  0  0  0  0  0  0
    1.3733    0.3432    0.3065 C   0  0  2  0  0  0  0  0  0  0  0  0
   -1.0024    0.5599    0.1035 C   0  0  2  0  0  0  0  0  0  0  0  0
    0.0065   -1.5299   -0.6250 C   0  0  1  0  0  0  0  0  0  0  0  0
   -0.0495   -2.3149    0.5290 O   0  0  0  0  0  0  0  0  0  0  0  0
    0.2563    1.1789    0.0291 O   0  0  0  0  0  0  0  0  0  0  0  0
   -1.0473   -0.6016   -0.7109 O   0  0  0  0  0  0  0  0  0  0  0  0
    2.7152    1.5828   -0.8505 H   0  0  0  0  0  0  0  0  0  0  0  0
    2.6096    2.0304    0.8588 H   0  0  0  0  0  0  0  0  0  0  0  0
    3.5045    0.5909    0.3773 H   0  0  0  0  0  0  0  0  0  0  0  0
   -2.0308    2.4572    0.0504 H   0  0  0  0  0  0  0  0  0  0  0  0
   -1.7092    1.7680   -1.5479 H   0  0  0  0  0  0  0  0  0  0  0  0
   -2.9936    1.1012   -0.5297 H   0  0  0  0  0  0  0  0  0  0  0  0
   -2.3847   -0.2080    1.5749 H   0  0  0  0  0  0  0  0  0  0  0  0
   -0.7058   -0.4022    2.0606 H   0  0  0  0  0  0  0  0  0  0  0  0
   -1.4601    1.1918    2.1137 H   0  0  0  0  0  0  0  0  0  0  0  0
    2.1501   -1.5382   -0.4347 H   0  0  0  0  0  0  0  0  0  0  0  0
    1.3210   -0.0294    1.3377 H   0  0  0  0  0  0  0  0  0  0  0  0
   -0.1182   -2.1552   -1.5166 H   0  0  0  0  0  0  0  0  0  0  0  0
   -0.8769   -2.8087    0.5307 H   0  0  0  0  0  0  0  0  0  0  0  0
    1.5265   -0.4594   -1.6756 H   0  0  0  0  0  0  0  0  0  0  0  0
  6  3  1  1
  8  7  1  0
  2  6  1  0
  6 10  1  0
  6  9  1  0
 10  7  1  0
  7  4  1  0
  9  5  1  0
  5  4  1  0
  5  1  1  0
  1 11  1  0
  1 12  1  0
  1 13  1  0
  2 14  1  0
  2 15  1  0
  2 16  1  0
  3 17  1  0
  3 18  1  0
  3 19  1  0
  4 24  1  0
  4 20  1  0
  5 21  1  1
  7 22  1  6
  8 23  1  0
M  END
