
     RDKit          3D

 31 33  0  0  0  0  0  0  0  0999 V2000
   -2.2203    1.5438    1.2372 N   0  0  0  0  0  0  0  0  0  0  0  0
   -1.7908    0.3027    1.4295 C   0  0  0  0  0  0  0  0  0  0  0  0
   -1.3820   -0.5594    0.5109 N   0  0  0  0  0  0  0  0  0  0  0  0
   -1.4353   -0.0537   -0.7076 C   0  0  0  0  0  0  0  0  0  0  0  0
   -1.8650    1.2388   -1.0522 C   0  0  0  0  0  0  0  0  0  0  0  0
   -1.7707    1.4139   -2.4106 N   0  0  0  0  0  0  0  0  0  0  0  0
   -1.3131    0.2809   -2.8581 C   0  0  0  0  0  0  0  0  0  0  0  0
   -1.0922   -0.6393   -1.8836 N   0  0  0  0  0  0  0  0  0  0  0  0
   -3.7146    6.0767   -0.3417 C   0  0  0  0  0  0  0  0  0  0  0  0
   -3.6330    5.2576   -1.4615 C   0  0  0  0  0  0  0  0  0  0  0  0
   -3.1629    3.9557   -1.3663 C   0  0  0  0  0  0  0  0  0  0  0  0
   -2.7590    3.4380   -0.1353 C   0  0  0  0  0  0  0  0  0  0  0  0
   -2.8377    4.2632    0.9919 C   0  0  0  0  0  0  0  0  0  0  0  0
   -3.2993    5.5615    0.8856 C   0  0  0  0  0  0  0  0  0  0  0  0
   -3.1081    8.4312   -0.3714 N   0  0  0  0  0  0  0  0  0  0  0  0
   -2.2765    2.0550    0.0055 C   0  0  0  0  0  0  0  0  0  0  0  0
   -3.5590    9.8071   -0.4564 C   0  0  0  0  0  0  0  0  0  0  0  0
   -1.7690   -0.0408    2.4574 H   0  0  0  0  0  0  0  0  0  0  0  0
   -0.7337   -1.5734   -2.0150 H   0  0  0  0  0  0  0  0  0  0  0  0
   -4.8047    7.6013   -1.3704 H   0  0  0  0  0  0  0  0  0  0  0  0
   -4.8934    7.6993    0.3808 H   0  0  0  0  0  0  0  0  0  0  0  0
   -2.4785    8.2508   -1.1442 H   0  0  0  0  0  0  0  0  0  0  0  0
   -1.1150    0.0574   -3.8955 H   0  0  0  0  0  0  0  0  0  0  0  0
   -3.9473    5.6372   -2.4266 H   0  0  0  0  0  0  0  0  0  0  0  0
   -3.3455    6.1845    1.7707 H   0  0  0  0  0  0  0  0  0  0  0  0
   -3.1203    3.3441   -2.2560 H   0  0  0  0  0  0  0  0  0  0  0  0
   -2.5291    3.8815    1.9551 H   0  0  0  0  0  0  0  0  0  0  0  0
   -4.1786   10.0234   -1.3378 H   0  0  0  0  0  0  0  0  0  0  0  0
   -2.6981   10.4747   -0.4801 H   0  0  0  0  0  0  0  0  0  0  0  0
   -4.1495   10.0597    0.4267 H   0  0  0  0  0  0  0  0  0  0  0  0
   -4.2120    7.4908   -0.4493 C   0  0  0  0  0  0  0  0  0  0  0  0
  1  2  2  0
  2  3  1  0
  3  4  2  0
  4  5  1  0
  5  6  1  0
  6  7  2  0
  4  8  1  0
  7  8  1  0
 31  9  1  0
  9 10  2  0
 10 11  1  0
 11 12  2  0
 12 13  1  0
  9 14  1  0
 13 14  2  0
 31 15  1  0
  1 16  1  0
  5 16  2  0
 12 16  1  0
 15 17  1  0
  2 18  1  0
  8 19  1  0
 31 20  1  0
 31 21  1  0
 15 22  1  0
  7 23  1  0
 10 24  1  0
 14 25  1  0
 11 26  1  0
 13 27  1  0
 17 28  1  0
 17 29  1  0
 17 30  1  0
M  END
