
     RDKit          3D

 28 30  0  0  0  0  0  0  0  0999 V2000
   -1.1648   -0.0977   -0.7795 C   0  0  0  0  0  0  0  0  0  0  0  0
    1.2833   -0.1464   -0.8347 C   0  0  0  0  0  0  0  0  0  0  0  0
    1.3229   -0.3843    0.6165 C   0  0  0  0  0  0  0  0  0  0  0  0
   -1.1424   -0.3416    0.6694 C   0  0  0  0  0  0  0  0  0  0  0  0
    2.3596   -0.4619    1.2404 O   0  0  0  0  0  0  0  0  0  0  0  0
   -2.1465   -0.3874    1.3483 O   0  0  0  0  0  0  0  0  0  0  0  0
    0.0456   -0.0147   -1.4951 C   0  0  0  0  0  0  0  0  0  0  0  0
    0.0179    0.2113   -2.8907 C   0  0  0  0  0  0  0  0  0  0  0  0
    1.2407    0.2950   -3.5917 C   0  0  0  0  0  0  0  0  0  0  0  0
    2.4349    0.1672   -2.9313 C   0  0  0  0  0  0  0  0  0  0  0  0
    2.4579   -0.0530   -1.5452 C   0  0  0  0  0  0  0  0  0  0  0  0
   -2.3666    0.0465   -1.4335 C   0  0  0  0  0  0  0  0  0  0  0  0
   -2.3987    0.2695   -2.8188 C   0  0  0  0  0  0  0  0  0  0  0  0
   -1.2318    0.3475   -3.5338 C   0  0  0  0  0  0  0  0  0  0  0  0
    0.0999   -0.5422    1.2563 N   0  0  0  0  0  0  0  0  0  0  0  0
   -0.1099    0.4637    3.4660 C   0  0  0  0  0  0  0  0  0  0  0  0
   -0.0779    1.5691    2.9940 O   0  0  0  0  0  0  0  0  0  0  0  0
   -0.3093    0.1961    4.7456 O   0  0  0  0  0  0  0  0  0  0  0  0
    1.0579   -1.2437    2.9611 H   0  0  0  0  0  0  0  0  0  0  0  0
   -0.6668   -1.5387    2.9233 H   0  0  0  0  0  0  0  0  0  0  0  0
    1.2228    0.4614   -4.6615 H   0  0  0  0  0  0  0  0  0  0  0  0
    3.3667    0.2360   -3.4752 H   0  0  0  0  0  0  0  0  0  0  0  0
    3.4074   -0.1533   -1.0370 H   0  0  0  0  0  0  0  0  0  0  0  0
   -3.2944   -0.0172   -0.8811 H   0  0  0  0  0  0  0  0  0  0  0  0
   -3.3512    0.3790   -3.3183 H   0  0  0  0  0  0  0  0  0  0  0  0
   -1.2569    0.5151   -4.6033 H   0  0  0  0  0  0  0  0  0  0  0  0
   -0.4207    1.0164    5.2500 H   0  0  0  0  0  0  0  0  0  0  0  0
    0.1011   -0.8074    2.6765 C   0  0  0  0  0  0  0  0  0  0  0  0
  1  4  1  0
  1  7  2  0
  1 12  1  0
  2  3  1  0
  2  7  1  0
  2 11  2  0
  3  5  2  0
  3 15  1  0
  4  6  2  0
  4 15  1  0
 28 15  1  0
 28 16  1  0
 28 19  1  0
 28 20  1  0
  7  8  1  0
  8  9  1  0
  8 14  2  0
  9 10  2  0
  9 21  1  0
 10 11  1  0
 10 22  1  0
 11 23  1  0
 12 13  2  0
 12 24  1  0
 13 14  1  0
 13 25  1  0
 14 26  1  0
 16 17  2  0
 16 18  1  0
 18 27  1  0
M  END
