
     RDKit          3D

 47 49  0  0  0  0  0  0  0  0999 V2000
   -0.2240   -0.5839    0.9299 C   0  0  0  0  0  0  0  0  0  0  0  0
    1.2168   -0.4107    0.5749 C   0  0  0  0  0  0  0  0  0  0  0  0
    1.6566    0.2500   -0.5702 C   0  0  0  0  0  0  0  0  0  0  0  0
    3.0087    0.3723   -0.8406 C   0  0  0  0  0  0  0  0  0  0  0  0
    3.9665   -0.1621    0.0218 C   0  0  0  0  0  0  0  0  0  0  0  0
    3.5200   -0.8341    1.1615 C   0  0  0  0  0  0  0  0  0  0  0  0
   -1.0982    0.2554    0.3239 N   0  0  0  0  0  0  0  0  0  0  0  0
    2.1694   -0.9613    1.4300 C   0  0  0  0  0  0  0  0  0  0  0  0
   -2.5122    0.1509    0.4742 C   0  0  1  0  0  0  0  0  0  0  0  0
   -3.1634    1.5340    0.3847 C   0  0  1  0  0  0  0  0  0  0  0  0
   -4.6760    1.3741    0.4556 C   0  0  2  0  0  0  0  0  0  0  0  0
   -5.1662    0.3736   -0.5848 C   0  0  1  0  0  0  0  0  0  0  0  0
   -4.3941   -0.9381   -0.4358 C   0  0  1  0  0  0  0  0  0  0  0  0
   -4.7692   -1.9393   -1.5074 C   0  0  0  0  0  0  0  0  0  0  0  0
   -4.0764   -3.1413   -1.2698 O   0  0  0  0  0  0  0  0  0  0  0  0
   -0.5757   -1.4203    1.7447 O   0  0  0  0  0  0  0  0  0  0  0  0
   -3.0089   -0.6834   -0.5460 O   0  0  0  0  0  0  0  0  0  0  0  0
   -6.5349    0.0990   -0.4213 O   0  0  0  0  0  0  0  0  0  0  0  0
   -5.3468    2.5885    0.2234 O   0  0  0  0  0  0  0  0  0  0  0  0
   -2.7748    2.3575    1.4540 O   0  0  0  0  0  0  0  0  0  0  0  0
    5.4075   -0.0216   -0.2647 C   0  0  0  0  0  0  0  0  0  0  0  0
    6.3292    0.1410    0.7716 C   0  0  0  0  0  0  0  0  0  0  0  0
    7.6827    0.2788    0.5012 C   0  0  0  0  0  0  0  0  0  0  0  0
    8.1404    0.2546   -0.8098 C   0  0  0  0  0  0  0  0  0  0  0  0
    7.2334    0.0914   -1.8487 C   0  0  0  0  0  0  0  0  0  0  0  0
    5.8800   -0.0452   -1.5783 C   0  0  0  0  0  0  0  0  0  0  0  0
    0.9620    0.6734   -1.2844 H   0  0  0  0  0  0  0  0  0  0  0  0
    3.3152    0.9075   -1.7299 H   0  0  0  0  0  0  0  0  0  0  0  0
    4.2339   -1.2825    1.8406 H   0  0  0  0  0  0  0  0  0  0  0  0
   -0.7566    0.9068   -0.3653 H   0  0  0  0  0  0  0  0  0  0  0  0
    1.8528   -1.4937    2.3166 H   0  0  0  0  0  0  0  0  0  0  0  0
   -2.7279   -0.2814    1.4591 H   0  0  0  0  0  0  0  0  0  0  0  0
   -2.9006    1.9802   -0.5872 H   0  0  0  0  0  0  0  0  0  0  0  0
   -4.9258    0.9728    1.4509 H   0  0  0  0  0  0  0  0  0  0  0  0
   -4.9600    0.7813   -1.5874 H   0  0  0  0  0  0  0  0  0  0  0  0
   -4.6212   -1.3667    0.5546 H   0  0  0  0  0  0  0  0  0  0  0  0
   -5.8538   -2.0843   -1.4795 H   0  0  0  0  0  0  0  0  0  0  0  0
   -4.5245   -1.5153   -2.4916 H   0  0  0  0  0  0  0  0  0  0  0  0
   -4.3913   -3.7932   -1.9019 H   0  0  0  0  0  0  0  0  0  0  0  0
   -7.0222    0.9216   -0.5346 H   0  0  0  0  0  0  0  0  0  0  0  0
   -5.2088    3.1676    0.9793 H   0  0  0  0  0  0  0  0  0  0  0  0
   -1.8722    2.6574    1.3101 H   0  0  0  0  0  0  0  0  0  0  0  0
    5.9874    0.1807    1.7985 H   0  0  0  0  0  0  0  0  0  0  0  0
    8.3807    0.4116    1.3174 H   0  0  0  0  0  0  0  0  0  0  0  0
    9.1967    0.3609   -1.0193 H   0  0  0  0  0  0  0  0  0  0  0  0
    7.5796    0.0641   -2.8738 H   0  0  0  0  0  0  0  0  0  0  0  0
    5.1894   -0.1916   -2.3992 H   0  0  0  0  0  0  0  0  0  0  0  0
 19 11  1  0
 18 12  1  0
 11 12  1  0
 11 10  1  0
 12 13  1  0
 20 10  1  0
 10  9  1  0
 15 14  1  0
 13 14  1  0
 13 17  1  0
  9 17  1  0
  9  7  1  0
  7  1  1  0
  1 16  2  0
  1  2  1  0
  3  2  2  0
  3  4  1  0
  2  8  1  0
  4  5  2  0
  8  6  2  0
  5  6  1  0
  5 21  1  0
 26 21  1  0
 26 25  2  0
 21 22  2  0
 25 24  1  0
 22 23  1  0
 24 23  2  0
  3 27  1  0
  4 28  1  0
  6 29  1  0
  7 30  1  0
  8 31  1  0
  9 32  1  1
 10 33  1  6
 11 34  1  1
 12 35  1  6
 13 36  1  1
 14 37  1  0
 14 38  1  0
 15 39  1  0
 18 40  1  0
 19 41  1  0
 20 42  1  0
 22 43  1  0
 23 44  1  0
 24 45  1  0
 25 46  1  0
 26 47  1  0
M  END
