
     RDKit          3D

 19 20  0  0  0  0  0  0  0  0999 V2000
    4.2177    0.0130    0.0779 N   0  0  0  0  0  0  0  0  0  0  0  0
    2.8569    0.0107    0.0188 C   0  0  0  0  0  0  0  0  0  0  0  0
    2.1321    1.2142    0.0042 C   0  0  0  0  0  0  0  0  0  0  0  0
    0.7548    1.2068   -0.0134 C   0  0  0  0  0  0  0  0  0  0  0  0
    0.0384    0.0067   -0.0167 C   0  0  0  0  0  0  0  0  0  0  0  0
    0.7571   -1.1906   -0.0027 C   0  0  0  0  0  0  0  0  0  0  0  0
    2.1358   -1.1941    0.0149 C   0  0  0  0  0  0  0  0  0  0  0  0
   -1.4102    0.0368   -0.0415 C   0  0  0  0  0  0  0  0  0  0  0  0
   -2.2352   -1.0168   -0.0390 N   0  0  0  0  0  0  0  0  0  0  0  0
   -3.4895   -0.5917   -0.0706 N   0  0  0  0  0  0  0  0  0  0  0  0
   -3.4344    0.6792   -0.0912 N   0  0  0  0  0  0  0  0  0  0  0  0
   -2.1754    1.1100   -0.0743 N   0  0  0  0  0  0  0  0  0  0  0  0
    4.6968    0.8552   -0.1945 H   0  0  0  0  0  0  0  0  0  0  0  0
    2.6634    2.1582    0.0043 H   0  0  0  0  0  0  0  0  0  0  0  0
    2.6684   -2.1371    0.0235 H   0  0  0  0  0  0  0  0  0  0  0  0
    0.2228    2.1493   -0.0277 H   0  0  0  0  0  0  0  0  0  0  0  0
    0.2476   -2.1466   -0.0094 H   0  0  0  0  0  0  0  0  0  0  0  0
   -2.0366   -2.0064   -0.0173 H   0  0  0  0  0  0  0  0  0  0  0  0
    4.6999   -0.8293   -0.1885 H   0  0  0  0  0  0  0  0  0  0  0  0
  1  2  1  0
  2  3  2  0
  2  7  1  0
  3  4  1  0
  4  5  2  0
  5  6  1  0
  5  8  1  0
  6  7  2  0
  8  9  1  0
  8 12  2  0
  9 10  1  0
 10 11  2  0
 11 12  1  0
  1 13  1  0
  3 14  1  0
  7 15  1  0
  4 16  1  0
  6 17  1  0
  9 18  1  0
  1 19  1  0
M  END
