
     RDKit          3D

 31 32  0  0  0  0  0  0  0  0999 V2000
    4.9377    1.1116    0.6230 C   0  0  0  0  0  0  0  0  0  0  0  0
    3.9291    0.7488   -0.1776 C   0  0  0  0  0  0  0  0  0  0  0  0
    2.7812    0.1211    0.4075 C   0  0  0  0  0  0  0  0  0  0  0  0
    1.7366   -0.2713   -0.2335 N   0  0  0  0  0  0  0  0  0  0  0  0
    0.6326   -0.9229    0.4826 C   0  0  2  0  0  0  0  0  0  0  0  0
    0.3858   -2.3715    0.0286 C   0  0  0  0  0  0  0  0  0  0  0  0
   -1.1191   -2.5929    0.2462 C   0  0  0  0  0  0  0  0  0  0  0  0
   -1.6878   -1.2067    0.1289 C   0  0  0  0  0  0  0  0  0  0  0  0
   -0.6935   -0.2469    0.2584 C   0  0  0  0  0  0  0  0  0  0  0  0
   -0.9628    1.1090    0.2206 C   0  0  0  0  0  0  0  0  0  0  0  0
   -2.9997   -0.7969   -0.0476 C   0  0  0  0  0  0  0  0  0  0  0  0
   -3.2944    0.5589   -0.1016 C   0  0  0  0  0  0  0  0  0  0  0  0
   -2.2832    1.5128    0.0291 C   0  0  0  0  0  0  0  0  0  0  0  0
   -2.5285    2.8371   -0.0246 O   0  0  0  0  0  0  0  0  0  0  0  0
    1.6144   -0.1121   -1.6831 C   0  0  0  0  0  0  0  0  0  0  0  0
    4.9078    0.9433    1.6919 H   0  0  0  0  0  0  0  0  0  0  0  0
    5.8215    1.5888    0.2249 H   0  0  0  0  0  0  0  0  0  0  0  0
    3.9766    0.9221   -1.2438 H   0  0  0  0  0  0  0  0  0  0  0  0
    2.7817   -0.0441    1.4788 H   0  0  0  0  0  0  0  0  0  0  0  0
    0.8933   -0.8952    1.5429 H   0  0  0  0  0  0  0  0  0  0  0  0
    0.6181   -2.4758   -1.0327 H   0  0  0  0  0  0  0  0  0  0  0  0
    1.0124   -3.0750    0.5735 H   0  0  0  0  0  0  0  0  0  0  0  0
   -1.5407   -3.2939   -0.4746 H   0  0  0  0  0  0  0  0  0  0  0  0
   -1.3107   -3.0023    1.2417 H   0  0  0  0  0  0  0  0  0  0  0  0
   -0.1790    1.8512    0.3216 H   0  0  0  0  0  0  0  0  0  0  0  0
   -3.7981   -1.5211   -0.1511 H   0  0  0  0  0  0  0  0  0  0  0  0
   -4.3194    0.8786   -0.2531 H   0  0  0  0  0  0  0  0  0  0  0  0
   -3.4666    3.0009   -0.1724 H   0  0  0  0  0  0  0  0  0  0  0  0
    2.3300   -0.7557   -2.1900 H   0  0  0  0  0  0  0  0  0  0  0  0
    0.6118   -0.3844   -1.9935 H   0  0  0  0  0  0  0  0  0  0  0  0
    1.7903    0.9229   -1.9635 H   0  0  0  0  0  0  0  0  0  0  0  0
  1  2  2  0
  1 16  1  0
  1 17  1  0
  2  3  1  0
  2 18  1  0
  3  4  2  0
  3 19  1  0
  4  5  1  0
  4 15  1  0
  5  6  1  0
  5  9  1  0
  5 20  1  1
  6  7  1  0
  6 21  1  0
  6 22  1  0
  7  8  1  0
  7 23  1  0
  7 24  1  0
  8  9  2  0
  8 11  1  0
  9 10  1  0
 10 13  2  0
 10 25  1  0
 11 12  2  0
 11 26  1  0
 12 13  1  0
 12 27  1  0
 13 14  1  0
 14 28  1  0
 15 29  1  0
 15 30  1  0
 15 31  1  0
M  CHG  1   4   1
M  END
