
     RDKit          3D

 18 18  0  0  0  0  0  0  0  0999 V2000
   -2.0226   -0.8863   -1.0611 C   0  0  0  0  0  0  0  0  0  0  0  0
   -2.6712   -1.4910   -0.2927 O   0  0  0  0  0  0  0  0  0  0  0  0
   -0.7757   -0.4718   -0.9169 O   0  0  0  0  0  0  0  0  0  0  0  0
   -0.1126   -0.7991    0.3348 C   0  0  0  0  0  0  0  0  0  0  0  0
    1.2878   -0.2539    0.3150 C   0  0  0  0  0  0  0  0  0  0  0  0
    2.1362   -0.4326    1.4035 C   0  0  0  0  0  0  0  0  0  0  0  0
    3.4357    0.0483    1.3713 C   0  0  0  0  0  0  0  0  0  0  0  0
    3.9140    0.6835    0.2479 C   0  0  0  0  0  0  0  0  0  0  0  0
    3.0950    0.8443   -0.8459 C   0  0  0  0  0  0  0  0  0  0  0  0
    1.7921    0.3699   -0.8209 C   0  0  0  0  0  0  0  0  0  0  0  0
   -2.5852   -0.3882   -2.6115 Cl  0  0  0  0  0  0  0  0  0  0  0  0
   -0.6039   -0.4043    1.0752 H   0  0  0  0  0  0  0  0  0  0  0  0
   -0.0827   -1.7651    0.4423 H   0  0  0  0  0  0  0  0  0  0  0  0
    1.8202   -0.8548    2.1693 H   0  0  0  0  0  0  0  0  0  0  0  0
    3.9887   -0.0611    2.1123 H   0  0  0  0  0  0  0  0  0  0  0  0
    4.7873    1.0024    0.2280 H   0  0  0  0  0  0  0  0  0  0  0  0
    3.4169    1.2735   -1.6058 H   0  0  0  0  0  0  0  0  0  0  0  0
    1.2452    0.4851   -1.5647 H   0  0  0  0  0  0  0  0  0  0  0  0
  1  2  2  0
  1  3  1  0
  1 11  1  0
  3  4  1  0
  4  5  1  0
  4 12  1  0
  4 13  1  0
  5  6  2  0
  5 10  1  0
  6  7  1  0
  6 14  1  0
  7  8  2  0
  7 15  1  0
  8  9  1  0
  8 16  1  0
  9 10  2  0
  9 17  1  0
 10 18  1  0
M  END
