
     RDKit          3D

 46 49  0  0  0  0  0  0  0  0999 V2000
    7.2655   -0.0824   -0.4370 C   0  0  0  0  0  0  0  0  0  0  0  0
    6.4165    1.9591    0.5251 C   0  0  0  0  0  0  0  0  0  0  0  0
    5.9649   -0.5894   -0.5168 C   0  0  0  0  0  0  0  0  0  0  0  0
    5.1199    1.4767    0.4535 C   0  0  0  0  0  0  0  0  0  0  0  0
    4.8904    0.2029   -0.0667 C   0  0  0  0  0  0  0  0  0  0  0  0
   -7.3858   -0.6272    0.2250 C   0  0  0  0  0  0  0  0  0  0  0  0
   -6.0327   -0.3786    0.0162 C   0  0  0  0  0  0  0  0  0  0  0  0
   -8.2824   -0.2098   -0.7404 C   0  0  0  0  0  0  0  0  0  0  0  0
   -5.6456    0.2739   -1.1478 C   0  0  0  0  0  0  0  0  0  0  0  0
    1.2627   -0.4841    0.0796 N   0  0  0  0  0  0  0  0  0  0  0  0
    8.4481   -0.8898   -0.8977 C   0  0  0  0  0  0  0  0  0  0  0  0
    5.6929   -1.9645   -1.0627 C   0  0  0  0  0  0  0  0  0  0  0  0
    7.4806    1.1920    0.0854 C   0  0  0  0  0  0  0  0  0  0  0  0
    3.6109   -0.3404   -0.1705 N   0  0  0  0  0  0  0  0  0  0  0  0
    2.4337    0.1725    0.2709 C   0  0  0  0  0  0  0  0  0  0  0  0
    2.2119    1.2909    0.9148 N   0  0  0  0  0  0  0  0  0  0  0  0
    0.8757    1.3636    1.1485 N   0  0  0  0  0  0  0  0  0  0  0  0
    0.3090    0.3057    0.6504 C   0  0  0  0  0  0  0  0  0  0  0  0
   -1.1156    0.0042    0.7009 C   0  0  0  0  0  0  0  0  0  0  0  0
   -1.6336   -1.1964    0.2194 C   0  0  0  0  0  0  0  0  0  0  0  0
   -2.9931   -1.4596    0.2892 C   0  0  0  0  0  0  0  0  0  0  0  0
   -3.8386   -0.5196    0.8517 C   0  0  0  0  0  0  0  0  0  0  0  0
   -3.3452    0.6836    1.3357 C   0  0  0  0  0  0  0  0  0  0  0  0
   -1.9890    0.9396    1.2605 C   0  0  0  0  0  0  0  0  0  0  0  0
   -5.1787   -0.8019    0.9717 O   0  0  0  0  0  0  0  0  0  0  0  0
   -6.6398    0.6444   -2.0415 C   0  0  0  0  0  0  0  0  0  0  0  0
   -7.9340    0.4171   -1.8612 N   0  0  0  0  0  0  0  0  0  0  0  0
    6.5923    2.9470    0.9312 H   0  0  0  0  0  0  0  0  0  0  0  0
    4.2965    2.0801    0.8024 H   0  0  0  0  0  0  0  0  0  0  0  0
   -9.3412   -0.3927   -0.5953 H   0  0  0  0  0  0  0  0  0  0  0  0
   -4.6126    0.4957   -1.3766 H   0  0  0  0  0  0  0  0  0  0  0  0
    1.1342   -1.3596   -0.4041 H   0  0  0  0  0  0  0  0  0  0  0  0
    8.5390   -1.8284   -0.3483 H   0  0  0  0  0  0  0  0  0  0  0  0
    8.3809   -1.1451   -1.9566 H   0  0  0  0  0  0  0  0  0  0  0  0
    9.3734   -0.3342   -0.7524 H   0  0  0  0  0  0  0  0  0  0  0  0
    5.2111   -2.6055   -0.3196 H   0  0  0  0  0  0  0  0  0  0  0  0
    5.0412   -1.9376   -1.9407 H   0  0  0  0  0  0  0  0  0  0  0  0
    6.6036   -2.4698   -1.3711 H   0  0  0  0  0  0  0  0  0  0  0  0
    8.4903    1.5781    0.1504 H   0  0  0  0  0  0  0  0  0  0  0  0
    3.5403   -1.2310   -0.6340 H   0  0  0  0  0  0  0  0  0  0  0  0
   -0.9910   -1.9498   -0.2172 H   0  0  0  0  0  0  0  0  0  0  0  0
   -3.3858   -2.3958   -0.0852 H   0  0  0  0  0  0  0  0  0  0  0  0
   -4.0135    1.4120    1.7770 H   0  0  0  0  0  0  0  0  0  0  0  0
   -1.6027    1.8748    1.6421 H   0  0  0  0  0  0  0  0  0  0  0  0
   -6.3589    1.1557   -2.9557 H   0  0  0  0  0  0  0  0  0  0  0  0
   -7.7302   -1.1309    1.1182 H   0  0  0  0  0  0  0  0  0  0  0  0
 11  1  1  0
  1 13  2  0
  1  3  1  0
 12  3  1  0
 13  2  1  0
  3  5  2  0
  2  4  2  0
  5  4  1  0
  5 14  1  0
 14 15  1  0
 15 16  2  0
 15 10  1  0
 16 17  1  0
 10 18  1  0
 17 18  2  0
 18 19  1  0
 20 19  2  0
 20 21  1  0
 19 24  1  0
 21 22  2  0
 24 23  2  0
 22 23  1  0
 22 25  1  0
 25  7  1  0
  6  7  2  0
  6  8  1  0
  7  9  1  0
  8 27  2  0
  9 26  2  0
 27 26  1  0
  2 28  1  0
  4 29  1  0
  6 46  1  0
  8 30  1  0
  9 31  1  0
 10 32  1  0
 11 33  1  0
 11 34  1  0
 11 35  1  0
 12 36  1  0
 12 37  1  0
 12 38  1  0
 13 39  1  0
 14 40  1  0
 20 41  1  0
 21 42  1  0
 23 43  1  0
 24 44  1  0
 26 45  1  0
M  END
