
     RDKit          3D

164165  0  0  0  0  0  0  0  0999 V2000
    2.0696    0.5280    0.5125 C   0  0  0  0  0  0  0  0  0  0  0  0
   -2.2624   -0.9980    1.7204 C   0  0  0  0  0  0  0  0  0  0  0  0
    6.4108   -1.4310    0.0967 C   0  0  0  0  0  0  0  0  0  0  0  0
   -6.5306   -0.8309   -0.4087 C   0  0  0  0  0  0  0  0  0  0  0  0
  -10.9696    0.2783    0.8588 C   0  0  0  0  0  0  0  0  0  0  0  0
   10.7247   -0.1968    1.5633 C   0  0  0  0  0  0  0  0  0  0  0  0
    2.6369   -0.5615   -0.4114 C   0  0  0  0  0  0  0  0  0  0  0  0
   -1.6834    0.4201    1.5879 C   0  0  0  0  0  0  0  0  0  0  0  0
   -5.9905   -1.6649    0.7640 C   0  0  0  0  0  0  0  0  0  0  0  0
    7.0381   -1.4773    1.5002 C   0  0  0  0  0  0  0  0  0  0  0  0
  -10.3091    0.1466   -0.5233 C   0  0  0  0  0  0  0  0  0  0  0  0
  -15.0908   -1.9364    0.1997 C   0  0  0  0  0  0  0  0  0  0  0  0
   11.1450    0.8091    0.4785 C   0  0  0  0  0  0  0  0  0  0  0  0
    0.5719    0.6616    0.4287 C   0  0  0  0  0  0  0  0  0  0  0  0
   -3.7638   -1.0245    1.8348 C   0  0  0  0  0  0  0  0  0  0  0  0
    4.9141   -1.5950    0.0980 C   0  0  0  0  0  0  0  0  0  0  0  0
  -14.6904   -0.8489    1.2104 C   0  0  0  0  0  0  0  0  0  0  0  0
   -8.0184   -0.9606   -0.6020 C   0  0  0  0  0  0  0  0  0  0  0  0
   14.8577    0.4171   -0.6656 C   0  0  0  0  0  0  0  0  0  0  0  0
    9.2367   -0.2254    1.7899 C   0  0  0  0  0  0  0  0  0  0  0  0
  -12.4728    0.3332    0.7876 C   0  0  0  0  0  0  0  0  0  0  0  0
  -19.3197   -0.6506   -1.4418 C   0  0  0  0  0  0  0  0  0  0  0  0
  -18.7368   -2.0148   -1.1959 C   0  0  0  0  0  0  0  0  0  0  0  0
   13.3543    0.3357   -0.6961 C   0  0  0  0  0  0  0  0  0  0  0  0
   15.5379   -0.9509   -0.4928 C   0  0  0  0  0  0  0  0  0  0  0  0
  -16.5757   -2.1753    0.1469 C   0  0  0  0  0  0  0  0  0  0  0  0
   -0.1904    0.3894    1.4914 C   0  0  0  0  0  0  0  0  0  0  0  0
    4.1312   -0.6088   -0.3487 C   0  0  0  0  0  0  0  0  0  0  0  0
   -4.5006   -1.5675    0.8617 C   0  0  0  0  0  0  0  0  0  0  0  0
    8.5218   -1.2950    1.4304 C   0  0  0  0  0  0  0  0  0  0  0  0
   -8.8176    0.0936   -0.4163 C   0  0  0  0  0  0  0  0  0  0  0  0
  -13.2042   -0.6811    1.2576 C   0  0  0  0  0  0  0  0  0  0  0  0
   12.6312    0.8420    0.3067 C   0  0  0  0  0  0  0  0  0  0  0  0
   19.3622   -0.6841    0.2424 C   0  0  0  0  0  0  0  0  0  0  0  0
  -19.4066   -0.0840   -2.6623 C   0  0  0  0  0  0  0  0  0  0  0  0
  -17.2569   -1.8859   -0.9640 C   0  0  0  0  0  0  0  0  0  0  0  0
   17.8937   -0.9191    0.4788 C   0  0  0  0  0  0  0  0  0  0  0  0
   17.0282   -0.8235   -0.5340 C   0  0  0  0  0  0  0  0  0  0  0  0
   19.8723    0.6141    0.8900 C   0  0  0  0  0  0  0  0  0  0  0  0
  -20.2742    1.4654   -0.3671 C   0  0  0  0  0  0  0  0  0  0  0  0
  -19.7311    0.0948   -0.2217 C   0  0  0  0  0  0  0  0  0  0  0  0
  -20.3871    2.0416   -1.6309 C   0  0  0  0  0  0  0  0  0  0  0  0
  -19.9469    1.2913   -2.8280 C   0  0  0  0  0  0  0  0  0  0  0  0
    0.0414    1.0988   -0.9064 C   0  0  0  0  0  0  0  0  0  0  0  0
   -4.3228   -0.4082    3.0839 C   0  0  0  0  0  0  0  0  0  0  0  0
    4.4118   -2.9082    0.6236 C   0  0  0  0  0  0  0  0  0  0  0  0
   -8.4965   -2.3284   -0.9959 C   0  0  0  0  0  0  0  0  0  0  0  0
    8.6540    1.0174    2.3983 C   0  0  0  0  0  0  0  0  0  0  0  0
  -13.0415    1.5623    0.1404 C   0  0  0  0  0  0  0  0  0  0  0  0
   12.7740   -0.3549   -1.8960 C   0  0  0  0  0  0  0  0  0  0  0  0
  -17.1853   -2.7300    1.4004 C   0  0  0  0  0  0  0  0  0  0  0  0
   21.3309    0.8292    0.6314 C   0  0  0  0  0  0  0  0  0  0  0  0
   21.8933    1.7097   -0.2015 C   0  0  0  0  0  0  0  0  0  0  0  0
   23.3906    1.7597   -0.3599 C   0  0  0  0  0  0  0  0  0  0  0  0
  -18.9652   -0.7368   -3.9325 C   0  0  0  0  0  0  0  0  0  0  0  0
   17.5108   -1.2241    1.8975 C   0  0  0  0  0  0  0  0  0  0  0  0
  -20.6785    2.1760    0.7576 C   0  0  0  0  0  0  0  0  0  0  0  0
  -20.9092    3.3232   -1.7660 C   0  0  0  0  0  0  0  0  0  0  0  0
   23.8781    1.2268   -1.7169 C   0  0  0  0  0  0  0  0  0  0  0  0
  -21.1962    3.4543    0.6187 C   0  0  0  0  0  0  0  0  0  0  0  0
  -21.3139    4.0265   -0.6423 C   0  0  0  0  0  0  0  0  0  0  0  0
   21.1271    2.6938   -1.0365 C   0  0  0  0  0  0  0  0  0  0  0  0
   25.3631    1.3537   -1.8623 C   0  0  0  0  0  0  0  0  0  0  0  0
   26.2797    0.3891   -1.7467 C   0  0  0  0  0  0  0  0  0  0  0  0
   27.7423    0.6865   -1.9090 C   0  0  0  0  0  0  0  0  0  0  0  0
   25.9695   -1.0492   -1.4541 C   0  0  0  0  0  0  0  0  0  0  0  0
  -19.6267   -0.4142    0.8752 O   0  0  0  0  0  0  0  0  0  0  0  0
  -20.0219    1.7866   -3.9345 O   0  0  0  0  0  0  0  0  0  0  0  0
    2.3678    0.3072    1.5404 H   0  0  0  0  0  0  0  0  0  0  0  0
    2.5349    1.4851    0.2477 H   0  0  0  0  0  0  0  0  0  0  0  0
   -1.9450   -1.5854    0.8553 H   0  0  0  0  0  0  0  0  0  0  0  0
   -1.8199   -1.4750    2.6031 H   0  0  0  0  0  0  0  0  0  0  0  0
    6.6808   -0.4832   -0.3746 H   0  0  0  0  0  0  0  0  0  0  0  0
    6.8635   -2.2235   -0.5113 H   0  0  0  0  0  0  0  0  0  0  0  0
   -6.2652    0.2164   -0.2447 H   0  0  0  0  0  0  0  0  0  0  0  0
   -6.0174   -1.1456   -1.3254 H   0  0  0  0  0  0  0  0  0  0  0  0
  -10.6564   -0.5671    1.4763 H   0  0  0  0  0  0  0  0  0  0  0  0
  -10.5881    1.1834    1.3455 H   0  0  0  0  0  0  0  0  0  0  0  0
   11.0782   -1.1891    1.2727 H   0  0  0  0  0  0  0  0  0  0  0  0
   11.2358    0.0605    2.4982 H   0  0  0  0  0  0  0  0  0  0  0  0
    2.1872   -1.5202   -0.1464 H   0  0  0  0  0  0  0  0  0  0  0  0
    2.3333   -0.3510   -1.4417 H   0  0  0  0  0  0  0  0  0  0  0  0
   -2.1345    0.9067    0.7209 H   0  0  0  0  0  0  0  0  0  0  0  0
   -1.9730    1.0119    2.4613 H   0  0  0  0  0  0  0  0  0  0  0  0
   -6.4819   -1.3432    1.6843 H   0  0  0  0  0  0  0  0  0  0  0  0
   -6.2667   -2.7137    0.6164 H   0  0  0  0  0  0  0  0  0  0  0  0
    6.5645   -0.7184    2.1260 H   0  0  0  0  0  0  0  0  0  0  0  0
    6.8156   -2.4437    1.9615 H   0  0  0  0  0  0  0  0  0  0  0  0
  -10.7090   -0.7394   -1.0197 H   0  0  0  0  0  0  0  0  0  0  0  0
  -10.5921    1.0031   -1.1425 H   0  0  0  0  0  0  0  0  0  0  0  0
  -14.7219   -1.6487   -0.7877 H   0  0  0  0  0  0  0  0  0  0  0  0
  -14.5815   -2.8689    0.4688 H   0  0  0  0  0  0  0  0  0  0  0  0
   10.6355    0.5512   -0.4521 H   0  0  0  0  0  0  0  0  0  0  0  0
   10.7959    1.8079    0.7566 H   0  0  0  0  0  0  0  0  0  0  0  0
  -15.1968    0.0814    0.9453 H   0  0  0  0  0  0  0  0  0  0  0  0
  -15.0512   -1.1280    2.2048 H   0  0  0  0  0  0  0  0  0  0  0  0
   15.2175    0.8719   -1.5960 H   0  0  0  0  0  0  0  0  0  0  0  0
   15.1801    1.0710    0.1486 H   0  0  0  0  0  0  0  0  0  0  0  0
  -19.2357   -2.4775   -0.3467 H   0  0  0  0  0  0  0  0  0  0  0  0
  -18.9221   -2.6605   -2.0551 H   0  0  0  0  0  0  0  0  0  0  0  0
   15.1941   -1.3992    0.4410 H   0  0  0  0  0  0  0  0  0  0  0  0
   15.2153   -1.6208   -1.2955 H   0  0  0  0  0  0  0  0  0  0  0  0
    0.3160    0.0681    2.4000 H   0  0  0  0  0  0  0  0  0  0  0  0
    4.6233    0.2966   -0.6997 H   0  0  0  0  0  0  0  0  0  0  0  0
   -3.9674   -1.9775    0.0060 H   0  0  0  0  0  0  0  0  0  0  0  0
    9.0609   -2.1291    0.9854 H   0  0  0  0  0  0  0  0  0  0  0  0
   -8.3493    1.0290   -0.1153 H   0  0  0  0  0  0  0  0  0  0  0  0
  -12.6674   -1.5210    1.6942 H   0  0  0  0  0  0  0  0  0  0  0  0
   13.1748    1.3056    1.1274 H   0  0  0  0  0  0  0  0  0  0  0  0
   19.9409   -1.5276    0.6366 H   0  0  0  0  0  0  0  0  0  0  0  0
   19.5627   -0.6374   -0.8309 H   0  0  0  0  0  0  0  0  0  0  0  0
  -16.7030   -1.4858   -1.8100 H   0  0  0  0  0  0  0  0  0  0  0  0
   17.4340   -0.5810   -1.5145 H   0  0  0  0  0  0  0  0  0  0  0  0
   19.2725    1.4475    0.5195 H   0  0  0  0  0  0  0  0  0  0  0  0
   19.7067    0.5704    1.9706 H   0  0  0  0  0  0  0  0  0  0  0  0
    0.1569    0.3111   -1.6547 H   0  0  0  0  0  0  0  0  0  0  0  0
   -1.0122    1.3690   -0.8821 H   0  0  0  0  0  0  0  0  0  0  0  0
    0.6003    1.9617   -1.2758 H   0  0  0  0  0  0  0  0  0  0  0  0
   -4.1384    0.6682    3.1121 H   0  0  0  0  0  0  0  0  0  0  0  0
   -5.3947   -0.5559    3.1951 H   0  0  0  0  0  0  0  0  0  0  0  0
   -3.8342   -0.8270    3.9672 H   0  0  0  0  0  0  0  0  0  0  0  0
    4.5957   -3.0026    1.6964 H   0  0  0  0  0  0  0  0  0  0  0  0
    3.3459   -3.0552    0.4643 H   0  0  0  0  0  0  0  0  0  0  0  0
    4.9389   -3.7384    0.1473 H   0  0  0  0  0  0  0  0  0  0  0  0
   -8.3858   -3.0370   -0.1718 H   0  0  0  0  0  0  0  0  0  0  0  0
   -9.5411   -2.3482   -1.2999 H   0  0  0  0  0  0  0  0  0  0  0  0
   -7.8995   -2.7191   -1.8232 H   0  0  0  0  0  0  0  0  0  0  0  0
    8.6476    1.8456    1.6854 H   0  0  0  0  0  0  0  0  0  0  0  0
    7.6311    0.8855    2.7453 H   0  0  0  0  0  0  0  0  0  0  0  0
    9.2535    1.3456    3.2505 H   0  0  0  0  0  0  0  0  0  0  0  0
  -12.8395    1.5749   -0.9333 H   0  0  0  0  0  0  0  0  0  0  0  0
  -14.1180    1.6561    0.2666 H   0  0  0  0  0  0  0  0  0  0  0  0
  -12.5770    2.4612    0.5526 H   0  0  0  0  0  0  0  0  0  0  0  0
   12.9829   -1.4270   -1.8754 H   0  0  0  0  0  0  0  0  0  0  0  0
   11.6955   -0.2394   -1.9797 H   0  0  0  0  0  0  0  0  0  0  0  0
   13.2237    0.0299   -2.8144 H   0  0  0  0  0  0  0  0  0  0  0  0
  -17.2766   -1.9617    2.1711 H   0  0  0  0  0  0  0  0  0  0  0  0
  -18.1766   -3.1493    1.2452 H   0  0  0  0  0  0  0  0  0  0  0  0
  -16.5509   -3.5170    1.8132 H   0  0  0  0  0  0  0  0  0  0  0  0
   21.9956    0.1609    1.1751 H   0  0  0  0  0  0  0  0  0  0  0  0
   23.7353    2.7937   -0.2427 H   0  0  0  0  0  0  0  0  0  0  0  0
   23.8713    1.1809    0.4327 H   0  0  0  0  0  0  0  0  0  0  0  0
  -19.7566   -0.7112   -4.6812 H   0  0  0  0  0  0  0  0  0  0  0  0
  -18.1122   -0.2025   -4.3548 H   0  0  0  0  0  0  0  0  0  0  0  0
  -18.6686   -1.7716   -3.7929 H   0  0  0  0  0  0  0  0  0  0  0  0
   17.6672   -0.3567    2.5434 H   0  0  0  0  0  0  0  0  0  0  0  0
   16.4709   -1.5249    2.0081 H   0  0  0  0  0  0  0  0  0  0  0  0
   18.1357   -2.0253    2.2991 H   0  0  0  0  0  0  0  0  0  0  0  0
  -20.5885    1.7322    1.7396 H   0  0  0  0  0  0  0  0  0  0  0  0
  -21.0020    3.7704   -2.7463 H   0  0  0  0  0  0  0  0  0  0  0  0
   23.5498    0.1915   -1.8295 H   0  0  0  0  0  0  0  0  0  0  0  0
   23.3977    1.7880   -2.5235 H   0  0  0  0  0  0  0  0  0  0  0  0
  -21.5082    4.0058    1.4955 H   0  0  0  0  0  0  0  0  0  0  0  0
  -21.7214    5.0228   -0.7497 H   0  0  0  0  0  0  0  0  0  0  0  0
   21.4486    3.7150   -0.8167 H   0  0  0  0  0  0  0  0  0  0  0  0
   21.3097    2.5356   -2.1018 H   0  0  0  0  0  0  0  0  0  0  0  0
   20.0513    2.6445   -0.8827 H   0  0  0  0  0  0  0  0  0  0  0  0
   25.7201    2.3626   -2.0583 H   0  0  0  0  0  0  0  0  0  0  0  0
   28.2982    0.4304   -1.0031 H   0  0  0  0  0  0  0  0  0  0  0  0
   28.1746    0.0869   -2.7145 H   0  0  0  0  0  0  0  0  0  0  0  0
   27.9265    1.7366   -2.1347 H   0  0  0  0  0  0  0  0  0  0  0  0
   24.9130   -1.2391   -1.2768 H   0  0  0  0  0  0  0  0  0  0  0  0
   26.2936   -1.6903   -2.2783 H   0  0  0  0  0  0  0  0  0  0  0  0
   26.5198   -1.3835   -0.5712 H   0  0  0  0  0  0  0  0  0  0  0  0
 56 37  1  0
 19 25  1  0
 19 24  1  0
 37 34  1  0
 37 38  2  0
 34 39  1  0
 25 38  1  0
 33 24  2  0
 33 13  1  0
 24 50  1  0
 39 52  1  0
 13  6  1  0
 52 53  2  0
  6 20  1  0
 53 54  1  0
 53 62  1  0
 54 59  1  0
 59 63  1  0
 48 20  1  0
 63 64  2  0
 20 30  2  0
 64 66  1  0
 64 65  1  0
 30 10  1  0
 10  3  1  0
  3 16  1  0
 28 16  2  0
 28  7  1  0
 16 46  1  0
  7  1  1  0
 44 14  1  0
  1 14  1  0
 14 27  2  0
 27  8  1  0
  8  2  1  0
  2 15  1  0
 29 15  2  0
 29  9  1  0
 15 45  1  0
  9  4  1  0
 47 18  1  0
  4 18  1  0
 18 31  2  0
 31 11  1  0
 11  5  1  0
 49 21  1  0
  5 21  1  0
 21 32  2  0
 60 57  2  0
 60 61  1  0
 57 40  1  0
 67 41  2  0
 61 58  2  0
 41 40  1  0
 41 22  1  0
 40 42  2  0
 32 17  1  0
 17 12  1  0
 36 23  1  0
 36 26  2  0
 12 26  1  0
 22 23  1  0
 22 35  2  0
 58 42  1  0
 42 43  1  0
 26 51  1  0
 35 43  1  0
 35 55  1  0
 43 68  2  0
  1 69  1  0
  1 70  1  0
  2 71  1  0
  2 72  1  0
  3 73  1  0
  3 74  1  0
  4 75  1  0
  4 76  1  0
  5 77  1  0
  5 78  1  0
  6 79  1  0
  6 80  1  0
  7 81  1  0
  7 82  1  0
  8 83  1  0
  8 84  1  0
  9 85  1  0
  9 86  1  0
 10 87  1  0
 10 88  1  0
 11 89  1  0
 11 90  1  0
 12 91  1  0
 12 92  1  0
 13 93  1  0
 13 94  1  0
 17 95  1  0
 17 96  1  0
 19 97  1  0
 19 98  1  0
 23 99  1  0
 23100  1  0
 25101  1  0
 25102  1  0
 27103  1  0
 28104  1  0
 29105  1  0
 30106  1  0
 31107  1  0
 32108  1  0
 33109  1  0
 34110  1  0
 34111  1  0
 36112  1  0
 38113  1  0
 39114  1  0
 39115  1  0
 44116  1  0
 44117  1  0
 44118  1  0
 45119  1  0
 45120  1  0
 45121  1  0
 46122  1  0
 46123  1  0
 46124  1  0
 47125  1  0
 47126  1  0
 47127  1  0
 48128  1  0
 48129  1  0
 48130  1  0
 49131  1  0
 49132  1  0
 49133  1  0
 50134  1  0
 50135  1  0
 50136  1  0
 51137  1  0
 51138  1  0
 51139  1  0
 52140  1  0
 54141  1  0
 54142  1  0
 55143  1  0
 55144  1  0
 55145  1  0
 56146  1  0
 56147  1  0
 56148  1  0
 57149  1  0
 58150  1  0
 59151  1  0
 59152  1  0
 60153  1  0
 61154  1  0
 62155  1  0
 62156  1  0
 62157  1  0
 63158  1  0
 65159  1  0
 65160  1  0
 65161  1  0
 66162  1  0
 66163  1  0
 66164  1  0
M  END
