
     RDKit          3D

 48 51  0  0  0  0  0  0  0  0999 V2000
    1.6963    0.1570    0.1896 C   0  0  0  0  0  0  0  0  0  0  0  0
    0.3644   -0.0528   -0.0263 N   0  0  0  0  0  0  0  0  0  0  0  0
   -0.3791   -1.2153   -0.0570 C   0  0  0  0  0  0  0  0  0  0  0  0
    0.1348   -2.5050   -0.0179 C   0  0  0  0  0  0  0  0  0  0  0  0
   -0.7369   -3.5791   -0.1463 C   0  0  0  0  0  0  0  0  0  0  0  0
   -2.0998   -3.4204   -0.3196 C   0  0  0  0  0  0  0  0  0  0  0  0
   -2.6067   -2.1307   -0.3337 C   0  0  0  0  0  0  0  0  0  0  0  0
   -1.7779   -1.0291   -0.1896 C   0  0  0  0  0  0  0  0  0  0  0  0
   -2.2486    0.2959   -0.1851 N   0  0  0  0  0  0  0  0  0  0  0  0
   -3.3806    0.5943   -1.0474 C   0  0  0  0  0  0  0  0  0  0  0  0
   -3.5622    2.0979   -1.1254 C   0  0  0  0  0  0  0  0  0  0  0  0
   -3.7766    2.6554    0.1936 N   0  0  0  0  0  0  0  0  0  0  0  0
   -2.6662    2.3460    1.0674 C   0  0  0  0  0  0  0  0  0  0  0  0
   -2.4440    0.8495    1.1561 C   0  0  0  0  0  0  0  0  0  0  0  0
    2.2041    1.5003    0.0513 C   0  0  0  0  0  0  0  0  0  0  0  0
    3.5800    1.6931    0.3140 C   0  0  0  0  0  0  0  0  0  0  0  0
    4.3686    0.5734    0.6787 C   0  0  0  0  0  0  0  0  0  0  0  0
    3.7677   -0.6435    0.7608 C   0  0  0  0  0  0  0  0  0  0  0  0
    2.4556   -0.8536    0.5236 N   0  0  0  0  0  0  0  0  0  0  0  0
    1.4209    2.6120   -0.3244 C   0  0  0  0  0  0  0  0  0  0  0  0
    1.9780    3.8604   -0.4265 C   0  0  0  0  0  0  0  0  0  0  0  0
    3.3447    4.0512   -0.1583 C   0  0  0  0  0  0  0  0  0  0  0  0
    4.1293    2.9887    0.2023 C   0  0  0  0  0  0  0  0  0  0  0  0
   -0.1845   -4.9223   -0.1066 N   0  0  0  0  0  0  0  0  0  0  0  0
    0.9900   -5.0521    0.1514 O   0  0  0  0  0  0  0  0  0  0  0  0
   -0.9264   -5.8504   -0.3337 O   0  0  0  0  0  0  0  0  0  0  0  0
   -4.0333    4.0764    0.1408 C   0  0  0  0  0  0  0  0  0  0  0  0
   -0.2107    0.7428   -0.2708 H   0  0  0  0  0  0  0  0  0  0  0  0
    1.1958   -2.6517    0.0913 H   0  0  0  0  0  0  0  0  0  0  0  0
   -2.7652   -4.2647   -0.4178 H   0  0  0  0  0  0  0  0  0  0  0  0
   -3.6734   -1.9891   -0.4442 H   0  0  0  0  0  0  0  0  0  0  0  0
   -3.1825    0.1991   -2.0445 H   0  0  0  0  0  0  0  0  0  0  0  0
   -4.3116    0.1379   -0.6831 H   0  0  0  0  0  0  0  0  0  0  0  0
   -2.6820    2.5426   -1.6234 H   0  0  0  0  0  0  0  0  0  0  0  0
   -4.4300    2.3157   -1.7519 H   0  0  0  0  0  0  0  0  0  0  0  0
   -1.7308    2.8315    0.7313 H   0  0  0  0  0  0  0  0  0  0  0  0
   -2.8775    2.7300    2.0681 H   0  0  0  0  0  0  0  0  0  0  0  0
   -3.3001    0.3712    1.6520 H   0  0  0  0  0  0  0  0  0  0  0  0
   -1.5615    0.6543    1.7677 H   0  0  0  0  0  0  0  0  0  0  0  0
    5.4250    0.6890    0.8808 H   0  0  0  0  0  0  0  0  0  0  0  0
    4.3376   -1.5248    1.0302 H   0  0  0  0  0  0  0  0  0  0  0  0
    0.3673    2.5146   -0.5538 H   0  0  0  0  0  0  0  0  0  0  0  0
    1.3634    4.7018   -0.7167 H   0  0  0  0  0  0  0  0  0  0  0  0
    3.7740    5.0410   -0.2416 H   0  0  0  0  0  0  0  0  0  0  0  0
    5.1837    3.1278    0.4056 H   0  0  0  0  0  0  0  0  0  0  0  0
   -4.9015    4.2757   -0.4889 H   0  0  0  0  0  0  0  0  0  0  0  0
   -4.2495    4.4546    1.1410 H   0  0  0  0  0  0  0  0  0  0  0  0
   -3.1872    4.6551   -0.2616 H   0  0  0  0  0  0  0  0  0  0  0  0
 27 12  1  0
 12 11  1  0
 12 13  1  0
 11 10  1  0
 13 14  1  0
 10  9  1  0
 14  9  1  0
  9  8  1  0
  7  8  2  0
  7  6  1  0
  8  3  1  0
 18 19  1  0
 18 17  2  0
 19  1  2  0
 17 16  1  0
  6  5  2  0
  1  2  1  0
  1 15  1  0
 16 15  2  0
 16 23  1  0
  3  2  1  0
  3  4  2  0
 15 20  1  0
 23 22  2  0
 20 21  2  0
 22 21  1  0
  5  4  1  0
  5 24  1  0
 26 24  2  0
 24 25  1  0
  2 28  1  0
  4 29  1  0
  6 30  1  0
  7 31  1  0
 10 32  1  0
 10 33  1  0
 11 34  1  0
 11 35  1  0
 13 36  1  0
 13 37  1  0
 14 38  1  0
 14 39  1  0
 17 40  1  0
 18 41  1  0
 20 42  1  0
 21 43  1  0
 22 44  1  0
 23 45  1  0
 27 46  1  0
 27 47  1  0
 27 48  1  0
M  CHG  2  24   1  25  -1
M  END
