
     RDKit          3D

 60 64  0  0  0  0  0  0  0  0999 V2000
   -5.7982    0.3800    0.0906 C   0  0  0  0  0  0  0  0  0  0  0  0
   -6.9227    0.4850    0.8863 C   0  0  0  0  0  0  0  0  0  0  0  0
   -7.4597   -0.6399    1.5351 C   0  0  0  0  0  0  0  0  0  0  0  0
   -6.8836   -1.8892    1.4029 C   0  0  0  0  0  0  0  0  0  0  0  0
   -5.7516   -1.9920    0.5948 C   0  0  0  0  0  0  0  0  0  0  0  0
   -5.1994   -0.8751   -0.0719 C   0  0  0  0  0  0  0  0  0  0  0  0
   -4.9813   -3.0739    0.2826 N   0  0  0  0  0  0  0  0  0  0  0  0
   -4.0595   -1.3438   -0.8035 C   0  0  0  0  0  0  0  0  0  0  0  0
   -3.9678   -2.6818   -0.5477 C   0  0  0  0  0  0  0  0  0  0  0  0
   -3.1743   -0.5328   -1.6887 C   0  0  0  0  0  0  0  0  0  0  0  0
   -2.7112    0.6819   -1.0442 N   0  0  0  0  0  0  0  0  0  0  0  0
   -2.0670    1.5734   -1.9860 C   0  0  0  0  0  0  0  0  0  0  0  0
   -1.7114    2.9014   -1.3308 C   0  0  0  0  0  0  0  0  0  0  0  0
   -0.8565    2.7150   -0.0806 C   0  0  1  0  0  0  0  0  0  0  0  0
   -1.5425    1.7080    0.8423 C   0  0  0  0  0  0  0  0  0  0  0  0
   -1.8737    0.4191    0.1099 C   0  0  0  0  0  0  0  0  0  0  0  0
    0.4766    2.2762   -0.4618 N   0  0  0  0  0  0  0  0  0  0  0  0
    1.5441    2.3308    0.3473 C   0  0  0  0  0  0  0  0  0  0  0  0
    2.7966    1.6608   -0.2022 C   0  0  2  0  0  0  0  0  0  0  0  0
    1.5178    2.8263    1.4657 O   0  0  0  0  0  0  0  0  0  0  0  0
    2.7175    0.1559    0.1551 C   0  0  0  0  0  0  0  0  0  0  0  0
    3.9650    2.3567    0.2879 N   0  0  0  0  0  0  0  0  0  0  0  0
    3.8988   -0.6191   -0.3232 C   0  0  0  0  0  0  0  0  0  0  0  0
    5.2661   -1.8266   -1.6282 N   0  0  0  0  0  0  0  0  0  0  0  0
    4.0352   -1.2415   -1.5334 C   0  0  0  0  0  0  0  0  0  0  0  0
    5.1327   -0.8389    0.3732 C   0  0  0  0  0  0  0  0  0  0  0  0
    5.9629   -1.6025   -0.4781 C   0  0  0  0  0  0  0  0  0  0  0  0
    7.2446   -2.0033   -0.1013 C   0  0  0  0  0  0  0  0  0  0  0  0
    7.6887   -1.6264    1.1513 C   0  0  0  0  0  0  0  0  0  0  0  0
    6.8789   -0.8696    2.0154 C   0  0  0  0  0  0  0  0  0  0  0  0
    5.6111   -0.4740    1.6378 C   0  0  0  0  0  0  0  0  0  0  0  0
   -5.3698    1.2502   -0.3889 H   0  0  0  0  0  0  0  0  0  0  0  0
   -7.3972    1.4487    1.0213 H   0  0  0  0  0  0  0  0  0  0  0  0
   -8.3402   -0.5257    2.1544 H   0  0  0  0  0  0  0  0  0  0  0  0
   -7.2944   -2.7527    1.9109 H   0  0  0  0  0  0  0  0  0  0  0  0
   -5.1200   -4.0112    0.6201 H   0  0  0  0  0  0  0  0  0  0  0  0
   -3.2430   -3.3976   -0.9038 H   0  0  0  0  0  0  0  0  0  0  0  0
   -2.3377   -1.1596   -2.0458 H   0  0  0  0  0  0  0  0  0  0  0  0
   -3.7274   -0.2307   -2.5847 H   0  0  0  0  0  0  0  0  0  0  0  0
   -1.1672    1.1142   -2.4388 H   0  0  0  0  0  0  0  0  0  0  0  0
   -2.7518    1.7574   -2.8175 H   0  0  0  0  0  0  0  0  0  0  0  0
   -1.2053    3.5484   -2.0513 H   0  0  0  0  0  0  0  0  0  0  0  0
   -2.6336    3.4072   -1.0368 H   0  0  0  0  0  0  0  0  0  0  0  0
   -0.7596    3.6738    0.4336 H   0  0  0  0  0  0  0  0  0  0  0  0
   -0.9165    1.4949    1.7101 H   0  0  0  0  0  0  0  0  0  0  0  0
   -2.4685    2.1541    1.2148 H   0  0  0  0  0  0  0  0  0  0  0  0
   -2.4065   -0.2512    0.7863 H   0  0  0  0  0  0  0  0  0  0  0  0
   -0.9415   -0.1033   -0.1765 H   0  0  0  0  0  0  0  0  0  0  0  0
    0.5970    1.8590   -1.3708 H   0  0  0  0  0  0  0  0  0  0  0  0
    2.7976    1.7408   -1.2942 H   0  0  0  0  0  0  0  0  0  0  0  0
    2.6211    0.0588    1.2415 H   0  0  0  0  0  0  0  0  0  0  0  0
    1.8018   -0.2632   -0.2723 H   0  0  0  0  0  0  0  0  0  0  0  0
    4.0187    2.2781    1.2963 H   0  0  0  0  0  0  0  0  0  0  0  0
    4.7969    1.9139   -0.0809 H   0  0  0  0  0  0  0  0  0  0  0  0
    5.5912   -2.3577   -2.4184 H   0  0  0  0  0  0  0  0  0  0  0  0
    3.3291   -1.3173   -2.3460 H   0  0  0  0  0  0  0  0  0  0  0  0
    7.8682   -2.5903   -0.7638 H   0  0  0  0  0  0  0  0  0  0  0  0
    8.6789   -1.9218    1.4732 H   0  0  0  0  0  0  0  0  0  0  0  0
    7.2585   -0.5932    2.9907 H   0  0  0  0  0  0  0  0  0  0  0  0
    4.9976    0.1091    2.3142 H   0  0  0  0  0  0  0  0  0  0  0  0
 15 16  1  0
 15 14  1  0
 22 19  1  0
 16 11  1  0
 30 31  2  0
 30 29  1  0
 14 17  1  0
 14 13  1  0
 17 18  1  0
 31 26  1  0
 18 19  1  0
 18 20  2  0
 19 21  1  0
 29 28  2  0
 11 10  1  0
 11 12  1  0
 10  8  1  0
 13 12  1  0
 26 23  1  0
 26 27  2  0
 21 23  1  0
  9  8  2  0
  9  7  1  0
  8  6  1  0
 28 27  1  0
 23 25  2  0
 27 24  1  0
  7  5  1  0
  6  5  1  0
  6  1  2  0
 25 24  1  0
  5  4  2  0
  1  2  1  0
  4  3  1  0
  2  3  2  0
  1 32  1  0
  2 33  1  0
  3 34  1  0
  4 35  1  0
  7 36  1  0
  9 37  1  0
 10 38  1  0
 10 39  1  0
 12 40  1  0
 12 41  1  0
 13 42  1  0
 13 43  1  0
 14 44  1  1
 15 45  1  0
 15 46  1  0
 16 47  1  0
 16 48  1  0
 17 49  1  0
 19 50  1  6
 21 51  1  0
 21 52  1  0
 22 53  1  0
 22 54  1  0
 24 55  1  0
 25 56  1  0
 28 57  1  0
 29 58  1  0
 30 59  1  0
 31 60  1  0
M  END
