
     RDKit          3D

 56 58  0  0  0  0  0  0  0  0999 V2000
    0.2276    2.9203    1.2147 C   0  0  0  0  0  0  0  0  0  0  0  0
   -0.7289    2.0846    0.6116 O   0  0  0  0  0  0  0  0  0  0  0  0
    1.4810    2.1111    1.4618 C   0  0  0  0  0  0  0  0  0  0  0  0
    2.0681    1.6448    0.2212 N   0  0  0  0  0  0  0  0  0  0  0  0
    3.2082    0.7783    0.4377 C   0  0  0  0  0  0  0  0  0  0  0  0
    3.7868    0.2964   -0.8902 C   0  0  0  0  0  0  0  0  0  0  0  0
   -2.6825    2.8621   -1.8828 N   0  0  0  0  0  0  0  0  0  0  0  0
    4.9362   -0.6462   -0.6762 C   0  0  0  0  0  0  0  0  0  0  0  0
    6.2447   -0.1708   -0.6621 C   0  0  0  0  0  0  0  0  0  0  0  0
    7.2817   -1.0519   -0.4227 C   0  0  0  0  0  0  0  0  0  0  0  0
    8.5405   -0.5788   -0.4186 F   0  0  0  0  0  0  0  0  0  0  0  0
    7.0755   -2.3973   -0.1906 C   0  0  0  0  0  0  0  0  0  0  0  0
    5.7680   -2.8658   -0.2034 C   0  0  0  0  0  0  0  0  0  0  0  0
    4.7094   -2.0019   -0.4431 C   0  0  0  0  0  0  0  0  0  0  0  0
   -5.1339   -0.4051    0.8389 N   0  0  0  0  0  0  0  0  0  0  0  0
   -2.0708    3.6083   -0.7738 C   0  0  0  0  0  0  0  0  0  0  0  0
   -3.8911   -0.7480    0.4908 C   0  0  0  0  0  0  0  0  0  0  0  0
   -2.0038    2.6627    0.4449 C   0  0  1  0  0  0  0  0  0  0  0  0
   -3.5976   -1.9384   -0.1496 C   0  0  0  0  0  0  0  0  0  0  0  0
   -2.9935    1.5564    0.0791 C   0  0  1  0  0  0  0  0  0  0  0  0
   -4.6377   -2.8260   -0.4498 C   0  0  0  0  0  0  0  0  0  0  0  0
   -2.8318    1.4804   -1.4383 C   0  0  0  0  0  0  0  0  0  0  0  0
   -5.9198   -2.4700   -0.0871 C   0  0  0  0  0  0  0  0  0  0  0  0
   -6.1286   -1.2402    0.5626 C   0  0  0  0  0  0  0  0  0  0  0  0
   -7.3777   -0.8794    0.9797 N   0  0  0  0  0  0  0  0  0  0  0  0
   -2.8090    0.2405    0.8250 C   0  0  0  0  0  0  0  0  0  0  0  0
   -4.3545   -4.1266   -1.1374 C   0  0  0  0  0  0  0  0  0  0  0  0
    0.4661    3.7851    0.5809 H   0  0  0  0  0  0  0  0  0  0  0  0
   -0.1460    3.3121    2.1711 H   0  0  0  0  0  0  0  0  0  0  0  0
    2.2020    2.7533    1.9759 H   0  0  0  0  0  0  0  0  0  0  0  0
    1.2469    1.2899    2.1587 H   0  0  0  0  0  0  0  0  0  0  0  0
    1.3644    1.1289   -0.2947 H   0  0  0  0  0  0  0  0  0  0  0  0
    3.9748    1.3375    0.9836 H   0  0  0  0  0  0  0  0  0  0  0  0
    2.9618   -0.0952    1.0629 H   0  0  0  0  0  0  0  0  0  0  0  0
    3.0014   -0.2069   -1.4610 H   0  0  0  0  0  0  0  0  0  0  0  0
    4.1076    1.1594   -1.4778 H   0  0  0  0  0  0  0  0  0  0  0  0
   -3.6020    3.2407   -2.0613 H   0  0  0  0  0  0  0  0  0  0  0  0
    6.4532    0.8774   -0.8409 H   0  0  0  0  0  0  0  0  0  0  0  0
    7.9102   -3.0614   -0.0090 H   0  0  0  0  0  0  0  0  0  0  0  0
    5.5790   -3.9167   -0.0282 H   0  0  0  0  0  0  0  0  0  0  0  0
    3.6954   -2.3836   -0.4526 H   0  0  0  0  0  0  0  0  0  0  0  0
   -1.0672    3.9546   -1.0393 H   0  0  0  0  0  0  0  0  0  0  0  0
   -2.6585    4.4986   -0.5433 H   0  0  0  0  0  0  0  0  0  0  0  0
   -2.2967    3.1758    1.3710 H   0  0  0  0  0  0  0  0  0  0  0  0
   -2.5756   -2.1763   -0.4170 H   0  0  0  0  0  0  0  0  0  0  0  0
   -3.9971    1.9394    0.2932 H   0  0  0  0  0  0  0  0  0  0  0  0
   -3.6772    1.0083   -1.9398 H   0  0  0  0  0  0  0  0  0  0  0  0
   -1.9385    0.8976   -1.6926 H   0  0  0  0  0  0  0  0  0  0  0  0
   -6.7590   -3.1226   -0.2970 H   0  0  0  0  0  0  0  0  0  0  0  0
   -7.5189    0.0990    1.1701 H   0  0  0  0  0  0  0  0  0  0  0  0
   -8.1636   -1.3312    0.5431 H   0  0  0  0  0  0  0  0  0  0  0  0
   -2.8236    0.4276    1.9032 H   0  0  0  0  0  0  0  0  0  0  0  0
   -1.8357   -0.1914    0.5892 H   0  0  0  0  0  0  0  0  0  0  0  0
   -3.7627   -4.7807   -0.4949 H   0  0  0  0  0  0  0  0  0  0  0  0
   -5.2705   -4.6536   -1.3998 H   0  0  0  0  0  0  0  0  0  0  0  0
   -3.7775   -3.9697   -2.0496 H   0  0  0  0  0  0  0  0  0  0  0  0
  3  1  1  0
  1  2  1  0
  1 28  1  0
  1 29  1  0
  2 18  1  0
  3  4  1  0
  3 30  1  0
  3 31  1  0
  5  4  1  0
  4 32  1  0
  5  6  1  0
  5 33  1  0
  5 34  1  0
  8  6  1  0
  6 35  1  0
  6 36  1  0
 16  7  1  0
 22  7  1  0
  7 37  1  0
  9  8  2  0
  8 14  1  0
 10  9  1  0
  9 38  1  0
 11 10  1  0
 10 12  2  0
 12 13  1  0
 12 39  1  0
 13 14  2  0
 13 40  1  0
 14 41  1  0
 17 15  2  0
 15 24  1  0
 18 16  1  0
 16 42  1  0
 16 43  1  0
 26 17  1  0
 17 19  1  0
 18 20  1  0
 18 44  1  1
 19 21  2  0
 19 45  1  0
 26 20  1  0
 20 22  1  0
 20 46  1  6
 21 23  1  0
 21 27  1  0
 22 47  1  0
 22 48  1  0
 24 23  2  0
 23 49  1  0
 25 24  1  0
 25 50  1  0
 25 51  1  0
 26 52  1  0
 26 53  1  0
 27 54  1  0
 27 55  1  0
 27 56  1  0
M  END
