
     RDKit          3D

 42 42  0  0  0  0  0  0  0  0999 V2000
   -3.0039    0.9390    0.8655 C   0  0  0  0  0  0  0  0  0  0  0  0
   -2.6771   -0.4627    0.4394 C   0  0  0  0  0  0  0  0  0  0  0  0
   -3.1837   -0.9786   -0.7513 C   0  0  0  0  0  0  0  0  0  0  0  0
   -1.8087   -1.2611    1.1747 C   0  0  0  0  0  0  0  0  0  0  0  0
   -2.8394   -2.2420   -1.1989 C   0  0  0  0  0  0  0  0  0  0  0  0
   -1.4458   -2.5283    0.7392 C   0  0  0  0  0  0  0  0  0  0  0  0
   -1.9586   -3.0248   -0.4551 C   0  0  0  0  0  0  0  0  0  0  0  0
   -1.6450   -4.2473   -0.9327 O   0  0  0  0  0  0  0  0  0  0  0  0
   -2.3644    3.3695    0.6350 C   0  0  0  0  0  0  0  0  0  0  0  0
    1.4072    0.4929    0.1155 C   0  0  0  0  0  0  0  0  0  0  0  0
    2.5381    0.5671   -0.9082 C   0  0  2  0  0  0  0  0  0  0  0  0
    3.7954   -0.0831   -0.3464 C   0  0  0  0  0  0  0  0  0  0  0  0
    4.7013   -2.1227    0.4480 C   0  0  0  0  0  0  0  0  0  0  0  0
    4.2172   -3.5341    0.6713 C   0  0  0  0  0  0  0  0  0  0  0  0
   -2.0612    1.9555    0.1789 C   0  0  1  0  0  0  0  0  0  0  0  0
   -0.6838    1.6425    0.4323 N   0  0  0  0  0  0  0  0  0  0  0  0
   -0.2061    0.8262   -1.6234 O   0  0  0  0  0  0  0  0  0  0  0  0
    2.7924    1.8732   -1.3270 O   0  0  0  0  0  0  0  0  0  0  0  0
    4.8155    0.5157   -0.1183 O   0  0  0  0  0  0  0  0  0  0  0  0
    3.6187   -1.3736   -0.1327 O   0  0  0  0  0  0  0  0  0  0  0  0
   -1.6032    4.0689    1.2513 O   0  0  0  0  0  0  0  0  0  0  0  0
   -4.0363    1.1808    0.6096 H   0  0  0  0  0  0  0  0  0  0  0  0
   -2.9086    1.0407    1.9497 H   0  0  0  0  0  0  0  0  0  0  0  0
   -3.8619   -0.3784   -1.3470 H   0  0  0  0  0  0  0  0  0  0  0  0
   -1.4014   -0.8962    2.1103 H   0  0  0  0  0  0  0  0  0  0  0  0
   -3.2480   -2.6248   -2.1260 H   0  0  0  0  0  0  0  0  0  0  0  0
   -0.7650   -3.1277    1.3336 H   0  0  0  0  0  0  0  0  0  0  0  0
   -1.0204   -4.6870   -0.3456 H   0  0  0  0  0  0  0  0  0  0  0  0
    1.6846    1.0304    1.0267 H   0  0  0  0  0  0  0  0  0  0  0  0
    1.2310   -0.5457    0.4091 H   0  0  0  0  0  0  0  0  0  0  0  0
    2.2401    0.0048   -1.7976 H   0  0  0  0  0  0  0  0  0  0  0  0
    5.0018   -1.6587    1.3889 H   0  0  0  0  0  0  0  0  0  0  0  0
    5.5584   -2.1046   -0.2278 H   0  0  0  0  0  0  0  0  0  0  0  0
    3.3721   -3.5644    1.3589 H   0  0  0  0  0  0  0  0  0  0  0  0
    3.9241   -4.0122   -0.2633 H   0  0  0  0  0  0  0  0  0  0  0  0
    5.0247   -4.1220    1.1068 H   0  0  0  0  0  0  0  0  0  0  0  0
   -2.2247    1.9056   -0.8999 H   0  0  0  0  0  0  0  0  0  0  0  0
   -0.3587    1.7236    1.3834 H   0  0  0  0  0  0  0  0  0  0  0  0
   -3.7780    4.6296    0.6048 H   0  0  0  0  0  0  0  0  0  0  0  0
    3.1309    2.3844   -0.5835 H   0  0  0  0  0  0  0  0  0  0  0  0
   -3.5881    3.7346    0.2842 O   0  0  0  0  0  0  0  0  0  0  0  0
    0.1039    1.0082   -0.4587 C   0  0  0  0  0  0  0  0  0  0  0  0
 19 12  2  0
 13 14  1  0
 13 20  1  0
 12 20  1  0
 12 11  1  0
  5  3  1  0
  5  7  2  0
 11 18  1  0
 11 10  1  0
  3  2  2  0
 17 42  2  0
  8  7  1  0
 21  9  2  0
  7  6  1  0
 42 10  1  0
 42 16  1  0
 15 16  1  0
 15  9  1  0
 15  1  1  0
  2  1  1  0
  2  4  1  0
  9 41  1  0
  6  4  2  0
  1 22  1  0
  1 23  1  0
  3 24  1  0
  4 25  1  0
  5 26  1  0
  6 27  1  0
  8 28  1  0
 10 29  1  0
 10 30  1  0
 11 31  1  6
 13 32  1  0
 13 33  1  0
 14 34  1  0
 14 35  1  0
 14 36  1  0
 15 37  1  6
 16 38  1  0
 41 39  1  0
 18 40  1  0
M  END
