
     RDKit          3D

 25 25  0  0  0  0  0  0  0  0999 V2000
   -1.6611   -1.1401   -0.4843 O   0  0  0  0  0  0  0  0  0  0  0  0
   -0.1943   -1.0121   -0.5090 C   0  0  2  0  0  0  0  0  0  0  0  0
    0.2963   -1.0114    0.8599 C   0  0  2  0  0  0  0  0  0  0  0  0
   -0.2299   -2.2104    1.5536 O   0  0  0  0  0  0  0  0  0  0  0  0
   -0.1233    0.1938    1.6109 C   0  0  1  0  0  0  0  0  0  0  0  0
    0.5052    0.1633    2.9465 N   0  0  0  0  0  0  0  0  0  0  0  0
    0.2876    1.5219    0.8918 C   0  0  1  0  0  0  0  0  0  0  0  0
    1.5740    1.6299    0.8702 O   0  0  0  0  0  0  0  0  0  0  0  0
   -0.2548    1.4570   -0.5421 O   0  0  0  0  0  0  0  0  0  0  0  0
    0.1666    0.2416   -1.2513 C   0  0  2  0  0  0  0  0  0  0  0  0
   -0.5040    0.2132   -2.6143 C   0  0  0  0  0  0  0  0  0  0  0  0
   -0.0394    1.2860   -3.3855 O   0  0  0  0  0  0  0  0  0  0  0  0
   -1.9136   -1.9486   -0.9017 H   0  0  0  0  0  0  0  0  0  0  0  0
    0.2288   -1.8616   -1.0314 H   0  0  0  0  0  0  0  0  0  0  0  0
    1.3787   -1.0546    0.8438 H   0  0  0  0  0  0  0  0  0  0  0  0
    0.4317   -2.8822    1.5657 H   0  0  0  0  0  0  0  0  0  0  0  0
   -1.2005    0.1770    1.7240 H   0  0  0  0  0  0  0  0  0  0  0  0
    0.1875   -0.6453    3.4470 H   0  0  0  0  0  0  0  0  0  0  0  0
    0.2531    0.9908    3.4535 H   0  0  0  0  0  0  0  0  0  0  0  0
   -0.1491    2.3690    1.4102 H   0  0  0  0  0  0  0  0  0  0  0  0
    1.8127    2.5428    0.8256 H   0  0  0  0  0  0  0  0  0  0  0  0
    1.2413    0.2707   -1.3844 H   0  0  0  0  0  0  0  0  0  0  0  0
   -1.5785    0.2955   -2.4904 H   0  0  0  0  0  0  0  0  0  0  0  0
   -0.2680   -0.7202   -3.1140 H   0  0  0  0  0  0  0  0  0  0  0  0
   -0.2471    1.1338   -4.2941 H   0  0  0  0  0  0  0  0  0  0  0  0
  4  3  1  0
  3  2  1  0
  3  5  1  0
  2  1  1  0
  2 10  1  0
  6  5  1  0
 12 11  1  0
 10 11  1  0
 10  9  1  0
  5  7  1  0
  8  7  1  0
  7  9  1  0
  1 13  1  0
  2 14  1  6
  3 15  1  6
  4 16  1  0
  5 17  1  1
  6 18  1  0
  6 19  1  0
  7 20  1  1
  8 21  1  0
 10 22  1  6
 11 23  1  0
 11 24  1  0
 12 25  1  0
M  END
