
     RDKit          3D

 53 55  0  0  0  0  0  0  0  0999 V2000
   -5.6668   -2.6778    0.5817 C   0  0  0  0  0  0  0  0  0  0  0  0
   -5.8321   -1.5687   -0.4137 C   0  0  0  0  0  0  0  0  0  0  0  0
   -6.4463   -1.9914   -1.7171 C   0  0  0  0  0  0  0  0  0  0  0  0
   -5.4789   -0.2980   -0.2075 C   0  0  0  0  0  0  0  0  0  0  0  0
   -4.8385    0.2882    1.0191 C   0  0  0  0  0  0  0  0  0  0  0  0
   -3.5018    0.9074    0.6920 C   0  0  0  0  0  0  0  0  0  0  0  0
   -2.3494    0.1279    0.7288 C   0  0  0  0  0  0  0  0  0  0  0  0
   -2.4563   -1.1450    1.0886 O   0  0  0  0  0  0  0  0  0  0  0  0
   -3.3765    2.2407    0.2766 C   0  0  0  0  0  0  0  0  0  0  0  0
   -4.4308    3.0604    0.1811 O   0  0  0  0  0  0  0  0  0  0  0  0
   -2.1491    2.7987   -0.0754 C   0  0  0  0  0  0  0  0  0  0  0  0
   -1.0269    2.0030   -0.0067 C   0  0  0  0  0  0  0  0  0  0  0  0
    0.1405    2.5583   -0.3691 O   0  0  0  0  0  0  0  0  0  0  0  0
   -1.0800    0.6689    0.3998 C   0  0  0  0  0  0  0  0  0  0  0  0
    0.1215   -0.1325    0.4717 C   0  0  0  0  0  0  0  0  0  0  0  0
    0.0513   -1.3373    0.7606 O   0  0  0  0  0  0  0  0  0  0  0  0
    1.3762    0.5522    0.1717 C   0  0  0  0  0  0  0  0  0  0  0  0
    1.3011    1.8743   -0.2884 C   0  0  0  0  0  0  0  0  0  0  0  0
    2.4133    2.5872   -0.7071 C   0  0  0  0  0  0  0  0  0  0  0  0
    3.6466    1.9710   -0.6792 C   0  0  0  0  0  0  0  0  0  0  0  0
    4.7185    2.6348   -1.1123 O   0  0  0  0  0  0  0  0  0  0  0  0
    3.7613    0.6598   -0.1802 C   0  0  0  0  0  0  0  0  0  0  0  0
    5.0271    0.1620   -0.1412 O   0  0  0  0  0  0  0  0  0  0  0  0
    2.6612   -0.0436    0.2710 C   0  0  0  0  0  0  0  0  0  0  0  0
    2.9390   -1.4052    0.8686 C   0  0  0  0  0  0  0  0  0  0  0  0
    3.3320   -2.3933   -0.1945 C   0  0  0  0  0  0  0  0  0  0  0  0
    4.4377   -3.1463   -0.2450 C   0  0  0  0  0  0  0  0  0  0  0  0
    5.5197   -3.1508    0.7956 C   0  0  0  0  0  0  0  0  0  0  0  0
    4.6579   -4.1072   -1.3765 C   0  0  0  0  0  0  0  0  0  0  0  0
   -5.0683   -3.4865    0.1552 H   0  0  0  0  0  0  0  0  0  0  0  0
   -5.1885   -2.3661    1.5070 H   0  0  0  0  0  0  0  0  0  0  0  0
   -6.6376   -3.1110    0.8347 H   0  0  0  0  0  0  0  0  0  0  0  0
   -7.4436   -2.4115   -1.5630 H   0  0  0  0  0  0  0  0  0  0  0  0
   -6.5346   -1.1630   -2.4194 H   0  0  0  0  0  0  0  0  0  0  0  0
   -5.8498   -2.7752   -2.1906 H   0  0  0  0  0  0  0  0  0  0  0  0
   -5.6481    0.4103   -1.0152 H   0  0  0  0  0  0  0  0  0  0  0  0
   -5.5104    1.0290    1.4693 H   0  0  0  0  0  0  0  0  0  0  0  0
   -4.7104   -0.4612    1.7979 H   0  0  0  0  0  0  0  0  0  0  0  0
   -1.5436   -1.5313    1.0538 H   0  0  0  0  0  0  0  0  0  0  0  0
   -5.2409    2.6426    0.4942 H   0  0  0  0  0  0  0  0  0  0  0  0
   -2.0829    3.8291   -0.3985 H   0  0  0  0  0  0  0  0  0  0  0  0
    2.3090    3.6010   -1.0715 H   0  0  0  0  0  0  0  0  0  0  0  0
    5.4999    2.0671   -1.0595 H   0  0  0  0  0  0  0  0  0  0  0  0
    5.0351   -0.7440   -0.4841 H   0  0  0  0  0  0  0  0  0  0  0  0
    3.7249   -1.2905    1.6189 H   0  0  0  0  0  0  0  0  0  0  0  0
    2.0673   -1.7755    1.3970 H   0  0  0  0  0  0  0  0  0  0  0  0
    2.6123   -2.4955   -1.0023 H   0  0  0  0  0  0  0  0  0  0  0  0
    5.4950   -4.0861    1.3602 H   0  0  0  0  0  0  0  0  0  0  0  0
    6.5044   -3.0985    0.3269 H   0  0  0  0  0  0  0  0  0  0  0  0
    5.4435   -2.3335    1.5086 H   0  0  0  0  0  0  0  0  0  0  0  0
    5.5890   -3.8833   -1.9021 H   0  0  0  0  0  0  0  0  0  0  0  0
    4.7522   -5.1292   -1.0012 H   0  0  0  0  0  0  0  0  0  0  0  0
    3.8440   -4.0850   -2.0996 H   0  0  0  0  0  0  0  0  0  0  0  0
 29 27  1  0
 28 27  1  0
 27 26  2  0
 26 25  1  0
 23 22  1  0
 25 24  1  0
 22 24  1  0
 22 20  2  0
 24 17  2  0
 21 20  1  0
 20 19  1  0
 16 15  2  0
 17 15  1  0
 17 18  1  0
 15 14  1  0
 19 18  2  0
 18 13  1  0
  8  7  1  0
 14  7  1  0
 14 12  2  0
  7  6  2  0
 13 12  1  0
 12 11  1  0
  6  5  1  0
  6  9  1  0
  5  4  1  0
 11  9  2  0
  4  2  2  0
  9 10  1  0
  2  3  1  0
  2  1  1  0
  1 30  1  0
  1 31  1  0
  1 32  1  0
  3 33  1  0
  3 34  1  0
  3 35  1  0
  4 36  1  0
  5 37  1  0
  5 38  1  0
  8 39  1  0
 10 40  1  0
 11 41  1  0
 19 42  1  0
 21 43  1  0
 23 44  1  0
 25 45  1  0
 25 46  1  0
 26 47  1  0
 28 48  1  0
 28 49  1  0
 28 50  1  0
 29 51  1  0
 29 52  1  0
 29 53  1  0
M  END
