
     RDKit          3D

 25 25  0  0  0  0  0  0  0  0999 V2000
   -0.5317    1.2866   -0.5377 C   0  0  0  0  0  0  0  0  0  0  0  0
   -2.6773    0.2651    0.1935 C   0  0  0  0  0  0  0  0  0  0  0  0
   -2.0103   -1.0093    0.0542 C   0  0  0  0  0  0  0  0  0  0  0  0
   -2.7284   -2.1051    0.3122 F   0  0  0  0  0  0  0  0  0  0  0  0
   -0.7295   -1.0850   -0.3211 C   0  0  0  0  0  0  0  0  0  0  0  0
    0.0760    2.3010   -0.8078 O   0  0  0  0  0  0  0  0  0  0  0  0
   -1.8416    1.3188   -0.1136 N   0  0  0  0  0  0  0  0  0  0  0  0
   -3.8302    0.4264    0.5352 O   0  0  0  0  0  0  0  0  0  0  0  0
    0.0098    0.0263   -0.6172 N   0  0  0  0  0  0  0  0  0  0  0  0
    1.4113   -0.1440   -0.9936 C   0  0  0  0  0  0  0  0  0  0  0  0
    2.3248   -0.3610    0.2237 C   0  0  2  0  0  0  0  0  0  0  0  0
    2.2281    0.6535    1.2499 N   0  0  0  0  0  0  0  0  0  0  0  0
    3.7562   -0.4912   -0.2909 C   0  0  0  0  0  0  0  0  0  0  0  0
    4.6776   -0.9082    0.7501 N   0  0  0  0  0  0  0  0  0  0  0  0
   -0.2253   -2.0364   -0.4238 H   0  0  0  0  0  0  0  0  0  0  0  0
   -2.2444    2.2454   -0.0393 H   0  0  0  0  0  0  0  0  0  0  0  0
    1.4628   -1.0019   -1.6657 H   0  0  0  0  0  0  0  0  0  0  0  0
    1.7177    0.7301   -1.5649 H   0  0  0  0  0  0  0  0  0  0  0  0
    2.0458   -1.3191    0.6799 H   0  0  0  0  0  0  0  0  0  0  0  0
    2.4127    1.5702    0.8604 H   0  0  0  0  0  0  0  0  0  0  0  0
    1.2980    0.6847    1.6463 H   0  0  0  0  0  0  0  0  0  0  0  0
    3.7440   -1.1672   -1.1586 H   0  0  0  0  0  0  0  0  0  0  0  0
    4.0793    0.4839   -0.6700 H   0  0  0  0  0  0  0  0  0  0  0  0
    4.4356   -1.8429    1.0560 H   0  0  0  0  0  0  0  0  0  0  0  0
    5.6057   -0.9857    0.3541 H   0  0  0  0  0  0  0  0  0  0  0  0
  4  3  1  0
  8  2  2  0
  2  3  1  0
  2  7  1  0
  3  5  2  0
  7  1  1  0
  5  9  1  0
  1  9  1  0
  1  6  2  0
  9 10  1  0
 13 14  1  0
 13 11  1  0
 10 11  1  0
 11 12  1  0
  5 15  1  0
  7 16  1  0
 10 17  1  0
 10 18  1  0
 11 19  1  1
 12 20  1  0
 12 21  1  0
 13 22  1  0
 13 23  1  0
 14 24  1  0
 14 25  1  0
M  END
