
     RDKit          3D

  4  3  0  0  0  0  0  0  0  0999 V2000
    0.0017    0.0629    0.2555 As  0  0  0  0  0  0  0  0  0  0  0  0
   -0.3179    1.3397   -0.5192 H   0  0  0  0  0  0  0  0  0  0  0  0
   -1.0165   -0.7393   -0.5485 H   0  0  0  0  0  0  0  0  0  0  0  0
    1.1287   -0.3047   -0.7091 H   0  0  0  0  0  0  0  0  0  0  0  0
  2  1  1  0
  3  1  1  0
  4  1  1  0
M  END
