
     RDKit          3D

 26 28  0  0  0  0  0  0  0  0999 V2000
   -0.6196    1.7545   -1.0649 C   0  0  0  0  0  0  0  0  0  0  0  0
   -1.3362    0.5655   -0.4791 C   0  0  0  0  0  0  0  0  0  0  0  0
   -2.7225    0.4757   -0.4951 C   0  0  0  0  0  0  0  0  0  0  0  0
    2.7146    0.6131    0.4278 N   0  0  0  0  0  0  0  0  0  0  0  0
   -3.3717   -0.6473   -0.0014 C   0  0  0  0  0  0  0  0  0  0  0  0
   -2.6337   -1.6920    0.5361 C   0  0  0  0  0  0  0  0  0  0  0  0
    0.7916   -0.3633    0.1382 N   0  0  0  0  0  0  0  0  0  0  0  0
   -1.2500   -1.6134    0.5889 C   0  0  0  0  0  0  0  0  0  0  0  0
   -0.6134   -0.4938    0.0752 C   0  0  0  0  0  0  0  0  0  0  0  0
    1.7860   -1.2425   -0.1734 C   0  0  0  0  0  0  0  0  0  0  0  0
    1.4305    0.7852    0.5025 C   0  0  0  0  0  0  0  0  0  0  0  0
    2.9372   -0.6577    0.0058 N   0  0  0  0  0  0  0  0  0  0  0  0
   -0.0369    2.6235   -0.1115 O   0  0  0  0  0  0  0  0  0  0  0  0
    0.6825    1.9995    0.9309 C   0  0  0  0  0  0  0  0  0  0  0  0
    0.1411    1.4023   -1.7735 H   0  0  0  0  0  0  0  0  0  0  0  0
   -1.3249    2.3600   -1.6335 H   0  0  0  0  0  0  0  0  0  0  0  0
   -3.2986    1.2907   -0.9151 H   0  0  0  0  0  0  0  0  0  0  0  0
   -4.4515   -0.7042   -0.0321 H   0  0  0  0  0  0  0  0  0  0  0  0
   -3.1324   -2.5661    0.9323 H   0  0  0  0  0  0  0  0  0  0  0  0
   -0.6804   -2.4121    1.0438 H   0  0  0  0  0  0  0  0  0  0  0  0
    0.8613   -2.6584   -1.4795 H   0  0  0  0  0  0  0  0  0  0  0  0
    2.5293   -3.0206   -1.0201 H   0  0  0  0  0  0  0  0  0  0  0  0
    1.2199   -3.2846    0.1271 H   0  0  0  0  0  0  0  0  0  0  0  0
    0.0087    1.7247    1.7525 H   0  0  0  0  0  0  0  0  0  0  0  0
    1.3937    2.7269    1.3220 H   0  0  0  0  0  0  0  0  0  0  0  0
    1.5818   -2.6256   -0.6621 C   0  0  0  0  0  0  0  0  0  0  0  0
  6  8  2  0
  6  5  1  0
  8  9  1  0
 26 10  1  0
  5  3  2  0
  9  7  1  0
  9  2  2  0
  3  2  1  0
 10  7  1  0
 10 12  2  0
  7 11  1  0
  2  1  1  0
 12  4  1  0
 11  4  2  0
 11 14  1  0
  1 13  1  0
  1 15  1  0
  1 16  1  0
  3 17  1  0
  5 18  1  0
  6 19  1  0
  8 20  1  0
 26 21  1  0
 26 22  1  0
 26 23  1  0
 14 24  1  0
 14 25  1  0
 14 13  1  0
M  END
