
     RDKit          3D

 54 55  0  0  0  0  0  0  0  0999 V2000
   -2.3224    1.7142    0.1194 C   0  0  0  0  0  0  0  0  0  0  0  0
   -1.5932    0.5241    0.0827 C   0  0  0  0  0  0  0  0  0  0  0  0
   -3.7005    1.6877   -0.0122 C   0  0  0  0  0  0  0  0  0  0  0  0
    3.1148    3.1696    0.6908 C   0  0  0  0  0  0  0  0  0  0  0  0
    3.2569    2.2692   -1.6447 C   0  0  0  0  0  0  0  0  0  0  0  0
    4.4247   -0.2736   -0.3476 C   0  0  0  0  0  0  0  0  0  0  0  0
    4.3641    1.0187    0.1692 C   0  0  0  0  0  0  0  0  0  0  0  0
    5.4308    1.4743    0.9373 C   0  0  0  0  0  0  0  0  0  0  0  0
    6.5202    0.6487    1.1811 C   0  0  0  0  0  0  0  0  0  0  0  0
    6.5639   -0.6354    0.6648 C   0  0  0  0  0  0  0  0  0  0  0  0
    5.5155   -1.1138   -0.1242 C   0  0  0  0  0  0  0  0  0  0  0  0
    5.5561   -2.4790   -0.6985 C   0  0  0  0  0  0  0  0  0  0  0  0
    6.3237   -3.5252    0.0582 C   0  0  0  0  0  0  0  0  0  0  0  0
    4.9464   -2.7725   -1.8492 C   0  0  0  0  0  0  0  0  0  0  0  0
    3.1571    1.8984   -0.1584 C   0  0  1  0  0  0  0  0  0  0  0  0
    0.6962    1.4092   -0.1813 C   0  0  0  0  0  0  0  0  0  0  0  0
    0.3586    2.4185   -0.7778 O   0  0  0  0  0  0  0  0  0  0  0  0
   -0.2139    0.4672    0.2584 N   0  0  0  0  0  0  0  0  0  0  0  0
   -2.2785   -0.6785   -0.0856 C   0  0  0  0  0  0  0  0  0  0  0  0
   -3.6609   -0.7127   -0.1873 C   0  0  0  0  0  0  0  0  0  0  0  0
   -4.3426   -2.0226   -0.4645 C   0  0  0  0  0  0  0  0  0  0  0  0
   -4.2655   -2.4950   -1.5908 O   0  0  0  0  0  0  0  0  0  0  0  0
   -4.9923   -2.6029    0.5541 N   0  0  0  0  0  0  0  0  0  0  0  0
   -5.7472   -3.8213    0.3504 C   0  0  0  0  0  0  0  0  0  0  0  0
   -5.0548   -2.0679    1.8968 C   0  0  0  0  0  0  0  0  0  0  0  0
   -4.3653    0.4821   -0.1606 C   0  0  0  0  0  0  0  0  0  0  0  0
   -6.0939    0.4674   -0.2926 Cl  0  0  0  0  0  0  0  0  0  0  0  0
    1.9757    1.0717    0.1109 N   0  0  0  0  0  0  0  0  0  0  0  0
   -1.8321    2.6632    0.2679 H   0  0  0  0  0  0  0  0  0  0  0  0
   -4.2570    2.6146    0.0178 H   0  0  0  0  0  0  0  0  0  0  0  0
    3.9743    3.8115    0.4965 H   0  0  0  0  0  0  0  0  0  0  0  0
    2.2208    3.7433    0.4550 H   0  0  0  0  0  0  0  0  0  0  0  0
    3.0981    2.9353    1.7561 H   0  0  0  0  0  0  0  0  0  0  0  0
    3.1839    1.3832   -2.2755 H   0  0  0  0  0  0  0  0  0  0  0  0
    2.4808    2.9704   -1.9402 H   0  0  0  0  0  0  0  0  0  0  0  0
    4.2241    2.7351   -1.8354 H   0  0  0  0  0  0  0  0  0  0  0  0
    5.4236    2.4679    1.3632 H   0  0  0  0  0  0  0  0  0  0  0  0
    7.3415    1.0121    1.7853 H   0  0  0  0  0  0  0  0  0  0  0  0
    7.4244   -1.2583    0.8715 H   0  0  0  0  0  0  0  0  0  0  0  0
    6.0124   -3.5700    1.1034 H   0  0  0  0  0  0  0  0  0  0  0  0
    6.1814   -4.5099   -0.3844 H   0  0  0  0  0  0  0  0  0  0  0  0
    7.3960   -3.3180    0.0554 H   0  0  0  0  0  0  0  0  0  0  0  0
    4.4249   -2.0301   -2.4393 H   0  0  0  0  0  0  0  0  0  0  0  0
    4.9635   -3.7784   -2.2485 H   0  0  0  0  0  0  0  0  0  0  0  0
    0.1482   -0.4388    0.5139 H   0  0  0  0  0  0  0  0  0  0  0  0
   -1.7215   -1.6075   -0.1244 H   0  0  0  0  0  0  0  0  0  0  0  0
   -5.3236   -4.6351    0.9412 H   0  0  0  0  0  0  0  0  0  0  0  0
   -6.7817   -3.6733    0.6649 H   0  0  0  0  0  0  0  0  0  0  0  0
   -5.7376   -4.1070   -0.6959 H   0  0  0  0  0  0  0  0  0  0  0  0
   -4.3332   -1.2708    2.0460 H   0  0  0  0  0  0  0  0  0  0  0  0
   -6.0523   -1.6835    2.1166 H   0  0  0  0  0  0  0  0  0  0  0  0
   -4.8289   -2.8591    2.6125 H   0  0  0  0  0  0  0  0  0  0  0  0
    2.1106    0.3441    0.7962 H   0  0  0  0  0  0  0  0  0  0  0  0
    3.5881   -0.6503   -0.9240 H   0  0  0  0  0  0  0  0  0  0  0  0
 27 26  1  0
 25 23  1  0
 24 23  1  0
 23 21  1  0
 26  3  1  0
 26 20  2  0
  3  1  2  0
 21 20  1  0
 21 22  2  0
 20 19  1  0
  1  2  1  0
 19  2  2  0
  2 18  1  0
 18 16  1  0
 17 16  2  0
 16 28  1  0
 13 12  1  0
 14 12  2  0
 12 11  1  0
 15 28  1  6
 11  6  2  0
 11 10  1  0
  6  7  1  0
 10  9  2  0
  7 15  1  0
  7  8  2  0
 15  5  1  0
 15  4  1  0
  9  8  1  0
  1 29  1  0
  3 30  1  0
  4 31  1  0
  4 32  1  0
  4 33  1  0
  5 34  1  0
  5 35  1  0
  5 36  1  0
  6 54  1  0
  8 37  1  0
  9 38  1  0
 10 39  1  0
 13 40  1  0
 13 41  1  0
 13 42  1  0
 14 43  1  0
 14 44  1  0
 18 45  1  0
 19 46  1  0
 24 47  1  0
 24 48  1  0
 24 49  1  0
 25 50  1  0
 25 51  1  0
 25 52  1  0
 28 53  1  0
M  END
