
     RDKit          3D

 26 28  0  0  0  0  0  0  0  0999 V2000
   -2.5011    1.1576    0.0019 C   0  0  0  0  0  0  0  0  0  0  0  0
   -3.6543    0.4218   -0.0001 C   0  0  0  0  0  0  0  0  0  0  0  0
   -3.5889   -0.9824    0.0005 C   0  0  0  0  0  0  0  0  0  0  0  0
   -2.3809   -1.6261    0.0022 C   0  0  0  0  0  0  0  0  0  0  0  0
    2.3821   -1.6201    0.0042 C   0  0  0  0  0  0  0  0  0  0  0  0
    3.5884   -0.9734    0.0076 C   0  0  0  0  0  0  0  0  0  0  0  0
    3.6502    0.4309    0.0144 C   0  0  0  0  0  0  0  0  0  0  0  0
    2.4953    1.1638    0.0164 C   0  0  0  0  0  0  0  0  0  0  0  0
   -0.0031    1.2638    0.0096 C   0  0  0  0  0  0  0  0  0  0  0  0
    0.0005   -1.5163    0.0042 N   0  0  0  0  0  0  0  0  0  0  0  0
    1.1915   -0.8735    0.0058 C   0  0  0  0  0  0  0  0  0  0  0  0
    1.2316    0.5337    0.0105 C   0  0  0  0  0  0  0  0  0  0  0  0
   -1.2360    0.5305    0.0057 C   0  0  0  0  0  0  0  0  0  0  0  0
   -1.1923   -0.8766    0.0046 C   0  0  0  0  0  0  0  0  0  0  0  0
   -0.0047    2.5783    0.0120 N   0  0  0  0  0  0  0  0  0  0  0  0
   -2.5862    2.2356   -0.0007 H   0  0  0  0  0  0  0  0  0  0  0  0
   -4.6136    0.9194   -0.0028 H   0  0  0  0  0  0  0  0  0  0  0  0
   -4.5012   -1.5633   -0.0014 H   0  0  0  0  0  0  0  0  0  0  0  0
   -2.3277   -2.7071    0.0013 H   0  0  0  0  0  0  0  0  0  0  0  0
    2.3315   -2.7013    0.0003 H   0  0  0  0  0  0  0  0  0  0  0  0
    4.5021   -1.5521    0.0060 H   0  0  0  0  0  0  0  0  0  0  0  0
    4.6082    0.9311    0.0194 H   0  0  0  0  0  0  0  0  0  0  0  0
    2.5779    2.2419    0.0242 H   0  0  0  0  0  0  0  0  0  0  0  0
    0.0020   -2.5272    0.0023 H   0  0  0  0  0  0  0  0  0  0  0  0
    0.8425    3.1203    0.0086 H   0  0  0  0  0  0  0  0  0  0  0  0
   -0.8535    3.1179    0.0179 H   0  0  0  0  0  0  0  0  0  0  0  0
  1  2  2  0
  1 13  1  0
  1 16  1  0
  2  3  1  0
  2 17  1  0
  3  4  2  0
  3 18  1  0
  4 14  1  0
  4 19  1  0
  5  6  1  0
  5 11  2  0
  5 20  1  0
  6  7  2  0
  6 21  1  0
  7  8  1  0
  7 22  1  0
  8 12  2  0
  8 23  1  0
  9 12  1  0
  9 13  2  0
  9 15  1  0
 10 11  1  0
 10 14  2  0
 10 24  1  0
 11 12  1  0
 13 14  1  0
 15 25  1  0
 15 26  1  0
M  CHG  1  10   1
M  END
