
     RDKit          3D

 20 21  0  0  0  0  0  0  0  0999 V2000
    2.7886   -0.1688    0.0021 C   0  0  0  0  0  0  0  0  0  0  0  0
    3.6567    0.6695   -0.0008 O   0  0  0  0  0  0  0  0  0  0  0  0
    0.4716   -0.8061    0.0103 N   0  0  0  0  0  0  0  0  0  0  0  0
    1.3325    0.1765    0.0007 C   0  0  0  0  0  0  0  0  0  0  0  0
    0.9700    1.5401   -0.0107 C   0  0  0  0  0  0  0  0  0  0  0  0
   -0.3582    1.8575   -0.0131 C   0  0  0  0  0  0  0  0  0  0  0  0
   -2.7107    1.0682   -0.0067 C   0  0  0  0  0  0  0  0  0  0  0  0
   -3.5902    0.0211    0.0023 C   0  0  0  0  0  0  0  0  0  0  0  0
   -3.1192   -1.3107    0.0149 C   0  0  0  0  0  0  0  0  0  0  0  0
   -1.7782   -1.5758    0.0183 C   0  0  0  0  0  0  0  0  0  0  0  0
   -1.3188    0.8255   -0.0041 C   0  0  0  0  0  0  0  0  0  0  0  0
   -0.8451   -0.5120    0.0081 C   0  0  0  0  0  0  0  0  0  0  0  0
    3.0143   -1.4683    0.0070 O   0  0  0  0  0  0  0  0  0  0  0  0
    1.7274    2.3099   -0.0178 H   0  0  0  0  0  0  0  0  0  0  0  0
   -0.6779    2.8919   -0.0219 H   0  0  0  0  0  0  0  0  0  0  0  0
   -3.0686    2.0905   -0.0154 H   0  0  0  0  0  0  0  0  0  0  0  0
   -4.6560    0.2061   -0.0011 H   0  0  0  0  0  0  0  0  0  0  0  0
   -3.8319   -2.1244    0.0221 H   0  0  0  0  0  0  0  0  0  0  0  0
   -1.4055   -2.5921    0.0279 H   0  0  0  0  0  0  0  0  0  0  0  0
    3.9696   -1.6324    0.0096 H   0  0  0  0  0  0  0  0  0  0  0  0
  1  4  1  0
  1  2  2  0
  1 13  1  0
  3 12  2  0
  3  4  1  0
  4  5  2  0
  5  6  1  0
  5 14  1  0
  6 15  1  0
  7 16  1  0
  8  7  2  0
  8 17  1  0
  9  8  1  0
  9 18  1  0
 10  9  2  0
 10 12  1  0
 10 19  1  0
 11  6  2  0
 11  7  1  0
 12 11  1  0
 13 20  1  0
M  END
