
     RDKit          3D

 33 34  0  0  0  0  0  0  0  0999 V2000
   -0.1129    0.2089    0.1627 N   0  0  0  0  0  0  0  0  0  0  0  0
   -2.1220   -1.0150    0.9099 C   0  0  0  0  0  0  0  0  0  0  0  0
   -1.4947   -0.0115    0.1742 C   0  0  0  0  0  0  0  0  0  0  0  0
    0.8751   -0.6939    0.3859 C   0  0  0  0  0  0  0  0  0  0  0  0
    2.2508   -0.1123    0.3056 C   0  0  0  0  0  0  0  0  0  0  0  0
    2.5254    1.0690    0.9924 C   0  0  0  0  0  0  0  0  0  0  0  0
    4.8056    0.9803    0.2745 C   0  0  0  0  0  0  0  0  0  0  0  0
   -3.6717    0.7396   -0.5669 C   0  0  0  0  0  0  0  0  0  0  0  0
   -4.3030   -0.2665    0.1576 C   0  0  0  0  0  0  0  0  0  0  0  0
   -3.5030   -1.1365    0.8922 C   0  0  0  0  0  0  0  0  0  0  0  0
    0.6785   -1.8698    0.6368 O   0  0  0  0  0  0  0  0  0  0  0  0
    3.7998    1.6147    0.9866 C   0  0  0  0  0  0  0  0  0  0  0  0
    4.5308   -0.1906   -0.4179 C   0  0  0  0  0  0  0  0  0  0  0  0
    3.2630   -0.7670   -0.4106 C   0  0  0  0  0  0  0  0  0  0  0  0
   -2.2923    0.8690   -0.5679 C   0  0  0  0  0  0  0  0  0  0  0  0
   -1.7114    1.9020   -1.2514 O   0  0  0  0  0  0  0  0  0  0  0  0
    0.1733    1.1223   -0.1570 H   0  0  0  0  0  0  0  0  0  0  0  0
   -1.5403   -1.7001    1.5059 H   0  0  0  0  0  0  0  0  0  0  0  0
    1.7429    1.5602    1.5572 H   0  0  0  0  0  0  0  0  0  0  0  0
    5.8048    1.3954    0.2535 H   0  0  0  0  0  0  0  0  0  0  0  0
    2.9425   -2.8958   -0.5194 H   0  0  0  0  0  0  0  0  0  0  0  0
    2.1202   -1.9949   -1.7806 H   0  0  0  0  0  0  0  0  0  0  0  0
    3.8626   -2.2212   -1.8585 H   0  0  0  0  0  0  0  0  0  0  0  0
   -4.2565    1.4453   -1.1459 H   0  0  0  0  0  0  0  0  0  0  0  0
   -6.0891   -1.2174   -0.5675 H   0  0  0  0  0  0  0  0  0  0  0  0
   -6.1901   -0.6929    1.1044 H   0  0  0  0  0  0  0  0  0  0  0  0
   -6.2891    0.4896   -0.2001 H   0  0  0  0  0  0  0  0  0  0  0  0
   -3.9639   -1.9259    1.4741 H   0  0  0  0  0  0  0  0  0  0  0  0
    4.0010    2.5269    1.5320 H   0  0  0  0  0  0  0  0  0  0  0  0
    5.3199   -0.6703   -0.9845 H   0  0  0  0  0  0  0  0  0  0  0  0
   -1.3001    1.5766   -2.0620 H   0  0  0  0  0  0  0  0  0  0  0  0
    3.0299   -2.0350   -1.1818 C   0  0  0  0  0  0  0  0  0  0  0  0
   -5.7949   -0.4254    0.1243 C   0  0  0  0  0  0  0  0  0  0  0  0
  7 13  2  0
  7 12  1  0
 13 14  1  0
 12  6  2  0
 14 32  1  0
 14  5  2  0
  6  5  1  0
  5  4  1  0
  4 11  2  0
  4  1  1  0
  1  3  1  0
  3  2  2  0
  3 15  1  0
 16 15  1  0
  2 10  1  0
 15  8  2  0
 10  9  2  0
  8  9  1  0
  9 33  1  0
  1 17  1  0
  2 18  1  0
  6 19  1  0
  7 20  1  0
 32 21  1  0
 32 22  1  0
 32 23  1  0
  8 24  1  0
 33 25  1  0
 33 26  1  0
 33 27  1  0
 10 28  1  0
 12 29  1  0
 13 30  1  0
 16 31  1  0
M  END
