
     RDKit          3D

 23 22  0  0  0  0  0  0  0  0999 V2000
    4.4314   -0.2178    0.3096 O   0  0  0  0  0  0  0  0  0  0  0  0
    3.3456    0.4760    0.0549 C   0  0  0  0  0  0  0  0  0  0  0  0
    3.3107    1.6205   -0.3101 O   0  0  0  0  0  0  0  0  0  0  0  0
    2.0733   -0.3583    0.2877 C   0  0  0  0  0  0  0  0  0  0  0  0
   -1.7073    0.2543    0.0006 C   0  0  0  0  0  0  0  0  0  0  0  0
   -2.9089   -0.3656    0.6800 C   0  0  0  0  0  0  0  0  0  0  0  0
   -4.1884    0.3550    0.3699 C   0  0  0  0  0  0  0  0  0  0  0  0
   -5.1527   -0.1734   -0.1217 O   0  0  0  0  0  0  0  0  0  0  0  0
    0.7897    0.3341   -0.0481 C   0  0  0  0  0  0  0  0  0  0  0  0
   -0.4360   -0.5649    0.0435 C   0  0  2  0  0  0  0  0  0  0  0  0
   -0.4916   -1.5787   -1.1092 C   0  0  0  0  0  0  0  0  0  0  0  0
    2.1702   -1.4672    0.7404 O   0  0  0  0  0  0  0  0  0  0  0  0
    5.2219    0.3252    0.1643 H   0  0  0  0  0  0  0  0  0  0  0  0
   -2.9890   -1.4284    0.4440 H   0  0  0  0  0  0  0  0  0  0  0  0
   -2.7282   -0.2973    1.7607 H   0  0  0  0  0  0  0  0  0  0  0  0
   -4.2048    1.4217    0.6435 H   0  0  0  0  0  0  0  0  0  0  0  0
    0.7097    1.1809    0.6439 H   0  0  0  0  0  0  0  0  0  0  0  0
    0.8750    0.7859   -1.0400 H   0  0  0  0  0  0  0  0  0  0  0  0
   -0.4248   -1.1172    0.9878 H   0  0  0  0  0  0  0  0  0  0  0  0
   -1.3815   -2.2053   -1.0559 H   0  0  0  0  0  0  0  0  0  0  0  0
   -0.4931   -1.0691   -2.0733 H   0  0  0  0  0  0  0  0  0  0  0  0
    0.3698   -2.2421   -1.0766 H   0  0  0  0  0  0  0  0  0  0  0  0
   -1.7763    1.3243   -0.5567 O   0  0  0  0  0  0  0  0  0  0  0  0
  3  2  2  0
  1  2  1  0
  2  4  1  0
  4  9  1  0
  4 12  2  0
  9 10  1  0
 10 11  1  0
 10  5  1  0
 23  5  2  0
  5  6  1  0
  6  7  1  0
  7  8  2  0
  1 13  1  0
  6 14  1  0
  6 15  1  0
  7 16  1  0
  9 17  1  0
  9 18  1  0
 10 19  1  1
 11 20  1  0
 11 21  1  0
 11 22  1  0
M  END
