
     RDKit          3D

 58 62  0  0  0  0  0  0  0  0999 V2000
    0.9876   -2.1815   -0.1899 N   0  0  0  0  0  0  0  0  0  0  0  0
    0.0450   -3.1015   -0.1769 C   0  0  0  0  0  0  0  0  0  0  0  0
   -1.2566   -2.8959   -0.0816 N   0  0  0  0  0  0  0  0  0  0  0  0
   -1.6000   -1.6166    0.0076 C   0  0  0  0  0  0  0  0  0  0  0  0
   -0.7544   -0.6065    0.0112 N   0  0  0  0  0  0  0  0  0  0  0  0
    0.5423   -0.9290   -0.0884 C   0  0  0  0  0  0  0  0  0  0  0  0
    1.3913    0.1101   -0.0729 N   0  0  0  0  0  0  0  0  0  0  0  0
    3.5881   -0.9096   -0.5140 C   0  0  0  0  0  0  0  0  0  0  0  0
    2.7890    0.1659   -0.1433 C   0  0  0  0  0  0  0  0  0  0  0  0
    3.3545    1.4041    0.1590 C   0  0  0  0  0  0  0  0  0  0  0  0
    4.7336    1.5681    0.0934 C   0  0  0  0  0  0  0  0  0  0  0  0
    5.5520    0.4995   -0.2816 C   0  0  0  0  0  0  0  0  0  0  0  0
    4.9699   -0.7345   -0.5724 C   0  0  0  0  0  0  0  0  0  0  0  0
    6.8973    0.6666   -0.3788 O   0  0  0  0  0  0  0  0  0  0  0  0
    5.8266   -1.7107   -0.9136 O   0  0  0  0  0  0  0  0  0  0  0  0
    7.6094    0.3955    0.8213 C   0  0  0  0  0  0  0  0  0  0  0  0
   -6.4530   -3.5055    0.3816 C   0  0  0  0  0  0  0  0  0  0  0  0
   -6.4030   -2.1198    0.3426 C   0  0  0  0  0  0  0  0  0  0  0  0
   -5.1582   -1.5130    0.2459 C   0  0  0  0  0  0  0  0  0  0  0  0
   -3.9898   -2.2818    0.1867 C   0  0  0  0  0  0  0  0  0  0  0  0
   -4.0310   -3.6670    0.2275 C   0  0  0  0  0  0  0  0  0  0  0  0
   -5.2844   -4.2628    0.3259 C   0  0  0  0  0  0  0  0  0  0  0  0
   -4.8702   -0.1687    0.2025 N   0  0  0  0  0  0  0  0  0  0  0  0
   -3.5800   -0.0780    0.1224 C   0  0  0  0  0  0  0  0  0  0  0  0
   -2.9492   -1.3386    0.1043 N   0  0  0  0  0  0  0  0  0  0  0  0
    5.3687    2.7178    0.3677 O   0  0  0  0  0  0  0  0  0  0  0  0
    5.3110   -2.9880   -1.2342 C   0  0  0  0  0  0  0  0  0  0  0  0
    4.6017    3.8358    0.7713 C   0  0  0  0  0  0  0  0  0  0  0  0
   -2.6596    4.7008   -0.0740 C   0  0  0  0  0  0  0  0  0  0  0  0
   -3.9940    5.0891   -0.0396 C   0  0  0  0  0  0  0  0  0  0  0  0
   -4.9740    4.1111    0.0300 C   0  0  0  0  0  0  0  0  0  0  0  0
   -4.6480    2.7606    0.0652 C   0  0  0  0  0  0  0  0  0  0  0  0
   -3.3074    2.3736    0.0295 C   0  0  0  0  0  0  0  0  0  0  0  0
   -2.3178    3.3611   -0.0397 C   0  0  0  0  0  0  0  0  0  0  0  0
    0.3695   -4.1331   -0.2537 H   0  0  0  0  0  0  0  0  0  0  0  0
    0.9362    1.0020    0.0561 H   0  0  0  0  0  0  0  0  0  0  0  0
    3.1383   -1.8598   -0.7454 H   0  0  0  0  0  0  0  0  0  0  0  0
    2.7114    2.2258    0.4459 H   0  0  0  0  0  0  0  0  0  0  0  0
    8.6636    0.5765    0.6177 H   0  0  0  0  0  0  0  0  0  0  0  0
    7.2940    1.0501    1.6373 H   0  0  0  0  0  0  0  0  0  0  0  0
    7.4882   -0.6431    1.1390 H   0  0  0  0  0  0  0  0  0  0  0  0
   -7.4101   -4.0047    0.4581 H   0  0  0  0  0  0  0  0  0  0  0  0
   -7.3024   -1.5195    0.3881 H   0  0  0  0  0  0  0  0  0  0  0  0
   -3.1394   -4.2690    0.1836 H   0  0  0  0  0  0  0  0  0  0  0  0
   -5.3461   -5.3425    0.3581 H   0  0  0  0  0  0  0  0  0  0  0  0
   -1.8538    0.9102    0.0251 H   0  0  0  0  0  0  0  0  0  0  0  0
    4.7594   -3.4283   -0.3998 H   0  0  0  0  0  0  0  0  0  0  0  0
    4.6604   -2.9578   -2.1119 H   0  0  0  0  0  0  0  0  0  0  0  0
    6.1688   -3.6171   -1.4577 H   0  0  0  0  0  0  0  0  0  0  0  0
    5.3087    4.6385    0.9654 H   0  0  0  0  0  0  0  0  0  0  0  0
    3.9085    4.1592   -0.0095 H   0  0  0  0  0  0  0  0  0  0  0  0
    4.0378    3.6344    1.6855 H   0  0  0  0  0  0  0  0  0  0  0  0
   -4.2611    6.1371   -0.0657 H   0  0  0  0  0  0  0  0  0  0  0  0
   -6.0189    4.3932    0.0579 H   0  0  0  0  0  0  0  0  0  0  0  0
   -5.4277    2.0189    0.1194 H   0  0  0  0  0  0  0  0  0  0  0  0
   -1.2723    3.0757   -0.0677 H   0  0  0  0  0  0  0  0  0  0  0  0
   -2.8588    1.0550    0.0542 N   0  0  0  0  0  0  0  0  0  0  0  0
   -1.8758    5.4450   -0.1278 H   0  0  0  0  0  0  0  0  0  0  0  0
  1  2  2  0
  1  6  1  0
  2  3  1  0
  3  4  2  0
  4  5  1  0
  4 25  1  0
  5  6  2  0
  6  7  1  0
  7  9  1  0
  8  9  2  0
  8 13  1  0
  9 10  1  0
 10 11  2  0
 11 12  1  0
 11 26  1  0
 12 13  2  0
 12 14  1  0
 13 15  1  0
 14 16  1  0
 15 27  1  0
 17 18  2  0
 17 22  1  0
 18 19  1  0
 19 20  2  0
 19 23  1  0
 20 21  1  0
 20 25  1  0
 21 22  2  0
 23 24  2  0
 24 25  1  0
 24 57  1  0
 57 33  1  0
 26 28  1  0
 29 30  2  0
 29 34  1  0
 30 31  1  0
 31 32  2  0
 32 33  1  0
 33 34  2  0
  2 35  1  0
  7 36  1  0
  8 37  1  0
 10 38  1  0
 16 39  1  0
 16 40  1  0
 16 41  1  0
 17 42  1  0
 18 43  1  0
 21 44  1  0
 22 45  1  0
 57 46  1  0
 27 47  1  0
 27 48  1  0
 27 49  1  0
 28 50  1  0
 28 51  1  0
 28 52  1  0
 29 58  1  0
 30 53  1  0
 31 54  1  0
 32 55  1  0
 34 56  1  0
M  END
