
     RDKit          3D

 59 62  0  0  0  0  0  0  0  0999 V2000
   -4.6375   -1.6643   -0.0126 C   0  0  0  0  0  0  0  0  0  0  0  0
   -3.4191   -1.2586   -0.6753 C   0  0  0  0  0  0  0  0  0  0  0  0
   -2.6502   -0.2187   -0.1850 C   0  0  0  0  0  0  0  0  0  0  0  0
   -1.6393   -1.0416   -1.9999 C   0  0  0  0  0  0  0  0  0  0  0  0
   -2.7742   -1.7781   -1.8444 C   0  0  0  0  0  0  0  0  0  0  0  0
   -3.2343   -2.8910   -2.7235 C   0  0  0  0  0  0  0  0  0  0  0  0
   -0.5177    0.8406   -0.8556 C   0  0  0  0  0  0  0  0  0  0  0  0
   -0.7773    2.2030   -0.9319 C   0  0  0  0  0  0  0  0  0  0  0  0
   -4.9159   -0.9615    1.3009 C   0  0  0  0  0  0  0  0  0  0  0  0
   -4.4308    0.4936    1.3856 C   0  0  1  0  0  0  0  0  0  0  0  0
   -2.9300    0.5532    1.0535 C   0  0  0  0  0  0  0  0  0  0  0  0
   -1.5743   -0.0915   -0.9946 N   0  0  0  0  0  0  0  0  0  0  0  0
   -5.3762   -2.5389   -0.4377 O   0  0  0  0  0  0  0  0  0  0  0  0
    0.2906    3.0702   -0.8081 C   0  0  0  0  0  0  0  0  0  0  0  0
    1.5999    2.6300   -0.6206 C   0  0  0  0  0  0  0  0  0  0  0  0
    1.8544    1.2349   -0.5139 C   0  0  0  0  0  0  0  0  0  0  0  0
    0.7595    0.3611   -0.6489 C   0  0  0  0  0  0  0  0  0  0  0  0
    2.7060    3.6203   -0.4998 C   0  0  0  0  0  0  0  0  0  0  0  0
    3.1092    0.7534   -0.3257 N   0  0  0  0  0  0  0  0  0  0  0  0
    3.4198   -0.6241   -0.0175 C   0  0  1  0  0  0  0  0  0  0  0  0
    4.9073   -0.8650   -0.2545 C   0  0  0  0  0  0  0  0  0  0  0  0
    5.2951   -2.3141    0.0449 C   0  0  0  0  0  0  0  0  0  0  0  0
    4.8514   -2.7523    1.4176 C   0  0  0  0  0  0  0  0  0  0  0  0
    3.4088   -2.4537    1.7357 C   0  0  0  0  0  0  0  0  0  0  0  0
    3.0498   -1.0006    1.4195 C   0  0  0  0  0  0  0  0  0  0  0  0
    5.5896   -3.3193    2.1923 O   0  0  0  0  0  0  0  0  0  0  0  0
    2.5129    4.8129   -1.0823 N   0  0  0  0  0  0  0  0  0  0  0  0
    3.7454    3.3687    0.1108 O   0  0  0  0  0  0  0  0  0  0  0  0
   -0.8729   -1.0882   -2.7572 H   0  0  0  0  0  0  0  0  0  0  0  0
   -6.2951    1.2895    0.6130 H   0  0  0  0  0  0  0  0  0  0  0  0
   -4.9479    2.4222    0.5336 H   0  0  0  0  0  0  0  0  0  0  0  0
   -5.0590    1.1040   -0.6281 H   0  0  0  0  0  0  0  0  0  0  0  0
   -5.7075    0.9811    3.0726 H   0  0  0  0  0  0  0  0  0  0  0  0
   -4.1083    0.3990    3.5368 H   0  0  0  0  0  0  0  0  0  0  0  0
   -4.3054    2.0366    2.9097 H   0  0  0  0  0  0  0  0  0  0  0  0
   -3.3335   -3.8254   -2.1701 H   0  0  0  0  0  0  0  0  0  0  0  0
   -4.2096   -2.6792   -3.1624 H   0  0  0  0  0  0  0  0  0  0  0  0
   -2.5296   -3.0573   -3.5374 H   0  0  0  0  0  0  0  0  0  0  0  0
   -1.7791    2.5734   -1.0991 H   0  0  0  0  0  0  0  0  0  0  0  0
   -5.9864   -1.0176    1.5145 H   0  0  0  0  0  0  0  0  0  0  0  0
   -4.4132   -1.5504    2.0798 H   0  0  0  0  0  0  0  0  0  0  0  0
   -2.3547    0.1209    1.8818 H   0  0  0  0  0  0  0  0  0  0  0  0
   -2.6065    1.5931    0.9699 H   0  0  0  0  0  0  0  0  0  0  0  0
    0.0842    4.1316   -0.8466 H   0  0  0  0  0  0  0  0  0  0  0  0
    0.8979   -0.7080   -0.5710 H   0  0  0  0  0  0  0  0  0  0  0  0
    3.7822    1.4452   -0.0251 H   0  0  0  0  0  0  0  0  0  0  0  0
    2.8702   -1.2715   -0.7099 H   0  0  0  0  0  0  0  0  0  0  0  0
    5.1649   -0.6252   -1.2873 H   0  0  0  0  0  0  0  0  0  0  0  0
    5.4895   -0.1936    0.3848 H   0  0  0  0  0  0  0  0  0  0  0  0
    4.8020   -2.9738   -0.6789 H   0  0  0  0  0  0  0  0  0  0  0  0
    6.3699   -2.4602   -0.0649 H   0  0  0  0  0  0  0  0  0  0  0  0
    2.7970   -3.1194    1.1157 H   0  0  0  0  0  0  0  0  0  0  0  0
    3.1966   -2.6947    2.7775 H   0  0  0  0  0  0  0  0  0  0  0  0
    3.5782   -0.3306    2.1047 H   0  0  0  0  0  0  0  0  0  0  0  0
    1.9828   -0.8498    1.5938 H   0  0  0  0  0  0  0  0  0  0  0  0
    1.7538    4.9984   -1.7138 H   0  0  0  0  0  0  0  0  0  0  0  0
    3.2351    5.5119   -1.0198 H   0  0  0  0  0  0  0  0  0  0  0  0
   -5.2245    1.3726    0.4164 C   0  0  0  0  0  0  0  0  0  0  0  0
   -4.6486    1.0050    2.8070 C   0  0  0  0  0  0  0  0  0  0  0  0
 26 23  2  0
 24 23  1  0
 24 25  1  0
 23 22  1  0
 25 20  1  0
 22 21  1  0
 20 21  1  0
 20 19  1  0
 19 16  1  0
  6  5  1  0
 16 17  2  0
 16 15  1  0
 17  7  1  0
  4  5  2  0
  4 12  1  0
 28 18  2  0
  5  2  1  0
 18 15  1  0
 18 27  1  0
 15 14  2  0
  7 12  1  0
  7  8  2  0
 12  3  1  0
  2  3  2  0
  2  1  1  0
 14  8  1  0
  3 11  1  0
 13  1  2  0
  1  9  1  0
 11 10  1  0
 10 58  1  6
  9 10  1  0
 10 59  1  0
  4 29  1  0
 58 30  1  0
 58 31  1  0
 58 32  1  0
 59 33  1  0
 59 34  1  0
 59 35  1  0
  6 36  1  0
  6 37  1  0
  6 38  1  0
  8 39  1  0
  9 40  1  0
  9 41  1  0
 11 42  1  0
 11 43  1  0
 14 44  1  0
 17 45  1  0
 19 46  1  0
 20 47  1  6
 21 48  1  0
 21 49  1  0
 22 50  1  0
 22 51  1  0
 24 52  1  0
 24 53  1  0
 25 54  1  0
 25 55  1  0
 27 56  1  0
 27 57  1  0
M  END
