
     RDKit          3D

 44 46  0  0  0  0  0  0  0  0999 V2000
    8.2171   -2.2613    0.7104 O   0  0  0  0  0  0  0  0  0  0  0  0
    7.1838   -1.3159    0.8737 C   0  0  0  0  0  0  0  0  0  0  0  0
    6.7073   -0.8727   -0.5019 C   0  0  0  0  0  0  0  0  0  0  0  0
    5.5999    0.1362   -0.3835 C   0  0  0  0  0  0  0  0  0  0  0  0
    5.8804    1.4928   -0.2507 C   0  0  0  0  0  0  0  0  0  0  0  0
    4.8479    2.4117   -0.1023 C   0  0  0  0  0  0  0  0  0  0  0  0
    3.5293    1.9928   -0.0836 C   0  0  0  0  0  0  0  0  0  0  0  0
    4.2705   -0.2719   -0.3606 C   0  0  0  0  0  0  0  0  0  0  0  0
    3.2176    0.6349   -0.2138 C   0  0  0  0  0  0  0  0  0  0  0  0
    1.8510    0.1174   -0.2089 C   0  0  0  0  0  0  0  0  0  0  0  0
    0.7276    0.8422   -0.1098 C   0  0  0  0  0  0  0  0  0  0  0  0
   -0.6348    0.3210   -0.1116 C   0  0  0  0  0  0  0  0  0  0  0  0
   -1.6867    1.2020    0.0134 C   0  0  0  0  0  0  0  0  0  0  0  0
   -0.9274   -1.0655   -0.2400 C   0  0  0  0  0  0  0  0  0  0  0  0
   -2.2126   -1.5179   -0.2444 C   0  0  0  0  0  0  0  0  0  0  0  0
   -3.3029   -0.6210   -0.1210 C   0  0  0  0  0  0  0  0  0  0  0  0
   -3.0278    0.7624    0.0156 C   0  0  0  0  0  0  0  0  0  0  0  0
   -4.1131    1.6585    0.1505 C   0  0  0  0  0  0  0  0  0  0  0  0
   -5.4020    1.2025    0.1536 C   0  0  0  0  0  0  0  0  0  0  0  0
   -4.6400   -1.0635   -0.1303 C   0  0  0  0  0  0  0  0  0  0  0  0
   -5.6813   -0.1771    0.0045 C   0  0  0  0  0  0  0  0  0  0  0  0
   -7.0859   -0.6733   -0.0234 C   0  0  0  0  0  0  0  0  0  0  0  0
   -7.9504    0.0104    0.7785 N   0  0  0  0  0  0  0  0  0  0  0  0
   -7.5017   -1.6334   -0.7578 N   0  0  0  0  0  0  0  0  0  0  0  0
    8.5255   -2.5221    1.5828 H   0  0  0  0  0  0  0  0  0  0  0  0
    6.3347   -1.7358    1.4290 H   0  0  0  0  0  0  0  0  0  0  0  0
    7.5255   -0.4368    1.4355 H   0  0  0  0  0  0  0  0  0  0  0  0
    7.5473   -0.4447   -1.0550 H   0  0  0  0  0  0  0  0  0  0  0  0
    6.3603   -1.7448   -1.0624 H   0  0  0  0  0  0  0  0  0  0  0  0
    6.9087    1.8356   -0.2670 H   0  0  0  0  0  0  0  0  0  0  0  0
    5.0750    3.4655   -0.0037 H   0  0  0  0  0  0  0  0  0  0  0  0
    2.7451    2.7299    0.0288 H   0  0  0  0  0  0  0  0  0  0  0  0
    4.0442   -1.3279   -0.4669 H   0  0  0  0  0  0  0  0  0  0  0  0
    1.7802   -0.9622   -0.2975 H   0  0  0  0  0  0  0  0  0  0  0  0
    0.7970    1.9222   -0.0225 H   0  0  0  0  0  0  0  0  0  0  0  0
   -1.4914    2.2640    0.1133 H   0  0  0  0  0  0  0  0  0  0  0  0
   -0.1230   -1.7820   -0.3359 H   0  0  0  0  0  0  0  0  0  0  0  0
   -2.4118   -2.5779   -0.3449 H   0  0  0  0  0  0  0  0  0  0  0  0
   -3.9147    2.7186    0.2488 H   0  0  0  0  0  0  0  0  0  0  0  0
   -6.2172    1.9076    0.2488 H   0  0  0  0  0  0  0  0  0  0  0  0
   -4.8323   -2.1262   -0.2260 H   0  0  0  0  0  0  0  0  0  0  0  0
   -7.5917    0.4311    1.6197 H   0  0  0  0  0  0  0  0  0  0  0  0
   -8.8719   -0.3856    0.8766 H   0  0  0  0  0  0  0  0  0  0  0  0
   -6.7635   -1.9597   -1.3705 H   0  0  0  0  0  0  0  0  0  0  0  0
  1  2  1  0
  2  3  1  0
  3  4  1  0
 15 14  2  0
 15 16  1  0
 14 12  1  0
 24 22  2  0
 20 16  1  0
 20 21  2  0
  8  4  2  0
  8  9  1  0
 16 17  2  0
 22 23  1  0
 22 21  1  0
  4  5  1  0
 21 19  1  0
 10  9  1  0
 10 11  2  0
 12 11  1  0
 12 13  2  0
  9  7  2  0
 17 13  1  0
 17 18  1  0
 19 18  2  0
  5  6  2  0
  7  6  1  0
  1 25  1  0
  2 26  1  0
  2 27  1  0
  3 28  1  0
  3 29  1  0
  5 30  1  0
  6 31  1  0
  7 32  1  0
  8 33  1  0
 10 34  1  0
 11 35  1  0
 13 36  1  0
 14 37  1  0
 15 38  1  0
 18 39  1  0
 19 40  1  0
 20 41  1  0
 23 42  1  0
 23 43  1  0
 24 44  1  0
M  END
