
     RDKit          3D

 21 20  0  0  0  0  0  0  0  0999 V2000
   -0.0330    0.5635    0.6883 C   0  0  0  0  0  0  0  0  0  0  0  0
    1.4145    0.7470    0.2484 C   0  0  1  0  0  0  0  0  0  0  0  0
    2.2622    1.3558    1.3735 C   0  0  0  0  0  0  0  0  0  0  0  0
    2.0477   -0.5593   -0.1636 C   0  0  0  0  0  0  0  0  0  0  0  0
    3.0059   -0.3914   -1.0724 O   0  0  0  0  0  0  0  0  0  0  0  0
    1.7728   -1.6411    0.2963 O   0  0  0  0  0  0  0  0  0  0  0  0
   -2.3994   -0.0538    0.1991 C   0  0  0  0  0  0  0  0  0  0  0  0
   -2.5663   -1.0872    0.8790 O   0  0  0  0  0  0  0  0  0  0  0  0
   -3.2374    0.8500    0.0051 O   0  0  0  0  0  0  0  0  0  0  0  0
   -0.9314    1.0852   -1.5269 N   0  0  0  0  0  0  0  0  0  0  0  0
   -0.9944    0.1358   -0.4251 C   0  0  1  0  0  0  0  0  0  0  0  0
   -0.0831   -0.1565    1.5076 H   0  0  0  0  0  0  0  0  0  0  0  0
   -0.3766    1.5208    1.0970 H   0  0  0  0  0  0  0  0  0  0  0  0
    1.4400    1.4238   -0.6076 H   0  0  0  0  0  0  0  0  0  0  0  0
    3.2890    1.5406    1.0578 H   0  0  0  0  0  0  0  0  0  0  0  0
    1.8316    2.3101    1.6769 H   0  0  0  0  0  0  0  0  0  0  0  0
    2.2862    0.7054    2.2491 H   0  0  0  0  0  0  0  0  0  0  0  0
    3.4323   -1.2409   -1.2606 H   0  0  0  0  0  0  0  0  0  0  0  0
   -1.4533    1.9096   -1.2494 H   0  0  0  0  0  0  0  0  0  0  0  0
   -0.6674   -0.8379   -0.8046 H   0  0  0  0  0  0  0  0  0  0  0  0
   -1.4546    0.7098   -2.3090 H   0  0  0  0  0  0  0  0  0  0  0  0
  1  2  1  0
  1 11  1  0
  1 12  1  0
  1 13  1  0
  2  3  1  0
  2  4  1  0
  2 14  1  6
  3 15  1  0
  3 16  1  0
  3 17  1  0
  4  5  1  0
  4  6  2  0
  5 18  1  0
  7  8  1  0
  7  9  2  0
  7 11  1  0
 10 11  1  0
 10 21  1  0
 10 19  1  0
 11 20  1  6
M  CHG  1   8  -1
M  END
