
     RDKit          3D

 30 32  0  0  0  0  0  0  0  0999 V2000
    1.7088    0.5064    0.5881 C   0  0  0  0  0  0  0  0  0  0  0  0
    1.7965    1.8801    0.4401 C   0  0  0  0  0  0  0  0  0  0  0  0
    0.6306    2.6058    0.2270 C   0  0  0  0  0  0  0  0  0  0  0  0
   -0.6066    1.9838    0.1552 C   0  0  0  0  0  0  0  0  0  0  0  0
   -0.6689    0.5889    0.2960 C   0  0  0  0  0  0  0  0  0  0  0  0
    0.4911   -0.1477    0.5114 C   0  0  0  0  0  0  0  0  0  0  0  0
    3.8677   -0.6079   -0.3270 P   0  0  1  0  0  0  0  0  0  0  0  0
   -3.0318    0.6359   -0.3204 C   0  0  0  0  0  0  0  0  0  0  0  0
   -1.9736   -0.0517    0.1773 C   0  0  0  0  0  0  0  0  0  0  0  0
   -4.3976   -0.4210   -0.4174 S   0  0  0  0  0  0  0  0  0  0  0  0
   -3.4090   -1.7071    0.2435 C   0  0  0  0  0  0  0  0  0  0  0  0
   -2.1858   -1.3684    0.4980 N   0  0  0  0  0  0  0  0  0  0  0  0
   -3.9164   -2.9510    0.4066 N   0  0  0  0  0  0  0  0  0  0  0  0
    2.8420   -0.2379    0.8590 O   0  0  0  0  0  0  0  0  0  0  0  0
   -2.9609    2.0501   -0.7869 C   0  0  0  0  0  0  0  0  0  0  0  0
   -1.8826    2.7739    0.0196 C   0  0  0  0  0  0  0  0  0  0  0  0
    3.0536   -1.5149   -1.3539 O   0  0  0  0  0  0  0  0  0  0  0  0
    4.4860    0.5269   -1.0322 O   0  0  0  0  0  0  0  0  0  0  0  0
    4.8027   -1.5477    0.5503 O   0  0  0  0  0  0  0  0  0  0  0  0
    2.7519    2.3831    0.5068 H   0  0  0  0  0  0  0  0  0  0  0  0
    0.6936    3.6822    0.1228 H   0  0  0  0  0  0  0  0  0  0  0  0
    0.4384   -1.2233    0.6245 H   0  0  0  0  0  0  0  0  0  0  0  0
   -4.9137   -3.0557    0.4919 H   0  0  0  0  0  0  0  0  0  0  0  0
   -3.3895   -3.5618    1.0111 H   0  0  0  0  0  0  0  0  0  0  0  0
   -2.7297    2.0802   -1.8573 H   0  0  0  0  0  0  0  0  0  0  0  0
   -3.9137    2.5653   -0.6605 H   0  0  0  0  0  0  0  0  0  0  0  0
   -2.2734    2.9658    1.0250 H   0  0  0  0  0  0  0  0  0  0  0  0
   -1.6764    3.7485   -0.4248 H   0  0  0  0  0  0  0  0  0  0  0  0
    2.6854   -2.3361   -1.0004 H   0  0  0  0  0  0  0  0  0  0  0  0
    5.6464   -1.7687    0.1330 H   0  0  0  0  0  0  0  0  0  0  0  0
  1  6  2  0
  2  1  1  0
  2  3  2  0
  3  4  1  0
  4 16  1  0
  4  5  2  0
  5  9  1  0
  6  5  1  0
  7 17  1  6
  8 10  1  0
  9  8  2  0
  9 12  1  0
 10 11  1  0
 11 13  1  0
 12 11  2  0
 14  1  1  0
 14  7  1  0
 15  8  1  0
 16 15  1  0
 18  7  2  0
 19  7  1  0
  2 20  1  0
  3 21  1  0
  6 22  1  0
 13 23  1  0
 13 24  1  0
 15 25  1  0
 15 26  1  0
 16 27  1  0
 16 28  1  0
 17 29  1  0
 19 30  1  0
M  END
