
     RDKit          3D

 46 47  0  0  0  0  0  0  0  0999 V2000
    0.5248   -3.2827    0.1190 O   0  0  0  0  0  0  0  0  0  0  0  0
    1.8725   -2.8346    0.5155 P   0  0  1  0  0  0  0  0  0  0  0  0
    2.0774   -3.0650    2.0816 O   0  0  0  0  0  0  0  0  0  0  0  0
    3.1304   -3.4428   -0.2449 O   0  0  0  0  0  0  0  0  0  0  0  0
    2.2100   -1.2959    0.2258 O   0  0  0  0  0  0  0  0  0  0  0  0
    1.2327   -0.3215    0.5625 C   0  0  0  0  0  0  0  0  0  0  0  0
    1.7750    1.0592    0.3387 C   0  0  0  0  0  0  0  0  0  0  0  0
    3.0667    1.2820   -0.1069 C   0  0  0  0  0  0  0  0  0  0  0  0
    3.5676    2.4978   -0.2978 N   0  0  0  0  0  0  0  0  0  0  0  0
    2.8195    3.5614   -0.0640 C   0  0  0  0  0  0  0  0  0  0  0  0
    3.4190    4.9167   -0.2904 C   0  0  0  0  0  0  0  0  0  0  0  0
    1.4959    3.4312    0.3857 C   0  0  0  0  0  0  0  0  0  0  0  0
    0.7132    4.5016    0.6148 O   0  0  0  0  0  0  0  0  0  0  0  0
    0.9602    2.1660    0.5998 C   0  0  0  0  0  0  0  0  0  0  0  0
   -0.4677    2.0055    1.0669 C   0  0  0  0  0  0  0  0  0  0  0  0
   -1.3266    1.6111   -0.0295 N   0  0  0  0  0  0  0  0  0  0  0  0
   -2.1066    0.5309   -0.0908 C   0  0  0  0  0  0  0  0  0  0  0  0
   -2.8798    0.1311   -1.1540 C   0  0  0  0  0  0  0  0  0  0  0  0
   -2.9837    0.8767   -2.3715 C   0  0  0  0  0  0  0  0  0  0  0  0
   -2.3649    1.9027   -2.6316 O   0  0  0  0  0  0  0  0  0  0  0  0
   -3.8461    0.3455   -3.2462 O   0  0  0  0  0  0  0  0  0  0  0  0
   -2.2929   -0.4063    1.0698 C   0  0  0  0  0  0  0  0  0  0  0  0
   -2.8908   -1.6450    0.4079 C   0  0  2  0  0  0  0  0  0  0  0  0
   -3.6462   -1.1239   -0.8306 C   0  0  0  0  0  0  0  0  0  0  0  0
   -3.7273   -2.4857    1.3293 C   0  0  0  0  0  0  0  0  0  0  0  0
   -3.8883   -2.2798    2.5066 O   0  0  0  0  0  0  0  0  0  0  0  0
   -4.2779   -3.5098    0.6882 O   0  0  0  0  0  0  0  0  0  0  0  0
    2.9423   -2.8131    2.4333 H   0  0  0  0  0  0  0  0  0  0  0  0
    3.1769   -4.4083   -0.2312 H   0  0  0  0  0  0  0  0  0  0  0  0
    0.3409   -0.4834   -0.0483 H   0  0  0  0  0  0  0  0  0  0  0  0
    0.9427   -0.4263    1.6145 H   0  0  0  0  0  0  0  0  0  0  0  0
    3.7335    0.4563   -0.3182 H   0  0  0  0  0  0  0  0  0  0  0  0
    2.8649    5.4908   -1.0376 H   0  0  0  0  0  0  0  0  0  0  0  0
    3.4465    5.5114    0.6264 H   0  0  0  0  0  0  0  0  0  0  0  0
    4.4420    4.8135   -0.6440 H   0  0  0  0  0  0  0  0  0  0  0  0
    1.1998    5.3250    0.4999 H   0  0  0  0  0  0  0  0  0  0  0  0
   -0.5240    1.2566    1.8568 H   0  0  0  0  0  0  0  0  0  0  0  0
   -0.8330    2.9318    1.5090 H   0  0  0  0  0  0  0  0  0  0  0  0
   -1.3214    2.1946   -0.8552 H   0  0  0  0  0  0  0  0  0  0  0  0
   -3.8673    0.8915   -4.0448 H   0  0  0  0  0  0  0  0  0  0  0  0
   -1.3756   -0.6360    1.6114 H   0  0  0  0  0  0  0  0  0  0  0  0
   -2.9774    0.0535    1.7893 H   0  0  0  0  0  0  0  0  0  0  0  0
   -2.0633   -2.2716    0.0554 H   0  0  0  0  0  0  0  0  0  0  0  0
   -4.6966   -0.9138   -0.5986 H   0  0  0  0  0  0  0  0  0  0  0  0
   -3.6385   -1.8592   -1.6354 H   0  0  0  0  0  0  0  0  0  0  0  0
   -4.8141   -4.0372    1.2993 H   0  0  0  0  0  0  0  0  0  0  0  0
 20 19  2  0
 21 19  1  0
 19 18  1  0
 13 12  1  0
 18 24  1  0
 18 17  2  0
 16 17  1  0
 16 15  1  0
 11 10  1  0
 24 23  1  0
 17 22  1  0
 12 10  2  0
 12 14  1  0
 15 14  1  0
 10  9  1  0
 14  7  2  0
 23 22  1  0
 23 25  1  0
  9  8  2  0
  1  2  2  0
  7  8  1  0
  7  6  1  0
 26 25  2  0
 25 27  1  0
  2  5  1  1
  5  6  1  0
  4  2  1  0
  2  3  1  0
  3 28  1  0
  4 29  1  0
  6 30  1  0
  6 31  1  0
  8 32  1  0
 11 33  1  0
 11 34  1  0
 11 35  1  0
 13 36  1  0
 15 37  1  0
 15 38  1  0
 16 39  1  0
 21 40  1  0
 22 41  1  0
 22 42  1  0
 23 43  1  6
 24 44  1  0
 24 45  1  0
 27 46  1  0
M  END
