
     RDKit          3D

 30 32  0  0  0  0  0  0  0  0999 V2000
    1.8932   -0.1137   -2.2086 C   0  0  0  0  0  0  0  0  0  0  0  0
   -0.1630   -0.0920   -3.0149 C   0  0  0  0  0  0  0  0  0  0  0  0
   -0.7383    0.0450   -1.7542 C   0  0  0  0  0  0  0  0  0  0  0  0
   -0.0906    0.4701    2.8920 C   0  0  1  0  0  0  0  0  0  0  0  0
   -0.9066   -0.6513    3.1590 O   0  0  0  0  0  0  0  0  0  0  0  0
    0.0968   -0.1552    5.2205 C   0  0  0  0  0  0  0  0  0  0  0  0
    0.8417    0.5993    4.1058 C   0  0  0  0  0  0  0  0  0  0  0  0
   -1.2169   -0.1216   -3.8705 N   0  0  0  0  0  0  0  0  0  0  0  0
    1.1315   -0.1762   -3.2955 N   0  0  0  0  0  0  0  0  0  0  0  0
    3.2350   -0.1456   -2.3777 N   0  0  0  0  0  0  0  0  0  0  0  0
    1.4661    0.0151   -0.9357 N   0  0  0  0  0  0  0  0  0  0  0  0
    0.1777    0.0943   -0.6970 C   0  0  0  0  0  0  0  0  0  0  0  0
   -0.2745    0.2204    0.5368 O   0  0  0  0  0  0  0  0  0  0  0  0
    0.6688    0.2655    1.6081 C   0  0  0  0  0  0  0  0  0  0  0  0
   -1.2005   -0.6026    4.5409 C   0  0  0  0  0  0  0  0  0  0  0  0
   -2.1088    0.0972   -1.8422 N   0  0  0  0  0  0  0  0  0  0  0  0
   -2.3493   -0.0047   -3.1143 C   0  0  0  0  0  0  0  0  0  0  0  0
   -0.7119    1.3752    2.8106 H   0  0  0  0  0  0  0  0  0  0  0  0
    0.6753   -1.0136    5.5620 H   0  0  0  0  0  0  0  0  0  0  0  0
   -0.1021    0.4710    6.0895 H   0  0  0  0  0  0  0  0  0  0  0  0
    1.8121    0.1404    3.9040 H   0  0  0  0  0  0  0  0  0  0  0  0
    1.0232    1.6447    4.3510 H   0  0  0  0  0  0  0  0  0  0  0  0
   -1.1776   -0.2067   -4.8744 H   0  0  0  0  0  0  0  0  0  0  0  0
    3.8036   -0.3513   -1.5745 H   0  0  0  0  0  0  0  0  0  0  0  0
    3.5895   -0.4640   -3.2633 H   0  0  0  0  0  0  0  0  0  0  0  0
    1.2458   -0.6628    1.6470 H   0  0  0  0  0  0  0  0  0  0  0  0
    1.3693    1.0914    1.4644 H   0  0  0  0  0  0  0  0  0  0  0  0
   -1.5439   -1.5876    4.8584 H   0  0  0  0  0  0  0  0  0  0  0  0
   -2.0043    0.1188    4.7383 H   0  0  0  0  0  0  0  0  0  0  0  0
   -3.3277   -0.0020   -3.5696 H   0  0  0  0  0  0  0  0  0  0  0  0
  1  9  2  0
  1 10  1  0
  1 11  1  0
  2  3  2  0
  2  8  1  0
  2  9  1  0
  3 12  1  0
  3 16  1  0
  4  5  1  0
  4  7  1  0
  4 14  1  0
  4 18  1  6
  5 15  1  0
  6  7  1  0
  6 15  1  0
  6 19  1  0
  6 20  1  0
  7 21  1  0
  7 22  1  0
  8 17  1  0
  8 23  1  0
 10 24  1  0
 10 25  1  0
 11 12  2  0
 12 13  1  0
 13 14  1  0
 14 26  1  0
 14 27  1  0
 15 28  1  0
 15 29  1  0
 16 17  2  0
 17 30  1  0
M  END
