
     RDKit          3D

 23 23  0  0  0  0  0  0  0  0999 V2000
   -0.9434    0.7070   -1.2511 C   0  0  2  0  0  0  0  0  0  0  0  0
    0.5791    0.7070   -1.2511 C   0  0  1  0  0  0  0  0  0  0  0  0
    1.0446    1.8838   -1.9416 O   0  0  0  0  0  0  0  0  0  0  0  0
    1.1359    0.7070    0.1239 C   0  0  2  0  0  0  0  0  0  0  0  0
    2.5798    0.5465    0.0454 O   0  0  0  0  0  0  0  0  0  0  0  0
    0.5710   -0.4011    0.9590 C   0  0  2  0  0  0  0  0  0  0  0  0
    1.0344   -1.6503    0.4427 O   0  0  0  0  0  0  0  0  0  0  0  0
   -0.9592   -0.4016    0.9544 C   0  0  2  0  0  0  0  0  0  0  0  0
   -1.4469   -1.6221    1.6761 C   0  0  0  0  0  0  0  0  0  0  0  0
   -1.5090   -0.4035   -0.4107 O   0  0  0  0  0  0  0  0  0  0  0  0
   -1.3842    0.5607   -2.5295 O   0  0  0  0  0  0  0  0  0  0  0  0
   -1.2931    1.6547   -0.8597 H   0  0  0  0  0  0  0  0  0  0  0  0
    0.9300   -0.1756   -1.7719 H   0  0  0  0  0  0  0  0  0  0  0  0
    1.4732    1.6299   -2.7420 H   0  0  0  0  0  0  0  0  0  0  0  0
    0.9058    1.6546    0.5958 H   0  0  0  0  0  0  0  0  0  0  0  0
    3.0003    1.2562    0.5020 H   0  0  0  0  0  0  0  0  0  0  0  0
    0.9186   -0.2844    1.9784 H   0  0  0  0  0  0  0  0  0  0  0  0
    1.6023   -2.0601    1.0740 H   0  0  0  0  0  0  0  0  0  0  0  0
   -1.3108    0.4829    1.4718 H   0  0  0  0  0  0  0  0  0  0  0  0
   -0.9153   -1.7233    2.6146 H   0  0  0  0  0  0  0  0  0  0  0  0
   -1.2696   -2.4984    1.0644 H   0  0  0  0  0  0  0  0  0  0  0  0
   -2.5082   -1.5266    1.8709 H   0  0  0  0  0  0  0  0  0  0  0  0
   -2.2354    0.9569   -2.6157 H   0  0  0  0  0  0  0  0  0  0  0  0
  1  2  1  0
  1 10  1  0
  1 11  1  0
  1 12  1  1
  2  3  1  0
  2  4  1  0
  2 13  1  6
  3 14  1  0
  4  5  1  0
  4  6  1  0
  4 15  1  1
  5 16  1  0
  6  7  1  0
  6  8  1  0
  6 17  1  1
  7 18  1  0
  8  9  1  0
  8 10  1  0
  8 19  1  1
  9 20  1  0
  9 21  1  0
  9 22  1  0
 11 23  1  0
M  END
