
     RDKit          3D

 17 17  0  0  0  0  0  0  0  0999 V2000
    0.6397   -0.3487    2.7266 N   0  0  0  0  0  0  0  0  0  0  0  0
   -0.2878    0.4529    1.9494 C   0  0  0  0  0  0  0  0  0  0  0  0
   -0.1729    0.1954    0.4669 C   0  0  0  0  0  0  0  0  0  0  0  0
   -1.2734    0.4026   -0.3625 C   0  0  0  0  0  0  0  0  0  0  0  0
   -1.1800    0.2151   -1.7348 C   0  0  0  0  0  0  0  0  0  0  0  0
    0.0205   -0.1932   -2.3019 C   0  0  0  0  0  0  0  0  0  0  0  0
    1.1209   -0.4114   -1.4835 C   0  0  0  0  0  0  0  0  0  0  0  0
    1.0248   -0.2186   -0.1110 C   0  0  0  0  0  0  0  0  0  0  0  0
    0.3523   -1.3191    2.7038 H   0  0  0  0  0  0  0  0  0  0  0  0
    0.5922   -0.0659    3.6967 H   0  0  0  0  0  0  0  0  0  0  0  0
   -1.3392    0.3273    2.2430 H   0  0  0  0  0  0  0  0  0  0  0  0
   -0.0535    1.5056    2.1349 H   0  0  0  0  0  0  0  0  0  0  0  0
   -2.2172    0.7143    0.0704 H   0  0  0  0  0  0  0  0  0  0  0  0
   -2.0471    0.3824   -2.3612 H   0  0  0  0  0  0  0  0  0  0  0  0
    0.0958   -0.3434   -3.3712 H   0  0  0  0  0  0  0  0  0  0  0  0
    2.0599   -0.7352   -1.9144 H   0  0  0  0  0  0  0  0  0  0  0  0
    1.8849   -0.3965    0.5211 H   0  0  0  0  0  0  0  0  0  0  0  0
  1  2  1  0
  1  9  1  0
  1 10  1  0
  2  3  1  0
  2 11  1  0
  2 12  1  0
  3  4  2  0
  3  8  1  0
  4  5  1  0
  4 13  1  0
  5  6  2  0
  5 14  1  0
  6  7  1  0
  6 15  1  0
  7  8  2  0
  7 16  1  0
  8 17  1  0
M  END
