
     RDKit          3D

 62 64  0  0  0  0  0  0  0  0999 V2000
    6.2645   -0.5548    0.6651 C   0  0  0  0  0  0  0  0  0  0  0  0
    4.0721    0.3411    0.9911 C   0  0  0  0  0  0  0  0  0  0  0  0
    6.7371    0.6396    0.1542 C   0  0  0  0  0  0  0  0  0  0  0  0
    5.8295    1.6778    0.0767 C   0  0  0  0  0  0  0  0  0  0  0  0
    4.5141    1.5569    0.4791 C   0  0  0  0  0  0  0  0  0  0  0  0
    6.2501    2.8540   -0.4108 F   0  0  0  0  0  0  0  0  0  0  0  0
    7.1179   -1.5846    0.7594 F   0  0  0  0  0  0  0  0  0  0  0  0
    4.9612   -0.7275    1.0847 C   0  0  0  0  0  0  0  0  0  0  0  0
    2.6445    0.1719    1.4212 C   0  0  0  0  0  0  0  0  0  0  0  0
    1.8186   -0.6196    0.3911 C   0  0  1  0  0  0  0  0  0  0  0  0
    0.3322   -0.6873    0.7994 C   0  0  2  0  0  0  0  0  0  0  0  0
    0.2319   -1.3063    2.0644 O   0  0  0  0  0  0  0  0  0  0  0  0
   -0.5501   -1.3812   -0.2550 C   0  0  2  0  0  0  0  0  0  0  0  0
   -0.8734   -0.4506   -1.3281 N   0  0  0  0  0  0  0  0  0  0  0  0
   -1.7761   -1.0424   -2.2956 C   0  0  0  0  0  0  0  0  0  0  0  0
   -3.0253   -1.6193   -1.6487 C   0  0  2  0  0  0  0  0  0  0  0  0
   -3.7810   -0.5483   -1.1740 O   0  0  0  0  0  0  0  0  0  0  0  0
   -5.0532   -0.8796   -0.6550 C   0  0  0  0  0  0  0  0  0  0  0  0
   -5.7143    0.3725   -0.1075 C   0  0  1  0  0  0  0  0  0  0  0  0
   -7.1400    0.0512    0.3427 C   0  0  0  0  0  0  0  0  0  0  0  0
   -7.8420    1.2794    0.9121 C   0  0  0  0  0  0  0  0  0  0  0  0
   -7.0435    1.8946    2.0570 C   0  0  0  0  0  0  0  0  0  0  0  0
   -5.6189    2.2180    1.6187 C   0  0  0  0  0  0  0  0  0  0  0  0
   -4.9196    0.9897    1.0446 C   0  0  0  0  0  0  0  0  0  0  0  0
   -2.6711   -2.5141   -0.6262 O   0  0  0  0  0  0  0  0  0  0  0  0
   -1.8173   -1.9672    0.3700 C   0  0  0  0  0  0  0  0  0  0  0  0
    2.0338   -0.1688   -0.9647 N   0  0  0  0  0  0  0  0  0  0  0  0
    1.6717    1.0355   -1.4386 C   0  0  0  0  0  0  0  0  0  0  0  0
    1.7761    1.1843   -2.9347 C   0  0  0  0  0  0  0  0  0  0  0  0
    1.2820    1.9481   -0.7216 O   0  0  0  0  0  0  0  0  0  0  0  0
    7.7647    0.7561   -0.1639 H   0  0  0  0  0  0  0  0  0  0  0  0
    3.8368    2.3961    0.3924 H   0  0  0  0  0  0  0  0  0  0  0  0
    4.6408   -1.6829    1.4821 H   0  0  0  0  0  0  0  0  0  0  0  0
    2.6148   -0.3661    2.3692 H   0  0  0  0  0  0  0  0  0  0  0  0
    2.1912    1.1479    1.5926 H   0  0  0  0  0  0  0  0  0  0  0  0
    2.1880   -1.6510    0.3970 H   0  0  0  0  0  0  0  0  0  0  0  0
   -0.0502    0.3274    0.9492 H   0  0  0  0  0  0  0  0  0  0  0  0
    0.6219   -2.1865    2.0152 H   0  0  0  0  0  0  0  0  0  0  0  0
    0.0156   -2.2108   -0.7045 H   0  0  0  0  0  0  0  0  0  0  0  0
   -1.2988    0.3827   -0.9364 H   0  0  0  0  0  0  0  0  0  0  0  0
   -2.0452   -0.2963   -3.0455 H   0  0  0  0  0  0  0  0  0  0  0  0
   -1.2543   -1.8480   -2.8206 H   0  0  0  0  0  0  0  0  0  0  0  0
   -3.6045   -2.2183   -2.3656 H   0  0  0  0  0  0  0  0  0  0  0  0
   -5.6777   -1.3199   -1.4461 H   0  0  0  0  0  0  0  0  0  0  0  0
   -4.9716   -1.6260    0.1451 H   0  0  0  0  0  0  0  0  0  0  0  0
   -5.7774    1.1108   -0.9188 H   0  0  0  0  0  0  0  0  0  0  0  0
   -7.7149   -0.3559   -0.4943 H   0  0  0  0  0  0  0  0  0  0  0  0
   -7.1068   -0.7331    1.1085 H   0  0  0  0  0  0  0  0  0  0  0  0
   -7.9650    2.0244    0.1178 H   0  0  0  0  0  0  0  0  0  0  0  0
   -8.8472    1.0144    1.2486 H   0  0  0  0  0  0  0  0  0  0  0  0
   -7.5424    2.7948    2.4243 H   0  0  0  0  0  0  0  0  0  0  0  0
   -7.0129    1.1903    2.8961 H   0  0  0  0  0  0  0  0  0  0  0  0
   -5.6454    3.0067    0.8585 H   0  0  0  0  0  0  0  0  0  0  0  0
   -5.0435    2.6167    2.4579 H   0  0  0  0  0  0  0  0  0  0  0  0
   -4.8028    0.2364    1.8345 H   0  0  0  0  0  0  0  0  0  0  0  0
   -3.9127    1.2517    0.7135 H   0  0  0  0  0  0  0  0  0  0  0  0
   -1.5889   -2.7932    1.0427 H   0  0  0  0  0  0  0  0  0  0  0  0
   -2.3441   -1.2016    0.9548 H   0  0  0  0  0  0  0  0  0  0  0  0
    2.2603   -0.8789   -1.6399 H   0  0  0  0  0  0  0  0  0  0  0  0
    0.7982    0.9660   -3.3671 H   0  0  0  0  0  0  0  0  0  0  0  0
    2.0426    2.2061   -3.1961 H   0  0  0  0  0  0  0  0  0  0  0  0
    2.4995    0.5047   -3.3829 H   0  0  0  0  0  0  0  0  0  0  0  0
  6  4  1  0
  3  4  1  0
  3  1  2  0
  4  5  2  0
  7  1  1  0
  1  8  1  0
  5  2  1  0
  8  2  2  0
 30 28  2  0
  2  9  1  0
 29 28  1  0
 28 27  1  0
  9 10  1  0
 27 10  1  0
 10 11  1  0
 22 23  1  0
 22 21  1  0
 26 25  1  0
 26 13  1  0
 23 24  1  0
 24 19  1  0
 21 20  1  0
 20 19  1  0
 25 16  1  0
 11 12  1  0
 11 13  1  0
 18 19  1  0
 18 17  1  0
 13 14  1  0
 16 17  1  0
 16 15  1  0
 14 15  1  0
  3 31  1  0
  5 32  1  0
  8 33  1  0
  9 34  1  0
  9 35  1  0
 10 36  1  6
 11 37  1  1
 12 38  1  0
 13 39  1  6
 14 40  1  0
 15 41  1  0
 15 42  1  0
 16 43  1  6
 18 44  1  0
 18 45  1  0
 19 46  1  6
 20 47  1  0
 20 48  1  0
 21 49  1  0
 21 50  1  0
 22 51  1  0
 22 52  1  0
 23 53  1  0
 23 54  1  0
 24 55  1  0
 24 56  1  0
 26 57  1  0
 26 58  1  0
 27 59  1  0
 29 60  1  0
 29 61  1  0
 29 62  1  0
M  END
