
     RDKit          3D

 44 45  0  0  0  0  0  0  0  0999 V2000
   -6.1397    0.1478    0.7227 F   0  0  0  0  0  0  0  0  0  0  0  0
   -4.9259    0.6779    0.7887 C   0  0  1  0  0  0  0  0  0  0  0  0
   -4.9590    1.8817    0.2320 F   0  0  0  0  0  0  0  0  0  0  0  0
   -4.5926    0.8017    2.0648 F   0  0  0  0  0  0  0  0  0  0  0  0
   -3.9313   -0.2524    0.0437 C   0  0  1  0  0  0  0  0  0  0  0  0
   -3.8334   -1.3858    0.7566 F   0  0  0  0  0  0  0  0  0  0  0  0
   -4.4616   -0.5379   -1.1533 F   0  0  0  0  0  0  0  0  0  0  0  0
   -2.5140    0.3499   -0.1747 C   0  0  1  0  0  0  0  0  0  0  0  0
   -2.6067    1.2715   -1.1461 F   0  0  0  0  0  0  0  0  0  0  0  0
   -2.1239    0.9597    0.9555 F   0  0  0  0  0  0  0  0  0  0  0  0
   -1.4273   -0.6951   -0.5622 C   0  0  1  0  0  0  0  0  0  0  0  0
   -1.0763   -1.3627    0.5504 F   0  0  0  0  0  0  0  0  0  0  0  0
   -1.9463   -1.5691   -1.4381 F   0  0  0  0  0  0  0  0  0  0  0  0
   -0.1323   -0.1072   -1.1795 C   0  0  1  0  0  0  0  0  0  0  0  0
   -0.3788    0.2816   -2.4387 F   0  0  0  0  0  0  0  0  0  0  0  0
    0.2339    0.9797   -0.4665 F   0  0  0  0  0  0  0  0  0  0  0  0
    0.9892   -1.1681   -1.2071 C   0  0  0  0  0  0  0  0  0  0  0  0
    0.9296   -2.0543   -2.0330 O   0  0  0  0  0  0  0  0  0  0  0  0
    1.9517   -1.0090   -0.3027 N   0  0  0  0  0  0  0  0  0  0  0  0
    3.0438   -1.9428   -0.2022 C   0  0  2  0  0  0  0  0  0  0  0  0
    2.5567   -3.2526    0.4025 C   0  0  0  0  0  0  0  0  0  0  0  0
    1.4858   -3.4059    0.9252 O   0  0  0  0  0  0  0  0  0  0  0  0
    3.4829   -4.1923    0.2975 O   0  0  0  0  0  0  0  0  0  0  0  0
    4.1874   -1.3441    0.6383 C   0  0  0  0  0  0  0  0  0  0  0  0
    4.6327   -0.0174    0.1188 C   0  0  0  0  0  0  0  0  0  0  0  0
    4.1808    1.2697    0.5564 C   0  0  0  0  0  0  0  0  0  0  0  0
    3.3057    1.7025    1.5605 C   0  0  0  0  0  0  0  0  0  0  0  0
    3.0829    3.0563    1.7160 C   0  0  0  0  0  0  0  0  0  0  0  0
    3.7216    3.9951    0.8891 C   0  0  0  0  0  0  0  0  0  0  0  0
    4.5962    3.5990   -0.1044 C   0  0  0  0  0  0  0  0  0  0  0  0
    4.8167    2.2315   -0.2596 C   0  0  0  0  0  0  0  0  0  0  0  0
    5.6118    1.5553   -1.1375 N   0  0  0  0  0  0  0  0  0  0  0  0
    5.5020    0.2145   -0.9109 C   0  0  0  0  0  0  0  0  0  0  0  0
    1.8995   -0.2528    0.3621 H   0  0  0  0  0  0  0  0  0  0  0  0
    3.4297   -2.1484   -1.2046 H   0  0  0  0  0  0  0  0  0  0  0  0
    3.1833   -5.0126    0.7187 H   0  0  0  0  0  0  0  0  0  0  0  0
    3.8639   -1.2530    1.6792 H   0  0  0  0  0  0  0  0  0  0  0  0
    5.0139   -2.0543    0.6341 H   0  0  0  0  0  0  0  0  0  0  0  0
    2.8182    0.9936    2.2209 H   0  0  0  0  0  0  0  0  0  0  0  0
    2.4100    3.4037    2.4894 H   0  0  0  0  0  0  0  0  0  0  0  0
    3.5267    5.0496    1.0357 H   0  0  0  0  0  0  0  0  0  0  0  0
    5.0904    4.3235   -0.7392 H   0  0  0  0  0  0  0  0  0  0  0  0
    6.1992    1.9741   -1.8392 H   0  0  0  0  0  0  0  0  0  0  0  0
    6.0599   -0.4891   -1.5091 H   0  0  0  0  0  0  0  0  0  0  0  0
  2  4  1  1
  1  2  1  0
  2  3  1  0
  2  5  1  0
  5  6  1  1
  5  7  1  0
  5  8  1  0
  8  9  1  6
  8 10  1  0
  8 11  1  0
 14 16  1  1
 11 13  1  6
 11 14  1  0
 11 12  1  0
 18 17  2  0
 14 17  1  0
 14 15  1  0
 17 19  1  0
 19 20  1  0
 20 21  1  0
 20 24  1  0
 22 21  2  0
 21 23  1  0
 24 25  1  0
 25 33  2  0
 25 26  1  0
 33 32  1  0
 27 26  2  0
 27 28  1  0
 26 31  1  0
 32 31  1  0
 28 29  2  0
 31 30  2  0
 29 30  1  0
 19 34  1  0
 20 35  1  6
 23 36  1  0
 24 37  1  0
 24 38  1  0
 27 39  1  0
 28 40  1  0
 29 41  1  0
 30 42  1  0
 32 43  1  0
 33 44  1  0
M  END
