
     RDKit          3D

 19 19  0  0  0  0  0  0  0  0999 V2000
    3.0028    0.3186   -0.7920 O   0  0  0  0  0  0  0  0  0  0  0  0
    2.3822    1.0697    1.2284 O   0  0  0  0  0  0  0  0  0  0  0  0
   -1.7787    1.8926   -0.1522 C   0  0  0  0  0  0  0  0  0  0  0  0
   -2.8859    1.0329   -0.1466 C   0  0  0  0  0  0  0  0  0  0  0  0
   -2.7289   -0.3256   -0.0464 C   0  0  0  0  0  0  0  0  0  0  0  0
   -1.4459   -0.9101    0.0536 C   0  0  0  0  0  0  0  0  0  0  0  0
   -0.3166   -0.0414    0.0558 C   0  0  0  0  0  0  0  0  0  0  0  0
   -0.5238    1.3494   -0.0506 C   0  0  0  0  0  0  0  0  0  0  0  0
    1.0270   -0.5717    0.1189 C   0  0  0  0  0  0  0  0  0  0  0  0
    1.3306   -1.7549    0.1276 O   0  0  0  0  0  0  0  0  0  0  0  0
    2.2002    0.3975    0.2486 C   0  0  0  0  0  0  0  0  0  0  0  0
    3.7824    0.8838   -0.6675 H   0  0  0  0  0  0  0  0  0  0  0  0
   -1.9109    2.9621   -0.2330 H   0  0  0  0  0  0  0  0  0  0  0  0
   -3.8852    1.4422   -0.2253 H   0  0  0  0  0  0  0  0  0  0  0  0
   -3.5959   -0.9750   -0.0458 H   0  0  0  0  0  0  0  0  0  0  0  0
    0.3247    2.0202   -0.0568 H   0  0  0  0  0  0  0  0  0  0  0  0
   -2.1707   -2.8139    0.0982 H   0  0  0  0  0  0  0  0  0  0  0  0
   -0.4489   -2.6965    0.1615 H   0  0  0  0  0  0  0  0  0  0  0  0
   -1.3454   -2.2437    0.1547 N   0  0  0  0  0  0  0  0  0  0  0  0
  2 11  2  0
  1 11  1  0
 11  9  1  0
 10  9  2  0
  9  7  1  0
  7  8  1  0
  7  6  2  0
 19  6  1  0
  8  3  2  0
  6  5  1  0
  3  4  1  0
  5  4  2  0
  1 12  1  0
  3 13  1  0
  4 14  1  0
  5 15  1  0
  8 16  1  0
 19 17  1  0
 19 18  1  0
M  END
