
     RDKit          3D

 47 50  0  0  0  0  0  0  0  0999 V2000
    0.5246   -1.6123   -0.1980 C   0  0  0  0  0  0  0  0  0  0  0  0
   -2.6069    0.4067   -0.1258 C   0  0  0  0  0  0  0  0  0  0  0  0
   -4.8725   -0.7898   -0.1880 C   0  0  0  0  0  0  0  0  0  0  0  0
   -4.4484    1.6409   -0.4623 C   0  0  0  0  0  0  0  0  0  0  0  0
   -2.0077   -1.8022    0.8708 C   0  0  0  0  0  0  0  0  0  0  0  0
   -1.1151   -2.8253    1.1086 C   0  0  0  0  0  0  0  0  0  0  0  0
    1.3263   -3.5846    0.6187 C   0  0  0  0  0  0  0  0  0  0  0  0
    2.7554    2.6193    2.1420 C   0  0  0  0  0  0  0  0  0  0  0  0
    3.5415    1.8326    1.2195 N   0  0  0  0  0  0  0  0  0  0  0  0
    2.6933    0.9683    0.4223 C   0  0  0  0  0  0  0  0  0  0  0  0
    4.3796    2.6799    0.3903 C   0  0  0  0  0  0  0  0  0  0  0  0
    5.2629    1.8497   -0.5261 C   0  0  0  0  0  0  0  0  0  0  0  0
    4.4196    0.9118   -1.3779 C   0  0  0  0  0  0  0  0  0  0  0  0
    3.5101    0.0638   -0.4939 C   0  0  2  0  0  0  0  0  0  0  0  0
    2.6181   -0.8225   -1.3600 C   0  0  0  0  0  0  0  0  0  0  0  0
    1.8228   -1.7678   -0.6046 N   0  0  0  0  0  0  0  0  0  0  0  0
   -0.3742   -0.5800   -0.4429 C   0  0  0  0  0  0  0  0  0  0  0  0
   -1.6492   -0.6789    0.0968 C   0  0  0  0  0  0  0  0  0  0  0  0
   -4.0285    0.3274   -0.2244 C   0  0  0  0  0  0  0  0  0  0  0  0
   -5.5894   -1.6970   -0.1661 N   0  0  0  0  0  0  0  0  0  0  0  0
   -5.6908    2.1534   -0.5845 N   0  0  0  0  0  0  0  0  0  0  0  0
   -3.3273    2.3672   -0.4920 N   0  0  0  0  0  0  0  0  0  0  0  0
   -2.2086    1.6431   -0.2875 N   0  0  0  0  0  0  0  0  0  0  0  0
    0.1748   -2.7450    0.5741 C   0  0  0  0  0  0  0  0  0  0  0  0
    2.2952   -2.9496   -0.1028 C   0  0  0  0  0  0  0  0  0  0  0  0
   -2.9933   -1.8566    1.3138 H   0  0  0  0  0  0  0  0  0  0  0  0
   -1.4100   -3.6750    1.7115 H   0  0  0  0  0  0  0  0  0  0  0  0
    1.4231   -4.5365    1.1157 H   0  0  0  0  0  0  0  0  0  0  0  0
    2.1691    1.9655    2.7893 H   0  0  0  0  0  0  0  0  0  0  0  0
    3.4094    3.2198    2.7761 H   0  0  0  0  0  0  0  0  0  0  0  0
    2.0555    3.3050    1.6376 H   0  0  0  0  0  0  0  0  0  0  0  0
    2.0846    0.3684    1.1037 H   0  0  0  0  0  0  0  0  0  0  0  0
    1.9866    1.5555   -0.1973 H   0  0  0  0  0  0  0  0  0  0  0  0
    3.7700    3.3715   -0.2209 H   0  0  0  0  0  0  0  0  0  0  0  0
    4.9969    3.3017    1.0435 H   0  0  0  0  0  0  0  0  0  0  0  0
    5.8553    2.5135   -1.1589 H   0  0  0  0  0  0  0  0  0  0  0  0
    5.9670    1.2694    0.0776 H   0  0  0  0  0  0  0  0  0  0  0  0
    3.8037    1.5010   -2.0684 H   0  0  0  0  0  0  0  0  0  0  0  0
    5.0563    0.2703   -1.9924 H   0  0  0  0  0  0  0  0  0  0  0  0
    4.1376   -0.5845    0.1301 H   0  0  0  0  0  0  0  0  0  0  0  0
    1.9458   -0.2100   -1.9640 H   0  0  0  0  0  0  0  0  0  0  0  0
    3.2367   -1.3876   -2.0601 H   0  0  0  0  0  0  0  0  0  0  0  0
   -0.1017    0.2806   -1.0401 H   0  0  0  0  0  0  0  0  0  0  0  0
   -5.7865    3.0334   -1.0662 H   0  0  0  0  0  0  0  0  0  0  0  0
   -6.4270    1.5017   -0.8028 H   0  0  0  0  0  0  0  0  0  0  0  0
   -3.2560    3.3647   -0.6194 H   0  0  0  0  0  0  0  0  0  0  0  0
    3.3086   -3.2579   -0.3100 H   0  0  0  0  0  0  0  0  0  0  0  0
 21  4  1  0
  4 22  1  0
  4 19  2  0
 22 23  1  0
 20  3  3  0
  3 19  1  0
 19  2  1  0
 23  2  2  0
  2 18  1  0
 18  5  2  0
 18 17  1  0
  5  6  1  0
 17  1  2  0
  6 24  2  0
  1 24  1  0
  1 16  1  0
 24  7  1  0
 15 16  1  0
 15 14  1  0
 16 25  1  0
  7 25  2  0
 13 14  1  0
 13 12  1  0
 14 10  1  0
 12 11  1  0
 10  9  1  0
 11  9  1  0
  9  8  1  0
  5 26  1  0
  6 27  1  0
  7 28  1  0
  8 29  1  0
  8 30  1  0
  8 31  1  0
 10 32  1  0
 10 33  1  0
 11 34  1  0
 11 35  1  0
 12 36  1  0
 12 37  1  0
 13 38  1  0
 13 39  1  0
 14 40  1  1
 15 41  1  0
 15 42  1  0
 17 43  1  0
 21 44  1  0
 21 45  1  0
 22 46  1  0
 25 47  1  0
M  END
