
     RDKit          3D

 41 43  0  0  0  0  0  0  0  0999 V2000
    7.7414    1.5927    0.1446 C   0  0  0  0  0  0  0  0  0  0  0  0
    5.6832    0.4384    0.3857 C   0  0  0  0  0  0  0  0  0  0  0  0
    4.8989   -0.4356    1.1456 C   0  0  0  0  0  0  0  0  0  0  0  0
    3.6454   -0.8081    0.7034 C   0  0  0  0  0  0  0  0  0  0  0  0
    3.1358   -0.3080   -0.4958 C   0  0  0  0  0  0  0  0  0  0  0  0
    0.5036    0.2750   -0.0681 C   0  0  0  0  0  0  0  0  0  0  0  0
   -0.9472    0.0012   -0.3901 C   0  0  0  0  0  0  0  0  0  0  0  0
   -3.1987    0.5262    0.3114 C   0  0  0  0  0  0  0  0  0  0  0  0
   -4.0079   -0.5674    0.1274 C   0  0  0  0  0  0  0  0  0  0  0  0
   -4.0233   -2.0394   -0.1068 C   0  0  0  0  0  0  0  0  0  0  0  0
   -5.5088   -2.3823    0.1881 C   0  0  0  0  0  0  0  0  0  0  0  0
   -6.3378   -1.0928   -0.0395 C   0  0  0  0  0  0  0  0  0  0  0  0
   -5.2988   -0.0393    0.1671 C   0  0  0  0  0  0  0  0  0  0  0  0
    3.9173    0.5604   -1.2448 C   0  0  0  0  0  0  0  0  0  0  0  0
    5.1857    0.9343   -0.8175 C   0  0  0  0  0  0  0  0  0  0  0  0
   -1.8208    0.6752    0.4014 N   0  0  0  0  0  0  0  0  0  0  0  0
   -5.3192    1.2607    0.3663 N   0  0  0  0  0  0  0  0  0  0  0  0
   -4.0228    1.6007    0.4331 N   0  0  0  0  0  0  0  0  0  0  0  0
    6.8921    0.7391    0.8875 O   0  0  0  0  0  0  0  0  0  0  0  0
   -1.2912   -0.7485   -1.2799 O   0  0  0  0  0  0  0  0  0  0  0  0
    1.5426   -0.8119   -1.0840 S   0  0  0  0  0  0  0  0  0  0  0  0
    7.9814    1.1740   -0.8357 H   0  0  0  0  0  0  0  0  0  0  0  0
    7.3052    2.5853    0.0088 H   0  0  0  0  0  0  0  0  0  0  0  0
    8.6592    1.6905    0.7188 H   0  0  0  0  0  0  0  0  0  0  0  0
    5.2867   -0.8257    2.0783 H   0  0  0  0  0  0  0  0  0  0  0  0
    3.0549   -1.4951    1.2962 H   0  0  0  0  0  0  0  0  0  0  0  0
    0.7366    1.3220   -0.2756 H   0  0  0  0  0  0  0  0  0  0  0  0
    0.6936    0.0986    0.9924 H   0  0  0  0  0  0  0  0  0  0  0  0
   -3.7538   -2.2749   -1.1394 H   0  0  0  0  0  0  0  0  0  0  0  0
   -3.3434   -2.6023    0.5339 H   0  0  0  0  0  0  0  0  0  0  0  0
   -5.8684   -3.2165   -0.4138 H   0  0  0  0  0  0  0  0  0  0  0  0
   -5.6006   -2.6784    1.2347 H   0  0  0  0  0  0  0  0  0  0  0  0
   -6.7387   -1.0511   -1.0563 H   0  0  0  0  0  0  0  0  0  0  0  0
   -7.1853   -1.0206    0.6432 H   0  0  0  0  0  0  0  0  0  0  0  0
   -2.7582    3.2349    0.1444 H   0  0  0  0  0  0  0  0  0  0  0  0
   -4.4557    3.6142    0.4412 H   0  0  0  0  0  0  0  0  0  0  0  0
   -3.4219    3.1021    1.7840 H   0  0  0  0  0  0  0  0  0  0  0  0
    3.5391    0.9565   -2.1784 H   0  0  0  0  0  0  0  0  0  0  0  0
    5.7622    1.6105   -1.4337 H   0  0  0  0  0  0  0  0  0  0  0  0
   -1.4473    1.2518    1.1419 H   0  0  0  0  0  0  0  0  0  0  0  0
   -3.6370    2.9594    0.7242 C   0  0  0  0  0  0  0  0  0  0  0  0
 20  7  2  0
  6  7  1  0
  6 21  1  0
  7 16  1  0
 14 15  1  0
 14  5  2  0
 15  2  2  0
 21  5  1  0
 16  8  1  0
  5  4  1  0
  1 19  1  0
  8  9  2  0
  8 18  1  0
 41 18  1  0
 10  9  1  0
 10 11  1  0
  9 13  1  0
 18 17  1  0
  2 19  1  0
  2  3  1  0
 13 17  2  0
 13 12  1  0
 12 11  1  0
  4  3  2  0
  1 22  1  0
  1 23  1  0
  1 24  1  0
  3 25  1  0
  4 26  1  0
  6 27  1  0
  6 28  1  0
 10 29  1  0
 10 30  1  0
 11 31  1  0
 11 32  1  0
 12 33  1  0
 12 34  1  0
 41 35  1  0
 41 36  1  0
 41 37  1  0
 14 38  1  0
 15 39  1  0
 16 40  1  0
M  END
