
     RDKit          3D

 16 17  0  0  0  0  0  0  0  0999 V2000
   -0.0617    0.2068    3.0283 Br  0  0  0  0  0  0  0  0  0  0  0  0
    0.9778   -0.7145    1.7851 C   0  0  0  0  0  0  0  0  0  0  0  0
    0.7708   -0.6438    0.4062 C   0  0  0  0  0  0  0  0  0  0  0  0
   -0.6149    0.4268   -0.2477 Br  0  0  0  0  0  0  0  0  0  0  0  0
    2.0104   -1.5098    2.2440 C   0  0  0  0  0  0  0  0  0  0  0  0
    2.4675   -1.7911    3.5032 N   0  0  0  0  0  0  0  0  0  0  0  0
    3.5245   -2.6430    3.4561 C   0  0  0  0  0  0  0  0  0  0  0  0
    4.3834   -3.2449    4.7370 S   0  0  0  0  0  0  0  0  0  0  0  0
    3.7286   -2.8969    2.1376 N   0  0  0  0  0  0  0  0  0  0  0  0
    2.8227   -2.2223    1.3641 C   0  0  0  0  0  0  0  0  0  0  0  0
    2.6287   -2.1626   -0.0024 C   0  0  0  0  0  0  0  0  0  0  0  0
    3.7568   -3.1504   -1.1096 Br  0  0  0  0  0  0  0  0  0  0  0  0
    1.5892   -1.3627   -0.4804 C   0  0  0  0  0  0  0  0  0  0  0  0
    1.2988   -1.2612   -2.3239 Br  0  0  0  0  0  0  0  0  0  0  0  0
    4.4640   -3.5034    1.8060 H   0  0  0  0  0  0  0  0  0  0  0  0
    2.0918   -1.4378    4.3706 H   0  0  0  0  0  0  0  0  0  0  0  0
  1  2  1  0
  2  3  2  0
  2  5  1  0
  3  4  1  0
  3 13  1  0
  5  6  1  0
  5 10  2  0
  6  7  1  0
  6 16  1  0
  7  8  2  0
  7  9  1  0
  9 10  1  0
  9 15  1  0
 10 11  1  0
 11 13  2  0
 11 12  1  0
 13 14  1  0
M  END
