
     RDKit          3D

 55 58  0  0  0  0  0  0  0  0999 V2000
    3.2974   -1.2244    5.6260 C   0  0  0  0  0  0  0  0  0  0  0  0
    2.0111   -1.2984    6.1326 C   0  0  0  0  0  0  0  0  0  0  0  0
    0.9868   -0.6261    5.4709 C   0  0  0  0  0  0  0  0  0  0  0  0
    1.2740    0.1141    4.3071 C   0  0  0  0  0  0  0  0  0  0  0  0
    2.5642    0.1898    3.7905 C   0  0  0  0  0  0  0  0  0  0  0  0
    3.5658   -0.4866    4.4671 C   0  0  0  0  0  0  0  0  0  0  0  0
   -0.4288   -0.4928    5.6999 C   0  0  0  0  0  0  0  0  0  0  0  0
   -0.9264    0.3201    4.6620 C   0  0  0  0  0  0  0  0  0  0  0  0
    0.1146    0.6907    3.8408 N   0  0  0  0  0  0  0  0  0  0  0  0
   -1.2969   -0.9807    6.6731 C   0  0  0  0  0  0  0  0  0  0  0  0
   -2.6408   -0.6575    6.5947 C   0  0  0  0  0  0  0  0  0  0  0  0
   -3.1207    0.1461    5.5540 C   0  0  0  0  0  0  0  0  0  0  0  0
   -2.2772    0.6451    4.5751 C   0  0  0  0  0  0  0  0  0  0  0  0
   -0.0013    1.4770    2.6408 C   0  0  0  0  0  0  0  0  0  0  0  0
   -0.2406    0.5941    1.4250 C   0  0  0  0  0  0  0  0  0  0  0  0
   -0.3594    1.4552    0.3134 O   0  0  0  0  0  0  0  0  0  0  0  0
   -0.5927    0.9191   -0.9042 C   0  0  0  0  0  0  0  0  0  0  0  0
   -0.7277    1.8197   -1.9616 C   0  0  0  0  0  0  0  0  0  0  0  0
   -0.9702    1.3585   -3.2424 C   0  0  0  0  0  0  0  0  0  0  0  0
   -1.0935   -0.0047   -3.5107 C   0  0  0  0  0  0  0  0  0  0  0  0
   -0.9561   -0.8868   -2.4476 C   0  0  0  0  0  0  0  0  0  0  0  0
   -0.7079   -0.4445   -1.1525 C   0  0  0  0  0  0  0  0  0  0  0  0
   -1.3421   -0.5131   -4.9019 C   0  0  0  0  0  0  0  0  0  0  0  0
   -0.0319   -0.7106   -5.6774 C   0  0  1  0  0  0  0  0  0  0  0  0
   -0.3221   -1.3588   -7.0256 C   0  0  0  0  0  0  0  0  0  0  0  0
   -0.6349   -2.6406   -6.8872 O   0  0  0  0  0  0  0  0  0  0  0  0
   -0.2955   -0.7823   -8.0810 O   0  0  0  0  0  0  0  0  0  0  0  0
    0.5714    0.5292   -5.8471 O   0  0  0  0  0  0  0  0  0  0  0  0
    1.9643    0.4823   -6.0852 C   0  0  0  0  0  0  0  0  0  0  0  0
    2.4723    1.8936   -6.2670 C   0  0  0  0  0  0  0  0  0  0  0  0
    4.1039   -1.7441    6.1258 H   0  0  0  0  0  0  0  0  0  0  0  0
    1.8066   -1.8721    7.0280 H   0  0  0  0  0  0  0  0  0  0  0  0
    2.7868    0.7503    2.8913 H   0  0  0  0  0  0  0  0  0  0  0  0
    4.5782   -0.4442    4.0871 H   0  0  0  0  0  0  0  0  0  0  0  0
   -0.9288   -1.6026    7.4799 H   0  0  0  0  0  0  0  0  0  0  0  0
   -3.3292   -1.0294    7.3418 H   0  0  0  0  0  0  0  0  0  0  0  0
   -4.1755    0.3845    5.5102 H   0  0  0  0  0  0  0  0  0  0  0  0
   -2.6677    1.2603    3.7747 H   0  0  0  0  0  0  0  0  0  0  0  0
    0.9103    2.0626    2.5118 H   0  0  0  0  0  0  0  0  0  0  0  0
   -0.8198    2.1877    2.7598 H   0  0  0  0  0  0  0  0  0  0  0  0
   -1.1523    0.0019    1.5643 H   0  0  0  0  0  0  0  0  0  0  0  0
    0.5938   -0.1052    1.2950 H   0  0  0  0  0  0  0  0  0  0  0  0
   -0.6422    2.8825   -1.7711 H   0  0  0  0  0  0  0  0  0  0  0  0
   -1.0737    2.0767   -4.0456 H   0  0  0  0  0  0  0  0  0  0  0  0
   -1.0491   -1.9530   -2.6195 H   0  0  0  0  0  0  0  0  0  0  0  0
   -0.6161   -1.1765   -0.3617 H   0  0  0  0  0  0  0  0  0  0  0  0
   -1.9775    0.1828   -5.4563 H   0  0  0  0  0  0  0  0  0  0  0  0
   -1.8757   -1.4639   -4.8581 H   0  0  0  0  0  0  0  0  0  0  0  0
    0.6086   -1.3963   -5.1023 H   0  0  0  0  0  0  0  0  0  0  0  0
   -0.8636   -3.0265   -7.7464 H   0  0  0  0  0  0  0  0  0  0  0  0
    2.1941   -0.1114   -6.9784 H   0  0  0  0  0  0  0  0  0  0  0  0
    2.4746    0.0009   -5.2408 H   0  0  0  0  0  0  0  0  0  0  0  0
    3.5474    1.8777   -6.4448 H   0  0  0  0  0  0  0  0  0  0  0  0
    1.9994    2.3780   -7.1219 H   0  0  0  0  0  0  0  0  0  0  0  0
    2.2874    2.5008   -5.3804 H   0  0  0  0  0  0  0  0  0  0  0  0
  1  2  2  0
  1  6  1  0
  1 31  1  0
  2  3  1  0
  2 32  1  0
  3  4  2  0
  3  7  1  0
  4  5  1  0
  4  9  1  0
  5  6  2  0
  5 33  1  0
  6 34  1  0
  7  8  2  0
  7 10  1  0
  8  9  1  0
  8 13  1  0
  9 14  1  0
 10 11  2  0
 10 35  1  0
 11 12  1  0
 11 36  1  0
 12 13  2  0
 12 37  1  0
 13 38  1  0
 14 15  1  0
 14 39  1  0
 14 40  1  0
 15 16  1  0
 15 41  1  0
 15 42  1  0
 16 17  1  0
 17 18  2  0
 17 22  1  0
 18 19  1  0
 18 43  1  0
 19 20  2  0
 19 44  1  0
 20 21  1  0
 20 23  1  0
 21 22  2  0
 21 45  1  0
 22 46  1  0
 23 24  1  0
 23 47  1  0
 23 48  1  0
 24 25  1  0
 24 28  1  0
 24 49  1  1
 25 26  1  0
 25 27  2  0
 26 50  1  0
 28 29  1  0
 29 30  1  0
 29 51  1  0
 29 52  1  0
 30 53  1  0
 30 54  1  0
 30 55  1  0
M  END
