
     RDKit          3D

 30 31  0  0  0  0  0  0  0  0999 V2000
    0.0119   -1.7455   -1.4105 Cl  0  0  0  0  0  0  0  0  0  0  0  0
    0.7777   -0.4774   -0.5028 C   0  0  0  0  0  0  0  0  0  0  0  0
    2.1598   -0.4878   -0.4005 C   0  0  0  0  0  0  0  0  0  0  0  0
    2.8121    0.5167    0.3047 C   0  0  0  0  0  0  0  0  0  0  0  0
    4.3113    0.5056    0.4681 C   0  0  0  0  0  0  0  0  0  0  0  0
    4.9826   -0.1699   -0.6256 N   0  0  0  0  0  0  0  0  0  0  0  0
    2.0475    1.5255    0.8831 C   0  0  0  0  0  0  0  0  0  0  0  0
    0.6664    1.5185    0.7752 C   0  0  0  0  0  0  0  0  0  0  0  0
   -0.0047    0.5129    0.0826 C   0  0  0  0  0  0  0  0  0  0  0  0
   -1.4834    0.5384   -0.0257 C   0  0  0  0  0  0  0  0  0  0  0  0
   -2.2761   -0.2926    0.7773 C   0  0  0  0  0  0  0  0  0  0  0  0
   -1.6568   -1.2425    1.7605 C   0  0  0  0  0  0  0  0  0  0  0  0
   -2.0822    1.4266   -0.9136 C   0  0  0  0  0  0  0  0  0  0  0  0
   -3.4640    1.4979   -1.0266 C   0  0  0  0  0  0  0  0  0  0  0  0
   -4.2547    0.6736   -0.2404 C   0  0  0  0  0  0  0  0  0  0  0  0
   -3.6603   -0.2083    0.6524 C   0  0  0  0  0  0  0  0  0  0  0  0
    2.7362   -1.2700   -0.8754 H   0  0  0  0  0  0  0  0  0  0  0  0
    4.6476    1.5378    0.6326 H   0  0  0  0  0  0  0  0  0  0  0  0
    4.5497   -0.0328    1.3903 H   0  0  0  0  0  0  0  0  0  0  0  0
    4.9549    0.4108   -1.4543 H   0  0  0  0  0  0  0  0  0  0  0  0
    5.9608   -0.2855   -0.3964 H   0  0  0  0  0  0  0  0  0  0  0  0
    2.5355    2.3294    1.4210 H   0  0  0  0  0  0  0  0  0  0  0  0
    0.0884    2.3111    1.2336 H   0  0  0  0  0  0  0  0  0  0  0  0
   -0.9986   -0.7238    2.4593 H   0  0  0  0  0  0  0  0  0  0  0  0
   -2.4187   -1.7597    2.3420 H   0  0  0  0  0  0  0  0  0  0  0  0
   -1.0548   -2.0018    1.2590 H   0  0  0  0  0  0  0  0  0  0  0  0
   -1.4558    2.0659   -1.5237 H   0  0  0  0  0  0  0  0  0  0  0  0
   -3.9169    2.1918   -1.7230 H   0  0  0  0  0  0  0  0  0  0  0  0
   -5.3337    0.7180   -0.3165 H   0  0  0  0  0  0  0  0  0  0  0  0
   -4.2859   -0.8424    1.2692 H   0  0  0  0  0  0  0  0  0  0  0  0
 16 15  1  0
 16 11  2  0
 12 11  1  0
 15 14  2  0
 11 10  1  0
 14 13  1  0
 10 13  2  0
 10  9  1  0
  1  2  1  0
  9  2  2  0
  9  8  1  0
  2  3  1  0
  8  7  2  0
  3  4  2  0
  7  4  1  0
  4  5  1  0
  6  5  1  0
  3 17  1  0
  5 18  1  0
  5 19  1  0
  6 20  1  0
  6 21  1  0
  7 22  1  0
  8 23  1  0
 12 24  1  0
 12 25  1  0
 12 26  1  0
 13 27  1  0
 14 28  1  0
 15 29  1  0
 16 30  1  0
M  END
