
     RDKit          3D

 25 25  0  0  0  0  0  0  0  0999 V2000
    0.0402   -0.0305    0.5926 C   0  0  0  0  0  0  0  0  0  0  0  0
    1.2844    0.0648   -0.0263 C   0  0  0  0  0  0  0  0  0  0  0  0
    1.4335    0.0778   -1.4038 C   0  0  0  0  0  0  0  0  0  0  0  0
    0.3144   -0.0090   -2.2277 C   0  0  0  0  0  0  0  0  0  0  0  0
   -0.9347   -0.1076   -1.6292 C   0  0  0  0  0  0  0  0  0  0  0  0
   -1.0803   -0.1214   -0.2433 C   0  0  0  0  0  0  0  0  0  0  0  0
   -0.0460   -0.0479    2.1051 C   0  0  1  0  0  0  0  0  0  0  0  0
    0.4400   -0.0116   -3.7238 C   0  0  0  0  0  0  0  0  0  0  0  0
   -2.3494   -0.2240    0.2135 O   0  0  0  0  0  0  0  0  0  0  0  0
    0.5758   -1.3225    2.6767 C   0  0  0  0  0  0  0  0  0  0  0  0
    0.5805    1.2014    2.7232 C   0  0  0  0  0  0  0  0  0  0  0  0
    2.1717    0.1331    0.5930 H   0  0  0  0  0  0  0  0  0  0  0  0
    2.4232    0.1593   -1.8367 H   0  0  0  0  0  0  0  0  0  0  0  0
   -1.8248   -0.1745   -2.2456 H   0  0  0  0  0  0  0  0  0  0  0  0
   -1.0944   -0.0460    2.4227 H   0  0  0  0  0  0  0  0  0  0  0  0
    0.2354   -1.0023   -4.1345 H   0  0  0  0  0  0  0  0  0  0  0  0
   -0.2688    0.6774   -4.1841 H   0  0  0  0  0  0  0  0  0  0  0  0
    1.4415    0.2756   -4.0412 H   0  0  0  0  0  0  0  0  0  0  0  0
   -2.3755   -0.2022    1.1756 H   0  0  0  0  0  0  0  0  0  0  0  0
    0.4574   -1.3570    3.7610 H   0  0  0  0  0  0  0  0  0  0  0  0
    0.1085   -2.2140    2.2575 H   0  0  0  0  0  0  0  0  0  0  0  0
    1.6442   -1.3730    2.4597 H   0  0  0  0  0  0  0  0  0  0  0  0
    1.6534    1.2507    2.5306 H   0  0  0  0  0  0  0  0  0  0  0  0
    0.1280    2.1103    2.3261 H   0  0  0  0  0  0  0  0  0  0  0  0
    0.4444    1.2006    3.8057 H   0  0  0  0  0  0  0  0  0  0  0  0
  1  2  2  0
  1  6  1  0
  1  7  1  0
  2  3  1  0
  2 12  1  0
  3  4  2  0
  3 13  1  0
  4  5  1  0
  4  8  1  0
  5  6  2  0
  5 14  1  0
  6  9  1  0
  7 10  1  0
  7 11  1  0
  7 15  1  6
  8 16  1  0
  8 17  1  0
  8 18  1  0
  9 19  1  0
 10 20  1  0
 10 21  1  0
 10 22  1  0
 11 23  1  0
 11 24  1  0
 11 25  1  0
M  END
