
     RDKit          3D

 24 24  0  0  0  0  0  0  0  0999 V2000
   -0.8241   -0.7571   -1.4502 C   0  0  1  0  0  0  0  0  0  0  0  0
   -1.2640   -0.6112   -2.7261 O   0  0  0  0  0  0  0  0  0  0  0  0
    0.7013   -0.7571   -1.4502 C   0  0  2  0  0  0  0  0  0  0  0  0
    1.1661   -1.9325   -2.1400 O   0  0  0  0  0  0  0  0  0  0  0  0
    1.2583   -0.7571   -0.0754 C   0  0  1  0  0  0  0  0  0  0  0  0
    2.7004   -0.5967   -0.1538 O   0  0  0  0  0  0  0  0  0  0  0  0
    0.6925    0.3528    0.7610 C   0  0  1  0  0  0  0  0  0  0  0  0
   -0.8407    0.3531    0.7564 C   0  0  2  0  0  0  0  0  0  0  0  0
   -1.3906    0.3549   -0.6088 O   0  0  0  0  0  0  0  0  0  0  0  0
   -1.3272    1.5710    1.4762 C   0  0  0  0  0  0  0  0  0  0  0  0
   -2.7200    1.6584    1.3574 O   0  0  0  0  0  0  0  0  0  0  0  0
    1.2843    0.1493    2.5026 S   0  0  0  0  0  0  0  0  0  0  0  0
   -1.1738   -1.7047   -1.0588 H   0  0  0  0  0  0  0  0  0  0  0  0
   -2.1581   -0.9047   -2.7860 H   0  0  0  0  0  0  0  0  0  0  0  0
    1.0523    0.1255   -1.9711 H   0  0  0  0  0  0  0  0  0  0  0  0
    1.6064   -1.6777   -2.9339 H   0  0  0  0  0  0  0  0  0  0  0  0
    1.0287   -1.7048    0.3966 H   0  0  0  0  0  0  0  0  0  0  0  0
    3.1216   -1.3400    0.2451 H   0  0  0  0  0  0  0  0  0  0  0  0
    1.0450    1.3003    0.3719 H   0  0  0  0  0  0  0  0  0  0  0  0
   -1.1923   -0.5312    1.2739 H   0  0  0  0  0  0  0  0  0  0  0  0
   -1.0577    1.5033    2.5233 H   0  0  0  0  0  0  0  0  0  0  0  0
   -0.8717    2.4530    1.0424 H   0  0  0  0  0  0  0  0  0  0  0  0
   -3.0352    2.3791    1.8772 H   0  0  0  0  0  0  0  0  0  0  0  0
    2.1984    1.0738    2.7703 H   0  0  0  0  0  0  0  0  0  0  0  0
  1  2  1  0
  1  3  1  0
  1  9  1  0
  1 13  1  1
  2 14  1  0
  3  4  1  0
  3  5  1  0
  3 15  1  6
  4 16  1  0
  5  6  1  0
  5  7  1  0
  5 17  1  1
  6 18  1  0
  7  8  1  0
  7 12  1  0
  7 19  1  6
  8  9  1  0
  8 10  1  0
  8 20  1  1
 10 11  1  0
 10 21  1  0
 10 22  1  0
 11 23  1  0
 12 24  1  0
M  END
