
     RDKit          3D

 24 25  0  0  0  0  0  0  0  0999 V2000
   -1.7285    0.6431   -0.9682 N   0  0  0  0  0  0  0  0  0  0  0  0
   -2.9122    0.8707   -0.1365 C   0  0  0  0  0  0  0  0  0  0  0  0
   -3.0993   -0.4051    0.6792 C   0  0  0  0  0  0  0  0  0  0  0  0
   -1.6533   -0.8126    0.9272 C   0  0  0  0  0  0  0  0  0  0  0  0
   -0.9592   -0.4715   -0.4068 C   0  0  2  0  0  0  0  0  0  0  0  0
    0.5058   -0.1626   -0.2163 C   0  0  0  0  0  0  0  0  0  0  0  0
    0.9497    1.1337    0.0300 C   0  0  0  0  0  0  0  0  0  0  0  0
    1.4406   -1.1947   -0.2336 C   0  0  0  0  0  0  0  0  0  0  0  0
    2.7872   -0.9429   -0.0032 C   0  0  0  0  0  0  0  0  0  0  0  0
    3.2192    0.3528    0.2472 C   0  0  0  0  0  0  0  0  0  0  0  0
    2.2943    1.3898    0.2628 C   0  0  0  0  0  0  0  0  0  0  0  0
   -2.0069    0.4200   -1.9122 H   0  0  0  0  0  0  0  0  0  0  0  0
   -2.7438    1.7175    0.5374 H   0  0  0  0  0  0  0  0  0  0  0  0
   -3.7757    1.1207   -0.7542 H   0  0  0  0  0  0  0  0  0  0  0  0
   -3.6676   -0.2497    1.5972 H   0  0  0  0  0  0  0  0  0  0  0  0
   -3.6155   -1.1646    0.0859 H   0  0  0  0  0  0  0  0  0  0  0  0
   -1.2283   -0.2138    1.7377 H   0  0  0  0  0  0  0  0  0  0  0  0
   -1.5245   -1.8615    1.1949 H   0  0  0  0  0  0  0  0  0  0  0  0
   -1.0320   -1.3469   -1.0625 H   0  0  0  0  0  0  0  0  0  0  0  0
    0.2339    1.9458    0.0270 H   0  0  0  0  0  0  0  0  0  0  0  0
    1.1138   -2.2087   -0.4370 H   0  0  0  0  0  0  0  0  0  0  0  0
    3.4996   -1.7577   -0.0249 H   0  0  0  0  0  0  0  0  0  0  0  0
    4.2684    0.5542    0.4214 H   0  0  0  0  0  0  0  0  0  0  0  0
    2.6227    2.4041    0.4525 H   0  0  0  0  0  0  0  0  0  0  0  0
  3  2  1  0
  3  4  1  0
  2  1  1  0
  4  5  1  0
  1  5  1  0
  5  6  1  0
  6  8  1  0
  6  7  2  0
  8  9  2  0
  7 11  1  0
  9 10  1  0
 11 10  2  0
  1 12  1  0
  2 13  1  0
  2 14  1  0
  3 15  1  0
  3 16  1  0
  4 17  1  0
  4 18  1  0
  5 19  1  6
  7 20  1  0
  8 21  1  0
  9 22  1  0
 10 23  1  0
 11 24  1  0
M  END
