
     RDKit          3D

 61 65  0  0  0  0  0  0  0  0999 V2000
   -0.4529    3.9449   -0.4730 C   0  0  0  0  0  0  0  0  0  0  0  0
    0.8828    3.5869   -0.3337 C   0  0  0  0  0  0  0  0  0  0  0  0
    1.1780    2.3560    0.2711 C   0  0  0  0  0  0  0  0  0  0  0  0
    0.1547    1.5333    0.7235 C   0  0  0  0  0  0  0  0  0  0  0  0
   -1.1762    1.8912    0.5385 C   0  0  0  0  0  0  0  0  0  0  0  0
   -1.4782    3.1120   -0.0575 C   0  0  0  0  0  0  0  0  0  0  0  0
   -2.2169    0.9552    1.0588 C   0  0  0  0  0  0  0  0  0  0  0  0
   -4.6099    0.3620    0.7307 C   0  0  0  0  0  0  0  0  0  0  0  0
   -5.6915    0.6218   -0.1143 C   0  0  0  0  0  0  0  0  0  0  0  0
   -6.9132    0.0065    0.0974 C   0  0  0  0  0  0  0  0  0  0  0  0
   -7.0835   -0.8844    1.1514 C   0  0  0  0  0  0  0  0  0  0  0  0
   -6.0092   -1.1369    1.9863 C   0  0  0  0  0  0  0  0  0  0  0  0
   -4.7774   -0.5288    1.7915 C   0  0  0  0  0  0  0  0  0  0  0  0
    1.9724    4.4981   -0.8105 C   0  0  0  0  0  0  0  0  0  0  0  0
    3.1088    0.8055    0.2983 C   0  0  0  0  0  0  0  0  0  0  0  0
    3.0346   -1.3565   -0.1744 C   0  0  0  0  0  0  0  0  0  0  0  0
    4.9915   -0.4279    0.3578 C   0  0  0  0  0  0  0  0  0  0  0  0
    2.7788   -3.7424   -0.7336 C   0  0  0  0  0  0  0  0  0  0  0  0
    0.6736   -3.8294   -1.0620 C   0  0  0  0  0  0  0  0  0  0  0  0
    0.9332   -2.5356   -0.7463 C   0  0  0  0  0  0  0  0  0  0  0  0
    7.1467    0.5936    0.9274 C   0  0  0  0  0  0  0  0  0  0  0  0
    8.3007    0.7098   -0.0541 C   0  0  0  0  0  0  0  0  0  0  0  0
    8.2066   -1.5637   -0.5511 C   0  0  0  0  0  0  0  0  0  0  0  0
    7.0459   -1.7753    0.4068 C   0  0  0  0  0  0  0  0  0  0  0  0
   -8.0494    0.2575   -0.8447 C   0  0  1  0  0  0  0  0  0  0  0  0
   -7.9289    1.4170   -1.4994 F   0  0  0  0  0  0  0  0  0  0  0  0
   -8.1353   -0.7049   -1.7763 F   0  0  0  0  0  0  0  0  0  0  0  0
   -9.2284    0.2838   -0.2128 F   0  0  0  0  0  0  0  0  0  0  0  0
   -3.4259    1.0427    0.4440 N   0  0  0  0  0  0  0  0  0  0  0  0
    2.5260    2.0148    0.4466 N   0  0  0  0  0  0  0  0  0  0  0  0
    2.3544   -0.2348   -0.0635 N   0  0  0  0  0  0  0  0  0  0  0  0
    4.3176   -1.5412    0.0136 N   0  0  0  0  0  0  0  0  0  0  0  0
    4.4159    0.7651    0.5182 N   0  0  0  0  0  0  0  0  0  0  0  0
    2.2935   -2.4815   -0.5340 N   0  0  0  0  0  0  0  0  0  0  0  0
    1.8318   -4.5710   -1.0516 N   0  0  0  0  0  0  0  0  0  0  0  0
    6.3097   -0.5328    0.5559 N   0  0  0  0  0  0  0  0  0  0  0  0
   -1.9703    0.1738    1.9600 O   0  0  0  0  0  0  0  0  0  0  0  0
    9.0300   -0.4941   -0.1441 O   0  0  0  0  0  0  0  0  0  0  0  0
   -0.6973    4.8986   -0.9233 H   0  0  0  0  0  0  0  0  0  0  0  0
    0.3923    0.6056    1.2213 H   0  0  0  0  0  0  0  0  0  0  0  0
   -2.4996    3.4491   -0.1784 H   0  0  0  0  0  0  0  0  0  0  0  0
   -5.5619    1.3193   -0.9328 H   0  0  0  0  0  0  0  0  0  0  0  0
   -8.0314   -1.3742    1.3283 H   0  0  0  0  0  0  0  0  0  0  0  0
   -6.1264   -1.8239    2.8134 H   0  0  0  0  0  0  0  0  0  0  0  0
   -3.9666   -0.7538    2.4635 H   0  0  0  0  0  0  0  0  0  0  0  0
    2.5707    4.8825    0.0195 H   0  0  0  0  0  0  0  0  0  0  0  0
    2.6563    3.9882   -1.4912 H   0  0  0  0  0  0  0  0  0  0  0  0
    1.5586    5.3577   -1.3338 H   0  0  0  0  0  0  0  0  0  0  0  0
   -0.2820   -4.2713   -1.2968 H   0  0  0  0  0  0  0  0  0  0  0  0
    0.3015   -1.6705   -0.6526 H   0  0  0  0  0  0  0  0  0  0  0  0
    7.5287    0.4363    1.9415 H   0  0  0  0  0  0  0  0  0  0  0  0
    6.5609    1.5084    0.9270 H   0  0  0  0  0  0  0  0  0  0  0  0
    7.9101    0.9982   -1.0399 H   0  0  0  0  0  0  0  0  0  0  0  0
    8.9903    1.4870    0.2773 H   0  0  0  0  0  0  0  0  0  0  0  0
    8.8253   -2.4616   -0.5800 H   0  0  0  0  0  0  0  0  0  0  0  0
    7.8147   -1.3887   -1.5629 H   0  0  0  0  0  0  0  0  0  0  0  0
    6.3924   -2.5568    0.0305 H   0  0  0  0  0  0  0  0  0  0  0  0
    7.4199   -2.0865    1.3876 H   0  0  0  0  0  0  0  0  0  0  0  0
   -3.4778    1.6439   -0.3639 H   0  0  0  0  0  0  0  0  0  0  0  0
    3.1747    2.7647    0.6357 H   0  0  0  0  0  0  0  0  0  0  0  0
    3.8262   -3.9747   -0.6303 H   0  0  0  0  0  0  0  0  0  0  0  0
 35 19  1  0
 35 18  2  0
 19 20  2  0
 18 34  1  0
 20 34  1  0
 34 16  1  0
 16 31  2  0
 16 32  1  0
 31 15  1  0
 32 17  2  0
 30 15  1  0
 30  3  1  0
 15 33  2  0
 14  2  1  0
 17 33  1  0
 17 36  1  0
  3  2  1  0
  3  4  2  0
  2  1  2  0
  4  5  1  0
 36 21  1  0
 36 24  1  0
 21 22  1  0
  1  6  1  0
  5  6  2  0
  5  7  1  0
 22 38  1  0
 37  7  2  0
 25 26  1  6
 24 23  1  0
  7 29  1  0
 23 38  1  0
 29  8  1  0
  9  8  2  0
  9 10  1  0
 25 27  1  0
 25 10  1  0
 25 28  1  0
  8 13  1  0
 10 11  2  0
 13 12  2  0
 11 12  1  0
  1 39  1  0
  4 40  1  0
  6 41  1  0
  9 42  1  0
 11 43  1  0
 12 44  1  0
 13 45  1  0
 14 46  1  0
 14 47  1  0
 14 48  1  0
 18 61  1  0
 19 49  1  0
 20 50  1  0
 21 51  1  0
 21 52  1  0
 22 53  1  0
 22 54  1  0
 23 55  1  0
 23 56  1  0
 24 57  1  0
 24 58  1  0
 29 59  1  0
 30 60  1  0
M  END
