
     RDKit          3D

 46 48  0  0  0  0  0  0  0  0999 V2000
    6.5506   -0.8716   -0.6262 C   0  0  0  0  0  0  0  0  0  0  0  0
   -0.4485    0.5469    0.2367 C   0  0  0  0  0  0  0  0  0  0  0  0
    8.1099   -2.1025    0.4791 C   0  0  0  0  0  0  0  0  0  0  0  0
    2.1854    1.2936   -0.3303 C   0  0  0  0  0  0  0  0  0  0  0  0
    5.9454    1.4942   -0.0208 C   0  0  0  0  0  0  0  0  0  0  0  0
    3.5768    1.7128   -0.6757 C   0  0  0  0  0  0  0  0  0  0  0  0
    1.9076    0.0394    0.2112 C   0  0  0  0  0  0  0  0  0  0  0  0
    0.6027   -0.3309    0.4816 C   0  0  0  0  0  0  0  0  0  0  0  0
    6.7459    0.2389    0.1922 C   0  0  0  0  0  0  0  0  0  0  0  0
    8.3850   -1.0635    1.3517 C   0  0  0  0  0  0  0  0  0  0  0  0
    7.6879    0.1267    1.2031 C   0  0  0  0  0  0  0  0  0  0  0  0
    7.2090   -2.0129   -0.4949 N   0  0  0  0  0  0  0  0  0  0  0  0
    4.5337    1.2391    0.1480 N   0  0  0  0  0  0  0  0  0  0  0  0
    3.8076    2.4223   -1.6415 O   0  0  0  0  0  0  0  0  0  0  0  0
   -0.1700    1.7939   -0.3085 C   0  0  0  0  0  0  0  0  0  0  0  0
    1.1345    2.1605   -0.6048 C   0  0  0  0  0  0  0  0  0  0  0  0
   -2.2492   -0.8882   -0.4707 N   0  0  0  0  0  0  0  0  0  0  0  0
   -3.5474   -1.8635   -0.1541 S   0  0  1  0  0  0  0  0  0  0  0  0
   -3.7331   -2.6544   -1.3585 O   0  0  0  0  0  0  0  0  0  0  0  0
   -3.2751   -2.5135    1.1171 O   0  0  0  0  0  0  0  0  0  0  0  0
   -4.9417   -0.8053    0.0569 C   0  0  0  0  0  0  0  0  0  0  0  0
   -5.3337   -0.4273    1.3351 C   0  0  0  0  0  0  0  0  0  0  0  0
   -6.3947    0.4465    1.4927 C   0  0  0  0  0  0  0  0  0  0  0  0
   -7.0397    0.9244    0.3641 C   0  0  0  0  0  0  0  0  0  0  0  0
   -6.6627    0.5481   -0.9137 C   0  0  0  0  0  0  0  0  0  0  0  0
   -5.6032   -0.3258   -1.0688 C   0  0  0  0  0  0  0  0  0  0  0  0
   -8.0593    1.7651    0.5105 F   0  0  0  0  0  0  0  0  0  0  0  0
    5.8178   -0.8295   -1.4265 H   0  0  0  0  0  0  0  0  0  0  0  0
    8.6346   -3.0467    0.5693 H   0  0  0  0  0  0  0  0  0  0  0  0
    6.2806    2.2739    0.6680 H   0  0  0  0  0  0  0  0  0  0  0  0
    6.1002    1.8784   -1.0283 H   0  0  0  0  0  0  0  0  0  0  0  0
    2.7015   -0.6718    0.4008 H   0  0  0  0  0  0  0  0  0  0  0  0
    0.3997   -1.3167    0.8804 H   0  0  0  0  0  0  0  0  0  0  0  0
    9.1242   -1.1846    2.1306 H   0  0  0  0  0  0  0  0  0  0  0  0
    7.8779    0.9562    1.8731 H   0  0  0  0  0  0  0  0  0  0  0  0
    4.2495    0.8315    1.0235 H   0  0  0  0  0  0  0  0  0  0  0  0
   -0.9760    2.4868   -0.5159 H   0  0  0  0  0  0  0  0  0  0  0  0
    1.3337    3.1294   -1.0420 H   0  0  0  0  0  0  0  0  0  0  0  0
   -1.9127   -0.3409    1.5039 H   0  0  0  0  0  0  0  0  0  0  0  0
   -2.5374    0.9745    0.5141 H   0  0  0  0  0  0  0  0  0  0  0  0
   -2.2667   -0.5365   -1.4214 H   0  0  0  0  0  0  0  0  0  0  0  0
   -4.8266   -0.8079    2.2106 H   0  0  0  0  0  0  0  0  0  0  0  0
   -6.7156    0.7502    2.4790 H   0  0  0  0  0  0  0  0  0  0  0  0
   -7.1882    0.9300   -1.7749 H   0  0  0  0  0  0  0  0  0  0  0  0
   -5.3139   -0.6130   -2.0690 H   0  0  0  0  0  0  0  0  0  0  0  0
   -1.8611    0.1139    0.5143 C   0  0  0  0  0  0  0  0  0  0  0  0
  8  7  2  0
  8  2  1  0
  7  4  1  0
 14  6  2  0
 20 18  2  0
 23 22  2  0
 23 24  1  0
 22 21  1  0
 46  2  1  0
 46 17  1  0
  2 15  2  0
  4  6  1  0
  4 16  2  0
  6 13  1  0
 27 24  1  0
 18 17  1  6
 24 25  2  0
 21 18  1  0
 21 26  2  0
 18 19  2  0
 15 16  1  0
 13  5  1  0
  5  9  1  0
  9  1  2  0
  9 11  1  0
 25 26  1  0
  1 12  1  0
 11 10  2  0
 12  3  2  0
 10  3  1  0
  1 28  1  0
  3 29  1  0
  5 30  1  0
  5 31  1  0
  7 32  1  0
  8 33  1  0
 10 34  1  0
 11 35  1  0
 13 36  1  0
 15 37  1  0
 16 38  1  0
 46 39  1  0
 46 40  1  0
 17 41  1  0
 22 42  1  0
 23 43  1  0
 25 44  1  0
 26 45  1  0
M  END
