
     RDKit          3D

 49 52  0  0  0  0  0  0  0  0999 V2000
    0.4608   -0.4717    0.4228 C   0  0  0  0  0  0  0  0  0  0  0  0
   -0.6759   -1.2456    0.2787 C   0  0  0  0  0  0  0  0  0  0  0  0
   -1.9074   -0.5612    0.2916 C   0  0  0  0  0  0  0  0  0  0  0  0
   -1.9402    0.7602    0.4198 N   0  0  0  0  0  0  0  0  0  0  0  0
    0.4336    0.8485    0.5528 N   0  0  0  0  0  0  0  0  0  0  0  0
    3.8737    0.2747   -2.1509 F   0  0  0  0  0  0  0  0  0  0  0  0
    3.0173    1.5955   -0.6991 F   0  0  0  0  0  0  0  0  0  0  0  0
    1.7442    0.3905   -1.9637 F   0  0  0  0  0  0  0  0  0  0  0  0
    2.9198   -0.7183   -0.2431 C   0  0  0  0  0  0  0  0  0  0  0  0
    4.1138   -1.3761   -0.0552 C   0  0  0  0  0  0  0  0  0  0  0  0
    4.1721   -2.4393    0.8611 C   0  0  0  0  0  0  0  0  0  0  0  0
    5.3415   -3.0844    1.1094 N   0  0  0  0  0  0  0  0  0  0  0  0
    3.1039   -2.8394    1.5380 N   0  0  0  0  0  0  0  0  0  0  0  0
    1.9671   -2.1935    1.3453 C   0  0  0  0  0  0  0  0  0  0  0  0
    1.7873   -1.1199    0.4825 C   0  0  0  0  0  0  0  0  0  0  0  0
   -0.7786    1.4074    0.5225 C   0  0  0  0  0  0  0  0  0  0  0  0
   -0.8327    2.7475    0.6175 N   0  0  0  0  0  0  0  0  0  0  0  0
   -2.0636    3.5088    0.5236 C   0  0  0  0  0  0  0  0  0  0  0  0
   -1.5700    4.9367    0.3110 C   0  0  0  0  0  0  0  0  0  0  0  0
   -0.2359    4.9593    1.0511 C   0  0  0  0  0  0  0  0  0  0  0  0
    0.3488    3.5796    0.7652 C   0  0  0  0  0  0  0  0  0  0  0  0
   -3.1053   -1.1967    0.1559 N   0  0  0  0  0  0  0  0  0  0  0  0
   -3.2189   -2.6377    0.2451 C   0  0  0  0  0  0  0  0  0  0  0  0
   -4.4314   -3.1192   -0.5349 C   0  0  0  0  0  0  0  0  0  0  0  0
   -5.6074   -2.4653   -0.1425 O   0  0  0  0  0  0  0  0  0  0  0  0
   -5.4875   -1.0784   -0.3364 C   0  0  0  0  0  0  0  0  0  0  0  0
   -4.3390   -0.4930    0.4615 C   0  0  0  0  0  0  0  0  0  0  0  0
   -0.5887   -2.3123    0.1553 H   0  0  0  0  0  0  0  0  0  0  0  0
    5.0010   -1.1004   -0.6073 H   0  0  0  0  0  0  0  0  0  0  0  0
    6.0995   -2.9956    0.4581 H   0  0  0  0  0  0  0  0  0  0  0  0
    5.2807   -3.9607    1.5968 H   0  0  0  0  0  0  0  0  0  0  0  0
    1.1249   -2.5384    1.9357 H   0  0  0  0  0  0  0  0  0  0  0  0
   -2.6890    3.1498   -0.2942 H   0  0  0  0  0  0  0  0  0  0  0  0
   -2.6551    3.4222    1.4417 H   0  0  0  0  0  0  0  0  0  0  0  0
   -1.4128    5.1234   -0.7537 H   0  0  0  0  0  0  0  0  0  0  0  0
   -2.2795    5.6794    0.6747 H   0  0  0  0  0  0  0  0  0  0  0  0
    0.4241    5.7631    0.7264 H   0  0  0  0  0  0  0  0  0  0  0  0
   -0.4021    5.0839    2.1236 H   0  0  0  0  0  0  0  0  0  0  0  0
    0.9908    3.2162    1.5676 H   0  0  0  0  0  0  0  0  0  0  0  0
    0.9482    3.5749   -0.1501 H   0  0  0  0  0  0  0  0  0  0  0  0
   -2.3416   -3.1185   -0.1827 H   0  0  0  0  0  0  0  0  0  0  0  0
   -3.2926   -2.9577    1.2931 H   0  0  0  0  0  0  0  0  0  0  0  0
   -4.2472   -2.9745   -1.6098 H   0  0  0  0  0  0  0  0  0  0  0  0
   -4.5749   -4.1869   -0.3619 H   0  0  0  0  0  0  0  0  0  0  0  0
   -5.3467   -0.8474   -1.4026 H   0  0  0  0  0  0  0  0  0  0  0  0
   -6.4259   -0.6228   -0.0173 H   0  0  0  0  0  0  0  0  0  0  0  0
   -4.5574   -0.5623    1.5356 H   0  0  0  0  0  0  0  0  0  0  0  0
   -4.2203    0.5600    0.2208 H   0  0  0  0  0  0  0  0  0  0  0  0
    2.8777    0.3939   -1.2611 C   0  0  1  0  0  0  0  0  0  0  0  0
 12 11  1  0
 11 10  1  0
 11 13  2  0
 10  9  2  0
 13 14  1  0
 49  6  1  6
  9 49  1  0
  9 15  1  0
 14 15  2  0
 49  7  1  0
 49  8  1  0
 15  1  1  0
  1  2  2  0
  1  5  1  0
  2  3  1  0
  5 16  2  0
 23 24  1  0
 23 22  1  0
 24 25  1  0
  3 22  1  0
  3  4  2  0
 22 27  1  0
 16  4  1  0
 16 17  1  0
 18 17  1  0
 18 19  1  0
 25 26  1  0
 17 21  1  0
 27 26  1  0
 19 20  1  0
 21 20  1  0
  2 28  1  0
 10 29  1  0
 12 30  1  0
 12 31  1  0
 14 32  1  0
 18 33  1  0
 18 34  1  0
 19 35  1  0
 19 36  1  0
 20 37  1  0
 20 38  1  0
 21 39  1  0
 21 40  1  0
 23 41  1  0
 23 42  1  0
 24 43  1  0
 24 44  1  0
 26 45  1  0
 26 46  1  0
 27 47  1  0
 27 48  1  0
M  END
