
     RDKit          3D

 29 29  0  0  0  0  0  0  0  0999 V2000
   -2.8119   -0.3293   -0.4605 C   0  0  2  0  0  0  0  0  0  0  0  0
   -1.9194   -1.5110   -0.0906 C   0  0  1  0  0  0  0  0  0  0  0  0
   -0.5013   -1.2515   -0.5846 C   0  0  1  0  0  0  0  0  0  0  0  0
    0.0644    0.0407   -0.0057 C   0  0  2  0  0  0  0  0  0  0  0  0
   -0.8394    1.2184   -0.3432 C   0  0  1  0  0  0  0  0  0  0  0  0
   -2.2668    0.9602    0.1400 C   0  0  1  0  0  0  0  0  0  0  0  0
   -4.1060   -0.6207    0.0069 O   0  0  0  0  0  0  0  0  0  0  0  0
   -1.8717   -1.7187    1.2981 O   0  0  0  0  0  0  0  0  0  0  0  0
    0.3624   -2.3190   -0.2311 O   0  0  0  0  0  0  0  0  0  0  0  0
    1.3395    0.2879   -0.6014 O   0  0  0  0  0  0  0  0  0  0  0  0
   -0.3018    2.3681    0.2603 O   0  0  0  0  0  0  0  0  0  0  0  0
   -3.1303    2.0040   -0.2532 O   0  0  0  0  0  0  0  0  0  0  0  0
    2.7032    0.0326    0.2106 P   0  0  1  0  0  0  0  0  0  0  0  0
    2.8552    0.8066    1.4591 O   0  0  0  0  0  0  0  0  0  0  0  0
    2.7947   -1.5408    0.3787 O   0  0  0  0  0  0  0  0  0  0  0  0
    3.7928    0.3221   -0.9175 O   0  0  0  0  0  0  0  0  0  0  0  0
   -2.8076   -0.2319   -1.5580 H   0  0  0  0  0  0  0  0  0  0  0  0
   -2.3016   -2.4033   -0.6101 H   0  0  0  0  0  0  0  0  0  0  0  0
   -0.5373   -1.1453   -1.6759 H   0  0  0  0  0  0  0  0  0  0  0  0
    0.1555   -0.0421    1.0844 H   0  0  0  0  0  0  0  0  0  0  0  0
   -0.8606    1.3263   -1.4373 H   0  0  0  0  0  0  0  0  0  0  0  0
   -2.2553    0.8625    1.2341 H   0  0  0  0  0  0  0  0  0  0  0  0
   -4.6394    0.1793   -0.0604 H   0  0  0  0  0  0  0  0  0  0  0  0
   -2.7773   -1.7899    1.6197 H   0  0  0  0  0  0  0  0  0  0  0  0
    0.2358   -3.0504   -0.8460 H   0  0  0  0  0  0  0  0  0  0  0  0
   -0.4837    3.1260   -0.3017 H   0  0  0  0  0  0  0  0  0  0  0  0
   -3.0193    2.7425    0.3530 H   0  0  0  0  0  0  0  0  0  0  0  0
    1.9490   -1.9945    0.1237 H   0  0  0  0  0  0  0  0  0  0  0  0
    4.1717    1.2096   -0.8716 H   0  0  0  0  0  0  0  0  0  0  0  0
  1  2  1  0
  1  6  1  0
  1  7  1  0
  2  3  1  0
  2  8  1  0
  3  4  1  0
  3  9  1  0
  4 10  1  0
  4  5  1  0
  5  6  1  0
  5 11  1  0
  6 12  1  0
 13 10  1  6
 13 14  2  0
 13 15  1  0
 13 16  1  0
  1 17  1  6
  2 18  1  6
  3 19  1  6
  4 20  1  1
  5 21  1  6
  6 22  1  1
  7 23  1  0
  8 24  1  0
  9 25  1  0
 11 26  1  0
 12 27  1  0
 15 28  1  0
 16 29  1  0
M  END
