
     RDKit          3D

 32 34  0  0  0  0  0  0  0  0999 V2000
   -5.0200    1.4830    0.4599 C   0  0  0  0  0  0  0  0  0  0  0  0
   -4.0829    2.3368   -0.1087 C   0  0  0  0  0  0  0  0  0  0  0  0
   -2.8215    1.8615   -0.4344 C   0  0  0  0  0  0  0  0  0  0  0  0
   -2.4935    0.5312   -0.2072 C   0  0  0  0  0  0  0  0  0  0  0  0
   -3.4416   -0.3319    0.3488 C   0  0  0  0  0  0  0  0  0  0  0  0
   -4.7005    0.1518    0.6812 C   0  0  0  0  0  0  0  0  0  0  0  0
   -0.8718   -1.1419    0.0417 C   0  0  1  0  0  0  0  0  0  0  0  0
    0.3706   -1.6278   -0.6792 C   0  0  0  0  0  0  0  0  0  0  0  0
    4.9014    0.0023    0.6500 C   0  0  0  0  0  0  0  0  0  0  0  0
   -1.2484    0.1037   -0.5319 O   0  0  0  0  0  0  0  0  0  0  0  0
   -2.0168   -2.1260   -0.0905 C   0  0  0  0  0  0  0  0  0  0  0  0
   -3.1657   -1.6383    0.5791 O   0  0  0  0  0  0  0  0  0  0  0  0
    1.4737   -0.7110   -0.5360 N   0  0  0  0  0  0  0  0  0  0  0  0
    2.6328   -1.0342    0.0648 C   0  0  0  0  0  0  0  0  0  0  0  0
    3.6509    0.0249    0.1202 C   0  0  0  0  0  0  0  0  0  0  0  0
    5.4482    1.2957    0.4274 C   0  0  0  0  0  0  0  0  0  0  0  0
    4.4880    2.0015   -0.2199 C   0  0  0  0  0  0  0  0  0  0  0  0
    3.3964    1.2418   -0.4106 O   0  0  0  0  0  0  0  0  0  0  0  0
   -6.0036    1.8468    0.7247 H   0  0  0  0  0  0  0  0  0  0  0  0
   -4.3259    3.3751   -0.2900 H   0  0  0  0  0  0  0  0  0  0  0  0
   -2.0770    2.5179   -0.8680 H   0  0  0  0  0  0  0  0  0  0  0  0
   -5.4253   -0.5263    1.1150 H   0  0  0  0  0  0  0  0  0  0  0  0
   -0.6416   -0.9956    1.1050 H   0  0  0  0  0  0  0  0  0  0  0  0
    0.6599   -2.5898   -0.2603 H   0  0  0  0  0  0  0  0  0  0  0  0
    0.1534   -1.7839   -1.7393 H   0  0  0  0  0  0  0  0  0  0  0  0
   -2.2428   -2.3068   -1.1476 H   0  0  0  0  0  0  0  0  0  0  0  0
   -1.7571   -3.0767    0.3736 H   0  0  0  0  0  0  0  0  0  0  0  0
    1.3577    0.2142   -0.9189 H   0  0  0  0  0  0  0  0  0  0  0  0
    6.4246    1.6526    0.7102 H   0  0  0  0  0  0  0  0  0  0  0  0
    4.4448    3.0125   -0.5915 H   0  0  0  0  0  0  0  0  0  0  0  0
    5.3743   -0.8333    1.1389 H   0  0  0  0  0  0  0  0  0  0  0  0
    2.8749   -2.1307    0.5514 O   0  0  0  0  0  0  0  0  0  0  0  0
 16 17  2  0
 16  9  1  0
 17 18  1  0
  9 15  2  0
 18 15  1  0
 15 14  1  0
  1  6  2  0
  1  2  1  0
  6  5  1  0
 14 13  1  0
 14 32  2  0
 12  5  1  0
 12 11  1  0
  2  3  2  0
  5  4  2  0
 13  8  1  0
 11  7  1  0
  4  3  1  0
  4 10  1  0
 10  7  1  0
  7  8  1  0
  1 19  1  0
  2 20  1  0
  3 21  1  0
  6 22  1  0
  7 23  1  1
  8 24  1  0
  8 25  1  0
  9 31  1  0
 11 26  1  0
 11 27  1  0
 13 28  1  0
 16 29  1  0
 17 30  1  0
M  END
