
     RDKit          3D

 35 36  0  0  0  0  0  0  0  0999 V2000
    3.7435   -0.4800   -0.1736 N   0  0  0  0  0  0  0  0  0  0  0  0
    1.8216   -0.5161   -1.5755 C   0  0  0  0  0  0  0  0  0  0  0  0
    0.4943   -0.2293   -1.8475 C   0  0  0  0  0  0  0  0  0  0  0  0
   -0.2993    0.4446   -0.9271 C   0  0  0  0  0  0  0  0  0  0  0  0
    0.2842    0.8154    0.2797 C   0  0  0  0  0  0  0  0  0  0  0  0
    1.6107    0.5354    0.5723 C   0  0  0  0  0  0  0  0  0  0  0  0
   -2.7155   -0.9505    0.1257 C   0  0  0  0  0  0  0  0  0  0  0  0
   -3.9444    1.0332   -0.3240 C   0  0  0  0  0  0  0  0  0  0  0  0
   -3.6192   -1.2062    1.3158 C   0  0  0  0  0  0  0  0  0  0  0  0
   -4.8177    0.7367    0.8798 C   0  0  0  0  0  0  0  0  0  0  0  0
    4.5408   -0.2915    0.9088 C   0  0  0  0  0  0  0  0  0  0  0  0
    2.3995   -0.1405   -0.3620 C   0  0  0  0  0  0  0  0  0  0  0  0
   -2.6196    0.4757   -0.1258 N   0  0  0  0  0  0  0  0  0  0  0  0
    4.1715    0.2412    1.9413 O   0  0  0  0  0  0  0  0  0  0  0  0
   -4.9019   -0.6493    1.1291 O   0  0  0  0  0  0  0  0  0  0  0  0
    4.1719   -0.9425   -0.9605 H   0  0  0  0  0  0  0  0  0  0  0  0
    2.4127   -1.0482   -2.3122 H   0  0  0  0  0  0  0  0  0  0  0  0
    0.0730   -0.5447   -2.7947 H   0  0  0  0  0  0  0  0  0  0  0  0
   -0.3147    1.3284    1.0221 H   0  0  0  0  0  0  0  0  0  0  0  0
    2.0165    0.8445    1.5210 H   0  0  0  0  0  0  0  0  0  0  0  0
   -3.0974   -1.4926   -0.7576 H   0  0  0  0  0  0  0  0  0  0  0  0
   -4.4261    0.6347   -1.2341 H   0  0  0  0  0  0  0  0  0  0  0  0
   -3.8672    2.1162   -0.4498 H   0  0  0  0  0  0  0  0  0  0  0  0
   -3.7480   -2.2792    1.4656 H   0  0  0  0  0  0  0  0  0  0  0  0
   -3.1492   -0.7934    2.2199 H   0  0  0  0  0  0  0  0  0  0  0  0
   -4.4174    1.2630    1.7583 H   0  0  0  0  0  0  0  0  0  0  0  0
   -5.8318    1.0996    0.7055 H   0  0  0  0  0  0  0  0  0  0  0  0
   -1.7348    0.7820   -1.2301 C   0  0  0  0  0  0  0  0  0  0  0  0
    5.9573   -0.7755    0.7254 C   0  0  0  0  0  0  0  0  0  0  0  0
   -1.7253   -1.3543    0.3480 H   0  0  0  0  0  0  0  0  0  0  0  0
    6.0792   -1.4720   -0.1021 H   0  0  0  0  0  0  0  0  0  0  0  0
    6.6063    0.0826    0.5433 H   0  0  0  0  0  0  0  0  0  0  0  0
    6.2991   -1.2560    1.6402 H   0  0  0  0  0  0  0  0  0  0  0  0
   -1.8173    1.8550   -1.4326 H   0  0  0  0  0  0  0  0  0  0  0  0
   -2.0413    0.2725   -2.1597 H   0  0  0  0  0  0  0  0  0  0  0  0
 10 15  1  0
 10  8  1  0
 15  9  1  0
  8 13  1  0
  9  7  1  0
 13  7  1  0
 13 28  1  0
 28  4  1  0
  3  4  1  0
  3  2  2  0
  4  5  2  0
  2 12  1  0
  5  6  1  0
 12  6  2  0
 12  1  1  0
  1 11  1  0
 11 14  2  0
 11 29  1  0
  1 16  1  0
  2 17  1  0
  3 18  1  0
  5 19  1  0
  6 20  1  0
  7 30  1  0
  7 21  1  0
  8 22  1  0
  8 23  1  0
 29 31  1  0
 29 32  1  0
 29 33  1  0
  9 24  1  0
  9 25  1  0
 10 26  1  0
 10 27  1  0
 28 34  1  0
 28 35  1  0
M  END
