
     RDKit          3D

 45 47  0  0  0  0  0  0  0  0999 V2000
    5.0254   -0.1241   -1.3016 C   0  0  0  0  0  0  0  0  0  0  0  0
    6.3423   -0.5762   -1.2887 C   0  0  0  0  0  0  0  0  0  0  0  0
    7.0863   -0.5670   -0.1184 C   0  0  0  0  0  0  0  0  0  0  0  0
    6.5240   -0.0885    1.0555 C   0  0  0  0  0  0  0  0  0  0  0  0
    5.2112    0.3748    1.0841 C   0  0  0  0  0  0  0  0  0  0  0  0
    4.4802    0.3419   -0.1043 C   0  0  0  0  0  0  0  0  0  0  0  0
    3.1955    0.8190   -0.1075 O   0  0  0  0  0  0  0  0  0  0  0  0
    2.2063   -0.1489    0.2003 C   0  0  0  0  0  0  0  0  0  0  0  0
    4.2214   -0.1081   -2.5690 C   0  0  0  0  0  0  0  0  0  0  0  0
    4.6114    0.9197    2.3476 C   0  0  0  0  0  0  0  0  0  0  0  0
    0.8686    0.5631    0.1245 C   0  0  0  0  0  0  0  0  0  0  0  0
   -0.4129   -0.6218    0.6215 S   0  0  0  0  0  0  0  0  0  0  0  0
   -1.8376    0.2965    0.2304 C   0  0  0  0  0  0  0  0  0  0  0  0
   -3.0664   -0.1769    0.5903 N   0  0  0  0  0  0  0  0  0  0  0  0
   -3.9835    0.7334    0.1145 C   0  0  0  0  0  0  0  0  0  0  0  0
   -3.2163    1.7417   -0.4863 C   0  0  0  0  0  0  0  0  0  0  0  0
   -1.8768    1.4337   -0.3975 N   0  0  0  0  0  0  0  0  0  0  0  0
   -5.3691    0.7743    0.1647 C   0  0  0  0  0  0  0  0  0  0  0  0
   -5.9784    1.8787   -0.4109 C   0  0  0  0  0  0  0  0  0  0  0  0
   -5.2282    2.8981   -1.0113 C   0  0  0  0  0  0  0  0  0  0  0  0
   -3.8448    2.8452   -1.0574 C   0  0  0  0  0  0  0  0  0  0  0  0
   -3.3523   -1.4214    1.2361 C   0  0  0  0  0  0  0  0  0  0  0  0
   -3.3897   -2.5701    0.2476 C   0  0  0  0  0  0  0  0  0  0  0  0
   -3.1952   -2.4517   -0.9315 O   0  0  0  0  0  0  0  0  0  0  0  0
   -3.6591   -3.7063    0.8653 O   0  0  0  0  0  0  0  0  0  0  0  0
    6.7864   -0.9373   -2.2085 H   0  0  0  0  0  0  0  0  0  0  0  0
    8.1086   -0.9224   -0.1230 H   0  0  0  0  0  0  0  0  0  0  0  0
    7.1106   -0.0728    1.9663 H   0  0  0  0  0  0  0  0  0  0  0  0
    2.2347   -0.9804   -0.5128 H   0  0  0  0  0  0  0  0  0  0  0  0
    2.3683   -0.5649    1.2010 H   0  0  0  0  0  0  0  0  0  0  0  0
    3.8419    0.8896   -2.7925 H   0  0  0  0  0  0  0  0  0  0  0  0
    4.8277   -0.4310   -3.4138 H   0  0  0  0  0  0  0  0  0  0  0  0
    3.3581   -0.7740   -2.5165 H   0  0  0  0  0  0  0  0  0  0  0  0
    4.2421    1.9369    2.2131 H   0  0  0  0  0  0  0  0  0  0  0  0
    3.7698    0.3201    2.6982 H   0  0  0  0  0  0  0  0  0  0  0  0
    5.3509    0.9358    3.1466 H   0  0  0  0  0  0  0  0  0  0  0  0
    0.8445    1.4180    0.7997 H   0  0  0  0  0  0  0  0  0  0  0  0
    0.6634    0.9013   -0.8899 H   0  0  0  0  0  0  0  0  0  0  0  0
   -5.9536   -0.0112    0.6258 H   0  0  0  0  0  0  0  0  0  0  0  0
   -7.0576    1.9538   -0.3960 H   0  0  0  0  0  0  0  0  0  0  0  0
   -5.7429    3.7432   -1.4490 H   0  0  0  0  0  0  0  0  0  0  0  0
   -3.2676    3.6340   -1.5222 H   0  0  0  0  0  0  0  0  0  0  0  0
   -2.6108   -1.6257    2.0128 H   0  0  0  0  0  0  0  0  0  0  0  0
   -4.3114   -1.3523    1.7532 H   0  0  0  0  0  0  0  0  0  0  0  0
   -3.6792   -4.4417    0.2339 H   0  0  0  0  0  0  0  0  0  0  0  0
  9  1  1  0
  2  1  2  0
  2  3  1  0
  1  6  1  0
  3  4  2  0
  4  5  1  0
  6  5  2  0
  6  7  1  0
  5 10  1  0
  7  8  1  0
  8 11  1  0
 11 12  1  0
 22 14  1  0
 22 23  1  0
 24 23  2  0
 14 15  1  0
 14 13  1  0
 18 15  2  0
 18 19  1  0
 23 25  1  0
 12 13  1  0
 15 16  1  0
 13 17  2  0
 19 20  2  0
 16 17  1  0
 16 21  2  0
 20 21  1  0
  2 26  1  0
  3 27  1  0
  4 28  1  0
  8 29  1  0
  8 30  1  0
  9 31  1  0
  9 32  1  0
  9 33  1  0
 10 34  1  0
 10 35  1  0
 10 36  1  0
 11 37  1  0
 11 38  1  0
 18 39  1  0
 19 40  1  0
 20 41  1  0
 21 42  1  0
 22 43  1  0
 22 44  1  0
 25 45  1  0
M  END
