
     RDKit          3D

 66 70  0  0  0  0  0  0  0  0999 V2000
    9.3255    3.7789    0.1043 C   0  0  0  0  0  0  0  0  0  0  0  0
  -10.8424   -1.9678    1.8675 O   0  0  0  0  0  0  0  0  0  0  0  0
    7.9578   -3.2553   -0.1111 O   0  0  0  0  0  0  0  0  0  0  0  0
   10.5907    1.7108    0.7821 C   0  0  0  0  0  0  0  0  0  0  0  0
   10.7351    0.3293    0.9272 C   0  0  0  0  0  0  0  0  0  0  0  0
    8.3981    1.4707   -0.2087 C   0  0  0  0  0  0  0  0  0  0  0  0
    0.5870   -0.8339    0.2326 C   0  0  0  0  0  0  0  0  0  0  0  0
   -4.3036   -0.7042   -0.6893 C   0  0  0  0  0  0  0  0  0  0  0  0
   -2.9300   -0.0485   -0.6412 C   0  0  0  0  0  0  0  0  0  0  0  0
   -5.4506    0.2975   -0.6582 C   0  0  0  0  0  0  0  0  0  0  0  0
    3.9638   -0.4350   -0.5495 C   0  0  0  0  0  0  0  0  0  0  0  0
    5.3508   -0.4803    0.0763 C   0  0  0  0  0  0  0  0  0  0  0  0
   -6.8111   -0.3888   -0.6248 C   0  0  0  0  0  0  0  0  0  0  0  0
    2.9286    0.0578    0.4509 C   0  0  0  0  0  0  0  0  0  0  0  0
    6.4000   -0.8908   -0.9481 C   0  0  0  0  0  0  0  0  0  0  0  0
   -9.7354    2.1647    0.2589 C   0  0  0  0  0  0  0  0  0  0  0  0
   -0.0026    0.5313   -1.3803 N   0  0  0  0  0  0  0  0  0  0  0  0
    1.2140    0.8214   -1.0591 N   0  0  0  0  0  0  0  0  0  0  0  0
  -10.9761    0.1401    0.9464 N   0  0  0  0  0  0  0  0  0  0  0  0
   -9.4809   -1.2425    0.1550 N   0  0  0  0  0  0  0  0  0  0  0  0
    9.5586   -1.8003    0.5162 O   0  0  0  0  0  0  0  0  0  0  0  0
   -8.0681    1.6782    0.7705 S   0  0  0  0  0  0  0  0  0  0  0  0
  -10.4768   -1.1156    1.0718 C   0  0  0  0  0  0  0  0  0  0  0  0
    9.4484    2.2872    0.2279 C   0  0  0  0  0  0  0  0  0  0  0  0
   -0.4402   -0.4894   -0.6097 C   0  0  0  0  0  0  0  0  0  0  0  0
    8.3473   -2.1212   -0.0141 C   0  0  0  0  0  0  0  0  0  0  0  0
    9.6874   -0.4409    0.4940 C   0  0  0  0  0  0  0  0  0  0  0  0
    8.5427    0.1077   -0.0636 C   0  0  0  0  0  0  0  0  0  0  0  0
   -7.9858    0.5701   -0.6761 C   0  0  2  0  0  0  0  0  0  0  0  0
    1.5831    0.0094   -0.0888 N   0  0  0  0  0  0  0  0  0  0  0  0
    7.7296   -0.9651   -0.3830 N   0  0  0  0  0  0  0  0  0  0  0  0
  -10.4333    0.8722   -0.1680 C   0  0  2  0  0  0  0  0  0  0  0  0
   -9.3615   -0.1117   -0.7289 C   0  0  2  0  0  0  0  0  0  0  0  0
    9.1107    4.0770   -0.9226 H   0  0  0  0  0  0  0  0  0  0  0  0
    8.5124    4.1590    0.7248 H   0  0  0  0  0  0  0  0  0  0  0  0
   10.2408    4.2812    0.4140 H   0  0  0  0  0  0  0  0  0  0  0  0
   11.3964    2.3528    1.1146 H   0  0  0  0  0  0  0  0  0  0  0  0
   11.6272   -0.1032    1.3589 H   0  0  0  0  0  0  0  0  0  0  0  0
    7.5047    1.9029   -0.6418 H   0  0  0  0  0  0  0  0  0  0  0  0
    0.6761   -1.5801    1.0037 H   0  0  0  0  0  0  0  0  0  0  0  0
   -4.3844   -1.3196   -1.5921 H   0  0  0  0  0  0  0  0  0  0  0  0
   -4.4035   -1.3933    0.1564 H   0  0  0  0  0  0  0  0  0  0  0  0
   -2.8296    0.6646   -1.4643 H   0  0  0  0  0  0  0  0  0  0  0  0
   -2.8333    0.5315    0.2821 H   0  0  0  0  0  0  0  0  0  0  0  0
   -5.3414    0.9458    0.2176 H   0  0  0  0  0  0  0  0  0  0  0  0
   -5.3888    0.9540   -1.5324 H   0  0  0  0  0  0  0  0  0  0  0  0
    3.9668    0.2254   -1.4203 H   0  0  0  0  0  0  0  0  0  0  0  0
    3.6817   -1.4305   -0.9024 H   0  0  0  0  0  0  0  0  0  0  0  0
    5.6037    0.4995    0.4918 H   0  0  0  0  0  0  0  0  0  0  0  0
    5.3608   -1.1885    0.9091 H   0  0  0  0  0  0  0  0  0  0  0  0
   -1.9283   -1.8177    0.0753 H   0  0  0  0  0  0  0  0  0  0  0  0
   -1.8911   -1.6295   -1.6614 H   0  0  0  0  0  0  0  0  0  0  0  0
   -6.8930   -1.0668   -1.4821 H   0  0  0  0  0  0  0  0  0  0  0  0
   -6.8848   -1.0119    0.2706 H   0  0  0  0  0  0  0  0  0  0  0  0
    2.9310   -0.5617    1.3469 H   0  0  0  0  0  0  0  0  0  0  0  0
    3.1408    1.0824    0.7571 H   0  0  0  0  0  0  0  0  0  0  0  0
    6.1632   -1.8674   -1.3690 H   0  0  0  0  0  0  0  0  0  0  0  0
    6.4247   -0.1830   -1.7796 H   0  0  0  0  0  0  0  0  0  0  0  0
  -10.2573    2.6606    1.0765 H   0  0  0  0  0  0  0  0  0  0  0  0
   -9.6743    2.8590   -0.5807 H   0  0  0  0  0  0  0  0  0  0  0  0
  -11.8245    0.4159    1.4107 H   0  0  0  0  0  0  0  0  0  0  0  0
   -9.0960   -2.1447   -0.0664 H   0  0  0  0  0  0  0  0  0  0  0  0
   -7.8968    1.2021   -1.5661 H   0  0  0  0  0  0  0  0  0  0  0  0
  -11.2061    1.0943   -0.9082 H   0  0  0  0  0  0  0  0  0  0  0  0
   -9.5763   -0.3981   -1.7620 H   0  0  0  0  0  0  0  0  0  0  0  0
   -1.8045   -1.0785   -0.7194 C   0  0  0  0  0  0  0  0  0  0  0  0
  1 24  1  0
  2 23  2  0
  3 26  2  0
  4  5  2  0
  4 24  1  0
  5 27  1  0
  6 24  2  0
  6 28  1  0
  7 25  2  0
  7 30  1  0
  8  9  1  0
  8 10  1  0
  9 66  1  0
 10 13  1  0
 11 12  1  0
 11 14  1  0
 12 15  1  0
 66 25  1  0
 13 29  1  0
 14 30  1  0
 15 31  1  0
 16 22  1  0
 16 32  1  0
 17 18  2  0
 17 25  1  0
 18 30  1  0
 19 23  1  0
 19 32  1  0
 20 23  1  0
 20 33  1  0
 21 26  1  0
 21 27  1  0
 22 29  1  0
 26 31  1  0
 27 28  2  0
 28 31  1  0
 29 33  1  0
 32 33  1  0
  1 34  1  0
  1 35  1  0
  1 36  1  0
  4 37  1  0
  5 38  1  0
  6 39  1  0
  7 40  1  0
  8 41  1  0
  8 42  1  0
  9 43  1  0
  9 44  1  0
 10 45  1  0
 10 46  1  0
 11 47  1  0
 11 48  1  0
 12 49  1  0
 12 50  1  0
 66 51  1  0
 66 52  1  0
 13 53  1  0
 13 54  1  0
 14 55  1  0
 14 56  1  0
 15 57  1  0
 15 58  1  0
 16 59  1  0
 16 60  1  0
 19 61  1  0
 20 62  1  0
 29 63  1  6
 32 64  1  6
 33 65  1  6
M  END
