
     RDKit          3D

 42 45  0  0  0  0  0  0  0  0999 V2000
   -1.1743    0.7379    0.1033 N   0  0  0  0  0  0  0  0  0  0  0  0
   -2.2970    2.7923   -0.5941 C   0  0  0  0  0  0  0  0  0  0  0  0
   -1.0511    3.1562   -1.2064 C   0  0  0  0  0  0  0  0  0  0  0  0
    5.1812    0.5835    1.2377 C   0  0  2  0  0  0  0  0  0  0  0  0
    2.3243    0.7879   -0.1828 C   0  0  0  0  0  0  0  0  0  0  0  0
   -3.1143   -1.4731   -0.0255 C   0  0  0  0  0  0  0  0  0  0  0  0
    3.3873   -0.0950   -0.1006 C   0  0  0  0  0  0  0  0  0  0  0  0
    0.8356   -1.1009   -0.4108 C   0  0  0  0  0  0  0  0  0  0  0  0
    3.2085   -1.4647   -0.1694 C   0  0  0  0  0  0  0  0  0  0  0  0
   -2.9728   -1.3795   -1.4035 C   0  0  0  0  0  0  0  0  0  0  0  0
   -2.1117   -3.6487   -0.0510 C   0  0  0  0  0  0  0  0  0  0  0  0
   -2.2431    1.4662    0.0411 C   0  0  0  0  0  0  0  0  0  0  0  0
   -3.4381    0.9121    0.6709 C   0  0  0  0  0  0  0  0  0  0  0  0
   -3.7278   -0.4181    0.6949 N   0  0  0  0  0  0  0  0  0  0  0  0
   -0.0587    1.1544   -0.4619 N   0  0  0  0  0  0  0  0  0  0  0  0
   -4.8054   -0.6828    1.4297 N   0  0  0  0  0  0  0  0  0  0  0  0
    0.0185    2.3313   -1.1268 C   0  0  0  0  0  0  0  0  0  0  0  0
   -4.4048    1.5291    1.4355 C   0  0  0  0  0  0  0  0  0  0  0  0
    1.0490    0.2699   -0.3517 C   0  0  0  0  0  0  0  0  0  0  0  0
   -5.2179    0.4822    1.8890 C   0  0  0  0  0  0  0  0  0  0  0  0
   -3.3106    3.4828   -0.5988 O   0  0  0  0  0  0  0  0  0  0  0  0
    4.4391    1.3832    2.0042 F   0  0  0  0  0  0  0  0  0  0  0  0
    5.3105   -0.5702    1.8938 F   0  0  0  0  0  0  0  0  0  0  0  0
    6.3801    1.1247    1.1039 F   0  0  0  0  0  0  0  0  0  0  0  0
    1.9194   -1.9573   -0.3197 C   0  0  0  0  0  0  0  0  0  0  0  0
   -2.6897   -2.6040    0.6564 C   0  0  0  0  0  0  0  0  0  0  0  0
   -2.3825   -2.4231   -2.1010 C   0  0  0  0  0  0  0  0  0  0  0  0
   -1.9520   -3.5596   -1.4278 C   0  0  0  0  0  0  0  0  0  0  0  0
   -0.9668    4.0841   -1.7546 H   0  0  0  0  0  0  0  0  0  0  0  0
    2.4955    1.8534   -0.1078 H   0  0  0  0  0  0  0  0  0  0  0  0
   -0.1632   -1.4929   -0.5398 H   0  0  0  0  0  0  0  0  0  0  0  0
    4.0532   -2.1380   -0.1239 H   0  0  0  0  0  0  0  0  0  0  0  0
   -3.3278   -0.5036   -1.9313 H   0  0  0  0  0  0  0  0  0  0  0  0
   -1.7764   -4.5307    0.4782 H   0  0  0  0  0  0  0  0  0  0  0  0
    0.9615    2.5600   -1.6013 H   0  0  0  0  0  0  0  0  0  0  0  0
   -4.4886    2.5775    1.6610 H   0  0  0  0  0  0  0  0  0  0  0  0
   -6.0882    0.5388    2.5242 H   0  0  0  0  0  0  0  0  0  0  0  0
    1.7612   -3.0254   -0.3775 H   0  0  0  0  0  0  0  0  0  0  0  0
   -2.8050   -2.6650    1.7305 H   0  0  0  0  0  0  0  0  0  0  0  0
   -2.2694   -2.3503   -3.1744 H   0  0  0  0  0  0  0  0  0  0  0  0
   -1.4945   -4.3739   -1.9736 H   0  0  0  0  0  0  0  0  0  0  0  0
    4.6681    0.4263    0.0087 O   0  0  0  0  0  0  0  0  0  0  0  0
 42  7  1  0
 42  4  1  0
  4 22  1  1
 24  4  1  0
  7  9  1  0
  7  5  2  0
  9 25  2  0
  4 23  1  0
  5 19  1  0
 25  8  1  0
 17  3  2  0
 17 15  1  0
 19  8  2  0
 19 15  1  0
  3  2  1  0
 15  1  1  0
 27 28  1  0
 27 10  2  0
 28 11  2  0
  2 21  2  0
  2 12  1  0
  1 12  2  0
 10  6  1  0
 12 13  1  0
 11 26  1  0
  6 26  2  0
  6 14  1  0
 13 14  1  0
 13 18  2  0
 14 16  1  0
 18 20  1  0
 16 20  2  0
  3 29  1  0
  5 30  1  0
  8 31  1  0
  9 32  1  0
 10 33  1  0
 11 34  1  0
 17 35  1  0
 18 36  1  0
 20 37  1  0
 25 38  1  0
 26 39  1  0
 27 40  1  0
 28 41  1  0
M  END
