
     RDKit          3D

 40 42  0  0  0  0  0  0  0  0999 V2000
    2.4772   -1.9469   -0.0340 C   0  0  0  0  0  0  0  0  0  0  0  0
    3.6364   -1.2421   -0.0229 C   0  0  0  0  0  0  0  0  0  0  0  0
    3.6278    0.1935    0.0083 C   0  0  0  0  0  0  0  0  0  0  0  0
    2.3888    0.8501    0.0226 C   0  0  0  0  0  0  0  0  0  0  0  0
   -2.3776    0.8513    0.0296 C   0  0  0  0  0  0  0  0  0  0  0  0
   -3.6169    0.1954    0.0111 C   0  0  0  0  0  0  0  0  0  0  0  0
   -3.6260   -1.2401   -0.0229 C   0  0  0  0  0  0  0  0  0  0  0  0
   -2.4671   -1.9452   -0.0345 C   0  0  0  0  0  0  0  0  0  0  0  0
    0.0049   -1.9802   -0.0304 C   0  0  0  0  0  0  0  0  0  0  0  0
    0.0060    0.7485    0.0290 N   0  0  0  0  0  0  0  0  0  0  0  0
    1.2097    0.1197    0.0122 C   0  0  0  0  0  0  0  0  0  0  0  0
   -1.2052   -1.2998   -0.0165 C   0  0  0  0  0  0  0  0  0  0  0  0
    1.2155   -1.3011   -0.0171 C   0  0  0  0  0  0  0  0  0  0  0  0
   -1.1985    0.1210    0.0151 C   0  0  0  0  0  0  0  0  0  0  0  0
    4.7842    0.8780    0.0230 N   0  0  0  0  0  0  0  0  0  0  0  0
    6.0589    0.1859   -0.0062 C   0  0  0  0  0  0  0  0  0  0  0  0
    4.7667    2.3262    0.0470 C   0  0  0  0  0  0  0  0  0  0  0  0
   -4.7731    0.8803    0.0239 N   0  0  0  0  0  0  0  0  0  0  0  0
   -6.0478    0.1885   -0.0124 C   0  0  0  0  0  0  0  0  0  0  0  0
   -4.7550    2.3284    0.0567 C   0  0  0  0  0  0  0  0  0  0  0  0
    2.5066   -3.0287   -0.0568 H   0  0  0  0  0  0  0  0  0  0  0  0
    4.5711   -1.7824   -0.0381 H   0  0  0  0  0  0  0  0  0  0  0  0
    2.3238    1.9288    0.0401 H   0  0  0  0  0  0  0  0  0  0  0  0
   -2.3140    1.9298    0.0522 H   0  0  0  0  0  0  0  0  0  0  0  0
   -4.5609   -1.7797   -0.0405 H   0  0  0  0  0  0  0  0  0  0  0  0
   -2.4968   -3.0270   -0.0591 H   0  0  0  0  0  0  0  0  0  0  0  0
    0.0043   -3.0641   -0.0531 H   0  0  0  0  0  0  0  0  0  0  0  0
    0.0079    1.7597    0.0525 H   0  0  0  0  0  0  0  0  0  0  0  0
    6.8603    0.9159    0.0344 H   0  0  0  0  0  0  0  0  0  0  0  0
    6.1754   -0.4828    0.8481 H   0  0  0  0  0  0  0  0  0  0  0  0
    6.1833   -0.3969   -0.9207 H   0  0  0  0  0  0  0  0  0  0  0  0
    5.7859    2.6982    0.0633 H   0  0  0  0  0  0  0  0  0  0  0  0
    4.2714    2.7377   -0.8355 H   0  0  0  0  0  0  0  0  0  0  0  0
    4.2554    2.7060    0.9343 H   0  0  0  0  0  0  0  0  0  0  0  0
   -6.1771   -0.4680    0.8498 H   0  0  0  0  0  0  0  0  0  0  0  0
   -6.8490    0.9196    0.0052 H   0  0  0  0  0  0  0  0  0  0  0  0
   -6.1594   -0.4072   -0.9201 H   0  0  0  0  0  0  0  0  0  0  0  0
   -4.2572    2.7451   -0.8219 H   0  0  0  0  0  0  0  0  0  0  0  0
   -5.7741    2.7008    0.0723 H   0  0  0  0  0  0  0  0  0  0  0  0
   -4.2462    2.7027    0.9477 H   0  0  0  0  0  0  0  0  0  0  0  0
  1  2  2  0
  1 13  1  0
  1 21  1  0
  2  3  1  0
  2 22  1  0
  3  4  2  0
  3 15  1  0
  4 11  1  0
  4 23  1  0
  5  6  1  0
  5 14  2  0
  5 24  1  0
  6  7  2  0
  6 18  1  0
  7  8  1  0
  7 25  1  0
  8 12  2  0
  8 26  1  0
  9 12  1  0
  9 13  2  0
  9 27  1  0
 10 11  2  0
 10 14  1  0
 10 28  1  0
 11 13  1  0
 12 14  1  0
 15 16  1  0
 15 17  1  0
 16 29  1  0
 16 30  1  0
 16 31  1  0
 17 32  1  0
 17 33  1  0
 17 34  1  0
 18 19  1  0
 18 20  1  0
 19 35  1  0
 19 36  1  0
 19 37  1  0
 20 38  1  0
 20 39  1  0
 20 40  1  0
M  CHG  1  10   1
M  END
