
     RDKit          3D

 40 42  0  0  0  0  0  0  0  0999 V2000
   -3.7146    0.5936    0.9599 C   0  0  0  0  0  0  0  0  0  0  0  0
   -4.6319    0.0166    0.0847 C   0  0  0  0  0  0  0  0  0  0  0  0
   -4.1663   -0.6428   -1.0480 C   0  0  0  0  0  0  0  0  0  0  0  0
   -2.8023   -0.7205   -1.2895 C   0  0  0  0  0  0  0  0  0  0  0  0
   -1.8676   -0.1534   -0.4275 C   0  0  0  0  0  0  0  0  0  0  0  0
   -2.3551    0.5061    0.6992 C   0  0  0  0  0  0  0  0  0  0  0  0
   -5.9665    0.0690    0.2872 O   0  0  0  0  0  0  0  0  0  0  0  0
   -0.3895   -0.2478   -0.7123 C   0  0  2  0  0  0  0  0  0  0  0  0
    0.3742   -0.9802    0.4034 C   0  0  0  0  0  0  0  0  0  0  0  0
    1.8506   -1.0045    0.0641 C   0  0  1  0  0  0  0  0  0  0  0  0
    2.4545    0.3933   -0.1205 C   0  0  2  0  0  0  0  0  0  0  0  0
    1.7240    1.0908   -1.2649 C   0  0  0  0  0  0  0  0  0  0  0  0
    0.2141    1.1328   -1.0155 C   0  0  0  0  0  0  0  0  0  0  0  0
    2.8280   -1.7144    0.9997 C   0  0  0  0  0  0  0  0  0  0  0  0
    4.2033   -1.1296    0.6036 C   0  0  0  0  0  0  0  0  0  0  0  0
    3.9058    0.0003   -0.4106 C   0  0  2  0  0  0  0  0  0  0  0  0
    4.7755    1.1036   -0.3383 O   0  0  0  0  0  0  0  0  0  0  0  0
    2.3818    1.2395    1.1543 C   0  0  0  0  0  0  0  0  0  0  0  0
   -4.0590    1.1106    1.8489 H   0  0  0  0  0  0  0  0  0  0  0  0
   -4.8698   -1.0936   -1.7375 H   0  0  0  0  0  0  0  0  0  0  0  0
   -2.4593   -1.2375   -2.1787 H   0  0  0  0  0  0  0  0  0  0  0  0
   -1.6670    0.9686    1.3981 H   0  0  0  0  0  0  0  0  0  0  0  0
   -6.1616    0.5514    1.0979 H   0  0  0  0  0  0  0  0  0  0  0  0
   -0.2751   -0.8559   -1.6183 H   0  0  0  0  0  0  0  0  0  0  0  0
    0.2024   -0.5031    1.3735 H   0  0  0  0  0  0  0  0  0  0  0  0
   -0.0121   -2.0000    0.4934 H   0  0  0  0  0  0  0  0  0  0  0  0
    1.9331   -1.5037   -0.9134 H   0  0  0  0  0  0  0  0  0  0  0  0
    2.0995    2.1081   -1.4107 H   0  0  0  0  0  0  0  0  0  0  0  0
    1.9267    0.5484   -2.1960 H   0  0  0  0  0  0  0  0  0  0  0  0
   -0.2904    1.5525   -1.8900 H   0  0  0  0  0  0  0  0  0  0  0  0
   -0.0035    1.8186   -0.1914 H   0  0  0  0  0  0  0  0  0  0  0  0
    2.5962   -1.4985    2.0454 H   0  0  0  0  0  0  0  0  0  0  0  0
    2.7832   -2.7985    0.8854 H   0  0  0  0  0  0  0  0  0  0  0  0
    4.7292   -0.7241    1.4708 H   0  0  0  0  0  0  0  0  0  0  0  0
    4.8578   -1.8861    0.1669 H   0  0  0  0  0  0  0  0  0  0  0  0
    3.9314   -0.4280   -1.4251 H   0  0  0  0  0  0  0  0  0  0  0  0
    5.6579    0.8078   -0.5801 H   0  0  0  0  0  0  0  0  0  0  0  0
    2.9031    0.7806    1.9953 H   0  0  0  0  0  0  0  0  0  0  0  0
    2.8282    2.2208    0.9884 H   0  0  0  0  0  0  0  0  0  0  0  0
    1.3538    1.4097    1.4734 H   0  0  0  0  0  0  0  0  0  0  0  0
 17 16  1  0
 15 16  1  0
 15 14  1  0
 16 11  1  0
 11 18  1  1
 14 10  1  0
 11 10  1  0
 11 12  1  0
 10  9  1  0
 12 13  1  0
  9  8  1  0
 13  8  1  0
  8  5  1  0
  6  5  1  0
  6  1  2  0
  5  4  2  0
  1  2  1  0
  4  3  1  0
  2  3  2  0
  2  7  1  0
  1 19  1  0
  3 20  1  0
  4 21  1  0
  6 22  1  0
  7 23  1  0
  8 24  1  6
  9 25  1  0
  9 26  1  0
 10 27  1  6
 12 28  1  0
 12 29  1  0
 13 30  1  0
 13 31  1  0
 14 32  1  0
 14 33  1  0
 15 34  1  0
 15 35  1  0
 16 36  1  6
 17 37  1  0
 18 38  1  0
 18 39  1  0
 18 40  1  0
M  END
