
     RDKit          3D

 45 48  0  0  0  0  0  0  0  0999 V2000
    1.5173    0.0866   -2.5194 C   0  0  0  0  0  0  0  0  0  0  0  0
    0.3529    0.5725   -1.7173 C   0  0  1  0  0  0  0  0  0  0  0  0
    1.7036    0.2389    0.4649 C   0  0  0  0  0  0  0  0  0  0  0  0
    1.7537   -0.3660    1.8716 C   0  0  0  0  0  0  0  0  0  0  0  0
    0.5223    0.0362    2.6643 C   0  0  1  0  0  0  0  0  0  0  0  0
   -0.7359   -0.3765    1.8925 C   0  0  1  0  0  0  0  0  0  0  0  0
   -1.8613   -0.2584    2.9217 C   0  0  0  0  0  0  0  0  0  0  0  0
   -1.2057   -0.8104    4.1956 C   0  0  0  0  0  0  0  0  0  0  0  0
    0.2950   -0.6731    3.9816 C   0  0  0  0  0  0  0  0  0  0  0  0
    0.5525    1.5344    3.0203 C   0  0  0  0  0  0  0  0  0  0  0  0
    0.4611    2.1120   -1.6733 C   0  0  0  0  0  0  0  0  0  0  0  0
    1.4260   -0.6069   -3.6550 C   0  0  0  0  0  0  0  0  0  0  0  0
    0.1256   -0.9700   -4.2220 C   0  0  0  0  0  0  0  0  0  0  0  0
   -1.0458   -0.5201   -3.4776 C   0  0  0  0  0  0  0  0  0  0  0  0
   -0.9629    0.1838   -2.3393 C   0  0  0  0  0  0  0  0  0  0  0  0
   -2.1889    0.5623   -1.5752 C   0  0  0  0  0  0  0  0  0  0  0  0
   -2.1356   -0.0547   -0.1777 C   0  0  0  0  0  0  0  0  0  0  0  0
   -0.8489    0.3179    0.5465 C   0  0  2  0  0  0  0  0  0  0  0  0
    0.3965   -0.0622   -0.2835 C   0  0  1  0  0  0  0  0  0  0  0  0
    0.0286   -1.6123   -5.2600 O   0  0  0  0  0  0  0  0  0  0  0  0
    1.1511   -1.0638    4.7384 O   0  0  0  0  0  0  0  0  0  0  0  0
    2.5008    0.3571   -2.1529 H   0  0  0  0  0  0  0  0  0  0  0  0
    1.8552    1.3191    0.5262 H   0  0  0  0  0  0  0  0  0  0  0  0
    2.5535   -0.1529   -0.0959 H   0  0  0  0  0  0  0  0  0  0  0  0
    2.6718   -0.0464    2.3702 H   0  0  0  0  0  0  0  0  0  0  0  0
    1.7986   -1.4571    1.7961 H   0  0  0  0  0  0  0  0  0  0  0  0
   -0.6266   -1.4517    1.6796 H   0  0  0  0  0  0  0  0  0  0  0  0
   -2.1741    0.7798    3.0552 H   0  0  0  0  0  0  0  0  0  0  0  0
   -2.7471   -0.8253    2.6361 H   0  0  0  0  0  0  0  0  0  0  0  0
   -1.5128   -0.3057    5.1138 H   0  0  0  0  0  0  0  0  0  0  0  0
   -1.4324   -1.8712    4.3335 H   0  0  0  0  0  0  0  0  0  0  0  0
    0.5825    2.1623    2.1312 H   0  0  0  0  0  0  0  0  0  0  0  0
   -0.3153    1.8480    3.6018 H   0  0  0  0  0  0  0  0  0  0  0  0
    1.4417    1.7588    3.6113 H   0  0  0  0  0  0  0  0  0  0  0  0
    0.2585    2.5327   -2.6586 H   0  0  0  0  0  0  0  0  0  0  0  0
   -0.2435    2.5537   -0.9707 H   0  0  0  0  0  0  0  0  0  0  0  0
    1.4624    2.4274   -1.3815 H   0  0  0  0  0  0  0  0  0  0  0  0
    2.3154   -0.9111   -4.1943 H   0  0  0  0  0  0  0  0  0  0  0  0
   -2.0170   -0.7867   -3.8815 H   0  0  0  0  0  0  0  0  0  0  0  0
   -3.0820    0.2294   -2.1057 H   0  0  0  0  0  0  0  0  0  0  0  0
   -2.2596    1.6512   -1.4880 H   0  0  0  0  0  0  0  0  0  0  0  0
   -2.2148   -1.1443   -0.2588 H   0  0  0  0  0  0  0  0  0  0  0  0
   -3.0009    0.2835    0.3964 H   0  0  0  0  0  0  0  0  0  0  0  0
   -0.8599    1.4025    0.7064 H   0  0  0  0  0  0  0  0  0  0  0  0
    0.3490   -1.1494   -0.4381 H   0  0  0  0  0  0  0  0  0  0  0  0
  1  2  1  0
  1 12  2  0
  1 22  1  0
  2 11  1  1
  2 15  1  0
  2 19  1  0
  3  4  1  0
  3 19  1  0
  3 23  1  0
  3 24  1  0
  4  5  1  0
  4 25  1  0
  4 26  1  0
  5  6  1  0
  5  9  1  0
  5 10  1  1
  6  7  1  0
  6 18  1  0
  6 27  1  6
  7  8  1  0
  7 28  1  0
  7 29  1  0
  8  9  1  0
  8 30  1  0
  8 31  1  0
  9 21  2  0
 10 32  1  0
 10 33  1  0
 10 34  1  0
 11 35  1  0
 11 36  1  0
 11 37  1  0
 12 13  1  0
 12 38  1  0
 13 14  1  0
 13 20  2  0
 14 15  2  0
 14 39  1  0
 15 16  1  0
 16 17  1  0
 16 40  1  0
 16 41  1  0
 17 18  1  0
 17 42  1  0
 17 43  1  0
 18 19  1  0
 18 44  1  1
 19 45  1  6
M  END
