
     RDKit          3D

 33 34  0  0  0  0  0  0  0  0999 V2000
    1.9824   -0.0507    6.6556 N   0  0  0  0  0  0  0  0  0  0  0  0
   -0.2339    0.0682    7.2309 N   0  0  0  0  0  0  0  0  0  0  0  0
    0.7574    0.0109    6.2941 C   0  0  0  0  0  0  0  0  0  0  0  0
    0.2861   -0.0199    4.8841 C   0  0  0  0  0  0  0  0  0  0  0  0
    1.0540    0.5519    3.8734 C   0  0  0  0  0  0  0  0  0  0  0  0
    0.6509    0.5318    2.5489 C   0  0  0  0  0  0  0  0  0  0  0  0
   -0.5486   -0.0917    2.1982 C   0  0  0  0  0  0  0  0  0  0  0  0
   -1.3248   -0.6668    3.2075 C   0  0  0  0  0  0  0  0  0  0  0  0
   -0.9194   -0.6220    4.5278 C   0  0  0  0  0  0  0  0  0  0  0  0
   -1.0544   -0.1401    0.9019 N   0  0  0  0  0  0  0  0  0  0  0  0
   -0.3472   -0.0456   -0.2681 C   0  0  0  0  0  0  0  0  0  0  0  0
    0.8604    0.0877   -0.3227 O   0  0  0  0  0  0  0  0  0  0  0  0
   -1.1562   -0.1232   -1.3710 N   0  0  0  0  0  0  0  0  0  0  0  0
   -0.7414   -0.0382   -2.7016 C   0  0  0  0  0  0  0  0  0  0  0  0
    0.4941   -0.5025   -3.1539 C   0  0  0  0  0  0  0  0  0  0  0  0
    0.8220   -0.4130   -4.4982 C   0  0  0  0  0  0  0  0  0  0  0  0
   -0.0811    0.1240   -5.4004 C   0  0  0  0  0  0  0  0  0  0  0  0
   -1.3190    0.5741   -4.9710 C   0  0  0  0  0  0  0  0  0  0  0  0
   -1.6391    0.4962   -3.6267 C   0  0  0  0  0  0  0  0  0  0  0  0
    0.3374    0.2255   -7.0803 Cl  0  0  0  0  0  0  0  0  0  0  0  0
    2.5861   -0.2056    5.8568 H   0  0  0  0  0  0  0  0  0  0  0  0
    0.0697    0.2139    8.1810 H   0  0  0  0  0  0  0  0  0  0  0  0
   -1.0801    0.5585    6.9927 H   0  0  0  0  0  0  0  0  0  0  0  0
    1.9802    1.0570    4.1182 H   0  0  0  0  0  0  0  0  0  0  0  0
    1.2664    1.0155    1.8080 H   0  0  0  0  0  0  0  0  0  0  0  0
   -2.2552   -1.1600    2.9534 H   0  0  0  0  0  0  0  0  0  0  0  0
   -1.5436   -1.0882    5.2793 H   0  0  0  0  0  0  0  0  0  0  0  0
   -2.0257   -0.4039    0.8354 H   0  0  0  0  0  0  0  0  0  0  0  0
   -2.1522   -0.0443   -1.2281 H   0  0  0  0  0  0  0  0  0  0  0  0
    1.2062   -0.9470   -2.4769 H   0  0  0  0  0  0  0  0  0  0  0  0
    1.7825   -0.7779   -4.8356 H   0  0  0  0  0  0  0  0  0  0  0  0
   -2.0308    0.9910   -5.6704 H   0  0  0  0  0  0  0  0  0  0  0  0
   -2.6036    0.8605   -3.2947 H   0  0  0  0  0  0  0  0  0  0  0  0
  1  3  2  0
  1 21  1  0
  2  3  1  0
  2 22  1  0
  2 23  1  0
  3  4  1  0
  4  5  2  0
  4  9  1  0
  5  6  1  0
  5 24  1  0
  6  7  2  0
  6 25  1  0
  7  8  1  0
  7 10  1  0
  8  9  2  0
  8 26  1  0
  9 27  1  0
 10 11  1  0
 10 28  1  0
 11 12  2  0
 11 13  1  0
 13 14  1  0
 13 29  1  0
 14 15  2  0
 14 19  1  0
 15 16  1  0
 15 30  1  0
 16 17  2  0
 16 31  1  0
 17 18  1  0
 17 20  1  0
 18 19  2  0
 18 32  1  0
 19 33  1  0
M  END
