
     RDKit          3D

 42 41  0  0  0  0  0  0  0  0999 V2000
    0.1665    2.6573   -0.2466 C   0  0  0  0  0  0  0  0  0  0  0  0
    0.4192    3.8459    0.6459 C   0  0  0  0  0  0  0  0  0  0  0  0
    0.1613    0.1854   -0.2959 C   0  0  1  0  0  0  0  0  0  0  0  0
    1.3668   -0.6844    0.1052 C   0  0  2  0  0  0  0  0  0  0  0  0
    2.7016    0.0369   -0.1307 C   0  0  1  0  0  0  0  0  0  0  0  0
    3.9067   -0.8303    0.2747 C   0  0  1  0  0  0  0  0  0  0  0  0
    5.2064   -0.0528    0.1320 C   0  0  0  0  0  0  0  0  0  0  0  0
   -1.1722   -0.5277   -0.0269 C   0  0  2  0  0  0  0  0  0  0  0  0
   -2.3487    0.2617   -0.6130 C   0  0  0  0  0  0  0  0  0  0  0  0
   -3.6400   -0.4610   -0.3958 C   0  0  0  0  0  0  0  0  0  0  0  0
   -4.4400   -0.1323    0.8179 C   0  0  0  0  0  0  0  0  0  0  0  0
    0.2175    1.4611    0.3806 N   0  0  0  0  0  0  0  0  0  0  0  0
   -4.1313   -1.3683   -1.1424 N   0  0  0  0  0  0  0  0  0  0  0  0
   -0.0416    2.7740   -1.4440 O   0  0  0  0  0  0  0  0  0  0  0  0
    1.3196   -1.9283   -0.5576 O   0  0  0  0  0  0  0  0  0  0  0  0
    2.8214    0.4958   -1.4604 O   0  0  0  0  0  0  0  0  0  0  0  0
    3.7506   -1.3457    1.5764 O   0  0  0  0  0  0  0  0  0  0  0  0
   -1.3611   -0.8035    1.3418 O   0  0  0  0  0  0  0  0  0  0  0  0
   -5.5239   -0.8741    0.9634 O   0  0  0  0  0  0  0  0  0  0  0  0
   -4.1163    0.7387    1.5891 O   0  0  0  0  0  0  0  0  0  0  0  0
   -3.3775   -1.6533   -2.2190 O   0  0  0  0  0  0  0  0  0  0  0  0
    1.4828    4.0911    0.6202 H   0  0  0  0  0  0  0  0  0  0  0  0
   -0.1300    4.7112    0.2821 H   0  0  0  0  0  0  0  0  0  0  0  0
    0.1463    3.6637    1.6841 H   0  0  0  0  0  0  0  0  0  0  0  0
    0.2207    0.3841   -1.3686 H   0  0  0  0  0  0  0  0  0  0  0  0
    1.2904   -0.9107    1.1719 H   0  0  0  0  0  0  0  0  0  0  0  0
    2.7108    0.9366    0.4948 H   0  0  0  0  0  0  0  0  0  0  0  0
    3.9469   -1.7034   -0.3869 H   0  0  0  0  0  0  0  0  0  0  0  0
    5.2762    0.3549   -0.8819 H   0  0  0  0  0  0  0  0  0  0  0  0
    5.1826    0.8081    0.8186 H   0  0  0  0  0  0  0  0  0  0  0  0
   -1.1347   -1.4996   -0.5219 H   0  0  0  0  0  0  0  0  0  0  0  0
   -2.4058    1.2507   -0.1565 H   0  0  0  0  0  0  0  0  0  0  0  0
   -2.1770    0.4143   -1.6792 H   0  0  0  0  0  0  0  0  0  0  0  0
    0.4148    1.4613    1.3694 H   0  0  0  0  0  0  0  0  0  0  0  0
    1.2297   -1.7797   -1.5053 H   0  0  0  0  0  0  0  0  0  0  0  0
    3.0244   -0.2472   -2.0392 H   0  0  0  0  0  0  0  0  0  0  0  0
    3.7773   -0.6125    2.2015 H   0  0  0  0  0  0  0  0  0  0  0  0
    7.0979   -0.4203    0.2929 H   0  0  0  0  0  0  0  0  0  0  0  0
   -1.5460    0.0213    1.8042 H   0  0  0  0  0  0  0  0  0  0  0  0
   -5.9952   -0.6003    1.7644 H   0  0  0  0  0  0  0  0  0  0  0  0
   -3.8726   -2.3329   -2.6914 H   0  0  0  0  0  0  0  0  0  0  0  0
    6.2830   -0.9139    0.4194 O   0  0  0  0  0  0  0  0  0  0  0  0
 21 13  1  0
 13 10  2  0
  2  1  1  0
 20 11  2  0
 10 11  1  0
 10  9  1  0
 14  1  2  0
  1 12  1  0
 11 19  1  0
  9  8  1  0
 12  3  1  0
 18  8  1  0
  8  3  1  0
  3  4  1  0
  4  5  1  0
  4 15  1  0
 16  5  1  0
  5  6  1  0
 17  6  1  0
  6  7  1  0
  7 42  1  0
  2 22  1  0
  2 23  1  0
  2 24  1  0
  3 25  1  6
  4 26  1  1
  5 27  1  1
  6 28  1  6
  7 29  1  0
  7 30  1  0
  8 31  1  6
  9 32  1  0
  9 33  1  0
 12 34  1  0
 15 35  1  0
 16 36  1  0
 17 37  1  0
 42 38  1  0
 18 39  1  0
 19 40  1  0
 21 41  1  0
M  END
