
     RDKit          3D

 29 29  0  0  0  0  0  0  0  0999 V2000
    2.6598    0.9515    0.5021 O   0  0  0  0  0  0  0  0  0  0  0  0
    1.2728    0.7625    0.5580 C   0  0  1  0  0  0  0  0  0  0  0  0
    0.5618    1.3524   -0.6578 C   0  0  2  0  0  0  0  0  0  0  0  0
    0.7641    2.7449   -0.6008 O   0  0  0  0  0  0  0  0  0  0  0  0
   -0.9360    1.0274   -0.6263 C   0  0  2  0  0  0  0  0  0  0  0  0
   -1.5602    1.6242    0.4784 O   0  0  0  0  0  0  0  0  0  0  0  0
   -1.1434   -0.4769   -0.5629 C   0  0  2  0  0  0  0  0  0  0  0  0
   -2.5888   -0.9538   -0.5241 C   0  0  0  0  0  0  0  0  0  0  0  0
   -3.1585   -0.6847    0.7313 O   0  0  0  0  0  0  0  0  0  0  0  0
   -0.4241   -1.0239    0.6277 N   0  0  0  0  0  0  0  0  0  0  0  0
    1.0437   -0.7440    0.6773 C   0  0  1  0  0  0  0  0  0  0  0  0
    1.7528   -1.5895   -0.3714 C   0  0  0  0  0  0  0  0  0  0  0  0
    1.3169   -2.9140   -0.1795 O   0  0  0  0  0  0  0  0  0  0  0  0
    2.8328    1.8991    0.4944 H   0  0  0  0  0  0  0  0  0  0  0  0
    0.8535    1.2318    1.4594 H   0  0  0  0  0  0  0  0  0  0  0  0
    0.9917    0.9303   -1.5755 H   0  0  0  0  0  0  0  0  0  0  0  0
    1.3630   -1.0767    1.6668 H   0  0  0  0  0  0  0  0  0  0  0  0
    0.6406    3.1166   -1.4802 H   0  0  0  0  0  0  0  0  0  0  0  0
   -1.3826    1.3632   -1.5737 H   0  0  0  0  0  0  0  0  0  0  0  0
   -1.2893    2.5499    0.5026 H   0  0  0  0  0  0  0  0  0  0  0  0
   -0.6848   -0.9182   -1.4494 H   0  0  0  0  0  0  0  0  0  0  0  0
   -3.1224   -0.4577   -1.3434 H   0  0  0  0  0  0  0  0  0  0  0  0
   -2.5979   -2.0261   -0.7458 H   0  0  0  0  0  0  0  0  0  0  0  0
   -0.8779   -0.6733    1.4753 H   0  0  0  0  0  0  0  0  0  0  0  0
   -0.5405   -2.0411    0.6586 H   0  0  0  0  0  0  0  0  0  0  0  0
   -3.8095   -1.3659    0.9205 H   0  0  0  0  0  0  0  0  0  0  0  0
    1.5368   -1.2381   -1.3859 H   0  0  0  0  0  0  0  0  0  0  0  0
    2.8295   -1.4820   -0.2172 H   0  0  0  0  0  0  0  0  0  0  0  0
    1.6097   -3.4498   -0.9224 H   0  0  0  0  0  0  0  0  0  0  0  0
  1  2  1  0
  2  3  1  0
  2 11  1  0
  3  4  1  0
  3  5  1  0
  5  6  1  0
  5  7  1  0
  7  8  1  0
  7 10  1  0
  8  9  1  0
 10 11  1  0
 11 12  1  0
 12 13  1  0
  1 14  1  0
  2 15  1  1
  3 16  1  6
 11 17  1  1
  4 18  1  0
  5 19  1  6
  6 20  1  0
  7 21  1  6
  8 22  1  0
  8 23  1  0
 10 24  1  0
 10 25  1  0
  9 26  1  0
 12 27  1  0
 12 28  1  0
 13 29  1  0
M  CHG  1  10   1
M  END
