
     RDKit          3D

 34 36  0  0  0  0  0  0  0  0999 V2000
   -1.3200   -0.3827   -0.2168 N   0  0  0  0  0  0  0  0  0  0  0  0
   -0.1162   -0.9687   -0.0896 C   0  0  0  0  0  0  0  0  0  0  0  0
    0.9468   -0.1558   -0.0869 N   0  0  0  0  0  0  0  0  0  0  0  0
    2.2899   -2.0842    0.2261 C   0  0  0  0  0  0  0  0  0  0  0  0
    5.6570    0.5567   -0.1700 N   0  0  0  0  0  0  0  0  0  0  0  0
    2.1410   -0.7060    0.0668 C   0  0  0  0  0  0  0  0  0  0  0  0
    3.2946    0.2154    0.0770 C   0  0  0  0  0  0  0  0  0  0  0  0
   -3.7342   -0.1862   -0.1812 C   0  0  0  0  0  0  0  0  0  0  0  0
   -4.6527   -0.0194   -1.2112 C   0  0  0  0  0  0  0  0  0  0  0  0
   -5.7424    0.8306   -1.0584 C   0  0  0  0  0  0  0  0  0  0  0  0
   -2.5605   -1.1146   -0.3408 C   0  0  0  0  0  0  0  0  0  0  0  0
   -0.0761   -2.2999    0.0285 N   0  0  0  0  0  0  0  0  0  0  0  0
    1.1260   -2.8295    0.1901 C   0  0  0  0  0  0  0  0  0  0  0  0
    3.1240    1.5742    0.3337 C   0  0  0  0  0  0  0  0  0  0  0  0
    4.2322    2.4015    0.3464 C   0  0  0  0  0  0  0  0  0  0  0  0
    5.4782    1.8461    0.0922 C   0  0  0  0  0  0  0  0  0  0  0  0
    4.5911   -0.2310   -0.1751 C   0  0  0  0  0  0  0  0  0  0  0  0
   -5.9204    1.5261    0.1286 C   0  0  0  0  0  0  0  0  0  0  0  0
   -5.0044    1.3680    1.1629 C   0  0  0  0  0  0  0  0  0  0  0  0
   -3.9200    0.5174    1.0084 C   0  0  0  0  0  0  0  0  0  0  0  0
   -1.3229    0.6065   -0.4058 H   0  0  0  0  0  0  0  0  0  0  0  0
    3.2460   -2.5593    0.3833 H   0  0  0  0  0  0  0  0  0  0  0  0
   -4.5169   -0.5565   -2.1425 H   0  0  0  0  0  0  0  0  0  0  0  0
   -6.4480    0.9511   -1.8703 H   0  0  0  0  0  0  0  0  0  0  0  0
   -2.6210   -1.6305   -1.3049 H   0  0  0  0  0  0  0  0  0  0  0  0
   -2.5946   -1.8893    0.4280 H   0  0  0  0  0  0  0  0  0  0  0  0
    1.1666   -3.9081    0.2978 H   0  0  0  0  0  0  0  0  0  0  0  0
    2.1362    1.9690    0.5296 H   0  0  0  0  0  0  0  0  0  0  0  0
    4.1382    3.4592    0.5500 H   0  0  0  0  0  0  0  0  0  0  0  0
    6.3661    2.4683    0.1002 H   0  0  0  0  0  0  0  0  0  0  0  0
    4.7779   -1.2736   -0.4080 H   0  0  0  0  0  0  0  0  0  0  0  0
   -6.7672    2.1893    0.2492 H   0  0  0  0  0  0  0  0  0  0  0  0
   -5.1385    1.9054    2.0931 H   0  0  0  0  0  0  0  0  0  0  0  0
   -3.2136    0.3963    1.8213 H   0  0  0  0  0  0  0  0  0  0  0  0
 13 12  2  0
 13  4  1  0
 12  2  1  0
  4  6  2  0
  2  1  1  0
  2  3  2  0
  1 11  1  0
  6  3  1  0
  6  7  1  0
 20 19  2  0
 20  8  1  0
 11  8  1  0
 19 18  1  0
 14  7  2  0
 14 15  1  0
  7 17  1  0
  8  9  2  0
 15 16  2  0
 17  5  2  0
 18 10  2  0
  9 10  1  0
 16  5  1  0
  1 21  1  0
  4 22  1  0
  9 23  1  0
 10 24  1  0
 11 25  1  0
 11 26  1  0
 13 27  1  0
 14 28  1  0
 15 29  1  0
 16 30  1  0
 17 31  1  0
 18 32  1  0
 19 33  1  0
 20 34  1  0
M  END
