
     RDKit          3D

 44 47  0  0  0  0  0  0  0  0999 V2000
   -0.7744   -2.7551    0.0089 C   0  0  0  0  0  0  0  0  0  0  0  0
   -1.4327   -3.9785    0.2862 C   0  0  0  0  0  0  0  0  0  0  0  0
   -3.3959   -3.0413   -0.7958 C   0  0  0  0  0  0  0  0  0  0  0  0
   -2.7326   -4.0985   -0.1211 C   0  0  0  0  0  0  0  0  0  0  0  0
    0.5984   -1.1212   -0.1955 C   0  0  0  0  0  0  0  0  0  0  0  0
    1.8547   -0.3890   -0.0279 C   0  0  0  0  0  0  0  0  0  0  0  0
    2.8501   -0.9072    0.8028 C   0  0  0  0  0  0  0  0  0  0  0  0
    4.0500   -0.2444    0.9953 C   0  0  0  0  0  0  0  0  0  0  0  0
    2.1145    0.8250   -0.6698 C   0  0  0  0  0  0  0  0  0  0  0  0
    3.3103    1.4960   -0.4864 C   0  0  0  0  0  0  0  0  0  0  0  0
   -1.3349    1.6148   -0.6984 C   0  0  0  0  0  0  0  0  0  0  0  0
   -1.4416    1.6259    0.6916 C   0  0  0  0  0  0  0  0  0  0  0  0
   -1.6031    2.7968   -1.3944 C   0  0  0  0  0  0  0  0  0  0  0  0
   -1.9696    3.9456   -0.7148 C   0  0  0  0  0  0  0  0  0  0  0  0
   -2.0816    3.9716    0.6750 C   0  0  0  0  0  0  0  0  0  0  0  0
   -2.4989    5.2192    1.3996 C   0  0  0  0  0  0  0  0  0  0  0  0
    4.2894    0.9673    0.3518 C   0  0  0  0  0  0  0  0  0  0  0  0
   -0.5733   -0.7010   -0.7979 C   0  0  0  0  0  0  0  0  0  0  0  0
   -0.9681    0.4757   -1.3995 N   0  0  0  0  0  0  0  0  0  0  0  0
   -1.8079    2.7893    1.3547 C   0  0  0  0  0  0  0  0  0  0  0  0
    0.4584   -2.3797    0.2941 N   0  0  0  0  0  0  0  0  0  0  0  0
   -1.4505   -1.7588   -0.6554 N   0  0  0  0  0  0  0  0  0  0  0  0
   -2.7456   -1.8805   -1.0580 C   0  0  0  0  0  0  0  0  0  0  0  0
   -0.6832   -5.0537    1.0021 C   0  0  0  0  0  0  0  0  0  0  0  0
   -4.4235   -3.1533   -1.1090 H   0  0  0  0  0  0  0  0  0  0  0  0
   -3.2707   -5.0174    0.0738 H   0  0  0  0  0  0  0  0  0  0  0  0
    2.6824   -1.8469    1.3117 H   0  0  0  0  0  0  0  0  0  0  0  0
    4.7997   -0.6739    1.6503 H   0  0  0  0  0  0  0  0  0  0  0  0
    1.3830    1.2605   -1.3351 H   0  0  0  0  0  0  0  0  0  0  0  0
    3.4879    2.4353   -0.9950 H   0  0  0  0  0  0  0  0  0  0  0  0
   -1.2332    0.7303    1.2635 H   0  0  0  0  0  0  0  0  0  0  0  0
   -1.5211    2.8153   -2.4753 H   0  0  0  0  0  0  0  0  0  0  0  0
   -2.1694    4.8455   -1.2858 H   0  0  0  0  0  0  0  0  0  0  0  0
   -3.5689    5.4079    1.2880 H   0  0  0  0  0  0  0  0  0  0  0  0
   -2.2927    5.1470    2.4672 H   0  0  0  0  0  0  0  0  0  0  0  0
   -1.9782    6.0989    1.0193 H   0  0  0  0  0  0  0  0  0  0  0  0
    6.0335    1.1950    1.0965 H   0  0  0  0  0  0  0  0  0  0  0  0
   -0.8855    0.5562   -2.4014 H   0  0  0  0  0  0  0  0  0  0  0  0
   -1.8786    2.7674    2.4363 H   0  0  0  0  0  0  0  0  0  0  0  0
   -3.1803   -1.0352   -1.5698 H   0  0  0  0  0  0  0  0  0  0  0  0
   -0.3662   -4.7194    1.9912 H   0  0  0  0  0  0  0  0  0  0  0  0
   -1.2976   -5.9438    1.1239 H   0  0  0  0  0  0  0  0  0  0  0  0
    0.2201   -5.3328    0.4578 H   0  0  0  0  0  0  0  0  0  0  0  0
    5.4340    1.6602    0.5023 O   0  0  0  0  0  0  0  0  0  0  0  0
 12 20  2  0
 12 11  1  0
 20 15  1  0
 23  3  2  0
 23 22  1  0
 19 11  1  0
 19 18  1  0
  3  4  1  0
 11 13  2  0
 15 16  1  0
 15 14  2  0
 22 18  1  0
 22  1  1  0
 18  5  2  0
  4  2  2  0
 13 14  1  0
  1  2  1  0
  1 21  2  0
  2 24  1  0
  5 21  1  0
  5  6  1  0
  6  7  2  0
  6  9  1  0
  7  8  1  0
  9 10  2  0
  8 17  2  0
 10 17  1  0
 17 44  1  0
  3 25  1  0
  4 26  1  0
  7 27  1  0
  8 28  1  0
  9 29  1  0
 10 30  1  0
 12 31  1  0
 13 32  1  0
 14 33  1  0
 16 34  1  0
 16 35  1  0
 16 36  1  0
 44 37  1  0
 19 38  1  0
 20 39  1  0
 23 40  1  0
 24 41  1  0
 24 42  1  0
 24 43  1  0
M  END
