
     RDKit          3D

 45 47  0  0  0  0  0  0  0  0999 V2000
   -3.4016    1.8108    0.7423 N   0  0  0  0  0  0  0  0  0  0  0  0
   -3.9392    0.5980    0.4083 C   0  0  0  0  0  0  0  0  0  0  0  0
   -3.2528   -0.3414   -0.3022 C   0  0  0  0  0  0  0  0  0  0  0  0
   -3.8210   -1.6894   -0.6401 C   0  0  0  0  0  0  0  0  0  0  0  0
   -5.0639   -2.0107    0.1790 C   0  0  0  0  0  0  0  0  0  0  0  0
   -6.0097   -0.8193    0.2108 C   0  0  0  0  0  0  0  0  0  0  0  0
   -5.3394    0.3660    0.8900 C   0  0  0  0  0  0  0  0  0  0  0  0
   -1.9154   -0.0479   -0.7525 C   0  0  0  0  0  0  0  0  0  0  0  0
   -2.2029    2.0561    0.3476 C   0  0  0  0  0  0  0  0  0  0  0  0
   -1.4485    1.2135   -0.3875 N   0  0  0  0  0  0  0  0  0  0  0  0
   -0.0876    1.5593   -0.7221 C   0  0  0  0  0  0  0  0  0  0  0  0
    0.9087    0.9049    0.2180 C   0  0  0  0  0  0  0  0  0  0  0  0
    0.5394    0.2333    1.1474 O   0  0  0  0  0  0  0  0  0  0  0  0
    2.3504    1.2306   -0.0665 C   0  0  0  0  0  0  0  0  0  0  0  0
    3.3241    0.1764    0.4365 C   0  0  2  0  0  0  0  0  0  0  0  0
    4.7690    0.6821    0.4501 C   0  0  2  0  0  0  0  0  0  0  0  0
    5.0935    1.0927   -0.8637 O   0  0  0  0  0  0  0  0  0  0  0  0
    5.6926   -0.4295    0.9458 C   0  0  0  0  0  0  0  0  0  0  0  0
    5.5027   -1.7156    0.1477 C   0  0  0  0  0  0  0  0  0  0  0  0
    4.0282   -2.1094    0.1281 C   0  0  0  0  0  0  0  0  0  0  0  0
    3.1465   -1.0463   -0.3311 N   0  0  0  0  0  0  0  0  0  0  0  0
   -4.0583   -1.7238   -1.7090 H   0  0  0  0  0  0  0  0  0  0  0  0
   -3.0578   -2.4549   -0.4838 H   0  0  0  0  0  0  0  0  0  0  0  0
   -5.5600   -2.8891   -0.2372 H   0  0  0  0  0  0  0  0  0  0  0  0
   -4.7722   -2.2679    1.2019 H   0  0  0  0  0  0  0  0  0  0  0  0
   -6.2914   -0.5472   -0.8109 H   0  0  0  0  0  0  0  0  0  0  0  0
   -6.9339   -1.0704    0.7340 H   0  0  0  0  0  0  0  0  0  0  0  0
   -5.3010    0.2070    1.9734 H   0  0  0  0  0  0  0  0  0  0  0  0
   -5.9154    1.2828    0.7440 H   0  0  0  0  0  0  0  0  0  0  0  0
   -1.7424    3.0055    0.5966 H   0  0  0  0  0  0  0  0  0  0  0  0
    0.1328    1.2736   -1.7507 H   0  0  0  0  0  0  0  0  0  0  0  0
    0.0355    2.6436   -0.6685 H   0  0  0  0  0  0  0  0  0  0  0  0
    2.4830    1.4115   -1.1364 H   0  0  0  0  0  0  0  0  0  0  0  0
    2.5489    2.1959    0.4161 H   0  0  0  0  0  0  0  0  0  0  0  0
    3.0740   -0.0551    1.4781 H   0  0  0  0  0  0  0  0  0  0  0  0
    4.8306    1.5311    1.1474 H   0  0  0  0  0  0  0  0  0  0  0  0
    6.0182    1.3573   -0.8780 H   0  0  0  0  0  0  0  0  0  0  0  0
    6.7342   -0.0951    0.9135 H   0  0  0  0  0  0  0  0  0  0  0  0
    5.4639   -0.6167    2.0003 H   0  0  0  0  0  0  0  0  0  0  0  0
    5.8586   -1.5790   -0.8777 H   0  0  0  0  0  0  0  0  0  0  0  0
    6.1002   -2.5225    0.5797 H   0  0  0  0  0  0  0  0  0  0  0  0
    3.8717   -2.9884   -0.5006 H   0  0  0  0  0  0  0  0  0  0  0  0
    3.7176   -2.3866    1.1420 H   0  0  0  0  0  0  0  0  0  0  0  0
    3.3465   -0.8545   -1.3070 H   0  0  0  0  0  0  0  0  0  0  0  0
   -1.2071   -0.7982   -1.4086 O   0  0  0  0  0  0  0  0  0  0  0  0
 19 18  1  0
 19 20  1  0
 18 16  1  0
 16 17  1  0
 16 15  1  0
 20 21  1  0
 15 21  1  0
 15 14  1  0
 14 12  1  0
 12 13  2  0
 12 11  1  0
 11 10  1  0
 10  9  1  0
 10  8  1  0
 45  8  2  0
  9  1  2  0
  8  3  1  0
  1  2  1  0
  3  2  2  0
  3  4  1  0
  2  7  1  0
  4  5  1  0
  7  6  1  0
  5  6  1  0
  4 22  1  0
  4 23  1  0
  5 24  1  0
  5 25  1  0
  6 26  1  0
  6 27  1  0
  7 28  1  0
  7 29  1  0
  9 30  1  0
 11 31  1  0
 11 32  1  0
 14 33  1  0
 14 34  1  0
 15 35  1  1
 16 36  1  1
 17 37  1  0
 18 38  1  0
 18 39  1  0
 19 40  1  0
 19 41  1  0
 20 42  1  0
 20 43  1  0
 21 44  1  0
M  END
