
     RDKit          3D

 41 44  0  0  0  0  0  0  0  0999 V2000
    4.7211   -3.0620   -0.1831 O   0  0  0  0  0  0  0  0  0  0  0  0
    4.9843   -1.8715   -0.1005 C   0  0  0  0  0  0  0  0  0  0  0  0
    6.2955   -1.4488   -0.0621 N   0  0  0  0  0  0  0  0  0  0  0  0
    6.6735   -0.1359    0.0247 C   0  0  0  0  0  0  0  0  0  0  0  0
    8.0029    0.0968    0.0919 N   0  0  0  0  0  0  0  0  0  0  0  0
    4.0181   -0.7942   -0.0321 C   0  0  0  0  0  0  0  0  0  0  0  0
    4.4891    0.5374    0.0658 C   0  0  0  0  0  0  0  0  0  0  0  0
    5.8285    0.8395    0.0856 N   0  0  0  0  0  0  0  0  0  0  0  0
    2.6462   -1.0896   -0.0649 C   0  0  0  0  0  0  0  0  0  0  0  0
    1.7803   -0.0339    0.0047 C   0  0  0  0  0  0  0  0  0  0  0  0
    2.2198    1.3112    0.1083 C   0  0  0  0  0  0  0  0  0  0  0  0
    3.5743    1.5948    0.1384 C   0  0  0  0  0  0  0  0  0  0  0  0
    0.4032    0.0546   -0.0046 N   0  0  0  0  0  0  0  0  0  0  0  0
    0.0898    1.3749    0.0870 C   0  0  0  0  0  0  0  0  0  0  0  0
    1.1491    2.1580    0.1593 N   0  0  0  0  0  0  0  0  0  0  0  0
   -1.1746    1.8166    0.0760 N   0  0  0  0  0  0  0  0  0  0  0  0
   -2.3315    0.9514    0.1410 C   0  0  0  0  0  0  0  0  0  0  0  0
   -3.6006    1.7690   -0.0762 C   0  0  0  0  0  0  0  0  0  0  0  0
   -4.8166    0.8898   -0.0452 C   0  0  0  0  0  0  0  0  0  0  0  0
   -5.4179    0.5536    1.1666 C   0  0  0  0  0  0  0  0  0  0  0  0
   -6.5237   -0.2764    1.2056 C   0  0  0  0  0  0  0  0  0  0  0  0
   -7.0422   -0.7846    0.0146 C   0  0  0  0  0  0  0  0  0  0  0  0
   -8.1870   -1.6353    0.0440 C   0  0  0  0  0  0  0  0  0  0  0  0
   -9.1123   -2.3221    0.0674 N   0  0  0  0  0  0  0  0  0  0  0  0
   -6.4503   -0.4602   -1.2056 C   0  0  0  0  0  0  0  0  0  0  0  0
   -5.3442    0.3704   -1.2254 C   0  0  0  0  0  0  0  0  0  0  0  0
    7.0046   -2.1698   -0.0910 H   0  0  0  0  0  0  0  0  0  0  0  0
    8.6461   -0.5918   -0.2623 H   0  0  0  0  0  0  0  0  0  0  0  0
    8.2902    1.0524   -0.0400 H   0  0  0  0  0  0  0  0  0  0  0  0
    2.3040   -2.1132   -0.1435 H   0  0  0  0  0  0  0  0  0  0  0  0
    3.9350    2.6127    0.2140 H   0  0  0  0  0  0  0  0  0  0  0  0
   -0.2411   -0.7183   -0.0428 H   0  0  0  0  0  0  0  0  0  0  0  0
   -1.2935    2.7908    0.3048 H   0  0  0  0  0  0  0  0  0  0  0  0
   -2.2610    0.1888   -0.6394 H   0  0  0  0  0  0  0  0  0  0  0  0
   -2.3863    0.4287    1.1029 H   0  0  0  0  0  0  0  0  0  0  0  0
   -3.6760    2.5327    0.7019 H   0  0  0  0  0  0  0  0  0  0  0  0
   -3.5359    2.2865   -1.0355 H   0  0  0  0  0  0  0  0  0  0  0  0
   -5.0219    0.9509    2.0929 H   0  0  0  0  0  0  0  0  0  0  0  0
   -6.9866   -0.5252    2.1509 H   0  0  0  0  0  0  0  0  0  0  0  0
   -6.8559   -0.8513   -2.1287 H   0  0  0  0  0  0  0  0  0  0  0  0
   -4.8893    0.6234   -2.1747 H   0  0  0  0  0  0  0  0  0  0  0  0
 24 23  3  0
 23 22  1  0
 22 25  2  0
 22 21  1  0
 25 26  1  0
 21 20  2  0
 26 19  2  0
 20 19  1  0
 19 18  1  0
 18 17  1  0
 17 16  1  0
 16 14  1  0
 14 15  2  0
 14 13  1  0
 15 11  1  0
 13 10  1  0
 11 10  2  0
 11 12  1  0
 10  9  1  0
 12  7  2  0
  9  6  2  0
  7  6  1  0
  7  8  1  0
  6  2  1  0
  8  4  2  0
  2  1  2  0
  2  3  1  0
  4  3  1  0
  4  5  1  0
  3 27  1  0
  5 28  1  0
  5 29  1  0
  9 30  1  0
 12 31  1  0
 13 32  1  0
 16 33  1  0
 17 34  1  0
 17 35  1  0
 18 36  1  0
 18 37  1  0
 20 38  1  0
 21 39  1  0
 25 40  1  0
 26 41  1  0
M  END
