
     RDKit          3D

 34 34  0  0  0  0  0  0  0  0999 V2000
   -3.7266    0.0065    0.2450 N   0  0  0  0  0  0  0  0  0  0  0  0
    0.3926    0.0262   -0.6537 C   0  0  0  0  0  0  0  0  0  0  0  0
   -0.3927   -1.0995   -0.8720 C   0  0  0  0  0  0  0  0  0  0  0  0
   -1.7475   -1.1211   -0.5779 C   0  0  0  0  0  0  0  0  0  0  0  0
   -2.3889    0.0104   -0.0418 C   0  0  0  0  0  0  0  0  0  0  0  0
   -1.5907    1.1500    0.1833 C   0  0  0  0  0  0  0  0  0  0  0  0
   -4.3342    1.1585    0.8650 C   0  0  0  0  0  0  0  0  0  0  0  0
   -4.4892   -1.2071    0.0867 C   0  0  0  0  0  0  0  0  0  0  0  0
   -0.2396    1.1435   -0.1139 C   0  0  0  0  0  0  0  0  0  0  0  0
    2.6281   -0.0796    0.3019 N   0  0  0  0  0  0  0  0  0  0  0  0
    4.0646   -0.2480    0.1100 C   0  0  1  0  0  0  0  0  0  0  0  0
    4.6958    1.0375   -0.4109 C   0  0  0  0  0  0  0  0  0  0  0  0
    4.6938   -0.6510    1.4361 C   0  0  0  0  0  0  0  0  0  0  0  0
    0.0607   -1.9944   -1.2842 H   0  0  0  0  0  0  0  0  0  0  0  0
   -2.3018   -2.0290   -0.7726 H   0  0  0  0  0  0  0  0  0  0  0  0
   -2.0212    2.0520    0.5948 H   0  0  0  0  0  0  0  0  0  0  0  0
   -5.3894    0.9617    1.0328 H   0  0  0  0  0  0  0  0  0  0  0  0
   -3.8844    1.4025    1.8329 H   0  0  0  0  0  0  0  0  0  0  0  0
   -4.2651    2.0486    0.2331 H   0  0  0  0  0  0  0  0  0  0  0  0
   -4.1135   -2.0242    0.7118 H   0  0  0  0  0  0  0  0  0  0  0  0
   -5.5222   -1.0238    0.3697 H   0  0  0  0  0  0  0  0  0  0  0  0
   -4.4917   -1.5571   -0.9493 H   0  0  0  0  0  0  0  0  0  0  0  0
    0.3373    2.0412    0.0796 H   0  0  0  0  0  0  0  0  0  0  0  0
    2.1038   -0.7860   -1.6411 H   0  0  0  0  0  0  0  0  0  0  0  0
    2.1422    0.9572   -1.4374 H   0  0  0  0  0  0  0  0  0  0  0  0
    2.2782   -0.8859    0.8069 H   0  0  0  0  0  0  0  0  0  0  0  0
    4.2711   -1.0468   -0.6238 H   0  0  0  0  0  0  0  0  0  0  0  0
    4.2936    1.3339   -1.3799 H   0  0  0  0  0  0  0  0  0  0  0  0
    4.5274    1.8565    0.2916 H   0  0  0  0  0  0  0  0  0  0  0  0
    5.7722    0.9114   -0.5331 H   0  0  0  0  0  0  0  0  0  0  0  0
    4.2500   -1.5699    1.8251 H   0  0  0  0  0  0  0  0  0  0  0  0
    5.7639   -0.8245    1.3211 H   0  0  0  0  0  0  0  0  0  0  0  0
    4.5567    0.1333    2.1833 H   0  0  0  0  0  0  0  0  0  0  0  0
    1.8679    0.0264   -0.9350 C   0  0  0  0  0  0  0  0  0  0  0  0
  7  1  1  0
  1  8  1  0
  1  5  1  0
  4  5  2  0
  4  3  1  0
 12 11  1  0
  5  6  1  0
  3  2  2  0
 13 11  1  0
 11 10  1  0
  6  9  2  0
  2  9  1  0
  2 34  1  0
 10 34  1  0
  3 14  1  0
  4 15  1  0
  6 16  1  0
  7 17  1  0
  7 18  1  0
  7 19  1  0
  8 20  1  0
  8 21  1  0
  8 22  1  0
  9 23  1  0
 34 24  1  0
 34 25  1  0
 10 26  1  0
 11 27  1  6
 12 28  1  0
 12 29  1  0
 12 30  1  0
 13 31  1  0
 13 32  1  0
 13 33  1  0
M  END
