
     RDKit          3D

 33 33  0  0  0  0  0  0  0  0999 V2000
   -4.0350   -0.4179    0.0096 S   0  0  1  0  0  0  0  0  0  0  0  0
    2.6950    0.3062    0.0298 N   0  0  0  0  0  0  0  0  0  0  0  0
    2.0454    2.3565   -0.6431 O   0  0  0  0  0  0  0  0  0  0  0  0
    0.3407    0.7759   -0.1755 C   0  0  0  0  0  0  0  0  0  0  0  0
   -1.3733   -0.9150   -0.3126 C   0  0  0  0  0  0  0  0  0  0  0  0
   -0.0398   -0.5501   -0.3744 C   0  0  0  0  0  0  0  0  0  0  0  0
   -2.3271    0.0572   -0.0479 C   0  0  0  0  0  0  0  0  0  0  0  0
   -0.6327    1.7372    0.0754 C   0  0  0  0  0  0  0  0  0  0  0  0
   -1.9705    1.3827    0.1480 C   0  0  0  0  0  0  0  0  0  0  0  0
    4.1174    0.5727   -0.0558 C   0  0  0  0  0  0  0  0  0  0  0  0
   -4.8307    0.7933   -0.1257 O   0  0  0  0  0  0  0  0  0  0  0  0
    4.9118   -0.7075    0.1433 C   0  0  0  0  0  0  0  0  0  0  0  0
   -4.2543   -1.5095   -0.9274 O   0  0  0  0  0  0  0  0  0  0  0  0
    6.4114   -0.4793    0.0087 C   0  0  0  0  0  0  0  0  0  0  0  0
   -4.1393   -1.0850    1.5129 N   0  0  0  0  0  0  0  0  0  0  0  0
    7.2144   -1.7565    0.2092 C   0  0  0  0  0  0  0  0  0  0  0  0
    2.4097   -0.5529    0.4718 H   0  0  0  0  0  0  0  0  0  0  0  0
   -1.6559   -1.9448   -0.4833 H   0  0  0  0  0  0  0  0  0  0  0  0
    0.6924   -1.3109   -0.6100 H   0  0  0  0  0  0  0  0  0  0  0  0
   -0.3499    2.7712    0.2177 H   0  0  0  0  0  0  0  0  0  0  0  0
   -2.7175    2.1387    0.3459 H   0  0  0  0  0  0  0  0  0  0  0  0
    4.3410    1.0002   -1.0356 H   0  0  0  0  0  0  0  0  0  0  0  0
    4.4110    1.3171    0.6912 H   0  0  0  0  0  0  0  0  0  0  0  0
    4.6936   -1.1228    1.1327 H   0  0  0  0  0  0  0  0  0  0  0  0
    4.5882   -1.4541   -0.5886 H   0  0  0  0  0  0  0  0  0  0  0  0
   -4.2445   -0.3987    2.2524 H   0  0  0  0  0  0  0  0  0  0  0  0
   -4.8686   -1.7891    1.5654 H   0  0  0  0  0  0  0  0  0  0  0  0
    8.2841   -1.5737    0.1038 H   0  0  0  0  0  0  0  0  0  0  0  0
    7.0464   -2.1789    1.2014 H   0  0  0  0  0  0  0  0  0  0  0  0
    6.9355   -2.5164   -0.5232 H   0  0  0  0  0  0  0  0  0  0  0  0
    6.6265   -0.0645   -0.9802 H   0  0  0  0  0  0  0  0  0  0  0  0
    6.7320    0.2755    0.7326 H   0  0  0  0  0  0  0  0  0  0  0  0
    1.7686    1.2208   -0.2819 C   0  0  0  0  0  0  0  0  0  0  0  0
  1 13  2  0
  2 33  1  0
  2 17  1  0
  3 33  2  0
  4  8  2  0
  4  6  1  0
  5  7  1  0
  5 18  1  0
  6  5  2  0
  6 19  1  0
  7  1  1  0
  8  9  1  0
  8 20  1  0
  9  7  2  0
  9 21  1  0
 33  4  1  0
 10  2  1  0
 10 22  1  0
 10 23  1  0
 11  1  2  0
 12 10  1  0
 12 14  1  0
 12 24  1  0
 12 25  1  0
 14 16  1  0
  1 15  1  1
 15 26  1  0
 15 27  1  0
 16 28  1  0
 16 29  1  0
 16 30  1  0
 14 31  1  0
 14 32  1  0
M  END
