
     RDKit          3D

 23 23  0  0  0  0  0  0  0  0999 V2000
    3.3416    1.8236    0.1955 C   0  0  0  0  0  0  0  0  0  0  0  0
    2.6891    0.6796   -0.3978 N   0  0  0  0  0  0  0  0  0  0  0  0
    3.5369   -0.4211   -0.8058 C   0  0  0  0  0  0  0  0  0  0  0  0
    4.1828   -1.1490    0.3599 C   0  0  0  0  0  0  0  0  0  0  0  0
    3.1783   -1.6607    1.2018 O   0  0  0  0  0  0  0  0  0  0  0  0
    1.3428    0.5366   -0.2882 C   0  0  0  0  0  0  0  0  0  0  0  0
    0.5477    1.5173    0.3468 C   0  0  0  0  0  0  0  0  0  0  0  0
   -0.8179    1.3494    0.3907 C   0  0  0  0  0  0  0  0  0  0  0  0
   -1.3799    0.2159   -0.1856 C   0  0  0  0  0  0  0  0  0  0  0  0
   -0.5329   -0.7019   -0.7816 C   0  0  0  0  0  0  0  0  0  0  0  0
    0.7782   -0.5460   -0.8308 N   0  0  0  0  0  0  0  0  0  0  0  0
   -3.2414   -0.0745   -0.1550 Br  0  0  0  0  0  0  0  0  0  0  0  0
    2.9184    2.7593   -0.1731 H   0  0  0  0  0  0  0  0  0  0  0  0
    3.2829    1.8300    1.2880 H   0  0  0  0  0  0  0  0  0  0  0  0
    4.3934    1.8138   -0.0810 H   0  0  0  0  0  0  0  0  0  0  0  0
    2.9515   -1.1159   -1.4027 H   0  0  0  0  0  0  0  0  0  0  0  0
    4.3339   -0.0331   -1.4452 H   0  0  0  0  0  0  0  0  0  0  0  0
    4.8197   -1.9416   -0.0558 H   0  0  0  0  0  0  0  0  0  0  0  0
    4.8484   -0.4632    0.8999 H   0  0  0  0  0  0  0  0  0  0  0  0
    3.6036   -2.0501    1.9709 H   0  0  0  0  0  0  0  0  0  0  0  0
    0.9808    2.3933    0.8054 H   0  0  0  0  0  0  0  0  0  0  0  0
   -1.4311    2.0974    0.8761 H   0  0  0  0  0  0  0  0  0  0  0  0
   -0.9265   -1.6030   -1.2408 H   0  0  0  0  0  0  0  0  0  0  0  0
  1  2  1  0
  2  3  1  0
  2  6  1  0
  3  4  1  0
  4  5  1  0
  6  7  2  0
  6 11  1  0
  7  8  1  0
  8  9  2  0
  9 10  1  0
  9 12  1  0
 10 11  2  0
  1 13  1  0
  1 14  1  0
  1 15  1  0
  3 16  1  0
  3 17  1  0
  4 18  1  0
  4 19  1  0
  5 20  1  0
  7 21  1  0
  8 22  1  0
 10 23  1  0
M  END
