
     RDKit          3D

 35 34  0  0  0  0  0  0  0  0999 V2000
   -5.7160   -0.5797    0.5622 C   0  0  0  0  0  0  0  0  0  0  0  0
   -5.0086    1.7477    0.6194 N   0  0  0  0  0  0  0  0  0  0  0  0
   -6.1348   -0.7741    1.7044 O   0  0  0  0  0  0  0  0  0  0  0  0
   -4.7018    0.4432    0.0737 C   0  0  1  0  0  0  0  0  0  0  0  0
   -3.3088   -0.1296    0.3903 C   0  0  0  0  0  0  0  0  0  0  0  0
   -0.9130   -0.2203   -0.2834 C   0  0  0  0  0  0  0  0  0  0  0  0
    0.1473    0.4000   -1.1971 C   0  0  0  0  0  0  0  0  0  0  0  0
   -2.2460    0.4615   -0.5082 C   0  0  0  0  0  0  0  0  0  0  0  0
    3.7768   -0.4347   -0.3096 C   0  0  0  0  0  0  0  0  0  0  0  0
    4.8204    0.3008    0.5025 C   0  0  0  0  0  0  0  0  0  0  0  0
    6.0759   -0.5009    0.6024 C   0  0  0  0  0  0  0  0  0  0  0  0
    2.4663    0.3317   -0.3138 C   0  0  0  0  0  0  0  0  0  0  0  0
    2.3171    1.3818    0.3421 O   0  0  0  0  0  0  0  0  0  0  0  0
    1.4478   -0.1978   -1.0818 N   0  0  0  0  0  0  0  0  0  0  0  0
    6.2775   -1.6861    0.3197 O   0  0  0  0  0  0  0  0  0  0  0  0
    7.1410    0.2037    1.0787 O   0  0  0  0  0  0  0  0  0  0  0  0
   -6.2064   -1.3720   -0.4285 O   0  0  0  0  0  0  0  0  0  0  0  0
   -4.6187    1.8577    1.5359 H   0  0  0  0  0  0  0  0  0  0  0  0
   -4.6577    2.4641    0.0147 H   0  0  0  0  0  0  0  0  0  0  0  0
   -4.8040    0.5250   -1.0517 H   0  0  0  0  0  0  0  0  0  0  0  0
   -3.0529    0.0613    1.4649 H   0  0  0  0  0  0  0  0  0  0  0  0
   -3.3467   -1.2415    0.2446 H   0  0  0  0  0  0  0  0  0  0  0  0
   -1.0103   -1.3174   -0.4922 H   0  0  0  0  0  0  0  0  0  0  0  0
   -0.6085   -0.1084    0.7896 H   0  0  0  0  0  0  0  0  0  0  0  0
   -0.1942    0.2849   -2.2671 H   0  0  0  0  0  0  0  0  0  0  0  0
    0.2258    1.5040   -0.9748 H   0  0  0  0  0  0  0  0  0  0  0  0
   -2.5519    0.3481   -1.5818 H   0  0  0  0  0  0  0  0  0  0  0  0
   -2.1360    1.5598   -0.3071 H   0  0  0  0  0  0  0  0  0  0  0  0
    4.1427   -0.5737   -1.3611 H   0  0  0  0  0  0  0  0  0  0  0  0
    3.6085   -1.4569    0.1266 H   0  0  0  0  0  0  0  0  0  0  0  0
    5.0479    1.3001    0.0433 H   0  0  0  0  0  0  0  0  0  0  0  0
    4.4393    0.5004    1.5420 H   0  0  0  0  0  0  0  0  0  0  0  0
    1.6114   -1.0347   -1.5865 H   0  0  0  0  0  0  0  0  0  0  0  0
    7.9222   -0.3732    1.1188 H   0  0  0  0  0  0  0  0  0  0  0  0
   -6.8463   -2.0018   -0.0560 H   0  0  0  0  0  0  0  0  0  0  0  0
  1  3  2  0
  1  4  1  0
  1 17  1  0
  2  4  1  0
  4  5  1  0
  5  8  1  0
  6  7  1  0
  6  8  1  0
  7 14  1  0
  9 10  1  0
  9 12  1  0
 10 11  1  0
 11 15  2  0
 11 16  1  0
 12 13  2  0
 12 14  1  0
  2 18  1  0
  2 19  1  0
  4 20  1  6
  5 21  1  0
  5 22  1  0
  6 23  1  0
  6 24  1  0
  7 25  1  0
  7 26  1  0
  8 27  1  0
  8 28  1  0
  9 29  1  0
  9 30  1  0
 10 31  1  0
 10 32  1  0
 14 33  1  0
 16 34  1  0
 17 35  1  0
M  END
