
     RDKit          3D

 34 36  0  0  0  0  0  0  0  0999 V2000
    3.0004    0.9396    0.5321 N   0  0  0  0  0  0  0  0  0  0  0  0
    2.1962    0.8806   -0.6710 C   0  0  2  0  0  0  0  0  0  0  0  0
    0.8316    1.4888   -0.5373 C   0  0  0  0  0  0  0  0  0  0  0  0
    2.2204   -0.6718   -0.9291 C   0  0  2  0  0  0  0  0  0  0  0  0
    0.9624   -1.3634   -0.4606 C   0  0  0  0  0  0  0  0  0  0  0  0
    3.3988   -1.1411   -0.2144 N   0  0  0  0  0  0  0  0  0  0  0  0
    3.7635   -0.1990    0.5696 C   0  0  0  0  0  0  0  0  0  0  0  0
    4.9018   -0.2887    1.5225 C   0  0  0  0  0  0  0  0  0  0  0  0
    0.1272    1.4509    0.6619 C   0  0  0  0  0  0  0  0  0  0  0  0
   -1.1682    1.9353    0.7414 C   0  0  0  0  0  0  0  0  0  0  0  0
   -1.7636    2.4647   -0.3934 C   0  0  0  0  0  0  0  0  0  0  0  0
   -3.3890    3.0677   -0.3021 Cl  0  0  0  0  0  0  0  0  0  0  0  0
   -1.0806    2.5272   -1.5963 C   0  0  0  0  0  0  0  0  0  0  0  0
    0.2168    2.0393   -1.6557 C   0  0  0  0  0  0  0  0  0  0  0  0
   -0.1424   -1.4184   -1.3056 C   0  0  0  0  0  0  0  0  0  0  0  0
   -1.3455   -1.9610   -0.8857 C   0  0  0  0  0  0  0  0  0  0  0  0
   -1.4391   -2.4664    0.4016 C   0  0  0  0  0  0  0  0  0  0  0  0
   -2.9423   -3.1437    0.9457 Cl  0  0  0  0  0  0  0  0  0  0  0  0
   -0.3512   -2.4445    1.2576 C   0  0  0  0  0  0  0  0  0  0  0  0
    0.8445   -1.8930    0.8184 C   0  0  0  0  0  0  0  0  0  0  0  0
    3.4185    1.8212    0.7876 H   0  0  0  0  0  0  0  0  0  0  0  0
    2.7178    1.3701   -1.5029 H   0  0  0  0  0  0  0  0  0  0  0  0
    2.3273   -0.8524   -2.0013 H   0  0  0  0  0  0  0  0  0  0  0  0
    4.5499   -0.1483    2.5451 H   0  0  0  0  0  0  0  0  0  0  0  0
    5.3893   -1.2568    1.4479 H   0  0  0  0  0  0  0  0  0  0  0  0
    5.6355    0.4929    1.3209 H   0  0  0  0  0  0  0  0  0  0  0  0
    0.5885    1.0320    1.5462 H   0  0  0  0  0  0  0  0  0  0  0  0
   -1.7082    1.8983    1.6779 H   0  0  0  0  0  0  0  0  0  0  0  0
   -1.5473    2.9501   -2.4755 H   0  0  0  0  0  0  0  0  0  0  0  0
    0.7533    2.0848   -2.5964 H   0  0  0  0  0  0  0  0  0  0  0  0
   -0.0708   -1.0228   -2.3116 H   0  0  0  0  0  0  0  0  0  0  0  0
   -2.1962   -1.9888   -1.5529 H   0  0  0  0  0  0  0  0  0  0  0  0
   -0.4297   -2.8496    2.2577 H   0  0  0  0  0  0  0  0  0  0  0  0
    1.6899   -1.8779    1.4932 H   0  0  0  0  0  0  0  0  0  0  0  0
  8  7  1  0
  7  1  1  0
  7  6  2  0
  1  2  1  0
  9 10  2  0
  9  3  1  0
  6  4  1  0
 10 11  1  0
  2  3  1  0
  2  4  1  0
  3 14  2  0
 11 12  1  0
 11 13  2  0
 20 19  2  0
 20  5  1  0
  4  5  1  0
 19 17  1  0
 14 13  1  0
  5 15  2  0
 17 18  1  0
 17 16  2  0
 15 16  1  0
  1 21  1  0
  2 22  1  6
  4 23  1  6
  8 24  1  0
  8 25  1  0
  8 26  1  0
  9 27  1  0
 10 28  1  0
 13 29  1  0
 14 30  1  0
 15 31  1  0
 16 32  1  0
 19 33  1  0
 20 34  1  0
M  END
