
     RDKit          3D

 33 35  0  0  0  0  0  0  0  0999 V2000
   -3.3306    0.5042    0.0614 C   0  0  0  0  0  0  0  0  0  0  0  0
   -2.8588   -0.6715   -0.0984 N   0  0  0  0  0  0  0  0  0  0  0  0
   -1.3383   -2.9167   -0.3590 O   0  0  0  0  0  0  0  0  0  0  0  0
   -2.1218    1.7566    0.2614 S   0  0  0  0  0  0  0  0  0  0  0  0
   -0.8989    0.5355    0.1115 C   0  0  0  0  0  0  0  0  0  0  0  0
   -1.5085   -0.6601   -0.0737 N   0  0  0  0  0  0  0  0  0  0  0  0
    1.1763   -0.3506    0.0334 C   0  0  0  0  0  0  0  0  0  0  0  0
    0.3669    0.7404    0.1680 N   0  0  0  0  0  0  0  0  0  0  0  0
    0.6389   -1.6240   -0.1383 C   0  0  0  0  0  0  0  0  0  0  0  0
    5.3083    0.5532   -0.1377 N   0  0  0  0  0  0  0  0  0  0  0  0
   -0.7542   -1.8554   -0.2113 C   0  0  0  0  0  0  0  0  0  0  0  0
    2.5019   -0.0934    0.0690 N   0  0  0  0  0  0  0  0  0  0  0  0
   -4.7803    0.8366    0.0834 C   0  0  0  0  0  0  0  0  0  0  0  0
   -5.6837   -0.3739   -0.0876 C   0  0  0  0  0  0  0  0  0  0  0  0
    3.4891   -1.1582    0.0131 C   0  0  0  0  0  0  0  0  0  0  0  0
    4.7641   -0.6767   -0.6755 C   0  0  0  0  0  0  0  0  0  0  0  0
    4.2864    1.5823   -0.1080 C   0  0  0  0  0  0  0  0  0  0  0  0
    3.0139    1.1598    0.6124 C   0  0  0  0  0  0  0  0  0  0  0  0
    1.2610   -2.5020   -0.2050 H   0  0  0  0  0  0  0  0  0  0  0  0
   -4.9984    1.3438    1.0267 H   0  0  0  0  0  0  0  0  0  0  0  0
   -4.9723    1.5730   -0.7013 H   0  0  0  0  0  0  0  0  0  0  0  0
   -5.5065   -0.8765   -1.0372 H   0  0  0  0  0  0  0  0  0  0  0  0
   -5.5369   -1.0974    0.7128 H   0  0  0  0  0  0  0  0  0  0  0  0
   -6.7238   -0.0530   -0.0652 H   0  0  0  0  0  0  0  0  0  0  0  0
    3.7191   -1.5084    1.0278 H   0  0  0  0  0  0  0  0  0  0  0  0
    3.1047   -2.0063   -0.5486 H   0  0  0  0  0  0  0  0  0  0  0  0
    4.5519   -0.5247   -1.7382 H   0  0  0  0  0  0  0  0  0  0  0  0
    5.5128   -1.4673   -0.6095 H   0  0  0  0  0  0  0  0  0  0  0  0
    4.6827    2.4759    0.3767 H   0  0  0  0  0  0  0  0  0  0  0  0
    4.0409    1.8562   -1.1386 H   0  0  0  0  0  0  0  0  0  0  0  0
    2.2578    1.9330    0.5203 H   0  0  0  0  0  0  0  0  0  0  0  0
    3.2254    1.0281    1.6819 H   0  0  0  0  0  0  0  0  0  0  0  0
    5.6506    0.3902    0.8031 H   0  0  0  0  0  0  0  0  0  0  0  0
  1  2  2  0
  1  4  1  0
  1 13  1  0
  2  6  1  0
  3 11  2  0
  4  5  1  0
  5  6  1  0
  5  8  2  0
  6 11  1  0
  7  8  1  0
  7  9  2  0
  7 12  1  0
  9 11  1  0
 10 16  1  0
 10 17  1  0
 12 15  1  0
 12 18  1  0
 13 14  1  0
 15 16  1  0
 17 18  1  0
  9 19  1  0
 10 33  1  0
 13 20  1  0
 13 21  1  0
 14 22  1  0
 14 23  1  0
 14 24  1  0
 15 25  1  0
 15 26  1  0
 16 27  1  0
 16 28  1  0
 17 29  1  0
 17 30  1  0
 18 31  1  0
 18 32  1  0
M  END
