
     RDKit          3D

 26 27  0  0  0  0  0  0  0  0999 V2000
   -0.1168   -1.8230   -0.2795 C   0  0  0  0  0  0  0  0  0  0  0  0
    1.0200   -0.9991   -0.3893 C   0  0  0  0  0  0  0  0  0  0  0  0
    0.9029    0.3889   -0.3067 C   0  0  0  0  0  0  0  0  0  0  0  0
   -0.3641    0.9256   -0.0939 C   0  0  0  0  0  0  0  0  0  0  0  0
   -1.5033    0.0993    0.0236 C   0  0  0  0  0  0  0  0  0  0  0  0
    0.2246   -3.1351   -0.4029 N   0  0  0  0  0  0  0  0  0  0  0  0
    5.6272   -1.1018    0.5177 C   0  0  0  0  0  0  0  0  0  0  0  0
   -1.3796   -1.2758   -0.0737 C   0  0  0  0  0  0  0  0  0  0  0  0
    4.1513   -1.4391    0.6711 C   0  0  0  0  0  0  0  0  0  0  0  0
    1.5124   -3.1164   -0.5780 C   0  0  0  0  0  0  0  0  0  0  0  0
    6.2501   -0.9374    1.8215 N   0  0  0  0  0  0  0  0  0  0  0  0
    2.0597   -1.8764   -0.5880 N   0  0  0  0  0  0  0  0  0  0  0  0
    2.3911    1.5101   -0.4927 Br  0  0  0  0  0  0  0  0  0  0  0  0
   -0.5661    2.7836    0.0333 Br  0  0  0  0  0  0  0  0  0  0  0  0
   -3.1931    0.8540    0.3081 Br  0  0  0  0  0  0  0  0  0  0  0  0
   -2.8264   -2.4458    0.0572 Br  0  0  0  0  0  0  0  0  0  0  0  0
    3.6881   -0.8308   -1.3662 H   0  0  0  0  0  0  0  0  0  0  0  0
    3.9090   -2.5454   -1.1607 H   0  0  0  0  0  0  0  0  0  0  0  0
    6.1098   -1.8665   -0.1085 H   0  0  0  0  0  0  0  0  0  0  0  0
    5.7191   -0.1584   -0.0275 H   0  0  0  0  0  0  0  0  0  0  0  0
    3.6555   -0.6346    1.2192 H   0  0  0  0  0  0  0  0  0  0  0  0
    4.0369   -2.3472    1.2711 H   0  0  0  0  0  0  0  0  0  0  0  0
    2.1313   -3.9919   -0.7128 H   0  0  0  0  0  0  0  0  0  0  0  0
    6.3114   -1.8391    2.2784 H   0  0  0  0  0  0  0  0  0  0  0  0
    7.2065   -0.6303    1.6999 H   0  0  0  0  0  0  0  0  0  0  0  0
    3.4964   -1.6557   -0.6841 C   0  0  0  0  0  0  0  0  0  0  0  0
 15  5  1  0
 16  8  1  0
  5  8  2  0
  5  4  1  0
  8  1  1  0
 14  4  1  0
  4  3  2  0
  1  6  1  0
  1  2  2  0
  6 10  2  0
  3  2  1  0
  3 13  1  0
  2 12  1  0
 10 12  1  0
 12 26  1  0
 26  9  1  0
  9  7  1  0
  7 11  1  0
 26 17  1  0
 26 18  1  0
  7 19  1  0
  7 20  1  0
  9 21  1  0
  9 22  1  0
 10 23  1  0
 11 24  1  0
 11 25  1  0
M  END
