
     RDKit          3D

 26 25  0  0  0  0  0  0  0  0999 V2000
   -4.4501   -0.2957   -0.7548 N   0  0  0  0  0  0  0  0  0  0  0  0
   -3.1985   -0.7037   -0.1304 C   0  0  0  0  0  0  0  0  0  0  0  0
   -2.1095    0.3240   -0.4061 C   0  0  0  0  0  0  0  0  0  0  0  0
   -0.7644   -0.0480    0.2070 C   0  0  1  0  0  0  0  0  0  0  0  0
    0.3586    0.8739   -0.2819 C   0  0  2  0  0  0  0  0  0  0  0  0
    1.7624    0.4748    0.2318 C   0  0  2  0  0  0  0  0  0  0  0  0
    2.8355    1.3099   -0.2777 N   0  0  0  0  0  0  0  0  0  0  0  0
    2.0706   -0.9545   -0.1643 C   0  0  0  0  0  0  0  0  0  0  0  0
    2.3451   -1.2810   -1.2930 O   0  0  0  0  0  0  0  0  0  0  0  0
    0.1078    2.2238    0.0343 O   0  0  0  0  0  0  0  0  0  0  0  0
   -0.8064   -0.0862    1.6221 O   0  0  0  0  0  0  0  0  0  0  0  0
    1.9964   -1.8064    0.8464 O   0  0  0  0  0  0  0  0  0  0  0  0
   -5.1448   -1.0180   -0.6136 H   0  0  0  0  0  0  0  0  0  0  0  0
   -4.8093    0.5188   -0.2712 H   0  0  0  0  0  0  0  0  0  0  0  0
   -3.2863   -0.8681    0.9515 H   0  0  0  0  0  0  0  0  0  0  0  0
   -2.8970   -1.6617   -0.5630 H   0  0  0  0  0  0  0  0  0  0  0  0
   -1.9879    0.4238   -1.4880 H   0  0  0  0  0  0  0  0  0  0  0  0
   -2.4263    1.3079   -0.0410 H   0  0  0  0  0  0  0  0  0  0  0  0
   -0.5304   -1.0682   -0.1200 H   0  0  0  0  0  0  0  0  0  0  0  0
    0.3791    0.8208   -1.3763 H   0  0  0  0  0  0  0  0  0  0  0  0
    1.7649    0.5471    1.3226 H   0  0  0  0  0  0  0  0  0  0  0  0
    2.8181    1.3096   -1.2910 H   0  0  0  0  0  0  0  0  0  0  0  0
    2.6702    2.2674    0.0044 H   0  0  0  0  0  0  0  0  0  0  0  0
    0.0895    2.3187    0.9935 H   0  0  0  0  0  0  0  0  0  0  0  0
   -1.4001    0.6039    1.9345 H   0  0  0  0  0  0  0  0  0  0  0  0
    2.1744   -2.7080    0.5363 H   0  0  0  0  0  0  0  0  0  0  0  0
 11  4  1  0
  2  1  1  0
  2  3  1  0
  4  3  1  0
  4  5  1  0
 10  5  1  0
  5  6  1  0
  6  7  1  0
  6  8  1  0
  8  9  2  0
  8 12  1  0
  1 13  1  0
  1 14  1  0
  2 15  1  0
  2 16  1  0
  3 17  1  0
  3 18  1  0
  4 19  1  6
  5 20  1  6
  6 21  1  1
  7 22  1  0
  7 23  1  0
 10 24  1  0
 11 25  1  0
 12 26  1  0
M  END
