
     RDKit          3D

 28 29  0  0  0  0  0  0  0  0999 V2000
   -2.4418    0.9443    0.0429 C   0  0  0  0  0  0  0  0  0  0  0  0
   -0.4532   -2.5082   -0.0968 N   0  0  0  0  0  0  0  0  0  0  0  0
   -4.8252    0.6974    0.0596 O   0  0  0  0  0  0  0  0  0  0  0  0
   -2.4880   -0.8609   -0.0203 S   0  0  0  0  0  0  0  0  0  0  0  0
   -3.8677    1.4265    0.0729 C   0  0  0  0  0  0  0  0  0  0  0  0
    0.1036   -0.2522   -0.0261 N   0  0  0  0  0  0  0  0  0  0  0  0
   -3.9224    2.7444    0.1161 O   0  0  0  0  0  0  0  0  0  0  0  0
   -0.7723   -1.1972   -0.0501 C   0  0  0  0  0  0  0  0  0  0  0  0
    0.8615   -2.9649   -0.1423 C   0  0  0  0  0  0  0  0  0  0  0  0
    1.8255   -1.9029   -0.1278 C   0  0  0  0  0  0  0  0  0  0  0  0
    1.4229   -0.6020   -0.0578 C   0  0  0  0  0  0  0  0  0  0  0  0
    2.3737    0.5276   -0.0280 C   0  0  0  0  0  0  0  0  0  0  0  0
    1.9259    1.8208   -0.3039 C   0  0  0  0  0  0  0  0  0  0  0  0
    2.8084    2.8903   -0.2959 C   0  0  0  0  0  0  0  0  0  0  0  0
    4.1495    2.6878   -0.0010 C   0  0  0  0  0  0  0  0  0  0  0  0
    4.6031    1.4066    0.2869 C   0  0  0  0  0  0  0  0  0  0  0  0
    3.7236    0.3361    0.2741 C   0  0  0  0  0  0  0  0  0  0  0  0
   -1.9073    1.2828    0.9314 H   0  0  0  0  0  0  0  0  0  0  0  0
   -1.9235    1.3441   -0.8296 H   0  0  0  0  0  0  0  0  0  0  0  0
   -1.1826   -3.2118   -0.1092 H   0  0  0  0  0  0  0  0  0  0  0  0
   -4.8443    3.0445    0.1373 H   0  0  0  0  0  0  0  0  0  0  0  0
    2.8675   -2.1804   -0.1868 H   0  0  0  0  0  0  0  0  0  0  0  0
    0.8822    1.9885   -0.5305 H   0  0  0  0  0  0  0  0  0  0  0  0
    2.4453    3.8847   -0.5196 H   0  0  0  0  0  0  0  0  0  0  0  0
    4.8377    3.5226    0.0101 H   0  0  0  0  0  0  0  0  0  0  0  0
    5.6446    1.2396    0.5280 H   0  0  0  0  0  0  0  0  0  0  0  0
    4.0979   -0.6485    0.5210 H   0  0  0  0  0  0  0  0  0  0  0  0
    1.0962   -4.1612   -0.1917 O   0  0  0  0  0  0  0  0  0  0  0  0
  5  1  1  0
  4  1  1  0
  1 18  1  0
  1 19  1  0
  9  2  1  0
  2  8  1  0
  2 20  1  0
  3  5  2  0
  8  4  1  0
  7  5  1  0
 11  6  1  0
  6  8  2  0
  7 21  1  0
 28  9  2  0
 10  9  1  0
 10 11  2  0
 10 22  1  0
 12 11  1  0
 17 12  1  0
 12 13  2  0
 14 13  1  0
 13 23  1  0
 15 14  2  0
 14 24  1  0
 16 15  1  0
 15 25  1  0
 16 17  2  0
 16 26  1  0
 17 27  1  0
M  END
