
     RDKit          3D

 33 34  0  0  0  0  0  0  0  0999 V2000
   -3.7238    0.2034   -0.0171 C   0  0  0  0  0  0  0  0  0  0  0  0
   -5.7654    0.0883    1.6640 N   0  0  0  0  0  0  0  0  0  0  0  0
   -6.1415    0.7914   -0.8025 O   0  0  0  0  0  0  0  0  0  0  0  0
   -5.4454   -0.1565    0.0584 S   0  0  1  0  0  0  0  0  0  0  0  0
   -2.8066   -0.7618    0.3748 C   0  0  0  0  0  0  0  0  0  0  0  0
   -5.6580   -1.5792   -0.1703 O   0  0  0  0  0  0  0  0  0  0  0  0
   -1.4493   -0.5052    0.3185 C   0  0  0  0  0  0  0  0  0  0  0  0
   -0.9939    0.7400   -0.1322 C   0  0  0  0  0  0  0  0  0  0  0  0
   -1.9330    1.7037   -0.5192 C   0  0  0  0  0  0  0  0  0  0  0  0
   -3.2866    1.4418   -0.4675 C   0  0  0  0  0  0  0  0  0  0  0  0
    0.3381    1.1106   -0.2076 N   0  0  0  0  0  0  0  0  0  0  0  0
    1.4530    0.3157   -0.0852 C   0  0  0  0  0  0  0  0  0  0  0  0
    1.4144   -0.8874    0.0858 O   0  0  0  0  0  0  0  0  0  0  0  0
    2.6124    1.0305   -0.1914 N   0  0  0  0  0  0  0  0  0  0  0  0
    3.8995    0.4864   -0.0764 C   0  0  0  0  0  0  0  0  0  0  0  0
    4.8690    1.2195    0.6047 C   0  0  0  0  0  0  0  0  0  0  0  0
    6.1712    0.7556    0.7070 C   0  0  0  0  0  0  0  0  0  0  0  0
    6.4885   -0.4599    0.1354 C   0  0  0  0  0  0  0  0  0  0  0  0
    7.7460   -0.9235    0.2362 F   0  0  0  0  0  0  0  0  0  0  0  0
    5.5489   -1.2083   -0.5457 C   0  0  0  0  0  0  0  0  0  0  0  0
    4.2528   -0.7285   -0.6614 C   0  0  0  0  0  0  0  0  0  0  0  0
    4.6075    2.1655    1.0617 H   0  0  0  0  0  0  0  0  0  0  0  0
   -5.7744    1.0731    1.9112 H   0  0  0  0  0  0  0  0  0  0  0  0
   -3.1389   -1.7281    0.7298 H   0  0  0  0  0  0  0  0  0  0  0  0
    6.9198    1.3312    1.2349 H   0  0  0  0  0  0  0  0  0  0  0  0
   -0.7609   -1.2739    0.6260 H   0  0  0  0  0  0  0  0  0  0  0  0
    5.8230   -2.1526   -0.9975 H   0  0  0  0  0  0  0  0  0  0  0  0
   -1.5971    2.6701   -0.8740 H   0  0  0  0  0  0  0  0  0  0  0  0
    3.5330   -1.3034   -1.2238 H   0  0  0  0  0  0  0  0  0  0  0  0
   -3.9863    2.2039   -0.7816 H   0  0  0  0  0  0  0  0  0  0  0  0
    0.4909    2.0785   -0.4477 H   0  0  0  0  0  0  0  0  0  0  0  0
    2.5588    2.0367   -0.1380 H   0  0  0  0  0  0  0  0  0  0  0  0
   -6.6452   -0.3442    1.9317 H   0  0  0  0  0  0  0  0  0  0  0  0
 10  1  2  0
  5  1  1  0
  1  4  1  0
  2 23  1  0
  4  2  1  1
  2 33  1  0
  3  4  2  0
  4  6  2  0
  7  5  2  0
  5 24  1  0
  8  7  1  0
 26  7  1  0
 11  8  1  0
  8  9  2  0
 28  9  1  0
  9 10  1  0
 10 30  1  0
 12 11  1  0
 11 31  1  0
 13 12  2  0
 14 12  1  0
 32 14  1  0
 14 15  1  0
 16 15  2  0
 15 21  1  0
 22 16  1  0
 16 17  1  0
 25 17  1  0
 17 18  2  0
 18 19  1  0
 18 20  1  0
 21 20  2  0
 20 27  1  0
 21 29  1  0
M  END
