
     RDKit          3D

 41 43  0  0  0  0  0  0  0  0999 V2000
   -4.8769    2.1549    1.5807 C   0  0  0  0  0  0  0  0  0  0  0  0
   -4.5173    0.9813    0.7339 C   0  0  0  0  0  0  0  0  0  0  0  0
   -5.4397    0.3512   -0.0266 C   0  0  0  0  0  0  0  0  0  0  0  0
   -5.1107   -0.7822   -0.8564 C   0  0  0  0  0  0  0  0  0  0  0  0
   -5.8767   -1.3951   -1.5596 O   0  0  0  0  0  0  0  0  0  0  0  0
   -3.8160   -1.1982   -0.8450 O   0  0  0  0  0  0  0  0  0  0  0  0
   -2.8587   -0.5993   -0.1011 C   0  0  0  0  0  0  0  0  0  0  0  0
   -1.5830   -1.1244   -0.1851 C   0  0  0  0  0  0  0  0  0  0  0  0
   -3.1575    0.4974    0.7112 C   0  0  0  0  0  0  0  0  0  0  0  0
   -2.1083    1.0541    1.4466 C   0  0  0  0  0  0  0  0  0  0  0  0
   -0.8245    0.5538    1.3806 C   0  0  0  0  0  0  0  0  0  0  0  0
   -0.5595   -0.5499    0.5603 C   0  0  0  0  0  0  0  0  0  0  0  0
    0.6426   -1.1376    0.4258 O   0  0  0  0  0  0  0  0  0  0  0  0
    1.7679   -0.6389    1.1154 C   0  0  2  0  0  0  0  0  0  0  0  0
    2.1251    0.6280    0.6804 O   0  0  0  0  0  0  0  0  0  0  0  0
    2.5581    0.7119   -0.6579 C   0  0  1  0  0  0  0  0  0  0  0  0
    2.8779    2.1696   -0.9078 C   0  0  0  0  0  0  0  0  0  0  0  0
    3.2297    2.3578   -2.1717 O   0  0  0  0  0  0  0  0  0  0  0  0
    2.8138    3.0425   -0.0858 O   0  0  0  0  0  0  0  0  0  0  0  0
    3.7928   -0.1579   -0.9085 C   0  0  1  0  0  0  0  0  0  0  0  0
    4.8932    0.3706   -0.2099 O   0  0  0  0  0  0  0  0  0  0  0  0
    3.5005   -1.5964   -0.4705 C   0  0  2  0  0  0  0  0  0  0  0  0
    2.6185   -2.1125   -1.4362 O   0  0  0  0  0  0  0  0  0  0  0  0
    2.8957   -1.6632    0.9374 C   0  0  1  0  0  0  0  0  0  0  0  0
    3.9181   -1.3982    1.8608 O   0  0  0  0  0  0  0  0  0  0  0  0
   -5.9353    2.3905    1.4981 H   0  0  0  0  0  0  0  0  0  0  0  0
   -4.6490    1.9642    2.6304 H   0  0  0  0  0  0  0  0  0  0  0  0
   -4.3048    3.0352    1.2829 H   0  0  0  0  0  0  0  0  0  0  0  0
   -6.4708    0.6767   -0.0433 H   0  0  0  0  0  0  0  0  0  0  0  0
   -1.3829   -1.9769   -0.8217 H   0  0  0  0  0  0  0  0  0  0  0  0
   -2.2944    1.9080    2.0840 H   0  0  0  0  0  0  0  0  0  0  0  0
   -0.0520    1.0362    1.9599 H   0  0  0  0  0  0  0  0  0  0  0  0
    1.5347   -0.5321    2.1815 H   0  0  0  0  0  0  0  0  0  0  0  0
    1.7621    0.4176   -1.3549 H   0  0  0  0  0  0  0  0  0  0  0  0
    3.4377    3.2913   -2.3280 H   0  0  0  0  0  0  0  0  0  0  0  0
    3.9812   -0.1819   -1.9864 H   0  0  0  0  0  0  0  0  0  0  0  0
    5.5659    0.6231   -0.8470 H   0  0  0  0  0  0  0  0  0  0  0  0
    4.4480   -2.1533   -0.4571 H   0  0  0  0  0  0  0  0  0  0  0  0
    2.3074   -2.9776   -1.1512 H   0  0  0  0  0  0  0  0  0  0  0  0
    2.4765   -2.6673    1.0934 H   0  0  0  0  0  0  0  0  0  0  0  0
    3.6228   -1.6824    2.7316 H   0  0  0  0  0  0  0  0  0  0  0  0
 19 17  2  0
 21 20  1  0
 17 18  1  0
 17 16  1  0
 15 14  1  0
 15 16  1  0
 13 14  1  0
 13 12  1  0
 14 24  1  0
 20 16  1  0
 20 22  1  0
  8 12  1  0
  8  7  2  0
  6  7  1  0
  6  4  1  0
 12 11  2  0
 22 24  1  0
 22 23  1  0
  5  4  2  0
  7  9  1  0
 24 25  1  0
  4  3  1  0
 11 10  1  0
  9 10  2  0
  9  2  1  0
  3  2  2  0
  2  1  1  0
  1 26  1  0
  1 27  1  0
  1 28  1  0
  3 29  1  0
  8 30  1  0
 10 31  1  0
 11 32  1  0
 14 33  1  1
 16 34  1  6
 18 35  1  0
 20 36  1  6
 21 37  1  0
 22 38  1  1
 23 39  1  0
 24 40  1  1
 25 41  1  0
M  END
