
     RDKit          3D

 35 35  0  0  0  0  0  0  0  0999 V2000
   -0.7501    0.5188   -1.3062 C   0  0  0  0  0  0  0  0  0  0  0  0
   -1.4638   -0.4340   -2.0271 C   0  0  0  0  0  0  0  0  0  0  0  0
   -1.1195   -0.7383   -3.3358 C   0  0  0  0  0  0  0  0  0  0  0  0
   -0.0485   -0.1068   -3.9649 C   0  0  0  0  0  0  0  0  0  0  0  0
    0.6672    0.8405   -3.2362 C   0  0  0  0  0  0  0  0  0  0  0  0
    0.3250    1.1473   -1.9271 C   0  0  0  0  0  0  0  0  0  0  0  0
   -1.1060    0.8312    0.1191 C   0  0  0  0  0  0  0  0  0  0  0  0
    0.3048   -0.4174   -5.3905 C   0  0  0  0  0  0  0  0  0  0  0  0
   -1.8126   -0.3670    3.4122 C   0  0  0  0  0  0  0  0  0  0  0  0
   -2.0305    0.4002    4.6931 C   0  0  0  0  0  0  0  0  0  0  0  0
    2.3056   -0.5566    1.7689 C   0  0  0  0  0  0  0  0  0  0  0  0
    3.6207   -0.0471    1.2337 C   0  0  0  0  0  0  0  0  0  0  0  0
   -0.2758   -0.2987    1.2585 P   0  0  2  0  0  0  0  0  0  0  0  0
   -0.6753    0.1949    2.7376 O   0  0  0  0  0  0  0  0  0  0  0  0
    1.2420    0.1886    1.1501 O   0  0  0  0  0  0  0  0  0  0  0  0
   -0.5239   -1.7412    1.0124 O   0  0  0  0  0  0  0  0  0  0  0  0
   -2.3026   -0.9407   -1.5653 H   0  0  0  0  0  0  0  0  0  0  0  0
   -1.6933   -1.4821   -3.8764 H   0  0  0  0  0  0  0  0  0  0  0  0
    1.5084    1.3461   -3.6961 H   0  0  0  0  0  0  0  0  0  0  0  0
    0.9009    1.8873   -1.3848 H   0  0  0  0  0  0  0  0  0  0  0  0
   -2.1814    0.7247    0.2855 H   0  0  0  0  0  0  0  0  0  0  0  0
   -0.8406    1.8561    0.3851 H   0  0  0  0  0  0  0  0  0  0  0  0
   -0.2524    0.2195   -6.0809 H   0  0  0  0  0  0  0  0  0  0  0  0
    1.3645   -0.2541   -5.5840 H   0  0  0  0  0  0  0  0  0  0  0  0
    0.0705   -1.4509   -5.6444 H   0  0  0  0  0  0  0  0  0  0  0  0
   -1.6295   -1.4224    3.6217 H   0  0  0  0  0  0  0  0  0  0  0  0
   -2.7005   -0.3030    2.7765 H   0  0  0  0  0  0  0  0  0  0  0  0
   -2.8826   -0.0220    5.2257 H   0  0  0  0  0  0  0  0  0  0  0  0
   -1.1610    0.3348    5.3472 H   0  0  0  0  0  0  0  0  0  0  0  0
   -2.2428    1.4514    4.4988 H   0  0  0  0  0  0  0  0  0  0  0  0
    2.2523   -0.4276    2.8522 H   0  0  0  0  0  0  0  0  0  0  0  0
    2.1891   -1.6203    1.5514 H   0  0  0  0  0  0  0  0  0  0  0  0
    4.4368   -0.5939    1.7057 H   0  0  0  0  0  0  0  0  0  0  0  0
    3.6952   -0.1956    0.1566 H   0  0  0  0  0  0  0  0  0  0  0  0
    3.7567    1.0123    1.4500 H   0  0  0  0  0  0  0  0  0  0  0  0
  1  2  2  0
  1  6  1  0
  1  7  1  0
  2  3  1  0
  2 17  1  0
  3  4  2  0
  3 18  1  0
  4  5  1  0
  4  8  1  0
  5  6  2  0
  5 19  1  0
  6 20  1  0
  7 13  1  0
  7 21  1  0
  7 22  1  0
  8 23  1  0
  8 24  1  0
  8 25  1  0
  9 10  1  0
  9 14  1  0
  9 26  1  0
  9 27  1  0
 10 28  1  0
 10 29  1  0
 10 30  1  0
 11 12  1  0
 11 15  1  0
 11 31  1  0
 11 32  1  0
 12 33  1  0
 12 34  1  0
 12 35  1  0
 13 14  1  1
 13 15  1  0
 13 16  2  0
M  END
