
     RDKit          3D

 57 60  0  0  0  0  0  0  0  0999 V2000
   -0.5144   -1.0300   -0.2125 C   0  0  0  0  0  0  0  0  0  0  0  0
   -1.6436   -0.2441   -0.2089 C   0  0  0  0  0  0  0  0  0  0  0  0
   -2.9133   -0.8619    0.0273 C   0  0  0  0  0  0  0  0  0  0  0  0
   -3.0349   -2.1369    0.2815 N   0  0  0  0  0  0  0  0  0  0  0  0
   -1.9382   -2.9278    0.3027 C   0  0  0  0  0  0  0  0  0  0  0  0
   -0.6437   -2.4256    0.0448 C   0  0  0  0  0  0  0  0  0  0  0  0
    0.8396   -0.4789   -0.4601 C   0  0  0  0  0  0  0  0  0  0  0  0
    1.2524   -0.1027   -1.7367 C   0  0  0  0  0  0  0  0  0  0  0  0
    2.5259    0.3959   -1.9423 C   0  0  0  0  0  0  0  0  0  0  0  0
    3.4117    0.5274   -0.8737 C   0  0  0  0  0  0  0  0  0  0  0  0
    3.0244    0.1424    0.4125 C   0  0  0  0  0  0  0  0  0  0  0  0
    1.7416   -0.3596    0.5902 C   0  0  0  0  0  0  0  0  0  0  0  0
    0.4485   -3.3232    0.0450 C   0  0  0  0  0  0  0  0  0  0  0  0
    0.2567   -4.6530    0.3115 C   0  0  0  0  0  0  0  0  0  0  0  0
   -1.0336   -5.1468    0.5853 C   0  0  0  0  0  0  0  0  0  0  0  0
   -2.1107   -4.3021    0.5787 C   0  0  0  0  0  0  0  0  0  0  0  0
   -4.1972   -0.0864   -0.0361 C   0  0  0  0  0  0  0  0  0  0  0  0
   -1.5518    1.2575   -0.4068 C   0  0  1  0  0  0  0  0  0  0  0  0
   -2.2748    1.7068   -1.6753 C   0  0  0  0  0  0  0  0  0  0  0  0
   -1.9314    0.9470   -2.7070 O   0  0  0  0  0  0  0  0  0  0  0  0
   -3.0332    2.6351   -1.7462 O   0  0  0  0  0  0  0  0  0  0  0  0
   -2.0585    1.9226    0.7064 O   0  0  0  0  0  0  0  0  0  0  0  0
   -1.2879    2.9741    1.3107 C   0  0  1  0  0  0  0  0  0  0  0  0
   -1.0266    4.1207    0.3380 C   0  0  0  0  0  0  0  0  0  0  0  0
   -2.1669    3.4558    2.4575 C   0  0  0  0  0  0  0  0  0  0  0  0
    0.0325    2.4368    1.8549 C   0  0  0  0  0  0  0  0  0  0  0  0
    4.6367    1.0157   -1.1562 O   0  0  0  0  0  0  0  0  0  0  0  0
    5.4749    1.3734   -0.0603 C   0  0  0  0  0  0  0  0  0  0  0  0
    5.4142    0.3514    1.0539 C   0  0  0  0  0  0  0  0  0  0  0  0
    3.9840    0.2561    1.5648 C   0  0  0  0  0  0  0  0  0  0  0  0
    0.5773   -0.2003   -2.5768 H   0  0  0  0  0  0  0  0  0  0  0  0
    2.8441    0.6858   -2.9360 H   0  0  0  0  0  0  0  0  0  0  0  0
    1.4367   -0.6586    1.5872 H   0  0  0  0  0  0  0  0  0  0  0  0
    1.4428   -2.9578   -0.1719 H   0  0  0  0  0  0  0  0  0  0  0  0
    1.0997   -5.3310    0.3090 H   0  0  0  0  0  0  0  0  0  0  0  0
   -1.1713   -6.1997    0.7938 H   0  0  0  0  0  0  0  0  0  0  0  0
   -3.1106   -4.6653    0.7789 H   0  0  0  0  0  0  0  0  0  0  0  0
   -4.4394    0.1861   -1.0660 H   0  0  0  0  0  0  0  0  0  0  0  0
   -5.0105   -0.7078    0.3318 H   0  0  0  0  0  0  0  0  0  0  0  0
   -4.1640    0.8311    0.5466 H   0  0  0  0  0  0  0  0  0  0  0  0
   -0.4943    1.4943   -0.5818 H   0  0  0  0  0  0  0  0  0  0  0  0
   -2.3645    1.2628   -3.5148 H   0  0  0  0  0  0  0  0  0  0  0  0
   -1.9566    4.5422   -0.0411 H   0  0  0  0  0  0  0  0  0  0  0  0
   -0.4762    4.9118    0.8481 H   0  0  0  0  0  0  0  0  0  0  0  0
   -0.4180    3.8130   -0.5149 H   0  0  0  0  0  0  0  0  0  0  0  0
   -3.1335    3.8045    2.0909 H   0  0  0  0  0  0  0  0  0  0  0  0
   -2.3415    2.6584    3.1823 H   0  0  0  0  0  0  0  0  0  0  0  0
   -1.6877    4.2832    2.9814 H   0  0  0  0  0  0  0  0  0  0  0  0
    0.5557    3.2205    2.4043 H   0  0  0  0  0  0  0  0  0  0  0  0
   -0.1314    1.6001    2.5360 H   0  0  0  0  0  0  0  0  0  0  0  0
    0.7051    2.1060    1.0623 H   0  0  0  0  0  0  0  0  0  0  0  0
    6.4787    1.4633   -0.4730 H   0  0  0  0  0  0  0  0  0  0  0  0
    5.1761    2.3583    0.3164 H   0  0  0  0  0  0  0  0  0  0  0  0
    5.7562   -0.6194    0.6864 H   0  0  0  0  0  0  0  0  0  0  0  0
    6.0928    0.6523    1.8531 H   0  0  0  0  0  0  0  0  0  0  0  0
    3.7468    1.1455    2.1569 H   0  0  0  0  0  0  0  0  0  0  0  0
    3.8648   -0.5981    2.2335 H   0  0  0  0  0  0  0  0  0  0  0  0
 25 23  1  0
 26 23  1  0
 23 24  1  0
 23 22  1  6
 15 16  2  0
 15 14  1  0
  8  9  2  0
  8  7  1  0
 16  5  1  0
  9 10  1  0
 14 13  2  0
  5  4  2  0
  5  6  1  0
 22 18  1  0
 13  6  1  0
  4  3  1  0
  6  1  2  0
  3 17  1  0
  3  2  2  0
  1  2  1  0
  1  7  1  0
  2 18  1  0
  7 12  2  0
 18 19  1  0
 10 27  1  0
 10 11  2  0
 27 28  1  0
 12 11  1  0
 11 30  1  0
 19 21  2  0
 19 20  1  0
 28 29  1  0
 29 30  1  0
  8 31  1  0
  9 32  1  0
 12 33  1  0
 13 34  1  0
 14 35  1  0
 15 36  1  0
 16 37  1  0
 17 38  1  0
 17 39  1  0
 17 40  1  0
 18 41  1  6
 20 42  1  0
 24 43  1  0
 24 44  1  0
 24 45  1  0
 25 46  1  0
 25 47  1  0
 25 48  1  0
 26 49  1  0
 26 50  1  0
 26 51  1  0
 28 52  1  0
 28 53  1  0
 29 54  1  0
 29 55  1  0
 30 56  1  0
 30 57  1  0
M  END
