
     RDKit          3D

 17 17  0  0  0  0  0  0  0  0999 V2000
    0.8389   -2.5469   -0.0218 O   0  0  0  0  0  0  0  0  0  0  0  0
    0.6406   -1.3481   -0.0164 C   0  0  0  0  0  0  0  0  0  0  0  0
    1.6317   -0.4170   -0.0313 N   0  0  0  0  0  0  0  0  0  0  0  0
    1.4738    0.9750   -0.0229 C   0  0  0  0  0  0  0  0  0  0  0  0
    2.4766    1.6800   -0.0375 O   0  0  0  0  0  0  0  0  0  0  0  0
    0.1294    1.4205    0.0005 C   0  0  0  0  0  0  0  0  0  0  0  0
   -0.6307   -0.8242    0.0055 N   0  0  0  0  0  0  0  0  0  0  0  0
   -0.9088    0.5148    0.0127 C   0  0  0  0  0  0  0  0  0  0  0  0
   -2.1948    0.8716    0.0314 N   0  0  0  0  0  0  0  0  0  0  0  0
   -3.3214   -0.0323    0.0392 C   0  0  0  0  0  0  0  0  0  0  0  0
    2.5788   -0.7722   -0.0473 H   0  0  0  0  0  0  0  0  0  0  0  0
   -1.3777   -1.5042    0.0188 H   0  0  0  0  0  0  0  0  0  0  0  0
   -0.0759    2.4804    0.0057 H   0  0  0  0  0  0  0  0  0  0  0  0
   -2.3845    1.8594    0.0464 H   0  0  0  0  0  0  0  0  0  0  0  0
   -3.3459   -0.6673   -0.8484 H   0  0  0  0  0  0  0  0  0  0  0  0
   -3.3375   -0.6643    0.9291 H   0  0  0  0  0  0  0  0  0  0  0  0
   -4.2280    0.5644    0.0417 H   0  0  0  0  0  0  0  0  0  0  0  0
  1  2  2  0
  2  3  1  0
  2  7  1  0
  3  4  1  0
  4  5  2  0
  4  6  1  0
  6  8  2  0
  7  8  1  0
  8  9  1  0
  9 10  1  0
  3 11  1  0
  7 12  1  0
  6 13  1  0
  9 14  1  0
 10 15  1  0
 10 16  1  0
 10 17  1  0
M  END
