
     RDKit          3D

 52 55  0  0  0  0  0  0  0  0999 V2000
    3.5966   -2.0133   -1.7159 Cl  0  0  0  0  0  0  0  0  0  0  0  0
    3.1155   -2.1099   -0.0603 C   0  0  0  0  0  0  0  0  0  0  0  0
    2.7481   -3.3352    0.4705 C   0  0  0  0  0  0  0  0  0  0  0  0
    2.3317   -3.4106    1.7914 C   0  0  0  0  0  0  0  0  0  0  0  0
    2.2933   -2.2683    2.5781 C   0  0  0  0  0  0  0  0  0  0  0  0
    2.6801   -1.0498    2.0449 C   0  0  0  0  0  0  0  0  0  0  0  0
    3.0834   -0.9547    0.7185 C   0  0  0  0  0  0  0  0  0  0  0  0
    3.4789    0.2955    0.1787 N   0  0  0  0  0  0  0  0  0  0  0  0
    4.8253    0.4655   -0.1740 C   0  0  0  0  0  0  0  0  0  0  0  0
    5.0906    1.3225   -1.1468 N   0  0  0  0  0  0  0  0  0  0  0  0
    6.3578    1.4585   -1.4975 C   0  0  0  0  0  0  0  0  0  0  0  0
    7.3946    0.8116   -0.9888 N   0  0  0  0  0  0  0  0  0  0  0  0
    7.1154   -0.0500   -0.0158 C   0  0  0  0  0  0  0  0  0  0  0  0
    5.8322   -0.2650    0.4474 C   0  0  0  0  0  0  0  0  0  0  0  0
    2.6438    1.4092    0.3031 C   0  0  0  0  0  0  0  0  0  0  0  0
    3.0895    2.5249    0.4371 O   0  0  0  0  0  0  0  0  0  0  0  0
    1.1878    1.1410    0.2660 C   0  0  0  0  0  0  0  0  0  0  0  0
    0.3435    1.8977    1.0716 C   0  0  0  0  0  0  0  0  0  0  0  0
   -1.0296    1.7281    1.0396 C   0  0  0  0  0  0  0  0  0  0  0  0
    0.6251    0.2149   -0.6097 C   0  0  0  0  0  0  0  0  0  0  0  0
   -0.7428    0.0537   -0.6688 C   0  0  0  0  0  0  0  0  0  0  0  0
   -1.5905    0.7996    0.1581 C   0  0  0  0  0  0  0  0  0  0  0  0
   -2.9525    0.5404    0.0485 N   0  0  0  0  0  0  0  0  0  0  0  0
   -4.0016    1.2592    0.5431 C   0  0  0  0  0  0  0  0  0  0  0  0
   -3.8667    2.3111    1.1432 O   0  0  0  0  0  0  0  0  0  0  0  0
   -5.3444    0.6791    0.2819 C   0  0  0  0  0  0  0  0  0  0  0  0
   -6.4486    1.5359    0.2975 C   0  0  0  0  0  0  0  0  0  0  0  0
   -7.7202    1.0589    0.0683 C   0  0  0  0  0  0  0  0  0  0  0  0
   -7.9304   -0.3044   -0.1671 C   0  0  0  0  0  0  0  0  0  0  0  0
   -9.1965   -0.6798   -0.3854 O   0  0  0  0  0  0  0  0  0  0  0  0
   -9.4661   -2.0428   -0.6604 C   0  0  0  0  0  0  0  0  0  0  0  0
   -6.8412   -1.1745   -0.1583 C   0  0  0  0  0  0  0  0  0  0  0  0
   -5.5656   -0.6769    0.0615 C   0  0  0  0  0  0  0  0  0  0  0  0
    2.7806   -4.2221   -0.1473 H   0  0  0  0  0  0  0  0  0  0  0  0
    2.0396   -4.3675    2.2018 H   0  0  0  0  0  0  0  0  0  0  0  0
    1.9759   -2.3257    3.6101 H   0  0  0  0  0  0  0  0  0  0  0  0
    2.6759   -0.1608    2.6628 H   0  0  0  0  0  0  0  0  0  0  0  0
    5.6425   -0.9641    1.2487 H   0  0  0  0  0  0  0  0  0  0  0  0
    6.5636    2.1665   -2.2929 H   0  0  0  0  0  0  0  0  0  0  0  0
    7.9485   -0.5892    0.4199 H   0  0  0  0  0  0  0  0  0  0  0  0
    0.7619    2.6243    1.7561 H   0  0  0  0  0  0  0  0  0  0  0  0
    1.2465   -0.3625   -1.2811 H   0  0  0  0  0  0  0  0  0  0  0  0
   -1.6471    2.3154    1.6975 H   0  0  0  0  0  0  0  0  0  0  0  0
   -1.1649   -0.6568   -1.3691 H   0  0  0  0  0  0  0  0  0  0  0  0
   -3.1814   -0.2286   -0.5627 H   0  0  0  0  0  0  0  0  0  0  0  0
   -6.3080    2.5933    0.4772 H   0  0  0  0  0  0  0  0  0  0  0  0
   -4.7490   -1.3878    0.0826 H   0  0  0  0  0  0  0  0  0  0  0  0
   -8.5648    1.7359    0.0669 H   0  0  0  0  0  0  0  0  0  0  0  0
   -6.9637   -2.2374   -0.3133 H   0  0  0  0  0  0  0  0  0  0  0  0
   -8.9384   -2.3866   -1.5529 H   0  0  0  0  0  0  0  0  0  0  0  0
   -9.1994   -2.6872    0.1805 H   0  0  0  0  0  0  0  0  0  0  0  0
  -10.5363   -2.1155   -0.8339 H   0  0  0  0  0  0  0  0  0  0  0  0
  1  2  1  0
  2  3  2  0
  2  7  1  0
  3  4  1  0
  4  5  2  0
  5  6  1  0
  6  7  2  0
  7  8  1  0
  8  9  1  0
  8 15  1  0
  9 10  2  0
  9 14  1  0
 10 11  1  0
 11 12  2  0
 12 13  1  0
 13 14  2  0
 15 16  2  0
 15 17  1  0
 17 18  2  0
 17 20  1  0
 18 19  1  0
 19 22  2  0
 20 21  2  0
 21 22  1  0
 22 23  1  0
 23 24  1  0
 24 25  2  0
 24 26  1  0
 26 27  2  0
 26 33  1  0
 27 28  1  0
 28 29  2  0
 29 30  1  0
 29 32  1  0
 30 31  1  0
 32 33  2  0
  3 34  1  0
  4 35  1  0
  5 36  1  0
  6 37  1  0
 14 38  1  0
 11 39  1  0
 13 40  1  0
 18 41  1  0
 20 42  1  0
 19 43  1  0
 21 44  1  0
 23 45  1  0
 27 46  1  0
 33 47  1  0
 28 48  1  0
 32 49  1  0
 31 50  1  0
 31 51  1  0
 31 52  1  0
M  END
