
     RDKit          3D

 24 24  0  0  0  0  0  0  0  0999 V2000
   -0.8221   -0.7459   -1.6319 C   0  0  2  0  0  0  0  0  0  0  0  0
    0.7378   -0.7459   -1.6319 C   0  0  1  0  0  0  0  0  0  0  0  0
    1.3594   -0.7459   -0.1046 C   0  0  2  0  0  0  0  0  0  0  0  0
    0.7531    0.4547    0.8043 C   0  0  1  0  0  0  0  0  0  0  0  0
   -0.7918    0.4545    0.8136 C   0  0  1  0  0  0  0  0  0  0  0  0
   -1.3111    1.7849    1.5896 C   0  0  0  0  0  0  0  0  0  0  0  0
   -1.4276    0.4502   -0.7320 S   0  0  0  0  0  0  0  0  0  0  0  0
   -1.3072   -2.0621   -1.0794 O   0  0  0  0  0  0  0  0  0  0  0  0
    1.1705   -1.8316   -2.2757 O   0  0  0  0  0  0  0  0  0  0  0  0
    2.6506   -0.6121   -0.1742 O   0  0  0  0  0  0  0  0  0  0  0  0
    1.2008    0.3114    2.0777 O   0  0  0  0  0  0  0  0  0  0  0  0
   -2.7151    1.8646    1.4968 O   0  0  0  0  0  0  0  0  0  0  0  0
   -1.1739   -0.6328   -2.6502 H   0  0  0  0  0  0  0  0  0  0  0  0
    1.0869    0.1386   -2.1509 H   0  0  0  0  0  0  0  0  0  0  0  0
    1.1251   -1.6925    0.3670 H   0  0  0  0  0  0  0  0  0  0  0  0
    1.1001    1.4018    0.4091 H   0  0  0  0  0  0  0  0  0  0  0  0
   -1.1402   -0.4261    1.3396 H   0  0  0  0  0  0  0  0  0  0  0  0
   -1.0205    1.7316    2.6318 H   0  0  0  0  0  0  0  0  0  0  0  0
   -0.8687    2.6635    1.1358 H   0  0  0  0  0  0  0  0  0  0  0  0
   -2.1118   -2.3051   -1.5069 H   0  0  0  0  0  0  0  0  0  0  0  0
    1.5436   -1.5783   -3.1038 H   0  0  0  0  0  0  0  0  0  0  0  0
    3.0657   -1.3906    0.1584 H   0  0  0  0  0  0  0  0  0  0  0  0
    1.9175    0.9054    2.2277 H   0  0  0  0  0  0  0  0  0  0  0  0
   -3.0210    2.6078    1.9900 H   0  0  0  0  0  0  0  0  0  0  0  0
  1  2  1  0
  1  7  1  0
  1  8  1  0
  1 13  1  6
  2  3  1  0
  2  9  1  0
  2 14  1  6
  3  4  1  0
  3 10  1  0
  3 15  1  1
  4  5  1  0
  4 11  1  0
  4 16  1  6
  5  6  1  0
  5  7  1  0
  5 17  1  1
  6 12  1  0
  6 18  1  0
  6 19  1  0
  8 20  1  0
  9 21  1  0
 10 22  1  0
 11 23  1  0
 12 24  1  0
M  END
