
     RDKit          3D

 47 51  0  0  0  0  0  0  0  0999 V2000
    0.2081    4.0820   -1.3406 C   0  0  0  0  0  0  0  0  0  0  0  0
   -0.9194    3.5178   -0.7790 C   0  0  0  0  0  0  0  0  0  0  0  0
   -0.8574    2.2588   -0.1839 C   0  0  0  0  0  0  0  0  0  0  0  0
    0.3626    1.5799   -0.1440 C   0  0  0  0  0  0  0  0  0  0  0  0
    1.4935    2.1302   -0.7350 C   0  0  0  0  0  0  0  0  0  0  0  0
   -0.7971   -0.2713    0.8749 C   0  0  0  0  0  0  0  0  0  0  0  0
   -2.1017    1.6541    0.3275 C   0  0  0  0  0  0  0  0  0  0  0  0
   -3.9602   -1.1212   -1.2183 C   0  0  0  0  0  0  0  0  0  0  0  0
   -4.9107   -1.2250   -2.2232 C   0  0  0  0  0  0  0  0  0  0  0  0
   -6.1674   -0.6726   -2.0304 C   0  0  0  0  0  0  0  0  0  0  0  0
   -6.4628   -0.0221   -0.8407 C   0  0  0  0  0  0  0  0  0  0  0  0
    2.7853   -0.4008    0.6928 C   0  0  0  0  0  0  0  0  0  0  0  0
    3.5117   -1.2735   -0.0987 C   0  0  0  0  0  0  0  0  0  0  0  0
    4.8964   -1.1707   -0.1971 C   0  0  0  0  0  0  0  0  0  0  0  0
    5.6126   -2.1326   -1.0611 C   0  0  0  0  0  0  0  0  0  0  0  0
    5.5494   -0.1697    0.5221 C   0  0  0  0  0  0  0  0  0  0  0  0
    4.8398    0.7002    1.3278 C   0  0  0  0  0  0  0  0  0  0  0  0
    3.4561    0.5855    1.4296 C   0  0  0  0  0  0  0  0  0  0  0  0
    1.4077    3.3777   -1.3258 C   0  0  0  0  0  0  0  0  0  0  0  0
    0.3561    0.3354    0.4896 N   0  0  0  0  0  0  0  0  0  0  0  0
   -2.0088    0.3418    0.7279 N   0  0  0  0  0  0  0  0  0  0  0  0
   -3.1636    2.2404    0.3587 O   0  0  0  0  0  0  0  0  0  0  0  0
   -3.2252   -0.3796    1.1011 C   0  0  0  0  0  0  0  0  0  0  0  0
   -4.2269   -0.4674   -0.0188 C   0  0  0  0  0  0  0  0  0  0  0  0
   -5.4954    0.0804    0.1461 C   0  0  0  0  0  0  0  0  0  0  0  0
   -0.5646   -1.4398    1.3886 N   0  0  0  0  0  0  0  0  0  0  0  0
    0.7805   -1.6175    1.3577 N   0  0  0  0  0  0  0  0  0  0  0  0
    1.3376   -0.5700    0.8362 C   0  0  0  0  0  0  0  0  0  0  0  0
    6.9241   -1.9367   -1.0790 O   0  0  0  0  0  0  0  0  0  0  0  0
    5.0667   -3.0107   -1.6873 O   0  0  0  0  0  0  0  0  0  0  0  0
    2.7088    1.3798    2.1970 O   0  0  0  0  0  0  0  0  0  0  0  0
    0.1536    5.0567   -1.8050 H   0  0  0  0  0  0  0  0  0  0  0  0
   -1.8643    4.0426   -0.8097 H   0  0  0  0  0  0  0  0  0  0  0  0
    2.4305    1.5964   -0.7614 H   0  0  0  0  0  0  0  0  0  0  0  0
   -4.6724   -1.7397   -3.1443 H   0  0  0  0  0  0  0  0  0  0  0  0
   -6.9121   -0.7555   -2.8105 H   0  0  0  0  0  0  0  0  0  0  0  0
   -7.4412    0.4118   -0.6839 H   0  0  0  0  0  0  0  0  0  0  0  0
    2.9853   -2.0411   -0.6504 H   0  0  0  0  0  0  0  0  0  0  0  0
    6.6231   -0.0565    0.4652 H   0  0  0  0  0  0  0  0  0  0  0  0
    5.3628    1.4670    1.8860 H   0  0  0  0  0  0  0  0  0  0  0  0
    2.2901    3.8005   -1.7864 H   0  0  0  0  0  0  0  0  0  0  0  0
   -2.9220   -1.3756    1.4194 H   0  0  0  0  0  0  0  0  0  0  0  0
   -3.6771    0.1106    1.9633 H   0  0  0  0  0  0  0  0  0  0  0  0
   -5.7240    0.5968    1.0697 H   0  0  0  0  0  0  0  0  0  0  0  0
    7.3483   -2.5925   -1.6520 H   0  0  0  0  0  0  0  0  0  0  0  0
    3.2493    2.0403    2.6480 H   0  0  0  0  0  0  0  0  0  0  0  0
   -2.4070   -1.8487   -1.4836 Cl  0  0  0  0  0  0  0  0  0  0  0  0
 17 16  2  0
 17 18  1  0
 31 18  1  0
 16 14  1  0
 18 12  2  0
 30 15  2  0
 14 15  1  0
 14 13  2  0
 12 13  1  0
 12 28  1  0
 15 29  1  0
 27 28  2  0
 27 26  1  0
 28 20  1  0
 26  6  2  0
 20  4  1  0
 20  6  1  0
  5 19  1  0
  5  4  2  0
 19  1  2  0
  4  3  1  0
  6 21  1  0
  1  2  1  0
  3  2  2  0
  3  7  1  0
 21 23  1  0
 21  7  1  0
 23 24  1  0
  7 22  2  0
 47  8  1  0
 24  8  2  0
 24 25  1  0
  8  9  1  0
 25 11  2  0
  9 10  2  0
 11 10  1  0
  1 32  1  0
  2 33  1  0
  5 34  1  0
  9 35  1  0
 10 36  1  0
 11 37  1  0
 13 38  1  0
 16 39  1  0
 17 40  1  0
 19 41  1  0
 23 42  1  0
 23 43  1  0
 25 44  1  0
 29 45  1  0
 31 46  1  0
M  END
