
     RDKit          3D

 31 32  0  0  0  0  0  0  0  0999 V2000
    2.1055    1.0696   -0.3065 C   0  0  0  0  0  0  0  0  0  0  0  0
    0.7575    0.8168   -0.3346 C   0  0  0  0  0  0  0  0  0  0  0  0
    2.4639   -1.1812    0.3338 C   0  0  0  0  0  0  0  0  0  0  0  0
    3.0145    0.0564    0.0185 C   0  0  0  0  0  0  0  0  0  0  0  0
    0.3105   -0.4863   -0.0282 C   0  0  0  0  0  0  0  0  0  0  0  0
    4.4658    0.3617    0.0472 C   0  0  0  0  0  0  0  0  0  0  0  0
   -2.5161    0.8310    1.0083 C   0  0  0  0  0  0  0  0  0  0  0  0
   -3.9774    1.1580    0.7377 C   0  0  0  0  0  0  0  0  0  0  0  0
   -3.3783   -0.6906   -0.7030 C   0  0  0  0  0  0  0  0  0  0  0  0
   -2.1012    0.0523   -0.2524 C   0  0  2  0  0  0  0  0  0  0  0  0
   -4.5102   -0.1666    0.1902 C   0  0  2  0  0  0  0  0  0  0  0  0
    1.1721   -1.4533    0.3150 N   0  0  0  0  0  0  0  0  0  0  0  0
    5.3081   -0.6847    0.1150 N   0  0  0  0  0  0  0  0  0  0  0  0
   -0.9871   -0.8463   -0.0767 N   0  0  0  0  0  0  0  0  0  0  0  0
    4.8690    1.5189    0.0164 O   0  0  0  0  0  0  0  0  0  0  0  0
   -5.7098   -0.0787   -0.5411 O   0  0  0  0  0  0  0  0  0  0  0  0
    2.4648    2.0626   -0.5422 H   0  0  0  0  0  0  0  0  0  0  0  0
    0.0629    1.6059   -0.5835 H   0  0  0  0  0  0  0  0  0  0  0  0
    3.0938   -2.0106    0.6414 H   0  0  0  0  0  0  0  0  0  0  0  0
   -2.4317    0.1795    1.8831 H   0  0  0  0  0  0  0  0  0  0  0  0
   -4.5171    1.5034    1.6212 H   0  0  0  0  0  0  0  0  0  0  0  0
   -4.0599    1.9336   -0.0309 H   0  0  0  0  0  0  0  0  0  0  0  0
   -3.5952   -0.4718   -1.7498 H   0  0  0  0  0  0  0  0  0  0  0  0
   -3.2683   -1.7736   -0.6203 H   0  0  0  0  0  0  0  0  0  0  0  0
   -1.8386    0.7734   -1.0297 H   0  0  0  0  0  0  0  0  0  0  0  0
   -4.6295   -0.8538    1.0393 H   0  0  0  0  0  0  0  0  0  0  0  0
    5.0094   -1.6366    0.0003 H   0  0  0  0  0  0  0  0  0  0  0  0
    6.3011   -0.5193    0.1050 H   0  0  0  0  0  0  0  0  0  0  0  0
   -1.1893   -1.7694    0.2767 H   0  0  0  0  0  0  0  0  0  0  0  0
   -6.4182    0.1396    0.0719 H   0  0  0  0  0  0  0  0  0  0  0  0
   -1.8933    1.7077    1.1885 H   0  0  0  0  0  0  0  0  0  0  0  0
 16 11  1  0
 11  8  1  0
 11  9  1  0
  8  7  1  0
  9 10  1  0
  7 10  1  0
 10 14  1  0
 14  5  1  0
  2  5  1  0
  2  1  2  0
  5 12  2  0
  1  4  1  0
 12  3  1  0
  4  3  2  0
  4  6  1  0
  6 15  2  0
  6 13  1  0
  1 17  1  0
  2 18  1  0
  3 19  1  0
  7 31  1  0
  7 20  1  0
  8 21  1  0
  8 22  1  0
  9 23  1  0
  9 24  1  0
 10 25  1  6
 11 26  1  1
 13 27  1  0
 13 28  1  0
 14 29  1  0
 16 30  1  0
M  END
