
     RDKit          3D

 67 68  0  0  0  0  0  0  0  0999 V2000
   -0.9429    1.5163   -0.5007 C   0  0  0  0  0  0  0  0  0  0  0  0
   -2.3656    1.5224   -0.5752 C   0  0  0  0  0  0  0  0  0  0  0  0
   -3.5671    1.5311   -0.6589 C   0  0  0  0  0  0  0  0  0  0  0  0
   -5.0186    1.5701   -0.7824 C   0  0  0  0  0  0  0  0  0  0  0  0
   -5.6022    0.2793   -0.4931 N   0  0  0  0  0  0  0  0  0  0  0  0
    1.1896    0.5797   -1.1960 C   0  0  0  0  0  0  0  0  0  0  0  0
    2.6965   -1.3644   -1.1636 N   0  0  0  0  0  0  0  0  0  0  0  0
    3.2003    1.5126   -0.4580 O   0  0  0  0  0  0  0  0  0  0  0  0
   -0.2716    2.4496    0.2836 C   0  0  0  0  0  0  0  0  0  0  0  0
    1.9619   -0.4351   -1.9958 C   0  0  0  0  0  0  0  0  0  0  0  0
    4.4169   -4.8002    0.7072 N   0  0  0  0  0  0  0  0  0  0  0  0
    3.6000   -2.1708   -1.9565 C   0  0  0  0  0  0  0  0  0  0  0  0
   -0.1912    0.5863   -1.2247 C   0  0  0  0  0  0  0  0  0  0  0  0
    1.1134    2.4544    0.3178 C   0  0  0  0  0  0  0  0  0  0  0  0
    1.8673    1.5384   -0.4219 C   0  0  0  0  0  0  0  0  0  0  0  0
    4.4677   -3.0695   -1.0890 C   0  0  0  0  0  0  0  0  0  0  0  0
    3.6170   -3.9941   -0.2188 C   0  0  2  0  0  0  0  0  0  0  0  0
    3.6244   -5.8230    1.3759 C   0  0  0  0  0  0  0  0  0  0  0  0
    4.3004   -6.4106    2.6056 C   0  0  0  0  0  0  0  0  0  0  0  0
    5.6575   -5.3341    0.1650 C   0  0  0  0  0  0  0  0  0  0  0  0
    5.5392   -6.3636   -0.9594 C   0  0  0  0  0  0  0  0  0  0  0  0
    2.6344   -3.1084    0.5532 C   0  0  0  0  0  0  0  0  0  0  0  0
    1.8285   -2.2043   -0.3643 C   0  0  0  0  0  0  0  0  0  0  0  0
    2.0696    3.8954    1.5197 I   0  0  0  0  0  0  0  0  0  0  0  0
   -6.8970    0.1684   -0.1184 C   0  0  0  0  0  0  0  0  0  0  0  0
   -7.2485   -1.1134   -0.0582 O   0  0  0  0  0  0  0  0  0  0  0  0
   -8.5875   -1.5430    0.3096 C   0  0  1  0  0  0  0  0  0  0  0  0
   -9.6152   -1.0447   -0.6989 C   0  0  0  0  0  0  0  0  0  0  0  0
   -8.4903   -3.0620    0.2415 C   0  0  0  0  0  0  0  0  0  0  0  0
   -8.9320   -1.1133    1.7309 C   0  0  0  0  0  0  0  0  0  0  0  0
   -7.6100    1.1179    0.1359 O   0  0  0  0  0  0  0  0  0  0  0  0
   -0.8375    3.1715    0.8561 H   0  0  0  0  0  0  0  0  0  0  0  0
   -0.7048   -0.1509   -1.8291 H   0  0  0  0  0  0  0  0  0  0  0  0
   -5.4171    2.3078   -0.0846 H   0  0  0  0  0  0  0  0  0  0  0  0
   -5.2836    1.9161   -1.7877 H   0  0  0  0  0  0  0  0  0  0  0  0
   -5.1208   -0.5415   -0.8252 H   0  0  0  0  0  0  0  0  0  0  0  0
    1.2579   -0.9539   -2.6690 H   0  0  0  0  0  0  0  0  0  0  0  0
    2.6773    0.0809   -2.6425 H   0  0  0  0  0  0  0  0  0  0  0  0
    3.0527   -2.7946   -2.6881 H   0  0  0  0  0  0  0  0  0  0  0  0
    4.2444   -1.5057   -2.5364 H   0  0  0  0  0  0  0  0  0  0  0  0
    1.1798   -1.5730    0.2461 H   0  0  0  0  0  0  0  0  0  0  0  0
    1.1624   -2.8172   -1.0004 H   0  0  0  0  0  0  0  0  0  0  0  0
    3.5967    2.2544    0.0169 H   0  0  0  0  0  0  0  0  0  0  0  0
    3.0328   -4.6407   -0.9010 H   0  0  0  0  0  0  0  0  0  0  0  0
    2.6884   -5.3719    1.7011 H   0  0  0  0  0  0  0  0  0  0  0  0
    3.3350   -6.6391    0.6946 H   0  0  0  0  0  0  0  0  0  0  0  0
    6.2818   -4.5053   -0.1712 H   0  0  0  0  0  0  0  0  0  0  0  0
    6.2165   -5.7832    0.9887 H   0  0  0  0  0  0  0  0  0  0  0  0
    5.1226   -3.6321   -1.7566 H   0  0  0  0  0  0  0  0  0  0  0  0
    5.1062   -2.4515   -0.4499 H   0  0  0  0  0  0  0  0  0  0  0  0
    1.9282   -3.7001    1.1372 H   0  0  0  0  0  0  0  0  0  0  0  0
    3.2010   -2.4945    1.2601 H   0  0  0  0  0  0  0  0  0  0  0  0
    4.6286   -5.6190    3.2808 H   0  0  0  0  0  0  0  0  0  0  0  0
    3.5955   -7.0430    3.1464 H   0  0  0  0  0  0  0  0  0  0  0  0
    5.1652   -7.0285    2.3637 H   0  0  0  0  0  0  0  0  0  0  0  0
    5.0153   -7.2652   -0.6395 H   0  0  0  0  0  0  0  0  0  0  0  0
    5.0118   -5.9676   -1.8290 H   0  0  0  0  0  0  0  0  0  0  0  0
    6.5338   -6.6663   -1.2896 H   0  0  0  0  0  0  0  0  0  0  0  0
   -9.3468   -1.3449   -1.7130 H   0  0  0  0  0  0  0  0  0  0  0  0
  -10.5840   -1.4899   -0.4685 H   0  0  0  0  0  0  0  0  0  0  0  0
   -9.7335    0.0364   -0.6733 H   0  0  0  0  0  0  0  0  0  0  0  0
   -7.7489   -3.4445    0.9447 H   0  0  0  0  0  0  0  0  0  0  0  0
   -9.4525   -3.5054    0.4974 H   0  0  0  0  0  0  0  0  0  0  0  0
   -8.2233   -3.4002   -0.7610 H   0  0  0  0  0  0  0  0  0  0  0  0
   -9.0955   -0.0418    1.8163 H   0  0  0  0  0  0  0  0  0  0  0  0
   -9.8479   -1.6174    2.0412 H   0  0  0  0  0  0  0  0  0  0  0  0
   -8.1450   -1.4052    2.4284 H   0  0  0  0  0  0  0  0  0  0  0  0
  1  2  1  0
  1  9  2  0
  1 13  1  0
  2  3  3  0
  3  4  1  0
  4  5  1  0
  5 25  1  0
  6 10  1  0
  6 13  2  0
  6 15  1  0
  7 10  1  0
  7 12  1  0
  7 23  1  0
  8 15  1  0
  9 14  1  0
 11 17  1  0
 11 18  1  0
 11 20  1  0
 12 16  1  0
 14 15  2  0
 14 24  1  0
 16 17  1  0
 17 22  1  0
 18 19  1  0
 20 21  1  0
 22 23  1  0
 25 26  1  0
 25 31  2  0
 27 26  1  6
 27 28  1  0
 27 29  1  0
 27 30  1  0
  9 32  1  0
 13 33  1  0
  4 34  1  0
  4 35  1  0
  5 36  1  0
 10 37  1  0
 10 38  1  0
 12 39  1  0
 12 40  1  0
 23 41  1  0
 23 42  1  0
  8 43  1  0
 17 44  1  6
 18 45  1  0
 18 46  1  0
 20 47  1  0
 20 48  1  0
 16 49  1  0
 16 50  1  0
 22 51  1  0
 22 52  1  0
 19 53  1  0
 19 54  1  0
 19 55  1  0
 21 56  1  0
 21 57  1  0
 21 58  1  0
 28 59  1  0
 28 60  1  0
 28 61  1  0
 29 62  1  0
 29 63  1  0
 29 64  1  0
 30 65  1  0
 30 66  1  0
 30 67  1  0
M  END
