
     RDKit          3D

 51 52  0  0  0  0  0  0  0  0999 V2000
   -6.2163    1.2966   -0.1318 C   0  0  0  0  0  0  0  0  0  0  0  0
   -6.9476    0.3975   -1.0400 C   0  0  0  0  0  0  0  0  0  0  0  0
   -8.0933    0.9050   -1.4771 O   0  0  0  0  0  0  0  0  0  0  0  0
   -6.5706   -0.7072   -1.3789 O   0  0  0  0  0  0  0  0  0  0  0  0
   -6.8450    2.4551    0.3460 C   0  0  0  0  0  0  0  0  0  0  0  0
   -6.2096    3.3280    1.2010 C   0  0  0  0  0  0  0  0  0  0  0  0
   -4.9090    3.0366    1.6068 C   0  0  0  0  0  0  0  0  0  0  0  0
   -4.2638    1.9053    1.1590 C   0  0  0  0  0  0  0  0  0  0  0  0
   -4.8872    1.0091    0.2723 C   0  0  0  0  0  0  0  0  0  0  0  0
   -4.2419   -0.1189   -0.1566 N   0  0  0  0  0  0  0  0  0  0  0  0
   -2.8709   -0.3557   -0.1172 C   0  0  0  0  0  0  0  0  0  0  0  0
   -1.9710    0.6571   -0.4446 C   0  0  0  0  0  0  0  0  0  0  0  0
   -0.6020    0.4606   -0.4324 C   0  0  0  0  0  0  0  0  0  0  0  0
   -0.0818   -0.7900   -0.1064 C   0  0  0  0  0  0  0  0  0  0  0  0
   -0.9616   -1.8153    0.2124 C   0  0  0  0  0  0  0  0  0  0  0  0
   -2.3409   -1.6184    0.2163 C   0  0  0  0  0  0  0  0  0  0  0  0
   -3.2272   -2.7573    0.5555 C   0  0  0  0  0  0  0  0  0  0  0  0
   -4.3909   -2.8407    0.2368 O   0  0  0  0  0  0  0  0  0  0  0  0
   -2.6089   -3.7003    1.2535 O   0  0  0  0  0  0  0  0  0  0  0  0
    1.2294   -1.0932   -0.0841 O   0  0  0  0  0  0  0  0  0  0  0  0
    2.1779   -0.0567   -0.2898 C   0  0  0  0  0  0  0  0  0  0  0  0
    3.5616   -0.6531   -0.1408 C   0  0  0  0  0  0  0  0  0  0  0  0
    4.6483    0.4080   -0.2604 C   0  0  0  0  0  0  0  0  0  0  0  0
    6.0454   -0.1845   -0.1237 C   0  0  0  0  0  0  0  0  0  0  0  0
    7.1248    0.8939   -0.1930 C   0  0  0  0  0  0  0  0  0  0  0  0
    8.7843    0.2152   -0.0396 P   0  0  1  0  0  0  0  0  0  0  0  0
    9.1596   -0.8307   -1.0224 O   0  0  0  0  0  0  0  0  0  0  0  0
    9.6766    1.5541   -0.0645 O   0  0  0  0  0  0  0  0  0  0  0  0
    8.9085   -0.3974    1.4459 O   0  0  0  0  0  0  0  0  0  0  0  0
   -8.5342    0.2628   -2.0525 H   0  0  0  0  0  0  0  0  0  0  0  0
   -7.8590    2.6714    0.0414 H   0  0  0  0  0  0  0  0  0  0  0  0
   -6.7162    4.2141    1.5571 H   0  0  0  0  0  0  0  0  0  0  0  0
   -4.3946    3.6940    2.2959 H   0  0  0  0  0  0  0  0  0  0  0  0
   -3.2663    1.6960    1.5189 H   0  0  0  0  0  0  0  0  0  0  0  0
   -4.8268   -0.8518   -0.5318 H   0  0  0  0  0  0  0  0  0  0  0  0
   -2.3483    1.6286   -0.7346 H   0  0  0  0  0  0  0  0  0  0  0  0
    0.0384    1.2899   -0.7003 H   0  0  0  0  0  0  0  0  0  0  0  0
   -0.5501   -2.7853    0.4573 H   0  0  0  0  0  0  0  0  0  0  0  0
   -3.2143   -4.4399    1.4123 H   0  0  0  0  0  0  0  0  0  0  0  0
    2.0590    0.3806   -1.2880 H   0  0  0  0  0  0  0  0  0  0  0  0
    2.0254    0.7450    0.4427 H   0  0  0  0  0  0  0  0  0  0  0  0
    3.6395   -1.1459    0.8326 H   0  0  0  0  0  0  0  0  0  0  0  0
    3.7107   -1.4226   -0.9034 H   0  0  0  0  0  0  0  0  0  0  0  0
    4.5658    0.9227   -1.2231 H   0  0  0  0  0  0  0  0  0  0  0  0
    4.5017    1.1705    0.5110 H   0  0  0  0  0  0  0  0  0  0  0  0
    6.1164   -0.7239    0.8248 H   0  0  0  0  0  0  0  0  0  0  0  0
    6.2079   -0.9213   -0.9145 H   0  0  0  0  0  0  0  0  0  0  0  0
    7.0705    1.4247   -1.1472 H   0  0  0  0  0  0  0  0  0  0  0  0
    6.9712    1.6401    0.5912 H   0  0  0  0  0  0  0  0  0  0  0  0
   10.6298    1.3923   -0.0859 H   0  0  0  0  0  0  0  0  0  0  0  0
    8.7215    0.2211    2.1641 H   0  0  0  0  0  0  0  0  0  0  0  0
 21 22  1  0
 21 20  1  0
 22 23  1  0
 13 12  2  0
 13 14  1  0
 20 14  1  0
 23 24  1  0
 12 11  1  0
 14 15  2  0
 24 25  1  0
 27 26  2  0
  7  8  2  0
  7  6  1  0
  8  9  1  0
  6  5  2  0
 25 26  1  0
 11 10  1  0
 11 16  2  0
  9 10  1  0
  9  1  2  0
 15 16  1  0
  5  1  1  0
 26 29  1  1
 26 28  1  0
  1  2  1  0
 16 17  1  0
  2  4  2  0
  2  3  1  0
 17 18  2  0
 17 19  1  0
  3 30  1  0
  5 31  1  0
  6 32  1  0
  7 33  1  0
  8 34  1  0
 10 35  1  0
 12 36  1  0
 13 37  1  0
 15 38  1  0
 19 39  1  0
 21 40  1  0
 21 41  1  0
 22 42  1  0
 22 43  1  0
 23 44  1  0
 23 45  1  0
 24 46  1  0
 24 47  1  0
 25 48  1  0
 25 49  1  0
 28 50  1  0
 29 51  1  0
M  END
