
     RDKit          3D

 14 14  0  0  0  0  0  0  0  0999 V2000
   -3.0321   -0.7456    0.0211 N   0  0  0  0  0  0  0  0  0  0  0  0
   -1.8888   -0.5969    0.0194 C   0  0  0  0  0  0  0  0  0  0  0  0
   -0.4762   -0.4287    0.0215 C   0  0  0  0  0  0  0  0  0  0  0  0
    0.3670   -1.5396   -0.0556 C   0  0  0  0  0  0  0  0  0  0  0  0
    1.7374   -1.3690   -0.0517 C   0  0  0  0  0  0  0  0  0  0  0  0
    2.2637   -0.0830    0.0292 C   0  0  0  0  0  0  0  0  0  0  0  0
    1.4391    1.0266    0.1054 C   0  0  0  0  0  0  0  0  0  0  0  0
    0.0569    0.8647    0.1032 C   0  0  0  0  0  0  0  0  0  0  0  0
   -0.8080    1.8795    0.1746 O   0  0  0  0  0  0  0  0  0  0  0  0
   -0.0651   -2.5294   -0.1185 H   0  0  0  0  0  0  0  0  0  0  0  0
    2.3927   -2.2261   -0.1121 H   0  0  0  0  0  0  0  0  0  0  0  0
    3.3362    0.0595    0.0322 H   0  0  0  0  0  0  0  0  0  0  0  0
    1.8671    2.0199    0.1685 H   0  0  0  0  0  0  0  0  0  0  0  0
   -0.3452    2.7251    0.2180 H   0  0  0  0  0  0  0  0  0  0  0  0
  1  2  3  0
  4  5  1  0
  4  3  2  0
  2  3  1  0
  5  6  2  0
  3  8  1  0
  6  7  1  0
  8  7  2  0
  8  9  1  0
  4 10  1  0
  5 11  1  0
  6 12  1  0
  7 13  1  0
  9 14  1  0
M  END
