
     RDKit          3D

 63 65  0  0  0  0  0  0  0  0999 V2000
   -4.6622    0.8195    0.1303 C   0  0  0  0  0  0  0  0  0  0  0  0
   -5.7869    0.2432   -0.7088 C   0  0  0  0  0  0  0  0  0  0  0  0
   -5.2799   -0.7321   -1.6504 N   0  0  0  0  0  0  0  0  0  0  0  0
   -6.3148   -1.2163   -2.5358 C   0  0  0  0  0  0  0  0  0  0  0  0
   -4.6291   -1.8146   -0.9446 C   0  0  0  0  0  0  0  0  0  0  0  0
   -3.4809   -1.2923   -0.1027 C   0  0  0  0  0  0  0  0  0  0  0  0
   -3.9864   -0.2776    0.8250 N   0  0  0  0  0  0  0  0  0  0  0  0
   -2.9775    0.1338    2.0724 S   0  0  1  0  0  0  0  0  0  0  0  0
   -3.6450    1.1775    2.8324 O   0  0  0  0  0  0  0  0  0  0  0  0
   -2.5958   -1.1043    2.7314 O   0  0  0  0  0  0  0  0  0  0  0  0
   -1.5306    0.8255    1.3367 C   0  0  0  0  0  0  0  0  0  0  0  0
   -0.4603   -0.0011    1.0183 C   0  0  0  0  0  0  0  0  0  0  0  0
   -1.4839    2.1780    1.0291 C   0  0  0  0  0  0  0  0  0  0  0  0
   -0.3750    2.7064    0.3923 C   0  0  0  0  0  0  0  0  0  0  0  0
    0.7064    1.8872    0.0643 C   0  0  0  0  0  0  0  0  0  0  0  0
    1.7946    2.3048   -0.5695 O   0  0  0  0  0  0  0  0  0  0  0  0
    1.9069    3.6664   -0.9784 C   0  0  0  0  0  0  0  0  0  0  0  0
    3.2531    3.8380   -1.6487 C   0  0  0  0  0  0  0  0  0  0  0  0
    3.4476    5.2688   -2.1309 C   0  0  0  0  0  0  0  0  0  0  0  0
    0.6593    0.5206    0.3950 C   0  0  0  0  0  0  0  0  0  0  0  0
    1.8017   -0.3653    0.0863 C   0  0  0  0  0  0  0  0  0  0  0  0
    2.9751   -0.1148    0.5563 N   0  0  0  0  0  0  0  0  0  0  0  0
    1.5398   -1.4508   -0.6717 N   0  0  0  0  0  0  0  0  0  0  0  0
    2.4920   -2.3983   -1.0133 C   0  0  0  0  0  0  0  0  0  0  0  0
    2.1769   -3.3683   -1.6889 O   0  0  0  0  0  0  0  0  0  0  0  0
    3.8135   -2.0988   -0.5150 C   0  0  0  0  0  0  0  0  0  0  0  0
    4.9091   -3.0659   -0.8521 C   0  0  0  0  0  0  0  0  0  0  0  0
    4.9926   -4.2191    0.1474 C   0  0  0  0  0  0  0  0  0  0  0  0
    3.9874   -0.9829    0.2558 C   0  0  0  0  0  0  0  0  0  0  0  0
    5.3178   -0.5749    0.8155 C   0  0  0  0  0  0  0  0  0  0  0  0
    6.0054    0.4500   -0.0872 C   0  0  0  0  0  0  0  0  0  0  0  0
   -3.9642    1.3681   -0.5148 H   0  0  0  0  0  0  0  0  0  0  0  0
   -5.0853    1.5121    0.8541 H   0  0  0  0  0  0  0  0  0  0  0  0
   -6.5504   -0.1888   -0.0398 H   0  0  0  0  0  0  0  0  0  0  0  0
   -6.2595    1.0616   -1.2556 H   0  0  0  0  0  0  0  0  0  0  0  0
   -6.7691   -0.3802   -3.0688 H   0  0  0  0  0  0  0  0  0  0  0  0
   -5.8841   -1.8924   -3.2758 H   0  0  0  0  0  0  0  0  0  0  0  0
   -7.1170   -1.7583   -2.0122 H   0  0  0  0  0  0  0  0  0  0  0  0
   -5.3312   -2.3673   -0.2981 H   0  0  0  0  0  0  0  0  0  0  0  0
   -4.2220   -2.5253   -1.6669 H   0  0  0  0  0  0  0  0  0  0  0  0
   -3.0435   -2.1195    0.4530 H   0  0  0  0  0  0  0  0  0  0  0  0
   -2.7120   -0.8668   -0.7602 H   0  0  0  0  0  0  0  0  0  0  0  0
   -0.4820   -1.0515    1.2803 H   0  0  0  0  0  0  0  0  0  0  0  0
   -2.3035    2.8363    1.2843 H   0  0  0  0  0  0  0  0  0  0  0  0
   -0.3655    3.7609    0.1574 H   0  0  0  0  0  0  0  0  0  0  0  0
    1.0953    3.9145   -1.6712 H   0  0  0  0  0  0  0  0  0  0  0  0
    4.0430    3.5735   -0.9411 H   0  0  0  0  0  0  0  0  0  0  0  0
    4.4279    5.3908   -2.5899 H   0  0  0  0  0  0  0  0  0  0  0  0
    2.6985    5.5458   -2.8742 H   0  0  0  0  0  0  0  0  0  0  0  0
    3.3769    5.9800   -1.3067 H   0  0  0  0  0  0  0  0  0  0  0  0
    0.6059   -1.5864   -1.0395 H   0  0  0  0  0  0  0  0  0  0  0  0
    4.7367   -3.4672   -1.8519 H   0  0  0  0  0  0  0  0  0  0  0  0
    5.8676   -2.5487   -0.8984 H   0  0  0  0  0  0  0  0  0  0  0  0
    4.0546   -4.7731    0.1865 H   0  0  0  0  0  0  0  0  0  0  0  0
    5.7817   -4.9186   -0.1304 H   0  0  0  0  0  0  0  0  0  0  0  0
    5.2078   -3.8530    1.1521 H   0  0  0  0  0  0  0  0  0  0  0  0
    5.1515   -0.1350    1.8005 H   0  0  0  0  0  0  0  0  0  0  0  0
    5.9679   -1.4369    0.9622 H   0  0  0  0  0  0  0  0  0  0  0  0
    6.2165    0.0311   -1.0719 H   0  0  0  0  0  0  0  0  0  0  0  0
    5.3803    1.3330   -0.2245 H   0  0  0  0  0  0  0  0  0  0  0  0
    6.9499    0.7718    0.3507 H   0  0  0  0  0  0  0  0  0  0  0  0
    1.8245    4.3292   -0.1105 H   0  0  0  0  0  0  0  0  0  0  0  0
    3.3317    3.1459   -2.4901 H   0  0  0  0  0  0  0  0  0  0  0  0
 28 27  1  0
 27 26  1  0
 31 30  1  0
 30 29  1  0
 26 29  2  0
 26 24  1  0
 29 22  1  0
 25 24  2  0
 24 23  1  0
 22 21  2  0
 23 21  1  0
 21 20  1  0
 19 18  1  0
 20 12  2  0
 20 15  1  0
 18 17  1  0
  5  6  1  0
  5  3  1  0
 16 17  1  0
 16 15  1  0
 12 11  1  0
 15 14  2  0
  6  7  1  0
  3  4  1  0
  3  2  1  0
  8 11  1  6
 11 13  2  0
 10  8  2  0
  7  1  1  0
  7  8  1  0
 14 13  1  0
  2  1  1  0
  8  9  2  0
  1 32  1  0
  1 33  1  0
  2 34  1  0
  2 35  1  0
  4 36  1  0
  4 37  1  0
  4 38  1  0
  5 39  1  0
  5 40  1  0
  6 41  1  0
  6 42  1  0
 12 43  1  0
 13 44  1  0
 14 45  1  0
 17 46  1  0
 18 47  1  0
 19 48  1  0
 19 49  1  0
 19 50  1  0
 23 51  1  0
 27 52  1  0
 27 53  1  0
 28 54  1  0
 28 55  1  0
 28 56  1  0
 30 57  1  0
 30 58  1  0
 31 59  1  0
 31 60  1  0
 31 61  1  0
 17 62  1  0
 18 63  1  0
M  END
