
     RDKit          3D

 76 79  0  0  0  0  0  0  0  0999 V2000
   30.4292   -1.9704   35.6755 C   0  0  0  0  0  0  0  0  0  0  0  0
   30.3620   -0.9048   34.7658 C   0  0  0  0  0  0  0  0  0  0  0  0
   31.0157    0.2857   35.0535 C   0  0  0  0  0  0  0  0  0  0  0  0
   31.7325    0.4582   36.2279 C   0  0  0  0  0  0  0  0  0  0  0  0
   31.7701   -0.5840   37.1571 C   0  0  0  0  0  0  0  0  0  0  0  0
   31.1319   -1.7857   36.8756 C   0  0  0  0  0  0  0  0  0  0  0  0
   30.9948    1.4105   34.0679 C   0  0  0  0  0  0  0  0  0  0  0  0
   29.7945    1.6616   33.5170 N   0  0  0  0  0  0  0  0  0  0  0  0
   32.0085    2.0438   33.8091 O   0  0  0  0  0  0  0  0  0  0  0  0
   29.5754    2.5921   32.4316 C   0  0  1  0  0  0  0  0  0  0  0  0
   28.7403    1.9136   31.3357 C   0  0  0  0  0  0  0  0  0  0  0  0
   28.9093    3.8870   32.9284 C   0  0  2  0  0  0  0  0  0  0  0  0
   28.7261    4.7805   31.8482 O   0  0  0  0  0  0  0  0  0  0  0  0
   29.2748    0.5577   30.9667 C   0  0  0  0  0  0  0  0  0  0  0  0
   29.7484    4.5949   33.9794 C   0  0  0  0  0  0  0  0  0  0  0  0
   28.5407   -0.5936   31.2367 C   0  0  0  0  0  0  0  0  0  0  0  0
   29.0421   -1.8510   30.9218 C   0  0  0  0  0  0  0  0  0  0  0  0
   30.2961   -1.9751   30.3417 C   0  0  0  0  0  0  0  0  0  0  0  0
   31.0375   -0.8322   30.0656 C   0  0  0  0  0  0  0  0  0  0  0  0
   30.5289    0.4212   30.3735 C   0  0  0  0  0  0  0  0  0  0  0  0
   29.8816   -3.1924   35.4100 N   0  0  0  0  0  0  0  0  0  0  0  0
   28.9678   -3.4429   34.3212 C   0  0  0  0  0  0  0  0  0  0  0  0
   27.5847   -2.8273   34.4988 C   0  0  0  0  0  0  0  0  0  0  0  0
   32.4916   -0.4034   38.3462 N   0  0  0  0  0  0  0  0  0  0  0  0
   32.1900   -0.9567   39.5591 C   0  0  0  0  0  0  0  0  0  0  0  0
   33.1542   -0.3932   40.5770 C   0  0  0  0  0  0  0  0  0  0  0  0
   34.2647    0.2215   39.7380 C   0  0  0  0  0  0  0  0  0  0  0  0
   33.5535    0.5953   38.4429 C   0  0  0  0  0  0  0  0  0  0  0  0
   31.2876   -1.7381   39.7862 O   0  0  0  0  0  0  0  0  0  0  0  0
   29.0971    5.8057   34.4365 N   0  0  0  0  0  0  0  0  0  0  0  0
   29.7974    6.4626   35.5312 C   0  0  2  0  0  0  0  0  0  0  0  0
   29.4564    5.8351   36.8785 C   0  0  0  0  0  0  0  0  0  0  0  0
   30.3411    6.4179   37.9913 C   0  0  0  0  0  0  0  0  0  0  0  0
   30.7407    7.8748   37.7112 C   0  0  0  0  0  0  0  0  0  0  0  0
   29.6444    8.5944   36.9354 C   0  0  0  0  0  0  0  0  0  0  0  0
   29.4313    7.9521   35.5563 C   0  0  0  0  0  0  0  0  0  0  0  0
   29.8472   -1.0119   33.8186 H   0  0  0  0  0  0  0  0  0  0  0  0
   31.1911   -2.6116   37.5687 H   0  0  0  0  0  0  0  0  0  0  0  0
   29.8171   -3.8247   36.1902 H   0  0  0  0  0  0  0  0  0  0  0  0
   32.2273    1.3995   36.4205 H   0  0  0  0  0  0  0  0  0  0  0  0
   28.9984    1.1457   33.8595 H   0  0  0  0  0  0  0  0  0  0  0  0
   30.5554    2.8454   32.0212 H   0  0  0  0  0  0  0  0  0  0  0  0
   27.7028    1.8169   31.6714 H   0  0  0  0  0  0  0  0  0  0  0  0
   28.7281    2.5593   30.4555 H   0  0  0  0  0  0  0  0  0  0  0  0
   27.9423    3.6277   33.3834 H   0  0  0  0  0  0  0  0  0  0  0  0
   27.9078    4.5583   31.3959 H   0  0  0  0  0  0  0  0  0  0  0  0
   29.8665    3.9203   34.8282 H   0  0  0  0  0  0  0  0  0  0  0  0
   30.7607    4.7786   33.5838 H   0  0  0  0  0  0  0  0  0  0  0  0
   27.5609   -0.5083   31.6929 H   0  0  0  0  0  0  0  0  0  0  0  0
   31.1166    1.3042   30.1490 H   0  0  0  0  0  0  0  0  0  0  0  0
   29.0359    6.4467   33.6548 H   0  0  0  0  0  0  0  0  0  0  0  0
   28.4500   -2.7337   31.1295 H   0  0  0  0  0  0  0  0  0  0  0  0
   30.6919   -2.9533   30.1018 H   0  0  0  0  0  0  0  0  0  0  0  0
   32.0140   -0.9185   29.6059 H   0  0  0  0  0  0  0  0  0  0  0  0
   29.4178   -3.0969   33.3875 H   0  0  0  0  0  0  0  0  0  0  0  0
   28.8781   -4.5247   34.2220 H   0  0  0  0  0  0  0  0  0  0  0  0
   27.0812   -3.2474   35.3702 H   0  0  0  0  0  0  0  0  0  0  0  0
   27.6381   -1.7463   34.6321 H   0  0  0  0  0  0  0  0  0  0  0  0
   26.9644   -3.0238   33.6232 H   0  0  0  0  0  0  0  0  0  0  0  0
   34.2030    0.5451   37.5697 H   0  0  0  0  0  0  0  0  0  0  0  0
   33.1333    1.6039   38.4962 H   0  0  0  0  0  0  0  0  0  0  0  0
   32.6217    0.3613   41.1644 H   0  0  0  0  0  0  0  0  0  0  0  0
   33.4872   -1.1673   41.2673 H   0  0  0  0  0  0  0  0  0  0  0  0
   34.7358    1.0828   40.2064 H   0  0  0  0  0  0  0  0  0  0  0  0
   35.0392   -0.5195   39.5370 H   0  0  0  0  0  0  0  0  0  0  0  0
   30.8897    6.3799   35.3916 H   0  0  0  0  0  0  0  0  0  0  0  0
   28.3979    6.0226   37.0856 H   0  0  0  0  0  0  0  0  0  0  0  0
   29.5717    4.7492   36.8458 H   0  0  0  0  0  0  0  0  0  0  0  0
   30.0226    8.4758   34.8004 H   0  0  0  0  0  0  0  0  0  0  0  0
   28.3827    8.0564   35.2607 H   0  0  0  0  0  0  0  0  0  0  0  0
   29.8087    6.3576   38.9433 H   0  0  0  0  0  0  0  0  0  0  0  0
   31.2419    5.8105   38.1055 H   0  0  0  0  0  0  0  0  0  0  0  0
   30.9544    8.3925   38.6486 H   0  0  0  0  0  0  0  0  0  0  0  0
   31.6676    7.9043   37.1306 H   0  0  0  0  0  0  0  0  0  0  0  0
   28.7178    8.5586   37.5159 H   0  0  0  0  0  0  0  0  0  0  0  0
   29.8848    9.6532   36.8206 H   0  0  0  0  0  0  0  0  0  0  0  0
  1  2  2  0
  1  6  1  0
  1 21  1  0
  2  3  1  0
  3  4  2  0
  3  7  1  0
  4  5  1  0
  5  6  2  0
  5 24  1  0
  7  8  1  0
  7  9  2  0
  8 10  1  0
 10 11  1  0
 10 12  1  0
 11 14  1  0
 12 13  1  0
 12 15  1  0
 14 16  2  0
 14 20  1  0
 15 30  1  0
 16 17  1  0
 17 18  2  0
 18 19  1  0
 19 20  2  0
 21 22  1  0
 22 23  1  0
 24 25  1  0
 24 28  1  0
 25 26  1  0
 25 29  2  0
 26 27  1  0
 27 28  1  0
 30 31  1  0
 31 32  1  0
 31 36  1  0
 32 33  1  0
 33 34  1  0
 34 35  1  0
 35 36  1  0
  2 37  1  0
  6 38  1  0
 21 39  1  0
  4 40  1  0
  8 41  1  0
 10 42  1  6
 11 43  1  0
 11 44  1  0
 12 45  1  1
 13 46  1  0
 15 47  1  0
 15 48  1  0
 16 49  1  0
 20 50  1  0
 30 51  1  0
 17 52  1  0
 18 53  1  0
 19 54  1  0
 22 55  1  0
 22 56  1  0
 23 57  1  0
 23 58  1  0
 23 59  1  0
 28 60  1  0
 28 61  1  0
 26 62  1  0
 26 63  1  0
 27 64  1  0
 27 65  1  0
 31 66  1  6
 32 67  1  0
 32 68  1  0
 36 69  1  0
 36 70  1  0
 33 71  1  0
 33 72  1  0
 34 73  1  0
 34 74  1  0
 35 75  1  0
 35 76  1  0
M  END
