
     RDKit          3D

 44 49  0  0  0  0  0  0  0  0999 V2000
    0.6428   -3.7617    0.2634 C   0  0  0  0  0  0  0  0  0  0  0  0
    0.3081   -2.3705    0.4919 N   0  0  0  0  0  0  0  0  0  0  0  0
   -0.2155   -2.1937    1.8324 C   0  0  0  0  0  0  0  0  0  0  0  0
   -0.6697   -0.7710    2.0793 C   0  0  0  0  0  0  0  0  0  0  0  0
   -1.7251   -0.4046    1.0804 C   0  0  0  0  0  0  0  0  0  0  0  0
   -1.6441   -0.9549   -0.1925 C   0  0  0  0  0  0  0  0  0  0  0  0
   -2.6167   -0.6702   -1.1660 C   0  0  0  0  0  0  0  0  0  0  0  0
   -3.6305    0.1809   -0.8138 C   0  0  0  0  0  0  0  0  0  0  0  0
   -4.6694    0.6232   -1.5647 O   0  0  0  0  0  0  0  0  0  0  0  0
   -5.5163    1.3510   -0.6850 C   0  0  0  0  0  0  0  0  0  0  0  0
   -4.7960    1.5403    0.5267 O   0  0  0  0  0  0  0  0  0  0  0  0
   -3.7081    0.7358    0.4537 C   0  0  0  0  0  0  0  0  0  0  0  0
   -2.7805    0.4540    1.4228 C   0  0  0  0  0  0  0  0  0  0  0  0
   -0.4521   -1.7835   -0.5981 C   0  0  1  0  0  0  0  0  0  0  0  0
    0.4892   -0.8888   -1.4611 C   0  0  2  0  0  0  0  0  0  0  0  0
    1.6715   -1.6420   -1.7469 O   0  0  0  0  0  0  0  0  0  0  0  0
    2.7134   -1.2181   -1.0155 C   0  0  0  0  0  0  0  0  0  0  0  0
    3.7621   -1.8043   -0.9869 O   0  0  0  0  0  0  0  0  0  0  0  0
    2.3229    0.0427   -0.3864 C   0  0  0  0  0  0  0  0  0  0  0  0
    3.0152    0.9584    0.3641 C   0  0  0  0  0  0  0  0  0  0  0  0
    4.2808    0.9453    0.8100 O   0  0  0  0  0  0  0  0  0  0  0  0
    4.4349    2.1140    1.6177 C   0  0  0  0  0  0  0  0  0  0  0  0
    3.2583    2.8923    1.4491 O   0  0  0  0  0  0  0  0  0  0  0  0
    2.3845    2.1327    0.7462 C   0  0  0  0  0  0  0  0  0  0  0  0
    1.0890    2.4308    0.3895 C   0  0  0  0  0  0  0  0  0  0  0  0
    0.3779    1.4906   -0.3716 C   0  0  0  0  0  0  0  0  0  0  0  0
    0.9998    0.3148   -0.7322 C   0  0  0  0  0  0  0  0  0  0  0  0
   -0.2317   -4.4247    0.3400 H   0  0  0  0  0  0  0  0  0  0  0  0
    1.0860   -3.9025   -0.7199 H   0  0  0  0  0  0  0  0  0  0  0  0
    1.3740   -4.0889    1.0044 H   0  0  0  0  0  0  0  0  0  0  0  0
   -1.0581   -2.8759    2.0355 H   0  0  0  0  0  0  0  0  0  0  0  0
    0.5757   -2.4609    2.5377 H   0  0  0  0  0  0  0  0  0  0  0  0
   -1.0594   -0.6856    3.0953 H   0  0  0  0  0  0  0  0  0  0  0  0
    0.1843   -0.0893    2.0103 H   0  0  0  0  0  0  0  0  0  0  0  0
   -2.5630   -1.1044   -2.1571 H   0  0  0  0  0  0  0  0  0  0  0  0
   -5.7610    2.3184   -1.1239 H   0  0  0  0  0  0  0  0  0  0  0  0
   -2.8506    0.8777    2.4167 H   0  0  0  0  0  0  0  0  0  0  0  0
   -0.8146   -2.5746   -1.2673 H   0  0  0  0  0  0  0  0  0  0  0  0
    0.0014   -0.6425   -2.4068 H   0  0  0  0  0  0  0  0  0  0  0  0
    4.5449    1.8205    2.6652 H   0  0  0  0  0  0  0  0  0  0  0  0
    0.6320    3.3661    0.6835 H   0  0  0  0  0  0  0  0  0  0  0  0
   -0.6412    1.7031   -0.6631 H   0  0  0  0  0  0  0  0  0  0  0  0
   -6.4290    0.7787   -0.4885 H   0  0  0  0  0  0  0  0  0  0  0  0
    5.3057    2.6772    1.2817 H   0  0  0  0  0  0  0  0  0  0  0  0
 23 24  1  0
 22 21  1  0
 24 25  2  0
 24 20  1  0
 25 26  1  0
 21 20  1  0
 20 19  2  0
 26 27  2  0
 19 27  1  0
 19 17  1  0
 27 15  1  0
  9 10  1  0
  9  8  1  0
 17 18  2  0
 17 16  1  0
 10 11  1  0
  7  8  2  0
  7  6  1  0
  8 12  1  0
 15 16  1  0
 15 14  1  0
 14  6  1  0
 14  2  1  0
  6  5  2  0
 11 12  1  0
 12 13  2  0
  2  1  1  0
  2  3  1  0
  5 13  1  0
  5  4  1  0
  3  4  1  0
  1 28  1  0
  1 29  1  0
  1 30  1  0
  3 31  1  0
  3 32  1  0
  4 33  1  0
  4 34  1  0
  7 35  1  0
 10 36  1  0
 13 37  1  0
 14 38  1  6
 15 39  1  6
 22 40  1  0
 25 41  1  0
 26 42  1  0
 23 22  1  0
 10 43  1  0
 22 44  1  0
M  END
