
     RDKit          3D

 32 35  0  0  0  0  0  0  0  0999 V2000
    2.5113    1.6910   -1.3115 N   0  0  0  0  0  0  0  0  0  0  0  0
    1.5633    1.1334   -0.5695 C   0  0  0  0  0  0  0  0  0  0  0  0
    3.7677    1.3065   -1.1165 C   0  0  0  0  0  0  0  0  0  0  0  0
    4.1287    0.3575   -0.1730 C   0  0  0  0  0  0  0  0  0  0  0  0
    3.1301   -0.2162    0.5977 C   0  0  0  0  0  0  0  0  0  0  0  0
    1.8097    0.1673    0.4025 C   0  0  0  0  0  0  0  0  0  0  0  0
    0.6997   -0.4765    1.2198 C   0  0  1  0  0  0  0  0  0  0  0  0
   -0.3164    0.4449    1.6812 N   0  0  0  0  0  0  0  0  0  0  0  0
    0.0301   -1.5728    0.4545 C   0  0  0  0  0  0  0  0  0  0  0  0
   -1.3592    0.8029    0.8535 C   0  0  0  0  0  0  0  0  0  0  0  0
   -1.8053   -0.0919   -0.1310 C   0  0  0  0  0  0  0  0  0  0  0  0
   -1.1340   -1.3202   -0.2197 N   0  0  0  0  0  0  0  0  0  0  0  0
   -2.8671    0.2416   -0.9574 C   0  0  0  0  0  0  0  0  0  0  0  0
   -1.5206   -2.4513   -0.8906 C   0  0  0  0  0  0  0  0  0  0  0  0
   -0.5908   -3.4246   -0.6456 C   0  0  0  0  0  0  0  0  0  0  0  0
    0.3962   -2.8680    0.2108 C   0  0  0  0  0  0  0  0  0  0  0  0
   -3.5172    1.4586   -0.8062 C   0  0  0  0  0  0  0  0  0  0  0  0
   -3.0917    2.3453    0.1734 C   0  0  0  0  0  0  0  0  0  0  0  0
   -2.0186    2.0242    0.9896 C   0  0  0  0  0  0  0  0  0  0  0  0
    0.5535    1.4809   -0.7620 H   0  0  0  0  0  0  0  0  0  0  0  0
    4.5215    1.7773   -1.7376 H   0  0  0  0  0  0  0  0  0  0  0  0
    5.1658    0.0802   -0.0437 H   0  0  0  0  0  0  0  0  0  0  0  0
    3.3756   -0.9574    1.3496 H   0  0  0  0  0  0  0  0  0  0  0  0
    1.1673   -0.9215    2.1018 H   0  0  0  0  0  0  0  0  0  0  0  0
    0.0321    1.1869    2.2687 H   0  0  0  0  0  0  0  0  0  0  0  0
   -3.1970   -0.4461   -1.7251 H   0  0  0  0  0  0  0  0  0  0  0  0
   -2.4311   -2.4873   -1.4643 H   0  0  0  0  0  0  0  0  0  0  0  0
   -0.6200   -4.4312   -1.0312 H   0  0  0  0  0  0  0  0  0  0  0  0
    1.2763   -3.3582    0.5971 H   0  0  0  0  0  0  0  0  0  0  0  0
   -4.3465    1.7079   -1.4536 H   0  0  0  0  0  0  0  0  0  0  0  0
   -3.5864    3.2995    0.2981 H   0  0  0  0  0  0  0  0  0  0  0  0
   -1.6793    2.7240    1.7440 H   0  0  0  0  0  0  0  0  0  0  0  0
 19 18  2  0
 19 10  1  0
 18 17  1  0
  1  2  2  0
  1  3  1  0
  2  6  1  0
  8 10  1  0
  8  7  1  0
  3  4  2  0
 10 11  2  0
 17 13  2  0
  6  7  1  0
  6  5  2  0
  7  9  1  0
  4  5  1  0
 11 13  1  0
 11 12  1  0
  9 12  1  0
  9 16  2  0
 12 14  1  0
 16 15  1  0
 14 15  2  0
  2 20  1  0
  3 21  1  0
  4 22  1  0
  5 23  1  0
  7 24  1  1
  8 25  1  0
 13 26  1  0
 14 27  1  0
 15 28  1  0
 16 29  1  0
 17 30  1  0
 18 31  1  0
 19 32  1  0
M  END
