
     RDKit          3D

 49 49  0  0  0  0  0  0  0  0999 V2000
   -0.8471    0.8451   -1.4394 C   0  0  0  0  0  0  0  0  0  0  0  0
    0.2492    0.9238   -2.4382 C   0  0  0  0  0  0  0  0  0  0  0  0
    0.5669   -0.1440   -3.1816 C   0  0  0  0  0  0  0  0  0  0  0  0
   -0.1386   -1.4370   -2.9885 C   0  0  0  0  0  0  0  0  0  0  0  0
   -1.2215   -1.5282   -1.9729 C   0  0  0  0  0  0  0  0  0  0  0  0
   -1.5599   -0.4442   -1.2526 C   0  0  0  0  0  0  0  0  0  0  0  0
    0.3025    3.0447   -3.4194 C   0  0  0  0  0  0  0  0  0  0  0  0
    2.8094   -0.5022   -3.7383 C   0  0  0  0  0  0  0  0  0  0  0  0
   -1.8916   -2.8574   -1.8049 C   0  0  0  0  0  0  0  0  0  0  0  0
   -2.6087   -0.4671   -0.1783 C   0  0  0  0  0  0  0  0  0  0  0  0
   -1.9550   -0.7038    1.1550 C   0  0  0  0  0  0  0  0  0  0  0  0
   -1.9296    0.1137    2.2094 C   0  0  0  0  0  0  0  0  0  0  0  0
   -2.5904    1.4597    2.2609 C   0  0  0  0  0  0  0  0  0  0  0  0
   -1.1902   -0.2928    3.4559 C   0  0  0  0  0  0  0  0  0  0  0  0
   -0.0230    0.6456    3.7989 C   0  0  0  0  0  0  0  0  0  0  0  0
    0.6620    0.2186    5.0594 C   0  0  0  0  0  0  0  0  0  0  0  0
    1.9150   -0.2191    5.2097 C   0  0  0  0  0  0  0  0  0  0  0  0
    2.4278   -0.6470    6.5545 C   0  0  0  0  0  0  0  0  0  0  0  0
    2.9171   -0.3373    4.0995 C   0  0  0  0  0  0  0  0  0  0  0  0
   -1.1371    1.8285   -0.7938 O   0  0  0  0  0  0  0  0  0  0  0  0
    0.9047    2.0893   -2.5458 O   0  0  0  0  0  0  0  0  0  0  0  0
    1.5027   -0.0935   -4.1417 O   0  0  0  0  0  0  0  0  0  0  0  0
    0.1754   -2.3884   -3.6710 O   0  0  0  0  0  0  0  0  0  0  0  0
    0.9485    3.9191   -3.4220 H   0  0  0  0  0  0  0  0  0  0  0  0
    0.2282    2.6552   -4.4365 H   0  0  0  0  0  0  0  0  0  0  0  0
   -0.6897    3.3387   -3.0739 H   0  0  0  0  0  0  0  0  0  0  0  0
    3.4534   -0.3996   -4.6083 H   0  0  0  0  0  0  0  0  0  0  0  0
    3.1906    0.1333   -2.9369 H   0  0  0  0  0  0  0  0  0  0  0  0
    2.8247   -1.5420   -3.4081 H   0  0  0  0  0  0  0  0  0  0  0  0
   -1.5084   -3.5934   -2.5058 H   0  0  0  0  0  0  0  0  0  0  0  0
   -1.7393   -3.2476   -0.7978 H   0  0  0  0  0  0  0  0  0  0  0  0
   -2.9680   -2.7763   -1.9600 H   0  0  0  0  0  0  0  0  0  0  0  0
   -3.1715    0.4650   -0.1906 H   0  0  0  0  0  0  0  0  0  0  0  0
   -3.3220   -1.2675   -0.3821 H   0  0  0  0  0  0  0  0  0  0  0  0
   -1.4326   -1.6540    1.2370 H   0  0  0  0  0  0  0  0  0  0  0  0
   -3.3525    1.5941    1.4964 H   0  0  0  0  0  0  0  0  0  0  0  0
   -3.0633    1.6147    3.2328 H   0  0  0  0  0  0  0  0  0  0  0  0
   -1.8594    2.2606    2.1328 H   0  0  0  0  0  0  0  0  0  0  0  0
   -1.8864   -0.3083    4.3024 H   0  0  0  0  0  0  0  0  0  0  0  0
   -0.8062   -1.3103    3.3476 H   0  0  0  0  0  0  0  0  0  0  0  0
    0.6680    0.6780    2.9543 H   0  0  0  0  0  0  0  0  0  0  0  0
   -0.4049    1.6635    3.9276 H   0  0  0  0  0  0  0  0  0  0  0  0
    0.0330    0.2489    5.9475 H   0  0  0  0  0  0  0  0  0  0  0  0
    2.7719   -1.6844    6.5290 H   0  0  0  0  0  0  0  0  0  0  0  0
    3.2890   -0.0449    6.8562 H   0  0  0  0  0  0  0  0  0  0  0  0
    1.6683   -0.5623    7.3311 H   0  0  0  0  0  0  0  0  0  0  0  0
    2.5676    0.0733    3.1547 H   0  0  0  0  0  0  0  0  0  0  0  0
    3.8447    0.1755    4.3651 H   0  0  0  0  0  0  0  0  0  0  0  0
    3.1810   -1.3847    3.9256 H   0  0  0  0  0  0  0  0  0  0  0  0
  1  2  1  0
  1  6  1  0
  1 20  2  0
  2  3  2  0
  2 21  1  0
  3  4  1  0
  3 22  1  0
  4  5  1  0
  4 23  2  0
  5  6  2  0
  5  9  1  0
  6 10  1  0
  7 21  1  0
  7 24  1  0
  7 25  1  0
  7 26  1  0
  8 22  1  0
  8 27  1  0
  8 28  1  0
  8 29  1  0
  9 30  1  0
  9 31  1  0
  9 32  1  0
 10 11  1  0
 10 33  1  0
 10 34  1  0
 11 12  2  0
 11 35  1  0
 12 13  1  0
 12 14  1  0
 13 36  1  0
 13 37  1  0
 13 38  1  0
 14 15  1  0
 14 39  1  0
 14 40  1  0
 15 16  1  0
 15 41  1  0
 15 42  1  0
 16 17  2  0
 16 43  1  0
 17 18  1  0
 17 19  1  0
 18 44  1  0
 18 45  1  0
 18 46  1  0
 19 47  1  0
 19 48  1  0
 19 49  1  0
M  END
