
     RDKit          3D

 68 72  0  0  0  0  0  0  0  0999 V2000
   -8.0368   -0.1743    0.8172 N   0  0  0  0  0  0  0  0  0  0  0  0
   -2.3590   -2.1097   -0.1147 C   0  0  0  0  0  0  0  0  0  0  0  0
   -0.5750   -3.5812    0.4230 C   0  0  0  0  0  0  0  0  0  0  0  0
    5.0436   -2.8066    0.4040 C   0  0  1  0  0  0  0  0  0  0  0  0
    5.1948   -2.9513   -1.0214 N   0  0  0  0  0  0  0  0  0  0  0  0
    6.3684   -3.5438   -1.3819 C   0  0  0  0  0  0  0  0  0  0  0  0
    6.7048   -3.8477   -2.5160 O   0  0  0  0  0  0  0  0  0  0  0  0
    7.0843   -3.7328   -0.2477 N   0  0  0  0  0  0  0  0  0  0  0  0
    6.4303   -3.2677    0.9455 C   0  0  1  0  0  0  0  0  0  0  0  0
    7.1289   -2.0707    1.6011 C   0  0  0  0  0  0  0  0  0  0  0  0
    6.4558   -0.5894    0.8067 S   0  0  0  0  0  0  0  0  0  0  0  0
    4.8039   -1.3568    0.8432 C   0  0  1  0  0  0  0  0  0  0  0  0
    3.7871   -0.6043    0.0069 C   0  0  0  0  0  0  0  0  0  0  0  0
    3.4504    0.7801    0.5486 C   0  0  0  0  0  0  0  0  0  0  0  0
    2.3141    1.4173   -0.2398 C   0  0  0  0  0  0  0  0  0  0  0  0
    1.8799    2.7522    0.3453 C   0  0  0  0  0  0  0  0  0  0  0  0
    0.6753    3.3270   -0.3503 C   0  0  0  0  0  0  0  0  0  0  0  0
    0.2939    2.9913   -1.4525 O   0  0  0  0  0  0  0  0  0  0  0  0
   -0.0001    4.2812    0.3690 N   0  0  0  0  0  0  0  0  0  0  0  0
   -1.3918    5.0364   -0.2007 S   0  0  1  0  0  0  0  0  0  0  0  0
   -1.8820    5.7564    0.9523 O   0  0  0  0  0  0  0  0  0  0  0  0
   -1.0892    5.7226   -1.4328 O   0  0  0  0  0  0  0  0  0  0  0  0
   -2.4519    3.8473   -0.5606 N   0  0  0  0  0  0  0  0  0  0  0  0
   -2.8235    2.9051    0.4878 C   0  0  0  0  0  0  0  0  0  0  0  0
   -3.9308    1.9956    0.0031 C   0  0  1  0  0  0  0  0  0  0  0  0
   -3.4932    1.2121   -1.1092 O   0  0  0  0  0  0  0  0  0  0  0  0
   -4.3637    0.9907    1.0689 C   0  0  1  0  0  0  0  0  0  0  0  0
   -5.3770    1.5247    1.8590 O   0  0  0  0  0  0  0  0  0  0  0  0
   -4.7822   -0.2100    0.2102 C   0  0  2  0  0  0  0  0  0  0  0  0
   -3.7454   -0.1444   -0.9062 C   0  0  2  0  0  0  0  0  0  0  0  0
   -2.5009   -0.8128   -0.5261 N   0  0  0  0  0  0  0  0  0  0  0  0
   -1.2304   -0.3199   -0.6705 C   0  0  0  0  0  0  0  0  0  0  0  0
   -0.3051   -1.1771   -0.3555 N   0  0  0  0  0  0  0  0  0  0  0  0
   -0.9919   -2.3067   -0.0024 C   0  0  0  0  0  0  0  0  0  0  0  0
   -3.3059   -3.0149    0.1272 N   0  0  0  0  0  0  0  0  0  0  0  0
   -2.7948   -4.1706    0.5143 C   0  0  0  0  0  0  0  0  0  0  0  0
   -1.5149   -4.4973    0.6739 N   0  0  0  0  0  0  0  0  0  0  0  0
   -7.0586   -0.0837    0.2750 N   0  0  0  0  0  0  0  0  0  0  0  0
   -6.0702    0.0277   -0.4301 N   0  0  0  0  0  0  0  0  0  0  0  0
    4.4030   -2.9889   -1.6406 H   0  0  0  0  0  0  0  0  0  0  0  0
    8.0306   -4.0737   -0.2607 H   0  0  0  0  0  0  0  0  0  0  0  0
    6.3318   -4.0722    1.6774 H   0  0  0  0  0  0  0  0  0  0  0  0
    6.9083   -2.0459    2.6696 H   0  0  0  0  0  0  0  0  0  0  0  0
    8.2108   -2.1089    1.4789 H   0  0  0  0  0  0  0  0  0  0  0  0
    4.4670   -1.3776    1.8856 H   0  0  0  0  0  0  0  0  0  0  0  0
    4.1386   -0.5255   -1.0252 H   0  0  0  0  0  0  0  0  0  0  0  0
    2.8635   -1.1951   -0.0250 H   0  0  0  0  0  0  0  0  0  0  0  0
    3.1623    0.6939    1.6013 H   0  0  0  0  0  0  0  0  0  0  0  0
    4.3344    1.4246    0.5226 H   0  0  0  0  0  0  0  0  0  0  0  0
    2.6170    1.5485   -1.2810 H   0  0  0  0  0  0  0  0  0  0  0  0
    1.4705    0.7235   -0.2453 H   0  0  0  0  0  0  0  0  0  0  0  0
    1.6645    2.6522    1.4129 H   0  0  0  0  0  0  0  0  0  0  0  0
    2.6864    3.4899    0.2726 H   0  0  0  0  0  0  0  0  0  0  0  0
    0.2812    4.5134    1.3141 H   0  0  0  0  0  0  0  0  0  0  0  0
   -2.2370    3.4188   -1.4556 H   0  0  0  0  0  0  0  0  0  0  0  0
   -1.9702    2.3092    0.8340 H   0  0  0  0  0  0  0  0  0  0  0  0
   -3.2051    3.4605    1.3447 H   0  0  0  0  0  0  0  0  0  0  0  0
   -4.7880    2.5992   -0.3131 H   0  0  0  0  0  0  0  0  0  0  0  0
   -3.4958    0.6914    1.6706 H   0  0  0  0  0  0  0  0  0  0  0  0
   -5.3786    1.0769    2.7106 H   0  0  0  0  0  0  0  0  0  0  0  0
   -4.7724   -1.1574    0.7528 H   0  0  0  0  0  0  0  0  0  0  0  0
   -4.1082   -0.5925   -1.8334 H   0  0  0  0  0  0  0  0  0  0  0  0
   -1.0413    0.6796   -1.0279 H   0  0  0  0  0  0  0  0  0  0  0  0
   -3.5080   -4.9586    0.7308 H   0  0  0  0  0  0  0  0  0  0  0  0
    0.7110   -3.8965    0.5902 N   0  0  0  0  0  0  0  0  0  0  0  0
    4.2342   -3.4378    0.7847 H   0  0  0  0  0  0  0  0  0  0  0  0
    1.4323   -3.2452    0.3381 H   0  0  0  0  0  0  0  0  0  0  0  0
    0.9782   -4.8357    0.8299 H   0  0  0  0  0  0  0  0  0  0  0  0
 22 20  2  0
 21 20  2  0
  1 38  2  0
 20 23  1  6
 20 19  1  0
 38 39  2  0
 28 27  1  0
 23 24  1  0
 19 17  1  0
 24 25  1  0
 25 27  1  0
 25 26  1  0
 39 29  1  0
 27 29  1  0
 17 18  2  0
 17 16  1  0
 26 30  1  0
 29 30  1  0
 16 15  1  0
 30 31  1  0
 15 14  1  0
 31  2  1  0
 31 32  1  0
 35  2  2  0
 35 36  1  0
  2 34  1  0
 14 13  1  0
 32 33  2  0
 36 37  2  0
 34 33  1  0
 34  3  2  0
 13 12  1  0
 37  3  1  0
  5  4  1  0
  5  6  1  0
  3 65  1  0
  4 12  1  0
  4  9  1  0
 12 11  1  0
  7  6  2  0
  6  8  1  0
  9  8  1  0
  9 10  1  0
 11 10  1  0
  4 66  1  1
  5 40  1  0
  8 41  1  0
  9 42  1  1
 10 43  1  0
 10 44  1  0
 12 45  1  1
 13 46  1  0
 13 47  1  0
 14 48  1  0
 14 49  1  0
 15 50  1  0
 15 51  1  0
 16 52  1  0
 16 53  1  0
 19 54  1  0
 23 55  1  0
 24 56  1  0
 24 57  1  0
 25 58  1  6
 27 59  1  1
 28 60  1  0
 29 61  1  1
 30 62  1  6
 32 63  1  0
 36 64  1  0
 65 67  1  0
 65 68  1  0
M  CHG  2   1  -1  38   1
M  END
