
     RDKit          3D

 16 17  0  0  0  0  0  0  0  0999 V2000
    1.2556    0.3745   -0.0121 C   0  0  0  0  0  0  0  0  0  0  0  0
    0.6956   -0.8988   -0.0257 C   0  0  0  0  0  0  0  0  0  0  0  0
   -0.5923   -1.2303   -0.0229 N   0  0  0  0  0  0  0  0  0  0  0  0
   -1.4343   -0.2100   -0.0062 C   0  0  0  0  0  0  0  0  0  0  0  0
   -0.9364    1.0936    0.0068 N   0  0  0  0  0  0  0  0  0  0  0  0
    0.3671    1.4512    0.0061 C   0  0  0  0  0  0  0  0  0  0  0  0
    2.6248    0.3207   -0.0191 N   0  0  0  0  0  0  0  0  0  0  0  0
    2.8884   -0.9506   -0.0370 C   0  0  0  0  0  0  0  0  0  0  0  0
    1.7660   -1.7303   -0.0417 N   0  0  0  0  0  0  0  0  0  0  0  0
    0.7196    2.7219    0.0201 N   0  0  0  0  0  0  0  0  0  0  0  0
   -3.1143   -0.3761    0.0008 S   0  0  0  0  0  0  0  0  0  0  0  0
    0.0463    3.4699    0.0478 H   0  0  0  0  0  0  0  0  0  0  0  0
    1.6948    2.9717    0.0219 H   0  0  0  0  0  0  0  0  0  0  0  0
   -1.6393    1.8213    0.0153 H   0  0  0  0  0  0  0  0  0  0  0  0
    3.8749   -1.3870   -0.0478 H   0  0  0  0  0  0  0  0  0  0  0  0
    1.7423   -2.7391   -0.0535 H   0  0  0  0  0  0  0  0  0  0  0  0
  1  2  1  0
  1  7  1  0
  2  9  1  0
  3  2  2  0
  4  3  1  0
  5  4  1  0
  5  6  1  0
  6  1  2  0
  7  8  2  0
  8  9  1  0
 10  6  1  0
 10 12  1  0
 10 13  1  0
 11  4  2  0
  5 14  1  0
  8 15  1  0
  9 16  1  0
M  END
