
     RDKit          3D

 45 46  0  0  0  0  0  0  0  0999 V2000
   -2.4748    0.8425    0.7670 C   0  0  0  0  0  0  0  0  0  0  0  0
   -0.2357    0.1430    1.3039 C   0  0  0  0  0  0  0  0  0  0  0  0
    2.2085   -0.0446    1.3220 N   0  0  0  0  0  0  0  0  0  0  0  0
    0.6381   -1.7973    0.2255 O   0  0  0  0  0  0  0  0  0  0  0  0
   -2.6282   -0.2290   -0.0976 C   0  0  0  0  0  0  0  0  0  0  0  0
    1.0300    0.2999    2.1100 C   0  0  0  0  0  0  0  0  0  0  0  0
    5.9591   -0.2828   -0.6805 N   0  0  0  0  0  0  0  0  0  0  0  0
    3.3888   -0.2672    2.1469 C   0  0  0  0  0  0  0  0  0  0  0  0
   -1.2864    1.0319    1.4588 C   0  0  0  0  0  0  0  0  0  0  0  0
   -1.5671   -1.1068   -0.2655 C   0  0  0  0  0  0  0  0  0  0  0  0
   -0.3627   -0.9437    0.4189 C   0  0  0  0  0  0  0  0  0  0  0  0
    4.5626   -0.7607    1.3147 C   0  0  0  0  0  0  0  0  0  0  0  0
    4.9064    0.2206    0.1943 C   0  0  2  0  0  0  0  0  0  0  0  0
    6.4122    0.6638   -1.6942 C   0  0  0  0  0  0  0  0  0  0  0  0
    6.5651    0.0067   -3.0574 C   0  0  0  0  0  0  0  0  0  0  0  0
    7.0786   -0.9458   -0.0308 C   0  0  0  0  0  0  0  0  0  0  0  0
    7.9062   -0.1018    0.9393 C   0  0  0  0  0  0  0  0  0  0  0  0
    3.6246    0.4657   -0.6065 C   0  0  0  0  0  0  0  0  0  0  0  0
    2.4867    0.9382    0.2793 C   0  0  0  0  0  0  0  0  0  0  0  0
   -4.0593    2.2007    1.0239 I   0  0  0  0  0  0  0  0  0  0  0  0
   -1.7598   -2.7231   -1.5888 I   0  0  0  0  0  0  0  0  0  0  0  0
   -3.5502   -0.3779   -0.6425 H   0  0  0  0  0  0  0  0  0  0  0  0
   -1.1657    1.8694    2.1344 H   0  0  0  0  0  0  0  0  0  0  0  0
    1.0912    1.3167    2.5196 H   0  0  0  0  0  0  0  0  0  0  0  0
    0.9922   -0.3831    2.9643 H   0  0  0  0  0  0  0  0  0  0  0  0
    3.6705    0.6580    2.6719 H   0  0  0  0  0  0  0  0  0  0  0  0
    3.1469   -1.0087    2.9101 H   0  0  0  0  0  0  0  0  0  0  0  0
    1.5883    1.0864   -0.3232 H   0  0  0  0  0  0  0  0  0  0  0  0
    2.7304    1.9128    0.7291 H   0  0  0  0  0  0  0  0  0  0  0  0
    1.4621   -1.3546    0.6072 H   0  0  0  0  0  0  0  0  0  0  0  0
    5.1957    1.1759    0.6710 H   0  0  0  0  0  0  0  0  0  0  0  0
    5.7039    1.4877   -1.7773 H   0  0  0  0  0  0  0  0  0  0  0  0
    7.3631    1.1318   -1.4083 H   0  0  0  0  0  0  0  0  0  0  0  0
    6.7213   -1.8403    0.4842 H   0  0  0  0  0  0  0  0  0  0  0  0
    7.7342   -1.3185   -0.8227 H   0  0  0  0  0  0  0  0  0  0  0  0
    5.4033   -0.9079    1.9952 H   0  0  0  0  0  0  0  0  0  0  0  0
    4.3204   -1.7381    0.8848 H   0  0  0  0  0  0  0  0  0  0  0  0
    3.7736    1.2115   -1.3885 H   0  0  0  0  0  0  0  0  0  0  0  0
    3.3374   -0.4664   -1.1022 H   0  0  0  0  0  0  0  0  0  0  0  0
    5.6066   -0.3704   -3.4154 H   0  0  0  0  0  0  0  0  0  0  0  0
    6.9466    0.7189   -3.7908 H   0  0  0  0  0  0  0  0  0  0  0  0
    7.2621   -0.8323   -3.0211 H   0  0  0  0  0  0  0  0  0  0  0  0
    8.2805    0.8092    0.4714 H   0  0  0  0  0  0  0  0  0  0  0  0
    7.3349    0.1927    1.8209 H   0  0  0  0  0  0  0  0  0  0  0  0
    8.7711   -0.6696    1.2856 H   0  0  0  0  0  0  0  0  0  0  0  0
  1  5  2  0
  1  9  1  0
  1 20  1  0
  2  6  1  0
  2  9  2  0
  2 11  1  0
  3  6  1  0
  3  8  1  0
  3 19  1  0
  4 11  1  0
  5 10  1  0
  7 13  1  0
  7 14  1  0
  7 16  1  0
  8 12  1  0
 10 11  2  0
 10 21  1  0
 12 13  1  0
 13 18  1  0
 14 15  1  0
 16 17  1  0
 18 19  1  0
  5 22  1  0
  9 23  1  0
  6 24  1  0
  6 25  1  0
  8 26  1  0
  8 27  1  0
 19 28  1  0
 19 29  1  0
  4 30  1  0
 13 31  1  1
 14 32  1  0
 14 33  1  0
 16 34  1  0
 16 35  1  0
 12 36  1  0
 12 37  1  0
 18 38  1  0
 18 39  1  0
 15 40  1  0
 15 41  1  0
 15 42  1  0
 17 43  1  0
 17 44  1  0
 17 45  1  0
M  END
