
     RDKit          3D

 61 62  0  0  0  0  0  0  0  0999 V2000
   -2.2083    2.8262   -0.7961 O   0  0  0  0  0  0  0  0  0  0  0  0
   -2.2195    2.3023    0.3094 C   0  0  0  0  0  0  0  0  0  0  0  0
    2.5991    0.5901    1.6145 O   0  0  0  0  0  0  0  0  0  0  0  0
   -4.9721   -2.1618    0.3930 C   0  0  0  0  0  0  0  0  0  0  0  0
   -4.6973    0.3116   -0.7740 C   0  0  0  0  0  0  0  0  0  0  0  0
    2.1956    1.6788   -0.9650 N   0  0  0  0  0  0  0  0  0  0  0  0
   -5.8593   -0.0480   -0.1194 C   0  0  0  0  0  0  0  0  0  0  0  0
   -3.6473   -0.5995   -0.8399 C   0  0  0  0  0  0  0  0  0  0  0  0
   -6.0331   -1.2801    0.4795 C   0  0  0  0  0  0  0  0  0  0  0  0
   -3.7906   -1.8535   -0.2502 C   0  0  0  0  0  0  0  0  0  0  0  0
    1.5373    0.0934    0.8133 C   0  0  0  0  0  0  0  0  0  0  0  0
    1.0807    1.1406   -0.1985 C   0  0  2  0  0  0  0  0  0  0  0  0
    3.2909    2.1336   -0.1156 C   0  0  2  0  0  0  0  0  0  0  0  0
    3.7064    1.0519    0.8824 C   0  0  2  0  0  0  0  0  0  0  0  0
   -2.7972    2.9968    1.5174 C   0  0  0  0  0  0  0  0  0  0  0  0
    2.9449    3.4348    0.5966 C   0  0  0  0  0  0  0  0  0  0  0  0
    6.7810   -1.0836   -0.8063 C   0  0  0  0  0  0  0  0  0  0  0  0
    4.8183   -2.6375   -0.9152 C   0  0  0  0  0  0  0  0  0  0  0  0
    6.5085   -2.8763    0.9085 C   0  0  0  0  0  0  0  0  0  0  0  0
   -2.3556   -0.2247   -1.5055 C   0  0  0  0  0  0  0  0  0  0  0  0
    0.0122    0.6384   -1.1732 C   0  0  2  0  0  0  0  0  0  0  0  0
   -1.2700    0.1453   -0.4765 C   0  0  1  0  0  0  0  0  0  0  0  0
    5.7667   -1.8807    0.0157 C   0  0  1  0  0  0  0  0  0  0  0  0
   -1.7466    1.0631    0.5387 N   0  0  0  0  0  0  0  0  0  0  0  0
    0.5110   -0.3589   -2.0423 O   0  0  0  0  0  0  0  0  0  0  0  0
    4.3179    0.0325    0.1626 O   0  0  0  0  0  0  0  0  0  0  0  0
   -6.8657    0.8351   -0.0598 F   0  0  0  0  0  0  0  0  0  0  0  0
   -5.1046   -3.3698    0.9584 F   0  0  0  0  0  0  0  0  0  0  0  0
   -4.6124    1.2910   -1.2273 H   0  0  0  0  0  0  0  0  0  0  0  0
    2.5448    0.9588   -1.5875 H   0  0  0  0  0  0  0  0  0  0  0  0
   -6.9520   -1.5427    0.9869 H   0  0  0  0  0  0  0  0  0  0  0  0
   -2.9924   -2.5839   -0.2946 H   0  0  0  0  0  0  0  0  0  0  0  0
    1.8446   -0.8334    0.3102 H   0  0  0  0  0  0  0  0  0  0  0  0
    0.7360   -0.1612    1.5098 H   0  0  0  0  0  0  0  0  0  0  0  0
    0.6390    1.9690    0.3613 H   0  0  0  0  0  0  0  0  0  0  0  0
    4.1464    2.3265   -0.7688 H   0  0  0  0  0  0  0  0  0  0  0  0
    4.3928    1.4593    1.6389 H   0  0  0  0  0  0  0  0  0  0  0  0
   -3.8853    2.9156    1.4872 H   0  0  0  0  0  0  0  0  0  0  0  0
   -2.4564    2.5760    2.4616 H   0  0  0  0  0  0  0  0  0  0  0  0
   -2.5467    4.0554    1.4919 H   0  0  0  0  0  0  0  0  0  0  0  0
    2.1617    3.3091    1.3441 H   0  0  0  0  0  0  0  0  0  0  0  0
    3.8217    3.8347    1.1069 H   0  0  0  0  0  0  0  0  0  0  0  0
    2.6092    4.1793   -0.1249 H   0  0  0  0  0  0  0  0  0  0  0  0
    7.3994   -1.7559   -1.4043 H   0  0  0  0  0  0  0  0  0  0  0  0
    6.2941   -0.3869   -1.4889 H   0  0  0  0  0  0  0  0  0  0  0  0
    7.4485   -0.5092   -0.1600 H   0  0  0  0  0  0  0  0  0  0  0  0
    5.3743   -3.3122   -1.5700 H   0  0  0  0  0  0  0  0  0  0  0  0
    4.1068   -3.2413   -0.3464 H   0  0  0  0  0  0  0  0  0  0  0  0
    4.2470   -1.9565   -1.5467 H   0  0  0  0  0  0  0  0  0  0  0  0
    7.1978   -2.3682    1.5873 H   0  0  0  0  0  0  0  0  0  0  0  0
    5.8157   -3.4648    1.5141 H   0  0  0  0  0  0  0  0  0  0  0  0
    7.0935   -3.5736    0.3058 H   0  0  0  0  0  0  0  0  0  0  0  0
   -1.9894   -1.0652   -2.0955 H   0  0  0  0  0  0  0  0  0  0  0  0
   -2.5145    0.6051   -2.1947 H   0  0  0  0  0  0  0  0  0  0  0  0
    4.2551   -1.5430    1.5150 H   0  0  0  0  0  0  0  0  0  0  0  0
    5.6555   -0.4720    1.6498 H   0  0  0  0  0  0  0  0  0  0  0  0
   -0.2396    1.4808   -1.8209 H   0  0  0  0  0  0  0  0  0  0  0  0
   -1.0218   -0.7684    0.0731 H   0  0  0  0  0  0  0  0  0  0  0  0
   -1.8222    0.7016    1.4744 H   0  0  0  0  0  0  0  0  0  0  0  0
    0.6319   -1.1807   -1.5549 H   0  0  0  0  0  0  0  0  0  0  0  0
    4.9734   -0.9516    0.9316 C   0  0  0  0  0  0  0  0  0  0  0  0
 27  7  1  0
  9  7  1  0
  9  4  2  0
  7  5  2  0
 28  4  1  0
  4 10  1  0
  5  8  1  0
 10  8  2  0
  8 20  1  0
 20 22  1  0
  1  2  2  0
 22 24  1  0
 22 21  1  0
  2 15  1  0
  2 24  1  0
 23 19  1  1
 25 21  1  0
 17 23  1  0
 21 12  1  0
 23 18  1  0
 23 61  1  0
 11 12  1  0
 11  3  1  0
 12  6  1  0
 61 26  1  0
  3 14  1  0
 26 14  1  0
  6 13  1  0
 14 13  1  0
 13 16  1  0
  5 29  1  0
  6 30  1  0
  9 31  1  0
 10 32  1  0
 11 33  1  0
 11 34  1  0
 12 35  1  1
 13 36  1  6
 14 37  1  1
 15 38  1  0
 15 39  1  0
 15 40  1  0
 16 41  1  0
 16 42  1  0
 16 43  1  0
 17 44  1  0
 17 45  1  0
 17 46  1  0
 18 47  1  0
 18 48  1  0
 18 49  1  0
 19 50  1  0
 19 51  1  0
 19 52  1  0
 20 53  1  0
 20 54  1  0
 61 55  1  0
 61 56  1  0
 21 57  1  6
 22 58  1  1
 24 59  1  0
 25 60  1  0
M  END
