
     RDKit          3D

 40 42  0  0  0  0  0  0  0  0999 V2000
    6.7928   -0.3698   -0.6167 C   0  0  0  0  0  0  0  0  0  0  0  0
    6.0943   -0.4042    0.5875 C   0  0  0  0  0  0  0  0  0  0  0  0
    4.7052   -0.2730    0.5845 C   0  0  0  0  0  0  0  0  0  0  0  0
    4.0055   -0.1049   -0.6046 C   0  0  0  0  0  0  0  0  0  0  0  0
    2.5358    0.0359   -0.5918 C   0  0  0  0  0  0  0  0  0  0  0  0
    4.7120   -0.0687   -1.8107 C   0  0  0  0  0  0  0  0  0  0  0  0
    6.0886   -0.2014   -1.8036 C   0  0  0  0  0  0  0  0  0  0  0  0
    1.7499   -0.4917   -1.6145 C   0  0  0  0  0  0  0  0  0  0  0  0
    0.3709   -0.3552   -1.6175 C   0  0  0  0  0  0  0  0  0  0  0  0
   -0.2764    0.3118   -0.5800 C   0  0  0  0  0  0  0  0  0  0  0  0
    1.8928    0.7108    0.4459 C   0  0  0  0  0  0  0  0  0  0  0  0
   -2.6218   -0.3011   -0.9813 C   0  0  0  0  0  0  0  0  0  0  0  0
   -4.0082    0.1535   -0.6508 C   0  0  0  0  0  0  0  0  0  0  0  0
   -4.8649    0.7334   -1.6159 C   0  0  0  0  0  0  0  0  0  0  0  0
   -4.6162    0.0092    0.5696 C   0  0  0  0  0  0  0  0  0  0  0  0
    6.6687   -0.5685    1.7937 O   0  0  0  0  0  0  0  0  0  0  0  0
    8.0738   -0.7128    1.8587 C   0  0  0  0  0  0  0  0  0  0  0  0
   -1.6558    0.5196   -0.5096 N   0  0  0  0  0  0  0  0  0  0  0  0
    0.5232    0.8278    0.4367 C   0  0  0  0  0  0  0  0  0  0  0  0
   -0.0794    1.4832    1.4424 F   0  0  0  0  0  0  0  0  0  0  0  0
   -2.4324   -1.2915   -1.6572 O   0  0  0  0  0  0  0  0  0  0  0  0
   -6.0949    1.0263   -1.1028 C   0  0  0  0  0  0  0  0  0  0  0  0
   -6.2318    0.5925    0.5372 S   0  0  0  0  0  0  0  0  0  0  0  0
   -4.0347   -0.6076    1.7642 C   0  0  0  0  0  0  0  0  0  0  0  0
   -2.9341   -1.1009    1.7895 O   0  0  0  0  0  0  0  0  0  0  0  0
   -4.8657   -0.5621    2.7944 O   0  0  0  0  0  0  0  0  0  0  0  0
    7.8687   -0.4695   -0.6525 H   0  0  0  0  0  0  0  0  0  0  0  0
    4.1764   -0.3250    1.5290 H   0  0  0  0  0  0  0  0  0  0  0  0
    4.1905    0.0871   -2.7460 H   0  0  0  0  0  0  0  0  0  0  0  0
    6.6356   -0.1666   -2.7369 H   0  0  0  0  0  0  0  0  0  0  0  0
    2.2146   -1.0325   -2.4280 H   0  0  0  0  0  0  0  0  0  0  0  0
   -0.1944   -0.7696   -2.4367 H   0  0  0  0  0  0  0  0  0  0  0  0
    2.4512    1.1579    1.2584 H   0  0  0  0  0  0  0  0  0  0  0  0
   -4.5777    0.9338   -2.6378 H   0  0  0  0  0  0  0  0  0  0  0  0
    8.3225   -0.8393    2.9094 H   0  0  0  0  0  0  0  0  0  0  0  0
    8.4204   -1.5907    1.3075 H   0  0  0  0  0  0  0  0  0  0  0  0
    8.5942    0.1704    1.4790 H   0  0  0  0  0  0  0  0  0  0  0  0
   -1.9644    1.2891    0.0656 H   0  0  0  0  0  0  0  0  0  0  0  0
   -6.9287    1.4791   -1.6171 H   0  0  0  0  0  0  0  0  0  0  0  0
   -4.4756   -0.9968    3.5680 H   0  0  0  0  0  0  0  0  0  0  0  0
  1  2  2  0
  1  7  1  0
  1 27  1  0
  2  3  1  0
  2 16  1  0
  3  4  2  0
  3 28  1  0
  4  5  1  0
  4  6  1  0
  5  8  2  0
  5 11  1  0
  6  7  2  0
  6 29  1  0
  7 30  1  0
  8  9  1  0
  8 31  1  0
  9 10  2  0
  9 32  1  0
 10 18  1  0
 10 19  1  0
 11 19  2  0
 11 33  1  0
 12 13  1  0
 12 18  1  0
 12 21  2  0
 13 14  1  0
 13 15  2  0
 14 22  2  0
 14 34  1  0
 15 23  1  0
 15 24  1  0
 16 17  1  0
 17 35  1  0
 17 36  1  0
 17 37  1  0
 18 38  1  0
 19 20  1  0
 22 23  1  0
 22 39  1  0
 24 25  2  0
 24 26  1  0
 26 40  1  0
M  END
