
     RDKit          3D

 36 38  0  0  0  0  0  0  0  0999 V2000
    7.3374   -1.9166   -0.0238 C   0  0  0  0  0  0  0  0  0  0  0  0
    6.0735   -1.1078   -0.0148 C   0  0  0  0  0  0  0  0  0  0  0  0
    6.1047    0.2827   -0.1174 C   0  0  0  0  0  0  0  0  0  0  0  0
    4.9436    1.0352   -0.0827 C   0  0  0  0  0  0  0  0  0  0  0  0
    3.7001    0.4159    0.0596 C   0  0  0  0  0  0  0  0  0  0  0  0
    3.6545   -0.9714    0.1606 C   0  0  0  0  0  0  0  0  0  0  0  0
    4.8292   -1.7129    0.1197 C   0  0  0  0  0  0  0  0  0  0  0  0
    2.3010    1.4896    0.1098 S   0  0  0  0  0  0  0  0  0  0  0  0
    0.9207    0.3284    0.0970 C   0  0  0  0  0  0  0  0  0  0  0  0
   -0.3683    1.1197    0.0799 C   0  0  0  0  0  0  0  0  0  0  0  0
   -0.3385    2.3325    0.1120 O   0  0  0  0  0  0  0  0  0  0  0  0
   -1.6399    0.3724    0.0296 C   0  0  0  0  0  0  0  0  0  0  0  0
   -1.6788   -1.0226   -0.0206 C   0  0  0  0  0  0  0  0  0  0  0  0
   -2.8792   -1.7168   -0.0723 C   0  0  0  0  0  0  0  0  0  0  0  0
   -4.0472   -0.9752   -0.0723 C   0  0  0  0  0  0  0  0  0  0  0  0
   -4.0354    0.4231   -0.0191 C   0  0  0  0  0  0  0  0  0  0  0  0
   -2.8435    1.0977    0.0306 C   0  0  0  0  0  0  0  0  0  0  0  0
   -5.4517    0.9005   -0.0319 C   0  0  0  0  0  0  0  0  0  0  0  0
   -6.2541   -0.3880   -0.1062 C   0  0  0  0  0  0  0  0  0  0  0  0
   -7.4574   -0.5093   -0.1436 O   0  0  0  0  0  0  0  0  0  0  0  0
   -5.3513   -1.4182   -0.1215 N   0  0  0  0  0  0  0  0  0  0  0  0
    7.7381   -2.0298    0.9860 H   0  0  0  0  0  0  0  0  0  0  0  0
    7.1693   -2.9184   -0.4186 H   0  0  0  0  0  0  0  0  0  0  0  0
    8.1122   -1.4425   -0.6258 H   0  0  0  0  0  0  0  0  0  0  0  0
    7.0540    0.7923   -0.2348 H   0  0  0  0  0  0  0  0  0  0  0  0
    4.7631   -2.7920    0.1943 H   0  0  0  0  0  0  0  0  0  0  0  0
    5.0080    2.1133   -0.1715 H   0  0  0  0  0  0  0  0  0  0  0  0
    2.7176   -1.4997    0.2718 H   0  0  0  0  0  0  0  0  0  0  0  0
    0.9744   -0.3204   -0.7803 H   0  0  0  0  0  0  0  0  0  0  0  0
    0.9406   -0.3099    0.9838 H   0  0  0  0  0  0  0  0  0  0  0  0
   -0.7645   -1.6011   -0.0213 H   0  0  0  0  0  0  0  0  0  0  0  0
   -2.8267    2.1793    0.0698 H   0  0  0  0  0  0  0  0  0  0  0  0
   -2.8924   -2.7972   -0.1117 H   0  0  0  0  0  0  0  0  0  0  0  0
   -5.6227   -2.3896   -0.1661 H   0  0  0  0  0  0  0  0  0  0  0  0
   -5.7273    1.4568    0.8672 H   0  0  0  0  0  0  0  0  0  0  0  0
   -5.6863    1.5393   -0.8865 H   0  0  0  0  0  0  0  0  0  0  0  0
  1  2  1  0
  2  3  2  0
  2  7  1  0
  3  4  1  0
  4  5  2  0
  5  6  1  0
  5  8  1  0
  6  7  2  0
  8  9  1  0
  9 10  1  0
 10 11  2  0
 10 12  1  0
 12 13  2  0
 12 17  1  0
 13 14  1  0
 14 15  2  0
 15 16  1  0
 15 21  1  0
 16 17  2  0
 16 18  1  0
 18 19  1  0
 19 20  2  0
 19 21  1  0
  1 22  1  0
  1 23  1  0
  1 24  1  0
  3 25  1  0
  7 26  1  0
  4 27  1  0
  6 28  1  0
  9 29  1  0
  9 30  1  0
 13 31  1  0
 17 32  1  0
 14 33  1  0
 21 34  1  0
 18 35  1  0
 18 36  1  0
M  END
