
     RDKit          3D

 38 39  0  0  0  0  0  0  0  0999 V2000
   -5.6964    0.5933   -0.9635 C   0  0  0  0  0  0  0  0  0  0  0  0
   -7.2526   -0.2994   -1.2941 S   0  0  0  0  0  0  0  0  0  0  0  0
   -4.7773   -0.2989   -0.1435 C   0  0  0  0  0  0  0  0  0  0  0  0
   -3.4678    0.4192    0.1502 C   0  0  0  0  0  0  0  0  0  0  0  0
   -2.4917   -0.4328    0.9405 C   0  0  0  0  0  0  0  0  0  0  0  0
   -2.7744   -1.5780    1.2665 O   0  0  0  0  0  0  0  0  0  0  0  0
   -1.3088    0.1331    1.2712 N   0  0  0  0  0  0  0  0  0  0  0  0
   -0.2708   -0.6159    1.9485 C   0  0  0  0  0  0  0  0  0  0  0  0
    0.9610   -0.7538    1.0668 C   0  0  0  0  0  0  0  0  0  0  0  0
    1.4172    0.5492    0.6230 N   0  0  0  0  0  0  0  0  0  0  0  0
    0.3678    1.3163   -0.0355 C   0  0  0  0  0  0  0  0  0  0  0  0
   -0.8497    1.4441    0.8631 C   0  0  0  0  0  0  0  0  0  0  0  0
    2.7091    0.6633    0.1218 C   0  0  0  0  0  0  0  0  0  0  0  0
    3.2509    1.9277   -0.1622 C   0  0  0  0  0  0  0  0  0  0  0  0
    4.5458    2.0562   -0.6257 C   0  0  0  0  0  0  0  0  0  0  0  0
    5.3617    0.9471   -0.8208 C   0  0  0  0  0  0  0  0  0  0  0  0
    4.8235   -0.2938   -0.5384 C   0  0  0  0  0  0  0  0  0  0  0  0
    3.5232   -0.4571   -0.0851 C   0  0  0  0  0  0  0  0  0  0  0  0
    5.7961   -1.7139   -0.7775 Cl  0  0  0  0  0  0  0  0  0  0  0  0
   -5.2259    0.8581   -1.9108 H   0  0  0  0  0  0  0  0  0  0  0  0
   -5.9189    1.5156   -0.4260 H   0  0  0  0  0  0  0  0  0  0  0  0
   -7.8645    0.6577   -1.9997 H   0  0  0  0  0  0  0  0  0  0  0  0
   -5.2708   -0.5773    0.7898 H   0  0  0  0  0  0  0  0  0  0  0  0
   -4.5829   -1.2238   -0.6897 H   0  0  0  0  0  0  0  0  0  0  0  0
   -2.9997    0.7263   -0.7907 H   0  0  0  0  0  0  0  0  0  0  0  0
   -3.6715    1.3463    0.6946 H   0  0  0  0  0  0  0  0  0  0  0  0
    0.0005   -0.0921    2.8700 H   0  0  0  0  0  0  0  0  0  0  0  0
   -0.6385   -1.6015    2.2187 H   0  0  0  0  0  0  0  0  0  0  0  0
    1.7404   -1.2292    1.6633 H   0  0  0  0  0  0  0  0  0  0  0  0
    0.7366   -1.4229    0.2227 H   0  0  0  0  0  0  0  0  0  0  0  0
    0.7218    2.3164   -0.2730 H   0  0  0  0  0  0  0  0  0  0  0  0
    0.0738    0.8390   -0.9813 H   0  0  0  0  0  0  0  0  0  0  0  0
   -1.6250    1.9935    0.3384 H   0  0  0  0  0  0  0  0  0  0  0  0
   -0.5859    2.0207    1.7546 H   0  0  0  0  0  0  0  0  0  0  0  0
    2.6674    2.8231    0.0037 H   0  0  0  0  0  0  0  0  0  0  0  0
    4.9385    3.0441   -0.8272 H   0  0  0  0  0  0  0  0  0  0  0  0
    6.3776    1.0538   -1.1739 H   0  0  0  0  0  0  0  0  0  0  0  0
    3.1557   -1.4576    0.0901 H   0  0  0  0  0  0  0  0  0  0  0  0
  2  1  1  0
  3  1  1  0
  1 20  1  0
  1 21  1  0
  2 22  1  0
  3  4  1  0
  3 23  1  0
  3 24  1  0
  5  4  1  0
  4 25  1  0
  4 26  1  0
  7  5  1  0
  5  6  2  0
 12  7  1  0
  8  7  1  0
  9  8  1  0
  8 27  1  0
  8 28  1  0
 10  9  1  0
  9 29  1  0
  9 30  1  0
 13 10  1  0
 11 10  1  0
 11 12  1  0
 11 31  1  0
 11 32  1  0
 12 33  1  0
 12 34  1  0
 18 13  1  0
 13 14  2  0
 15 14  1  0
 14 35  1  0
 16 15  2  0
 15 36  1  0
 17 16  1  0
 16 37  1  0
 19 17  1  0
 17 18  2  0
 18 38  1  0
M  END
