
     RDKit          3D

 38 40  0  0  0  0  0  0  0  0999 V2000
   -1.1726    0.9471    1.1047 C   0  0  0  0  0  0  0  0  0  0  0  0
   -1.9119    2.1210    1.2039 C   0  0  0  0  0  0  0  0  0  0  0  0
   -1.8001    3.0889    0.2050 C   0  0  0  0  0  0  0  0  0  0  0  0
   -2.4694    4.2493    0.2102 O   0  0  0  0  0  0  0  0  0  0  0  0
   -0.9282    2.8574   -0.8665 C   0  0  0  0  0  0  0  0  0  0  0  0
   -0.1958    1.7043   -0.9327 C   0  0  0  0  0  0  0  0  0  0  0  0
   -0.3168    0.7144    0.0418 C   0  0  0  0  0  0  0  0  0  0  0  0
    0.4589   -0.5278   -0.0504 C   0  0  0  0  0  0  0  0  0  0  0  0
    1.9308   -0.4406   -0.1048 C   0  0  0  0  0  0  0  0  0  0  0  0
    2.7080   -1.3863   -0.7632 C   0  0  0  0  0  0  0  0  0  0  0  0
    4.0812   -1.3029   -0.7599 C   0  0  0  0  0  0  0  0  0  0  0  0
    4.7209   -0.2445   -0.0868 C   0  0  0  0  0  0  0  0  0  0  0  0
    6.0731   -0.2117   -0.1181 O   0  0  0  0  0  0  0  0  0  0  0  0
    3.9514    0.7040    0.5598 C   0  0  0  0  0  0  0  0  0  0  0  0
    2.5863    0.6031    0.5370 C   0  0  0  0  0  0  0  0  0  0  0  0
   -0.1586   -1.7054   -0.0199 C   0  0  0  0  0  0  0  0  0  0  0  0
   -1.6086   -1.8313   -0.0629 C   0  0  0  0  0  0  0  0  0  0  0  0
   -2.3538   -0.8920   -0.7583 C   0  0  0  0  0  0  0  0  0  0  0  0
   -3.7335   -1.0044   -0.8473 C   0  0  0  0  0  0  0  0  0  0  0  0
   -4.3860   -2.0555   -0.2178 C   0  0  0  0  0  0  0  0  0  0  0  0
   -3.6395   -3.0330    0.4445 C   0  0  0  0  0  0  0  0  0  0  0  0
   -2.2622   -2.9251    0.5179 C   0  0  0  0  0  0  0  0  0  0  0  0
   -1.2684    0.2040    1.8931 H   0  0  0  0  0  0  0  0  0  0  0  0
   -2.5800    2.3288    2.0297 H   0  0  0  0  0  0  0  0  0  0  0  0
   -3.0402    4.3468    0.9805 H   0  0  0  0  0  0  0  0  0  0  0  0
   -0.8213    3.6087   -1.6581 H   0  0  0  0  0  0  0  0  0  0  0  0
    0.4823    1.5325   -1.7537 H   0  0  0  0  0  0  0  0  0  0  0  0
    2.2524   -2.2046   -1.3117 H   0  0  0  0  0  0  0  0  0  0  0  0
    4.6673   -2.0528   -1.2925 H   0  0  0  0  0  0  0  0  0  0  0  0
    6.3984    0.5635    0.3571 H   0  0  0  0  0  0  0  0  0  0  0  0
    4.3462    1.5589    1.0952 H   0  0  0  0  0  0  0  0  0  0  0  0
    2.0317    1.3610    1.0494 H   0  0  0  0  0  0  0  0  0  0  0  0
    0.4207   -2.6236    0.0624 H   0  0  0  0  0  0  0  0  0  0  0  0
   -1.8318   -0.0767   -1.2367 H   0  0  0  0  0  0  0  0  0  0  0  0
   -4.2752   -0.2709   -1.4270 H   0  0  0  0  0  0  0  0  0  0  0  0
   -5.4616   -2.1431   -0.2889 H   0  0  0  0  0  0  0  0  0  0  0  0
   -4.1373   -3.8794    0.9171 H   0  0  0  0  0  0  0  0  0  0  0  0
   -1.6879   -3.6825    1.0473 H   0  0  0  0  0  0  0  0  0  0  0  0
 20 21  2  0
 20 19  1  0
 21 22  1  0
 19 18  2  0
 22 17  2  0
 18 17  1  0
 17 16  1  0
 16  8  2  0
 15 14  2  0
 15  9  1  0
  8  9  1  0
  8  7  1  0
 14 12  1  0
  1  7  2  0
  1  2  1  0
  9 10  2  0
  7  6  1  0
  2  3  2  0
 12 13  1  0
 12 11  2  0
  6  5  2  0
  3  5  1  0
  3  4  1  0
 10 11  1  0
  1 23  1  0
  2 24  1  0
  4 25  1  0
  5 26  1  0
  6 27  1  0
 10 28  1  0
 11 29  1  0
 13 30  1  0
 14 31  1  0
 15 32  1  0
 16 33  1  0
 18 34  1  0
 19 35  1  0
 20 36  1  0
 21 37  1  0
 22 38  1  0
M  END
