
     RDKit          3D

 43 44  0  0  0  0  0  0  0  0999 V2000
    1.6291    0.8401    1.4124 C   0  0  0  0  0  0  0  0  0  0  0  0
    1.9748    2.1743    1.4984 C   0  0  0  0  0  0  0  0  0  0  0  0
    2.7404    2.7893    0.4934 C   0  0  0  0  0  0  0  0  0  0  0  0
    3.1747    2.0820   -0.6109 C   0  0  0  0  0  0  0  0  0  0  0  0
    2.8205    0.7358   -0.6942 C   0  0  0  0  0  0  0  0  0  0  0  0
    2.0489    0.0974    0.3023 C   0  0  0  0  0  0  0  0  0  0  0  0
    2.5376   -1.3905   -1.2931 C   0  0  0  0  0  0  0  0  0  0  0  0
    1.8778   -1.2667   -0.1033 C   0  0  0  0  0  0  0  0  0  0  0  0
    1.0699   -2.3114    0.5910 C   0  0  0  0  0  0  0  0  0  0  0  0
   -0.4074   -2.2979    0.1626 C   0  0  1  0  0  0  0  0  0  0  0  0
   -1.2490   -3.3039    0.9290 C   0  0  0  0  0  0  0  0  0  0  0  0
   -1.6733    1.2721   -0.3464 C   0  0  2  0  0  0  0  0  0  0  0  0
   -2.9715    1.2602    0.4758 C   0  0  1  0  0  0  0  0  0  0  0  0
   -3.3753    2.6814    0.8540 C   0  0  0  0  0  0  0  0  0  0  0  0
   -4.1041    0.5401   -0.2476 C   0  0  0  0  0  0  0  0  0  0  0  0
    3.1011   -0.1969   -1.6484 N   0  0  0  0  0  0  0  0  0  0  0  0
   -0.9791   -0.9732    0.2971 N   0  0  0  0  0  0  0  0  0  0  0  0
   -1.0852   -0.4356   -1.9018 O   0  0  0  0  0  0  0  0  0  0  0  0
   -1.8232    2.0164   -1.5217 O   0  0  0  0  0  0  0  0  0  0  0  0
   -1.2606   -2.9406    2.2911 O   0  0  0  0  0  0  0  0  0  0  0  0
    1.0461    0.3767    2.1995 H   0  0  0  0  0  0  0  0  0  0  0  0
    1.6532    2.7583    2.3513 H   0  0  0  0  0  0  0  0  0  0  0  0
    2.9981    3.8363    0.5887 H   0  0  0  0  0  0  0  0  0  0  0  0
    3.7676    2.5574   -1.3821 H   0  0  0  0  0  0  0  0  0  0  0  0
    2.6460   -2.2574   -1.9266 H   0  0  0  0  0  0  0  0  0  0  0  0
    1.4681   -3.3061    0.3744 H   0  0  0  0  0  0  0  0  0  0  0  0
    1.1432   -2.1812    1.6740 H   0  0  0  0  0  0  0  0  0  0  0  0
   -0.4586   -2.5674   -0.8926 H   0  0  0  0  0  0  0  0  0  0  0  0
   -2.2601   -3.3091    0.5053 H   0  0  0  0  0  0  0  0  0  0  0  0
   -0.8273   -4.3057    0.7762 H   0  0  0  0  0  0  0  0  0  0  0  0
   -0.8793    1.7195    0.2716 H   0  0  0  0  0  0  0  0  0  0  0  0
   -2.7628    0.7256    1.4090 H   0  0  0  0  0  0  0  0  0  0  0  0
   -4.2381    2.6689    1.5211 H   0  0  0  0  0  0  0  0  0  0  0  0
   -2.5675    3.2051    1.3684 H   0  0  0  0  0  0  0  0  0  0  0  0
   -3.6472    3.2653   -0.0261 H   0  0  0  0  0  0  0  0  0  0  0  0
   -3.8556   -0.4986   -0.4742 H   0  0  0  0  0  0  0  0  0  0  0  0
   -5.0039    0.5269    0.3686 H   0  0  0  0  0  0  0  0  0  0  0  0
   -4.3536    1.0401   -1.1842 H   0  0  0  0  0  0  0  0  0  0  0  0
    3.6525   -0.0431   -2.4754 H   0  0  0  0  0  0  0  0  0  0  0  0
   -1.0940   -0.6267    1.2368 H   0  0  0  0  0  0  0  0  0  0  0  0
   -1.6688    1.3961   -2.2507 H   0  0  0  0  0  0  0  0  0  0  0  0
   -1.9251   -3.4683    2.7424 H   0  0  0  0  0  0  0  0  0  0  0  0
   -1.2104   -0.1383   -0.7191 C   0  0  0  0  0  0  0  0  0  0  0  0
 16  7  1  0
 16  5  1  0
 15 13  1  0
  7  8  2  0
  4  5  2  0
  4  3  1  0
  5  6  1  0
 18 43  2  0
 14 13  1  0
 13 12  1  0
  8  6  1  0
  8  9  1  0
  3  2  2  0
  6  1  2  0
 43 12  1  0
 43 17  1  0
 12 19  1  0
 10  9  1  0
 10 17  1  0
 10 11  1  0
  2  1  1  0
 11 20  1  0
  1 21  1  0
  2 22  1  0
  3 23  1  0
  4 24  1  0
  7 25  1  0
  9 26  1  0
  9 27  1  0
 10 28  1  6
 11 29  1  0
 11 30  1  0
 12 31  1  1
 13 32  1  1
 14 33  1  0
 14 34  1  0
 14 35  1  0
 15 36  1  0
 15 37  1  0
 15 38  1  0
 16 39  1  0
 17 40  1  0
 19 41  1  0
 20 42  1  0
M  END
