
     RDKit          3D

 43 44  0  0  0  0  0  0  0  0999 V2000
    5.6811    1.4500    1.3428 C   0  0  0  0  0  0  0  0  0  0  0  0
    4.4488    0.7321    1.8938 C   0  0  0  0  0  0  0  0  0  0  0  0
    3.4913    0.3442    0.8039 C   0  0  0  0  0  0  0  0  0  0  0  0
    2.4043    1.1521    0.5159 C   0  0  0  0  0  0  0  0  0  0  0  0
    3.6749   -0.8134    0.0355 C   0  0  0  0  0  0  0  0  0  0  0  0
    4.7737   -1.6761    0.3183 C   0  0  0  0  0  0  0  0  0  0  0  0
    5.6592   -2.3801    0.5434 N   0  0  0  0  0  0  0  0  0  0  0  0
    2.8038   -1.1509   -1.0106 C   0  0  0  0  0  0  0  0  0  0  0  0
    3.0260   -2.3833   -1.8321 C   0  0  0  0  0  0  0  0  0  0  0  0
    1.7369   -0.3105   -1.2829 C   0  0  0  0  0  0  0  0  0  0  0  0
    1.5271    0.8345   -0.5170 C   0  0  0  0  0  0  0  0  0  0  0  0
    0.4631    1.7134   -0.7858 N   0  0  0  0  0  0  0  0  0  0  0  0
   -1.1244    1.2033   -0.8900 S   0  0  1  0  0  0  0  0  0  0  0  0
   -1.9073    2.4195   -1.0072 O   0  0  0  0  0  0  0  0  0  0  0  0
   -1.2123    0.1958   -1.9314 O   0  0  0  0  0  0  0  0  0  0  0  0
   -1.4748    0.4165    0.6910 C   0  0  0  0  0  0  0  0  0  0  0  0
   -2.8836   -0.0845    0.6917 C   0  0  0  0  0  0  0  0  0  0  0  0
   -3.9187    0.7296    1.1396 C   0  0  0  0  0  0  0  0  0  0  0  0
   -5.2280    0.2739    1.1252 C   0  0  0  0  0  0  0  0  0  0  0  0
   -5.5400   -0.9988    0.6522 C   0  0  0  0  0  0  0  0  0  0  0  0
   -6.9607   -1.4777    0.6034 C   0  0  0  0  0  0  0  0  0  0  0  0
   -4.4966   -1.8071    0.2035 C   0  0  0  0  0  0  0  0  0  0  0  0
   -3.1857   -1.3578    0.2187 C   0  0  0  0  0  0  0  0  0  0  0  0
    6.3432    1.7438    2.1571 H   0  0  0  0  0  0  0  0  0  0  0  0
    6.2493    0.8108    0.6667 H   0  0  0  0  0  0  0  0  0  0  0  0
    5.3981    2.3502    0.7972 H   0  0  0  0  0  0  0  0  0  0  0  0
    4.7595   -0.1504    2.4574 H   0  0  0  0  0  0  0  0  0  0  0  0
    3.9325    1.3842    2.5998 H   0  0  0  0  0  0  0  0  0  0  0  0
    2.2360    2.0417    1.1118 H   0  0  0  0  0  0  0  0  0  0  0  0
    3.0102   -3.2818   -1.2135 H   0  0  0  0  0  0  0  0  0  0  0  0
    2.2555   -2.4879   -2.5931 H   0  0  0  0  0  0  0  0  0  0  0  0
    3.9933   -2.3552   -2.3362 H   0  0  0  0  0  0  0  0  0  0  0  0
    1.0819   -0.5471   -2.1082 H   0  0  0  0  0  0  0  0  0  0  0  0
    0.5251    2.6015   -0.2984 H   0  0  0  0  0  0  0  0  0  0  0  0
   -0.7436   -0.3843    0.8140 H   0  0  0  0  0  0  0  0  0  0  0  0
   -1.2998    1.1728    1.4574 H   0  0  0  0  0  0  0  0  0  0  0  0
   -3.6998    1.7215    1.5157 H   0  0  0  0  0  0  0  0  0  0  0  0
   -6.0191    0.9188    1.4891 H   0  0  0  0  0  0  0  0  0  0  0  0
   -7.4049   -1.2693   -0.3722 H   0  0  0  0  0  0  0  0  0  0  0  0
   -7.0281   -2.5533    0.7651 H   0  0  0  0  0  0  0  0  0  0  0  0
   -7.5770   -0.9829    1.3530 H   0  0  0  0  0  0  0  0  0  0  0  0
   -4.7128   -2.8043   -0.1610 H   0  0  0  0  0  0  0  0  0  0  0  0
   -2.3924   -2.0082   -0.1291 H   0  0  0  0  0  0  0  0  0  0  0  0
  7  6  3  0
  9  8  1  0
  6  5  1  0
  8  5  1  0
  8 10  2  0
  5  3  2  0
 21 20  1  0
 10 11  1  0
 19 20  1  0
 19 18  2  0
  3  2  1  0
  3  4  1  0
  2  1  1  0
 20 22  2  0
 18 17  1  0
 11  4  2  0
 11 12  1  0
 22 23  1  0
 13 12  1  1
 17 23  2  0
 17 16  1  0
 16 13  1  0
 13 14  2  0
 13 15  2  0
  1 24  1  0
  1 25  1  0
  1 26  1  0
  2 27  1  0
  2 28  1  0
  4 29  1  0
  9 30  1  0
  9 31  1  0
  9 32  1  0
 10 33  1  0
 12 34  1  0
 16 35  1  0
 16 36  1  0
 18 37  1  0
 19 38  1  0
 21 39  1  0
 21 40  1  0
 21 41  1  0
 22 42  1  0
 23 43  1  0
M  END
