
     RDKit          3D

 34 33  0  0  0  0  0  0  0  0999 V2000
    0.1825   -0.2388    6.7094 N   0  0  0  0  0  0  0  0  0  0  0  0
   -0.4090    0.3119    5.4979 C   0  0  0  0  0  0  0  0  0  0  0  0
    0.2531   -0.2614    4.2549 C   0  0  0  0  0  0  0  0  0  0  0  0
   -0.3188    0.3083    2.9638 C   0  0  0  0  0  0  0  0  0  0  0  0
    0.3381   -0.2614    1.7132 C   0  0  0  0  0  0  0  0  0  0  0  0
   -0.2309    0.3129    0.4226 C   0  0  0  0  0  0  0  0  0  0  0  0
    0.4342   -0.2484   -0.8273 C   0  0  0  0  0  0  0  0  0  0  0  0
   -0.1521    0.3214   -2.1087 C   0  0  0  0  0  0  0  0  0  0  0  0
    0.5103   -0.2201   -3.2819 N   0  0  0  0  0  0  0  0  0  0  0  0
   -0.0352    0.2807   -4.5362 C   0  0  1  0  0  0  0  0  0  0  0  0
    0.8900   -0.0776   -5.5908 N   0  0  0  0  0  0  0  0  0  0  0  0
   -1.3171   -0.2914   -4.8648 N   0  0  0  0  0  0  0  0  0  0  0  0
   -0.2567    0.1791    7.5197 H   0  0  0  0  0  0  0  0  0  0  0  0
   -0.0318   -1.2272    6.7648 H   0  0  0  0  0  0  0  0  0  0  0  0
   -1.4950    0.1507    5.4277 H   0  0  0  0  0  0  0  0  0  0  0  0
   -0.2645    1.3961    5.5102 H   0  0  0  0  0  0  0  0  0  0  0  0
    1.3294   -0.0680    4.3018 H   0  0  0  0  0  0  0  0  0  0  0  0
    0.1364   -1.3515    4.2532 H   0  0  0  0  0  0  0  0  0  0  0  0
   -1.3971    0.1183    2.9254 H   0  0  0  0  0  0  0  0  0  0  0  0
   -0.2056    1.3982    2.9664 H   0  0  0  0  0  0  0  0  0  0  0  0
    1.4165   -0.0718    1.7509 H   0  0  0  0  0  0  0  0  0  0  0  0
    0.2240   -1.3510    1.7076 H   0  0  0  0  0  0  0  0  0  0  0  0
   -1.3078    0.1155    0.3810 H   0  0  0  0  0  0  0  0  0  0  0  0
   -0.1251    1.4033    0.4333 H   0  0  0  0  0  0  0  0  0  0  0  0
    1.5089   -0.0357   -0.7920 H   0  0  0  0  0  0  0  0  0  0  0  0
    0.3369   -1.3383   -0.8421 H   0  0  0  0  0  0  0  0  0  0  0  0
   -1.2148    0.0652   -2.1567 H   0  0  0  0  0  0  0  0  0  0  0  0
   -0.1074    1.4227   -2.0727 H   0  0  0  0  0  0  0  0  0  0  0  0
    1.4947    0.0216   -3.2291 H   0  0  0  0  0  0  0  0  0  0  0  0
   -0.1996    1.3731   -4.4721 H   0  0  0  0  0  0  0  0  0  0  0  0
    0.5050    0.2401   -6.4712 H   0  0  0  0  0  0  0  0  0  0  0  0
    1.7624    0.4243   -5.4721 H   0  0  0  0  0  0  0  0  0  0  0  0
   -1.2801   -1.2954   -4.7254 H   0  0  0  0  0  0  0  0  0  0  0  0
   -2.0340    0.0651   -4.2469 H   0  0  0  0  0  0  0  0  0  0  0  0
  1  2  1  0
  1 13  1  0
  1 14  1  0
  2  3  1  0
  2 15  1  0
  2 16  1  0
  3  4  1  0
  3 17  1  0
  3 18  1  0
  4  5  1  0
  4 19  1  0
  4 20  1  0
  5  6  1  0
  5 21  1  0
  5 22  1  0
  6  7  1  0
  6 23  1  0
  6 24  1  0
  7  8  1  0
  7 25  1  0
  7 26  1  0
  8  9  1  0
  8 27  1  0
  8 28  1  0
  9 10  1  0
  9 29  1  0
 10 11  1  0
 10 12  1  0
 10 30  1  1
 11 31  1  0
 11 32  1  0
 12 33  1  0
 12 34  1  0
M  END
