
     RDKit          3D

 49 49  0  0  0  0  0  0  0  0999 V2000
    1.0029   -0.4374    3.9473 C   0  0  0  0  0  0  0  0  0  0  0  0
    1.5274    0.2236    5.2125 C   0  0  1  0  0  0  0  0  0  0  0  0
    0.5924    0.0931    6.2663 O   0  0  0  0  0  0  0  0  0  0  0  0
   -1.5964    0.4220    7.1216 C   0  0  0  0  0  0  0  0  0  0  0  0
    2.8371   -0.3837    5.6703 C   0  0  0  0  0  0  0  0  0  0  0  0
   -0.0975    0.1231    1.1041 C   0  0  0  0  0  0  0  0  0  0  0  0
   -0.6708   -0.4374   -0.1911 C   0  0  0  0  0  0  0  0  0  0  0  0
   -0.0291    0.1665   -1.4334 C   0  0  0  0  0  0  0  0  0  0  0  0
   -0.5993   -0.3831   -2.7342 C   0  0  0  0  0  0  0  0  0  0  0  0
    0.0325    0.2411   -3.9717 C   0  0  0  0  0  0  0  0  0  0  0  0
   -0.5488   -0.2990   -5.2712 C   0  0  0  0  0  0  0  0  0  0  0  0
    0.0828    0.3508   -6.4911 C   0  0  0  0  0  0  0  0  0  0  0  0
   -0.2869    0.1129    3.5794 N   0  0  0  0  0  0  0  0  0  0  0  0
   -0.6787    0.6174    5.9334 C   0  0  2  0  0  0  0  0  0  0  0  0
   -1.2187   -0.0495    4.6775 C   0  0  0  0  0  0  0  0  0  0  0  0
   -0.4953   -0.1736   -7.7127 N   0  0  0  0  0  0  0  0  0  0  0  0
   -0.0510    0.1386   -8.9308 C   0  0  0  0  0  0  0  0  0  0  0  0
    0.8893    0.8817   -9.1646 O   0  0  0  0  0  0  0  0  0  0  0  0
    0.9478   -1.5308    4.1041 H   0  0  0  0  0  0  0  0  0  0  0  0
    1.7234   -0.2663    3.1444 H   0  0  0  0  0  0  0  0  0  0  0  0
    1.6807    1.2920    4.9928 H   0  0  0  0  0  0  0  0  0  0  0  0
   -1.2074    0.9260    8.0070 H   0  0  0  0  0  0  0  0  0  0  0  0
   -2.5805    0.8398    6.9082 H   0  0  0  0  0  0  0  0  0  0  0  0
   -1.7224   -0.6361    7.3571 H   0  0  0  0  0  0  0  0  0  0  0  0
    3.2140    0.1229    6.5590 H   0  0  0  0  0  0  0  0  0  0  0  0
    2.7234   -1.4442    5.9014 H   0  0  0  0  0  0  0  0  0  0  0  0
    3.5905   -0.2875    4.8884 H   0  0  0  0  0  0  0  0  0  0  0  0
   -0.7408   -1.5389    2.3275 H   0  0  0  0  0  0  0  0  0  0  0  0
   -1.8592   -0.1869    2.2688 H   0  0  0  0  0  0  0  0  0  0  0  0
   -0.1967    1.2130    1.1104 H   0  0  0  0  0  0  0  0  0  0  0  0
    0.9755   -0.0886    1.1397 H   0  0  0  0  0  0  0  0  0  0  0  0
   -0.5447   -1.5255   -0.2078 H   0  0  0  0  0  0  0  0  0  0  0  0
   -1.7514   -0.2583   -0.2200 H   0  0  0  0  0  0  0  0  0  0  0  0
   -0.1583    1.2543   -1.4128 H   0  0  0  0  0  0  0  0  0  0  0  0
    1.0519   -0.0089   -1.4066 H   0  0  0  0  0  0  0  0  0  0  0  0
   -0.4609   -1.4694   -2.7635 H   0  0  0  0  0  0  0  0  0  0  0  0
   -1.6817   -0.2154   -2.7562 H   0  0  0  0  0  0  0  0  0  0  0  0
   -0.1008    1.3277   -3.9371 H   0  0  0  0  0  0  0  0  0  0  0  0
    1.1136    0.0674   -3.9549 H   0  0  0  0  0  0  0  0  0  0  0  0
   -0.4022   -1.3826   -5.3180 H   0  0  0  0  0  0  0  0  0  0  0  0
   -1.6303   -0.1280   -5.2851 H   0  0  0  0  0  0  0  0  0  0  0  0
   -0.0561    1.4354   -6.4464 H   0  0  0  0  0  0  0  0  0  0  0  0
    1.1609    0.1708   -6.4912 H   0  0  0  0  0  0  0  0  0  0  0  0
   -0.5835    1.6945    5.7232 H   0  0  0  0  0  0  0  0  0  0  0  0
   -1.4289   -1.1133    4.8919 H   0  0  0  0  0  0  0  0  0  0  0  0
   -2.1697    0.4206    4.4137 H   0  0  0  0  0  0  0  0  0  0  0  0
   -1.2949   -0.7829   -7.6458 H   0  0  0  0  0  0  0  0  0  0  0  0
   -0.6293   -0.3556   -9.7264 H   0  0  0  0  0  0  0  0  0  0  0  0
   -0.7960   -0.4360    2.3357 C   0  0  0  0  0  0  0  0  0  0  0  0
  1  2  1  0
  1 13  1  0
  1 19  1  0
  1 20  1  0
  2  3  1  0
  2  5  1  0
  2 21  1  6
  3 14  1  0
  4 14  1  0
  4 22  1  0
  4 23  1  0
  4 24  1  0
  5 25  1  0
  5 26  1  0
  5 27  1  0
 49  6  1  0
 49 13  1  0
 49 28  1  0
 49 29  1  0
  6  7  1  0
  6 30  1  0
  6 31  1  0
  7  8  1  0
  7 32  1  0
  7 33  1  0
  8  9  1  0
  8 34  1  0
  8 35  1  0
  9 10  1  0
  9 36  1  0
  9 37  1  0
 10 11  1  0
 10 38  1  0
 10 39  1  0
 11 12  1  0
 11 40  1  0
 11 41  1  0
 12 16  1  0
 12 42  1  0
 12 43  1  0
 13 15  1  0
 14 15  1  0
 14 44  1  6
 15 45  1  0
 15 46  1  0
 16 17  1  0
 16 47  1  0
 17 18  2  0
 17 48  1  0
M  END
