
     RDKit          3D

 48 49  0  0  0  0  0  0  0  0999 V2000
    6.0949    0.3431   -1.3750 C   0  0  0  0  0  0  0  0  0  0  0  0
    1.8629   -0.1061   -0.1172 N   0  0  0  0  0  0  0  0  0  0  0  0
    2.9268   -0.0085    0.8642 C   0  0  0  0  0  0  0  0  0  0  0  0
    4.3014   -0.3178    0.2824 C   0  0  2  0  0  0  0  0  0  0  0  0
    5.3576   -0.3057    1.3878 C   0  0  0  0  0  0  0  0  0  0  0  0
    4.7015    0.6493   -0.8330 C   0  0  0  0  0  0  0  0  0  0  0  0
    0.5542    0.1018    0.4681 C   0  0  0  0  0  0  0  0  0  0  0  0
   -0.5543    0.0591   -0.5810 C   0  0  1  0  0  0  0  0  0  0  0  0
    7.1404    0.3528   -0.2656 C   0  0  0  0  0  0  0  0  0  0  0  0
   -0.4455   -1.0874   -1.3981 O   0  0  0  0  0  0  0  0  0  0  0  0
   -1.9536    0.1622    0.0630 C   0  0  1  0  0  0  0  0  0  0  0  0
    6.7550   -0.6070    0.8548 C   0  0  0  0  0  0  0  0  0  0  0  0
   -2.1394    1.3211    0.9171 N   0  0  0  0  0  0  0  0  0  0  0  0
   -3.0454    0.1562   -1.0140 C   0  0  0  0  0  0  0  0  0  0  0  0
   -5.1983    1.1400   -0.1337 C   0  0  0  0  0  0  0  0  0  0  0  0
   -6.4675    1.0046    0.4132 C   0  0  0  0  0  0  0  0  0  0  0  0
   -6.9863   -0.2580    0.6713 C   0  0  0  0  0  0  0  0  0  0  0  0
   -6.2267   -1.3814    0.3716 C   0  0  0  0  0  0  0  0  0  0  0  0
   -4.9601   -1.2390   -0.1802 C   0  0  0  0  0  0  0  0  0  0  0  0
   -4.4262    0.0218   -0.4405 C   0  0  0  0  0  0  0  0  0  0  0  0
    6.0841   -0.6435   -1.8522 H   0  0  0  0  0  0  0  0  0  0  0  0
    6.3593    1.0613   -2.1548 H   0  0  0  0  0  0  0  0  0  0  0  0
    2.9598    0.9802    1.3556 H   0  0  0  0  0  0  0  0  0  0  0  0
    2.7146   -0.7324    1.6582 H   0  0  0  0  0  0  0  0  0  0  0  0
    4.2639   -1.3294   -0.1438 H   0  0  0  0  0  0  0  0  0  0  0  0
    5.3604    0.6800    1.8695 H   0  0  0  0  0  0  0  0  0  0  0  0
    5.0903   -1.0277    2.1650 H   0  0  0  0  0  0  0  0  0  0  0  0
    4.6792    1.6744   -0.4417 H   0  0  0  0  0  0  0  0  0  0  0  0
    3.9810    0.6135   -1.6545 H   0  0  0  0  0  0  0  0  0  0  0  0
    0.3786   -0.6907    1.2078 H   0  0  0  0  0  0  0  0  0  0  0  0
    0.4923    1.0522    1.0184 H   0  0  0  0  0  0  0  0  0  0  0  0
   -0.4279    0.9158   -1.2574 H   0  0  0  0  0  0  0  0  0  0  0  0
    8.1235    0.0933   -0.6667 H   0  0  0  0  0  0  0  0  0  0  0  0
    7.2280    1.3667    0.1407 H   0  0  0  0  0  0  0  0  0  0  0  0
   -0.3190   -1.8533   -0.8282 H   0  0  0  0  0  0  0  0  0  0  0  0
   -2.0890   -0.7264    0.6942 H   0  0  0  0  0  0  0  0  0  0  0  0
    7.4843   -0.5558    1.6670 H   0  0  0  0  0  0  0  0  0  0  0  0
    6.7840   -1.6345    0.4759 H   0  0  0  0  0  0  0  0  0  0  0  0
   -1.5273    1.2831    1.7212 H   0  0  0  0  0  0  0  0  0  0  0  0
   -2.9699    1.0823   -1.5943 H   0  0  0  0  0  0  0  0  0  0  0  0
   -2.8595   -0.6628   -1.7096 H   0  0  0  0  0  0  0  0  0  0  0  0
   -7.0520    1.8879    0.6386 H   0  0  0  0  0  0  0  0  0  0  0  0
   -7.9753   -0.3659    1.0981 H   0  0  0  0  0  0  0  0  0  0  0  0
   -6.6226   -2.3709    0.5626 H   0  0  0  0  0  0  0  0  0  0  0  0
   -4.3795   -2.1240   -0.4162 H   0  0  0  0  0  0  0  0  0  0  0  0
    2.0079    0.5936   -0.8356 H   0  0  0  0  0  0  0  0  0  0  0  0
   -1.9073    2.1715    0.4165 H   0  0  0  0  0  0  0  0  0  0  0  0
   -4.8040    2.1288   -0.3321 H   0  0  0  0  0  0  0  0  0  0  0  0
  1  6  1  0
  1  9  1  0
  2  3  1  0
  2  7  1  0
  3  4  1  0
  4  5  1  0
  4  6  1  0
  5 12  1  0
  7  8  1  0
  8 10  1  0
  8 11  1  0
  9 12  1  0
 11 13  1  0
 11 14  1  0
 14 20  1  0
 15 16  2  0
 15 20  1  0
 16 17  1  0
 17 18  2  0
 18 19  1  0
 19 20  2  0
  1 21  1  0
  1 22  1  0
  3 23  1  0
  3 24  1  0
  4 25  1  6
  5 26  1  0
  5 27  1  0
  6 28  1  0
  6 29  1  0
  7 30  1  0
  7 31  1  0
  8 32  1  6
  9 33  1  0
  9 34  1  0
 10 35  1  0
 11 36  1  1
 12 37  1  0
 12 38  1  0
 13 39  1  0
 14 40  1  0
 14 41  1  0
 15 48  1  0
 16 42  1  0
 17 43  1  0
 18 44  1  0
 19 45  1  0
  2 46  1  0
 13 47  1  0
M  END
