
     RDKit          3D

 76 78  0  0  0  0  0  0  0  0999 V2000
    2.1383    3.2756    1.4617 C   0  0  0  0  0  0  0  0  0  0  0  0
    0.1306    2.2082    0.4934 C   0  0  0  0  0  0  0  0  0  0  0  0
   -3.8314   -1.1808   -0.7843 C   0  0  0  0  0  0  0  0  0  0  0  0
    3.5304   -0.4136    3.1479 C   0  0  0  0  0  0  0  0  0  0  0  0
    2.6978    1.8355    3.4123 C   0  0  0  0  0  0  0  0  0  0  0  0
    0.8195    4.5653   -0.0960 C   0  0  1  0  0  0  0  0  0  0  0  0
    3.1637    0.6437    3.9638 C   0  0  0  0  0  0  0  0  0  0  0  0
   -1.1958    2.5990    2.6847 C   0  0  0  0  0  0  0  0  0  0  0  0
   -3.0847    1.3325    2.1325 C   0  0  0  0  0  0  0  0  0  0  0  0
   -3.8763   -2.3288   -1.7423 C   0  0  0  0  0  0  0  0  0  0  0  0
    4.1543   -2.6170   -0.9447 C   0  0  0  0  0  0  0  0  0  0  0  0
    3.6792   -1.2935   -0.3819 C   0  0  0  0  0  0  0  0  0  0  0  0
    4.0588   -2.6163   -2.4590 C   0  0  0  0  0  0  0  0  0  0  0  0
    0.1663    4.3262   -1.4515 C   0  0  0  0  0  0  0  0  0  0  0  0
    0.0305    5.5734    0.7358 C   0  0  0  0  0  0  0  0  0  0  0  0
   -2.8989   -3.3198   -1.7044 C   0  0  0  0  0  0  0  0  0  0  0  0
   -4.8793   -2.3981   -2.7052 C   0  0  0  0  0  0  0  0  0  0  0  0
    4.1510   -1.7876    4.9711 C   0  0  0  0  0  0  0  0  0  0  0  0
    1.0800    3.3035    0.6182 N   0  0  0  0  0  0  0  0  0  0  0  0
   -1.2206    2.4550    1.1481 C   0  0  2  0  0  0  0  0  0  0  0  0
   -2.8461    1.3652   -0.3754 N   0  0  0  0  0  0  0  0  0  0  0  0
    2.5648    1.9635    2.0436 C   0  0  0  0  0  0  0  0  0  0  0  0
   -2.1703    1.2755    0.9071 C   0  0  2  0  0  0  0  0  0  0  0  0
    2.9381    0.9025    1.2117 C   0  0  0  0  0  0  0  0  0  0  0  0
    3.4203   -0.2776    1.7468 C   0  0  0  0  0  0  0  0  0  0  0  0
   -2.2073    1.6836    3.2342 N   0  0  0  0  0  0  0  0  0  0  0  0
    2.7845    4.2792    1.7401 O   0  0  0  0  0  0  0  0  0  0  0  0
    3.8063   -1.3468    1.0287 O   0  0  0  0  0  0  0  0  0  0  0  0
    4.5018   -3.8577   -2.9447 O   0  0  0  0  0  0  0  0  0  0  0  0
    4.4728   -3.9278   -4.3473 C   0  0  0  0  0  0  0  0  0  0  0  0
   -2.9320   -4.3720   -2.6082 C   0  0  0  0  0  0  0  0  0  0  0  0
   -4.9131   -3.4505   -3.6089 C   0  0  0  0  0  0  0  0  0  0  0  0
   -3.9382   -4.4387   -3.5635 C   0  0  0  0  0  0  0  0  0  0  0  0
   -2.8272    0.1510   -1.4668 S   0  0  1  0  0  0  0  0  0  0  0  0
   -1.4591   -0.3400   -1.5578 O   0  0  0  0  0  0  0  0  0  0  0  0
   -3.4898    0.6529   -2.6606 O   0  0  0  0  0  0  0  0  0  0  0  0
   -0.0161    1.9734   -0.5622 H   0  0  0  0  0  0  0  0  0  0  0  0
    0.5583    1.3142    0.9398 H   0  0  0  0  0  0  0  0  0  0  0  0
   -4.8185   -0.7578   -0.5938 H   0  0  0  0  0  0  0  0  0  0  0  0
   -3.3804   -1.4552    0.1711 H   0  0  0  0  0  0  0  0  0  0  0  0
    2.4289    2.6516    4.0703 H   0  0  0  0  0  0  0  0  0  0  0  0
    1.7997    5.0022   -0.2899 H   0  0  0  0  0  0  0  0  0  0  0  0
    3.2383    0.5609    5.0396 H   0  0  0  0  0  0  0  0  0  0  0  0
   -0.2186    2.3578    3.1084 H   0  0  0  0  0  0  0  0  0  0  0  0
   -1.4176    3.6296    2.9716 H   0  0  0  0  0  0  0  0  0  0  0  0
   -3.8416    2.1120    1.9868 H   0  0  0  0  0  0  0  0  0  0  0  0
   -3.6072    0.3954    2.3271 H   0  0  0  0  0  0  0  0  0  0  0  0
    5.1905   -2.7923   -0.6437 H   0  0  0  0  0  0  0  0  0  0  0  0
    3.5465   -3.4293   -0.5378 H   0  0  0  0  0  0  0  0  0  0  0  0
    4.2778   -0.4697   -0.7882 H   0  0  0  0  0  0  0  0  0  0  0  0
    2.6347   -1.1104   -0.6619 H   0  0  0  0  0  0  0  0  0  0  0  0
    3.0213   -2.4258   -2.7720 H   0  0  0  0  0  0  0  0  0  0  0  0
    4.6665   -1.7979   -2.8731 H   0  0  0  0  0  0  0  0  0  0  0  0
    0.1331    5.2714   -1.9935 H   0  0  0  0  0  0  0  0  0  0  0  0
    0.7371    3.6202   -2.0557 H   0  0  0  0  0  0  0  0  0  0  0  0
   -0.8596    3.9622   -1.3756 H   0  0  0  0  0  0  0  0  0  0  0  0
   -0.9990    5.2578    0.9026 H   0  0  0  0  0  0  0  0  0  0  0  0
    0.4968    5.7447    1.7046 H   0  0  0  0  0  0  0  0  0  0  0  0
   -0.0054    6.5293    0.2110 H   0  0  0  0  0  0  0  0  0  0  0  0
   -2.1157   -3.2760   -0.9581 H   0  0  0  0  0  0  0  0  0  0  0  0
   -5.6455   -1.6337   -2.7424 H   0  0  0  0  0  0  0  0  0  0  0  0
    4.5476   -2.7912    5.1022 H   0  0  0  0  0  0  0  0  0  0  0  0
    4.8526   -1.0711    5.4062 H   0  0  0  0  0  0  0  0  0  0  0  0
    3.1975   -1.7135    5.5006 H   0  0  0  0  0  0  0  0  0  0  0  0
   -1.6956    3.3354    0.7083 H   0  0  0  0  0  0  0  0  0  0  0  0
   -3.6755    1.9467   -0.4136 H   0  0  0  0  0  0  0  0  0  0  0  0
   -1.6022    0.3400    0.9356 H   0  0  0  0  0  0  0  0  0  0  0  0
    2.8484    1.0200    0.1394 H   0  0  0  0  0  0  0  0  0  0  0  0
   -1.7463    0.8434    3.5573 H   0  0  0  0  0  0  0  0  0  0  0  0
    5.1278   -3.1793   -4.8092 H   0  0  0  0  0  0  0  0  0  0  0  0
    4.8187   -4.9175   -4.6432 H   0  0  0  0  0  0  0  0  0  0  0  0
    3.4619   -3.7807   -4.7464 H   0  0  0  0  0  0  0  0  0  0  0  0
   -2.1715   -5.1406   -2.5662 H   0  0  0  0  0  0  0  0  0  0  0  0
   -5.7012   -3.4990   -4.3487 H   0  0  0  0  0  0  0  0  0  0  0  0
   -3.9650   -5.2607   -4.2667 H   0  0  0  0  0  0  0  0  0  0  0  0
    3.9981   -1.5964    3.5784 O   0  0  0  0  0  0  0  0  0  0  0  0
 30 29  1  0
 32 17  2  0
 32 33  1  0
 17 10  1  0
 33 31  2  0
 29 13  1  0
 26  8  1  0
 26  9  1  0
 10  3  1  0
 10 16  2  0
 31 16  1  0
  3 34  1  0
 13 11  1  0
  8 20  1  0
  9 23  1  0
 21 23  1  0
 34 21  1  1
 23 20  1  0
 12 11  1  0
 12 28  1  0
 34 35  2  0
 34 36  2  0
 20  2  1  0
 28 25  1  0
 27  1  2  0
  2 19  1  0
 24 25  1  0
 24 22  2  0
 14  6  1  0
  1 19  1  0
  1 22  1  0
 19  6  1  0
 25  4  2  0
 22  5  1  0
  6 15  1  0
  4 76  1  0
  4  7  1  0
  5  7  2  0
 76 18  1  0
  2 37  1  0
  2 38  1  0
  3 39  1  0
  3 40  1  0
  5 41  1  0
  6 42  1  6
  7 43  1  0
  8 44  1  0
  8 45  1  0
  9 46  1  0
  9 47  1  0
 11 48  1  0
 11 49  1  0
 12 50  1  0
 12 51  1  0
 13 52  1  0
 13 53  1  0
 14 54  1  0
 14 55  1  0
 14 56  1  0
 15 57  1  0
 15 58  1  0
 15 59  1  0
 16 60  1  0
 17 61  1  0
 18 62  1  0
 18 63  1  0
 18 64  1  0
 20 65  1  6
 21 66  1  0
 23 67  1  6
 24 68  1  0
 26 69  1  0
 30 70  1  0
 30 71  1  0
 30 72  1  0
 31 73  1  0
 32 74  1  0
 33 75  1  0
M  END
