
     RDKit          3D

 37 39  0  0  0  0  0  0  0  0999 V2000
   -5.5143   -0.7368   -0.0451 C   0  0  0  0  0  0  0  0  0  0  0  0
   -6.8574   -0.3185    0.0559 C   0  0  0  0  0  0  0  0  0  0  0  0
   -7.9056   -1.2378    0.2994 C   0  0  0  0  0  0  0  0  0  0  0  0
   -9.1997   -0.8056    0.3912 C   0  0  0  0  0  0  0  0  0  0  0  0
   -9.5063    0.5642    0.2416 C   0  0  0  0  0  0  0  0  0  0  0  0
   -8.5136    1.4756    0.0042 C   0  0  0  0  0  0  0  0  0  0  0  0
   -7.1664    1.0582   -0.0933 C   0  0  0  0  0  0  0  0  0  0  0  0
   -6.1125    1.9678   -0.3403 C   0  0  0  0  0  0  0  0  0  0  0  0
   -4.8184    1.5394   -0.4222 C   0  0  0  0  0  0  0  0  0  0  0  0
   -4.5037    0.1664   -0.2654 C   0  0  0  0  0  0  0  0  0  0  0  0
   -3.1140   -0.3615   -0.3485 C   0  0  0  0  0  0  0  0  0  0  0  0
   -2.8673   -1.5224   -0.6139 O   0  0  0  0  0  0  0  0  0  0  0  0
   -2.1329    0.5467   -0.0895 N   0  0  0  0  0  0  0  0  0  0  0  0
   -0.8511    0.1583   -0.1439 N   0  0  0  0  0  0  0  0  0  0  0  0
    0.0747    0.9882    0.1395 C   0  0  0  0  0  0  0  0  0  0  0  0
    1.4623    0.5694    0.0957 C   0  0  0  0  0  0  0  0  0  0  0  0
    2.4575    1.4962    0.3872 C   0  0  0  0  0  0  0  0  0  0  0  0
    3.7905    1.1460    0.3693 C   0  0  0  0  0  0  0  0  0  0  0  0
    5.1010    2.4430    0.7657 Br  0  0  0  0  0  0  0  0  0  0  0  0
    4.1809   -0.1645    0.0612 C   0  0  0  0  0  0  0  0  0  0  0  0
    5.4391   -0.5878    0.0278 O   0  0  0  0  0  0  0  0  0  0  0  0
    3.1808   -1.0946   -0.2308 C   0  0  0  0  0  0  0  0  0  0  0  0
    3.6686   -2.8565   -0.6459 Br  0  0  0  0  0  0  0  0  0  0  0  0
    1.8293   -0.7556   -0.2249 C   0  0  0  0  0  0  0  0  0  0  0  0
    0.9389   -1.6899   -0.5184 O   0  0  0  0  0  0  0  0  0  0  0  0
   -5.2883   -1.7902    0.0665 H   0  0  0  0  0  0  0  0  0  0  0  0
   -7.6694   -2.2890    0.4114 H   0  0  0  0  0  0  0  0  0  0  0  0
   -9.9961   -1.5136    0.5787 H   0  0  0  0  0  0  0  0  0  0  0  0
  -10.5355    0.8907    0.3157 H   0  0  0  0  0  0  0  0  0  0  0  0
   -8.7480    2.5266   -0.1120 H   0  0  0  0  0  0  0  0  0  0  0  0
   -6.3416    3.0179   -0.4727 H   0  0  0  0  0  0  0  0  0  0  0  0
   -4.0471    2.2672   -0.6388 H   0  0  0  0  0  0  0  0  0  0  0  0
   -2.3509    1.4780    0.2421 H   0  0  0  0  0  0  0  0  0  0  0  0
   -0.1327    2.0203    0.4249 H   0  0  0  0  0  0  0  0  0  0  0  0
    2.1683    2.5099    0.6341 H   0  0  0  0  0  0  0  0  0  0  0  0
    6.0699    0.1124    0.2425 H   0  0  0  0  0  0  0  0  0  0  0  0
    0.0333   -1.2957   -0.4715 H   0  0  0  0  0  0  0  0  0  0  0  0
  1  2  2  0
  1 10  1  0
  2  3  1  0
  2  7  1  0
  3  4  2  0
  4  5  1  0
  5  6  2  0
  6  7  1  0
  7  8  2  0
  8  9  1  0
  9 10  2  0
 10 11  1  0
 11 12  2  0
 11 13  1  0
 13 14  1  0
 14 15  2  0
 15 16  1  0
 16 17  2  0
 16 24  1  0
 17 18  1  0
 18 19  1  0
 18 20  2  0
 20 21  1  0
 20 22  1  0
 22 23  1  0
 22 24  2  0
 24 25  1  0
  1 26  1  0
  3 27  1  0
  4 28  1  0
  5 29  1  0
  6 30  1  0
  8 31  1  0
  9 32  1  0
 13 33  1  0
 15 34  1  0
 17 35  1  0
 21 36  1  0
 25 37  1  0
M  END
