
     RDKit          3D

 36 36  0  0  0  0  0  0  0  0999 V2000
    1.1878   -3.0968   -0.0667 O   0  0  0  0  0  0  0  0  0  0  0  0
   -0.1372   -2.3213    0.3897 P   0  0  1  0  0  0  0  0  0  0  0  0
   -1.4256   -3.0249    0.1721 O   0  0  0  0  0  0  0  0  0  0  0  0
    0.2933   -2.0755    1.9151 O   0  0  0  0  0  0  0  0  0  0  0  0
   -0.0770   -0.6629   -0.4088 C   0  0  1  0  0  0  0  0  0  0  0  0
   -1.0762    0.1289    0.1879 O   0  0  0  0  0  0  0  0  0  0  0  0
   -2.3285    0.0834   -0.4435 C   0  0  0  0  0  0  0  0  0  0  0  0
   -3.1612    1.2139    0.1397 C   0  0  0  0  0  0  0  0  0  0  0  0
   -4.3861    1.3608   -0.4074 N   0  0  0  0  0  0  0  0  0  0  0  0
   -5.4073    2.2529    0.0815 C   0  0  0  0  0  0  0  0  0  0  0  0
   -4.8238    0.3822   -1.2615 O   0  0  0  0  0  0  0  0  0  0  0  0
   -2.7483    1.9468    1.0195 O   0  0  0  0  0  0  0  0  0  0  0  0
    1.2644   -0.0073   -0.2460 C   0  0  0  0  0  0  0  0  0  0  0  0
    1.5712    0.7626    0.8757 C   0  0  0  0  0  0  0  0  0  0  0  0
    2.8187    1.3387    1.0187 C   0  0  0  0  0  0  0  0  0  0  0  0
    3.8016    1.1514    0.0438 C   0  0  0  0  0  0  0  0  0  0  0  0
    4.9857    1.7511    0.2662 O   0  0  0  0  0  0  0  0  0  0  0  0
    6.0009    1.6253   -0.7097 C   0  0  0  0  0  0  0  0  0  0  0  0
    3.5072    0.3814   -1.0784 C   0  0  0  0  0  0  0  0  0  0  0  0
    2.2464   -0.1870   -1.2088 C   0  0  0  0  0  0  0  0  0  0  0  0
    1.0865   -3.5920   -0.8898 H   0  0  0  0  0  0  0  0  0  0  0  0
   -0.4000   -1.6763    2.4566 H   0  0  0  0  0  0  0  0  0  0  0  0
   -0.2701   -0.8177   -1.4798 H   0  0  0  0  0  0  0  0  0  0  0  0
   -2.2268    0.2167   -1.5284 H   0  0  0  0  0  0  0  0  0  0  0  0
   -2.8335   -0.8740   -0.2822 H   0  0  0  0  0  0  0  0  0  0  0  0
   -4.9475    3.0112    0.7071 H   0  0  0  0  0  0  0  0  0  0  0  0
   -5.8986    2.7477   -0.7556 H   0  0  0  0  0  0  0  0  0  0  0  0
   -6.1551    1.7162    0.6677 H   0  0  0  0  0  0  0  0  0  0  0  0
   -4.7570    0.7497   -2.1542 H   0  0  0  0  0  0  0  0  0  0  0  0
    0.8293    0.9324    1.6446 H   0  0  0  0  0  0  0  0  0  0  0  0
    3.0433    1.9412    1.8902 H   0  0  0  0  0  0  0  0  0  0  0  0
    6.3071    0.5856   -0.8519 H   0  0  0  0  0  0  0  0  0  0  0  0
    5.6930    2.0374   -1.6741 H   0  0  0  0  0  0  0  0  0  0  0  0
    6.8533    2.1922   -0.3441 H   0  0  0  0  0  0  0  0  0  0  0  0
    4.2357    0.2184   -1.8604 H   0  0  0  0  0  0  0  0  0  0  0  0
    2.0327   -0.7758   -2.0932 H   0  0  0  0  0  0  0  0  0  0  0  0
  3  2  2  0
 15 14  1  0
 15 16  2  0
 14 13  2  0
 17 16  1  0
 17 18  1  0
  2  4  1  1
  2  1  1  0
  2  5  1  0
 16 19  1  0
 11  9  1  0
 13  5  1  0
 13 20  1  0
  5  6  1  0
 10  9  1  0
  9  8  1  0
 19 20  2  0
 12  8  2  0
  8  7  1  0
  6  7  1  0
  1 21  1  0
  4 22  1  0
  5 23  1  6
  7 24  1  0
  7 25  1  0
 10 26  1  0
 10 27  1  0
 10 28  1  0
 11 29  1  0
 14 30  1  0
 15 31  1  0
 18 32  1  0
 18 33  1  0
 18 34  1  0
 19 35  1  0
 20 36  1  0
M  END
