
     RDKit          3D

 37 40  0  0  0  0  0  0  0  0999 V2000
    0.0831    0.0997    2.4029 C   0  0  0  0  0  0  0  0  0  0  0  0
   -1.1487    0.1359    3.0459 C   0  0  0  0  0  0  0  0  0  0  0  0
   -2.2725    0.0198    2.2626 C   0  0  0  0  0  0  0  0  0  0  0  0
   -2.2059   -0.0768    0.8928 C   0  0  0  0  0  0  0  0  0  0  0  0
   -0.9990   -0.1265    0.1950 C   0  0  0  0  0  0  0  0  0  0  0  0
    0.1758   -0.1008    1.0077 C   0  0  0  0  0  0  0  0  0  0  0  0
   -0.9099   -0.1570   -1.2521 C   0  0  0  0  0  0  0  0  0  0  0  0
    0.3678   -0.1653   -1.8528 C   0  0  0  0  0  0  0  0  0  0  0  0
    1.5234   -0.3017   -1.0338 C   0  0  0  0  0  0  0  0  0  0  0  0
    1.4184   -0.3066    0.3113 C   0  0  0  0  0  0  0  0  0  0  0  0
   -2.0252   -0.1527   -2.1080 C   0  0  0  0  0  0  0  0  0  0  0  0
   -1.8777   -0.1523   -3.4749 C   0  0  0  0  0  0  0  0  0  0  0  0
   -0.6113   -0.1383   -4.0672 C   0  0  0  0  0  0  0  0  0  0  0  0
    0.5062   -0.1384   -3.2505 C   0  0  0  0  0  0  0  0  0  0  0  0
   -4.3440   -0.1805    1.5069 C   0  0  0  0  0  0  0  0  0  0  0  0
    1.2658    0.5019    3.2068 C   0  0  0  0  0  0  0  0  0  0  0  0
    2.3395    1.1542   -3.9349 C   0  0  0  0  0  0  0  0  0  0  0  0
    1.7374   -0.1387   -3.8298 O   0  0  0  0  0  0  0  0  0  0  0  0
   -3.5599    0.0702    2.6628 O   0  0  0  0  0  0  0  0  0  0  0  0
   -3.4589   -0.0835    0.3943 O   0  0  0  0  0  0  0  0  0  0  0  0
    2.1467    1.2095    2.7796 O   0  0  0  0  0  0  0  0  0  0  0  0
    1.2118    0.0686    4.4542 O   0  0  0  0  0  0  0  0  0  0  0  0
   -0.5260   -0.1316   -5.4048 O   0  0  0  0  0  0  0  0  0  0  0  0
    2.4671   -1.5363    1.9190 O   0  0  0  0  0  0  0  0  0  0  0  0
    3.6859   -0.3454    0.6316 O   0  0  0  0  0  0  0  0  0  0  0  0
    2.6154   -0.7432    1.0174 N   0  0  0  0  0  0  0  0  0  0  0  0
   -1.2323    0.2946    4.1116 H   0  0  0  0  0  0  0  0  0  0  0  0
    2.4784   -0.4966   -1.5017 H   0  0  0  0  0  0  0  0  0  0  0  0
   -3.0288   -0.1523   -1.7178 H   0  0  0  0  0  0  0  0  0  0  0  0
   -2.7545   -0.1537   -4.1100 H   0  0  0  0  0  0  0  0  0  0  0  0
   -4.7690   -1.1877    1.5509 H   0  0  0  0  0  0  0  0  0  0  0  0
   -5.1291    0.5690    1.4161 H   0  0  0  0  0  0  0  0  0  0  0  0
    3.3004    1.0169   -4.4248 H   0  0  0  0  0  0  0  0  0  0  0  0
    1.7255    1.8332   -4.5307 H   0  0  0  0  0  0  0  0  0  0  0  0
    2.5028    1.6002   -2.9512 H   0  0  0  0  0  0  0  0  0  0  0  0
    1.9475    0.4380    4.9661 H   0  0  0  0  0  0  0  0  0  0  0  0
    0.3913   -0.2570   -5.6809 H   0  0  0  0  0  0  0  0  0  0  0  0
  1  2  2  0
  1  6  1  0
  1 16  1  0
  2  3  1  0
  2 27  1  0
  3  4  2  0
  3 19  1  0
  4  5  1  0
  4 20  1  0
  5  6  2  0
  5  7  1  0
  6 10  1  0
  7  8  2  0
  7 11  1  0
  8  9  1  0
  8 14  1  0
  9 10  2  0
  9 28  1  0
 10 26  1  0
 11 12  2  0
 11 29  1  0
 12 13  1  0
 12 30  1  0
 13 14  2  0
 13 23  1  0
 14 18  1  0
 15 19  1  0
 15 20  1  0
 15 31  1  0
 15 32  1  0
 16 21  2  0
 16 22  1  0
 17 18  1  0
 17 33  1  0
 17 34  1  0
 17 35  1  0
 22 36  1  0
 23 37  1  0
 24 26  2  0
 25 26  1  0
M  CHG  2  25  -1  26   1
M  END
