
     RDKit          3D

 74 78  0  0  0  0  0  0  0  0999 V2000
    1.6096   -3.3043    0.5734 C   0  0  0  0  0  0  0  0  0  0  0  0
    2.1188   -2.0534    0.1957 C   0  0  0  0  0  0  0  0  0  0  0  0
    3.5201   -1.9922    0.1539 C   0  0  0  0  0  0  0  0  0  0  0  0
    4.2481   -3.0418    0.4826 N   0  0  0  0  0  0  0  0  0  0  0  0
    2.3286   -4.3736    0.9122 N   0  0  0  0  0  0  0  0  0  0  0  0
   -6.0877    0.5784   -0.6389 C   0  0  0  0  0  0  0  0  0  0  0  0
   -7.4818    0.9304   -0.1609 C   0  0  0  0  0  0  0  0  0  0  0  0
   -8.4228   -0.1117   -0.5109 N   0  0  0  0  0  0  0  0  0  0  0  0
   -9.7727    0.2378   -0.1321 C   0  0  0  0  0  0  0  0  0  0  0  0
   -8.0053   -1.3634    0.0826 C   0  0  0  0  0  0  0  0  0  0  0  0
   -6.6176   -1.7604   -0.3861 C   0  0  0  0  0  0  0  0  0  0  0  0
   -5.6636   -0.7069   -0.1035 N   0  0  0  0  0  0  0  0  0  0  0  0
   -4.3128   -1.0122   -0.0965 C   0  0  0  0  0  0  0  0  0  0  0  0
   -3.3580   -0.0486    0.2773 C   0  0  0  0  0  0  0  0  0  0  0  0
   -2.0149   -0.3528    0.3431 C   0  0  0  0  0  0  0  0  0  0  0  0
   -3.8317   -2.2906   -0.4139 C   0  0  0  0  0  0  0  0  0  0  0  0
   -2.4809   -2.5875   -0.3410 C   0  0  0  0  0  0  0  0  0  0  0  0
   -1.5400   -1.6313    0.0359 C   0  0  0  0  0  0  0  0  0  0  0  0
   -0.1236   -1.9659    0.1337 C   0  0  0  0  0  0  0  0  0  0  0  0
    0.2626   -3.2290    0.5244 N   0  0  0  0  0  0  0  0  0  0  0  0
    3.6252   -4.1658    0.8482 C   0  0  0  0  0  0  0  0  0  0  0  0
    4.1010   -0.8686   -0.2235 O   0  0  0  0  0  0  0  0  0  0  0  0
    5.5274   -0.8250   -0.3183 C   0  0  0  0  0  0  0  0  0  0  0  0
    5.9446    0.5881   -0.6849 C   0  0  1  0  0  0  0  0  0  0  0  0
    5.5862    1.5875    0.4089 C   0  0  0  0  0  0  0  0  0  0  0  0
    7.4455    0.5980   -0.9589 C   0  0  0  0  0  0  0  0  0  0  0  0
    1.0033   -1.2038   -0.0902 C   0  0  0  0  0  0  0  0  0  0  0  0
    1.0369    0.1834   -0.5747 C   0  0  0  0  0  0  0  0  0  0  0  0
    1.6787    1.1688    0.1643 C   0  0  0  0  0  0  0  0  0  0  0  0
    0.4249    0.5333   -1.7777 C   0  0  0  0  0  0  0  0  0  0  0  0
    0.4576    1.8490   -2.2084 C   0  0  0  0  0  0  0  0  0  0  0  0
    1.0947    2.8369   -1.4693 C   0  0  0  0  0  0  0  0  0  0  0  0
    1.7179    2.4931   -0.2703 C   0  0  0  0  0  0  0  0  0  0  0  0
    2.3720    3.4126    0.5602 N   0  0  0  0  0  0  0  0  0  0  0  0
    2.9511    4.5948    0.2233 C   0  0  0  0  0  0  0  0  0  0  0  0
    2.8646    5.0984   -0.8821 O   0  0  0  0  0  0  0  0  0  0  0  0
    3.7560    5.2237    1.3405 C   0  0  0  0  0  0  0  0  0  0  0  0
    3.7296    6.7434    1.3082 C   0  0  0  0  0  0  0  0  0  0  0  0
   -6.0715    0.5580   -1.7380 H   0  0  0  0  0  0  0  0  0  0  0  0
   -5.4100    1.3663   -0.3205 H   0  0  0  0  0  0  0  0  0  0  0  0
   -7.4570    1.1090    0.9284 H   0  0  0  0  0  0  0  0  0  0  0  0
   -7.7860    1.8664   -0.6352 H   0  0  0  0  0  0  0  0  0  0  0  0
  -10.0766    1.1556   -0.6376 H   0  0  0  0  0  0  0  0  0  0  0  0
  -10.4623   -0.5529   -0.4321 H   0  0  0  0  0  0  0  0  0  0  0  0
   -9.8926    0.3955    0.9511 H   0  0  0  0  0  0  0  0  0  0  0  0
   -8.0105   -1.3127    1.1856 H   0  0  0  0  0  0  0  0  0  0  0  0
   -8.7055   -2.1510   -0.2054 H   0  0  0  0  0  0  0  0  0  0  0  0
   -6.3317   -2.6648    0.1510 H   0  0  0  0  0  0  0  0  0  0  0  0
   -6.6452   -2.0054   -1.4580 H   0  0  0  0  0  0  0  0  0  0  0  0
   -3.6666    0.9481    0.5619 H   0  0  0  0  0  0  0  0  0  0  0  0
   -1.3252    0.4163    0.6648 H   0  0  0  0  0  0  0  0  0  0  0  0
   -4.5028   -3.0727   -0.7391 H   0  0  0  0  0  0  0  0  0  0  0  0
   -2.1638   -3.5862   -0.6175 H   0  0  0  0  0  0  0  0  0  0  0  0
   -0.3641   -3.9630    0.8163 H   0  0  0  0  0  0  0  0  0  0  0  0
    4.2679   -4.9968    1.1167 H   0  0  0  0  0  0  0  0  0  0  0  0
    5.9791   -1.1177    0.6342 H   0  0  0  0  0  0  0  0  0  0  0  0
    5.8644   -1.5366   -1.0775 H   0  0  0  0  0  0  0  0  0  0  0  0
    5.4251    0.8703   -1.6071 H   0  0  0  0  0  0  0  0  0  0  0  0
    5.8953    2.5960    0.1285 H   0  0  0  0  0  0  0  0  0  0  0  0
    4.5149    1.6118    0.6007 H   0  0  0  0  0  0  0  0  0  0  0  0
    6.0893    1.3340    1.3455 H   0  0  0  0  0  0  0  0  0  0  0  0
    7.7142   -0.0850   -1.7665 H   0  0  0  0  0  0  0  0  0  0  0  0
    7.7789    1.5964   -1.2427 H   0  0  0  0  0  0  0  0  0  0  0  0
    8.0097    0.3020   -0.0713 H   0  0  0  0  0  0  0  0  0  0  0  0
    2.1490    0.9022    1.1035 H   0  0  0  0  0  0  0  0  0  0  0  0
   -0.0755   -0.2233   -2.3682 H   0  0  0  0  0  0  0  0  0  0  0  0
   -0.0217    2.1203   -3.1402 H   0  0  0  0  0  0  0  0  0  0  0  0
    1.0928    3.8543   -1.8250 H   0  0  0  0  0  0  0  0  0  0  0  0
    2.5417    3.0910    1.5012 H   0  0  0  0  0  0  0  0  0  0  0  0
    3.4197    4.8571    2.3122 H   0  0  0  0  0  0  0  0  0  0  0  0
    4.7864    4.8696    1.2266 H   0  0  0  0  0  0  0  0  0  0  0  0
    4.0921    7.1297    0.3572 H   0  0  0  0  0  0  0  0  0  0  0  0
    2.7217    7.1271    1.4673 H   0  0  0  0  0  0  0  0  0  0  0  0
    4.3661    7.1445    2.0958 H   0  0  0  0  0  0  0  0  0  0  0  0
 25 24  1  0
 26 24  1  0
 24 23  1  0
 23 22  1  0
 38 37  1  0
 22  3  1  0
  4  3  2  0
  4 21  1  0
  3  2  1  0
 21  5  2  0
 34 33  1  0
 34 35  1  0
 37 35  1  0
 33 32  1  0
 33 29  2  0
 32 31  2  0
  2  1  2  0
  2 27  1  0
 35 36  2  0
 29 28  1  0
  5  1  1  0
 31 30  1  0
 28 30  2  0
 28 27  1  0
  1 20  1  0
 27 19  2  0
 20 19  1  0
 19 18  1  0
 18 17  2  0
 18 15  1  0
 17 16  1  0
 15 14  2  0
 16 13  2  0
 14 13  1  0
 13 12  1  0
 12 11  1  0
 12  6  1  0
 11 10  1  0
  6  7  1  0
 10  8  1  0
  7  8  1  0
  8  9  1  0
  6 39  1  0
  6 40  1  0
  7 41  1  0
  7 42  1  0
  9 43  1  0
  9 44  1  0
  9 45  1  0
 10 46  1  0
 10 47  1  0
 11 48  1  0
 11 49  1  0
 14 50  1  0
 15 51  1  0
 16 52  1  0
 17 53  1  0
 20 54  1  0
 21 55  1  0
 23 56  1  0
 23 57  1  0
 24 58  1  6
 25 59  1  0
 25 60  1  0
 25 61  1  0
 26 62  1  0
 26 63  1  0
 26 64  1  0
 29 65  1  0
 30 66  1  0
 31 67  1  0
 32 68  1  0
 34 69  1  0
 37 70  1  0
 37 71  1  0
 38 72  1  0
 38 73  1  0
 38 74  1  0
M  END
