
     RDKit          3D

 21 20  0  0  0  0  0  0  0  0999 V2000
    1.2214   -1.8671   -0.0131 N   0  0  0  0  0  0  0  0  0  0  0  0
    1.1923   -0.4728   -0.3919 C   0  0  1  0  0  0  0  0  0  0  0  0
   -0.0644    0.2052    0.1724 C   0  0  0  0  0  0  0  0  0  0  0  0
   -1.3272   -0.3994   -0.4158 C   0  0  0  0  0  0  0  0  0  0  0  0
   -2.5899    0.2127    0.1202 C   0  0  0  0  0  0  0  0  0  0  0  0
   -3.6709   -0.3080   -0.4536 O   0  0  0  0  0  0  0  0  0  0  0  0
   -2.6451    1.0696    0.9674 O   0  0  0  0  0  0  0  0  0  0  0  0
    2.4081    0.3365    0.0491 C   0  0  0  0  0  0  0  0  0  0  0  0
    3.0823   -0.0042    0.9952 O   0  0  0  0  0  0  0  0  0  0  0  0
    2.7257    1.5586   -0.7647 C   0  0  0  0  0  0  0  0  0  0  0  0
    1.9944   -2.3354   -0.4687 H   0  0  0  0  0  0  0  0  0  0  0  0
    1.3921   -1.9487    0.9823 H   0  0  0  0  0  0  0  0  0  0  0  0
    1.1414   -0.4139   -1.4855 H   0  0  0  0  0  0  0  0  0  0  0  0
   -0.0633    0.1018    1.2610 H   0  0  0  0  0  0  0  0  0  0  0  0
   -0.0368    1.2764   -0.0371 H   0  0  0  0  0  0  0  0  0  0  0  0
   -1.3295   -0.2909   -1.5050 H   0  0  0  0  0  0  0  0  0  0  0  0
   -1.3556   -1.4758   -0.2287 H   0  0  0  0  0  0  0  0  0  0  0  0
   -4.4692    0.1016   -0.0882 H   0  0  0  0  0  0  0  0  0  0  0  0
    3.3335    2.2691   -0.2082 H   0  0  0  0  0  0  0  0  0  0  0  0
    3.2898    1.2407   -1.6461 H   0  0  0  0  0  0  0  0  0  0  0  0
    1.8275    2.0536   -1.1331 H   0  0  0  0  0  0  0  0  0  0  0  0
  1  2  1  0
  1 11  1  0
  1 12  1  0
  2  3  1  0
  2  8  1  0
  2 13  1  6
  3  4  1  0
  3 14  1  0
  3 15  1  0
  4  5  1  0
  4 16  1  0
  4 17  1  0
  5  6  1  0
  5  7  2  0
  6 18  1  0
  8  9  2  0
  8 10  1  0
 10 19  1  0
 10 20  1  0
 10 21  1  0
M  END
