
     RDKit          3D

 59 62  0  0  0  0  0  0  0  0999 V2000
    1.2837    0.2525    1.0350 C   0  0  0  0  0  0  0  0  0  0  0  0
    1.4348   -0.6821    0.0163 C   0  0  0  0  0  0  0  0  0  0  0  0
    2.6926   -1.0169   -0.4593 C   0  0  0  0  0  0  0  0  0  0  0  0
    3.8051   -0.3959    0.0894 C   0  0  0  0  0  0  0  0  0  0  0  0
    3.6775    0.5377    1.1082 C   0  0  0  0  0  0  0  0  0  0  0  0
    2.4133    0.8452    1.5875 C   0  0  0  0  0  0  0  0  0  0  0  0
   -0.8684    1.4310   -0.5316 C   0  0  0  0  0  0  0  0  0  0  0  0
   -5.0591   -2.5872    0.4495 C   0  0  0  0  0  0  0  0  0  0  0  0
   -3.6922   -2.2781   -0.1061 C   0  0  2  0  0  0  0  0  0  0  0  0
   -2.9387   -3.6114   -0.2146 C   0  0  0  0  0  0  0  0  0  0  0  0
   -1.6315   -3.4785   -0.9202 C   0  0  0  0  0  0  0  0  0  0  0  0
   -0.5624   -4.2838   -0.6460 N   0  0  0  0  0  0  0  0  0  0  0  0
    0.4445   -3.9417   -1.4744 C   0  0  0  0  0  0  0  0  0  0  0  0
    0.0978   -2.9594   -2.2657 N   0  0  0  0  0  0  0  0  0  0  0  0
   -1.1947   -2.6609   -1.9295 C   0  0  0  0  0  0  0  0  0  0  0  0
   -2.9623   -1.3367    0.7006 N   0  0  0  0  0  0  0  0  0  0  0  0
   -3.3894    0.0421    0.5602 C   0  0  0  0  0  0  0  0  0  0  0  0
   -2.4353    0.9674    1.3135 C   0  0  2  0  0  0  0  0  0  0  0  0
   -2.8806    2.4288    1.2933 C   0  0  0  0  0  0  0  0  0  0  0  0
   -2.6815    3.0983   -0.0617 C   0  0  1  0  0  0  0  0  0  0  0  0
   -3.0450    4.5792   -0.0333 C   0  0  0  0  0  0  0  0  0  0  0  0
   -2.8245    5.2330   -1.3942 C   0  0  0  0  0  0  0  0  0  0  0  0
   -1.3962    5.0209   -1.8872 C   0  0  0  0  0  0  0  0  0  0  0  0
   -1.0212    3.5419   -1.8999 C   0  0  0  0  0  0  0  0  0  0  0  0
   -1.2396    2.9086   -0.5299 C   0  0  2  0  0  0  0  0  0  0  0  0
   -1.0728    0.8392    0.7867 N   0  0  0  0  0  0  0  0  0  0  0  0
   -0.0593    0.5350    1.6323 C   0  0  0  0  0  0  0  0  0  0  0  0
   -0.1966    0.4276    2.8429 O   0  0  0  0  0  0  0  0  0  0  0  0
    5.5226   -0.8291   -0.5593 Br  0  0  0  0  0  0  0  0  0  0  0  0
    0.5706   -1.1660   -0.4209 H   0  0  0  0  0  0  0  0  0  0  0  0
    2.7859   -1.7486   -1.2506 H   0  0  0  0  0  0  0  0  0  0  0  0
    4.5456    1.0222    1.5340 H   0  0  0  0  0  0  0  0  0  0  0  0
    2.3150    1.5652    2.3894 H   0  0  0  0  0  0  0  0  0  0  0  0
   -1.4716    0.8961   -1.2715 H   0  0  0  0  0  0  0  0  0  0  0  0
    0.1680    1.3143   -0.8385 H   0  0  0  0  0  0  0  0  0  0  0  0
   -5.6510   -3.2631   -0.1953 H   0  0  0  0  0  0  0  0  0  0  0  0
   -3.8849   -1.9151   -1.1345 H   0  0  0  0  0  0  0  0  0  0  0  0
   -2.7764   -4.0071    0.7919 H   0  0  0  0  0  0  0  0  0  0  0  0
   -3.5692   -4.3367   -0.7373 H   0  0  0  0  0  0  0  0  0  0  0  0
   -0.5324   -5.0109    0.0518 H   0  0  0  0  0  0  0  0  0  0  0  0
    1.4035   -4.4357   -1.4528 H   0  0  0  0  0  0  0  0  0  0  0  0
   -1.7473   -1.8805   -2.4312 H   0  0  0  0  0  0  0  0  0  0  0  0
   -1.9828   -1.3969    0.4463 H   0  0  0  0  0  0  0  0  0  0  0  0
   -3.4954    0.3414   -0.4941 H   0  0  0  0  0  0  0  0  0  0  0  0
   -4.3763    0.1678    1.0087 H   0  0  0  0  0  0  0  0  0  0  0  0
   -2.4134    0.6265    2.3472 H   0  0  0  0  0  0  0  0  0  0  0  0
   -3.9296    2.4872    1.5968 H   0  0  0  0  0  0  0  0  0  0  0  0
   -2.3078    2.9749    2.0501 H   0  0  0  0  0  0  0  0  0  0  0  0
   -3.3364    2.6113   -0.7984 H   0  0  0  0  0  0  0  0  0  0  0  0
   -4.0851    4.7013    0.2825 H   0  0  0  0  0  0  0  0  0  0  0  0
   -2.4296    5.0837    0.7211 H   0  0  0  0  0  0  0  0  0  0  0  0
   -3.5255    4.8052   -2.1193 H   0  0  0  0  0  0  0  0  0  0  0  0
   -3.0496    6.3009   -1.3396 H   0  0  0  0  0  0  0  0  0  0  0  0
   -1.2701    5.4469   -2.8854 H   0  0  0  0  0  0  0  0  0  0  0  0
   -0.7036    5.5585   -1.2308 H   0  0  0  0  0  0  0  0  0  0  0  0
   -1.6275    3.0148   -2.6456 H   0  0  0  0  0  0  0  0  0  0  0  0
    0.0217    3.4198   -2.2072 H   0  0  0  0  0  0  0  0  0  0  0  0
   -0.5776    3.4111    0.1910 H   0  0  0  0  0  0  0  0  0  0  0  0
   -5.5039   -2.1647    1.4844 O   0  0  0  0  0  0  0  0  0  0  0  0
  3  2  2  0
  3  4  1  0
  2  1  1  0
 28 27  2  0
 29  4  1  0
  4  5  2  0
  1 27  1  0
  1  6  2  0
 27 26  1  0
 21 22  1  0
 21 20  1  0
 19 18  1  0
 19 20  1  0
 26 18  1  0
 26  7  1  0
 25 20  1  0
 25  7  1  0
 25 24  1  0
  5  6  1  0
 23 22  1  0
 23 24  1  0
 18 17  1  0
 14 15  1  0
 14 13  2  0
 15 11  2  0
 13 12  1  0
 17 16  1  0
 16  9  1  0
 11 12  1  0
 11 10  1  0
  9 10  1  0
  9  8  1  0
  8 59  2  0
  2 30  1  0
  3 31  1  0
  5 32  1  0
  6 33  1  0
  7 34  1  0
  7 35  1  0
  8 36  1  0
  9 37  1  6
 10 38  1  0
 10 39  1  0
 12 40  1  0
 13 41  1  0
 15 42  1  0
 16 43  1  0
 17 44  1  0
 17 45  1  0
 18 46  1  1
 19 47  1  0
 19 48  1  0
 20 49  1  6
 21 50  1  0
 21 51  1  0
 22 52  1  0
 22 53  1  0
 23 54  1  0
 23 55  1  0
 24 56  1  0
 24 57  1  0
 25 58  1  1
M  END
