
     RDKit          3D

 38 38  0  0  0  0  0  0  0  0999 V2000
    3.0441   -0.8793   -0.4639 C   0  0  0  0  0  0  0  0  0  0  0  0
    1.1251    0.5114   -1.0069 C   0  0  0  0  0  0  0  0  0  0  0  0
    4.4714   -0.9557    0.0457 C   0  0  0  0  0  0  0  0  0  0  0  0
    4.9596   -2.3810    0.2358 C   0  0  0  0  0  0  0  0  0  0  0  0
    2.5283    0.3558   -0.6823 N   0  0  0  0  0  0  0  0  0  0  0  0
   -1.1090    1.1681   -0.1438 C   0  0  0  0  0  0  0  0  0  0  0  0
    0.3497    0.9982    0.2299 C   0  0  2  0  0  0  0  0  0  0  0  0
    0.9629    2.2959    0.7549 C   0  0  0  0  0  0  0  0  0  0  0  0
   -1.8937    0.1158    0.1447 N   0  0  0  0  0  0  0  0  0  0  0  0
   -3.2837    0.0563   -0.2325 C   0  0  2  0  0  0  0  0  0  0  0  0
   -3.9958   -0.9148    0.6872 C   0  0  0  0  0  0  0  0  0  0  0  0
   -3.4440   -1.6471    1.4687 O   0  0  0  0  0  0  0  0  0  0  0  0
   -3.4722   -0.3519   -1.6972 C   0  0  0  0  0  0  0  0  0  0  0  0
    2.4592    2.1272    0.9989 C   0  0  0  0  0  0  0  0  0  0  0  0
    3.1502    1.5982   -0.2521 C   0  0  0  0  0  0  0  0  0  0  0  0
   -1.5292    2.1737   -0.6991 O   0  0  0  0  0  0  0  0  0  0  0  0
    2.3982   -1.8957   -0.6822 O   0  0  0  0  0  0  0  0  0  0  0  0
    0.7280   -0.4329   -1.3716 H   0  0  0  0  0  0  0  0  0  0  0  0
    5.1310   -0.4249   -0.6466 H   0  0  0  0  0  0  0  0  0  0  0  0
    4.5421   -0.4136    0.9928 H   0  0  0  0  0  0  0  0  0  0  0  0
    4.9528   -2.9412   -0.6984 H   0  0  0  0  0  0  0  0  0  0  0  0
    5.9837   -2.3702    0.6080 H   0  0  0  0  0  0  0  0  0  0  0  0
    4.3503   -2.9233    0.9576 H   0  0  0  0  0  0  0  0  0  0  0  0
    0.4426    0.2266    1.0019 H   0  0  0  0  0  0  0  0  0  0  0  0
    0.8050    3.0921    0.0222 H   0  0  0  0  0  0  0  0  0  0  0  0
    0.4605    2.6029    1.6745 H   0  0  0  0  0  0  0  0  0  0  0  0
   -1.4876   -0.6964    0.5833 H   0  0  0  0  0  0  0  0  0  0  0  0
   -3.7277    1.0439   -0.0815 H   0  0  0  0  0  0  0  0  0  0  0  0
   -4.5219   -0.3289   -1.9850 H   0  0  0  0  0  0  0  0  0  0  0  0
   -2.9354    0.3440   -2.3395 H   0  0  0  0  0  0  0  0  0  0  0  0
   -3.0830   -1.3544   -1.8754 H   0  0  0  0  0  0  0  0  0  0  0  0
    2.9044    3.0823    1.2838 H   0  0  0  0  0  0  0  0  0  0  0  0
    2.6312    1.4317    1.8266 H   0  0  0  0  0  0  0  0  0  0  0  0
    4.2151    1.4618   -0.0873 H   0  0  0  0  0  0  0  0  0  0  0  0
    3.0486    2.3244   -1.0641 H   0  0  0  0  0  0  0  0  0  0  0  0
   -5.3051   -0.8752    0.5080 O   0  0  0  0  0  0  0  0  0  0  0  0
   -5.7425   -1.5282    1.0754 H   0  0  0  0  0  0  0  0  0  0  0  0
    1.0313    1.2469   -1.8122 H   0  0  0  0  0  0  0  0  0  0  0  0
 14  8  1  0
 14 15  1  0
  8  7  1  0
 15  5  1  0
  3  4  1  0
  3  1  1  0
  7  6  1  0
  7  2  1  0
  5  1  1  0
  5  2  1  0
 16  6  2  0
  6  9  1  0
  1 17  2  0
  9 10  1  0
 10 13  1  0
 10 11  1  0
 11 12  2  0
  2 38  1  0
  2 18  1  0
  3 19  1  0
  3 20  1  0
  4 21  1  0
  4 22  1  0
  4 23  1  0
  7 24  1  1
  8 25  1  0
  8 26  1  0
  9 27  1  0
 10 28  1  6
 13 29  1  0
 13 30  1  0
 13 31  1  0
 14 32  1  0
 14 33  1  0
 15 34  1  0
 15 35  1  0
 11 36  1  0
 36 37  1  0
M  END
