
     RDKit          3D

 65 67  0  0  0  0  0  0  0  0999 V2000
    0.9864   -0.4368    1.9576 C   0  0  2  0  0  0  0  0  0  0  0  0
    1.3183   -1.3492    0.9536 O   0  0  0  0  0  0  0  0  0  0  0  0
    1.9760   -0.5883    3.1098 C   0  0  2  0  0  0  0  0  0  0  0  0
    3.3730   -0.3692    2.7936 N   0  0  0  0  0  0  0  0  0  0  0  0
    1.7999   -1.9640    3.7494 C   0  0  1  0  0  0  0  0  0  0  0  0
    2.6438   -2.0961    4.8672 O   0  0  0  0  0  0  0  0  0  0  0  0
    0.3530   -2.1441    4.1899 C   0  0  2  0  0  0  0  0  0  0  0  0
    0.1006   -3.4458    4.6644 O   0  0  0  0  0  0  0  0  0  0  0  0
   -0.5833   -1.8937    3.0048 C   0  0  2  0  0  0  0  0  0  0  0  0
   -0.3194   -0.6303    2.4212 O   0  0  0  0  0  0  0  0  0  0  0  0
   -2.0465   -1.8886    3.4190 C   0  0  0  0  0  0  0  0  0  0  0  0
   -2.9197   -1.6527    2.3396 O   0  0  0  0  0  0  0  0  0  0  0  0
    2.3901   -2.5990   -2.2566 C   0  0  2  0  0  0  0  0  0  0  0  0
    1.7755   -2.3738   -3.5576 N   0  0  0  0  0  0  0  0  0  0  0  0
    1.4046   -3.2946   -1.3130 C   0  0  0  0  0  0  0  0  0  0  0  0
    0.2200   -2.4126   -0.8968 C   0  0  2  0  0  0  0  0  0  0  0  0
   -0.7600   -2.1666   -1.9483 N   0  0  0  0  0  0  0  0  0  0  0  0
    0.7054   -1.0847   -0.3082 C   0  0  2  0  0  0  0  0  0  0  0  0
    1.7331   -0.3487   -1.1827 C   0  0  2  0  0  0  0  0  0  0  0  0
    1.1048    0.2235   -2.3105 O   0  0  0  0  0  0  0  0  0  0  0  0
    2.8718   -1.2713   -1.6525 C   0  0  1  0  0  0  0  0  0  0  0  0
    3.7801   -1.5250   -0.5967 O   0  0  0  0  0  0  0  0  0  0  0  0
    0.7943    1.5792   -2.2055 C   0  0  1  0  0  0  0  0  0  0  0  0
    0.1373    1.9925   -3.5138 C   0  0  2  0  0  0  0  0  0  0  0  0
    0.2518    3.3855   -3.6494 O   0  0  0  0  0  0  0  0  0  0  0  0
   -1.3139    1.5851   -3.2362 C   0  0  2  0  0  0  0  0  0  0  0  0
   -2.2571    2.2980   -3.9948 O   0  0  0  0  0  0  0  0  0  0  0  0
   -1.4718    1.9159   -1.7507 C   0  0  2  0  0  0  0  0  0  0  0  0
   -0.1539    1.8509   -1.2088 O   0  0  0  0  0  0  0  0  0  0  0  0
   -2.4248    0.9784   -1.0296 C   0  0  0  0  0  0  0  0  0  0  0  0
   -2.5329    1.2844    0.3917 N   0  0  0  0  0  0  0  0  0  0  0  0
    1.0015    0.5900    1.5694 H   0  0  0  0  0  0  0  0  0  0  0  0
    1.6989    0.1629    3.8569 H   0  0  0  0  0  0  0  0  0  0  0  0
    3.5658    0.6196    2.7080 H   0  0  0  0  0  0  0  0  0  0  0  0
    3.6223   -0.7896    1.9081 H   0  0  0  0  0  0  0  0  0  0  0  0
    2.0291   -2.7406    3.0021 H   0  0  0  0  0  0  0  0  0  0  0  0
    3.4843   -1.6951    4.6032 H   0  0  0  0  0  0  0  0  0  0  0  0
    0.1393   -1.3919    4.9671 H   0  0  0  0  0  0  0  0  0  0  0  0
    0.6522   -3.5965    5.4384 H   0  0  0  0  0  0  0  0  0  0  0  0
   -0.4263   -2.6954    2.2672 H   0  0  0  0  0  0  0  0  0  0  0  0
   -2.2145   -1.0863    4.1424 H   0  0  0  0  0  0  0  0  0  0  0  0
   -2.2745   -2.8336    3.9223 H   0  0  0  0  0  0  0  0  0  0  0  0
   -2.8686   -2.4024    1.7389 H   0  0  0  0  0  0  0  0  0  0  0  0
    2.4244   -1.8875   -4.1644 H   0  0  0  0  0  0  0  0  0  0  0  0
    1.5997   -3.2693   -3.9968 H   0  0  0  0  0  0  0  0  0  0  0  0
    1.0316   -4.2082   -1.7866 H   0  0  0  0  0  0  0  0  0  0  0  0
    1.9400   -3.6373   -0.4212 H   0  0  0  0  0  0  0  0  0  0  0  0
   -0.3137   -2.9221   -0.0872 H   0  0  0  0  0  0  0  0  0  0  0  0
   -0.2647   -1.8628   -2.7797 H   0  0  0  0  0  0  0  0  0  0  0  0
   -1.1830   -3.0542   -2.1942 H   0  0  0  0  0  0  0  0  0  0  0  0
   -0.1638   -0.4412   -0.1697 H   0  0  0  0  0  0  0  0  0  0  0  0
    2.1974    0.4426   -0.5744 H   0  0  0  0  0  0  0  0  0  0  0  0
    3.4496   -0.7268   -2.4074 H   0  0  0  0  0  0  0  0  0  0  0  0
    3.3189   -2.0234    0.0857 H   0  0  0  0  0  0  0  0  0  0  0  0
    1.6976    2.1568   -1.9663 H   0  0  0  0  0  0  0  0  0  0  0  0
    0.5691    1.4638   -4.3723 H   0  0  0  0  0  0  0  0  0  0  0  0
   -0.5311    3.6947   -4.1212 H   0  0  0  0  0  0  0  0  0  0  0  0
   -1.4159    0.5029   -3.3861 H   0  0  0  0  0  0  0  0  0  0  0  0
   -2.3264    1.8869   -4.8623 H   0  0  0  0  0  0  0  0  0  0  0  0
   -1.8338    2.9468   -1.6403 H   0  0  0  0  0  0  0  0  0  0  0  0
   -2.0936   -0.0520   -1.1935 H   0  0  0  0  0  0  0  0  0  0  0  0
   -3.3963    1.0692   -1.5268 H   0  0  0  0  0  0  0  0  0  0  0  0
   -2.2722    0.4829    0.9491 H   0  0  0  0  0  0  0  0  0  0  0  0
   -3.4886    1.4988    0.6347 H   0  0  0  0  0  0  0  0  0  0  0  0
    3.2858   -3.2345   -2.3312 H   0  0  0  0  0  0  0  0  0  0  0  0
  1  3  1  0
  1 10  1  0
  1  2  1  0
  1 32  1  6
  2 18  1  0
  3  5  1  0
  3  4  1  0
  3 33  1  1
  4 34  1  0
  4 35  1  0
  5  6  1  0
  5  7  1  0
  5 36  1  6
  6 37  1  0
  7  8  1  0
  7  9  1  0
  7 38  1  1
  8 39  1  0
  9 11  1  0
  9 10  1  0
  9 40  1  6
 11 12  1  0
 11 41  1  0
 11 42  1  0
 12 43  1  0
 13 15  1  0
 13 14  1  0
 13 21  1  0
 13 65  1  6
 14 44  1  0
 14 45  1  0
 15 16  1  0
 15 46  1  0
 15 47  1  0
 16 17  1  0
 16 18  1  0
 16 48  1  1
 17 49  1  0
 17 50  1  0
 18 19  1  0
 18 51  1  1
 19 21  1  0
 19 20  1  0
 19 52  1  1
 20 23  1  0
 21 22  1  0
 21 53  1  6
 22 54  1  0
 23 29  1  0
 23 24  1  0
 23 55  1  1
 24 26  1  0
 24 25  1  0
 24 56  1  6
 25 57  1  0
 26 28  1  0
 26 27  1  0
 26 58  1  1
 27 59  1  0
 28 30  1  0
 28 29  1  0
 28 60  1  6
 30 31  1  0
 30 61  1  0
 30 62  1  0
 31 63  1  0
 31 64  1  0
M  END
