
     RDKit          3D

 46 47  0  0  0  0  0  0  0  0999 V2000
   -5.8042   -2.5771   -8.8093 C   0  0  0  0  0  0  0  0  0  0  0  0
   -5.3239   -2.8556   -7.3916 C   0  0  0  0  0  0  0  0  0  0  0  0
   -4.1762   -3.8569   -7.3386 C   0  0  0  0  0  0  0  0  0  0  0  0
   -3.6693   -4.1198   -5.9260 C   0  0  0  0  0  0  0  0  0  0  0  0
   -2.5133   -5.1112   -5.8747 C   0  0  0  0  0  0  0  0  0  0  0  0
   -1.9848   -5.3465   -4.4647 C   0  0  0  0  0  0  0  0  0  0  0  0
   -0.8082   -6.3131   -4.4189 C   0  0  0  0  0  0  0  0  0  0  0  0
   -0.2592   -6.5143   -3.0121 C   0  0  0  0  0  0  0  0  0  0  0  0
    0.9624   -7.4388   -2.9990 C   0  0  0  0  0  0  0  0  0  0  0  0
    1.5373   -7.5988   -1.6320 C   0  0  0  0  0  0  0  0  0  0  0  0
    2.6550   -6.8560   -1.2269 C   0  0  0  0  0  0  0  0  0  0  0  0
    3.1730   -6.9723    0.0343 C   0  0  0  0  0  0  0  0  0  0  0  0
    4.2335   -6.2936    0.4770 O   0  0  0  0  0  0  0  0  0  0  0  0
    2.5504   -7.8723    0.9397 C   0  0  0  0  0  0  0  0  0  0  0  0
    3.0114   -8.0686    2.2587 C   0  0  0  0  0  0  0  0  0  0  0  0
    2.3755   -8.9479    3.0942 C   0  0  0  0  0  0  0  0  0  0  0  0
    1.2539   -9.6641    2.6426 C   0  0  0  0  0  0  0  0  0  0  0  0
    0.7806   -9.4959    1.3672 C   0  0  0  0  0  0  0  0  0  0  0  0
    1.4250   -8.5980    0.5000 C   0  0  0  0  0  0  0  0  0  0  0  0
    0.9340   -8.4405   -0.7889 N   0  0  0  0  0  0  0  0  0  0  0  0
   -0.0971   -9.1174   -1.1485 O   0  0  0  0  0  0  0  0  0  0  0  0
   -6.6266   -1.8609   -8.8217 H   0  0  0  0  0  0  0  0  0  0  0  0
   -6.1562   -3.4896   -9.2942 H   0  0  0  0  0  0  0  0  0  0  0  0
   -5.0004   -2.1683   -9.4246 H   0  0  0  0  0  0  0  0  0  0  0  0
   -6.1579   -3.2291   -6.7891 H   0  0  0  0  0  0  0  0  0  0  0  0
   -5.0076   -1.9190   -6.9220 H   0  0  0  0  0  0  0  0  0  0  0  0
   -3.3483   -3.4909   -7.9566 H   0  0  0  0  0  0  0  0  0  0  0  0
   -4.4982   -4.8006   -7.7928 H   0  0  0  0  0  0  0  0  0  0  0  0
   -4.4941   -4.4903   -5.3069 H   0  0  0  0  0  0  0  0  0  0  0  0
   -3.3525   -3.1733   -5.4742 H   0  0  0  0  0  0  0  0  0  0  0  0
   -1.6965   -4.7478   -6.5087 H   0  0  0  0  0  0  0  0  0  0  0  0
   -2.8323   -6.0651   -6.3086 H   0  0  0  0  0  0  0  0  0  0  0  0
   -2.7943   -5.7255   -3.8311 H   0  0  0  0  0  0  0  0  0  0  0  0
   -1.6810   -4.3884   -4.0291 H   0  0  0  0  0  0  0  0  0  0  0  0
   -1.1121   -7.2798   -4.8341 H   0  0  0  0  0  0  0  0  0  0  0  0
   -0.0081   -5.9396   -5.0677 H   0  0  0  0  0  0  0  0  0  0  0  0
    0.0228   -5.5451   -2.5898 H   0  0  0  0  0  0  0  0  0  0  0  0
   -1.0361   -6.9283   -2.3655 H   0  0  0  0  0  0  0  0  0  0  0  0
    0.6938   -8.4143   -3.4089 H   0  0  0  0  0  0  0  0  0  0  0  0
    1.7357   -7.0178   -3.6445 H   0  0  0  0  0  0  0  0  0  0  0  0
    3.1006   -6.1842   -1.9502 H   0  0  0  0  0  0  0  0  0  0  0  0
    4.5739   -5.7036   -0.2062 H   0  0  0  0  0  0  0  0  0  0  0  0
    3.8741   -7.5194    2.6092 H   0  0  0  0  0  0  0  0  0  0  0  0
    2.7356   -9.0914    4.1039 H   0  0  0  0  0  0  0  0  0  0  0  0
    0.7572  -10.3574    3.3080 H   0  0  0  0  0  0  0  0  0  0  0  0
   -0.0823  -10.0429    1.0204 H   0  0  0  0  0  0  0  0  0  0  0  0
  1  2  1  0
  1 22  1  0
  1 23  1  0
  1 24  1  0
  2  3  1  0
  2 25  1  0
  2 26  1  0
  3  4  1  0
  3 27  1  0
  3 28  1  0
  4  5  1  0
  4 29  1  0
  4 30  1  0
  5  6  1  0
  5 31  1  0
  5 32  1  0
  6  7  1  0
  6 33  1  0
  6 34  1  0
  7  8  1  0
  7 35  1  0
  7 36  1  0
  8  9  1  0
  8 37  1  0
  8 38  1  0
  9 10  1  0
  9 39  1  0
  9 40  1  0
 10 11  2  0
 10 20  1  0
 11 12  1  0
 11 41  1  0
 12 13  1  0
 12 14  2  0
 13 42  1  0
 14 15  1  0
 14 19  1  0
 15 16  2  0
 15 43  1  0
 16 17  1  0
 16 44  1  0
 17 18  2  0
 17 45  1  0
 18 19  1  0
 18 46  1  0
 19 20  2  0
 20 21  1  0
M  CHG  2  20   1  21  -1
M  END
