
     RDKit          3D

 41 44  0  0  0  0  0  0  0  0999 V2000
   -2.2688    0.0085   -1.6943 C   0  0  0  0  0  0  0  0  0  0  0  0
   -1.5619    0.1869   -0.5179 C   0  0  0  0  0  0  0  0  0  0  0  0
   -2.1700   -0.0335    0.7055 C   0  0  0  0  0  0  0  0  0  0  0  0
    3.7580    0.9011    0.2610 N   0  0  0  0  0  0  0  0  0  0  0  0
   -3.4962   -0.4350    0.7658 C   0  0  0  0  0  0  0  0  0  0  0  0
    0.1888    1.7445   -0.1628 C   0  0  0  0  0  0  0  0  0  0  0  0
    5.5400   -2.7966   -0.2342 N   0  0  0  0  0  0  0  0  0  0  0  0
   -0.6655    2.8329   -0.0305 C   0  0  0  0  0  0  0  0  0  0  0  0
   -0.1575    4.0556    0.3734 C   0  0  0  0  0  0  0  0  0  0  0  0
    1.1982    4.2032    0.6449 C   0  0  0  0  0  0  0  0  0  0  0  0
    2.0412    3.1180    0.5123 C   0  0  0  0  0  0  0  0  0  0  0  0
    1.5566    1.8674    0.1131 C   0  0  0  0  0  0  0  0  0  0  0  0
    2.4948    0.7514    0.0125 C   0  0  0  0  0  0  0  0  0  0  0  0
    4.4394   -0.2715    0.1247 C   0  0  0  0  0  0  0  0  0  0  0  0
   -6.0798   -1.3555    1.7294 O   0  0  0  0  0  0  0  0  0  0  0  0
   -6.3944   -1.3803    0.5532 C   0  0  0  0  0  0  0  0  0  0  0  0
   -7.7523   -1.8392    0.0860 C   0  0  0  0  0  0  0  0  0  0  0  0
   -4.2227   -0.6258   -0.4121 C   0  0  0  0  0  0  0  0  0  0  0  0
   -3.5894   -0.3994   -1.6366 C   0  0  0  0  0  0  0  0  0  0  0  0
   -0.2305    0.5310   -0.5877 O   0  0  0  0  0  0  0  0  0  0  0  0
    2.0132   -0.8774   -0.4268 S   0  0  0  0  0  0  0  0  0  0  0  0
    3.6558   -1.3710   -0.2472 C   0  0  0  0  0  0  0  0  0  0  0  0
    4.2448   -2.6187   -0.4176 C   0  0  0  0  0  0  0  0  0  0  0  0
    6.2929   -1.7472    0.1222 C   0  0  0  0  0  0  0  0  0  0  0  0
    5.8069   -0.4708    0.3156 C   0  0  0  0  0  0  0  0  0  0  0  0
   -1.7949    0.1810   -2.6517 H   0  0  0  0  0  0  0  0  0  0  0  0
   -1.6152    0.1037    1.6253 H   0  0  0  0  0  0  0  0  0  0  0  0
   -3.9465   -0.6018    1.7293 H   0  0  0  0  0  0  0  0  0  0  0  0
   -1.7204    2.7322   -0.2477 H   0  0  0  0  0  0  0  0  0  0  0  0
   -0.8286    4.8984    0.4716 H   0  0  0  0  0  0  0  0  0  0  0  0
    1.5930    5.1592    0.9592 H   0  0  0  0  0  0  0  0  0  0  0  0
    3.0959    3.2237    0.7245 H   0  0  0  0  0  0  0  0  0  0  0  0
   -8.4785   -1.7273    0.8868 H   0  0  0  0  0  0  0  0  0  0  0  0
   -8.1009   -1.2912   -0.7881 H   0  0  0  0  0  0  0  0  0  0  0  0
   -7.7044   -2.8959   -0.1842 H   0  0  0  0  0  0  0  0  0  0  0  0
   -5.9398   -1.1081   -1.3920 H   0  0  0  0  0  0  0  0  0  0  0  0
   -4.1360   -0.5433   -2.5607 H   0  0  0  0  0  0  0  0  0  0  0  0
    3.6569   -3.4828   -0.7064 H   0  0  0  0  0  0  0  0  0  0  0  0
    7.3492   -1.9459    0.2594 H   0  0  0  0  0  0  0  0  0  0  0  0
    6.4607    0.3416    0.6021 H   0  0  0  0  0  0  0  0  0  0  0  0
   -5.5578   -1.0313   -0.4613 N   0  0  0  0  0  0  0  0  0  0  0  0
 10  9  1  0
 10 11  2  0
  9  8  2  0
 11 12  1  0
  8  6  1  0
 12  6  2  0
 12 13  1  0
  6 20  1  0
  1 19  2  0
  1  2  1  0
 19 18  1  0
  4 13  2  0
  4 14  1  0
 13 21  1  0
 20  2  1  0
  2  3  2  0
 18 41  1  0
 18  5  2  0
 41 16  1  0
 15 16  2  0
 16 17  1  0
 14 25  2  0
 14 22  1  0
  3  5  1  0
 25 24  1  0
 21 22  1  0
 22 23  2  0
 24  7  2  0
 23  7  1  0
  1 26  1  0
  3 27  1  0
  5 28  1  0
  8 29  1  0
  9 30  1  0
 10 31  1  0
 11 32  1  0
 17 33  1  0
 17 34  1  0
 17 35  1  0
 41 36  1  0
 19 37  1  0
 23 38  1  0
 24 39  1  0
 25 40  1  0
M  END
