
     RDKit          3D

 35 34  0  0  0  0  0  0  0  0999 V2000
   -4.8253   -0.3605    0.6232 C   0  0  0  0  0  0  0  0  0  0  0  0
   -3.8718    1.8566    0.0373 N   0  0  0  0  0  0  0  0  0  0  0  0
   -5.4087   -0.0674    1.6716 O   0  0  0  0  0  0  0  0  0  0  0  0
   -3.7477    0.4283   -0.1173 C   0  0  1  0  0  0  0  0  0  0  0  0
   -2.3805   -0.1215    0.3195 C   0  0  0  0  0  0  0  0  0  0  0  0
    0.0378   -0.3191   -0.2378 C   0  0  0  0  0  0  0  0  0  0  0  0
    1.1470    0.1820   -1.1665 C   0  0  0  0  0  0  0  0  0  0  0  0
   -1.2756    0.3376   -0.6065 C   0  0  0  0  0  0  0  0  0  0  0  0
    2.4249   -0.4347   -0.9456 N   0  0  0  0  0  0  0  0  0  0  0  0
    7.0146   -0.7208    0.8988 C   0  0  0  0  0  0  0  0  0  0  0  0
    3.3026    1.2632    0.3278 O   0  0  0  0  0  0  0  0  0  0  0  0
    5.7393    0.0708    0.7756 C   0  0  0  0  0  0  0  0  0  0  0  0
    4.7244   -0.6569   -0.0802 C   0  0  0  0  0  0  0  0  0  0  0  0
    3.4412    0.1444   -0.2056 C   0  0  0  0  0  0  0  0  0  0  0  0
   -5.1719   -1.5355    0.0327 O   0  0  0  0  0  0  0  0  0  0  0  0
   -4.8130    2.1527   -0.1371 H   0  0  0  0  0  0  0  0  0  0  0  0
   -3.5980    2.1481    0.9549 H   0  0  0  0  0  0  0  0  0  0  0  0
   -3.8906    0.1963   -1.2181 H   0  0  0  0  0  0  0  0  0  0  0  0
   -2.1549    0.1984    1.3700 H   0  0  0  0  0  0  0  0  0  0  0  0
   -2.4448   -1.2426    0.3106 H   0  0  0  0  0  0  0  0  0  0  0  0
   -0.0612   -1.4329   -0.3170 H   0  0  0  0  0  0  0  0  0  0  0  0
    0.2944   -0.0800    0.8270 H   0  0  0  0  0  0  0  0  0  0  0  0
    0.8385   -0.0272   -2.2322 H   0  0  0  0  0  0  0  0  0  0  0  0
    1.2487    1.3001   -1.0486 H   0  0  0  0  0  0  0  0  0  0  0  0
   -1.5419    0.0829   -1.6663 H   0  0  0  0  0  0  0  0  0  0  0  0
   -1.1677    1.4530   -0.5510 H   0  0  0  0  0  0  0  0  0  0  0  0
    2.5757   -1.3246   -1.3523 H   0  0  0  0  0  0  0  0  0  0  0  0
    7.7484   -0.1689    1.5350 H   0  0  0  0  0  0  0  0  0  0  0  0
    6.8209   -1.7160    1.3675 H   0  0  0  0  0  0  0  0  0  0  0  0
    7.4755   -0.8897   -0.1045 H   0  0  0  0  0  0  0  0  0  0  0  0
    5.3008    0.2584    1.7912 H   0  0  0  0  0  0  0  0  0  0  0  0
    5.9495    1.0766    0.3251 H   0  0  0  0  0  0  0  0  0  0  0  0
    5.1473   -0.8325   -1.1045 H   0  0  0  0  0  0  0  0  0  0  0  0
    4.4947   -1.6577    0.3722 H   0  0  0  0  0  0  0  0  0  0  0  0
   -5.8588   -1.9770    0.5599 H   0  0  0  0  0  0  0  0  0  0  0  0
  1  3  2  0
  1  4  1  0
  1 15  1  0
  2  4  1  0
  2 16  1  0
  2 17  1  0
  4  5  1  0
  4 18  1  6
  5  8  1  0
  5 19  1  0
  5 20  1  0
  6  7  1  0
  6  8  1  0
  6 21  1  0
  6 22  1  0
  7  9  1  0
  7 23  1  0
  7 24  1  0
  8 25  1  0
  8 26  1  0
  9 14  1  0
  9 27  1  0
 10 12  1  0
 10 28  1  0
 10 29  1  0
 10 30  1  0
 11 14  2  0
 12 13  1  0
 12 31  1  0
 12 32  1  0
 13 14  1  0
 13 33  1  0
 13 34  1  0
 15 35  1  0
M  END
