
     RDKit          3D

 24 25  0  0  0  0  0  0  0  0999 V2000
   -1.0394    1.2933   -0.1579 C   0  0  0  0  0  0  0  0  0  0  0  0
   -2.3293    1.4918   -0.0458 N   0  0  0  0  0  0  0  0  0  0  0  0
   -3.1381    0.4239    0.0966 C   0  0  0  0  0  0  0  0  0  0  0  0
   -2.7597   -0.8340    0.0247 N   0  0  0  0  0  0  0  0  0  0  0  0
   -0.2612    2.3792   -0.3948 N   0  0  0  0  0  0  0  0  0  0  0  0
   -4.4528    0.6949    0.2428 N   0  0  0  0  0  0  0  0  0  0  0  0
    1.3612   -1.6824   -0.0340 C   0  0  0  0  0  0  0  0  0  0  0  0
    0.8947   -0.3797    0.0404 C   0  0  0  0  0  0  0  0  0  0  0  0
   -0.4782   -0.0230   -0.0216 C   0  0  0  0  0  0  0  0  0  0  0  0
   -1.4330   -1.0548   -0.0361 C   0  0  0  0  0  0  0  0  0  0  0  0
   -0.9671   -2.3935   -0.1245 C   0  0  0  0  0  0  0  0  0  0  0  0
    0.3579   -2.6873   -0.1566 C   0  0  0  0  0  0  0  0  0  0  0  0
    2.6597   -2.0594    0.0578 N   0  0  0  0  0  0  0  0  0  0  0  0
    2.0546    0.8641    0.5761 Cl  0  0  0  0  0  0  0  0  0  0  0  0
    3.1307    0.8740   -0.4773 O   0  0  0  0  0  0  0  0  0  0  0  0
    2.5558    0.3733    1.8964 O   0  0  0  0  0  0  0  0  0  0  0  0
   -0.7774    3.2277   -0.5756 H   0  0  0  0  0  0  0  0  0  0  0  0
    0.5266    2.2757   -1.0150 H   0  0  0  0  0  0  0  0  0  0  0  0
   -4.7262    1.6315    0.4830 H   0  0  0  0  0  0  0  0  0  0  0  0
   -5.0636   -0.0459    0.5407 H   0  0  0  0  0  0  0  0  0  0  0  0
   -1.7008   -3.1869   -0.1750 H   0  0  0  0  0  0  0  0  0  0  0  0
    0.6788   -3.7188   -0.2392 H   0  0  0  0  0  0  0  0  0  0  0  0
    3.3889   -1.4089   -0.1805 H   0  0  0  0  0  0  0  0  0  0  0  0
    2.8719   -3.0171   -0.1656 H   0  0  0  0  0  0  0  0  0  0  0  0
  1  2  2  0
  1  5  1  0
  1  9  1  0
  2  3  1  0
  3  4  2  0
  3  6  1  0
  4 10  1  0
  5 17  1  0
  5 18  1  0
  6 19  1  0
  6 20  1  0
  7  8  1  0
  7 12  2  0
  7 13  1  0
  8  9  2  0
  8 14  1  0
  9 10  1  0
 10 11  2  0
 11 12  1  0
 11 21  1  0
 12 22  1  0
 13 23  1  0
 13 24  1  0
 14 15  2  0
 14 16  2  0
M  END
