
     RDKit          3D

 50 53  0  0  0  0  0  0  0  0999 V2000
   -1.3962   -0.3900    0.0755 C   0  0  0  0  0  0  0  0  0  0  0  0
    1.4130    0.2482   -1.0075 C   0  0  0  0  0  0  0  0  0  0  0  0
    1.9643   -1.3049    0.7379 C   0  0  0  0  0  0  0  0  0  0  0  0
   -7.6311    2.2031    0.5931 C   0  0  0  0  0  0  0  0  0  0  0  0
   -0.3659   -1.2913   -0.1675 C   0  0  0  0  0  0  0  0  0  0  0  0
   -2.7301   -0.7828    0.0479 C   0  0  0  0  0  0  0  0  0  0  0  0
    3.5787    0.0808    0.0148 C   0  0  0  0  0  0  0  0  0  0  0  0
    4.7338    1.6697   -1.0855 C   0  0  0  0  0  0  0  0  0  0  0  0
    7.2283    1.1558    0.4076 C   0  0  0  0  0  0  0  0  0  0  0  0
   -3.0301   -2.1174   -0.2103 C   0  0  0  0  0  0  0  0  0  0  0  0
   -0.6697   -2.6348   -0.4393 C   0  0  0  0  0  0  0  0  0  0  0  0
    2.7136    0.6777   -0.9117 C   0  0  0  0  0  0  0  0  0  0  0  0
   -6.1269    0.7633    0.0101 C   0  0  0  0  0  0  0  0  0  0  0  0
   -3.7660    0.2446    0.3422 C   0  0  0  0  0  0  0  0  0  0  0  0
    6.3245   -1.1452    0.4864 C   0  0  0  0  0  0  0  0  0  0  0  0
    5.6323    0.5730    2.2064 C   0  0  0  0  0  0  0  0  0  0  0  0
   -2.0082   -3.0203   -0.4472 C   0  0  0  0  0  0  0  0  0  0  0  0
   -6.3296    1.9188    0.8138 C   0  0  0  0  0  0  0  0  0  0  0  0
    1.0261   -0.7896   -0.1498 C   0  0  0  0  0  0  0  0  0  0  0  0
    3.2273   -0.8833    0.8292 N   0  0  0  0  0  0  0  0  0  0  0  0
   -7.2184    0.4184   -0.6190 N   0  0  0  0  0  0  0  0  0  0  0  0
    3.4442    1.6320   -1.5595 N   0  0  0  0  0  0  0  0  0  0  0  0
    4.8154    0.6934   -0.0981 N   0  0  0  0  0  0  0  0  0  0  0  0
   -5.0006   -0.0071   -0.1789 N   0  0  0  0  0  0  0  0  0  0  0  0
   -3.5201    1.2415    0.9934 O   0  0  0  0  0  0  0  0  0  0  0  0
   -8.1640    1.3254   -0.2509 O   0  0  0  0  0  0  0  0  0  0  0  0
   -1.1513    0.6419    0.2937 H   0  0  0  0  0  0  0  0  0  0  0  0
    0.7202    0.6819   -1.7173 H   0  0  0  0  0  0  0  0  0  0  0  0
    1.6802   -2.0904    1.4282 H   0  0  0  0  0  0  0  0  0  0  0  0
   -8.2793    2.9820    0.9635 H   0  0  0  0  0  0  0  0  0  0  0  0
    0.8493   -4.0317    0.1810 H   0  0  0  0  0  0  0  0  0  0  0  0
   -0.0300   -4.5082   -1.2609 H   0  0  0  0  0  0  0  0  0  0  0  0
    1.1935   -3.2413   -1.3459 H   0  0  0  0  0  0  0  0  0  0  0  0
    7.0895    2.2184    0.5948 H   0  0  0  0  0  0  0  0  0  0  0  0
    8.0256    0.8064    1.0651 H   0  0  0  0  0  0  0  0  0  0  0  0
    7.5677    1.0192   -0.6171 H   0  0  0  0  0  0  0  0  0  0  0  0
   -4.0506   -2.4794   -0.2094 H   0  0  0  0  0  0  0  0  0  0  0  0
    7.1982   -1.4246    1.0761 H   0  0  0  0  0  0  0  0  0  0  0  0
    5.5103   -1.8106    0.7642 H   0  0  0  0  0  0  0  0  0  0  0  0
    6.5648   -1.3080   -0.5652 H   0  0  0  0  0  0  0  0  0  0  0  0
    5.3698    1.6202    2.3648 H   0  0  0  0  0  0  0  0  0  0  0  0
    4.8029   -0.0462    2.5405 H   0  0  0  0  0  0  0  0  0  0  0  0
    6.4945    0.3456    2.8342 H   0  0  0  0  0  0  0  0  0  0  0  0
   -2.2580   -4.0537   -0.6527 H   0  0  0  0  0  0  0  0  0  0  0  0
   -5.6380    2.4415    1.4461 H   0  0  0  0  0  0  0  0  0  0  0  0
    3.1159    2.2426   -2.2909 H   0  0  0  0  0  0  0  0  0  0  0  0
   -5.1161   -0.7905   -0.8050 H   0  0  0  0  0  0  0  0  0  0  0  0
    0.3915   -3.6531   -0.7343 C   0  0  0  0  0  0  0  0  0  0  0  0
    5.5945    2.4276   -1.4841 O   0  0  0  0  0  0  0  0  0  0  0  0
    5.9886    0.3262    0.7383 C   0  0  1  0  0  0  0  0  0  0  0  0
 50 16  1  1
 15 50  1  0
 50  9  1  0
 50 23  1  0
 49  8  2  0
 23  8  1  0
 23  7  1  0
  8 22  1  0
 20  7  2  0
 20  3  1  0
  7 12  1  0
 22 12  1  0
 12  2  2  0
  3 19  2  0
  2 19  1  0
 19  5  1  0
 48 11  1  0
  5 11  1  0
  5  1  2  0
 11 17  2  0
  1  6  1  0
 17 10  1  0
  6 10  2  0
  6 14  1  0
 25 14  2  0
 14 24  1  0
 24 13  1  0
 13 18  1  0
 13 21  2  0
 18  4  2  0
 21 26  1  0
  4 26  1  0
  1 27  1  0
  2 28  1  0
  3 29  1  0
  4 30  1  0
 48 31  1  0
 48 32  1  0
 48 33  1  0
  9 34  1  0
  9 35  1  0
  9 36  1  0
 10 37  1  0
 15 38  1  0
 15 39  1  0
 15 40  1  0
 16 41  1  0
 16 42  1  0
 16 43  1  0
 17 44  1  0
 18 45  1  0
 22 46  1  0
 24 47  1  0
M  END
