
     RDKit          3D

 37 37  0  0  0  0  0  0  0  0999 V2000
    6.6188   -0.1260   -0.0794 O   0  0  0  0  0  0  0  0  0  0  0  0
    5.4125    0.4104    0.4231 C   0  0  0  0  0  0  0  0  0  0  0  0
    4.2413   -0.3142   -0.2100 C   0  0  0  0  0  0  0  0  0  0  0  0
    2.9028    0.2221    0.2811 C   0  0  0  0  0  0  0  0  0  0  0  0
    1.7080   -0.5150   -0.3106 C   0  0  0  0  0  0  0  0  0  0  0  0
    0.3721    0.0350    0.1722 C   0  0  0  0  0  0  0  0  0  0  0  0
   -0.8233   -0.7823   -0.3042 C   0  0  0  0  0  0  0  0  0  0  0  0
   -2.1741   -0.2559    0.1805 C   0  0  2  0  0  0  0  0  0  0  0  0
   -3.2723   -1.3073    0.0214 C   0  0  0  0  0  0  0  0  0  0  0  0
   -4.6239   -0.8042    0.5167 C   0  0  0  0  0  0  0  0  0  0  0  0
   -5.0244    0.4917   -0.1806 C   0  0  0  0  0  0  0  0  0  0  0  0
   -3.9378    1.5525   -0.0387 C   0  0  0  0  0  0  0  0  0  0  0  0
   -2.5856    1.0386   -0.5241 C   0  0  0  0  0  0  0  0  0  0  0  0
    7.3489    0.3496    0.3263 H   0  0  0  0  0  0  0  0  0  0  0  0
    5.3529    0.3055    1.5150 H   0  0  0  0  0  0  0  0  0  0  0  0
    5.3320    1.4846    0.2074 H   0  0  0  0  0  0  0  0  0  0  0  0
    4.2977   -0.2172   -1.2991 H   0  0  0  0  0  0  0  0  0  0  0  0
    4.3119   -1.3834    0.0150 H   0  0  0  0  0  0  0  0  0  0  0  0
    2.8598    0.1521    1.3736 H   0  0  0  0  0  0  0  0  0  0  0  0
    2.8258    1.2889    0.0445 H   0  0  0  0  0  0  0  0  0  0  0  0
    1.7517   -0.4650   -1.4041 H   0  0  0  0  0  0  0  0  0  0  0  0
    1.7784   -1.5780   -0.0545 H   0  0  0  0  0  0  0  0  0  0  0  0
    0.3669    0.0586    1.2678 H   0  0  0  0  0  0  0  0  0  0  0  0
    0.2732    1.0760   -0.1507 H   0  0  0  0  0  0  0  0  0  0  0  0
   -0.8256   -0.8353   -1.3995 H   0  0  0  0  0  0  0  0  0  0  0  0
   -0.6965   -1.8135    0.0455 H   0  0  0  0  0  0  0  0  0  0  0  0
   -2.0810   -0.0393    1.2544 H   0  0  0  0  0  0  0  0  0  0  0  0
   -3.3511   -1.5876   -1.0363 H   0  0  0  0  0  0  0  0  0  0  0  0
   -2.9886   -2.2169    0.5594 H   0  0  0  0  0  0  0  0  0  0  0  0
   -5.3905   -1.5689    0.3673 H   0  0  0  0  0  0  0  0  0  0  0  0
   -4.5689   -0.6300    1.5971 H   0  0  0  0  0  0  0  0  0  0  0  0
   -5.1958    0.2904   -1.2439 H   0  0  0  0  0  0  0  0  0  0  0  0
   -5.9712    0.8621    0.2208 H   0  0  0  0  0  0  0  0  0  0  0  0
   -4.2168    2.4536   -0.5914 H   0  0  0  0  0  0  0  0  0  0  0  0
   -3.8570    1.8501    1.0126 H   0  0  0  0  0  0  0  0  0  0  0  0
   -1.8236    1.8105   -0.3854 H   0  0  0  0  0  0  0  0  0  0  0  0
   -2.6388    0.8500   -1.6038 H   0  0  0  0  0  0  0  0  0  0  0  0
  1  2  1  0
  2  3  1  0
  2 15  1  0
  2 16  1  0
  3  4  1  0
  3 17  1  0
  3 18  1  0
  4  5  1  0
  4 19  1  0
  4 20  1  0
  5  6  1  0
  5 21  1  0
  5 22  1  0
  6  7  1  0
  6 23  1  0
  6 24  1  0
  7  8  1  0
  7 25  1  0
  7 26  1  0
  8  9  1  0
  8 13  1  0
  8 27  1  1
  9 10  1  0
  9 28  1  0
  9 29  1  0
 10 11  1  0
 10 30  1  0
 10 31  1  0
 11 12  1  0
 11 32  1  0
 11 33  1  0
 12 13  1  0
 12 34  1  0
 12 35  1  0
 13 36  1  0
 13 37  1  0
 14  1  1  0
M  END
