
     RDKit          3D

 30 31  0  0  0  0  0  0  0  0999 V2000
   -3.3202    3.0143    1.1069 O   0  0  0  0  0  0  0  0  0  0  0  0
   -2.2544    2.7591    0.6028 C   0  0  0  0  0  0  0  0  0  0  0  0
   -1.8145    1.4554    0.0796 C   0  0  0  0  0  0  0  0  0  0  0  0
   -0.5323    1.4002   -0.4435 C   0  0  0  0  0  0  0  0  0  0  0  0
   -2.6253    0.3002    0.0874 C   0  0  0  0  0  0  0  0  0  0  0  0
   -3.8354    0.3808    0.5938 O   0  0  0  0  0  0  0  0  0  0  0  0
   -2.0649   -0.8717   -0.4597 C   0  0  0  0  0  0  0  0  0  0  0  0
   -2.8183   -2.0954   -0.4973 N   0  0  0  0  0  0  0  0  0  0  0  0
   -3.9546   -2.0895   -0.0408 O   0  0  0  0  0  0  0  0  0  0  0  0
   -2.3178   -3.0813   -0.9720 O   0  0  0  0  0  0  0  0  0  0  0  0
   -0.7697   -0.8922   -0.9783 C   0  0  0  0  0  0  0  0  0  0  0  0
    0.0163    0.2386   -0.9799 C   0  0  0  0  0  0  0  0  0  0  0  0
    1.4135    0.2355   -1.5472 C   0  0  0  0  0  0  0  0  0  0  0  0
    2.4475    0.6209   -0.5243 C   0  0  0  0  0  0  0  0  0  0  0  0
    2.8313   -0.2343    0.5070 C   0  0  0  0  0  0  0  0  0  0  0  0
    2.1364   -1.8218    0.6102 Cl  0  0  0  0  0  0  0  0  0  0  0  0
    3.7678    0.1361    1.4594 C   0  0  0  0  0  0  0  0  0  0  0  0
    4.3440    1.3964    1.3940 C   0  0  0  0  0  0  0  0  0  0  0  0
    3.9844    2.2690    0.3777 C   0  0  0  0  0  0  0  0  0  0  0  0
    3.0474    1.8771   -0.5673 C   0  0  0  0  0  0  0  0  0  0  0  0
   -1.4822    3.5413    0.4912 H   0  0  0  0  0  0  0  0  0  0  0  0
    0.0614    2.3090   -0.4309 H   0  0  0  0  0  0  0  0  0  0  0  0
   -4.2595   -0.4988    0.5280 H   0  0  0  0  0  0  0  0  0  0  0  0
   -0.3800   -1.8142   -1.3865 H   0  0  0  0  0  0  0  0  0  0  0  0
    1.6374   -0.7469   -1.9658 H   0  0  0  0  0  0  0  0  0  0  0  0
    1.4626    0.9436   -2.3775 H   0  0  0  0  0  0  0  0  0  0  0  0
    4.0482   -0.5543    2.2432 H   0  0  0  0  0  0  0  0  0  0  0  0
    5.0736    1.6880    2.1376 H   0  0  0  0  0  0  0  0  0  0  0  0
    4.4313    3.2522    0.3178 H   0  0  0  0  0  0  0  0  0  0  0  0
    2.7704    2.5589   -1.3621 H   0  0  0  0  0  0  0  0  0  0  0  0
 13 14  1  0
 13 12  1  0
 20 14  1  0
 20 19  2  0
 14 15  2  0
 19 18  1  0
 15 16  1  0
 15 17  1  0
 18 17  2  0
 12  4  1  0
 12 11  2  0
  4  3  2  0
 11  7  1  0
  3  2  1  0
  3  5  1  0
  7  5  2  0
  7  8  1  0
  2  1  2  0
  9  8  1  0
  5  6  1  0
  8 10  2  0
  2 21  1  0
  4 22  1  0
  6 23  1  0
 11 24  1  0
 13 25  1  0
 13 26  1  0
 17 27  1  0
 18 28  1  0
 19 29  1  0
 20 30  1  0
M  CHG  2   8   1   9  -1
M  END
