
     RDKit          3D

 42 45  0  0  0  0  0  0  0  0999 V2000
   -6.9301   -2.4003   -0.0915 C   0  0  0  0  0  0  0  0  0  0  0  0
   -6.5873   -1.0331   -0.0561 O   0  0  0  0  0  0  0  0  0  0  0  0
   -5.2723   -0.7173   -0.0440 C   0  0  0  0  0  0  0  0  0  0  0  0
   -4.2268   -1.6180   -0.0678 C   0  0  0  0  0  0  0  0  0  0  0  0
   -2.8924   -1.2050   -0.0548 C   0  0  0  0  0  0  0  0  0  0  0  0
   -2.5869    0.1492   -0.0163 C   0  0  0  0  0  0  0  0  0  0  0  0
   -3.6502    1.0722    0.0105 C   0  0  0  0  0  0  0  0  0  0  0  0
   -4.9679    0.6587   -0.0030 C   0  0  0  0  0  0  0  0  0  0  0  0
   -6.0280    1.4883    0.0203 O   0  0  0  0  0  0  0  0  0  0  0  0
   -5.7918    2.8801    0.0590 C   0  0  0  0  0  0  0  0  0  0  0  0
   -1.3123    0.6990   -0.0037 N   0  0  0  0  0  0  0  0  0  0  0  0
   -0.0622    0.1216   -0.0010 C   0  0  0  0  0  0  0  0  0  0  0  0
    1.0482    0.9725    0.0221 C   0  0  0  0  0  0  0  0  0  0  0  0
    2.2876    0.3580    0.0237 C   0  0  0  0  0  0  0  0  0  0  0  0
    3.5431    0.8726    0.0435 N   0  0  0  0  0  0  0  0  0  0  0  0
    4.4704   -0.1533    0.0348 C   0  0  0  0  0  0  0  0  0  0  0  0
    3.8093   -1.3495    0.0107 C   0  0  0  0  0  0  0  0  0  0  0  0
    2.4116   -1.0511    0.0035 C   0  0  0  0  0  0  0  0  0  0  0  0
    1.2327   -1.7811   -0.0181 C   0  0  0  0  0  0  0  0  0  0  0  0
    0.0368   -1.2116   -0.0212 N   0  0  0  0  0  0  0  0  0  0  0  0
    5.8885    0.1244    0.0513 C   0  0  0  0  0  0  0  0  0  0  0  0
    6.9232   -0.7930    0.0262 C   0  0  0  0  0  0  0  0  0  0  0  0
    8.0570   -0.0837    0.0549 N   0  0  0  0  0  0  0  0  0  0  0  0
    7.8585    1.2272    0.0963 N   0  0  0  0  0  0  0  0  0  0  0  0
    6.5481    1.3724    0.0945 C   0  0  0  0  0  0  0  0  0  0  0  0
   -6.5559   -2.8957   -0.9924 H   0  0  0  0  0  0  0  0  0  0  0  0
   -6.5561   -2.9404    0.7834 H   0  0  0  0  0  0  0  0  0  0  0  0
   -8.0167   -2.4497   -0.0927 H   0  0  0  0  0  0  0  0  0  0  0  0
   -4.4190   -2.6825   -0.0969 H   0  0  0  0  0  0  0  0  0  0  0  0
   -2.1119   -1.9452   -0.0734 H   0  0  0  0  0  0  0  0  0  0  0  0
   -3.4179    2.1299    0.0423 H   0  0  0  0  0  0  0  0  0  0  0  0
   -1.2979    1.7062    0.0128 H   0  0  0  0  0  0  0  0  0  0  0  0
   -6.7680    3.3590    0.0634 H   0  0  0  0  0  0  0  0  0  0  0  0
   -5.2499    3.1790    0.9607 H   0  0  0  0  0  0  0  0  0  0  0  0
   -5.2345    3.2250   -0.8163 H   0  0  0  0  0  0  0  0  0  0  0  0
    0.9374    2.0495    0.0382 H   0  0  0  0  0  0  0  0  0  0  0  0
    3.7606    1.8554    0.0504 H   0  0  0  0  0  0  0  0  0  0  0  0
    4.2643   -2.3274    0.0017 H   0  0  0  0  0  0  0  0  0  0  0  0
    1.2495   -2.8660   -0.0358 H   0  0  0  0  0  0  0  0  0  0  0  0
    6.9238   -1.8700   -0.0076 H   0  0  0  0  0  0  0  0  0  0  0  0
    6.1166    2.3620    0.1249 H   0  0  0  0  0  0  0  0  0  0  0  0
    8.9962   -0.4495    0.0475 H   0  0  0  0  0  0  0  0  0  0  0  0
  1  2  1  0
  2  3  1  0
  3  4  2  0
  3  8  1  0
  4  5  1  0
  5  6  2  0
  6  7  1  0
  6 11  1  0
  7  8  2  0
  8  9  1  0
  9 10  1  0
 11 12  1  0
 12 13  2  0
 12 20  1  0
 13 14  1  0
 14 15  1  0
 14 18  2  0
 15 16  1  0
 16 17  2  0
 16 21  1  0
 17 18  1  0
 18 19  1  0
 19 20  2  0
 21 22  2  0
 21 25  1  0
 22 23  1  0
 23 24  1  0
 24 25  2  0
  1 26  1  0
  1 27  1  0
  1 28  1  0
  4 29  1  0
  5 30  1  0
  7 31  1  0
 11 32  1  0
 10 33  1  0
 10 34  1  0
 10 35  1  0
 13 36  1  0
 15 37  1  0
 17 38  1  0
 19 39  1  0
 22 40  1  0
 25 41  1  0
 23 42  1  0
M  END
