
     RDKit          3D

 36 37  0  0  0  0  0  0  0  0999 V2000
   -3.7910   -0.6426   -0.2680 N   0  0  0  0  0  0  0  0  0  0  0  0
   -5.6703    0.5394    0.7974 C   0  0  0  0  0  0  0  0  0  0  0  0
   -5.0603    1.2972    1.4977 O   0  0  0  0  0  0  0  0  0  0  0  0
   -7.4230   -0.6994    0.0217 C   0  0  0  0  0  0  0  0  0  0  0  0
   -6.9549    0.2600    0.9903 O   0  0  0  0  0  0  0  0  0  0  0  0
   -6.1665   -1.3729   -0.5092 C   0  0  0  0  0  0  0  0  0  0  0  0
    2.0650    0.7752   -0.3546 O   0  0  0  0  0  0  0  0  0  0  0  0
   -5.1548   -0.2402   -0.4061 C   0  0  2  0  0  0  0  0  0  0  0  0
   -2.9052    1.0519   -1.4661 O   0  0  0  0  0  0  0  0  0  0  0  0
   -2.7557    0.0409   -0.7990 C   0  0  0  0  0  0  0  0  0  0  0  0
   -1.3984   -0.5762   -0.5416 C   0  0  0  0  0  0  0  0  0  0  0  0
   -0.2735    0.4482   -0.5575 C   0  0  0  0  0  0  0  0  0  0  0  0
    1.0607   -0.2262   -0.3161 C   0  0  0  0  0  0  0  0  0  0  0  0
    3.3450    0.4274   -0.1368 C   0  0  0  0  0  0  0  0  0  0  0  0
    4.2824    1.4622   -0.1837 C   0  0  0  0  0  0  0  0  0  0  0  0
    5.6235    1.2064    0.0289 C   0  0  0  0  0  0  0  0  0  0  0  0
    6.0407   -0.0919    0.2915 C   0  0  0  0  0  0  0  0  0  0  0  0
    5.1252   -1.1266    0.3401 C   0  0  0  0  0  0  0  0  0  0  0  0
    3.7760   -0.8708    0.1257 C   0  0  0  0  0  0  0  0  0  0  0  0
   -3.5981   -1.4353    0.3241 H   0  0  0  0  0  0  0  0  0  0  0  0
   -8.1074   -1.3782    0.5244 H   0  0  0  0  0  0  0  0  0  0  0  0
   -7.9621   -0.1657   -0.7625 H   0  0  0  0  0  0  0  0  0  0  0  0
   -5.8739   -2.2074    0.1329 H   0  0  0  0  0  0  0  0  0  0  0  0
   -6.2939   -1.7459   -1.5228 H   0  0  0  0  0  0  0  0  0  0  0  0
   -5.2407    0.4204   -1.2749 H   0  0  0  0  0  0  0  0  0  0  0  0
   -1.4066   -1.1215    0.4058 H   0  0  0  0  0  0  0  0  0  0  0  0
   -1.2321   -1.3274   -1.3214 H   0  0  0  0  0  0  0  0  0  0  0  0
   -0.2536    0.9653   -1.5182 H   0  0  0  0  0  0  0  0  0  0  0  0
   -0.4433    1.2006    0.2162 H   0  0  0  0  0  0  0  0  0  0  0  0
    1.2498   -0.9869   -1.0831 H   0  0  0  0  0  0  0  0  0  0  0  0
    1.0631   -0.7307    0.6572 H   0  0  0  0  0  0  0  0  0  0  0  0
    3.9526    2.4727   -0.3889 H   0  0  0  0  0  0  0  0  0  0  0  0
    6.3385    2.0169   -0.0098 H   0  0  0  0  0  0  0  0  0  0  0  0
    5.4484   -2.1384    0.5444 H   0  0  0  0  0  0  0  0  0  0  0  0
    3.0842   -1.7003    0.1681 H   0  0  0  0  0  0  0  0  0  0  0  0
    7.7253   -0.4142    0.5608 Cl  0  0  0  0  0  0  0  0  0  0  0  0
  1  8  1  0
  1 10  1  0
  1 20  1  0
  2  3  2  0
  2  5  1  0
  2  8  1  0
  4  5  1  0
  4  6  1  0
  4 21  1  0
  4 22  1  0
  6  8  1  0
  6 23  1  0
  6 24  1  0
  7 13  1  0
  7 14  1  0
  8 25  1  6
  9 10  2  0
 10 11  1  0
 11 12  1  0
 11 26  1  0
 11 27  1  0
 12 13  1  0
 12 28  1  0
 12 29  1  0
 13 30  1  0
 13 31  1  0
 14 15  2  0
 14 19  1  0
 15 16  1  0
 15 32  1  0
 16 17  2  0
 16 33  1  0
 17 18  1  0
 17 36  1  0
 18 19  2  0
 18 34  1  0
 19 35  1  0
M  END
