
     RDKit          3D

119122  0  0  0  0  0  0  0  0999 V2000
    5.2124   -2.1540    0.6037 C   0  0  0  0  0  0  0  0  0  0  0  0
    4.9222   -3.2293    0.0503 O   0  0  0  0  0  0  0  0  0  0  0  0
    6.5395   -1.8206    0.7830 O   0  0  0  0  0  0  0  0  0  0  0  0
    7.4737   -2.7890    0.2603 C   0  0  0  0  0  0  0  0  0  0  0  0
    8.8473   -2.2470    0.4664 C   0  0  0  0  0  0  0  0  0  0  0  0
    9.1553   -1.4332    1.5607 C   0  0  0  0  0  0  0  0  0  0  0  0
   10.4583   -0.9710    1.7429 C   0  0  0  0  0  0  0  0  0  0  0  0
   11.4591   -1.3238    0.8382 C   0  0  0  0  0  0  0  0  0  0  0  0
   11.1546   -2.1365   -0.2545 C   0  0  0  0  0  0  0  0  0  0  0  0
    9.8523   -2.5943   -0.4449 C   0  0  0  0  0  0  0  0  0  0  0  0
    4.3577   -1.1991    1.1012 N   0  0  0  0  0  0  0  0  0  0  0  0
    2.9311   -1.3523    1.0059 C   0  0  1  0  0  0  0  0  0  0  0  0
    2.2028   -1.3375    2.3825 C   0  0  1  0  0  0  0  0  0  0  0  0
    2.6693   -0.1885    3.2613 C   0  0  0  0  0  0  0  0  0  0  0  0
    0.7066   -1.2069    2.1353 C   0  0  0  0  0  0  0  0  0  0  0  0
    2.4765   -2.6588    3.0878 C   0  0  0  0  0  0  0  0  0  0  0  0
    2.3605   -0.2216    0.1035 C   0  0  0  0  0  0  0  0  0  0  0  0
    2.5098    0.9807    0.4037 O   0  0  0  0  0  0  0  0  0  0  0  0
    1.6694   -0.6052   -1.0258 N   0  0  0  0  0  0  0  0  0  0  0  0
    1.2434    0.3357   -2.0389 C   0  0  1  0  0  0  0  0  0  0  0  0
    1.5941   -0.1361   -3.4662 C   0  0  0  0  0  0  0  0  0  0  0  0
    3.0511   -0.3582   -3.6548 C   0  0  0  0  0  0  0  0  0  0  0  0
    3.5576   -1.6535   -3.8091 C   0  0  0  0  0  0  0  0  0  0  0  0
    3.9286    0.7323   -3.7050 C   0  0  0  0  0  0  0  0  0  0  0  0
    4.9227   -1.8553   -4.0091 C   0  0  0  0  0  0  0  0  0  0  0  0
    5.2924    0.5280   -3.9037 C   0  0  0  0  0  0  0  0  0  0  0  0
    5.7917   -0.7658   -4.0563 C   0  0  0  0  0  0  0  0  0  0  0  0
   -0.2877    0.5992   -2.0158 C   0  0  1  0  0  0  0  0  0  0  0  0
   -1.0100   -0.5886   -2.2894 O   0  0  0  0  0  0  0  0  0  0  0  0
   -0.0993    2.4590   -0.3615 N   0  0  0  0  0  0  0  0  0  0  0  0
   -0.8027    1.2334   -0.6948 C   0  0  1  0  0  0  0  0  0  0  0  0
   -0.5976    3.1075    0.8390 C   0  0  0  0  0  0  0  0  0  0  0  0
    0.3032    4.1994    1.3332 C   0  0  0  0  0  0  0  0  0  0  0  0
   -0.1743    5.5138    1.4084 C   0  0  0  0  0  0  0  0  0  0  0  0
    0.6319    6.5327    1.9004 C   0  0  0  0  0  0  0  0  0  0  0  0
    1.6080    3.9145    1.7424 C   0  0  0  0  0  0  0  0  0  0  0  0
    2.4341    4.9239    2.2354 C   0  0  0  0  0  0  0  0  0  0  0  0
    1.9425    6.2317    2.3156 C   0  0  0  0  0  0  0  0  0  0  0  0
    2.6625    7.3117    2.7919 O   0  0  0  0  0  0  0  0  0  0  0  0
    4.0042    7.0468    3.1819 C   0  0  0  0  0  0  0  0  0  0  0  0
   -2.3211    1.4833   -0.8990 C   0  0  0  0  0  0  0  0  0  0  0  0
   -2.7896    2.5598   -1.3083 O   0  0  0  0  0  0  0  0  0  0  0  0
   -3.1469    0.4209   -0.5772 N   0  0  0  0  0  0  0  0  0  0  0  0
   -4.5639    0.4390   -0.8223 C   0  0  2  0  0  0  0  0  0  0  0  0
   -5.3047   -0.2619    0.3451 C   0  0  0  0  0  0  0  0  0  0  0  0
   -4.8435   -1.2868    0.8946 O   0  0  0  0  0  0  0  0  0  0  0  0
   -5.0122   -0.2605   -2.1305 C   0  0  1  0  0  0  0  0  0  0  0  0
   -4.7192    0.6308   -3.3179 C   0  0  0  0  0  0  0  0  0  0  0  0
   -4.3657   -1.6170   -2.3047 C   0  0  0  0  0  0  0  0  0  0  0  0
   -6.4913    0.2961    0.7591 N   0  0  0  0  0  0  0  0  0  0  0  0
   -7.3068   -0.2859    1.7933 C   0  0  0  0  0  0  0  0  0  0  0  0
   -8.4857   -1.0679    1.2965 C   0  0  0  0  0  0  0  0  0  0  0  0
   -8.3923   -2.4310    0.9512 C   0  0  0  0  0  0  0  0  0  0  0  0
   -9.5232   -3.1477    0.5270 C   0  0  0  0  0  0  0  0  0  0  0  0
   -9.7287   -0.4366    1.1954 C   0  0  0  0  0  0  0  0  0  0  0  0
  -10.8629   -1.1223    0.7760 C   0  0  0  0  0  0  0  0  0  0  0  0
  -10.7531   -2.4818    0.4448 C   0  0  0  0  0  0  0  0  0  0  0  0
  -11.8062   -3.2662    0.0199 O   0  0  0  0  0  0  0  0  0  0  0  0
  -13.0696   -2.6202   -0.0889 C   0  0  0  0  0  0  0  0  0  0  0  0
   -7.2365   -3.1644    1.0092 O   0  0  0  0  0  0  0  0  0  0  0  0
    7.3319   -3.7528    0.8200 H   0  0  0  0  0  0  0  0  0  0  0  0
    7.2484   -2.9562   -0.8266 H   0  0  0  0  0  0  0  0  0  0  0  0
    8.3614   -1.1539    2.2702 H   0  0  0  0  0  0  0  0  0  0  0  0
   10.6951   -0.3277    2.6030 H   0  0  0  0  0  0  0  0  0  0  0  0
   12.4871   -0.9612    0.9844 H   0  0  0  0  0  0  0  0  0  0  0  0
   11.9425   -2.4150   -0.9698 H   0  0  0  0  0  0  0  0  0  0  0  0
    9.6135   -3.2300   -1.3107 H   0  0  0  0  0  0  0  0  0  0  0  0
    4.7214   -0.3682    1.5063 H   0  0  0  0  0  0  0  0  0  0  0  0
    2.7227   -2.3639    0.5361 H   0  0  0  0  0  0  0  0  0  0  0  0
    2.6670    0.7706    2.6863 H   0  0  0  0  0  0  0  0  0  0  0  0
    1.9823   -0.0814    4.1359 H   0  0  0  0  0  0  0  0  0  0  0  0
    3.6982   -0.3760    3.6520 H   0  0  0  0  0  0  0  0  0  0  0  0
    0.3671   -1.9400    1.3650 H   0  0  0  0  0  0  0  0  0  0  0  0
    0.1472   -1.4037    3.0818 H   0  0  0  0  0  0  0  0  0  0  0  0
    0.4596   -0.1728    1.7897 H   0  0  0  0  0  0  0  0  0  0  0  0
    3.5723   -2.8114    3.2336 H   0  0  0  0  0  0  0  0  0  0  0  0
    1.9835   -2.6600    4.0900 H   0  0  0  0  0  0  0  0  0  0  0  0
    2.0728   -3.5126    2.4922 H   0  0  0  0  0  0  0  0  0  0  0  0
    1.6990   -1.5608   -1.2984 H   0  0  0  0  0  0  0  0  0  0  0  0
    1.7804    1.3175   -1.8654 H   0  0  0  0  0  0  0  0  0  0  0  0
    1.0145   -1.0691   -3.7006 H   0  0  0  0  0  0  0  0  0  0  0  0
    1.2447    0.6604   -4.1777 H   0  0  0  0  0  0  0  0  0  0  0  0
    2.8767   -2.5172   -3.7769 H   0  0  0  0  0  0  0  0  0  0  0  0
    3.5364    1.7538   -3.5862 H   0  0  0  0  0  0  0  0  0  0  0  0
    5.3124   -2.8771   -4.1273 H   0  0  0  0  0  0  0  0  0  0  0  0
    5.9756    1.3895   -3.9403 H   0  0  0  0  0  0  0  0  0  0  0  0
    6.8682   -0.9254   -4.2139 H   0  0  0  0  0  0  0  0  0  0  0  0
   -0.5412    1.2835   -2.8769 H   0  0  0  0  0  0  0  0  0  0  0  0
   -0.8377   -1.2165   -1.5770 H   0  0  0  0  0  0  0  0  0  0  0  0
    0.8878    2.2781   -0.2849 H   0  0  0  0  0  0  0  0  0  0  0  0
   -0.6805    0.4581    0.1280 H   0  0  0  0  0  0  0  0  0  0  0  0
   -1.6127    3.5332    0.5865 H   0  0  0  0  0  0  0  0  0  0  0  0
   -0.7400    2.3680    1.6862 H   0  0  0  0  0  0  0  0  0  0  0  0
   -1.1963    5.7452    1.0701 H   0  0  0  0  0  0  0  0  0  0  0  0
    0.2676    7.5671    1.9660 H   0  0  0  0  0  0  0  0  0  0  0  0
    1.9973    2.8843    1.6716 H   0  0  0  0  0  0  0  0  0  0  0  0
    3.4582    4.6822    2.5497 H   0  0  0  0  0  0  0  0  0  0  0  0
    4.0319    6.3225    4.0320 H   0  0  0  0  0  0  0  0  0  0  0  0
    4.5984    6.6591    2.3192 H   0  0  0  0  0  0  0  0  0  0  0  0
    4.3848    8.0488    3.5051 H   0  0  0  0  0  0  0  0  0  0  0  0
   -2.7507   -0.4706   -0.3853 H   0  0  0  0  0  0  0  0  0  0  0  0
   -4.8800    1.5260   -0.8869 H   0  0  0  0  0  0  0  0  0  0  0  0
   -6.1282   -0.4016   -2.0560 H   0  0  0  0  0  0  0  0  0  0  0  0
   -3.6325    0.8897   -3.3567 H   0  0  0  0  0  0  0  0  0  0  0  0
   -4.9959    0.1081   -4.2649 H   0  0  0  0  0  0  0  0  0  0  0  0
   -5.3021    1.5809   -3.2498 H   0  0  0  0  0  0  0  0  0  0  0  0
   -4.4515   -2.2129   -1.3625 H   0  0  0  0  0  0  0  0  0  0  0  0
   -4.8716   -2.1756   -3.1288 H   0  0  0  0  0  0  0  0  0  0  0  0
   -3.2835   -1.5117   -2.5680 H   0  0  0  0  0  0  0  0  0  0  0  0
   -6.8818    1.0442    0.2376 H   0  0  0  0  0  0  0  0  0  0  0  0
   -6.6549   -0.9449    2.4394 H   0  0  0  0  0  0  0  0  0  0  0  0
   -7.6813    0.5596    2.4431 H   0  0  0  0  0  0  0  0  0  0  0  0
   -9.4402   -4.2115    0.2662 H   0  0  0  0  0  0  0  0  0  0  0  0
   -9.8143    0.6291    1.4614 H   0  0  0  0  0  0  0  0  0  0  0  0
  -11.8256   -0.5989    0.7106 H   0  0  0  0  0  0  0  0  0  0  0  0
  -13.4034   -2.2360    0.9054 H   0  0  0  0  0  0  0  0  0  0  0  0
  -13.0259   -1.7907   -0.8356 H   0  0  0  0  0  0  0  0  0  0  0  0
  -13.7475   -3.4372   -0.4448 H   0  0  0  0  0  0  0  0  0  0  0  0
   -6.4875   -2.5775    1.2101 H   0  0  0  0  0  0  0  0  0  0  0  0
  1  2  2  0
  1  3  1  0
  3  4  1  0
  4  5  1  0
  4 61  1  0
  4 62  1  0
  5  6  2  0
  5 10  1  0
  6  7  1  0
  6 63  1  0
  7  8  2  0
  7 64  1  0
  8  9  1  0
  8 65  1  0
  9 10  2  0
  9 66  1  0
 10 67  1  0
 11 12  1  0
 11 68  1  0
 12 13  1  0
 12 17  1  0
 12 69  1  6
 13 14  1  1
 13 15  1  0
 13 16  1  0
 14 70  1  0
 14 71  1  0
 14 72  1  0
 15 73  1  0
 15 74  1  0
 15 75  1  0
 16 76  1  0
 16 77  1  0
 16 78  1  0
 17 18  2  0
 19 20  1  0
 19 79  1  0
 20 21  1  0
 20 28  1  0
 20 80  1  1
 21 22  1  0
 21 81  1  0
 21 82  1  0
 22 23  2  0
 22 24  1  0
 23 25  1  0
 23 83  1  0
 24 26  2  0
 24 84  1  0
 25 27  2  0
 25 85  1  0
 26 27  1  0
 26 86  1  0
 27 87  1  0
 28 29  1  0
 28 31  1  0
 28 88  1  6
 29 89  1  0
 30 31  1  0
 30 32  1  0
 30 90  1  0
 31 41  1  0
 31 91  1  1
 32 33  1  0
 32 92  1  0
 32 93  1  0
 33 34  2  0
 33 36  1  0
 34 35  1  0
 34 94  1  0
 35 38  2  0
 35 95  1  0
 36 37  2  0
 36 96  1  0
 37 38  1  0
 37 97  1  0
 38 39  1  0
 39 40  1  0
 40 98  1  0
 40 99  1  0
 40100  1  0
 41 42  2  0
 43 44  1  0
 43101  1  0
 44 45  1  0
 44 47  1  0
 44102  1  6
 45 46  2  0
 47 48  1  0
 47 49  1  0
 47103  1  1
 48104  1  0
 48105  1  0
 48106  1  0
 49107  1  0
 49108  1  0
 49109  1  0
 50 51  1  0
 50110  1  0
 51 52  1  0
 51111  1  0
 51112  1  0
 52 53  2  0
 52 55  1  0
 53 54  1  0
 53 60  1  0
 54 57  2  0
 54113  1  0
 55 56  2  0
 55114  1  0
 56 57  1  0
 56115  1  0
 57 58  1  0
 58 59  1  0
 59116  1  0
 59117  1  0
 59118  1  0
 60119  1  0
  1 11  1  0
 17 19  1  0
 41 43  1  0
 45 50  1  0
M  END
