
     RDKit          3D

 60 64  0  0  0  0  0  0  0  0999 V2000
    3.5958    3.2908    1.1144 C   0  0  0  0  0  0  0  0  0  0  0  0
    0.3212    1.7558    0.2201 C   0  0  0  0  0  0  0  0  0  0  0  0
    0.0565    0.3731    0.2048 C   0  0  0  0  0  0  0  0  0  0  0  0
    1.6796    2.1514    0.1727 N   0  0  0  0  0  0  0  0  0  0  0  0
    1.3050   -1.7688   -0.0048 C   0  0  0  0  0  0  0  0  0  0  0  0
    2.7026   -2.2933    0.0851 C   0  0  0  0  0  0  0  0  0  0  0  0
    1.1895   -0.4366    0.1952 N   0  0  0  0  0  0  0  0  0  0  0  0
    3.6986   -1.6699    0.8374 C   0  0  0  0  0  0  0  0  0  0  0  0
    4.9703   -2.2168    0.8819 C   0  0  0  0  0  0  0  0  0  0  0  0
    5.2591   -3.3774    0.1770 C   0  0  0  0  0  0  0  0  0  0  0  0
    4.2778   -4.0188   -0.5739 C   0  0  0  0  0  0  0  0  0  0  0  0
   -7.6430   -0.9145    0.2177 N   0  0  0  0  0  0  0  0  0  0  0  0
    4.5750   -5.2806   -1.3301 C   0  0  0  0  0  0  0  0  0  0  0  0
    3.0007   -3.4659   -0.6017 C   0  0  0  0  0  0  0  0  0  0  0  0
   -1.2565   -0.0841    0.2235 C   0  0  0  0  0  0  0  0  0  0  0  0
    0.3652   -2.5033   -0.2628 O   0  0  0  0  0  0  0  0  0  0  0  0
   -2.3224    0.8166    0.2788 C   0  0  0  0  0  0  0  0  0  0  0  0
   -2.0505    2.1828    0.3167 C   0  0  0  0  0  0  0  0  0  0  0  0
   -0.7422    2.6416    0.2799 C   0  0  0  0  0  0  0  0  0  0  0  0
    2.1775    2.4105   -1.1745 C   0  0  0  0  0  0  0  0  0  0  0  0
    3.6890    2.5210   -1.1407 C   0  0  0  0  0  0  0  0  0  0  0  0
    2.0818    3.2006    1.0941 C   0  0  0  0  0  0  0  0  0  0  0  0
    4.1102    3.5513   -0.2145 N   0  0  0  0  0  0  0  0  0  0  0  0
    5.5459    3.7111   -0.2113 C   0  0  0  0  0  0  0  0  0  0  0  0
   -3.7144    0.3194    0.2973 C   0  0  0  0  0  0  0  0  0  0  0  0
   -4.0370   -0.8574    1.0084 C   0  0  0  0  0  0  0  0  0  0  0  0
   -5.3209   -1.3591    1.0501 C   0  0  0  0  0  0  0  0  0  0  0  0
   -6.3108   -0.6630    0.3591 C   0  0  0  0  0  0  0  0  0  0  0  0
   -8.2078    0.0562   -0.5601 C   0  0  0  0  0  0  0  0  0  0  0  0
   -7.2551    0.9566   -0.9405 C   0  0  0  0  0  0  0  0  0  0  0  0
   -6.0239    0.5185   -0.3603 C   0  0  0  0  0  0  0  0  0  0  0  0
   -4.7126    1.0016   -0.3829 C   0  0  0  0  0  0  0  0  0  0  0  0
    3.8961    4.1036    1.7797 H   0  0  0  0  0  0  0  0  0  0  0  0
    4.0058    2.3559    1.5374 H   0  0  0  0  0  0  0  0  0  0  0  0
    2.0294    0.1218    0.3126 H   0  0  0  0  0  0  0  0  0  0  0  0
    3.4964   -0.7804    1.4211 H   0  0  0  0  0  0  0  0  0  0  0  0
    5.7390   -1.7380    1.4737 H   0  0  0  0  0  0  0  0  0  0  0  0
    6.2599   -3.7903    0.2147 H   0  0  0  0  0  0  0  0  0  0  0  0
   -8.1412   -1.6878    0.6254 H   0  0  0  0  0  0  0  0  0  0  0  0
    4.0299   -6.1275   -0.9100 H   0  0  0  0  0  0  0  0  0  0  0  0
    4.2790   -5.1950   -2.3760 H   0  0  0  0  0  0  0  0  0  0  0  0
    5.6363   -5.5225   -1.3013 H   0  0  0  0  0  0  0  0  0  0  0  0
    2.2256   -3.9526   -1.1813 H   0  0  0  0  0  0  0  0  0  0  0  0
   -1.4546   -1.1436    0.1856 H   0  0  0  0  0  0  0  0  0  0  0  0
   -2.8601    2.8975    0.3868 H   0  0  0  0  0  0  0  0  0  0  0  0
   -0.5536    3.7077    0.3052 H   0  0  0  0  0  0  0  0  0  0  0  0
    1.8911    1.5876   -1.8322 H   0  0  0  0  0  0  0  0  0  0  0  0
    1.7413    3.3310   -1.5900 H   0  0  0  0  0  0  0  0  0  0  0  0
    4.1126    1.5341   -0.8766 H   0  0  0  0  0  0  0  0  0  0  0  0
    4.0535    2.7673   -2.1408 H   0  0  0  0  0  0  0  0  0  0  0  0
    1.7166    2.9583    2.0929 H   0  0  0  0  0  0  0  0  0  0  0  0
    1.6678    4.1803    0.8143 H   0  0  0  0  0  0  0  0  0  0  0  0
    6.0828    2.8073    0.1175 H   0  0  0  0  0  0  0  0  0  0  0  0
    5.8962    3.9591   -1.2142 H   0  0  0  0  0  0  0  0  0  0  0  0
    5.8301    4.5270    0.4551 H   0  0  0  0  0  0  0  0  0  0  0  0
   -3.2602   -1.3723    1.5595 H   0  0  0  0  0  0  0  0  0  0  0  0
   -5.5463   -2.2587    1.6085 H   0  0  0  0  0  0  0  0  0  0  0  0
   -9.2616    0.0298   -0.7860 H   0  0  0  0  0  0  0  0  0  0  0  0
   -7.4131    1.8280   -1.5557 H   0  0  0  0  0  0  0  0  0  0  0  0
   -4.4767    1.8955   -0.9480 H   0  0  0  0  0  0  0  0  0  0  0  0
 24 23  1  0
 23  1  1  0
 23 21  1  0
  1 22  1  0
 21 20  1  0
 22  4  1  0
 13 11  1  0
 20  4  1  0
  4  2  1  0
 10 11  2  0
 10  9  1  0
 11 14  1  0
  9  8  2  0
 14  6  2  0
  8  6  1  0
  6  5  1  0
  2 19  2  0
  2  3  1  0
  7  5  1  0
  7  3  1  0
  5 16  2  0
 19 18  1  0
  3 15  2  0
 18 17  2  0
 15 17  1  0
 17 25  1  0
 25 26  2  0
 25 32  1  0
 26 27  1  0
 32 31  2  0
 27 28  2  0
 31 28  1  0
 31 30  1  0
 28 12  1  0
 30 29  2  0
 12 29  1  0
  1 33  1  0
  1 34  1  0
  7 35  1  0
  8 36  1  0
  9 37  1  0
 10 38  1  0
 12 39  1  0
 13 40  1  0
 13 41  1  0
 13 42  1  0
 14 43  1  0
 15 44  1  0
 18 45  1  0
 19 46  1  0
 20 47  1  0
 20 48  1  0
 21 49  1  0
 21 50  1  0
 22 51  1  0
 22 52  1  0
 24 53  1  0
 24 54  1  0
 24 55  1  0
 26 56  1  0
 27 57  1  0
 29 58  1  0
 30 59  1  0
 32 60  1  0
M  END
