
     RDKit          3D

 34 35  0  0  0  0  0  0  0  0999 V2000
    4.4759   -1.7034    1.4139 C   0  0  0  0  0  0  0  0  0  0  0  0
    1.0082    0.7214   -0.5898 C   0  0  0  0  0  0  0  0  0  0  0  0
   -3.8006    0.0059   -2.0982 O   0  0  0  0  0  0  0  0  0  0  0  0
   -2.9329   -0.6787    2.3120 O   0  0  0  0  0  0  0  0  0  0  0  0
    0.4398   -0.3277   -1.2984 C   0  0  0  0  0  0  0  0  0  0  0  0
    4.4384   -3.2228    1.4853 C   0  0  0  0  0  0  0  0  0  0  0  0
   -2.9908   -0.2458    0.0469 N   0  0  0  0  0  0  0  0  0  0  0  0
   -5.2363   -0.6536   -0.2582 C   0  0  0  0  0  0  0  0  0  0  0  0
   -0.8887   -0.6541   -1.0783 C   0  0  0  0  0  0  0  0  0  0  0  0
   -1.6371    0.0802   -0.1682 C   0  0  0  0  0  0  0  0  0  0  0  0
    3.5436    0.2907    0.3624 N   0  0  0  0  0  0  0  0  0  0  0  0
    3.4831   -1.1705    0.3933 C   0  0  0  0  0  0  0  0  0  0  0  0
    3.1412    0.5482   -2.0877 O   0  0  0  0  0  0  0  0  0  0  0  0
   -3.5377   -0.5968    1.2779 C   0  0  0  0  0  0  0  0  0  0  0  0
   -1.0651    1.1376    0.5298 C   0  0  0  0  0  0  0  0  0  0  0  0
    0.2657    1.4559    0.3258 C   0  0  0  0  0  0  0  0  0  0  0  0
   -3.9725   -0.2596   -0.9401 C   0  0  0  0  0  0  0  0  0  0  0  0
   -4.9836   -0.8484    1.0298 C   0  0  0  0  0  0  0  0  0  0  0  0
    2.9152    2.5172   -0.5349 O   0  0  0  0  0  0  0  0  0  0  0  0
    2.7281    1.1028   -0.8098 S   0  0  1  0  0  0  0  0  0  0  0  0
    4.2457   -1.2842    2.3974 H   0  0  0  0  0  0  0  0  0  0  0  0
    5.4793   -1.3622    1.1507 H   0  0  0  0  0  0  0  0  0  0  0  0
    1.0163   -0.8959   -2.0150 H   0  0  0  0  0  0  0  0  0  0  0  0
    4.6914   -3.6726    0.5239 H   0  0  0  0  0  0  0  0  0  0  0  0
    5.1497   -3.5947    2.2222 H   0  0  0  0  0  0  0  0  0  0  0  0
    3.4487   -3.5832    1.7701 H   0  0  0  0  0  0  0  0  0  0  0  0
   -6.1749   -0.7447   -0.7831 H   0  0  0  0  0  0  0  0  0  0  0  0
   -1.3315   -1.4844   -1.6110 H   0  0  0  0  0  0  0  0  0  0  0  0
    3.4064    0.7208    1.2721 H   0  0  0  0  0  0  0  0  0  0  0  0
    3.7364   -1.5481   -0.5975 H   0  0  0  0  0  0  0  0  0  0  0  0
    2.4746   -1.5253    0.6365 H   0  0  0  0  0  0  0  0  0  0  0  0
   -1.6580    1.7232    1.2186 H   0  0  0  0  0  0  0  0  0  0  0  0
    0.7044    2.2821    0.8686 H   0  0  0  0  0  0  0  0  0  0  0  0
   -5.6640   -1.1425    1.8142 H   0  0  0  0  0  0  0  0  0  0  0  0
 13 20  2  0
 19 20  2  0
 20  2  1  0
 20 11  1  1
  5  2  2  0
  5  9  1  0
  2 16  1  0
 11 12  1  0
 12  1  1  0
  9 10  2  0
  3 17  2  0
  6  1  1  0
 16 15  2  0
 10 15  1  0
 10  7  1  0
 17  7  1  0
 17  8  1  0
  7 14  1  0
  8 18  2  0
 14 18  1  0
 14  4  2  0
  1 21  1  0
  1 22  1  0
  5 23  1  0
  6 24  1  0
  6 25  1  0
  6 26  1  0
  8 27  1  0
  9 28  1  0
 11 29  1  0
 12 30  1  0
 12 31  1  0
 15 32  1  0
 16 33  1  0
 18 34  1  0
M  END
