
     RDKit          3D

 28 30  0  0  0  0  0  0  0  0999 V2000
   -0.4265    1.3730    0.2487 C   0  0  0  0  0  0  0  0  0  0  0  0
   -2.0144   -0.8858   -0.1874 C   0  0  0  0  0  0  0  0  0  0  0  0
   -0.6090   -0.9974   -0.1985 C   0  0  0  0  0  0  0  0  0  0  0  0
    1.6494    0.0057    0.0083 C   0  0  0  0  0  0  0  0  0  0  0  0
    2.2882   -1.1220    0.5264 C   0  0  0  0  0  0  0  0  0  0  0  0
    3.8227    0.9298   -0.5431 C   0  0  0  0  0  0  0  0  0  0  0  0
   -4.7295   -0.4616   -0.1325 C   0  0  0  0  0  0  0  0  0  0  0  0
    4.4145   -0.2048   -0.0232 C   0  0  0  0  0  0  0  0  0  0  0  0
    2.4400    1.0266   -0.5216 C   0  0  0  0  0  0  0  0  0  0  0  0
    3.6694   -1.2363    0.5147 C   0  0  0  0  0  0  0  0  0  0  0  0
    0.1764    0.1121    0.0173 C   0  0  0  0  0  0  0  0  0  0  0  0
   -1.7898    1.5078    0.2607 C   0  0  0  0  0  0  0  0  0  0  0  0
   -2.3684    2.6925    0.4847 O   0  0  0  0  0  0  0  0  0  0  0  0
   -2.8917   -1.9723   -0.4053 C   0  0  0  0  0  0  0  0  0  0  0  0
   -4.2423   -1.7621   -0.3776 C   0  0  0  0  0  0  0  0  0  0  0  0
   -3.9480    0.5664    0.0695 N   0  0  0  0  0  0  0  0  0  0  0  0
   -2.6148    0.3695    0.0424 C   0  0  0  0  0  0  0  0  0  0  0  0
    0.1921    2.2413    0.4393 H   0  0  0  0  0  0  0  0  0  0  0  0
   -0.1626   -1.9627   -0.4037 H   0  0  0  0  0  0  0  0  0  0  0  0
    1.7046   -1.9203    0.9660 H   0  0  0  0  0  0  0  0  0  0  0  0
    4.4258    1.7230   -0.9649 H   0  0  0  0  0  0  0  0  0  0  0  0
   -5.7983   -0.2815   -0.1073 H   0  0  0  0  0  0  0  0  0  0  0  0
    1.9764    1.9075   -0.9461 H   0  0  0  0  0  0  0  0  0  0  0  0
    4.1555   -2.1102    0.9278 H   0  0  0  0  0  0  0  0  0  0  0  0
   -3.3300    2.5575    0.4540 H   0  0  0  0  0  0  0  0  0  0  0  0
   -2.4871   -2.9593   -0.5923 H   0  0  0  0  0  0  0  0  0  0  0  0
   -4.9400   -2.5717   -0.5397 H   0  0  0  0  0  0  0  0  0  0  0  0
    5.7524   -0.3078   -0.0391 F   0  0  0  0  0  0  0  0  0  0  0  0
  7 16  1  0
  7 15  2  0
 16 17  2  0
 15 14  1  0
 13 12  1  0
 17 12  1  0
 17  2  1  0
 14  2  2  0
 12  1  2  0
  2  3  1  0
  1 11  1  0
  3 11  2  0
 11  4  1  0
  5  4  2  0
  5 10  1  0
  4  9  1  0
 10  8  2  0
  9  6  2  0
  8  6  1  0
  8 28  1  0
  1 18  1  0
  3 19  1  0
  5 20  1  0
  6 21  1  0
  7 22  1  0
  9 23  1  0
 10 24  1  0
 13 25  1  0
 14 26  1  0
 15 27  1  0
M  END
