
     RDKit          3D

 22 21  0  0  0  0  0  0  0  0999 V2000
   -0.7007   -0.8120   -2.2399 C   0  0  0  0  0  0  0  0  0  0  0  0
   -0.0689   -0.0421   -1.0835 C   0  0  1  0  0  0  0  0  0  0  0  0
    1.3415   -0.2999   -1.0459 O   0  0  0  0  0  0  0  0  0  0  0  0
   -0.2092    1.4557   -1.3215 C   0  0  0  0  0  0  0  0  0  0  0  0
   -0.7255   -0.4776    0.2368 C   0  0  0  0  0  0  0  0  0  0  0  0
   -0.2197    0.2112    1.5033 C   0  0  2  0  0  0  0  0  0  0  0  0
    1.1570   -0.0295    1.7317 O   0  0  0  0  0  0  0  0  0  0  0  0
   -0.9879   -0.2670    2.7223 C   0  0  0  0  0  0  0  0  0  0  0  0
   -0.2422   -0.5342   -3.1904 H   0  0  0  0  0  0  0  0  0  0  0  0
   -0.5862   -1.8909   -2.1080 H   0  0  0  0  0  0  0  0  0  0  0  0
   -1.7689   -0.6026   -2.3082 H   0  0  0  0  0  0  0  0  0  0  0  0
    1.4754   -1.2548   -1.0657 H   0  0  0  0  0  0  0  0  0  0  0  0
   -1.2588    1.7491   -1.2960 H   0  0  0  0  0  0  0  0  0  0  0  0
    0.3189    2.0446   -0.5704 H   0  0  0  0  0  0  0  0  0  0  0  0
    0.1908    1.7277   -2.2993 H   0  0  0  0  0  0  0  0  0  0  0  0
   -0.6073   -1.5631    0.3478 H   0  0  0  0  0  0  0  0  0  0  0  0
   -1.8017   -0.2985    0.1574 H   0  0  0  0  0  0  0  0  0  0  0  0
   -0.4005    1.2920    1.4005 H   0  0  0  0  0  0  0  0  0  0  0  0
    1.5920   -0.0027    0.8683 H   0  0  0  0  0  0  0  0  0  0  0  0
   -0.6199    0.2106    3.6316 H   0  0  0  0  0  0  0  0  0  0  0  0
   -2.0464   -0.0247    2.6252 H   0  0  0  0  0  0  0  0  0  0  0  0
   -0.8993   -1.3487    2.8443 H   0  0  0  0  0  0  0  0  0  0  0  0
  1  2  1  0
  1  9  1  0
  1 10  1  0
  1 11  1  0
  2  3  1  1
  2  4  1  0
  2  5  1  0
  3 12  1  0
  4 13  1  0
  4 14  1  0
  4 15  1  0
  5  6  1  0
  5 16  1  0
  5 17  1  0
  6  7  1  0
  6  8  1  0
  6 18  1  6
  7 19  1  0
  8 20  1  0
  8 21  1  0
  8 22  1  0
M  END
