
     RDKit          3D

 19 18  0  0  0  0  0  0  0  0999 V2000
   -1.3968    0.1279    0.0428 C   0  0  0  0  0  0  0  0  0  0  0  0
   -0.0340    0.7581    0.1460 C   0  0  2  0  0  0  0  0  0  0  0  0
    1.0780   -0.2236   -0.2593 C   0  0  1  0  0  0  0  0  0  0  0  0
    2.3984    0.5139   -0.4167 C   0  0  0  0  0  0  0  0  0  0  0  0
   -2.1162    0.4079   -0.9673 N   0  0  0  0  0  0  0  0  0  0  0  0
   -1.7280   -0.6850    1.0428 O   0  0  0  0  0  0  0  0  0  0  0  0
    0.1750    1.3290    1.4134 O   0  0  0  0  0  0  0  0  0  0  0  0
    1.1705   -1.3169    0.6216 O   0  0  0  0  0  0  0  0  0  0  0  0
    3.3674   -0.3909   -0.8882 O   0  0  0  0  0  0  0  0  0  0  0  0
   -3.3127   -0.2868   -0.9381 O   0  0  0  0  0  0  0  0  0  0  0  0
   -0.0213    1.5790   -0.5754 H   0  0  0  0  0  0  0  0  0  0  0  0
    0.7990   -0.6365   -1.2353 H   0  0  0  0  0  0  0  0  0  0  0  0
    2.6913    0.9523    0.5469 H   0  0  0  0  0  0  0  0  0  0  0  0
    2.2474    1.3490   -1.1133 H   0  0  0  0  0  0  0  0  0  0  0  0
   -2.6349   -1.0039    0.9308 H   0  0  0  0  0  0  0  0  0  0  0  0
    0.1071    0.6437    2.0874 H   0  0  0  0  0  0  0  0  0  0  0  0
    1.7036   -1.0698    1.3843 H   0  0  0  0  0  0  0  0  0  0  0  0
    4.2173    0.0584   -0.8893 H   0  0  0  0  0  0  0  0  0  0  0  0
   -3.8171    0.0802   -1.6701 H   0  0  0  0  0  0  0  0  0  0  0  0
  1  2  1  0
  1  5  2  0
  1  6  1  0
  2  3  1  0
  2  7  1  0
  2 11  1  6
  3  4  1  0
  3  8  1  0
  3 12  1  6
  4  9  1  0
  4 13  1  0
  4 14  1  0
  5 10  1  0
  6 15  1  0
  7 16  1  0
  8 17  1  0
  9 18  1  0
 10 19  1  0
M  END
