
     RDKit          3D

 60 64  0  0  0  0  0  0  0  0999 V2000
    0.2846   -0.6939    0.5524 C   0  0  0  0  0  0  0  0  0  0  0  0
   -1.3772   -2.5291    0.0440 C   0  0  0  0  0  0  0  0  0  0  0  0
   -3.7165   -2.1290    0.1742 C   0  0  0  0  0  0  0  0  0  0  0  0
   -3.4774   -0.7737    0.5194 C   0  0  0  0  0  0  0  0  0  0  0  0
   -4.7528   -0.2211    0.6635 C   0  0  0  0  0  0  0  0  0  0  0  0
   -5.0987    1.1559    1.0755 C   0  0  0  0  0  0  0  0  0  0  0  0
   -7.1492    1.1926   -0.3811 C   0  0  0  0  0  0  0  0  0  0  0  0
   -6.6194    3.0422    1.0949 C   0  0  0  0  0  0  0  0  0  0  0  0
    2.4040   -0.2083   -0.4229 C   0  0  0  0  0  0  0  0  0  0  0  0
    3.3539   -1.2024   -0.2612 C   0  0  0  0  0  0  0  0  0  0  0  0
    4.1645    1.4356   -0.3957 C   0  0  0  0  0  0  0  0  0  0  0  0
    8.2800    2.3685    0.2754 C   0  0  0  0  0  0  0  0  0  0  0  0
    8.8473    0.2513   -0.4577 C   0  0  0  0  0  0  0  0  0  0  0  0
    7.4672   -0.2904   -0.1311 C   0  0  0  0  0  0  0  0  0  0  0  0
    1.0275   -0.5394   -0.5629 N   0  0  0  0  0  0  0  0  0  0  0  0
    0.7157   -0.4525    1.6693 O   0  0  0  0  0  0  0  0  0  0  0  0
   -1.1297   -1.1586    0.3752 C   0  0  0  0  0  0  0  0  0  0  0  0
   -2.1571   -0.2956    0.6323 C   0  0  0  0  0  0  0  0  0  0  0  0
   -2.6487   -3.0213   -0.0647 C   0  0  0  0  0  0  0  0  0  0  0  0
   -5.5978   -1.2332    0.4170 N   0  0  0  0  0  0  0  0  0  0  0  0
   -5.0263   -2.3888    0.1291 N   0  0  0  0  0  0  0  0  0  0  0  0
   -6.2560    1.6910    0.6658 N   0  0  0  0  0  0  0  0  0  0  0  0
   -7.8550    2.4542   -0.8622 C   0  0  0  0  0  0  0  0  0  0  0  0
   -7.9580    3.2873    0.4100 C   0  0  0  0  0  0  0  0  0  0  0  0
   -4.3037    1.7662    1.7839 O   0  0  0  0  0  0  0  0  0  0  0  0
    5.1413    0.4396   -0.2324 C   0  0  0  0  0  0  0  0  0  0  0  0
    4.7016   -0.8883   -0.1583 C   0  0  0  0  0  0  0  0  0  0  0  0
    2.8234    1.1144   -0.4862 C   0  0  0  0  0  0  0  0  0  0  0  0
    6.4897    0.7787   -0.1880 N   0  0  0  0  0  0  0  0  0  0  0  0
    6.8810    1.9131    0.6389 C   0  0  0  0  0  0  0  0  0  0  0  0
    9.2125    1.3178    0.3862 O   0  0  0  0  0  0  0  0  0  0  0  0
   -6.5949    0.6962   -1.1771 H   0  0  0  0  0  0  0  0  0  0  0  0
   -7.8800    0.4877    0.0281 H   0  0  0  0  0  0  0  0  0  0  0  0
   -6.6806    3.1032    2.1818 H   0  0  0  0  0  0  0  0  0  0  0  0
   -5.8645    3.7595    0.7626 H   0  0  0  0  0  0  0  0  0  0  0  0
    3.0427   -2.2385   -0.2037 H   0  0  0  0  0  0  0  0  0  0  0  0
    4.4503    2.4759   -0.4770 H   0  0  0  0  0  0  0  0  0  0  0  0
    0.9057    0.0430   -2.5592 H   0  0  0  0  0  0  0  0  0  0  0  0
    0.9157   -1.7094   -2.3170 H   0  0  0  0  0  0  0  0  0  0  0  0
   -0.5341   -0.7617   -1.9522 H   0  0  0  0  0  0  0  0  0  0  0  0
    8.2759    2.7724   -0.7470 H   0  0  0  0  0  0  0  0  0  0  0  0
    8.5954    3.1642    0.9516 H   0  0  0  0  0  0  0  0  0  0  0  0
    9.5880   -0.5393   -0.3320 H   0  0  0  0  0  0  0  0  0  0  0  0
    8.8672    0.5706   -1.5092 H   0  0  0  0  0  0  0  0  0  0  0  0
    7.2306   -1.0520   -0.8758 H   0  0  0  0  0  0  0  0  0  0  0  0
    7.4799   -0.7826    0.8535 H   0  0  0  0  0  0  0  0  0  0  0  0
   -1.9584    0.7329    0.9017 H   0  0  0  0  0  0  0  0  0  0  0  0
   -2.8364   -4.0592   -0.3123 H   0  0  0  0  0  0  0  0  0  0  0  0
   -0.5082   -4.1825   -0.3659 H   0  0  0  0  0  0  0  0  0  0  0  0
   -6.6050   -1.2050    0.4837 H   0  0  0  0  0  0  0  0  0  0  0  0
   -7.2393    2.9650   -1.6052 H   0  0  0  0  0  0  0  0  0  0  0  0
   -8.8194    2.2320   -1.3164 H   0  0  0  0  0  0  0  0  0  0  0  0
   -8.7768    2.9221    1.0335 H   0  0  0  0  0  0  0  0  0  0  0  0
   -8.1308    4.3456    0.2200 H   0  0  0  0  0  0  0  0  0  0  0  0
    5.4011   -1.6986   -0.0110 H   0  0  0  0  0  0  0  0  0  0  0  0
    2.0940    1.9039   -0.6192 H   0  0  0  0  0  0  0  0  0  0  0  0
    6.8399    1.6474    1.7053 H   0  0  0  0  0  0  0  0  0  0  0  0
    6.2037    2.7511    0.4887 H   0  0  0  0  0  0  0  0  0  0  0  0
   -0.2721   -3.2752   -0.1398 O   0  0  0  0  0  0  0  0  0  0  0  0
    0.5523   -0.7621   -1.9162 C   0  0  0  0  0  0  0  0  0  0  0  0
 60 15  1  0
 16  1  2  0
 15  1  1  0
 15  9  1  0
  1 17  1  0
 10  9  2  0
 10 27  1  0
  9 28  1  0
 17 18  2  0
 17  2  1  0
 59  2  1  0
 27 26  2  0
 24 23  1  0
 24  8  1  0
 18  4  1  0
  2 19  2  0
 28 11  2  0
 23  7  1  0
  8 22  1  0
 26 11  1  0
 26 29  1  0
  7 22  1  0
 22  6  1  0
  4  3  1  0
  4  5  2  0
 19  3  1  0
 30 29  1  0
 30 12  1  0
 29 14  1  0
  3 21  2  0
  6  5  1  0
  6 25  2  0
  5 20  1  0
 12 31  1  0
 14 13  1  0
 21 20  1  0
 31 13  1  0
  7 32  1  0
  7 33  1  0
  8 34  1  0
  8 35  1  0
 10 36  1  0
 11 37  1  0
 60 38  1  0
 60 39  1  0
 60 40  1  0
 12 41  1  0
 12 42  1  0
 13 43  1  0
 13 44  1  0
 14 45  1  0
 14 46  1  0
 18 47  1  0
 19 48  1  0
 59 49  1  0
 20 50  1  0
 23 51  1  0
 23 52  1  0
 24 53  1  0
 24 54  1  0
 27 55  1  0
 28 56  1  0
 30 57  1  0
 30 58  1  0
M  END
