
     RDKit          3D

 40 41  0  0  0  0  0  0  0  0999 V2000
    3.1049   -1.9913    0.0909 O   0  0  0  0  0  0  0  0  0  0  0  0
    3.3712   -0.8148    0.0807 C   0  0  0  0  0  0  0  0  0  0  0  0
    4.6959   -0.3864    0.0411 N   0  0  0  0  0  0  0  0  0  0  0  0
    5.8414   -1.1515   -0.0230 C   0  0  0  0  0  0  0  0  0  0  0  0
    5.8993   -2.6349   -0.0677 C   0  0  0  0  0  0  0  0  0  0  0  0
    6.8687   -0.2572   -0.0455 C   0  0  0  0  0  0  0  0  0  0  0  0
    6.2728    1.0313    0.0071 C   0  0  0  0  0  0  0  0  0  0  0  0
    6.9661    2.3469    0.0058 C   0  0  0  0  0  0  0  0  0  0  0  0
    4.9711    0.9373    0.0577 N   0  0  0  0  0  0  0  0  0  0  0  0
    2.3346    0.2746    0.1048 C   0  0  0  0  0  0  0  0  0  0  0  0
    0.9272   -0.2956    0.1122 C   0  0  0  0  0  0  0  0  0  0  0  0
   -0.0227    0.7901    0.1259 N   0  0  0  0  0  0  0  0  0  0  0  0
   -1.3604    0.6180    0.0655 C   0  0  0  0  0  0  0  0  0  0  0  0
   -1.9454   -0.6638    0.0936 C   0  0  0  0  0  0  0  0  0  0  0  0
   -3.3143   -0.8115    0.0255 C   0  0  0  0  0  0  0  0  0  0  0  0
   -2.2132    1.7363   -0.0257 C   0  0  0  0  0  0  0  0  0  0  0  0
   -3.5787    1.5817   -0.0954 C   0  0  0  0  0  0  0  0  0  0  0  0
   -4.1384    0.3056   -0.0710 C   0  0  0  0  0  0  0  0  0  0  0  0
   -5.8713    0.0915   -0.1861 S   0  0  1  0  0  0  0  0  0  0  0  0
   -6.4605    1.3600   -0.6027 O   0  0  0  0  0  0  0  0  0  0  0  0
   -6.1788   -1.0936   -0.9780 O   0  0  0  0  0  0  0  0  0  0  0  0
   -6.2695   -0.3141    1.3718 N   0  0  0  0  0  0  0  0  0  0  0  0
    5.3604   -3.0386   -0.9236 H   0  0  0  0  0  0  0  0  0  0  0  0
    6.9411   -2.9389   -0.1482 H   0  0  0  0  0  0  0  0  0  0  0  0
    5.4809   -3.0899    0.8293 H   0  0  0  0  0  0  0  0  0  0  0  0
    7.9204   -0.4890   -0.0952 H   0  0  0  0  0  0  0  0  0  0  0  0
    7.5724    2.4626   -0.8933 H   0  0  0  0  0  0  0  0  0  0  0  0
    6.2529    3.1676    0.0478 H   0  0  0  0  0  0  0  0  0  0  0  0
    7.6389    2.4315    0.8600 H   0  0  0  0  0  0  0  0  0  0  0  0
    2.4966    0.9076    0.9811 H   0  0  0  0  0  0  0  0  0  0  0  0
    2.4796    0.9256   -0.7612 H   0  0  0  0  0  0  0  0  0  0  0  0
    0.7750   -0.9311   -0.7665 H   0  0  0  0  0  0  0  0  0  0  0  0
    0.7863   -0.9320    0.9906 H   0  0  0  0  0  0  0  0  0  0  0  0
    0.3290    1.7275    0.0192 H   0  0  0  0  0  0  0  0  0  0  0  0
   -1.3273   -1.5482    0.1636 H   0  0  0  0  0  0  0  0  0  0  0  0
   -3.7346   -1.8089    0.0434 H   0  0  0  0  0  0  0  0  0  0  0  0
   -1.7875    2.7322   -0.0496 H   0  0  0  0  0  0  0  0  0  0  0  0
   -4.2061    2.4592   -0.1735 H   0  0  0  0  0  0  0  0  0  0  0  0
   -6.1610    0.4654    2.0128 H   0  0  0  0  0  0  0  0  0  0  0  0
   -7.2192   -0.6721    1.4250 H   0  0  0  0  0  0  0  0  0  0  0  0
  8  7  1  0
  9  7  2  0
  9  3  1  0
  7  6  1  0
 10 11  1  0
 10  2  1  0
 11 12  1  0
  3  2  1  0
  3  4  1  0
  6  4  2  0
  2  1  2  0
 12 13  1  0
  4  5  1  0
 13 16  1  0
 13 14  2  0
 16 17  2  0
 14 15  1  0
 17 18  1  0
 15 18  2  0
 18 19  1  0
 19 22  1  1
 20 19  2  0
 19 21  2  0
  5 23  1  0
  5 24  1  0
  5 25  1  0
  6 26  1  0
  8 27  1  0
  8 28  1  0
  8 29  1  0
 10 30  1  0
 10 31  1  0
 11 32  1  0
 11 33  1  0
 12 34  1  0
 14 35  1  0
 15 36  1  0
 16 37  1  0
 17 38  1  0
 22 39  1  0
 22 40  1  0
M  END
