
     RDKit          3D

 38 39  0  0  0  0  0  0  0  0999 V2000
   -5.1708   -1.9463   -0.2069 F   0  0  0  0  0  0  0  0  0  0  0  0
   -5.1783   -0.7391   -0.7482 C   0  0  1  0  0  0  0  0  0  0  0  0
   -4.3311   -0.7165   -1.7680 F   0  0  0  0  0  0  0  0  0  0  0  0
   -6.3965   -0.4630   -1.1870 F   0  0  0  0  0  0  0  0  0  0  0  0
   -4.6733    0.5173    0.5023 S   0  0  1  0  0  0  0  0  0  0  0  0
   -4.6842    1.7704   -0.2221 O   0  0  0  0  0  0  0  0  0  0  0  0
   -5.5300    0.2797    1.6426 O   0  0  0  0  0  0  0  0  0  0  0  0
   -3.1703    0.0779    0.8577 N   0  0  0  0  0  0  0  0  0  0  0  0
   -1.9732    0.6389    0.2289 C   0  0  1  0  0  0  0  0  0  0  0  0
   -1.4453    1.8440    0.9996 C   0  0  0  0  0  0  0  0  0  0  0  0
   -0.1617    2.3770    0.3728 C   0  0  0  0  0  0  0  0  0  0  0  0
    0.8890    1.2825    0.2905 C   0  0  1  0  0  0  0  0  0  0  0  0
    0.3671    0.0884   -0.4989 C   0  0  0  0  0  0  0  0  0  0  0  0
   -0.9143   -0.4525    0.1265 C   0  0  0  0  0  0  0  0  0  0  0  0
    2.0329    1.8633   -0.3432 O   0  0  0  0  0  0  0  0  0  0  0  0
    3.2318    1.2882   -0.2805 C   0  0  0  0  0  0  0  0  0  0  0  0
    4.2476    1.9111   -1.0175 C   0  0  0  0  0  0  0  0  0  0  0  0
    5.5209    1.3947   -1.0150 C   0  0  0  0  0  0  0  0  0  0  0  0
    5.8248    0.2436   -0.2802 C   0  0  0  0  0  0  0  0  0  0  0  0
    7.1416   -0.2891   -0.2938 C   0  0  0  0  0  0  0  0  0  0  0  0
    8.2161   -0.7060   -0.3194 N   0  0  0  0  0  0  0  0  0  0  0  0
    4.8076   -0.3624    0.4549 C   0  0  0  0  0  0  0  0  0  0  0  0
    5.1530   -1.7778    1.3726 Cl  0  0  0  0  0  0  0  0  0  0  0  0
    3.5213    0.1426    0.4640 C   0  0  0  0  0  0  0  0  0  0  0  0
   -3.0615   -0.4359    1.7242 H   0  0  0  0  0  0  0  0  0  0  0  0
   -2.2425    0.9529   -0.7824 H   0  0  0  0  0  0  0  0  0  0  0  0
   -2.1998    2.6319    1.0221 H   0  0  0  0  0  0  0  0  0  0  0  0
   -1.2624    1.5494    2.0381 H   0  0  0  0  0  0  0  0  0  0  0  0
   -0.6992   -0.8470    1.1258 H   0  0  0  0  0  0  0  0  0  0  0  0
   -1.2924   -1.2852   -0.4689 H   0  0  0  0  0  0  0  0  0  0  0  0
   -0.3703    2.7549   -0.6334 H   0  0  0  0  0  0  0  0  0  0  0  0
    0.2150    3.2154    0.9619 H   0  0  0  0  0  0  0  0  0  0  0  0
    1.1491    0.9742    1.3106 H   0  0  0  0  0  0  0  0  0  0  0  0
    0.1747    0.4038   -1.5290 H   0  0  0  0  0  0  0  0  0  0  0  0
    1.1076   -0.7125   -0.5459 H   0  0  0  0  0  0  0  0  0  0  0  0
    4.0220    2.8012   -1.5888 H   0  0  0  0  0  0  0  0  0  0  0  0
    2.7704   -0.3635    1.0523 H   0  0  0  0  0  0  0  0  0  0  0  0
    6.2986    1.8787   -1.5895 H   0  0  0  0  0  0  0  0  0  0  0  0
  2  1  1  1
  2  3  1  0
  2  4  1  0
  2  5  1  0
  5  6  2  0
  5  7  2  0
  5  8  1  1
  8  9  1  0
  9 10  1  0
  9 14  1  0
 10 11  1  0
 11 12  1  0
 12 13  1  0
 12 15  1  0
 13 14  1  0
 15 16  1  0
 16 17  2  0
 16 24  1  0
 17 18  1  0
 18 19  2  0
 19 20  1  0
 19 22  1  0
 20 21  3  0
 22 23  1  0
 22 24  2  0
  8 25  1  0
  9 26  1  6
 10 27  1  0
 10 28  1  0
 14 29  1  0
 14 30  1  0
 11 31  1  0
 11 32  1  0
 12 33  1  1
 13 34  1  0
 13 35  1  0
 17 36  1  0
 24 37  1  0
 18 38  1  0
M  END
