
     RDKit          3D

 66 71  0  0  0  0  0  0  0  0999 V2000
    6.4305   -1.1328    0.2581 C   0  0  0  0  0  0  0  0  0  0  0  0
    5.1754   -0.5070    0.0769 C   0  0  0  0  0  0  0  0  0  0  0  0
    4.1003   -0.8592    0.9335 C   0  0  0  0  0  0  0  0  0  0  0  0
    4.3133   -1.8226    1.9471 C   0  0  0  0  0  0  0  0  0  0  0  0
    5.5389   -2.4111    2.0985 C   0  0  0  0  0  0  0  0  0  0  0  0
    6.6077   -2.0639    1.2450 C   0  0  0  0  0  0  0  0  0  0  0  0
    2.8451   -0.2371    0.7543 C   0  0  0  0  0  0  0  0  0  0  0  0
    2.6694    0.6744   -0.2481 C   0  0  0  0  0  0  0  0  0  0  0  0
    3.7319    1.0356   -1.1020 C   0  0  0  0  0  0  0  0  0  0  0  0
    4.9579    0.4566   -0.9358 C   0  0  0  0  0  0  0  0  0  0  0  0
    1.3990    1.2626   -0.4522 N   0  0  0  0  0  0  0  0  0  0  0  0
    0.2026    0.6511   -0.7392 C   0  0  0  0  0  0  0  0  0  0  0  0
   -0.7602    1.5086   -0.7309 N   0  0  0  0  0  0  0  0  0  0  0  0
   -0.1973    2.6988   -0.4297 N   0  0  0  0  0  0  0  0  0  0  0  0
    1.1460    2.6089   -0.2400 C   0  0  0  0  0  0  0  0  0  0  0  0
    1.9472    3.4759    0.0559 O   0  0  0  0  0  0  0  0  0  0  0  0
   -1.0038    3.8974   -0.3374 C   0  0  2  0  0  0  0  0  0  0  0  0
   -2.0189    3.8081    0.7965 C   0  0  0  0  0  0  0  0  0  0  0  0
   -2.8904    5.0562    0.8049 C   0  0  0  0  0  0  0  0  0  0  0  0
   -3.5275    5.2645   -0.4357 O   0  0  0  0  0  0  0  0  0  0  0  0
   -2.5979    5.4261   -1.4843 C   0  0  0  0  0  0  0  0  0  0  0  0
   -1.7118    4.2009   -1.6534 C   0  0  0  0  0  0  0  0  0  0  0  0
    0.0081   -0.7673   -1.0432 C   0  0  0  0  0  0  0  0  0  0  0  0
    0.9756   -1.5312   -1.6998 C   0  0  0  0  0  0  0  0  0  0  0  0
    0.6652   -2.8546   -1.9532 C   0  0  0  0  0  0  0  0  0  0  0  0
   -0.4800   -3.4347   -1.6285 N   0  0  0  0  0  0  0  0  0  0  0  0
   -1.4188   -2.7011   -1.0195 C   0  0  0  0  0  0  0  0  0  0  0  0
   -1.1967   -1.3500   -0.6933 C   0  0  0  0  0  0  0  0  0  0  0  0
   -2.5865   -3.3302   -0.7581 N   0  0  0  0  0  0  0  0  0  0  0  0
   -3.7013   -2.7768   -0.0224 C   0  0  1  0  0  0  0  0  0  0  0  0
   -4.9804   -3.5170   -0.4037 C   0  0  0  0  0  0  0  0  0  0  0  0
   -6.1891   -2.9473    0.3328 C   0  0  0  0  0  0  0  0  0  0  0  0
   -5.9826   -2.9621    1.8438 C   0  0  0  0  0  0  0  0  0  0  0  0
   -4.6981   -2.2349    2.2272 C   0  0  0  0  0  0  0  0  0  0  0  0
   -3.4943   -2.8180    1.4933 C   0  0  0  0  0  0  0  0  0  0  0  0
    7.2504   -0.8662   -0.3979 H   0  0  0  0  0  0  0  0  0  0  0  0
    3.4926   -2.0886    2.6019 H   0  0  0  0  0  0  0  0  0  0  0  0
    5.6926   -3.1483    2.8755 H   0  0  0  0  0  0  0  0  0  0  0  0
    7.5709   -2.5396    1.3747 H   0  0  0  0  0  0  0  0  0  0  0  0
    2.0230   -0.4949    1.4112 H   0  0  0  0  0  0  0  0  0  0  0  0
    3.5657    1.7558   -1.8917 H   0  0  0  0  0  0  0  0  0  0  0  0
    5.7762    0.7273   -1.5913 H   0  0  0  0  0  0  0  0  0  0  0  0
   -0.3004    4.7060   -0.1233 H   0  0  0  0  0  0  0  0  0  0  0  0
   -2.6458    2.9222    0.6650 H   0  0  0  0  0  0  0  0  0  0  0  0
   -1.5109    3.7145    1.7588 H   0  0  0  0  0  0  0  0  0  0  0  0
   -3.6741    4.9630    1.5577 H   0  0  0  0  0  0  0  0  0  0  0  0
   -2.2810    5.9318    1.0736 H   0  0  0  0  0  0  0  0  0  0  0  0
   -3.1686    5.6101   -2.3956 H   0  0  0  0  0  0  0  0  0  0  0  0
   -1.9691    6.3104   -1.3041 H   0  0  0  0  0  0  0  0  0  0  0  0
   -0.9811    4.3855   -2.4440 H   0  0  0  0  0  0  0  0  0  0  0  0
   -2.3163    3.3432   -1.9583 H   0  0  0  0  0  0  0  0  0  0  0  0
    1.9262   -1.1279   -2.0142 H   0  0  0  0  0  0  0  0  0  0  0  0
    1.3915   -3.4858   -2.4543 H   0  0  0  0  0  0  0  0  0  0  0  0
   -1.9404   -0.7676   -0.1691 H   0  0  0  0  0  0  0  0  0  0  0  0
   -2.5931   -4.3219   -0.9412 H   0  0  0  0  0  0  0  0  0  0  0  0
   -3.8249   -1.7317   -0.3312 H   0  0  0  0  0  0  0  0  0  0  0  0
   -5.1292   -3.4603   -1.4846 H   0  0  0  0  0  0  0  0  0  0  0  0
   -4.8657   -4.5777   -0.1509 H   0  0  0  0  0  0  0  0  0  0  0  0
   -6.3618   -1.9180    0.0006 H   0  0  0  0  0  0  0  0  0  0  0  0
   -7.0835   -3.5135    0.0634 H   0  0  0  0  0  0  0  0  0  0  0  0
   -6.8404   -2.5093    2.3466 H   0  0  0  0  0  0  0  0  0  0  0  0
   -5.9279   -3.9994    2.1912 H   0  0  0  0  0  0  0  0  0  0  0  0
   -4.7942   -1.1723    1.9777 H   0  0  0  0  0  0  0  0  0  0  0  0
   -4.5382   -2.2867    3.3064 H   0  0  0  0  0  0  0  0  0  0  0  0
   -3.3458   -3.8607    1.7963 H   0  0  0  0  0  0  0  0  0  0  0  0
   -2.5834   -2.2799    1.7684 H   0  0  0  0  0  0  0  0  0  0  0  0
  1  2  2  0
  1  6  1  0
  2  3  1  0
  2 10  1  0
  3  4  2  0
  3  7  1  0
  4  5  1  0
  5  6  2  0
  7  8  2  0
  8  9  1  0
  8 11  1  0
  9 10  2  0
 11 12  1  0
 11 15  1  0
 12 13  2  0
 12 23  1  0
 13 14  1  0
 14 15  1  0
 14 17  1  0
 15 16  2  0
 17 18  1  0
 17 22  1  0
 18 19  1  0
 19 20  1  0
 20 21  1  0
 21 22  1  0
 23 24  2  0
 23 28  1  0
 24 25  1  0
 25 26  2  0
 26 27  1  0
 27 28  2  0
 27 29  1  0
 29 30  1  0
 30 31  1  0
 30 35  1  0
 31 32  1  0
 32 33  1  0
 33 34  1  0
 34 35  1  0
  1 36  1  0
  4 37  1  0
  5 38  1  0
  6 39  1  0
  7 40  1  0
  9 41  1  0
 10 42  1  0
 17 43  1  1
 18 44  1  0
 18 45  1  0
 19 46  1  0
 19 47  1  0
 21 48  1  0
 21 49  1  0
 22 50  1  0
 22 51  1  0
 24 52  1  0
 25 53  1  0
 28 54  1  0
 29 55  1  0
 30 56  1  6
 31 57  1  0
 31 58  1  0
 32 59  1  0
 32 60  1  0
 33 61  1  0
 33 62  1  0
 34 63  1  0
 34 64  1  0
 35 65  1  0
 35 66  1  0
M  END
