
     RDKit          3D

 44 45  0  0  0  0  0  0  0  0999 V2000
   -1.4488    0.4020   -1.6250 O   0  0  0  0  0  0  0  0  0  0  0  0
   -1.6020    0.1916   -0.2296 C   0  0  2  0  0  0  0  0  0  0  0  0
   -2.9287   -0.5361    0.0538 C   0  0  0  0  0  0  0  0  0  0  0  0
   -1.6007    1.5335    0.5185 C   0  0  0  0  0  0  0  0  0  0  0  0
   -2.8287    2.3919    0.2234 C   0  0  0  0  0  0  0  0  0  0  0  0
   -4.1215    1.6417    0.5145 C   0  0  0  0  0  0  0  0  0  0  0  0
   -4.1594    0.3185   -0.2386 C   0  0  0  0  0  0  0  0  0  0  0  0
   -0.4017   -0.6727    0.2362 C   0  0  1  0  0  0  0  0  0  0  0  0
   -0.3366   -2.0252   -0.4856 C   0  0  0  0  0  0  0  0  0  0  0  0
    0.8174   -2.8209   -0.1134 N   0  0  0  0  0  0  0  0  0  0  0  0
    0.8058   -3.2057    1.2796 C   0  0  0  0  0  0  0  0  0  0  0  0
    0.9313   -3.9814   -0.9683 C   0  0  0  0  0  0  0  0  0  0  0  0
    0.9182    0.0543    0.1455 C   0  0  0  0  0  0  0  0  0  0  0  0
    1.5451    0.5210    1.2946 C   0  0  0  0  0  0  0  0  0  0  0  0
    2.7551    1.2030    1.2496 C   0  0  0  0  0  0  0  0  0  0  0  0
    3.3719    1.4336    0.0262 C   0  0  0  0  0  0  0  0  0  0  0  0
    4.5485    2.0883   -0.0923 O   0  0  0  0  0  0  0  0  0  0  0  0
    2.7644    0.9667   -1.1381 C   0  0  0  0  0  0  0  0  0  0  0  0
    1.5591    0.2884   -1.0710 C   0  0  0  0  0  0  0  0  0  0  0  0
   -2.0948    1.0520   -1.9170 H   0  0  0  0  0  0  0  0  0  0  0  0
   -2.9825   -1.4535   -0.5354 H   0  0  0  0  0  0  0  0  0  0  0  0
   -2.9460   -0.8397    1.1059 H   0  0  0  0  0  0  0  0  0  0  0  0
   -1.5630    1.3305    1.5940 H   0  0  0  0  0  0  0  0  0  0  0  0
   -0.6913    2.0877    0.2784 H   0  0  0  0  0  0  0  0  0  0  0  0
   -2.7766    3.3062    0.8188 H   0  0  0  0  0  0  0  0  0  0  0  0
   -2.8242    2.7265   -0.8213 H   0  0  0  0  0  0  0  0  0  0  0  0
   -4.1927    1.4487    1.5905 H   0  0  0  0  0  0  0  0  0  0  0  0
   -4.9862    2.2552    0.2506 H   0  0  0  0  0  0  0  0  0  0  0  0
   -4.2386    0.5100   -1.3148 H   0  0  0  0  0  0  0  0  0  0  0  0
   -5.0576   -0.2440    0.0256 H   0  0  0  0  0  0  0  0  0  0  0  0
   -0.5957   -0.8578    1.2983 H   0  0  0  0  0  0  0  0  0  0  0  0
   -1.2678   -2.5854   -0.3009 H   0  0  0  0  0  0  0  0  0  0  0  0
   -0.2859   -1.8550   -1.5635 H   0  0  0  0  0  0  0  0  0  0  0  0
   -0.1014   -3.7599    1.5723 H   0  0  0  0  0  0  0  0  0  0  0  0
    1.6646   -3.8442    1.4923 H   0  0  0  0  0  0  0  0  0  0  0  0
    0.8853   -2.3331    1.9280 H   0  0  0  0  0  0  0  0  0  0  0  0
    0.9999   -3.6716   -2.0125 H   0  0  0  0  0  0  0  0  0  0  0  0
    1.8378   -4.5383   -0.7257 H   0  0  0  0  0  0  0  0  0  0  0  0
    0.0804   -4.6762   -0.8820 H   0  0  0  0  0  0  0  0  0  0  0  0
    1.0840    0.3492    2.2607 H   0  0  0  0  0  0  0  0  0  0  0  0
    3.2134    1.5472    2.1702 H   0  0  0  0  0  0  0  0  0  0  0  0
    4.8801    2.3373    0.7773 H   0  0  0  0  0  0  0  0  0  0  0  0
    3.2428    1.1334   -2.0958 H   0  0  0  0  0  0  0  0  0  0  0  0
    1.1222   -0.0700   -1.9930 H   0  0  0  0  0  0  0  0  0  0  0  0
 18 19  2  0
 18 16  1  0
 17 16  1  0
  6  7  1  0
  6  5  1  0
  7  3  1  0
 19 13  1  0
 16 15  2  0
  3  2  1  0
  5  4  1  0
 13  8  1  0
 13 14  2  0
  4  2  1  0
 15 14  1  0
  2  8  1  0
  2  1  1  6
  8  9  1  0
 12 10  1  0
  9 10  1  0
 10 11  1  0
  1 20  1  0
  3 21  1  0
  3 22  1  0
  4 23  1  0
  4 24  1  0
  5 25  1  0
  5 26  1  0
  6 27  1  0
  6 28  1  0
  7 29  1  0
  7 30  1  0
  8 31  1  1
  9 32  1  0
  9 33  1  0
 11 34  1  0
 11 35  1  0
 11 36  1  0
 12 37  1  0
 12 38  1  0
 12 39  1  0
 14 40  1  0
 15 41  1  0
 17 42  1  0
 18 43  1  0
 19 44  1  0
M  END
