
     RDKit          3D

 50 52  0  0  0  0  0  0  0  0999 V2000
    3.6171    2.4752    2.4439 N   0  0  0  0  0  0  0  0  0  0  0  0
    3.2544    2.2512    1.1452 C   0  0  0  0  0  0  0  0  0  0  0  0
    3.8190    3.0052    0.1033 C   0  0  0  0  0  0  0  0  0  0  0  0
    3.3887    2.7876   -1.1905 C   0  0  0  0  0  0  0  0  0  0  0  0
    2.4020    1.8202   -1.4025 C   0  0  0  0  0  0  0  0  0  0  0  0
    3.9630    3.5567   -2.3407 C   0  0  0  0  0  0  0  0  0  0  0  0
    2.3203    1.3298    0.9312 N   0  0  0  0  0  0  0  0  0  0  0  0
    1.9046    1.1165   -0.3185 C   0  0  0  0  0  0  0  0  0  0  0  0
    0.8910    0.0245   -0.5129 C   0  0  0  0  0  0  0  0  0  0  0  0
    1.5686   -1.3247   -0.7411 C   0  0  2  0  0  0  0  0  0  0  0  0
    0.6270   -2.4676   -1.1188 C   0  0  1  0  0  0  0  0  0  0  0  0
    1.4617   -3.7264   -0.8045 C   0  0  0  0  0  0  0  0  0  0  0  0
    2.5595   -3.3177    0.0844 N   0  0  0  0  0  0  0  0  0  0  0  0
    2.3172   -1.9245    0.4493 C   0  0  0  0  0  0  0  0  0  0  0  0
   -0.5262   -2.3868   -0.3100 O   0  0  0  0  0  0  0  0  0  0  0  0
   -1.6302   -3.1192   -0.7837 C   0  0  0  0  0  0  0  0  0  0  0  0
   -2.8184   -2.8194    0.1021 C   0  0  0  0  0  0  0  0  0  0  0  0
   -3.1788   -1.4153    0.0399 N   0  0  0  0  0  0  0  0  0  0  0  0
   -4.2598   -1.0909    0.9574 C   0  0  0  0  0  0  0  0  0  0  0  0
   -4.6074    0.3525    0.9173 C   0  0  0  0  0  0  0  0  0  0  0  0
   -3.6808    1.2298    1.3687 O   0  0  0  0  0  0  0  0  0  0  0  0
   -4.1907    2.4731    1.2393 C   0  0  0  0  0  0  0  0  0  0  0  0
   -5.4360    2.4149    0.7155 C   0  0  0  0  0  0  0  0  0  0  0  0
   -5.7072    1.0273    0.5027 C   0  0  0  0  0  0  0  0  0  0  0  0
    3.3992    1.7382    3.0946 H   0  0  0  0  0  0  0  0  0  0  0  0
    4.5089    2.9120    2.6064 H   0  0  0  0  0  0  0  0  0  0  0  0
    4.5800    3.7469    0.3159 H   0  0  0  0  0  0  0  0  0  0  0  0
    2.0336    1.6154   -2.4007 H   0  0  0  0  0  0  0  0  0  0  0  0
    4.5007    2.8921   -3.0186 H   0  0  0  0  0  0  0  0  0  0  0  0
    3.1755    4.0359   -2.9233 H   0  0  0  0  0  0  0  0  0  0  0  0
    4.6547    4.3284   -2.0067 H   0  0  0  0  0  0  0  0  0  0  0  0
    0.2445   -0.0224    0.3647 H   0  0  0  0  0  0  0  0  0  0  0  0
    0.2583    0.2575   -1.3731 H   0  0  0  0  0  0  0  0  0  0  0  0
    2.2855   -1.2198   -1.5650 H   0  0  0  0  0  0  0  0  0  0  0  0
    0.3401   -2.4219   -2.1776 H   0  0  0  0  0  0  0  0  0  0  0  0
    0.8304   -4.4830   -0.3283 H   0  0  0  0  0  0  0  0  0  0  0  0
    1.8572   -4.1748   -1.7172 H   0  0  0  0  0  0  0  0  0  0  0  0
    3.4257   -3.3611   -0.4341 H   0  0  0  0  0  0  0  0  0  0  0  0
    3.2561   -1.4200    0.6744 H   0  0  0  0  0  0  0  0  0  0  0  0
    1.6974   -1.8681    1.3511 H   0  0  0  0  0  0  0  0  0  0  0  0
   -1.8586   -2.8413   -1.8220 H   0  0  0  0  0  0  0  0  0  0  0  0
   -1.4371   -4.2003   -0.7705 H   0  0  0  0  0  0  0  0  0  0  0  0
   -3.6626   -3.4186   -0.2507 H   0  0  0  0  0  0  0  0  0  0  0  0
   -2.6037   -3.1592    1.1281 H   0  0  0  0  0  0  0  0  0  0  0  0
   -2.3624   -0.8692    0.2878 H   0  0  0  0  0  0  0  0  0  0  0  0
   -5.1510   -1.6506    0.6646 H   0  0  0  0  0  0  0  0  0  0  0  0
   -4.0347   -1.3904    1.9939 H   0  0  0  0  0  0  0  0  0  0  0  0
   -3.5631    3.2902    1.5565 H   0  0  0  0  0  0  0  0  0  0  0  0
   -6.0823    3.2512    0.5039 H   0  0  0  0  0  0  0  0  0  0  0  0
   -6.6038    0.5902    0.0935 H   0  0  0  0  0  0  0  0  0  0  0  0
  6  4  1  0
  4  3  1  0
  4  5  2  0
  3  2  2  0
  5  8  1  0
  2  1  1  0
  2  7  1  0
 10 14  1  0
 10  9  1  0
 10 11  1  0
  8  7  2  0
  8  9  1  0
 14 13  1  0
 11 15  1  0
 11 12  1  0
 15 16  1  0
 16 17  1  0
 17 18  1  0
 13 12  1  0
 18 19  1  0
 24 23  1  0
 24 20  2  0
 23 22  2  0
 19 20  1  0
 20 21  1  0
 22 21  1  0
  1 25  1  0
  1 26  1  0
  3 27  1  0
  5 28  1  0
  6 29  1  0
  6 30  1  0
  6 31  1  0
  9 32  1  0
  9 33  1  0
 10 34  1  6
 11 35  1  6
 12 36  1  0
 12 37  1  0
 13 38  1  0
 14 39  1  0
 14 40  1  0
 16 41  1  0
 16 42  1  0
 17 43  1  0
 17 44  1  0
 18 45  1  0
 19 46  1  0
 19 47  1  0
 22 48  1  0
 23 49  1  0
 24 50  1  0
M  END
