
     RDKit          3D

 50 53  0  0  0  0  0  0  0  0999 V2000
    1.6650   -2.5322    1.1836 C   0  0  0  0  0  0  0  0  0  0  0  0
    0.4971   -3.3943    1.6737 C   0  0  0  0  0  0  0  0  0  0  0  0
   -0.8763   -2.8647    1.2490 C   0  0  0  0  0  0  0  0  0  0  0  0
   -0.9403   -2.3312   -0.1864 C   0  0  2  0  0  0  0  0  0  0  0  0
   -0.8610   -3.4173   -1.2639 C   0  0  0  0  0  0  0  0  0  0  0  0
    0.5037   -4.0969   -1.3750 C   0  0  0  0  0  0  0  0  0  0  0  0
    1.6541   -3.0910   -1.3344 C   0  0  0  0  0  0  0  0  0  0  0  0
    1.5173   -2.0144   -0.2510 C   0  0  1  0  0  0  0  0  0  0  0  0
    0.1714   -1.3009   -0.4326 C   0  0  2  0  0  0  0  0  0  0  0  0
    0.0211   -0.0415    0.4422 C   0  0  1  0  0  0  0  0  0  0  0  0
    1.1595    0.9451    0.2792 C   0  0  0  0  0  0  0  0  0  0  0  0
   -1.3109    0.6470    0.2250 C   0  0  0  0  0  0  0  0  0  0  0  0
   -2.1617    0.8884    1.2964 C   0  0  0  0  0  0  0  0  0  0  0  0
   -3.3815    1.5329    1.1331 C   0  0  0  0  0  0  0  0  0  0  0  0
   -3.7786    1.9525   -0.1310 C   0  0  0  0  0  0  0  0  0  0  0  0
   -2.9409    1.7157   -1.2200 C   0  0  0  0  0  0  0  0  0  0  0  0
   -1.7287    1.0726   -1.0354 C   0  0  0  0  0  0  0  0  0  0  0  0
    1.6930    1.5784    1.3989 C   0  0  0  0  0  0  0  0  0  0  0  0
    2.7164    2.5083    1.2995 C   0  0  0  0  0  0  0  0  0  0  0  0
    3.2416    2.8282    0.0511 C   0  0  0  0  0  0  0  0  0  0  0  0
    2.7238    2.2058   -1.0815 C   0  0  0  0  0  0  0  0  0  0  0  0
    1.6983    1.2794   -0.9600 C   0  0  0  0  0  0  0  0  0  0  0  0
    4.2425    3.7329   -0.0046 O   0  0  0  0  0  0  0  0  0  0  0  0
   -4.9492    2.5863   -0.3596 O   0  0  0  0  0  0  0  0  0  0  0  0
    1.7832   -1.6711    1.8492 H   0  0  0  0  0  0  0  0  0  0  0  0
    2.5969   -3.0990    1.2695 H   0  0  0  0  0  0  0  0  0  0  0  0
    0.6238   -4.4179    1.3218 H   0  0  0  0  0  0  0  0  0  0  0  0
    0.5330   -3.4612    2.7643 H   0  0  0  0  0  0  0  0  0  0  0  0
   -1.6277   -3.6492    1.3792 H   0  0  0  0  0  0  0  0  0  0  0  0
   -1.1769   -2.0602    1.9274 H   0  0  0  0  0  0  0  0  0  0  0  0
   -1.9124   -1.8416   -0.3040 H   0  0  0  0  0  0  0  0  0  0  0  0
   -1.6385   -4.1674   -1.0919 H   0  0  0  0  0  0  0  0  0  0  0  0
   -1.1004   -2.9496   -2.2254 H   0  0  0  0  0  0  0  0  0  0  0  0
    0.6232   -4.8410   -0.5868 H   0  0  0  0  0  0  0  0  0  0  0  0
    0.5501   -4.6604   -2.3112 H   0  0  0  0  0  0  0  0  0  0  0  0
    2.6067   -3.6167   -1.2209 H   0  0  0  0  0  0  0  0  0  0  0  0
    1.7025   -2.5770   -2.3010 H   0  0  0  0  0  0  0  0  0  0  0  0
    2.3279   -1.2977   -0.4152 H   0  0  0  0  0  0  0  0  0  0  0  0
    0.1003   -0.9866   -1.4829 H   0  0  0  0  0  0  0  0  0  0  0  0
    0.0375   -0.3520    1.4909 H   0  0  0  0  0  0  0  0  0  0  0  0
   -1.8673    0.5704    2.2901 H   0  0  0  0  0  0  0  0  0  0  0  0
   -4.0191    1.7029    1.9936 H   0  0  0  0  0  0  0  0  0  0  0  0
   -3.2433    2.0361   -2.2095 H   0  0  0  0  0  0  0  0  0  0  0  0
   -1.1018    0.9053   -1.9030 H   0  0  0  0  0  0  0  0  0  0  0  0
    1.3015    1.3376    2.3809 H   0  0  0  0  0  0  0  0  0  0  0  0
    3.1133    2.9816    2.1893 H   0  0  0  0  0  0  0  0  0  0  0  0
    3.1236    2.4374   -2.0624 H   0  0  0  0  0  0  0  0  0  0  0  0
    1.3295    0.8077   -1.8626 H   0  0  0  0  0  0  0  0  0  0  0  0
    4.5423    3.8433   -0.9136 H   0  0  0  0  0  0  0  0  0  0  0  0
   -5.4297    2.7073    0.4666 H   0  0  0  0  0  0  0  0  0  0  0  0
 24 15  1  0
 14 15  1  0
 14 13  2  0
 15 16  2  0
 13 12  1  0
 16 17  1  0
 12 17  2  0
 12 10  1  0
 22 21  2  0
 22 11  1  0
 21 20  1  0
 10 11  1  0
 10  9  1  0
 11 18  2  0
 20 23  1  0
 20 19  2  0
 18 19  1  0
  9  4  1  0
  9  8  1  0
  4  5  1  0
  4  3  1  0
  5  6  1  0
  8  7  1  0
  8  1  1  0
  6  7  1  0
  3  2  1  0
  1  2  1  0
  1 25  1  0
  1 26  1  0
  2 27  1  0
  2 28  1  0
  3 29  1  0
  3 30  1  0
  4 31  1  1
  5 32  1  0
  5 33  1  0
  6 34  1  0
  6 35  1  0
  7 36  1  0
  7 37  1  0
  8 38  1  6
  9 39  1  6
 10 40  1  1
 13 41  1  0
 14 42  1  0
 16 43  1  0
 17 44  1  0
 18 45  1  0
 19 46  1  0
 21 47  1  0
 22 48  1  0
 23 49  1  0
 24 50  1  0
M  END
