
     RDKit          3D

 45 49  0  0  0  0  0  0  0  0999 V2000
   -0.2605    0.5885    5.2350 C   0  0  0  0  0  0  0  0  0  0  0  0
   -0.2001   -1.3525    4.0363 C   0  0  0  0  0  0  0  0  0  0  0  0
   -0.4705   -0.5850    2.8446 C   0  0  0  0  0  0  0  0  0  0  0  0
   -0.8141   -0.4259    0.6168 C   0  0  0  0  0  0  0  0  0  0  0  0
   -0.9514    0.9714    0.7786 C   0  0  0  0  0  0  0  0  0  0  0  0
   -0.6083    0.8024    3.0163 C   0  0  0  0  0  0  0  0  0  0  0  0
   -0.9742   -1.0697   -0.7310 C   0  0  0  0  0  0  0  0  0  0  0  0
   -0.7159   -0.4469   -3.0799 C   0  0  0  0  0  0  0  0  0  0  0  0
   -1.2508   -1.6486   -3.5379 C   0  0  0  0  0  0  0  0  0  0  0  0
   -1.7681   -1.7522   -4.8211 C   0  0  0  0  0  0  0  0  0  0  0  0
   -1.7436   -0.6546   -5.6704 C   0  0  0  0  0  0  0  0  0  0  0  0
   -1.1997    0.5382   -5.2237 C   0  0  0  0  0  0  0  0  0  0  0  0
   -0.6717    0.6634   -3.9365 C   0  0  0  0  0  0  0  0  0  0  0  0
   -0.1095    1.9450   -3.5275 C   0  0  0  0  0  0  0  0  0  0  0  0
    0.9042    2.1452   -2.6742 C   0  0  0  0  0  0  0  0  0  0  0  0
    1.6710    1.1259   -1.9680 C   0  0  0  0  0  0  0  0  0  0  0  0
    3.0171    1.3720   -1.6857 C   0  0  0  0  0  0  0  0  0  0  0  0
    3.8008    0.4388   -1.0285 C   0  0  0  0  0  0  0  0  0  0  0  0
    3.2372   -0.7680   -0.6372 C   0  0  0  0  0  0  0  0  0  0  0  0
    1.9013   -1.0299   -0.9029 C   0  0  0  0  0  0  0  0  0  0  0  0
    1.1071   -0.0903   -1.5554 C   0  0  0  0  0  0  0  0  0  0  0  0
   -0.5038    1.3956    4.2115 N   0  0  0  0  0  0  0  0  0  0  0  0
   -0.1664    1.1432    6.4508 N   0  0  0  0  0  0  0  0  0  0  0  0
   -0.1021   -0.7539    5.2019 N   0  0  0  0  0  0  0  0  0  0  0  0
   -0.0525   -2.6683    3.9420 N   0  0  0  0  0  0  0  0  0  0  0  0
   -0.5713   -1.1833    1.6581 N   0  0  0  0  0  0  0  0  0  0  0  0
   -0.8547    1.5739    1.9352 N   0  0  0  0  0  0  0  0  0  0  0  0
   -0.2779   -0.3056   -1.7456 N   0  0  0  0  0  0  0  0  0  0  0  0
   -1.1427    1.5914   -0.0914 H   0  0  0  0  0  0  0  0  0  0  0  0
   -0.6710   -2.1207   -0.6539 H   0  0  0  0  0  0  0  0  0  0  0  0
   -2.0342   -1.0736   -0.9992 H   0  0  0  0  0  0  0  0  0  0  0  0
   -2.1922   -2.6909   -5.1527 H   0  0  0  0  0  0  0  0  0  0  0  0
   -2.1519   -0.7247   -6.6700 H   0  0  0  0  0  0  0  0  0  0  0  0
   -1.1861    1.4009   -5.8792 H   0  0  0  0  0  0  0  0  0  0  0  0
   -0.5041    2.8139   -4.0429 H   0  0  0  0  0  0  0  0  0  0  0  0
    1.2613    3.1626   -2.5567 H   0  0  0  0  0  0  0  0  0  0  0  0
    3.4488    2.3191   -1.9874 H   0  0  0  0  0  0  0  0  0  0  0  0
    4.8394    0.6541   -0.8155 H   0  0  0  0  0  0  0  0  0  0  0  0
    3.8322   -1.5070   -0.1166 H   0  0  0  0  0  0  0  0  0  0  0  0
    1.4764   -1.9714   -0.5802 H   0  0  0  0  0  0  0  0  0  0  0  0
    0.0841    0.5837    7.2459 H   0  0  0  0  0  0  0  0  0  0  0  0
   -0.2095    2.1410    6.5567 H   0  0  0  0  0  0  0  0  0  0  0  0
    0.1484   -3.2218    4.7572 H   0  0  0  0  0  0  0  0  0  0  0  0
   -0.1214   -3.1253    3.0488 H   0  0  0  0  0  0  0  0  0  0  0  0
   -1.2779   -2.5105   -2.8836 H   0  0  0  0  0  0  0  0  0  0  0  0
  1 22  2  0
  1 23  1  0
  1 24  1  0
  2  3  1  0
  2 24  2  0
  2 25  1  0
  3  6  2  0
  3 26  1  0
  4  5  1  0
  4  7  1  0
  4 26  2  0
  5 27  2  0
  5 29  1  0
  6 22  1  0
  6 27  1  0
  7 28  1  0
  7 30  1  0
  7 31  1  0
  8  9  2  0
  8 13  1  0
  8 28  1  0
  9 10  1  0
  9 45  1  0
 10 11  2  0
 10 32  1  0
 11 12  1  0
 11 33  1  0
 12 13  2  0
 12 34  1  0
 13 14  1  0
 14 15  2  0
 14 35  1  0
 15 16  1  0
 15 36  1  0
 16 17  1  0
 16 21  2  0
 17 18  2  0
 17 37  1  0
 18 19  1  0
 18 38  1  0
 19 20  2  0
 19 39  1  0
 20 21  1  0
 20 40  1  0
 21 28  1  0
 23 41  1  0
 23 42  1  0
 25 43  1  0
 25 44  1  0
M  END
