
     RDKit          3D

 43 45  0  0  0  0  0  0  0  0999 V2000
    6.4474    0.9781    0.5048 C   0  0  0  0  0  0  0  0  0  0  0  0
    7.4565    1.2547   -0.3713 N   0  0  0  0  0  0  0  0  0  0  0  0
    7.1331    0.6969   -1.5523 C   0  0  0  0  0  0  0  0  0  0  0  0
    5.9809    0.0785   -1.4911 N   0  0  0  0  0  0  0  0  0  0  0  0
    5.5382    0.2442   -0.2060 C   0  0  0  0  0  0  0  0  0  0  0  0
    4.2272   -0.2950    0.2527 C   0  0  0  0  0  0  0  0  0  0  0  0
    3.0655    0.4326   -0.4274 C   0  0  0  0  0  0  0  0  0  0  0  0
    1.7840   -0.0867   -0.0392 N   0  0  0  0  0  0  0  0  0  0  0  0
    0.9177    0.3788    0.8638 C   0  0  0  0  0  0  0  0  0  0  0  0
    0.9886    1.4424    1.4545 O   0  0  0  0  0  0  0  0  0  0  0  0
    1.4362   -1.3121   -0.5753 O   0  0  0  0  0  0  0  0  0  0  0  0
    0.5128   -1.8941    0.3619 C   0  0  1  0  0  0  0  0  0  0  0  0
    1.2416   -2.7440    1.3809 C   0  0  0  0  0  0  0  0  0  0  0  0
   -0.1718   -0.6824    0.9948 C   0  0  2  0  0  0  0  0  0  0  0  0
   -1.3665   -0.2307    0.3268 N   0  0  0  0  0  0  0  0  0  0  0  0
   -2.5516   -0.8402    0.5363 C   0  0  0  0  0  0  0  0  0  0  0  0
   -2.6747   -1.7770    1.3073 O   0  0  0  0  0  0  0  0  0  0  0  0
   -3.6833   -0.2915   -0.2676 C   0  0  0  0  0  0  0  0  0  0  0  0
   -3.5386   -0.1085   -1.6452 C   0  0  0  0  0  0  0  0  0  0  0  0
   -4.5963    0.3556   -2.4035 C   0  0  0  0  0  0  0  0  0  0  0  0
   -5.8088    0.6551   -1.7918 C   0  0  0  0  0  0  0  0  0  0  0  0
   -5.9608    0.4841   -0.4272 C   0  0  0  0  0  0  0  0  0  0  0  0
   -7.0974    0.7551    0.2512 O   0  0  0  0  0  0  0  0  0  0  0  0
   -4.8961    0.0012    0.3486 C   0  0  0  0  0  0  0  0  0  0  0  0
   -5.0240   -0.1518    1.6777 O   0  0  0  0  0  0  0  0  0  0  0  0
    6.4589    1.3128    1.5284 H   0  0  0  0  0  0  0  0  0  0  0  0
    8.2942    1.7767   -0.1697 H   0  0  0  0  0  0  0  0  0  0  0  0
    7.7699    0.7702   -2.4204 H   0  0  0  0  0  0  0  0  0  0  0  0
    4.1612   -1.3638    0.0342 H   0  0  0  0  0  0  0  0  0  0  0  0
    4.1393   -0.1819    1.3350 H   0  0  0  0  0  0  0  0  0  0  0  0
    3.0697    1.4894   -0.1626 H   0  0  0  0  0  0  0  0  0  0  0  0
    3.1542    0.3717   -1.5135 H   0  0  0  0  0  0  0  0  0  0  0  0
   -0.1744   -2.4995   -0.2286 H   0  0  0  0  0  0  0  0  0  0  0  0
    1.8990   -2.1501    2.0190 H   0  0  0  0  0  0  0  0  0  0  0  0
    0.5177   -3.2454    2.0234 H   0  0  0  0  0  0  0  0  0  0  0  0
    1.8412   -3.5088    0.8886 H   0  0  0  0  0  0  0  0  0  0  0  0
   -0.3860   -0.8575    2.0510 H   0  0  0  0  0  0  0  0  0  0  0  0
   -1.3258    0.5682   -0.2862 H   0  0  0  0  0  0  0  0  0  0  0  0
   -2.5991   -0.3538   -2.1239 H   0  0  0  0  0  0  0  0  0  0  0  0
   -4.4874    0.4848   -3.4714 H   0  0  0  0  0  0  0  0  0  0  0  0
   -6.6407    1.0237   -2.3812 H   0  0  0  0  0  0  0  0  0  0  0  0
   -7.7604    1.1506   -0.3253 H   0  0  0  0  0  0  0  0  0  0  0  0
   -5.8853    0.1715    1.9701 H   0  0  0  0  0  0  0  0  0  0  0  0
  4  3  2  0
  4  5  1  0
  3  2  1  0
  7  6  1  0
  7  8  1  0
  5  6  1  0
  5  1  2  0
  2  1  1  0
 10  9  2  0
 23 22  1  0
  8  9  1  0
  8 11  1  0
 25 24  1  0
  9 14  1  0
 22 24  2  0
 22 21  1  0
 24 18  1  0
 11 12  1  0
 15 14  1  0
 15 16  1  0
 14 12  1  0
 21 20  2  0
 18 16  1  0
 18 19  2  0
 16 17  2  0
 12 13  1  0
 20 19  1  0
  1 26  1  0
  2 27  1  0
  3 28  1  0
  6 29  1  0
  6 30  1  0
  7 31  1  0
  7 32  1  0
 12 33  1  6
 13 34  1  0
 13 35  1  0
 13 36  1  0
 14 37  1  1
 15 38  1  0
 19 39  1  0
 20 40  1  0
 21 41  1  0
 23 42  1  0
 25 43  1  0
M  END
