
     RDKit          3D

 59 58  0  0  0  0  0  0  0  0999 V2000
   11.2245   -3.3120   -0.4253 C   0  0  0  0  0  0  0  0  0  0  0  0
   -5.2865    1.6168    0.9508 O   0  0  0  0  0  0  0  0  0  0  0  0
   10.0022   -2.8221    0.3395 C   0  0  0  0  0  0  0  0  0  0  0  0
   -6.0250   -0.1699   -0.1628 O   0  0  0  0  0  0  0  0  0  0  0  0
    9.4578   -1.5015   -0.1901 C   0  0  0  0  0  0  0  0  0  0  0  0
   -7.8344   -2.2978    0.0882 O   0  0  0  0  0  0  0  0  0  0  0  0
    8.2313   -1.0080    0.5680 C   0  0  0  0  0  0  0  0  0  0  0  0
    7.6972    0.3190    0.0456 C   0  0  0  0  0  0  0  0  0  0  0  0
    6.4619    0.8074    0.8058 C   0  0  0  0  0  0  0  0  0  0  0  0
    6.0064    2.1502    0.3284 C   0  0  0  0  0  0  0  0  0  0  0  0
    4.8791    2.4511   -0.3146 C   0  0  0  0  0  0  0  0  0  0  0  0
    3.7586    1.5339   -0.6930 C   0  0  0  0  0  0  0  0  0  0  0  0
    2.4295    1.9591   -0.0653 C   0  0  0  0  0  0  0  0  0  0  0  0
    1.2551    1.1074   -0.5294 C   0  0  0  0  0  0  0  0  0  0  0  0
   -0.0748    1.5360    0.0784 C   0  0  0  0  0  0  0  0  0  0  0  0
   -1.2502    0.6988   -0.4097 C   0  0  0  0  0  0  0  0  0  0  0  0
   -2.5824    1.1352    0.1875 C   0  0  0  0  0  0  0  0  0  0  0  0
   -3.7319    0.2797   -0.3196 C   0  0  0  0  0  0  0  0  0  0  0  0
   -5.0743    0.6685    0.2373 C   0  0  0  0  0  0  0  0  0  0  0  0
   -7.3608    0.0771    0.2724 C   0  0  0  0  0  0  0  0  0  0  0  0
   -8.2446   -1.0127   -0.3105 C   0  0  2  0  0  0  0  0  0  0  0  0
   -9.6948   -0.7241    0.0463 C   0  0  0  0  0  0  0  0  0  0  0  0
   12.0341   -2.5805   -0.3875 H   0  0  0  0  0  0  0  0  0  0  0  0
   11.6049   -4.2477   -0.0139 H   0  0  0  0  0  0  0  0  0  0  0  0
   10.9889   -3.4858   -1.4770 H   0  0  0  0  0  0  0  0  0  0  0  0
    9.2151   -3.5812    0.2947 H   0  0  0  0  0  0  0  0  0  0  0  0
   10.2547   -2.7104    1.3985 H   0  0  0  0  0  0  0  0  0  0  0  0
   10.2446   -0.7400   -0.1429 H   0  0  0  0  0  0  0  0  0  0  0  0
    9.2083   -1.6119   -1.2513 H   0  0  0  0  0  0  0  0  0  0  0  0
    7.4410   -1.7649    0.5126 H   0  0  0  0  0  0  0  0  0  0  0  0
    8.4785   -0.9058    1.6305 H   0  0  0  0  0  0  0  0  0  0  0  0
  -11.4250   -1.4955   -0.3379 H   0  0  0  0  0  0  0  0  0  0  0  0
    8.4844    1.0785    0.1068 H   0  0  0  0  0  0  0  0  0  0  0  0
    7.4487    0.2236   -1.0161 H   0  0  0  0  0  0  0  0  0  0  0  0
    5.6663    0.0638    0.7241 H   0  0  0  0  0  0  0  0  0  0  0  0
    6.7110    0.8742    1.8707 H   0  0  0  0  0  0  0  0  0  0  0  0
    6.7069    2.9613    0.5140 H   0  0  0  0  0  0  0  0  0  0  0  0
    4.7299    3.4902   -0.5994 H   0  0  0  0  0  0  0  0  0  0  0  0
    3.6462    1.5457   -1.7832 H   0  0  0  0  0  0  0  0  0  0  0  0
    3.9760    0.4992   -0.4189 H   0  0  0  0  0  0  0  0  0  0  0  0
    2.5140    1.9103    1.0250 H   0  0  0  0  0  0  0  0  0  0  0  0
    2.2363    3.0093   -0.3094 H   0  0  0  0  0  0  0  0  0  0  0  0
    1.1850    1.1560   -1.6218 H   0  0  0  0  0  0  0  0  0  0  0  0
    1.4436    0.0565   -0.2841 H   0  0  0  0  0  0  0  0  0  0  0  0
   -0.0127    1.4745    1.1703 H   0  0  0  0  0  0  0  0  0  0  0  0
   -0.2556    2.5906   -0.1567 H   0  0  0  0  0  0  0  0  0  0  0  0
   -1.3063    0.7565   -1.5022 H   0  0  0  0  0  0  0  0  0  0  0  0
   -1.0723   -0.3552   -0.1706 H   0  0  0  0  0  0  0  0  0  0  0  0
   -2.5285    1.0749    1.2780 H   0  0  0  0  0  0  0  0  0  0  0  0
   -2.7620    2.1854   -0.0564 H   0  0  0  0  0  0  0  0  0  0  0  0
   -3.7940    0.3328   -1.4119 H   0  0  0  0  0  0  0  0  0  0  0  0
   -3.5577   -0.7760   -0.0899 H   0  0  0  0  0  0  0  0  0  0  0  0
   -7.4111    0.0698    1.3662 H   0  0  0  0  0  0  0  0  0  0  0  0
   -7.6949    1.0588   -0.0720 H   0  0  0  0  0  0  0  0  0  0  0  0
   -8.1476   -0.9937   -1.4012 H   0  0  0  0  0  0  0  0  0  0  0  0
   -9.9414    0.2937   -0.2816 H   0  0  0  0  0  0  0  0  0  0  0  0
   -9.8060   -0.7402    1.1407 H   0  0  0  0  0  0  0  0  0  0  0  0
   -7.9622   -2.3841    1.0396 H   0  0  0  0  0  0  0  0  0  0  0  0
  -10.5127   -1.6843   -0.5744 O   0  0  0  0  0  0  0  0  0  0  0  0
  1  3  1  0
  3  5  1  0
  5  7  1  0
  7  8  1  0
  8  9  1  0
  9 10  1  0
 10 11  2  0
 11 12  1  0
 12 13  1  0
 13 14  1  0
 14 15  1  0
 15 16  1  0
 16 17  1  0
 17 18  1  0
 18 19  1  0
  2 19  2  0
 19  4  1  0
  4 20  1  0
  6 21  1  0
 20 21  1  0
 21 22  1  0
 22 59  1  0
  1 23  1  0
  1 24  1  0
  1 25  1  0
  3 26  1  0
  3 27  1  0
  5 28  1  0
  5 29  1  0
  6 58  1  0
  7 30  1  0
  7 31  1  0
 59 32  1  0
  8 33  1  0
  8 34  1  0
  9 35  1  0
  9 36  1  0
 10 37  1  0
 11 38  1  0
 12 39  1  0
 12 40  1  0
 13 41  1  0
 13 42  1  0
 14 43  1  0
 14 44  1  0
 15 45  1  0
 15 46  1  0
 16 47  1  0
 16 48  1  0
 17 49  1  0
 17 50  1  0
 18 51  1  0
 18 52  1  0
 20 53  1  0
 20 54  1  0
 21 55  1  6
 22 56  1  0
 22 57  1  0
M  END
