
     RDKit          3D

 36 37  0  0  0  0  0  0  0  0999 V2000
   -3.4645   -0.4772   -0.8844 N   0  0  0  0  0  0  0  0  0  0  0  0
   -2.4690   -1.1027   -0.2668 C   0  0  0  0  0  0  0  0  0  0  0  0
   -1.5769   -0.5637    0.5351 N   0  0  0  0  0  0  0  0  0  0  0  0
   -1.6588    0.7479    0.7643 C   0  0  0  0  0  0  0  0  0  0  0  0
   -2.6771    1.5430    0.1434 C   0  0  0  0  0  0  0  0  0  0  0  0
   -3.5451    0.8147   -0.6667 C   0  0  0  0  0  0  0  0  0  0  0  0
   -0.7446    1.2559    1.5949 N   0  0  0  0  0  0  0  0  0  0  0  0
    1.4436    0.0885    1.3667 C   0  0  0  0  0  0  0  0  0  0  0  0
    2.4021   -0.7769    1.8882 C   0  0  0  0  0  0  0  0  0  0  0  0
    3.5177   -1.1330    1.1509 C   0  0  0  0  0  0  0  0  0  0  0  0
    3.6672   -0.6225   -0.1315 C   0  0  0  0  0  0  0  0  0  0  0  0
    2.7255    0.2415   -0.6708 C   0  0  0  0  0  0  0  0  0  0  0  0
    1.6187    0.5963    0.0843 C   0  0  0  0  0  0  0  0  0  0  0  0
    5.0782   -1.0728   -1.0953 S   0  0  1  0  0  0  0  0  0  0  0  0
    5.4205    0.0123   -2.0032 O   0  0  0  0  0  0  0  0  0  0  0  0
    6.1040   -1.5587   -0.1822 O   0  0  0  0  0  0  0  0  0  0  0  0
    4.4461   -2.2709   -2.0452 N   0  0  0  0  0  0  0  0  0  0  0  0
   -2.7395    2.9888    0.3522 C   0  0  0  0  0  0  0  0  0  0  0  0
   -3.5985    3.7342   -0.0614 O   0  0  0  0  0  0  0  0  0  0  0  0
   -4.8437    1.5773   -1.4956 Cl  0  0  0  0  0  0  0  0  0  0  0  0
   -2.2694   -2.8163   -0.5002 S   0  0  0  0  0  0  0  0  0  0  0  0
   -3.6307   -3.2305   -1.6071 C   0  0  0  0  0  0  0  0  0  0  0  0
    0.2670    0.4549    2.2383 C   0  0  0  0  0  0  0  0  0  0  0  0
   -0.7723    2.2285    1.8446 H   0  0  0  0  0  0  0  0  0  0  0  0
    2.2799   -1.1770    2.8874 H   0  0  0  0  0  0  0  0  0  0  0  0
    4.2548   -1.7985    1.5786 H   0  0  0  0  0  0  0  0  0  0  0  0
    2.8457    0.6442   -1.6675 H   0  0  0  0  0  0  0  0  0  0  0  0
    0.8982    1.2811   -0.3416 H   0  0  0  0  0  0  0  0  0  0  0  0
    5.0405   -2.4568   -2.8485 H   0  0  0  0  0  0  0  0  0  0  0  0
    4.2837   -3.1304   -1.5307 H   0  0  0  0  0  0  0  0  0  0  0  0
   -1.9060    3.4100    0.9352 H   0  0  0  0  0  0  0  0  0  0  0  0
   -3.5407   -4.2989   -1.7992 H   0  0  0  0  0  0  0  0  0  0  0  0
   -4.5910   -3.0303   -1.1400 H   0  0  0  0  0  0  0  0  0  0  0  0
   -3.5517   -2.6920   -2.5473 H   0  0  0  0  0  0  0  0  0  0  0  0
    0.6248    1.0259    3.0957 H   0  0  0  0  0  0  0  0  0  0  0  0
   -0.1813   -0.4560    2.6355 H   0  0  0  0  0  0  0  0  0  0  0  0
  1  2  2  0
  1  6  1  0
  2  3  1  0
  2 21  1  0
  3  4  2  0
  4  5  1  0
  4  7  1  0
  5  6  2  0
  5 18  1  0
  6 20  1  0
  7 23  1  0
  8  9  2  0
  8 13  1  0
  8 23  1  0
  9 10  1  0
 10 11  2  0
 11 12  1  0
 11 14  1  0
 12 13  2  0
 14 15  2  0
 14 16  2  0
 14 17  1  6
 18 19  2  0
 21 22  1  0
  7 24  1  0
  9 25  1  0
 10 26  1  0
 12 27  1  0
 13 28  1  0
 17 29  1  0
 17 30  1  0
 18 31  1  0
 22 32  1  0
 22 33  1  0
 22 34  1  0
 23 35  1  0
 23 36  1  0
M  END
