
     RDKit          3D

 47 49  0  0  0  0  0  0  0  0999 V2000
    5.0333   -3.9725   -1.0690 N   0  0  0  0  0  0  0  0  0  0  0  0
    4.6192   -2.9184   -0.8563 C   0  0  0  0  0  0  0  0  0  0  0  0
    4.1013   -1.6147   -0.5898 C   0  0  0  0  0  0  0  0  0  0  0  0
    4.9573   -0.6149   -0.1420 C   0  0  0  0  0  0  0  0  0  0  0  0
    4.4522    0.6528    0.1230 C   0  0  0  0  0  0  0  0  0  0  0  0
    5.3661    1.7373    0.6261 C   0  0  0  0  0  0  0  0  0  0  0  0
    6.5451    1.8573   -0.2040 N   0  0  0  0  0  0  0  0  0  0  0  0
    7.4929    2.8255    0.3068 C   0  0  0  0  0  0  0  0  0  0  0  0
    2.7425   -1.3639   -0.7869 C   0  0  0  0  0  0  0  0  0  0  0  0
    2.2309   -0.1009   -0.5383 C   0  0  0  0  0  0  0  0  0  0  0  0
    3.1003    0.8909   -0.0849 C   0  0  0  0  0  0  0  0  0  0  0  0
    0.7682    0.1883   -0.7154 C   0  0  0  0  0  0  0  0  0  0  0  0
    0.0065    0.1106    0.6157 C   0  0  0  0  0  0  0  0  0  0  0  0
   -1.4622    0.3733    0.4433 C   0  0  0  0  0  0  0  0  0  0  0  0
   -2.3850   -0.6343    0.5840 C   0  0  0  0  0  0  0  0  0  0  0  0
   -1.9121    1.6670    0.1052 C   0  0  0  0  0  0  0  0  0  0  0  0
   -3.2447    1.9161   -0.0905 C   0  0  0  0  0  0  0  0  0  0  0  0
   -4.2016    0.8917    0.0488 C   0  0  0  0  0  0  0  0  0  0  0  0
   -5.6027    1.0923   -0.1443 C   0  0  0  0  0  0  0  0  0  0  0  0
   -6.1389    2.4324   -0.5357 C   0  0  0  0  0  0  0  0  0  0  0  0
   -6.4317    0.0287    0.0371 C   0  0  0  0  0  0  0  0  0  0  0  0
   -5.8954   -1.2411    0.4026 C   0  0  0  0  0  0  0  0  0  0  0  0
   -6.7476   -2.2766    0.6270 N   0  0  0  0  0  0  0  0  0  0  0  0
   -4.6133   -1.4501    0.5710 N   0  0  0  0  0  0  0  0  0  0  0  0
   -3.7657   -0.4075    0.4008 C   0  0  0  0  0  0  0  0  0  0  0  0
    6.0106   -0.8191   -0.0032 H   0  0  0  0  0  0  0  0  0  0  0  0
    4.8004    2.6768    0.7211 H   0  0  0  0  0  0  0  0  0  0  0  0
    5.6923    1.4809    1.6392 H   0  0  0  0  0  0  0  0  0  0  0  0
    6.2652    2.1257   -1.1387 H   0  0  0  0  0  0  0  0  0  0  0  0
    7.8988    2.4814    1.2598 H   0  0  0  0  0  0  0  0  0  0  0  0
    8.3256    2.9241   -0.3884 H   0  0  0  0  0  0  0  0  0  0  0  0
    7.0725    3.8271    0.4707 H   0  0  0  0  0  0  0  0  0  0  0  0
    2.0967   -2.1577   -1.1396 H   0  0  0  0  0  0  0  0  0  0  0  0
    2.7096    1.8852    0.1056 H   0  0  0  0  0  0  0  0  0  0  0  0
    0.6399    1.1807   -1.1541 H   0  0  0  0  0  0  0  0  0  0  0  0
    0.3277   -0.5179   -1.4222 H   0  0  0  0  0  0  0  0  0  0  0  0
    0.1595   -0.8757    1.0578 H   0  0  0  0  0  0  0  0  0  0  0  0
    0.4341    0.8310    1.3193 H   0  0  0  0  0  0  0  0  0  0  0  0
   -2.0669   -1.6357    0.8500 H   0  0  0  0  0  0  0  0  0  0  0  0
   -1.1980    2.4750    0.0037 H   0  0  0  0  0  0  0  0  0  0  0  0
   -3.5623    2.9174   -0.3507 H   0  0  0  0  0  0  0  0  0  0  0  0
   -5.9179    3.1853    0.2222 H   0  0  0  0  0  0  0  0  0  0  0  0
   -5.6963    2.7769   -1.4712 H   0  0  0  0  0  0  0  0  0  0  0  0
   -7.2181    2.4038   -0.6688 H   0  0  0  0  0  0  0  0  0  0  0  0
   -7.5012    0.1403   -0.0930 H   0  0  0  0  0  0  0  0  0  0  0  0
   -7.6790   -2.2314    0.2559 H   0  0  0  0  0  0  0  0  0  0  0  0
   -6.3537   -3.2005    0.6612 H   0  0  0  0  0  0  0  0  0  0  0  0
 20 19  1  0
 19 21  2  0
 19 18  1  0
 21 22  1  0
 17 18  2  0
 17 16  1  0
 18 25  1  0
 22 23  1  0
 22 24  2  0
 16 14  2  0
 25 24  1  0
 25 15  2  0
 14 15  1  0
 14 13  1  0
 12 13  1  0
 12 10  1  0
  9 10  1  0
  9  3  2  0
 10 11  2  0
  1  2  3  0
  2  3  1  0
  3  4  1  0
 11  5  1  0
  4  5  2  0
  5  6  1  0
  8  7  1  0
  6  7  1  0
  4 26  1  0
  6 27  1  0
  6 28  1  0
  7 29  1  0
  8 30  1  0
  8 31  1  0
  8 32  1  0
  9 33  1  0
 11 34  1  0
 12 35  1  0
 12 36  1  0
 13 37  1  0
 13 38  1  0
 15 39  1  0
 16 40  1  0
 17 41  1  0
 20 42  1  0
 20 43  1  0
 20 44  1  0
 21 45  1  0
 23 46  1  0
 23 47  1  0
M  END
