
     RDKit          3D

 27 26  0  0  0  0  0  0  0  0999 V2000
   -0.0895    1.9730   -1.0524 O   0  0  0  0  0  0  0  0  0  0  0  0
   -0.1957    1.2901    0.0791 C   0  0  0  0  0  0  0  0  0  0  0  0
   -0.3225    1.8159    1.1582 O   0  0  0  0  0  0  0  0  0  0  0  0
   -0.1008   -0.2071   -0.1188 C   0  0  1  0  0  0  0  0  0  0  0  0
    1.1934   -0.7177    0.5318 C   0  0  0  0  0  0  0  0  0  0  0  0
    2.4872   -0.0786    0.0189 C   0  0  1  0  0  0  0  0  0  0  0  0
    3.6717   -0.6318    0.8057 C   0  0  0  0  0  0  0  0  0  0  0  0
    2.6905   -0.3035   -1.4763 C   0  0  0  0  0  0  0  0  0  0  0  0
   -1.3478   -0.8753    0.4764 C   0  0  1  0  0  0  0  0  0  0  0  0
   -2.8685   -0.1163   -0.2115 S   0  0  0  0  0  0  0  0  0  0  0  0
   -1.3680   -2.3834    0.2908 C   0  0  0  0  0  0  0  0  0  0  0  0
   -0.1322    2.9244   -0.8700 H   0  0  0  0  0  0  0  0  0  0  0  0
   -0.0783   -0.4285   -1.1898 H   0  0  0  0  0  0  0  0  0  0  0  0
    1.1225   -0.5736    1.6145 H   0  0  0  0  0  0  0  0  0  0  0  0
    1.2619   -1.7966    0.3690 H   0  0  0  0  0  0  0  0  0  0  0  0
    2.4475    1.0019    0.2013 H   0  0  0  0  0  0  0  0  0  0  0  0
    3.7666   -1.7108    0.6591 H   0  0  0  0  0  0  0  0  0  0  0  0
    4.6074   -0.1712    0.4847 H   0  0  0  0  0  0  0  0  0  0  0  0
    3.5609   -0.4509    1.8761 H   0  0  0  0  0  0  0  0  0  0  0  0
    1.9061    0.1555   -2.0783 H   0  0  0  0  0  0  0  0  0  0  0  0
    3.6399    0.1221   -1.8047 H   0  0  0  0  0  0  0  0  0  0  0  0
    2.7081   -1.3711   -1.7096 H   0  0  0  0  0  0  0  0  0  0  0  0
   -1.4059   -0.6403    1.5422 H   0  0  0  0  0  0  0  0  0  0  0  0
   -2.6854   -0.5116   -1.4782 H   0  0  0  0  0  0  0  0  0  0  0  0
   -0.5357   -2.8585    0.8102 H   0  0  0  0  0  0  0  0  0  0  0  0
   -2.2895   -2.8047    0.6895 H   0  0  0  0  0  0  0  0  0  0  0  0
   -1.3028   -2.6518   -0.7654 H   0  0  0  0  0  0  0  0  0  0  0  0
  3  2  2  0
  1  2  1  0
  2  4  1  0
  8  6  1  0
 10  9  1  0
  6  5  1  0
  6  7  1  0
  4  9  1  0
  4  5  1  0
  9 11  1  0
  1 12  1  0
  4 13  1  6
  5 14  1  0
  5 15  1  0
  6 16  1  6
  7 17  1  0
  7 18  1  0
  7 19  1  0
  8 20  1  0
  8 21  1  0
  8 22  1  0
  9 23  1  1
 10 24  1  0
 11 25  1  0
 11 26  1  0
 11 27  1  0
M  END
