
     RDKit          3D

 59 62  0  0  0  0  0  0  0  0999 V2000
    4.6642    1.8950   -3.8537 C   0  0  0  0  0  0  0  0  0  0  0  0
   -1.1445   -3.0713    0.2100 C   0  0  0  0  0  0  0  0  0  0  0  0
    5.9415    2.5041    0.5893 O   0  0  0  0  0  0  0  0  0  0  0  0
    4.5902    0.6084   -1.3680 C   0  0  0  0  0  0  0  0  0  0  0  0
    3.5322    0.5404   -2.2677 C   0  0  0  0  0  0  0  0  0  0  0  0
    2.3912   -0.2008   -1.9512 C   0  0  0  0  0  0  0  0  0  0  0  0
   -0.1523   -1.0094   -0.3613 C   0  0  0  0  0  0  0  0  0  0  0  0
    1.1189   -3.0226   -0.1517 C   0  0  0  0  0  0  0  0  0  0  0  0
    1.0792   -1.6317   -0.4061 C   0  0  0  0  0  0  0  0  0  0  0  0
    2.2987   -0.8638   -0.7378 C   0  0  0  0  0  0  0  0  0  0  0  0
    3.3467   -0.7732    0.1809 C   0  0  0  0  0  0  0  0  0  0  0  0
    4.4804   -0.0439   -0.1429 C   0  0  0  0  0  0  0  0  0  0  0  0
    4.4777    1.7344    2.6254 C   0  0  0  0  0  0  0  0  0  0  0  0
   -1.3163   -1.7183   -0.0528 C   0  0  0  0  0  0  0  0  0  0  0  0
   -2.6368   -1.0729    0.0125 C   0  0  0  0  0  0  0  0  0  0  0  0
   -3.7873   -1.7208   -0.4294 C   0  0  0  0  0  0  0  0  0  0  0  0
   -5.0376   -1.1238   -0.3531 C   0  0  0  0  0  0  0  0  0  0  0  0
   -2.7917    0.2192    0.5229 C   0  0  0  0  0  0  0  0  0  0  0  0
   -4.0292    0.8284    0.5885 C   0  0  0  0  0  0  0  0  0  0  0  0
   -5.1908    0.1705    0.1557 C   0  0  0  0  0  0  0  0  0  0  0  0
   -7.5569    0.1744   -0.4250 C   0  0  0  0  0  0  0  0  0  0  0  0
   -8.7045    1.1576   -0.5729 C   0  0  0  0  0  0  0  0  0  0  0  0
   -7.9465    2.3889    1.3127 C   0  0  0  0  0  0  0  0  0  0  0  0
   -6.7863    1.4293    1.4884 C   0  0  0  0  0  0  0  0  0  0  0  0
    5.5641    0.0204    0.7688 N   0  0  0  0  0  0  0  0  0  0  0  0
    0.0188   -3.7036    0.1593 N   0  0  0  0  0  0  0  0  0  0  0  0
   -6.4241    0.8184    0.2134 N   0  0  0  0  0  0  0  0  0  0  0  0
   -9.0702    1.6872    0.7251 N   0  0  0  0  0  0  0  0  0  0  0  0
    7.0434    1.1673    2.4080 O   0  0  0  0  0  0  0  0  0  0  0  0
    3.5332    1.1347   -3.4718 O   0  0  0  0  0  0  0  0  0  0  0  0
    5.8834    1.4425    1.5785 S   0  0  1  0  0  0  0  0  0  0  0  0
    4.4510    2.2875   -4.8445 H   0  0  0  0  0  0  0  0  0  0  0  0
    4.8406    2.7319   -3.1734 H   0  0  0  0  0  0  0  0  0  0  0  0
    5.5680    1.2830   -3.9038 H   0  0  0  0  0  0  0  0  0  0  0  0
   -1.9971   -3.6810    0.4942 H   0  0  0  0  0  0  0  0  0  0  0  0
    5.5021    1.1354   -1.6055 H   0  0  0  0  0  0  0  0  0  0  0  0
    1.5848   -0.2669   -2.6711 H   0  0  0  0  0  0  0  0  0  0  0  0
   -0.2069    0.0525   -0.5727 H   0  0  0  0  0  0  0  0  0  0  0  0
    3.2693   -1.2504    1.1509 H   0  0  0  0  0  0  0  0  0  0  0  0
    4.3945    0.9257    3.3477 H   0  0  0  0  0  0  0  0  0  0  0  0
    4.6346    2.6810    3.1397 H   0  0  0  0  0  0  0  0  0  0  0  0
    3.5783    1.7915    2.0158 H   0  0  0  0  0  0  0  0  0  0  0  0
   -3.7177   -2.7165   -0.8512 H   0  0  0  0  0  0  0  0  0  0  0  0
   -5.8931   -1.6891   -0.6963 H   0  0  0  0  0  0  0  0  0  0  0  0
   -1.9279    0.7639    0.8856 H   0  0  0  0  0  0  0  0  0  0  0  0
   -4.0889    1.8383    0.9728 H   0  0  0  0  0  0  0  0  0  0  0  0
   -7.8998   -0.7051    0.1413 H   0  0  0  0  0  0  0  0  0  0  0  0
   -7.2655   -0.1680   -1.4188 H   0  0  0  0  0  0  0  0  0  0  0  0
   -8.4034    1.9436   -1.2834 H   0  0  0  0  0  0  0  0  0  0  0  0
   -9.5584    0.6360   -1.0084 H   0  0  0  0  0  0  0  0  0  0  0  0
   -8.2314    2.7796    2.2912 H   0  0  0  0  0  0  0  0  0  0  0  0
   -7.6084    3.2424    0.7036 H   0  0  0  0  0  0  0  0  0  0  0  0
   -5.9387    1.9750    1.8979 H   0  0  0  0  0  0  0  0  0  0  0  0
   -7.0586    0.6541    2.2196 H   0  0  0  0  0  0  0  0  0  0  0  0
    3.1530   -3.2674   -0.2666 H   0  0  0  0  0  0  0  0  0  0  0  0
    2.2710   -4.6579    0.1437 H   0  0  0  0  0  0  0  0  0  0  0  0
    5.6314   -0.7789    1.3916 H   0  0  0  0  0  0  0  0  0  0  0  0
   -9.8569    2.3156    0.6304 H   0  0  0  0  0  0  0  0  0  0  0  0
    2.2670   -3.7423   -0.2737 N   0  0  0  0  0  0  0  0  0  0  0  0
 22 28  1  0
 22 21  1  0
 28 23  1  0
 21 27  1  0
 23 24  1  0
 27 24  1  0
 27 20  1  0
 19 20  2  0
 19 18  1  0
 20 17  1  0
 18 15  2  0
 17 16  2  0
 15 16  1  0
 15 14  1  0
  2 14  2  0
  2 26  1  0
 14  7  1  0
 26  8  2  0
  7  9  2  0
  8  9  1  0
  8 59  1  0
  9 10  1  0
 10  6  2  0
 10 11  1  0
  6  5  1  0
 11 12  2  0
  5 30  1  0
  5  4  2  0
 12  4  1  0
 12 25  1  0
 30  1  1  0
 13 31  1  0
 29 31  2  0
 31 25  1  6
 31  3  2  0
  1 32  1  0
  1 33  1  0
  1 34  1  0
  2 35  1  0
  4 36  1  0
  6 37  1  0
  7 38  1  0
 11 39  1  0
 13 40  1  0
 13 41  1  0
 13 42  1  0
 16 43  1  0
 17 44  1  0
 18 45  1  0
 19 46  1  0
 21 47  1  0
 21 48  1  0
 22 49  1  0
 22 50  1  0
 23 51  1  0
 23 52  1  0
 24 53  1  0
 24 54  1  0
 59 55  1  0
 59 56  1  0
 25 57  1  0
 28 58  1  0
M  END
