
     RDKit          3D

 32 33  0  0  0  0  0  0  0  0999 V2000
   -3.5714   -0.1706   -0.1495 C   0  0  0  0  0  0  0  0  0  0  0  0
    3.0891   -0.0855    0.1729 C   0  0  0  0  0  0  0  0  0  0  0  0
    1.8949    0.5929   -0.0205 C   0  0  0  0  0  0  0  0  0  0  0  0
    1.4435    0.9515   -1.4019 C   0  0  0  0  0  0  0  0  0  0  0  0
    1.6310    2.2344   -1.6500 O   0  0  0  0  0  0  0  0  0  0  0  0
    0.9876    0.1569   -2.1785 O   0  0  0  0  0  0  0  0  0  0  0  0
    1.1118    0.8977    1.0911 C   0  0  0  0  0  0  0  0  0  0  0  0
   -0.4265    1.7540    0.8957 S   0  0  0  0  0  0  0  0  0  0  0  0
   -1.4859    0.4250    0.4097 C   0  0  0  0  0  0  0  0  0  0  0  0
   -2.7400    0.7935    0.2283 N   0  0  0  0  0  0  0  0  0  0  0  0
   -4.8471    0.1137   -0.3456 O   0  0  0  0  0  0  0  0  0  0  0  0
   -5.2890    1.4530   -0.1422 C   0  0  0  0  0  0  0  0  0  0  0  0
   -3.1568   -1.4818   -0.3577 C   0  0  0  0  0  0  0  0  0  0  0  0
   -1.8072   -1.7209   -0.1359 C   0  0  0  0  0  0  0  0  0  0  0  0
   -1.3387   -2.9411   -0.3307 O   0  0  0  0  0  0  0  0  0  0  0  0
    0.0631   -3.1547   -0.1642 C   0  0  0  0  0  0  0  0  0  0  0  0
   -0.9705   -0.7704    0.2617 N   0  0  0  0  0  0  0  0  0  0  0  0
    1.5302    0.5469    2.3653 C   0  0  0  0  0  0  0  0  0  0  0  0
    2.7367   -0.1157    2.5375 C   0  0  0  0  0  0  0  0  0  0  0  0
    3.5207   -0.4379    1.4426 C   0  0  0  0  0  0  0  0  0  0  0  0
    1.3191    2.4566   -2.5419 H   0  0  0  0  0  0  0  0  0  0  0  0
   -4.7857    2.1487   -0.8134 H   0  0  0  0  0  0  0  0  0  0  0  0
   -6.3532    1.4472   -0.3601 H   0  0  0  0  0  0  0  0  0  0  0  0
   -5.1318    1.7759    0.8867 H   0  0  0  0  0  0  0  0  0  0  0  0
   -3.8382   -2.2580   -0.6752 H   0  0  0  0  0  0  0  0  0  0  0  0
    0.3768   -2.9728    0.8635 H   0  0  0  0  0  0  0  0  0  0  0  0
    0.2331   -4.1970   -0.4179 H   0  0  0  0  0  0  0  0  0  0  0  0
    0.6440   -2.5126   -0.8260 H   0  0  0  0  0  0  0  0  0  0  0  0
    0.9118    0.7857    3.2197 H   0  0  0  0  0  0  0  0  0  0  0  0
    3.0686   -0.3862    3.5303 H   0  0  0  0  0  0  0  0  0  0  0  0
    4.4609   -0.9559    1.5721 H   0  0  0  0  0  0  0  0  0  0  0  0
    4.0809   -0.4744   -1.1906 Cl  0  0  0  0  0  0  0  0  0  0  0  0
 19 18  2  0
 19 20  1  0
 18  7  1  0
 16 15  1  0
 20  2  2  0
  7  8  1  0
  7  3  2  0
  8  9  1  0
 17  9  2  0
 17 14  1  0
  2  3  1  0
  2 32  1  0
  3  4  1  0
 15 14  1  0
  9 10  1  0
  6  4  2  0
 14 13  2  0
  4  5  1  0
 10  1  2  0
 13  1  1  0
  1 11  1  0
 11 12  1  0
  5 21  1  0
 12 22  1  0
 12 23  1  0
 12 24  1  0
 13 25  1  0
 16 26  1  0
 16 27  1  0
 16 28  1  0
 18 29  1  0
 19 30  1  0
 20 31  1  0
M  END
