
     RDKit          3D

 33 34  0  0  0  0  0  0  0  0999 V2000
   -1.4396    4.6649    0.0439 O   0  0  0  0  0  0  0  0  0  0  0  0
   -1.7618    3.5010    0.0513 N   0  0  0  0  0  0  0  0  0  0  0  0
   -2.8904    3.1131    0.2392 O   0  0  0  0  0  0  0  0  0  0  0  0
   -0.7241    2.5050   -0.1795 C   0  0  0  0  0  0  0  0  0  0  0  0
    0.5708    2.9255   -0.4244 C   0  0  0  0  0  0  0  0  0  0  0  0
    1.5409    1.9640   -0.6478 C   0  0  0  0  0  0  0  0  0  0  0  0
    1.2286    0.6133   -0.6087 C   0  0  0  0  0  0  0  0  0  0  0  0
    2.2274   -0.3524   -0.8363 N   0  0  0  0  0  0  0  0  0  0  0  0
    3.3472   -0.6701    0.3611 S   0  0  1  0  0  0  0  0  0  0  0  0
    4.2697   -1.6328   -0.2110 O   0  0  0  0  0  0  0  0  0  0  0  0
    3.8339    0.6122    0.8358 O   0  0  0  0  0  0  0  0  0  0  0  0
    2.4450   -1.4507    1.6778 C   0  0  0  0  0  0  0  0  0  0  0  0
   -1.0793    1.1642   -0.1472 C   0  0  0  0  0  0  0  0  0  0  0  0
   -0.0928    0.2162   -0.3549 C   0  0  0  0  0  0  0  0  0  0  0  0
   -0.3095   -1.1166   -0.3281 O   0  0  0  0  0  0  0  0  0  0  0  0
   -1.5795   -1.5902   -0.0692 C   0  0  0  0  0  0  0  0  0  0  0  0
   -2.4448   -1.8171   -1.1270 C   0  0  0  0  0  0  0  0  0  0  0  0
   -3.7070   -2.3316   -0.8630 C   0  0  0  0  0  0  0  0  0  0  0  0
   -4.0925   -2.6075    0.4425 C   0  0  0  0  0  0  0  0  0  0  0  0
   -3.2114   -2.3718    1.4899 C   0  0  0  0  0  0  0  0  0  0  0  0
   -1.9461   -1.8579    1.2395 C   0  0  0  0  0  0  0  0  0  0  0  0
    0.8312    3.9724   -0.4617 H   0  0  0  0  0  0  0  0  0  0  0  0
    2.5530    2.2661   -0.8730 H   0  0  0  0  0  0  0  0  0  0  0  0
    1.9194   -1.1999   -1.3039 H   0  0  0  0  0  0  0  0  0  0  0  0
    1.6693   -0.7780    2.0374 H   0  0  0  0  0  0  0  0  0  0  0  0
    2.0098   -2.3783    1.3147 H   0  0  0  0  0  0  0  0  0  0  0  0
    3.1487   -1.6571    2.4827 H   0  0  0  0  0  0  0  0  0  0  0  0
   -2.0989    0.8683    0.0530 H   0  0  0  0  0  0  0  0  0  0  0  0
   -2.1346   -1.6009   -2.1414 H   0  0  0  0  0  0  0  0  0  0  0  0
   -4.3891   -2.5164   -1.6822 H   0  0  0  0  0  0  0  0  0  0  0  0
   -5.0764   -3.0094    0.6444 H   0  0  0  0  0  0  0  0  0  0  0  0
   -3.5075   -2.5866    2.5078 H   0  0  0  0  0  0  0  0  0  0  0  0
   -1.2529   -1.6757    2.0512 H   0  0  0  0  0  0  0  0  0  0  0  0
  1  2  1  0
  2  3  2  0
  2  4  1  0
  4  5  2  0
  4 13  1  0
  5  6  1  0
  5 22  1  0
  6  7  2  0
  6 23  1  0
  7  8  1  0
  7 14  1  0
  9  8  1  6
  8 24  1  0
  9 10  2  0
  9 11  2  0
  9 12  1  0
 12 25  1  0
 12 26  1  0
 12 27  1  0
 13 14  2  0
 13 28  1  0
 14 15  1  0
 15 16  1  0
 16 17  2  0
 16 21  1  0
 17 18  1  0
 17 29  1  0
 18 19  2  0
 18 30  1  0
 19 20  1  0
 19 31  1  0
 20 21  2  0
 20 32  1  0
 21 33  1  0
M  CHG  2   1  -1   2   1
M  END
