
     RDKit          3D

 31 32  0  0  0  0  0  0  0  0999 V2000
   -3.1589   -0.1236    0.0980 C   0  0  0  0  0  0  0  0  0  0  0  0
   -1.0835    2.8044   -0.0470 F   0  0  0  0  0  0  0  0  0  0  0  0
   -5.0707   -1.1338   -1.4110 N   0  0  0  0  0  0  0  0  0  0  0  0
   -5.0649   -1.7085    1.0016 O   0  0  0  0  0  0  0  0  0  0  0  0
   -4.8689   -0.5631    0.1260 S   0  0  1  0  0  0  0  0  0  0  0  0
   -2.7959    1.2139    0.0331 C   0  0  0  0  0  0  0  0  0  0  0  0
   -5.6332    0.6489    0.3893 O   0  0  0  0  0  0  0  0  0  0  0  0
   -1.4573    1.5169    0.0158 C   0  0  0  0  0  0  0  0  0  0  0  0
   -0.4508    0.5478    0.0637 C   0  0  0  0  0  0  0  0  0  0  0  0
   -0.8525   -0.7888    0.1338 C   0  0  0  0  0  0  0  0  0  0  0  0
   -2.1965   -1.1189    0.1510 C   0  0  0  0  0  0  0  0  0  0  0  0
    0.8620    0.9898    0.0339 N   0  0  0  0  0  0  0  0  0  0  0  0
    2.0097    0.2545    0.1008 C   0  0  0  0  0  0  0  0  0  0  0  0
    2.0404   -0.9528    0.1871 O   0  0  0  0  0  0  0  0  0  0  0  0
    3.2591    1.1207    0.0760 C   0  0  0  0  0  0  0  0  0  0  0  0
    4.5069    0.3473   -0.1665 C   0  0  0  0  0  0  0  0  0  0  0  0
    5.2755    0.3433   -1.2921 C   0  0  0  0  0  0  0  0  0  0  0  0
    6.4060   -0.5135   -1.1928 C   0  0  0  0  0  0  0  0  0  0  0  0
    6.4750   -1.1461    0.0100 C   0  0  0  0  0  0  0  0  0  0  0  0
    5.1653   -0.7070    1.0241 S   0  0  0  0  0  0  0  0  0  0  0  0
   -5.9348   -1.6618   -1.4973 H   0  0  0  0  0  0  0  0  0  0  0  0
   -5.0418   -0.3974   -2.1088 H   0  0  0  0  0  0  0  0  0  0  0  0
   -3.5270    2.0102   -0.0027 H   0  0  0  0  0  0  0  0  0  0  0  0
   -0.1197   -1.5757    0.1748 H   0  0  0  0  0  0  0  0  0  0  0  0
   -2.4767   -2.1619    0.2060 H   0  0  0  0  0  0  0  0  0  0  0  0
    0.9851    1.9887   -0.0400 H   0  0  0  0  0  0  0  0  0  0  0  0
    3.1585    1.8846   -0.6986 H   0  0  0  0  0  0  0  0  0  0  0  0
    3.3050    1.6628    1.0270 H   0  0  0  0  0  0  0  0  0  0  0  0
    5.0429    0.9395   -2.1640 H   0  0  0  0  0  0  0  0  0  0  0  0
    7.1314   -0.6504   -1.9816 H   0  0  0  0  0  0  0  0  0  0  0  0
    7.2208   -1.8468    0.3525 H   0  0  0  0  0  0  0  0  0  0  0  0
  6  1  2  0
 11  1  1  0
  1  5  1  0
  2  8  1  0
  5  3  1  6
  3 21  1  0
  3 22  1  0
  5  4  2  0
  7  5  2  0
  8  6  1  0
  6 23  1  0
  9  8  2  0
 12  9  1  0
  9 10  1  0
 10 11  2  0
 10 24  1  0
 11 25  1  0
 13 12  1  0
 12 26  1  0
 15 13  1  0
 13 14  2  0
 15 16  1  0
 15 27  1  0
 15 28  1  0
 17 16  2  0
 16 20  1  0
 17 18  1  0
 17 29  1  0
 18 19  2  0
 18 30  1  0
 20 19  1  0
 19 31  1  0
M  END
