
     RDKit          3D

 41 43  0  0  0  0  0  0  0  0999 V2000
   -1.2713    0.3156    5.3245 N   0  0  0  0  0  0  0  0  0  0  0  0
   -0.0786   -0.4864    5.4423 C   0  0  1  0  0  0  0  0  0  0  0  0
    0.9057   -0.4411    4.2627 C   0  0  0  0  0  0  0  0  0  0  0  0
    0.0874   -0.5549    2.7053 S   0  0  0  0  0  0  0  0  0  0  0  0
    0.0921    1.1220    2.1450 C   0  0  0  0  0  0  0  0  0  0  0  0
   -0.3422    1.2146    0.6934 C   0  0  0  0  0  0  0  0  0  0  0  0
   -1.1043    2.1320    0.3393 O   0  0  0  0  0  0  0  0  0  0  0  0
    0.1577    0.2465   -0.1610 N   0  0  0  0  0  0  0  0  0  0  0  0
   -0.1082    0.1325   -1.5401 C   0  0  0  0  0  0  0  0  0  0  0  0
   -1.3936    0.1019   -2.0285 C   0  0  0  0  0  0  0  0  0  0  0  0
    1.0133    0.0479   -2.4672 C   0  0  0  0  0  0  0  0  0  0  0  0
   -1.6594   -0.0129   -3.4224 C   0  0  0  0  0  0  0  0  0  0  0  0
    0.7744   -0.0675   -3.8700 C   0  0  0  0  0  0  0  0  0  0  0  0
    2.3665    0.0743   -2.0372 C   0  0  0  0  0  0  0  0  0  0  0  0
   -2.9982   -0.0428   -3.8947 C   0  0  0  0  0  0  0  0  0  0  0  0
   -0.6054   -0.0994   -4.3695 C   0  0  0  0  0  0  0  0  0  0  0  0
    1.8013   -0.1505   -4.7777 N   0  0  0  0  0  0  0  0  0  0  0  0
    3.3901   -0.0099   -2.9575 C   0  0  0  0  0  0  0  0  0  0  0  0
   -3.2358   -0.1539   -5.2465 C   0  0  0  0  0  0  0  0  0  0  0  0
   -0.8507   -0.2101   -5.7169 N   0  0  0  0  0  0  0  0  0  0  0  0
    3.0500   -0.1220   -4.3303 C   0  0  0  0  0  0  0  0  0  0  0  0
   -2.1157   -0.2348   -6.1205 C   0  0  0  0  0  0  0  0  0  0  0  0
    0.7115   -0.0613    6.6729 C   0  0  0  0  0  0  0  0  0  0  0  0
    0.8241    1.0645    7.1604 O   0  0  0  0  0  0  0  0  0  0  0  0
    1.3617   -1.0858    7.2826 O   0  0  0  0  0  0  0  0  0  0  0  0
   -1.7792    0.0650    4.4980 H   0  0  0  0  0  0  0  0  0  0  0  0
   -1.0610    1.2942    5.3236 H   0  0  0  0  0  0  0  0  0  0  0  0
   -0.4117   -1.5607    5.5868 H   0  0  0  0  0  0  0  0  0  0  0  0
    1.5384    0.4775    4.3229 H   0  0  0  0  0  0  0  0  0  0  0  0
    1.5805   -1.3326    4.3279 H   0  0  0  0  0  0  0  0  0  0  0  0
   -0.6128    1.7446    2.7513 H   0  0  0  0  0  0  0  0  0  0  0  0
    1.1122    1.5721    2.2389 H   0  0  0  0  0  0  0  0  0  0  0  0
    0.7612   -0.4419    0.2364 H   0  0  0  0  0  0  0  0  0  0  0  0
   -2.2651    0.1640   -1.3537 H   0  0  0  0  0  0  0  0  0  0  0  0
    2.6301    0.1611   -0.9729 H   0  0  0  0  0  0  0  0  0  0  0  0
   -3.8237    0.0234   -3.1707 H   0  0  0  0  0  0  0  0  0  0  0  0
    4.4443    0.0082   -2.6511 H   0  0  0  0  0  0  0  0  0  0  0  0
   -4.2540   -0.1809   -5.6565 H   0  0  0  0  0  0  0  0  0  0  0  0
    3.8409   -0.1918   -5.1002 H   0  0  0  0  0  0  0  0  0  0  0  0
   -2.2691   -0.3248   -7.2121 H   0  0  0  0  0  0  0  0  0  0  0  0
    1.8453   -0.7526    8.0571 H   0  0  0  0  0  0  0  0  0  0  0  0
  1  2  1  0
  1 26  1  0
  1 27  1  0
  2  3  1  0
  2 23  1  0
  2 28  1  1
  3  4  1  0
  3 29  1  0
  3 30  1  0
  4  5  1  0
  5  6  1  0
  5 31  1  0
  5 32  1  0
  6  7  2  0
  6  8  1  0
  8  9  1  0
  8 33  1  0
  9 10  2  0
  9 11  1  0
 10 12  1  0
 10 34  1  0
 11 13  2  0
 11 14  1  0
 12 15  2  0
 12 16  1  0
 13 16  1  0
 13 17  1  0
 14 18  2  0
 14 35  1  0
 15 19  1  0
 15 36  1  0
 16 20  2  0
 17 21  2  0
 18 21  1  0
 18 37  1  0
 19 22  2  0
 19 38  1  0
 20 22  1  0
 21 39  1  0
 22 40  1  0
 23 24  2  0
 23 25  1  0
 25 41  1  0
M  END
