
     RDKit          3D

 25 25  0  0  0  0  0  0  0  0999 V2000
    3.8622   -1.0446   -0.1816 C   0  0  0  0  0  0  0  0  0  0  0  0
    3.6221    0.0172   -1.2522 C   0  0  0  0  0  0  0  0  0  0  0  0
    2.5146    0.8657   -0.6295 C   0  0  2  0  0  0  0  0  0  0  0  0
    2.7543    0.8379    0.8134 N   0  0  0  0  0  0  0  0  0  0  0  0
    3.6554   -0.2815    1.1311 C   0  0  0  0  0  0  0  0  0  0  0  0
    1.1349    0.2744   -0.9412 C   0  0  0  0  0  0  0  0  0  0  0  0
    0.1983    0.8748    0.0002 N   0  0  0  0  0  0  0  0  0  0  0  0
   -1.3933    0.7380   -0.0793 S   0  0  1  0  0  0  0  0  0  0  0  0
   -1.9890    1.6004    0.9179 O   0  0  0  0  0  0  0  0  0  0  0  0
   -1.8208    0.7600   -1.4617 O   0  0  0  0  0  0  0  0  0  0  0  0
   -1.7862   -0.9724    0.5014 C   0  0  1  0  0  0  0  0  0  0  0  0
   -3.0971   -1.1150    0.6177 F   0  0  0  0  0  0  0  0  0  0  0  0
   -1.3276   -1.8648   -0.3653 F   0  0  0  0  0  0  0  0  0  0  0  0
   -1.2181   -1.1847    1.6798 F   0  0  0  0  0  0  0  0  0  0  0  0
    3.1378   -1.8561   -0.2770 H   0  0  0  0  0  0  0  0  0  0  0  0
    4.8534   -1.4932   -0.2424 H   0  0  0  0  0  0  0  0  0  0  0  0
    4.5167    0.6274   -1.3928 H   0  0  0  0  0  0  0  0  0  0  0  0
    3.3482   -0.4006   -2.2227 H   0  0  0  0  0  0  0  0  0  0  0  0
    2.5271    1.8986   -0.9830 H   0  0  0  0  0  0  0  0  0  0  0  0
    3.1576    1.7119    1.1147 H   0  0  0  0  0  0  0  0  0  0  0  0
    3.2326   -0.9238    1.9064 H   0  0  0  0  0  0  0  0  0  0  0  0
    4.6089    0.0940    1.5096 H   0  0  0  0  0  0  0  0  0  0  0  0
    0.8486    0.5181   -1.9627 H   0  0  0  0  0  0  0  0  0  0  0  0
    1.1554   -0.8151   -0.8431 H   0  0  0  0  0  0  0  0  0  0  0  0
    0.6126    1.0182    0.9237 H   0  0  0  0  0  0  0  0  0  0  0  0
 10  8  2  0
 11 12  1  1
  8  7  1  6
  7  6  1  0
 13 11  1  0
  3  4  1  0
  3  6  1  0
  3  2  1  0
  8 11  1  0
  8  9  2  0
  4  5  1  0
 11 14  1  0
  2  1  1  0
  5  1  1  0
  1 15  1  0
  1 16  1  0
  2 17  1  0
  2 18  1  0
  3 19  1  6
  4 20  1  0
  5 21  1  0
  5 22  1  0
  6 23  1  0
  6 24  1  0
  7 25  1  0
M  END
