
     RDKit          3D

 96 97  0  0  0  0  0  0  0  0999 V2000
    6.5342    1.1147   -1.4869 C   0  0  0  0  0  0  0  0  0  0  0  0
    7.2749   -0.1899   -1.5718 C   0  0  0  0  0  0  0  0  0  0  0  0
    7.2017   -1.1695   -0.6499 C   0  0  0  0  0  0  0  0  0  0  0  0
    8.0100   -2.4666   -0.7484 C   0  0  1  0  0  0  0  0  0  0  0  0
    8.5582   -2.6633   -2.1659 C   0  0  0  0  0  0  0  0  0  0  0  0
    9.1777   -1.4005   -2.7301 C   0  0  0  0  0  0  0  0  0  0  0  0
    8.1276   -0.3074   -2.8081 C   0  0  0  0  0  0  0  0  0  0  0  0
    9.1669   -2.4274    0.2599 C   0  0  0  0  0  0  0  0  0  0  0  0
    7.1175   -3.6716   -0.4248 C   0  0  0  0  0  0  0  0  0  0  0  0
    6.3849   -1.0655    0.5648 C   0  0  0  0  0  0  0  0  0  0  0  0
    5.1027   -0.6744    0.6329 C   0  0  0  0  0  0  0  0  0  0  0  0
    4.3123   -0.5928    1.8523 C   0  0  0  0  0  0  0  0  0  0  0  0
    3.0395   -0.1413    1.7568 C   0  0  0  0  0  0  0  0  0  0  0  0
    2.1157    0.0668    2.8469 C   0  0  0  0  0  0  0  0  0  0  0  0
    0.8393    0.4766    2.7353 C   0  0  0  0  0  0  0  0  0  0  0  0
    0.0643    0.6620    1.4956 C   0  0  0  0  0  0  0  0  0  0  0  0
   -0.5947    1.8109    1.2399 C   0  0  0  0  0  0  0  0  0  0  0  0
   -0.5398    2.9950    2.0634 C   0  0  0  0  0  0  0  0  0  0  0  0
   -1.2576    4.1289    1.8899 C   0  0  0  0  0  0  0  0  0  0  0  0
   -2.2171    4.3613    0.8421 C   0  0  0  0  0  0  0  0  0  0  0  0
   -3.0145    5.4461    0.7000 C   0  0  0  0  0  0  0  0  0  0  0  0
   -2.9697    6.6512    1.5947 C   0  0  0  0  0  0  0  0  0  0  0  0
   -3.9843    5.5213   -0.3881 C   0  0  0  0  0  0  0  0  0  0  0  0
   -4.7290    4.5212   -0.9066 C   0  0  0  0  0  0  0  0  0  0  0  0
   -4.8156    3.1716   -0.4035 C   0  0  0  0  0  0  0  0  0  0  0  0
   -5.3496    2.0990   -1.0321 C   0  0  0  0  0  0  0  0  0  0  0  0
   -5.9021    2.1310   -2.4240 C   0  0  0  0  0  0  0  0  0  0  0  0
   -5.3497    0.8272   -0.3221 C   0  0  0  0  0  0  0  0  0  0  0  0
   -5.7624   -0.3480   -0.8093 C   0  0  0  0  0  0  0  0  0  0  0  0
   -5.7386   -1.6310   -0.0301 C   0  0  1  0  0  0  0  0  0  0  0  0
   -7.1702   -2.0661    0.2112 C   0  0  0  0  0  0  0  0  0  0  0  0
   -7.7297   -3.0607   -0.4776 C   0  0  0  0  0  0  0  0  0  0  0  0
   -7.0198   -3.8874   -1.5024 C   0  0  0  0  0  0  0  0  0  0  0  0
   -5.6686   -3.3041   -1.8980 C   0  0  0  0  0  0  0  0  0  0  0  0
   -4.8938   -2.7399   -0.7035 C   0  0  2  0  0  0  0  0  0  0  0  0
   -4.6114   -3.8428    0.3193 C   0  0  0  0  0  0  0  0  0  0  0  0
   -3.5563   -2.1790   -1.1837 C   0  0  0  0  0  0  0  0  0  0  0  0
   -7.9154   -1.3033    1.2639 C   0  0  0  0  0  0  0  0  0  0  0  0
   -0.0768   -0.5185    0.5771 C   0  0  0  0  0  0  0  0  0  0  0  0
    4.9558   -1.0136    3.1389 C   0  0  0  0  0  0  0  0  0  0  0  0
    7.1751    1.9320   -1.8244 H   0  0  0  0  0  0  0  0  0  0  0  0
    5.6612    1.1165   -2.1460 H   0  0  0  0  0  0  0  0  0  0  0  0
    6.1851    1.3491   -0.4840 H   0  0  0  0  0  0  0  0  0  0  0  0
    9.2795   -3.4859   -2.1578 H   0  0  0  0  0  0  0  0  0  0  0  0
    7.7402   -2.9784   -2.8236 H   0  0  0  0  0  0  0  0  0  0  0  0
   10.0088   -1.0698   -2.1007 H   0  0  0  0  0  0  0  0  0  0  0  0
    9.5991   -1.5878   -3.7201 H   0  0  0  0  0  0  0  0  0  0  0  0
    7.4673   -0.4801   -3.6678 H   0  0  0  0  0  0  0  0  0  0  0  0
    8.6012    0.6592   -3.0035 H   0  0  0  0  0  0  0  0  0  0  0  0
    8.8063   -2.3367    1.2859 H   0  0  0  0  0  0  0  0  0  0  0  0
    9.7521   -3.3482    0.2033 H   0  0  0  0  0  0  0  0  0  0  0  0
    9.8412   -1.5901    0.0756 H   0  0  0  0  0  0  0  0  0  0  0  0
    6.2538   -3.7115   -1.0914 H   0  0  0  0  0  0  0  0  0  0  0  0
    7.6807   -4.5996   -0.5486 H   0  0  0  0  0  0  0  0  0  0  0  0
    6.7430   -3.6518    0.5997 H   0  0  0  0  0  0  0  0  0  0  0  0
    6.8699   -1.3883    1.4828 H   0  0  0  0  0  0  0  0  0  0  0  0
    4.5877   -0.4033   -0.2838 H   0  0  0  0  0  0  0  0  0  0  0  0
    2.6907    0.1347    0.7667 H   0  0  0  0  0  0  0  0  0  0  0  0
    2.4917   -0.0642    3.8548 H   0  0  0  0  0  0  0  0  0  0  0  0
    0.3115    0.6850    3.6613 H   0  0  0  0  0  0  0  0  0  0  0  0
   -1.2061    1.8430    0.3440 H   0  0  0  0  0  0  0  0  0  0  0  0
    0.1413    2.9731    2.9069 H   0  0  0  0  0  0  0  0  0  0  0  0
   -1.1047    4.9155    2.6194 H   0  0  0  0  0  0  0  0  0  0  0  0
   -2.3075    3.5924    0.0839 H   0  0  0  0  0  0  0  0  0  0  0  0
   -2.9560    7.5658    0.9985 H   0  0  0  0  0  0  0  0  0  0  0  0
   -3.8652    6.7000    2.2185 H   0  0  0  0  0  0  0  0  0  0  0  0
   -2.1044    6.6718    2.2527 H   0  0  0  0  0  0  0  0  0  0  0  0
   -4.1356    6.5122   -0.8076 H   0  0  0  0  0  0  0  0  0  0  0  0
   -5.3522    4.7785   -1.7559 H   0  0  0  0  0  0  0  0  0  0  0  0
   -4.4193    3.0058    0.5939 H   0  0  0  0  0  0  0  0  0  0  0  0
   -5.3172    1.4897   -3.0873 H   0  0  0  0  0  0  0  0  0  0  0  0
   -6.9260    1.7531   -2.4459 H   0  0  0  0  0  0  0  0  0  0  0  0
   -5.9076    3.1286   -2.8565 H   0  0  0  0  0  0  0  0  0  0  0  0
   -4.9552    0.8532    0.6912 H   0  0  0  0  0  0  0  0  0  0  0  0
   -6.1624   -0.4068   -1.8182 H   0  0  0  0  0  0  0  0  0  0  0  0
   -5.2839   -1.4121    0.9457 H   0  0  0  0  0  0  0  0  0  0  0  0
   -8.7623   -3.3268   -0.2675 H   0  0  0  0  0  0  0  0  0  0  0  0
   -6.8992   -4.9049   -1.1115 H   0  0  0  0  0  0  0  0  0  0  0  0
   -7.6499   -3.9986   -2.3896 H   0  0  0  0  0  0  0  0  0  0  0  0
   -5.0647   -4.0679   -2.3968 H   0  0  0  0  0  0  0  0  0  0  0  0
   -5.8170   -2.5091   -2.6359 H   0  0  0  0  0  0  0  0  0  0  0  0
   -4.0499   -4.6596   -0.1404 H   0  0  0  0  0  0  0  0  0  0  0  0
   -4.0104   -3.4575    1.1463 H   0  0  0  0  0  0  0  0  0  0  0  0
   -5.5233   -4.2618    0.7454 H   0  0  0  0  0  0  0  0  0  0  0  0
   -3.6862   -1.4362   -1.9720 H   0  0  0  0  0  0  0  0  0  0  0  0
   -3.0094   -1.6997   -0.3681 H   0  0  0  0  0  0  0  0  0  0  0  0
   -2.9286   -2.9802   -1.5805 H   0  0  0  0  0  0  0  0  0  0  0  0
   -7.8696   -0.2267    1.0845 H   0  0  0  0  0  0  0  0  0  0  0  0
   -8.9646   -1.5950    1.3109 H   0  0  0  0  0  0  0  0  0  0  0  0
   -7.4757   -1.4739    2.2504 H   0  0  0  0  0  0  0  0  0  0  0  0
   -0.5616   -1.3496    1.0952 H   0  0  0  0  0  0  0  0  0  0  0  0
   -0.6768   -0.2708   -0.2981 H   0  0  0  0  0  0  0  0  0  0  0  0
    0.8862   -0.8934    0.2293 H   0  0  0  0  0  0  0  0  0  0  0  0
    5.8252   -0.3931    3.3655 H   0  0  0  0  0  0  0  0  0  0  0  0
    4.2820   -0.9597    3.9895 H   0  0  0  0  0  0  0  0  0  0  0  0
    5.3134   -2.0432    3.0724 H   0  0  0  0  0  0  0  0  0  0  0  0
 35 36  1  1
 33 34  1  0
 33 32  1  0
 34 35  1  0
 35 37  1  0
 35 30  1  0
 32 31  2  0
 30 31  1  0
 30 29  1  0
 31 38  1  0
 29 28  2  0
 28 26  1  0
 27 26  1  0
 26 25  2  0
 25 24  1  0
 24 23  2  0
 22 21  1  0
 23 21  1  0
 21 20  2  0
 20 19  1  0
 19 18  2  0
 18 17  1  0
 17 16  2  0
 16 15  1  0
 16 39  1  0
 15 14  2  0
 14 13  1  0
 13 12  2  0
 40 12  1  0
 12 11  1  0
 11 10  2  0
  4  9  1  1
  8  4  1  0
 10  3  1  0
  4  3  1  0
  4  5  1  0
  3  2  2  0
  2  1  1  0
  2  7  1  0
  5  6  1  0
  6  7  1  0
  1 41  1  0
  1 42  1  0
  1 43  1  0
  5 44  1  0
  5 45  1  0
  6 46  1  0
  6 47  1  0
  7 48  1  0
  7 49  1  0
  8 50  1  0
  8 51  1  0
  8 52  1  0
  9 53  1  0
  9 54  1  0
  9 55  1  0
 10 56  1  0
 11 57  1  0
 13 58  1  0
 14 59  1  0
 15 60  1  0
 17 61  1  0
 18 62  1  0
 19 63  1  0
 20 64  1  0
 22 65  1  0
 22 66  1  0
 22 67  1  0
 23 68  1  0
 24 69  1  0
 25 70  1  0
 27 71  1  0
 27 72  1  0
 27 73  1  0
 28 74  1  0
 29 75  1  0
 30 76  1  1
 32 77  1  0
 33 78  1  0
 33 79  1  0
 34 80  1  0
 34 81  1  0
 36 82  1  0
 36 83  1  0
 36 84  1  0
 37 85  1  0
 37 86  1  0
 37 87  1  0
 38 88  1  0
 38 89  1  0
 38 90  1  0
 39 91  1  0
 39 92  1  0
 39 93  1  0
 40 94  1  0
 40 95  1  0
 40 96  1  0
M  END
