
     RDKit          3D

 46 47  0  0  0  0  0  0  0  0999 V2000
    5.1393    3.1666    0.6502 N   0  0  0  0  0  0  0  0  0  0  0  0
    5.0457    1.8842    0.1933 C   0  0  0  0  0  0  0  0  0  0  0  0
    6.2037    1.1456   -0.1094 C   0  0  0  0  0  0  0  0  0  0  0  0
    6.0722   -0.1282   -0.6218 C   0  0  0  0  0  0  0  0  0  0  0  0
    7.2722   -0.9661   -0.9407 C   0  0  0  0  0  0  0  0  0  0  0  0
    4.7799   -0.6275   -0.8232 C   0  0  0  0  0  0  0  0  0  0  0  0
    3.8242    1.3959    0.0070 N   0  0  0  0  0  0  0  0  0  0  0  0
    3.6956    0.1648   -0.4931 C   0  0  0  0  0  0  0  0  0  0  0  0
    2.2899   -0.3411   -0.6452 C   0  0  0  0  0  0  0  0  0  0  0  0
    1.6648   -0.6938    0.7130 C   0  0  0  0  0  0  0  0  0  0  0  0
    0.2515   -1.1745    0.5613 C   0  0  0  0  0  0  0  0  0  0  0  0
   -0.0521   -2.5352    0.5804 C   0  0  0  0  0  0  0  0  0  0  0  0
   -0.7896   -0.2880    0.3496 C   0  0  0  0  0  0  0  0  0  0  0  0
   -2.0941   -0.7588    0.1603 C   0  0  0  0  0  0  0  0  0  0  0  0
   -2.2748   -2.1492    0.2110 C   0  0  0  0  0  0  0  0  0  0  0  0
   -1.2798   -3.0014    0.4119 N   0  0  0  0  0  0  0  0  0  0  0  0
   -3.1198    0.1125   -0.0909 N   0  0  0  0  0  0  0  0  0  0  0  0
   -4.5047   -0.2905   -0.0047 C   0  0  0  0  0  0  0  0  0  0  0  0
   -5.4139    0.8887   -0.3121 C   0  0  0  0  0  0  0  0  0  0  0  0
   -6.8743    0.4920   -0.2261 C   0  0  0  0  0  0  0  0  0  0  0  0
   -7.6733    1.6099   -0.5223 O   0  0  0  0  0  0  0  0  0  0  0  0
   -9.0461    1.3205   -0.4633 C   0  0  0  0  0  0  0  0  0  0  0  0
    6.0060    3.4501    1.0756 H   0  0  0  0  0  0  0  0  0  0  0  0
    4.3176    3.5453    1.0916 H   0  0  0  0  0  0  0  0  0  0  0  0
    7.1829    1.5772    0.0609 H   0  0  0  0  0  0  0  0  0  0  0  0
    7.3601   -1.7929   -0.2336 H   0  0  0  0  0  0  0  0  0  0  0  0
    7.1934   -1.4048   -1.9357 H   0  0  0  0  0  0  0  0  0  0  0  0
    8.1933   -0.3871   -0.8940 H   0  0  0  0  0  0  0  0  0  0  0  0
    4.6279   -1.6211   -1.2267 H   0  0  0  0  0  0  0  0  0  0  0  0
    1.6794    0.4250   -1.1304 H   0  0  0  0  0  0  0  0  0  0  0  0
    2.2740   -1.2219   -1.2902 H   0  0  0  0  0  0  0  0  0  0  0  0
    2.2680   -1.4656    1.1970 H   0  0  0  0  0  0  0  0  0  0  0  0
    1.6969    0.1865    1.3586 H   0  0  0  0  0  0  0  0  0  0  0  0
    0.7339   -3.2664    0.7432 H   0  0  0  0  0  0  0  0  0  0  0  0
   -0.5998    0.7810    0.3273 H   0  0  0  0  0  0  0  0  0  0  0  0
   -3.2593   -2.5843    0.0802 H   0  0  0  0  0  0  0  0  0  0  0  0
   -2.9381    1.0656    0.1842 H   0  0  0  0  0  0  0  0  0  0  0  0
   -4.6945   -1.0873   -0.7293 H   0  0  0  0  0  0  0  0  0  0  0  0
   -4.7479   -0.7005    0.9855 H   0  0  0  0  0  0  0  0  0  0  0  0
   -5.2143    1.6991    0.3958 H   0  0  0  0  0  0  0  0  0  0  0  0
   -5.1911    1.2657   -1.3136 H   0  0  0  0  0  0  0  0  0  0  0  0
   -7.0821   -0.3284   -0.9289 H   0  0  0  0  0  0  0  0  0  0  0  0
   -7.1008    0.1094    0.7803 H   0  0  0  0  0  0  0  0  0  0  0  0
   -9.5945    2.2288   -0.7111 H   0  0  0  0  0  0  0  0  0  0  0  0
   -9.3329    0.5381   -1.1766 H   0  0  0  0  0  0  0  0  0  0  0  0
   -9.3543    0.9907    0.5361 H   0  0  0  0  0  0  0  0  0  0  0  0
  1  2  1  0
  2  3  2  0
  2  7  1  0
  3  4  1  0
  4  5  1  0
  4  6  2  0
  6  8  1  0
  7  8  2  0
  8  9  1  0
  9 10  1  0
 10 11  1  0
 11 12  2  0
 11 13  1  0
 12 16  1  0
 13 14  2  0
 14 15  1  0
 14 17  1  0
 15 16  2  0
 17 18  1  0
 18 19  1  0
 19 20  1  0
 20 21  1  0
 21 22  1  0
  1 23  1  0
  1 24  1  0
  3 25  1  0
  5 26  1  0
  5 27  1  0
  5 28  1  0
  6 29  1  0
  9 30  1  0
  9 31  1  0
 10 32  1  0
 10 33  1  0
 12 34  1  0
 13 35  1  0
 15 36  1  0
 17 37  1  0
 18 38  1  0
 18 39  1  0
 19 40  1  0
 19 41  1  0
 20 42  1  0
 20 43  1  0
 22 44  1  0
 22 45  1  0
 22 46  1  0
M  END
