
     RDKit          3D

 48 50  0  0  0  0  0  0  0  0999 V2000
    4.8757    1.9577    0.7243 P   0  0  1  0  0  0  0  0  0  0  0  0
    6.2450    1.1520    0.5044 O   0  0  0  0  0  0  0  0  0  0  0  0
    4.9675    2.6567    2.1618 O   0  0  0  0  0  0  0  0  0  0  0  0
    4.6180    2.8311   -0.4403 O   0  0  0  0  0  0  0  0  0  0  0  0
    3.0015   -0.0820   -0.4534 P   0  0  2  0  0  0  0  0  0  0  0  0
    4.2910   -0.5733   -1.2693 O   0  0  0  0  0  0  0  0  0  0  0  0
    2.1368    0.7315   -1.3366 O   0  0  0  0  0  0  0  0  0  0  0  0
    3.5937    0.7239    1.0506 C   0  0  0  0  0  0  0  0  0  0  0  0
    2.3193   -1.3895    0.1751 O   0  0  0  0  0  0  0  0  0  0  0  0
    1.5343   -2.2632   -0.6384 C   0  0  0  0  0  0  0  0  0  0  0  0
    0.3554   -2.7515    0.1781 C   0  0  1  0  0  0  0  0  0  0  0  0
   -0.4087   -1.6489    0.6674 O   0  0  0  0  0  0  0  0  0  0  0  0
   -0.5970   -3.5880   -0.6680 C   0  0  1  0  0  0  0  0  0  0  0  0
   -1.2563   -4.5032    0.1661 O   0  0  0  0  0  0  0  0  0  0  0  0
   -1.5609   -2.5097   -1.1702 C   0  0  1  0  0  0  0  0  0  0  0  0
   -2.8221   -2.9758   -1.5425 O   0  0  0  0  0  0  0  0  0  0  0  0
   -1.6752   -1.6190    0.0663 C   0  0  2  0  0  0  0  0  0  0  0  0
   -2.0339   -0.2566   -0.2173 N   0  0  0  0  0  0  0  0  0  0  0  0
   -1.2498    0.7057   -0.8125 C   0  0  0  0  0  0  0  0  0  0  0  0
   -1.8588    1.8426   -0.9485 N   0  0  0  0  0  0  0  0  0  0  0  0
   -3.1117    1.6300   -0.4234 C   0  0  0  0  0  0  0  0  0  0  0  0
   -4.2404    2.4505   -0.2528 C   0  0  0  0  0  0  0  0  0  0  0  0
   -4.2663    3.7244   -0.6688 N   0  0  0  0  0  0  0  0  0  0  0  0
   -5.3275    1.9399    0.3199 N   0  0  0  0  0  0  0  0  0  0  0  0
   -5.3145    0.6637    0.7189 C   0  0  0  0  0  0  0  0  0  0  0  0
   -4.3046   -0.2078    0.6164 N   0  0  0  0  0  0  0  0  0  0  0  0
   -3.2406    0.3302    0.0408 C   0  0  0  0  0  0  0  0  0  0  0  0
   -6.4395    0.1564    1.2788 N   0  0  0  0  0  0  0  0  0  0  0  0
   -7.5333    0.9383    1.5865 N   0  0  0  0  0  0  0  0  0  0  0  0
    6.5695    0.6480    1.2621 H   0  0  0  0  0  0  0  0  0  0  0  0
    5.5561    3.4246    2.1963 H   0  0  0  0  0  0  0  0  0  0  0  0
    4.9117   -1.1375   -0.7886 H   0  0  0  0  0  0  0  0  0  0  0  0
    3.9611   -0.0231    1.7581 H   0  0  0  0  0  0  0  0  0  0  0  0
    2.7397    1.2199    1.5180 H   0  0  0  0  0  0  0  0  0  0  0  0
    1.2010   -1.7554   -1.5481 H   0  0  0  0  0  0  0  0  0  0  0  0
    2.1437   -3.1188   -0.9370 H   0  0  0  0  0  0  0  0  0  0  0  0
    0.7246   -3.3260    1.0333 H   0  0  0  0  0  0  0  0  0  0  0  0
   -0.0784   -4.0923   -1.4943 H   0  0  0  0  0  0  0  0  0  0  0  0
   -2.0784   -4.7604   -0.2681 H   0  0  0  0  0  0  0  0  0  0  0  0
   -1.0808   -1.9482   -1.9825 H   0  0  0  0  0  0  0  0  0  0  0  0
   -2.7880   -3.2681   -2.4589 H   0  0  0  0  0  0  0  0  0  0  0  0
   -2.4499   -2.0088    0.7361 H   0  0  0  0  0  0  0  0  0  0  0  0
   -0.2257    0.5146   -1.0998 H   0  0  0  0  0  0  0  0  0  0  0  0
   -3.4132    4.1763   -0.9492 H   0  0  0  0  0  0  0  0  0  0  0  0
   -5.0282    4.3169   -0.3858 H   0  0  0  0  0  0  0  0  0  0  0  0
   -6.3730   -0.7811    1.6467 H   0  0  0  0  0  0  0  0  0  0  0  0
   -8.3611    0.5288    1.1749 H   0  0  0  0  0  0  0  0  0  0  0  0
   -7.6678    0.9575    2.5895 H   0  0  0  0  0  0  0  0  0  0  0  0
 29 28  1  0
 28 25  1  0
 25 26  1  0
 25 24  2  0
 26 27  2  0
 16 15  1  0
 24 22  1  0
 27 18  1  0
 27 21  1  0
 15 17  1  0
 15 13  1  0
 22 21  2  0
 22 23  1  0
 17 18  1  0
 17 12  1  0
 18 19  1  0
 21 20  1  0
 14 13  1  0
 13 11  1  0
 12 11  1  0
 11 10  1  0
 19 20  2  0
 10  9  1  0
  5  9  1  1
  7  5  2  0
  5  6  1  0
  5  8  1  0
  4  1  2  0
  8  1  1  0
  1  2  1  6
  1  3  1  0
  2 30  1  0
  3 31  1  0
  6 32  1  0
  8 33  1  0
  8 34  1  0
 10 35  1  0
 10 36  1  0
 11 37  1  1
 13 38  1  6
 14 39  1  0
 15 40  1  6
 16 41  1  0
 17 42  1  1
 19 43  1  0
 23 44  1  0
 23 45  1  0
 28 46  1  0
 29 47  1  0
 29 48  1  0
M  END
