
     RDKit          3D

 39 40  0  0  0  0  0  0  0  0999 V2000
   -0.7945    1.1993    0.2374 C   0  0  0  0  0  0  0  0  0  0  0  0
    0.6631    1.0541    0.0383 C   0  0  0  0  0  0  0  0  0  0  0  0
   -1.2980    2.3022   -0.3147 O   0  0  0  0  0  0  0  0  0  0  0  0
    1.5277    2.1477    0.1877 C   0  0  0  0  0  0  0  0  0  0  0  0
    2.9039    1.9456    0.2089 C   0  0  0  0  0  0  0  0  0  0  0  0
    3.4268    0.6749    0.0569 C   0  0  0  0  0  0  0  0  0  0  0  0
    2.5606   -0.4079   -0.1546 C   0  0  0  0  0  0  0  0  0  0  0  0
    1.1899   -0.2341   -0.1795 C   0  0  0  0  0  0  0  0  0  0  0  0
    0.2826   -1.3780   -0.5313 C   0  0  0  0  0  0  0  0  0  0  0  0
   -0.2557   -2.1654    0.6401 C   0  0  0  0  0  0  0  0  0  0  0  0
   -1.4264   -3.0797    0.3528 C   0  0  0  0  0  0  0  0  0  0  0  0
   -2.7912   -2.4119    0.6116 C   0  0  0  0  0  0  0  0  0  0  0  0
   -3.3580   -1.6234   -0.5775 C   0  0  0  0  0  0  0  0  0  0  0  0
   -4.4292   -0.6737   -0.1432 C   0  0  0  0  0  0  0  0  0  0  0  0
   -4.4782    0.6436   -0.3345 C   0  0  0  0  0  0  0  0  0  0  0  0
   -3.5113    1.5016   -1.0962 C   0  0  0  0  0  0  0  0  0  0  0  0
   -2.7254    2.4942   -0.2177 C   0  0  0  0  0  0  0  0  0  0  0  0
   -1.4684    0.4108    0.8480 O   0  0  0  0  0  0  0  0  0  0  0  0
    1.1158    3.4092    0.3582 O   0  0  0  0  0  0  0  0  0  0  0  0
    4.7358    0.4239    0.0803 O   0  0  0  0  0  0  0  0  0  0  0  0
    3.2784   -1.9651   -0.3908 Cl  0  0  0  0  0  0  0  0  0  0  0  0
    0.2509   -2.1008    1.7351 O   0  0  0  0  0  0  0  0  0  0  0  0
    3.5617    2.7959    0.3473 H   0  0  0  0  0  0  0  0  0  0  0  0
    0.8125   -2.0985   -1.1623 H   0  0  0  0  0  0  0  0  0  0  0  0
   -0.5459   -1.0429   -1.1552 H   0  0  0  0  0  0  0  0  0  0  0  0
   -1.3284   -3.9466    1.0087 H   0  0  0  0  0  0  0  0  0  0  0  0
   -1.3814   -3.4426   -0.6778 H   0  0  0  0  0  0  0  0  0  0  0  0
   -2.7219   -1.7732    1.4926 H   0  0  0  0  0  0  0  0  0  0  0  0
   -3.5024   -3.1994    0.8690 H   0  0  0  0  0  0  0  0  0  0  0  0
   -3.7716   -2.3397   -1.2953 H   0  0  0  0  0  0  0  0  0  0  0  0
   -2.5747   -1.0906   -1.1124 H   0  0  0  0  0  0  0  0  0  0  0  0
   -5.2445   -1.1244    0.4180 H   0  0  0  0  0  0  0  0  0  0  0  0
   -5.3246    1.1780    0.0881 H   0  0  0  0  0  0  0  0  0  0  0  0
   -4.0770    2.0806   -1.8306 H   0  0  0  0  0  0  0  0  0  0  0  0
   -2.8162    0.8986   -1.6820 H   0  0  0  0  0  0  0  0  0  0  0  0
   -3.0321    2.4372    0.8277 H   0  0  0  0  0  0  0  0  0  0  0  0
   -2.8684    3.5171   -0.5557 H   0  0  0  0  0  0  0  0  0  0  0  0
    0.1672    3.4940    0.1861 H   0  0  0  0  0  0  0  0  0  0  0  0
    5.2350    1.2343    0.2382 H   0  0  0  0  0  0  0  0  0  0  0  0
  1  2  1  0
  1  3  1  0
  1 18  2  0
  2  4  1  0
  2  8  2  0
  3 17  1  0
  4  5  2  0
  4 19  1  0
  5  6  1  0
  5 23  1  0
  6  7  2  0
  6 20  1  0
  7  8  1  0
  7 21  1  0
  8  9  1  0
  9 10  1  0
  9 24  1  0
  9 25  1  0
 10 11  1  0
 10 22  2  0
 11 12  1  0
 11 26  1  0
 11 27  1  0
 12 13  1  0
 12 28  1  0
 12 29  1  0
 13 14  1  0
 13 30  1  0
 13 31  1  0
 14 15  2  0
 14 32  1  0
 15 16  1  0
 15 33  1  0
 16 17  1  0
 16 34  1  0
 16 35  1  0
 17 36  1  0
 17 37  1  0
 19 38  1  0
 20 39  1  0
M  END
