
     RDKit          3D

 39 40  0  0  0  0  0  0  0  0999 V2000
   -2.9230    1.1368    1.1247 N   0  0  0  0  0  0  0  0  0  0  0  0
   -1.6568    1.5836    0.5900 C   0  0  1  0  0  0  0  0  0  0  0  0
   -0.9571    0.2940    0.0604 C   0  0  2  0  0  0  0  0  0  0  0  0
   -1.7813    2.5901   -0.5355 C   0  0  0  0  0  0  0  0  0  0  0  0
   -0.5920    3.0472   -0.9062 O   0  0  0  0  0  0  0  0  0  0  0  0
   -2.8190    2.9383   -1.0407 O   0  0  0  0  0  0  0  0  0  0  0  0
    3.1107   -0.1828    1.3837 C   0  0  0  0  0  0  0  0  0  0  0  0
   -3.2536   -0.1353    0.5069 C   0  0  0  0  0  0  0  0  0  0  0  0
   -1.9066   -0.8433    0.4818 C   0  0  1  0  0  0  0  0  0  0  0  0
    2.0775   -0.1080    2.3069 C   0  0  0  0  0  0  0  0  0  0  0  0
    2.8213   -0.1022    0.0244 C   0  0  0  0  0  0  0  0  0  0  0  0
    5.0990   -0.2752   -0.5080 O   0  0  0  0  0  0  0  0  0  0  0  0
    3.6572   -0.1464   -2.2022 O   0  0  0  0  0  0  0  0  0  0  0  0
    0.4616    0.1318    0.5229 C   0  0  0  0  0  0  0  0  0  0  0  0
    0.7681    0.0471    1.8814 C   0  0  0  0  0  0  0  0  0  0  0  0
    1.4998    0.0545   -0.3930 C   0  0  0  0  0  0  0  0  0  0  0  0
   -1.8247   -2.0488   -0.4403 C   0  0  0  0  0  0  0  0  0  0  0  0
   -2.7214   -3.2061   -0.0163 C   0  0  0  0  0  0  0  0  0  0  0  0
   -2.6103   -4.4021   -0.9515 C   0  0  0  0  0  0  0  0  0  0  0  0
   -3.6541    1.8272    1.0205 H   0  0  0  0  0  0  0  0  0  0  0  0
   -1.0497    2.0543    1.3714 H   0  0  0  0  0  0  0  0  0  0  0  0
   -0.9502    0.3111   -1.0349 H   0  0  0  0  0  0  0  0  0  0  0  0
   -0.6860    3.6734   -1.6400 H   0  0  0  0  0  0  0  0  0  0  0  0
   -4.0019   -0.6668    1.0967 H   0  0  0  0  0  0  0  0  0  0  0  0
   -3.6444   -0.0427   -0.5186 H   0  0  0  0  0  0  0  0  0  0  0  0
   -1.6650   -1.1563    1.5043 H   0  0  0  0  0  0  0  0  0  0  0  0
    2.2958   -0.1715    3.3646 H   0  0  0  0  0  0  0  0  0  0  0  0
    5.7506   -0.3244   -1.2231 H   0  0  0  0  0  0  0  0  0  0  0  0
   -0.0243    0.1029    2.6189 H   0  0  0  0  0  0  0  0  0  0  0  0
    1.2795    0.1217   -1.4510 H   0  0  0  0  0  0  0  0  0  0  0  0
   -2.0833   -1.7365   -1.4590 H   0  0  0  0  0  0  0  0  0  0  0  0
   -0.7869   -2.3977   -0.4837 H   0  0  0  0  0  0  0  0  0  0  0  0
   -2.4610   -3.5102    1.0023 H   0  0  0  0  0  0  0  0  0  0  0  0
   -3.7625   -2.8724    0.0232 H   0  0  0  0  0  0  0  0  0  0  0  0
   -2.9009   -4.1351   -1.9692 H   0  0  0  0  0  0  0  0  0  0  0  0
   -1.5868   -4.7800   -0.9899 H   0  0  0  0  0  0  0  0  0  0  0  0
   -3.2519   -5.2232   -0.6294 H   0  0  0  0  0  0  0  0  0  0  0  0
    4.1267   -0.3042    1.7322 H   0  0  0  0  0  0  0  0  0  0  0  0
    3.8782   -0.1744   -1.0147 C   0  0  0  0  0  0  0  0  0  0  0  0
 10 15  1  0
 10  7  2  0
 15 14  2  0
 19 18  1  0
  7 11  1  0
 17 18  1  0
 17  9  1  0
 14  3  1  0
 14 16  1  0
 11 16  2  0
 11 39  1  0
  3  9  1  0
  3  2  1  0
  9  8  1  0
  6  4  2  0
 39 13  2  0
 39 12  1  0
  8  1  1  0
  4  2  1  0
  4  5  1  0
  2  1  1  0
  1 20  1  0
  2 21  1  1
  3 22  1  6
  5 23  1  0
  7 38  1  0
  8 24  1  0
  8 25  1  0
  9 26  1  1
 10 27  1  0
 12 28  1  0
 15 29  1  0
 16 30  1  0
 17 31  1  0
 17 32  1  0
 18 33  1  0
 18 34  1  0
 19 35  1  0
 19 36  1  0
 19 37  1  0
M  END
