
     RDKit          3D

 32 31  0  0  0  0  0  0  0  0999 V2000
   -0.1609   -1.7034    2.6639 N   0  0  0  0  0  0  0  0  0  0  0  0
    0.1304   -0.3130    2.9390 C   0  0  2  0  0  0  0  0  0  0  0  0
   -1.1554    0.4976    2.9402 C   0  0  0  0  0  0  0  0  0  0  0  0
   -2.0834    0.4887    2.1268 O   0  0  0  0  0  0  0  0  0  0  0  0
   -1.2634    1.3389    4.0007 O   0  0  0  0  0  0  0  0  0  0  0  0
    1.1499    0.3813    1.9888 C   0  0  1  0  0  0  0  0  0  0  0  0
    2.5581    0.2259    2.5365 C   0  0  0  0  0  0  0  0  0  0  0  0
    1.1500   -0.2497    0.7054 O   0  0  0  0  0  0  0  0  0  0  0  0
    0.6260    0.5404   -0.3560 C   0  0  1  0  0  0  0  0  0  0  0  0
    1.6179    1.4967   -0.6308 O   0  0  0  0  0  0  0  0  0  0  0  0
    0.3485   -0.4201   -1.5102 C   0  0  0  0  0  0  0  0  0  0  0  0
   -0.2639    0.3216   -2.7103 C   0  0  2  0  0  0  0  0  0  0  0  0
   -1.5835    0.8779   -2.5250 N   0  0  0  0  0  0  0  0  0  0  0  0
   -0.2698   -0.6623   -3.8701 C   0  0  0  0  0  0  0  0  0  0  0  0
   -1.1462   -1.4604   -4.2062 O   0  0  0  0  0  0  0  0  0  0  0  0
    0.8671   -0.6257   -4.6156 O   0  0  0  0  0  0  0  0  0  0  0  0
    0.6844   -2.2379    2.7407 H   0  0  0  0  0  0  0  0  0  0  0  0
   -0.5226   -1.8043    1.7328 H   0  0  0  0  0  0  0  0  0  0  0  0
    0.5625   -0.2626    3.9863 H   0  0  0  0  0  0  0  0  0  0  0  0
   -2.1014    1.8285    3.9486 H   0  0  0  0  0  0  0  0  0  0  0  0
    0.8925    1.4716    1.8860 H   0  0  0  0  0  0  0  0  0  0  0  0
    2.8081   -0.8527    2.6761 H   0  0  0  0  0  0  0  0  0  0  0  0
    3.2918    0.6678    1.8210 H   0  0  0  0  0  0  0  0  0  0  0  0
    2.6402    0.7529    3.5168 H   0  0  0  0  0  0  0  0  0  0  0  0
   -0.2874    1.1243   -0.0478 H   0  0  0  0  0  0  0  0  0  0  0  0
    2.4295    1.0310   -0.8708 H   0  0  0  0  0  0  0  0  0  0  0  0
    1.3026   -0.9121   -1.8329 H   0  0  0  0  0  0  0  0  0  0  0  0
   -0.3467   -1.2196   -1.1470 H   0  0  0  0  0  0  0  0  0  0  0  0
    0.4219    1.1822   -2.9801 H   0  0  0  0  0  0  0  0  0  0  0  0
   -2.1051    0.3631   -1.8431 H   0  0  0  0  0  0  0  0  0  0  0  0
   -1.5134    1.8404   -2.2556 H   0  0  0  0  0  0  0  0  0  0  0  0
    0.8055   -1.2728   -5.3382 H   0  0  0  0  0  0  0  0  0  0  0  0
  1  2  1  0
  1 17  1  0
  1 18  1  0
  2  3  1  0
  2  6  1  0
  2 19  1  1
  3  4  2  0
  3  5  1  0
  5 20  1  0
  6  7  1  0
  6  8  1  0
  6 21  1  6
  7 22  1  0
  7 23  1  0
  7 24  1  0
  8  9  1  0
  9 10  1  0
  9 11  1  0
  9 25  1  1
 10 26  1  0
 11 12  1  0
 11 27  1  0
 11 28  1  0
 12 13  1  0
 12 14  1  0
 12 29  1  6
 13 30  1  0
 13 31  1  0
 14 15  2  0
 14 16  1  0
 16 32  1  0
M  END
