
     RDKit          3D

 60 64  0  0  0  0  0  0  0  0999 V2000
    2.8641   -2.2616    0.8618 C   0  0  0  0  0  0  0  0  0  0  0  0
    4.1891   -2.0649    1.2153 C   0  0  0  0  0  0  0  0  0  0  0  0
    4.8554   -0.9706    0.9089 N   0  0  0  0  0  0  0  0  0  0  0  0
    4.1762   -0.0251    0.2493 C   0  0  0  0  0  0  0  0  0  0  0  0
    6.1926    1.4040    0.2334 C   0  0  2  0  0  0  0  0  0  0  0  0
    6.4176    2.9060    0.3592 C   0  0  0  0  0  0  0  0  0  0  0  0
    8.5596    1.2483   -0.5455 C   0  0  0  0  0  0  0  0  0  0  0  0
    7.1238    0.8400   -0.8394 C   0  0  0  0  0  0  0  0  0  0  0  0
    2.2406   -1.2412    0.1391 C   0  0  0  0  0  0  0  0  0  0  0  0
    0.8331   -1.2985   -0.3097 C   0  0  0  0  0  0  0  0  0  0  0  0
    0.3283   -2.4194   -0.9786 C   0  0  0  0  0  0  0  0  0  0  0  0
   -3.2494   -1.1596   -1.4644 C   0  0  0  0  0  0  0  0  0  0  0  0
   -5.5438    0.4924    0.3431 C   0  0  0  0  0  0  0  0  0  0  0  0
   -7.4599    1.2283    1.6077 C   0  0  0  0  0  0  0  0  0  0  0  0
   -8.8515    1.8180    1.4812 C   0  0  0  0  0  0  0  0  0  0  0  0
   -9.1725    0.7321   -0.5484 C   0  0  0  0  0  0  0  0  0  0  0  0
   -7.7871    0.1208   -0.4664 C   0  0  0  0  0  0  0  0  0  0  0  0
   -1.3025   -0.2696   -0.5078 C   0  0  0  0  0  0  0  0  0  0  0  0
    2.0560   -3.6974    1.3774 Cl  0  0  0  0  0  0  0  0  0  0  0  0
    4.7976    1.1313   -0.0319 N   0  0  0  0  0  0  0  0  0  0  0  0
    7.8969    3.1905    0.5772 C   0  0  0  0  0  0  0  0  0  0  0  0
    8.6995    2.6495   -0.4484 O   0  0  0  0  0  0  0  0  0  0  0  0
    2.9027   -0.1336   -0.1493 N   0  0  0  0  0  0  0  0  0  0  0  0
   -0.9892   -2.4726   -1.4117 C   0  0  0  0  0  0  0  0  0  0  0  0
   -1.8054   -1.3862   -1.1537 C   0  0  0  0  0  0  0  0  0  0  0  0
   -3.4758    0.1752   -0.9502 N   0  0  0  0  0  0  0  0  0  0  0  0
   -6.9017    0.9903    0.2882 N   0  0  0  0  0  0  0  0  0  0  0  0
   -9.7061    0.9818    0.7325 O   0  0  0  0  0  0  0  0  0  0  0  0
   -2.3851    0.7292   -0.3709 C   0  0  0  0  0  0  0  0  0  0  0  0
    0.0118   -0.1968   -0.0869 C   0  0  0  0  0  0  0  0  0  0  0  0
    4.7229   -2.8285    1.7711 H   0  0  0  0  0  0  0  0  0  0  0  0
    6.4476    0.9375    1.1890 H   0  0  0  0  0  0  0  0  0  0  0  0
    6.0754    3.4132   -0.5491 H   0  0  0  0  0  0  0  0  0  0  0  0
    5.8442    3.3101    1.1968 H   0  0  0  0  0  0  0  0  0  0  0  0
    8.8919    0.7662    0.3863 H   0  0  0  0  0  0  0  0  0  0  0  0
    9.2268    0.9141   -1.3414 H   0  0  0  0  0  0  0  0  0  0  0  0
    7.0548   -0.2497   -0.8694 H   0  0  0  0  0  0  0  0  0  0  0  0
    6.8202    1.2157   -1.8212 H   0  0  0  0  0  0  0  0  0  0  0  0
    0.9789   -3.2583   -1.1850 H   0  0  0  0  0  0  0  0  0  0  0  0
   -3.4547   -1.2101   -2.5375 H   0  0  0  0  0  0  0  0  0  0  0  0
   -3.8913   -1.8962   -0.9717 H   0  0  0  0  0  0  0  0  0  0  0  0
   -5.3229    0.4085   -1.8214 H   0  0  0  0  0  0  0  0  0  0  0  0
   -4.6793    1.8615   -1.0799 H   0  0  0  0  0  0  0  0  0  0  0  0
   -5.5061   -0.5874    0.5648 H   0  0  0  0  0  0  0  0  0  0  0  0
   -5.0222    0.9932    1.1619 H   0  0  0  0  0  0  0  0  0  0  0  0
   -7.5010    0.3049    2.2102 H   0  0  0  0  0  0  0  0  0  0  0  0
   -9.2992    1.9429    2.4684 H   0  0  0  0  0  0  0  0  0  0  0  0
   -8.7796    2.8107    1.0145 H   0  0  0  0  0  0  0  0  0  0  0  0
   -9.1272    1.6599   -1.1367 H   0  0  0  0  0  0  0  0  0  0  0  0
   -9.8523    0.0471   -1.0572 H   0  0  0  0  0  0  0  0  0  0  0  0
   -7.8543   -0.8816   -0.0094 H   0  0  0  0  0  0  0  0  0  0  0  0
   -7.4109   -0.0173   -1.4820 H   0  0  0  0  0  0  0  0  0  0  0  0
    4.2899    1.7768   -0.6165 H   0  0  0  0  0  0  0  0  0  0  0  0
    8.0797    4.2658    0.5947 H   0  0  0  0  0  0  0  0  0  0  0  0
    8.2036    2.7881    1.5542 H   0  0  0  0  0  0  0  0  0  0  0  0
   -1.3569   -3.3462   -1.9334 H   0  0  0  0  0  0  0  0  0  0  0  0
    0.3900    0.6848    0.4151 H   0  0  0  0  0  0  0  0  0  0  0  0
   -4.7836    0.7841   -0.9506 C   0  0  0  0  0  0  0  0  0  0  0  0
   -2.3227    1.8294    0.1531 O   0  0  0  0  0  0  0  0  0  0  0  0
   -6.8264    1.9371    2.1462 H   0  0  0  0  0  0  0  0  0  0  0  0
 22 21  1  0
 22  7  1  0
 21  6  1  0
  6  5  1  0
  7  8  1  0
  8  5  1  0
  5 20  1  0
 24 11  2  0
 24 25  1  0
 11 10  1  0
 20  4  1  0
 23  4  2  0
 23  9  1  0
 25 12  1  0
 25 18  2  0
 12 26  1  0
  4  3  1  0
 10  9  1  0
 10 30  2  0
  9  1  2  0
  3  2  2  0
 18 30  1  0
 18 29  1  0
  2  1  1  0
  1 19  1  0
 26 58  1  0
 26 29  1  0
 13 58  1  0
 13 27  1  0
 29 59  2  0
 14 27  1  0
 14 15  1  0
 27 17  1  0
 15 28  1  0
 17 16  1  0
 28 16  1  0
  2 31  1  0
  5 32  1  1
  6 33  1  0
  6 34  1  0
  7 35  1  0
  7 36  1  0
  8 37  1  0
  8 38  1  0
 11 39  1  0
 12 40  1  0
 12 41  1  0
 58 42  1  0
 58 43  1  0
 13 44  1  0
 13 45  1  0
 14 60  1  0
 14 46  1  0
 15 47  1  0
 15 48  1  0
 16 49  1  0
 16 50  1  0
 17 51  1  0
 17 52  1  0
 20 53  1  0
 21 54  1  0
 21 55  1  0
 24 56  1  0
 30 57  1  0
M  END
