
     RDKit          3D

  5  4  0  0  0  0  0  0  0  0999 V2000
   -0.0956    0.0574   -0.5465 Br  0  0  0  0  0  0  0  0  0  0  0  0
    1.6199   -0.0078   -0.0809 O   0  0  0  0  0  0  0  0  0  0  0  0
   -0.6223    1.4231    0.0924 O   0  0  0  0  0  0  0  0  0  0  0  0
   -0.7567   -1.1783    0.2189 O   0  0  0  0  0  0  0  0  0  0  0  0
    1.7140    0.0594    0.8903 H   0  0  0  0  0  0  0  0  0  0  0  0
  1  2  1  0
  1  3  2  0
  1  4  2  0
  2  5  1  0
M  END
