
     RDKit          3D

 17 17  0  0  0  0  0  0  0  0999 V2000
   -1.6733   -1.7667   -0.3505 O   0  0  0  0  0  0  0  0  0  0  0  0
   -1.2377   -0.3825   -0.3493 S   0  0  1  0  0  0  0  0  0  0  0  0
   -1.4405    0.4694   -1.5084 O   0  0  0  0  0  0  0  0  0  0  0  0
   -1.9946    0.3356    0.9145 N   0  0  0  0  0  0  0  0  0  0  0  0
   -1.7035    1.7303    1.2160 C   0  0  0  0  0  0  0  0  0  0  0  0
    0.4829   -0.3594   -0.0333 C   0  0  0  0  0  0  0  0  0  0  0  0
    1.1962   -1.2603    0.7034 C   0  0  0  0  0  0  0  0  0  0  0  0
    2.5624   -0.9000    0.7884 C   0  0  0  0  0  0  0  0  0  0  0  0
    2.8401    0.2577    0.1212 C   0  0  0  0  0  0  0  0  0  0  0  0
    1.4569    0.9244   -0.6231 S   0  0  0  0  0  0  0  0  0  0  0  0
   -2.0243   -0.2673    1.7290 H   0  0  0  0  0  0  0  0  0  0  0  0
   -1.9134    2.3523    0.3499 H   0  0  0  0  0  0  0  0  0  0  0  0
   -2.3683    2.0373    2.0189 H   0  0  0  0  0  0  0  0  0  0  0  0
   -0.6731    1.8978    1.5388 H   0  0  0  0  0  0  0  0  0  0  0  0
    0.7701   -2.1435    1.1568 H   0  0  0  0  0  0  0  0  0  0  0  0
    3.3072   -1.4780    1.3149 H   0  0  0  0  0  0  0  0  0  0  0  0
    3.7955    0.7497    0.0200 H   0  0  0  0  0  0  0  0  0  0  0  0
  9  8  2  0
  9 10  1  0
  8  7  1  0
 10  6  1  0
  7  6  2  0
  5  4  1  0
  6  2  1  0
  2  4  1  1
  2  1  2  0
  2  3  2  0
  4 11  1  0
  5 12  1  0
  5 13  1  0
  5 14  1  0
  7 15  1  0
  8 16  1  0
  9 17  1  0
M  END
