
     RDKit          3D

 16 15  0  0  0  0  0  0  0  0999 V2000
    1.9078   -1.0796   -0.1568 O   0  0  0  0  0  0  0  0  0  0  0  0
    0.9031    0.1589    0.0394 P   0  0  1  0  0  0  0  0  0  0  0  0
    0.8212    0.7119    1.4141 O   0  0  0  0  0  0  0  0  0  0  0  0
    1.3867    1.3172   -0.9705 O   0  0  0  0  0  0  0  0  0  0  0  0
   -0.6451   -0.5315   -0.6485 C   0  0  1  0  0  0  0  0  0  0  0  0
   -1.0292   -1.6317    0.1323 O   0  0  0  0  0  0  0  0  0  0  0  0
   -1.7713    0.5109   -0.6665 C   0  0  0  0  0  0  0  0  0  0  0  0
   -2.3001    0.6444    0.6799 N   0  0  0  0  0  0  0  0  0  0  0  0
    2.7261   -1.0085    0.3538 H   0  0  0  0  0  0  0  0  0  0  0  0
    1.5597    1.0402   -1.8795 H   0  0  0  0  0  0  0  0  0  0  0  0
   -0.4449   -0.8604   -1.6740 H   0  0  0  0  0  0  0  0  0  0  0  0
   -1.6337   -1.2400    0.7914 H   0  0  0  0  0  0  0  0  0  0  0  0
   -1.4299    1.4457   -1.1228 H   0  0  0  0  0  0  0  0  0  0  0  0
   -2.5669    0.1241   -1.3056 H   0  0  0  0  0  0  0  0  0  0  0  0
   -1.7541    1.2977    1.2250 H   0  0  0  0  0  0  0  0  0  0  0  0
   -3.2498    0.9865    0.6596 H   0  0  0  0  0  0  0  0  0  0  0  0
  2  1  1  1
  2  3  2  0
  2  4  1  0
  2  5  1  0
  5  6  1  0
  5  7  1  0
  7  8  1  0
  1  9  1  0
  4 10  1  0
  5 11  1  6
  6 12  1  0
  7 13  1  0
  7 14  1  0
  8 15  1  0
  8 16  1  0
M  END
