
     RDKit          3D

 37 39  0  0  0  0  0  0  0  0999 V2000
    3.2032    0.9197    4.4138 N   0  0  0  0  0  0  0  0  0  0  0  0
    1.9251    0.3479    4.8016 C   0  0  0  0  0  0  0  0  0  0  0  0
    1.7957   -1.0755    4.2513 C   0  0  1  0  0  0  0  0  0  0  0  0
    0.5902   -1.8260    4.7713 C   0  0  0  0  0  0  0  0  0  0  0  0
    0.6222   -3.2199    4.7843 C   0  0  0  0  0  0  0  0  0  0  0  0
   -0.4583   -3.9680    5.2212 C   0  0  0  0  0  0  0  0  0  0  0  0
   -1.5996   -3.3096    5.6547 C   0  0  0  0  0  0  0  0  0  0  0  0
   -2.9618   -4.2316    6.2066 Cl  0  0  0  0  0  0  0  0  0  0  0  0
   -1.6638   -1.9276    5.6565 C   0  0  0  0  0  0  0  0  0  0  0  0
   -0.5685   -1.1957    5.2146 C   0  0  0  0  0  0  0  0  0  0  0  0
    1.8157   -1.0778    2.7376 C   0  0  0  0  0  0  0  0  0  0  0  0
    2.9257   -1.5394    2.0398 C   0  0  0  0  0  0  0  0  0  0  0  0
    2.9625   -1.5229    0.6528 C   0  0  0  0  0  0  0  0  0  0  0  0
    1.8840   -1.0422   -0.0889 C   0  0  0  0  0  0  0  0  0  0  0  0
    0.7688   -0.5778    0.6153 C   0  0  0  0  0  0  0  0  0  0  0  0
    0.7371   -0.5940    1.9984 C   0  0  0  0  0  0  0  0  0  0  0  0
    1.9164   -1.0318   -1.5495 C   0  0  0  0  0  0  0  0  0  0  0  0
    1.0173   -0.4414   -2.4190 C   0  0  0  0  0  0  0  0  0  0  0  0
    1.4563   -0.6998   -3.6578 N   0  0  0  0  0  0  0  0  0  0  0  0
    2.5734   -1.4154   -3.6801 N   0  0  0  0  0  0  0  0  0  0  0  0
    2.8662   -1.6238   -2.4116 C   0  0  0  0  0  0  0  0  0  0  0  0
    3.3080    1.8273    4.8487 H   0  0  0  0  0  0  0  0  0  0  0  0
    3.2087    1.0940    3.4162 H   0  0  0  0  0  0  0  0  0  0  0  0
    1.0651    0.9512    4.4802 H   0  0  0  0  0  0  0  0  0  0  0  0
    1.8858    0.3039    5.8929 H   0  0  0  0  0  0  0  0  0  0  0  0
    2.6853   -1.6157    4.5906 H   0  0  0  0  0  0  0  0  0  0  0  0
    1.5123   -3.7366    4.4447 H   0  0  0  0  0  0  0  0  0  0  0  0
   -0.6418   -0.1161    5.2268 H   0  0  0  0  0  0  0  0  0  0  0  0
   -0.4090   -5.0485    5.2258 H   0  0  0  0  0  0  0  0  0  0  0  0
   -2.5539   -1.4180    5.9997 H   0  0  0  0  0  0  0  0  0  0  0  0
    3.7790   -1.9227    2.5864 H   0  0  0  0  0  0  0  0  0  0  0  0
   -0.1514   -0.2330    2.5031 H   0  0  0  0  0  0  0  0  0  0  0  0
    3.8493   -1.8887    0.1506 H   0  0  0  0  0  0  0  0  0  0  0  0
   -0.0949   -0.2051    0.0786 H   0  0  0  0  0  0  0  0  0  0  0  0
    0.1227    0.1344   -2.2465 H   0  0  0  0  0  0  0  0  0  0  0  0
    3.7434   -2.1963   -2.1488 H   0  0  0  0  0  0  0  0  0  0  0  0
    1.0243   -0.4146   -4.5220 H   0  0  0  0  0  0  0  0  0  0  0  0
  1  2  1  0
  2  3  1  0
  3  4  1  0
  4  5  2  0
  5  6  1  0
  6  7  2  0
  7  8  1  0
  7  9  1  0
  4 10  1  0
  9 10  2  0
  3 11  1  0
 11 12  2  0
 12 13  1  0
 13 14  2  0
 14 15  1  0
 11 16  1  0
 15 16  2  0
 14 17  1  0
 17 18  2  0
 18 19  1  0
 19 20  1  0
 17 21  1  0
 20 21  2  0
  1 22  1  0
  1 23  1  0
  2 24  1  0
  2 25  1  0
  3 26  1  1
  5 27  1  0
 10 28  1  0
  6 29  1  0
  9 30  1  0
 12 31  1  0
 16 32  1  0
 13 33  1  0
 15 34  1  0
 18 35  1  0
 21 36  1  0
 19 37  1  0
M  END
