
     RDKit          3D

 65 64  0  0  0  0  0  0  0  0999 V2000
   -1.5493   -2.8201    2.0660 C   0  0  0  0  0  0  0  0  0  0  0  0
   -1.1244   -3.0071    0.6217 C   0  0  1  0  0  0  0  0  0  0  0  0
   -2.2594   -2.8713   -0.3650 C   0  0  0  0  0  0  0  0  0  0  0  0
   -2.8714   -1.5865   -0.1984 O   0  0  0  0  0  0  0  0  0  0  0  0
   -4.2093   -1.2250   -0.9746 P   0  0  1  0  0  0  0  0  0  0  0  0
   -0.1406   -2.0284    0.2516 O   0  0  0  0  0  0  0  0  0  0  0  0
    1.1411   -2.2636    0.5244 C   0  0  0  0  0  0  0  0  0  0  0  0
    1.5350   -3.2674    1.0624 O   0  0  0  0  0  0  0  0  0  0  0  0
    2.0115   -1.1219    0.0744 C   0  0  0  0  0  0  0  0  0  0  0  0
    3.4905   -1.3307    0.3554 C   0  0  0  0  0  0  0  0  0  0  0  0
    4.3292   -0.1446   -0.1041 C   0  0  0  0  0  0  0  0  0  0  0  0
    5.8163   -0.3318    0.1669 C   0  0  0  0  0  0  0  0  0  0  0  0
    6.6620    0.8556   -0.2754 C   0  0  0  0  0  0  0  0  0  0  0  0
    8.1491    0.6699   -0.0013 C   0  0  0  0  0  0  0  0  0  0  0  0
    8.9949    1.8599   -0.4364 C   0  0  0  0  0  0  0  0  0  0  0  0
   10.4813    1.6809   -0.1527 C   0  0  0  0  0  0  0  0  0  0  0  0
   11.3146    2.8776   -0.5902 C   0  0  0  0  0  0  0  0  0  0  0  0
   -3.8171   -0.8670   -2.4791 O   0  0  0  0  0  0  0  0  0  0  0  0
   -5.2990   -2.2152   -0.9618 O   0  0  0  0  0  0  0  0  0  0  0  0
   -4.4919    0.1605   -0.2236 O   0  0  0  0  0  0  0  0  0  0  0  0
   -5.6749    0.9020   -0.5094 C   0  0  0  0  0  0  0  0  0  0  0  0
   -5.8545    2.0146    0.4918 C   0  0  0  0  0  0  0  0  0  0  0  0
   -4.8653    3.1499    0.4488 N   0  0  1  0  0  0  0  0  0  0  0  0
   -5.4130    4.2399    1.3087 C   0  0  0  0  0  0  0  0  0  0  0  0
   -3.5332    2.7517    0.9927 C   0  0  0  0  0  0  0  0  0  0  0  0
   -4.6984    3.6678   -0.9369 C   0  0  0  0  0  0  0  0  0  0  0  0
   -1.9116   -1.8098    2.2525 H   0  0  0  0  0  0  0  0  0  0  0  0
   -2.3490   -3.5199    2.3099 H   0  0  0  0  0  0  0  0  0  0  0  0
   -0.7212   -3.0194    2.7442 H   0  0  0  0  0  0  0  0  0  0  0  0
   -0.7183   -4.0125    0.4816 H   0  0  0  0  0  0  0  0  0  0  0  0
   -1.8874   -2.9815   -1.3866 H   0  0  0  0  0  0  0  0  0  0  0  0
   -2.9829   -3.6669   -0.1760 H   0  0  0  0  0  0  0  0  0  0  0  0
    1.8434   -0.9621   -0.9954 H   0  0  0  0  0  0  0  0  0  0  0  0
    1.6529   -0.2104    0.5637 H   0  0  0  0  0  0  0  0  0  0  0  0
    3.6454   -1.4911    1.4259 H   0  0  0  0  0  0  0  0  0  0  0  0
    3.8392   -2.2377   -0.1460 H   0  0  0  0  0  0  0  0  0  0  0  0
    4.1739    0.0229   -1.1756 H   0  0  0  0  0  0  0  0  0  0  0  0
    3.9800    0.7647    0.3977 H   0  0  0  0  0  0  0  0  0  0  0  0
    5.9690   -0.5088    1.2374 H   0  0  0  0  0  0  0  0  0  0  0  0
    6.1670   -1.2368   -0.3414 H   0  0  0  0  0  0  0  0  0  0  0  0
    6.5102    1.0331   -1.3460 H   0  0  0  0  0  0  0  0  0  0  0  0
    6.3096    1.7602    0.2329 H   0  0  0  0  0  0  0  0  0  0  0  0
    8.2993    0.4883    1.0688 H   0  0  0  0  0  0  0  0  0  0  0  0
    8.5029   -0.2326   -0.5124 H   0  0  0  0  0  0  0  0  0  0  0  0
    8.8504    2.0379   -1.5080 H   0  0  0  0  0  0  0  0  0  0  0  0
    8.6367    2.7639    0.0694 H   0  0  0  0  0  0  0  0  0  0  0  0
   10.6250    1.5033    0.9176 H   0  0  0  0  0  0  0  0  0  0  0  0
   10.8404    0.7796   -0.6593 H   0  0  0  0  0  0  0  0  0  0  0  0
   11.2255    3.0472   -1.6651 H   0  0  0  0  0  0  0  0  0  0  0  0
   10.9882    3.7897   -0.0867 H   0  0  0  0  0  0  0  0  0  0  0  0
   12.3723    2.7365   -0.3647 H   0  0  0  0  0  0  0  0  0  0  0  0
   -3.0659   -0.2707   -2.6011 H   0  0  0  0  0  0  0  0  0  0  0  0
   -5.6591    1.2781   -1.5344 H   0  0  0  0  0  0  0  0  0  0  0  0
   -6.5605    0.2703   -0.4102 H   0  0  0  0  0  0  0  0  0  0  0  0
   -6.8349    2.4520    0.3035 H   0  0  0  0  0  0  0  0  0  0  0  0
   -5.8499    1.6246    1.5092 H   0  0  0  0  0  0  0  0  0  0  0  0
   -6.3445    4.6011    0.8817 H   0  0  0  0  0  0  0  0  0  0  0  0
   -5.5912    3.8494    2.3071 H   0  0  0  0  0  0  0  0  0  0  0  0
   -4.6912    5.0501    1.3570 H   0  0  0  0  0  0  0  0  0  0  0  0
   -2.8962    3.6312    1.0098 H   0  0  0  0  0  0  0  0  0  0  0  0
   -3.6600    2.3716    2.0024 H   0  0  0  0  0  0  0  0  0  0  0  0
   -3.0858    1.9923    0.3628 H   0  0  0  0  0  0  0  0  0  0  0  0
   -5.6752    3.8815   -1.3630 H   0  0  0  0  0  0  0  0  0  0  0  0
   -4.1075    4.5789   -0.9001 H   0  0  0  0  0  0  0  0  0  0  0  0
   -4.1774    2.9356   -1.5468 H   0  0  0  0  0  0  0  0  0  0  0  0
 17 16  1  0
 16 15  1  0
 15 14  1  0
 14 13  1  0
 13 12  1  0
 12 11  1  0
 11 10  1  0
 10  9  1  0
  9  7  1  0
  7  8  2  0
  7  6  1  0
  1  2  1  0
  6  2  1  0
  2  3  1  0
  3  4  1  0
  5  4  1  1
 23 24  1  1
 19  5  2  0
 20  5  1  0
 20 21  1  0
  5 18  1  0
 21 22  1  0
 23 26  1  0
 23 22  1  0
 23 25  1  0
  1 27  1  0
  1 28  1  0
  1 29  1  0
  2 30  1  1
  3 31  1  0
  3 32  1  0
  9 33  1  0
  9 34  1  0
 10 35  1  0
 10 36  1  0
 11 37  1  0
 11 38  1  0
 12 39  1  0
 12 40  1  0
 13 41  1  0
 13 42  1  0
 14 43  1  0
 14 44  1  0
 15 45  1  0
 15 46  1  0
 16 47  1  0
 16 48  1  0
 17 49  1  0
 17 50  1  0
 17 51  1  0
 18 52  1  0
 21 53  1  0
 21 54  1  0
 22 55  1  0
 22 56  1  0
 24 57  1  0
 24 58  1  0
 24 59  1  0
 25 60  1  0
 25 61  1  0
 25 62  1  0
 26 63  1  0
 26 64  1  0
 26 65  1  0
M  CHG  1  23   1
M  END
