
     RDKit          3D

 39 40  0  0  0  0  0  0  0  0999 V2000
    1.9359    0.4791    0.1632 C   0  0  0  0  0  0  0  0  0  0  0  0
    1.7563    0.7454    1.5394 C   0  0  0  0  0  0  0  0  0  0  0  0
    2.1130    1.9685    2.0354 C   0  0  0  0  0  0  0  0  0  0  0  0
    2.8097    2.7425    0.0214 C   0  0  0  0  0  0  0  0  0  0  0  0
    1.7769   -2.3996    1.5477 O   0  0  0  0  0  0  0  0  0  0  0  0
    0.7692   -3.2027   -0.5918 O   0  0  0  0  0  0  0  0  0  0  0  0
   -0.4628   -1.5253    0.9305 N   0  0  0  0  0  0  0  0  0  0  0  0
   -1.5539   -1.3185   -0.0156 C   0  0  0  0  0  0  0  0  0  0  0  0
   -2.5718   -0.3712    0.5982 C   0  0  0  0  0  0  0  0  0  0  0  0
   -3.6842   -0.1868   -0.3085 N   0  0  0  0  0  0  0  0  0  0  0  0
   -4.6327    0.8095    0.1538 C   0  0  0  0  0  0  0  0  0  0  0  0
   -5.7922    0.9679   -0.8173 C   0  0  0  0  0  0  0  0  0  0  0  0
   -6.7840    2.0280   -0.3609 C   0  0  0  0  0  0  0  0  0  0  0  0
    1.6136   -0.7332   -0.5085 C   0  0  0  0  0  0  0  0  0  0  0  0
    2.6375    2.9671    1.2937 N   0  0  0  0  0  0  0  0  0  0  0  0
    2.4816    1.5249   -0.6196 C   0  0  0  0  0  0  0  0  0  0  0  0
    2.6922    1.3572   -2.0054 C   0  0  0  0  0  0  0  0  0  0  0  0
    2.3688    0.1789   -2.6140 C   0  0  0  0  0  0  0  0  0  0  0  0
    1.8254   -0.8743   -1.8550 C   0  0  0  0  0  0  0  0  0  0  0  0
    1.3445    0.0107    2.2128 H   0  0  0  0  0  0  0  0  0  0  0  0
    1.9785    2.1807    3.0891 H   0  0  0  0  0  0  0  0  0  0  0  0
    3.2314    3.5463   -0.5749 H   0  0  0  0  0  0  0  0  0  0  0  0
   -0.7361   -1.9808    1.7966 H   0  0  0  0  0  0  0  0  0  0  0  0
   -1.1567   -0.8638   -0.9249 H   0  0  0  0  0  0  0  0  0  0  0  0
   -2.0266   -2.2642   -0.2983 H   0  0  0  0  0  0  0  0  0  0  0  0
   -2.8779   -0.7468    1.5880 H   0  0  0  0  0  0  0  0  0  0  0  0
   -2.0915    0.5959    0.7685 H   0  0  0  0  0  0  0  0  0  0  0  0
   -4.1691   -1.0707   -0.4175 H   0  0  0  0  0  0  0  0  0  0  0  0
   -5.0288    0.5810    1.1571 H   0  0  0  0  0  0  0  0  0  0  0  0
   -4.1053    1.7647    0.2459 H   0  0  0  0  0  0  0  0  0  0  0  0
   -5.3988    1.2231   -1.8048 H   0  0  0  0  0  0  0  0  0  0  0  0
   -6.3064    0.0076   -0.9264 H   0  0  0  0  0  0  0  0  0  0  0  0
   -7.6029    2.1383   -1.0718 H   0  0  0  0  0  0  0  0  0  0  0  0
   -7.2201    1.7746    0.6070 H   0  0  0  0  0  0  0  0  0  0  0  0
   -6.3014    3.0018   -0.2597 H   0  0  0  0  0  0  0  0  0  0  0  0
    3.1123    2.1765   -2.5759 H   0  0  0  0  0  0  0  0  0  0  0  0
    2.5240    0.0411   -3.6746 H   0  0  0  0  0  0  0  0  0  0  0  0
    1.5718   -1.7995   -2.3533 H   0  0  0  0  0  0  0  0  0  0  0  0
    0.9606   -2.1284    0.3733 S   0  0  1  0  0  0  0  0  0  0  0  0
 13 12  1  0
 12 11  1  0
  6 39  2  0
 11 10  1  0
 10  9  1  0
 39  7  1  1
  7  8  1  0
 39  5  2  0
 39 14  1  0
  9  8  1  0
 19 14  2  0
 19 18  1  0
 14  1  1  0
 18 17  2  0
  1  2  2  0
  1 16  1  0
  2  3  1  0
 17 16  1  0
 16  4  2  0
  3 15  2  0
  4 15  1  0
  2 20  1  0
  3 21  1  0
  4 22  1  0
  7 23  1  0
  8 24  1  0
  8 25  1  0
  9 26  1  0
  9 27  1  0
 10 28  1  0
 11 29  1  0
 11 30  1  0
 12 31  1  0
 12 32  1  0
 13 33  1  0
 13 34  1  0
 13 35  1  0
 17 36  1  0
 18 37  1  0
 19 38  1  0
M  END
