
     RDKit          3D

 85 90  0  0  0  0  0  0  0  0999 V2000
   -7.9860    0.5537    0.7615 C   0  0  0  0  0  0  0  0  0  0  0  0
   -5.4443    1.3723    1.5607 C   0  0  0  0  0  0  0  0  0  0  0  0
   -6.1692    0.5069    2.3350 C   0  0  0  0  0  0  0  0  0  0  0  0
   -2.9169    2.1398   -0.2688 N   0  0  0  0  0  0  0  0  0  0  0  0
   -0.3777   -0.9835   -0.6819 N   0  0  0  0  0  0  0  0  0  0  0  0
   -5.9655    1.8711    0.3419 C   0  0  0  0  0  0  0  0  0  0  0  0
   -1.7270    2.1079    0.3506 C   0  0  0  0  0  0  0  0  0  0  0  0
   -5.2449    2.7765   -0.4908 C   0  0  0  0  0  0  0  0  0  0  0  0
   -7.4530    0.0885    1.9319 C   0  0  0  0  0  0  0  0  0  0  0  0
   -7.2628    1.4514   -0.0584 C   0  0  0  0  0  0  0  0  0  0  0  0
   -7.8124    1.9409   -1.2674 C   0  0  0  0  0  0  0  0  0  0  0  0
   -7.1056    2.8110   -2.0470 C   0  0  0  0  0  0  0  0  0  0  0  0
   -5.8166    3.2247   -1.6528 C   0  0  0  0  0  0  0  0  0  0  0  0
   -0.9014    0.9159    0.0763 C   0  0  0  0  0  0  0  0  0  0  0  0
   -1.3666   -0.1069   -0.6278 N   0  0  0  0  0  0  0  0  0  0  0  0
   -1.3475   -3.2321   -0.4412 C   0  0  0  0  0  0  0  0  0  0  0  0
   -1.5739   -4.4523   -1.1869 N   0  0  0  0  0  0  0  0  0  0  0  0
   -2.2579   -5.5467   -0.4899 C   0  0  1  0  0  0  0  0  0  0  0  0
   -1.4544   -5.9628    0.7399 C   0  0  0  0  0  0  0  0  0  0  0  0
   -3.6890   -5.1807   -0.0819 C   0  0  0  0  0  0  0  0  0  0  0  0
   -2.2696   -6.6910   -1.5086 C   0  0  0  0  0  0  0  0  0  0  0  0
   -2.9398   -7.8088   -0.9783 O   0  0  0  0  0  0  0  0  0  0  0  0
    0.7182   -0.5566   -0.0182 C   0  0  0  0  0  0  0  0  0  0  0  0
    0.4231    0.6862    0.4842 C   0  0  0  0  0  0  0  0  0  0  0  0
    1.4238    1.4863    1.2453 C   0  0  0  0  0  0  0  0  0  0  0  0
    2.7459    0.9231    1.0248 N   0  0  0  0  0  0  0  0  0  0  0  0
    3.7567    1.6433    1.7775 C   0  0  0  0  0  0  0  0  0  0  0  0
    5.1551    1.3382    1.3153 C   0  0  0  0  0  0  0  0  0  0  0  0
    6.0401    0.7150    2.1506 C   0  0  0  0  0  0  0  0  0  0  0  0
    7.3628    0.4113    1.7686 C   0  0  0  0  0  0  0  0  0  0  0  0
    7.8041    0.7473    0.5153 C   0  0  0  0  0  0  0  0  0  0  0  0
    9.0397    0.5021    0.0500 O   0  0  0  0  0  0  0  0  0  0  0  0
    9.9534   -0.1798    0.8850 C   0  0  0  0  0  0  0  0  0  0  0  0
    6.9258    1.4079   -0.3984 C   0  0  0  0  0  0  0  0  0  0  0  0
    5.5954    1.6973    0.0059 C   0  0  0  0  0  0  0  0  0  0  0  0
    4.7459    2.3539   -0.9171 C   0  0  0  0  0  0  0  0  0  0  0  0
    5.1904    2.7104   -2.1621 C   0  0  0  0  0  0  0  0  0  0  0  0
    6.5083    2.4188   -2.5565 C   0  0  0  0  0  0  0  0  0  0  0  0
    7.3572    1.7798   -1.6928 C   0  0  0  0  0  0  0  0  0  0  0  0
    2.7831   -0.5104    1.2525 C   0  0  0  0  0  0  0  0  0  0  0  0
    2.0152   -1.2542    0.1609 C   0  0  0  0  0  0  0  0  0  0  0  0
   -8.9742    0.2398    0.4477 H   0  0  0  0  0  0  0  0  0  0  0  0
   -4.4609    1.6758    1.8927 H   0  0  0  0  0  0  0  0  0  0  0  0
   -5.7536    0.1385    3.2638 H   0  0  0  0  0  0  0  0  0  0  0  0
   -3.1393    1.3983   -0.9151 H   0  0  0  0  0  0  0  0  0  0  0  0
   -3.8293    3.5857    0.9114 H   0  0  0  0  0  0  0  0  0  0  0  0
   -3.5726    4.0765   -0.7489 H   0  0  0  0  0  0  0  0  0  0  0  0
   -8.0140   -0.5986    2.5515 H   0  0  0  0  0  0  0  0  0  0  0  0
   -8.8026    1.6151   -1.5623 H   0  0  0  0  0  0  0  0  0  0  0  0
   -7.5266    3.1859   -2.9704 H   0  0  0  0  0  0  0  0  0  0  0  0
   -5.2663    3.9096   -2.2866 H   0  0  0  0  0  0  0  0  0  0  0  0
   -1.1082   -2.0848   -2.2631 H   0  0  0  0  0  0  0  0  0  0  0  0
    0.4006   -2.6743   -1.5793 H   0  0  0  0  0  0  0  0  0  0  0  0
   -0.7477   -3.4478    0.4455 H   0  0  0  0  0  0  0  0  0  0  0  0
   -2.2659   -2.7402   -0.0923 H   0  0  0  0  0  0  0  0  0  0  0  0
   -2.1155   -4.2159   -2.0124 H   0  0  0  0  0  0  0  0  0  0  0  0
   -1.4884   -5.2057    1.5245 H   0  0  0  0  0  0  0  0  0  0  0  0
   -1.8559   -6.8821    1.1646 H   0  0  0  0  0  0  0  0  0  0  0  0
   -0.4079   -6.1357    0.4815 H   0  0  0  0  0  0  0  0  0  0  0  0
   -4.2794   -4.8856   -0.9533 H   0  0  0  0  0  0  0  0  0  0  0  0
   -4.1982   -6.0153    0.3994 H   0  0  0  0  0  0  0  0  0  0  0  0
   -3.6979   -4.3473    0.6225 H   0  0  0  0  0  0  0  0  0  0  0  0
   -2.7602   -6.3378   -2.4287 H   0  0  0  0  0  0  0  0  0  0  0  0
   -1.2307   -6.9281   -1.7711 H   0  0  0  0  0  0  0  0  0  0  0  0
   -2.8421   -8.5366   -1.5980 H   0  0  0  0  0  0  0  0  0  0  0  0
    1.4222    2.5252    0.9079 H   0  0  0  0  0  0  0  0  0  0  0  0
    1.1537    1.5086    2.3153 H   0  0  0  0  0  0  0  0  0  0  0  0
    3.5589    2.7136    1.6571 H   0  0  0  0  0  0  0  0  0  0  0  0
    3.6853    1.4428    2.8592 H   0  0  0  0  0  0  0  0  0  0  0  0
    5.7223    0.4337    3.1478 H   0  0  0  0  0  0  0  0  0  0  0  0
    8.0036   -0.0910    2.4804 H   0  0  0  0  0  0  0  0  0  0  0  0
   10.1710    0.3824    1.7965 H   0  0  0  0  0  0  0  0  0  0  0  0
    9.5875   -1.1718    1.1613 H   0  0  0  0  0  0  0  0  0  0  0  0
   10.8714   -0.2902    0.3135 H   0  0  0  0  0  0  0  0  0  0  0  0
    3.7236    2.5640   -0.6387 H   0  0  0  0  0  0  0  0  0  0  0  0
    4.5230    3.2146   -2.8492 H   0  0  0  0  0  0  0  0  0  0  0  0
    6.8506    2.7008   -3.5435 H   0  0  0  0  0  0  0  0  0  0  0  0
    8.3683    1.5616   -2.0069 H   0  0  0  0  0  0  0  0  0  0  0  0
    3.8199   -0.8445    1.2438 H   0  0  0  0  0  0  0  0  0  0  0  0
    2.3695   -0.7757    2.2399 H   0  0  0  0  0  0  0  0  0  0  0  0
    1.8794   -2.2988    0.4514 H   0  0  0  0  0  0  0  0  0  0  0  0
    2.5897   -1.2494   -0.7696 H   0  0  0  0  0  0  0  0  0  0  0  0
   -3.8595    3.2288   -0.1203 C   0  0  0  0  0  0  0  0  0  0  0  0
   -0.5756   -2.2618   -1.3274 C   0  0  0  0  0  0  0  0  0  0  0  0
   -1.3296    2.9903    1.1027 O   0  0  0  0  0  0  0  0  0  0  0  0
  1  9  2  0
  1 10  1  0
  9  3  1  0
 11 10  2  0
 11 12  1  0
 10  6  1  0
  3  2  2  0
 12 13  2  0
  6  2  1  0
  6  8  2  0
 13  8  1  0
  8 83  1  0
 83  4  1  0
  4  7  1  0
 21 22  1  0
 21 18  1  0
  7 85  2  0
  7 14  1  0
 15 14  2  0
 15  5  1  0
 33 32  1  0
 16 84  1  0
 16 17  1  0
 20 18  1  0
 14 24  1  0
 84  5  1  0
 18 17  1  6
 18 19  1  0
  5 23  1  0
 32 31  1  0
 24 23  2  0
 24 25  1  0
 23 41  1  0
 30 31  1  0
 30 29  2  0
 31 34  2  0
 25 26  1  0
 29 28  1  0
 41 40  1  0
 34 39  1  0
 34 35  1  0
 39 38  2  0
 40 26  1  0
 26 27  1  0
 28 35  2  0
 28 27  1  0
 35 36  1  0
 38 37  1  0
 36 37  2  0
  1 42  1  0
  2 43  1  0
  3 44  1  0
  4 45  1  0
 83 46  1  0
 83 47  1  0
  9 48  1  0
 11 49  1  0
 12 50  1  0
 13 51  1  0
 84 52  1  0
 84 53  1  0
 16 54  1  0
 16 55  1  0
 17 56  1  0
 19 57  1  0
 19 58  1  0
 19 59  1  0
 20 60  1  0
 20 61  1  0
 20 62  1  0
 21 63  1  0
 21 64  1  0
 22 65  1  0
 25 66  1  0
 25 67  1  0
 27 68  1  0
 27 69  1  0
 29 70  1  0
 30 71  1  0
 33 72  1  0
 33 73  1  0
 33 74  1  0
 36 75  1  0
 37 76  1  0
 38 77  1  0
 39 78  1  0
 40 79  1  0
 40 80  1  0
 41 81  1  0
 41 82  1  0
M  END
