
     RDKit          3D

 18 18  0  0  0  0  0  0  0  0999 V2000
   -0.9445    0.3265    0.8436 N   0  0  0  0  0  0  0  0  0  0  0  0
   -1.0318    0.2438    3.1021 N   0  0  0  0  0  0  0  0  0  0  0  0
   -0.8590   -0.4858   -2.7439 C   0  0  0  0  0  0  0  0  0  0  0  0
   -1.2789   -0.3883   -1.4246 C   0  0  0  0  0  0  0  0  0  0  0  0
   -0.4508    0.1892   -0.4670 C   0  0  0  0  0  0  0  0  0  0  0  0
    0.7989    0.6774   -0.8392 C   0  0  0  0  0  0  0  0  0  0  0  0
    1.2178    0.5606   -2.1560 C   0  0  0  0  0  0  0  0  0  0  0  0
    0.3946   -0.0197   -3.1136 C   0  0  0  0  0  0  0  0  0  0  0  0
   -0.3244    0.0008    1.9979 C   0  0  0  0  0  0  0  0  0  0  0  0
    1.2073   -0.6865    2.0892 S   0  0  0  0  0  0  0  0  0  0  0  0
   -1.9233    0.5689    0.9075 H   0  0  0  0  0  0  0  0  0  0  0  0
   -0.6347    0.0235    3.9980 H   0  0  0  0  0  0  0  0  0  0  0  0
   -1.9400    0.6810    3.0872 H   0  0  0  0  0  0  0  0  0  0  0  0
   -1.5136   -0.9339   -3.4801 H   0  0  0  0  0  0  0  0  0  0  0  0
   -2.2529   -0.7644   -1.1360 H   0  0  0  0  0  0  0  0  0  0  0  0
    1.4369    1.1490   -0.1062 H   0  0  0  0  0  0  0  0  0  0  0  0
    2.1908    0.9416   -2.4373 H   0  0  0  0  0  0  0  0  0  0  0  0
    0.7252   -0.0991   -4.1409 H   0  0  0  0  0  0  0  0  0  0  0  0
  1  5  1  0
  1  9  1  0
  1 11  1  0
  2  9  1  0
  2 12  1  0
  2 13  1  0
  3  4  2  0
  3  8  1  0
  3 14  1  0
  4  5  1  0
  4 15  1  0
  5  6  2  0
  6  7  1  0
  6 16  1  0
  7  8  2  0
  7 17  1  0
  8 18  1  0
  9 10  2  0
M  END
