
     RDKit          3D

 28 29  0  0  0  0  0  0  0  0999 V2000
   -3.8611   -0.2302   -0.2613 C   0  0  0  0  0  0  0  0  0  0  0  0
   -0.4476    1.4953   -0.0210 C   0  0  0  0  0  0  0  0  0  0  0  0
   -1.4244    0.5027   -0.0974 C   0  0  0  0  0  0  0  0  0  0  0  0
   -1.0259   -0.8392   -0.1280 C   0  0  0  0  0  0  0  0  0  0  0  0
    0.3249   -1.1405   -0.0794 C   0  0  0  0  0  0  0  0  0  0  0  0
    1.2991   -0.1440   -0.0041 C   0  0  0  0  0  0  0  0  0  0  0  0
    0.8991    1.1966    0.0232 C   0  0  0  0  0  0  0  0  0  0  0  0
    2.6230   -0.5688    0.0467 N   0  0  0  0  0  0  0  0  0  0  0  0
    3.7725    0.1617    0.1352 C   0  0  0  0  0  0  0  0  0  0  0  0
    5.0281   -0.6703    0.1272 C   0  0  0  0  0  0  0  0  0  0  0  0
    3.8031    1.3738    0.1855 O   0  0  0  0  0  0  0  0  0  0  0  0
   -2.0427   -1.9419   -0.2211 C   0  0  0  0  0  0  0  0  0  0  0  0
   -3.3763   -1.5231    0.3777 C   0  0  0  0  0  0  0  0  0  0  0  0
   -2.8550    0.8906   -0.1468 C   0  0  0  0  0  0  0  0  0  0  0  0
   -3.1975    2.0513   -0.1176 O   0  0  0  0  0  0  0  0  0  0  0  0
   -4.0389   -0.3967   -1.3308 H   0  0  0  0  0  0  0  0  0  0  0  0
   -4.8095    0.1015    0.1624 H   0  0  0  0  0  0  0  0  0  0  0  0
   -0.7548    2.5328    0.0030 H   0  0  0  0  0  0  0  0  0  0  0  0
    0.6292   -2.1819   -0.0965 H   0  0  0  0  0  0  0  0  0  0  0  0
    1.6231    1.9912    0.0784 H   0  0  0  0  0  0  0  0  0  0  0  0
    2.7425   -1.5678    0.0148 H   0  0  0  0  0  0  0  0  0  0  0  0
    5.4223   -0.7125   -0.8895 H   0  0  0  0  0  0  0  0  0  0  0  0
    5.7826   -0.2033    0.7551 H   0  0  0  0  0  0  0  0  0  0  0  0
    4.8820   -1.6937    0.4680 H   0  0  0  0  0  0  0  0  0  0  0  0
   -2.1836   -2.2066   -1.2750 H   0  0  0  0  0  0  0  0  0  0  0  0
   -1.6632   -2.8400    0.2700 H   0  0  0  0  0  0  0  0  0  0  0  0
   -3.2652   -1.3835    1.4564 H   0  0  0  0  0  0  0  0  0  0  0  0
   -4.1184   -2.3102    0.2383 H   0  0  0  0  0  0  0  0  0  0  0  0
 11  9  2  0
  9 10  1  0
  9  8  1  0
  7  2  2  0
  7  6  1  0
  2  3  1  0
 15 14  2  0
  8  6  1  0
  6  5  2  0
  3 14  1  0
  3  4  2  0
 14  1  1  0
  5  4  1  0
  4 12  1  0
  1 13  1  0
 12 13  1  0
  1 16  1  0
  1 17  1  0
  2 18  1  0
  5 19  1  0
  7 20  1  0
  8 21  1  0
 10 22  1  0
 10 23  1  0
 10 24  1  0
 12 25  1  0
 12 26  1  0
 13 27  1  0
 13 28  1  0
M  END
