
     RDKit          3D

 46 48  0  0  0  0  0  0  0  0999 V2000
   -1.4201   -3.4862    0.0969 O   0  0  0  0  0  0  0  0  0  0  0  0
   -0.9541   -2.5158   -0.6770 C   0  0  0  0  0  0  0  0  0  0  0  0
   -0.3177   -2.7039   -1.6817 O   0  0  0  0  0  0  0  0  0  0  0  0
   -1.4027   -1.1422   -0.1959 C   0  0  2  0  0  0  0  0  0  0  0  0
   -2.7459   -0.7943   -0.8565 C   0  0  0  0  0  0  0  0  0  0  0  0
   -3.3153    0.4900   -0.3217 C   0  0  0  0  0  0  0  0  0  0  0  0
   -3.9904    0.5052    0.8969 C   0  0  0  0  0  0  0  0  0  0  0  0
   -4.5003    1.6889    1.4118 C   0  0  0  0  0  0  0  0  0  0  0  0
   -4.3407    2.8789    0.7123 C   0  0  0  0  0  0  0  0  0  0  0  0
   -3.6719    2.8744   -0.5043 C   0  0  0  0  0  0  0  0  0  0  0  0
   -3.1641    1.6871   -1.0156 C   0  0  0  0  0  0  0  0  0  0  0  0
   -0.4316   -0.1321   -0.4982 N   0  0  0  0  0  0  0  0  0  0  0  0
    0.8256   -0.2493    0.0371 C   0  0  0  0  0  0  0  0  0  0  0  0
    1.0642   -1.1851    0.8684 N   0  0  0  0  0  0  0  0  0  0  0  0
    2.3841   -1.2698    1.4807 C   0  0  1  0  0  0  0  0  0  0  0  0
    2.4171   -0.3906    2.7336 C   0  0  0  0  0  0  0  0  0  0  0  0
    2.6068   -2.7260    1.8765 C   0  0  0  0  0  0  0  0  0  0  0  0
    3.4737   -0.8452    0.4889 C   0  0  0  0  0  0  0  0  0  0  0  0
    3.1556    0.4838   -0.1233 C   0  0  0  0  0  0  0  0  0  0  0  0
    1.8119    0.7759   -0.3665 C   0  0  0  0  0  0  0  0  0  0  0  0
    1.4514    2.0029   -0.9170 C   0  0  0  0  0  0  0  0  0  0  0  0
    2.4277    2.9304   -1.2507 C   0  0  0  0  0  0  0  0  0  0  0  0
    3.7655    2.6361   -1.0235 C   0  0  0  0  0  0  0  0  0  0  0  0
    4.1248    1.4195   -0.4569 C   0  0  0  0  0  0  0  0  0  0  0  0
   -1.1790   -4.3500   -0.2700 H   0  0  0  0  0  0  0  0  0  0  0  0
   -1.5411   -1.1856    0.8865 H   0  0  0  0  0  0  0  0  0  0  0  0
   -2.6086   -0.7258   -1.9390 H   0  0  0  0  0  0  0  0  0  0  0  0
   -3.4458   -1.6134   -0.6797 H   0  0  0  0  0  0  0  0  0  0  0  0
   -4.1235   -0.4204    1.4458 H   0  0  0  0  0  0  0  0  0  0  0  0
   -5.0278    1.6814    2.3571 H   0  0  0  0  0  0  0  0  0  0  0  0
   -4.7389    3.8028    1.1110 H   0  0  0  0  0  0  0  0  0  0  0  0
   -3.5460    3.7956   -1.0585 H   0  0  0  0  0  0  0  0  0  0  0  0
   -2.6534    1.6925   -1.9718 H   0  0  0  0  0  0  0  0  0  0  0  0
   -0.4800    0.2592   -1.4264 H   0  0  0  0  0  0  0  0  0  0  0  0
    1.6073   -0.6643    3.4118 H   0  0  0  0  0  0  0  0  0  0  0  0
    3.3589   -0.5118    3.2722 H   0  0  0  0  0  0  0  0  0  0  0  0
    2.3037    0.6675    2.4909 H   0  0  0  0  0  0  0  0  0  0  0  0
    2.5274   -3.3772    1.0050 H   0  0  0  0  0  0  0  0  0  0  0  0
    3.5954   -2.8651    2.3176 H   0  0  0  0  0  0  0  0  0  0  0  0
    1.8620   -3.0474    2.6060 H   0  0  0  0  0  0  0  0  0  0  0  0
    4.4504   -0.8211    0.9775 H   0  0  0  0  0  0  0  0  0  0  0  0
    3.5401   -1.5987   -0.3058 H   0  0  0  0  0  0  0  0  0  0  0  0
    0.4095    2.2544   -1.0708 H   0  0  0  0  0  0  0  0  0  0  0  0
    2.1426    3.8823   -1.6785 H   0  0  0  0  0  0  0  0  0  0  0  0
    4.5303    3.3586   -1.2780 H   0  0  0  0  0  0  0  0  0  0  0  0
    5.1683    1.1976   -0.2683 H   0  0  0  0  0  0  0  0  0  0  0  0
 22 23  2  0
 22 21  1  0
 23 24  1  0
 21 20  2  0
  3  2  2  0
 24 19  2  0
 20 19  1  0
 20 13  1  0
 19 18  1  0
  2  1  1  0
  2  4  1  0
 12 13  1  0
 12  4  1  0
 13 14  2  0
 18 15  1  0
  4  5  1  0
  5  6  1  0
 14 15  1  0
 15 16  1  1
 15 17  1  0
  7  6  2  0
  7  8  1  0
  6 11  1  0
  8  9  2  0
 11 10  2  0
  9 10  1  0
  1 25  1  0
  4 26  1  1
  5 27  1  0
  5 28  1  0
  7 29  1  0
  8 30  1  0
  9 31  1  0
 10 32  1  0
 11 33  1  0
 12 34  1  0
 16 35  1  0
 16 36  1  0
 16 37  1  0
 17 38  1  0
 17 39  1  0
 17 40  1  0
 18 41  1  0
 18 42  1  0
 21 43  1  0
 22 44  1  0
 23 45  1  0
 24 46  1  0
M  END
