
     RDKit          3D

 61 64  0  0  0  0  0  0  0  0999 V2000
   -2.3419   -0.4219   -1.6117 N   0  0  0  0  0  0  0  0  0  0  0  0
   -1.8436    2.8591    0.8370 C   0  0  0  0  0  0  0  0  0  0  0  0
   -1.3517   -2.5144   -1.5310 N   0  0  0  0  0  0  0  0  0  0  0  0
    2.5511    1.1883   -1.2130 N   0  0  0  0  0  0  0  0  0  0  0  0
   -0.8930    3.5497    2.9530 C   0  0  0  0  0  0  0  0  0  0  0  0
    1.6259   -6.2596    0.0156 N   0  0  0  0  0  0  0  0  0  0  0  0
   -2.1094    5.1245    1.6199 C   0  0  0  0  0  0  0  0  0  0  0  0
   -2.7972    1.9971   -1.1741 C   0  0  0  0  0  0  0  0  0  0  0  0
   -1.3585   -1.2642   -2.0884 C   0  0  0  0  0  0  0  0  0  0  0  0
   -2.3402    4.1452    0.6597 C   0  0  0  0  0  0  0  0  0  0  0  0
   -2.2121   -3.0313   -0.5754 C   0  0  0  0  0  0  0  0  0  0  0  0
   -3.2318   -2.0988   -0.1680 C   0  0  0  0  0  0  0  0  0  0  0  0
   -3.2481   -0.8624   -0.6954 C   0  0  0  0  0  0  0  0  0  0  0  0
    0.0725    0.5806    1.4672 C   0  0  0  0  0  0  0  0  0  0  0  0
    0.0822   -0.7856    1.6252 C   0  0  0  0  0  0  0  0  0  0  0  0
    0.9069   -1.5447    0.7476 C   0  0  0  0  0  0  0  0  0  0  0  0
    1.7142   -0.9050   -0.2331 C   0  0  0  0  0  0  0  0  0  0  0  0
    1.7216    0.5092   -0.2824 C   0  0  0  0  0  0  0  0  0  0  0  0
    0.9135    1.2310    0.5451 C   0  0  0  0  0  0  0  0  0  0  0  0
    0.9251   -2.9560    0.7987 C   0  0  0  0  0  0  0  0  0  0  0  0
    1.6776   -3.6831   -0.0916 C   0  0  0  0  0  0  0  0  0  0  0  0
    2.4649   -3.0447   -1.0770 C   0  0  0  0  0  0  0  0  0  0  0  0
    2.4793   -1.6823   -1.1310 C   0  0  0  0  0  0  0  0  0  0  0  0
    1.6461   -5.1082   -0.0281 C   0  0  0  0  0  0  0  0  0  0  0  0
   -0.7758   -1.4392    2.6687 C   0  0  0  0  0  0  0  0  0  0  0  0
    3.8400    1.4214   -0.8464 C   0  0  0  0  0  0  0  0  0  0  0  0
    4.6689    2.2443   -1.7659 C   0  0  0  0  0  0  0  0  0  0  0  0
    1.9200    1.6799   -2.4302 C   0  0  0  0  0  0  0  0  0  0  0  0
    5.9760    2.3764   -1.5659 C   0  0  0  0  0  0  0  0  0  0  0  0
   -1.1280    2.5687    2.0084 C   0  0  0  0  0  0  0  0  0  0  0  0
   -1.3844    4.8357    2.7630 C   0  0  0  0  0  0  0  0  0  0  0  0
   -2.4210    0.9250   -2.1739 C   0  0  0  0  0  0  0  0  0  0  0  0
   -0.7409    1.2885    2.2944 O   0  0  0  0  0  0  0  0  0  0  0  0
   -1.9739    1.8458   -0.0374 O   0  0  0  0  0  0  0  0  0  0  0  0
   -0.5598   -0.9384   -2.9428 O   0  0  0  0  0  0  0  0  0  0  0  0
   -2.0679   -4.1683   -0.1652 O   0  0  0  0  0  0  0  0  0  0  0  0
    4.2905    0.9699    0.1959 O   0  0  0  0  0  0  0  0  0  0  0  0
   -0.6237   -3.1301   -1.8712 H   0  0  0  0  0  0  0  0  0  0  0  0
   -0.3371    3.2945    3.8464 H   0  0  0  0  0  0  0  0  0  0  0  0
   -2.5077    6.1179    1.4620 H   0  0  0  0  0  0  0  0  0  0  0  0
   -2.6319    2.9506   -1.6824 H   0  0  0  0  0  0  0  0  0  0  0  0
   -3.8523    1.9621   -0.8854 H   0  0  0  0  0  0  0  0  0  0  0  0
   -2.9179    4.4025   -0.2175 H   0  0  0  0  0  0  0  0  0  0  0  0
   -3.9735   -2.3947    0.5575 H   0  0  0  0  0  0  0  0  0  0  0  0
   -4.0111   -0.1558   -0.4047 H   0  0  0  0  0  0  0  0  0  0  0  0
    0.9383    2.3131    0.4984 H   0  0  0  0  0  0  0  0  0  0  0  0
    0.3289   -3.4834    1.5284 H   0  0  0  0  0  0  0  0  0  0  0  0
    3.0427   -3.6346   -1.7747 H   0  0  0  0  0  0  0  0  0  0  0  0
    3.0765   -1.1889   -1.8855 H   0  0  0  0  0  0  0  0  0  0  0  0
   -1.7537   -1.7088    2.2639 H   0  0  0  0  0  0  0  0  0  0  0  0
   -0.3208   -2.3475    3.0574 H   0  0  0  0  0  0  0  0  0  0  0  0
   -0.9473   -0.7838    3.5189 H   0  0  0  0  0  0  0  0  0  0  0  0
    4.2055    2.7534   -2.5996 H   0  0  0  0  0  0  0  0  0  0  0  0
    2.5842    1.5910   -3.2862 H   0  0  0  0  0  0  0  0  0  0  0  0
    1.0497    1.0640   -2.6388 H   0  0  0  0  0  0  0  0  0  0  0  0
    1.5941    2.7173   -2.3364 H   0  0  0  0  0  0  0  0  0  0  0  0
    6.5810    2.9816   -2.2266 H   0  0  0  0  0  0  0  0  0  0  0  0
    6.4835    1.8881   -0.7445 H   0  0  0  0  0  0  0  0  0  0  0  0
   -1.2008    5.5989    3.5067 H   0  0  0  0  0  0  0  0  0  0  0  0
   -1.4463    1.1586   -2.5914 H   0  0  0  0  0  0  0  0  0  0  0  0
   -3.1419    0.9484   -2.9934 H   0  0  0  0  0  0  0  0  0  0  0  0
 35  9  2  0
 32  8  1  0
 32  1  1  0
  9  1  1  0
  9  3  1  0
  8 34  1  0
  1 13  1  0
  3 11  1  0
 13 12  2  0
 34  2  1  0
 11 12  1  0
 11 36  2  0
 10  2  2  0
 10  7  1  0
  2 30  1  0
  7 31  2  0
 30 33  1  0
 30  5  2  0
 33 14  1  0
 31  5  1  0
 14 19  1  0
 14 15  2  0
 28  4  1  0
 19 18  2  0
 25 15  1  0
 15 16  1  0
 18  4  1  0
 18 17  1  0
  4 26  1  0
 37 26  2  0
 16 17  2  0
 16 20  1  0
 26 27  1  0
 17 23  1  0
 20 21  2  0
 27 29  2  0
 23 22  2  0
 21 22  1  0
 21 24  1  0
 24  6  3  0
  3 38  1  0
  5 39  1  0
  7 40  1  0
  8 41  1  0
  8 42  1  0
 10 43  1  0
 12 44  1  0
 13 45  1  0
 19 46  1  0
 20 47  1  0
 22 48  1  0
 23 49  1  0
 25 50  1  0
 25 51  1  0
 25 52  1  0
 27 53  1  0
 28 54  1  0
 28 55  1  0
 28 56  1  0
 29 57  1  0
 29 58  1  0
 31 59  1  0
 32 60  1  0
 32 61  1  0
M  END
