
     RDKit          3D

 57 58  0  0  0  0  0  0  0  0999 V2000
    1.0001   -4.3815    0.1192 C   0  0  1  0  0  0  0  0  0  0  0  0
    1.8601   -5.4190   -0.5929 C   0  0  0  0  0  0  0  0  0  0  0  0
   -0.4349   -4.4681   -0.3879 C   0  0  0  0  0  0  0  0  0  0  0  0
    1.0841   -4.5878    1.6272 C   0  0  0  0  0  0  0  0  0  0  0  0
    1.6183   -3.1268   -0.2674 O   0  0  0  0  0  0  0  0  0  0  0  0
    1.1300   -1.9441    0.1040 C   0  0  0  0  0  0  0  0  0  0  0  0
    0.1630   -1.7723    0.8172 O   0  0  0  0  0  0  0  0  0  0  0  0
    1.8896   -0.9505   -0.4116 N   0  0  0  0  0  0  0  0  0  0  0  0
    1.5066    0.4428   -0.3647 C   0  0  1  0  0  0  0  0  0  0  0  0
    2.7412    1.2890   -0.0527 C   0  0  0  0  0  0  0  0  0  0  0  0
    2.5615    2.8022   -0.0965 C   0  0  1  0  0  0  0  0  0  0  0  0
    1.4514    3.3756    0.7762 C   0  0  0  0  0  0  0  0  0  0  0  0
    0.3256    2.9197    0.9285 O   0  0  0  0  0  0  0  0  0  0  0  0
    1.9155    4.5064    1.3282 N   0  0  0  0  0  0  0  0  0  0  0  0
    3.2459    4.8872    0.9022 C   0  0  0  0  0  0  0  0  0  0  0  0
    3.8022    3.5659    0.3736 C   0  0  0  0  0  0  0  0  0  0  0  0
    0.8165    0.8441   -1.6842 C   0  0  1  0  0  0  0  0  0  0  0  0
    1.6442    0.6138   -2.7868 O   0  0  0  0  0  0  0  0  0  0  0  0
   -0.4794    0.0564   -1.8221 C   0  0  0  0  0  0  0  0  0  0  0  0
   -0.5449   -0.9065   -2.5765 O   0  0  0  0  0  0  0  0  0  0  0  0
   -1.4854    0.4709   -1.0510 N   0  0  0  0  0  0  0  0  0  0  0  0
   -2.7188   -0.2783   -0.9080 C   0  0  0  0  0  0  0  0  0  0  0  0
   -3.4650    0.1681    0.3185 C   0  0  0  0  0  0  0  0  0  0  0  0
   -2.9280   -0.0559    1.5857 C   0  0  0  0  0  0  0  0  0  0  0  0
   -4.6908    0.8150    0.2090 C   0  0  0  0  0  0  0  0  0  0  0  0
   -5.3774    1.2274    1.3449 C   0  0  0  0  0  0  0  0  0  0  0  0
   -4.8381    0.9995    2.6028 C   0  0  0  0  0  0  0  0  0  0  0  0
   -3.6101    0.3579    2.7202 C   0  0  0  0  0  0  0  0  0  0  0  0
    1.8013   -5.3075   -1.6767 H   0  0  0  0  0  0  0  0  0  0  0  0
    2.9068   -5.3402   -0.2951 H   0  0  0  0  0  0  0  0  0  0  0  0
    1.5164   -6.4215   -0.3400 H   0  0  0  0  0  0  0  0  0  0  0  0
   -1.1104   -3.8115    0.1551 H   0  0  0  0  0  0  0  0  0  0  0  0
   -0.4895   -4.2193   -1.4492 H   0  0  0  0  0  0  0  0  0  0  0  0
   -0.7928   -5.4918   -0.2688 H   0  0  0  0  0  0  0  0  0  0  0  0
    0.7658   -5.6027    1.8678 H   0  0  0  0  0  0  0  0  0  0  0  0
    2.1100   -4.4714    1.9808 H   0  0  0  0  0  0  0  0  0  0  0  0
    0.4452   -3.9003    2.1768 H   0  0  0  0  0  0  0  0  0  0  0  0
    2.6313   -1.2048   -1.0461 H   0  0  0  0  0  0  0  0  0  0  0  0
    0.7928    0.5596    0.4472 H   0  0  0  0  0  0  0  0  0  0  0  0
    3.0963    1.0006    0.9403 H   0  0  0  0  0  0  0  0  0  0  0  0
    3.5438    1.0340   -0.7514 H   0  0  0  0  0  0  0  0  0  0  0  0
    2.3288    3.1165   -1.1223 H   0  0  0  0  0  0  0  0  0  0  0  0
    1.3160    5.1263    1.8510 H   0  0  0  0  0  0  0  0  0  0  0  0
    3.2040    5.6512    0.1210 H   0  0  0  0  0  0  0  0  0  0  0  0
    3.8256    5.2866    1.7333 H   0  0  0  0  0  0  0  0  0  0  0  0
    4.2853    3.0184    1.1863 H   0  0  0  0  0  0  0  0  0  0  0  0
    4.5376    3.7094   -0.4160 H   0  0  0  0  0  0  0  0  0  0  0  0
    0.5702    1.9095   -1.6447 H   0  0  0  0  0  0  0  0  0  0  0  0
    1.3716   -0.2301   -3.1737 H   0  0  0  0  0  0  0  0  0  0  0  0
   -1.3449    1.2807   -0.4651 H   0  0  0  0  0  0  0  0  0  0  0  0
   -3.3473   -0.1545   -1.7932 H   0  0  0  0  0  0  0  0  0  0  0  0
   -2.4737   -1.3403   -0.8322 H   0  0  0  0  0  0  0  0  0  0  0  0
   -1.9751   -0.5635    1.6794 H   0  0  0  0  0  0  0  0  0  0  0  0
   -5.1135    0.9984   -0.7718 H   0  0  0  0  0  0  0  0  0  0  0  0
   -6.3311    1.7293    1.2442 H   0  0  0  0  0  0  0  0  0  0  0  0
   -5.3713    1.3172    3.4895 H   0  0  0  0  0  0  0  0  0  0  0  0
   -3.1856    0.1760    3.6991 H   0  0  0  0  0  0  0  0  0  0  0  0
 13 12  2  0
 12 14  1  0
 12 11  1  0
 14 15  1  0
 10 11  1  0
 10  9  1  0
 11 16  1  0
 20 19  2  0
 17  9  1  0
 17 19  1  0
 17 18  1  0
  9  8  1  0
  8  6  1  0
 15 16  1  0
 19 21  1  0
  2  1  1  0
  5  6  1  0
  1  5  1  1
  6  7  2  0
 21 22  1  0
  1  3  1  0
  1  4  1  0
 22 23  1  0
 23 25  1  0
 23 24  2  0
 25 26  2  0
 24 28  1  0
 26 27  1  0
 28 27  2  0
  2 29  1  0
  2 30  1  0
  2 31  1  0
  3 32  1  0
  3 33  1  0
  3 34  1  0
  4 35  1  0
  4 36  1  0
  4 37  1  0
  8 38  1  0
  9 39  1  1
 10 40  1  0
 10 41  1  0
 11 42  1  6
 14 43  1  0
 15 44  1  0
 15 45  1  0
 16 46  1  0
 16 47  1  0
 17 48  1  1
 18 49  1  0
 21 50  1  0
 22 51  1  0
 22 52  1  0
 24 53  1  0
 25 54  1  0
 26 55  1  0
 27 56  1  0
 28 57  1  0
M  END
