
     RDKit          3D

 68 67  0  0  0  0  0  0  0  0999 V2000
    3.8278    4.7116    1.6306 C   0  0  0  0  0  0  0  0  0  0  0  0
    2.9840    3.4638    1.4196 C   0  0  0  0  0  0  0  0  0  0  0  0
    2.1557    3.5161    0.1412 C   0  0  0  0  0  0  0  0  0  0  0  0
    1.3350    2.2516   -0.0397 C   0  0  0  0  0  0  0  0  0  0  0  0
    0.5046    2.2189   -1.2923 C   0  0  0  0  0  0  0  0  0  0  0  0
    0.5649    3.0113   -2.1972 O   0  0  0  0  0  0  0  0  0  0  0  0
   -0.3189    1.1761   -1.2869 O   0  0  0  0  0  0  0  0  0  0  0  0
   -1.0987    0.9366   -2.4514 C   0  0  0  0  0  0  0  0  0  0  0  0
   -1.7325   -0.4362   -2.3322 C   0  0  1  0  0  0  0  0  0  0  0  0
   -0.7777   -1.6010   -2.4755 C   0  0  0  0  0  0  0  0  0  0  0  0
    0.2069   -1.6342   -1.4359 O   0  0  0  0  0  0  0  0  0  0  0  0
    1.7405   -1.4098   -1.7864 P   0  0  1  0  0  0  0  0  0  0  0  0
    2.2726   -2.7345   -2.5003 O   0  0  0  0  0  0  0  0  0  0  0  0
    2.0994   -0.2348   -2.6004 O   0  0  0  0  0  0  0  0  0  0  0  0
    2.2987   -1.4295   -0.2845 O   0  0  0  0  0  0  0  0  0  0  0  0
    3.7057   -1.5242   -0.0627 C   0  0  0  0  0  0  0  0  0  0  0  0
    4.1616   -0.6250    1.0586 C   0  0  0  0  0  0  0  0  0  0  0  0
    3.7171   -0.9607    2.4567 N   0  0  1  0  0  0  0  0  0  0  0  0
    3.9972   -2.3862    2.7829 C   0  0  0  0  0  0  0  0  0  0  0  0
    4.5020   -0.0944    3.3850 C   0  0  0  0  0  0  0  0  0  0  0  0
    2.2675   -0.6763    2.6691 C   0  0  0  0  0  0  0  0  0  0  0  0
   -2.4075   -0.5923   -1.0836 O   0  0  0  0  0  0  0  0  0  0  0  0
   -3.6393   -0.0949   -0.9522 C   0  0  0  0  0  0  0  0  0  0  0  0
   -4.2125    0.4904   -1.8348 O   0  0  0  0  0  0  0  0  0  0  0  0
   -4.1899   -0.3563    0.4214 C   0  0  0  0  0  0  0  0  0  0  0  0
   -5.6601    0.0046    0.5669 C   0  0  0  0  0  0  0  0  0  0  0  0
   -6.1894   -0.3216    1.9573 C   0  0  0  0  0  0  0  0  0  0  0  0
   -7.6677    0.0104    2.1222 C   0  0  0  0  0  0  0  0  0  0  0  0
   -8.2003   -0.3430    3.5037 C   0  0  0  0  0  0  0  0  0  0  0  0
    3.2030    5.6050    1.6805 H   0  0  0  0  0  0  0  0  0  0  0  0
    4.3968    4.6543    2.5588 H   0  0  0  0  0  0  0  0  0  0  0  0
    4.5387    4.8505    0.8144 H   0  0  0  0  0  0  0  0  0  0  0  0
    3.6412    2.5876    1.3877 H   0  0  0  0  0  0  0  0  0  0  0  0
    2.3219    3.3184    2.2788 H   0  0  0  0  0  0  0  0  0  0  0  0
    1.4963    4.3873    0.1737 H   0  0  0  0  0  0  0  0  0  0  0  0
    2.8186    3.6577   -0.7161 H   0  0  0  0  0  0  0  0  0  0  0  0
    1.9929    1.3778   -0.0810 H   0  0  0  0  0  0  0  0  0  0  0  0
    0.6771    2.0890    0.8189 H   0  0  0  0  0  0  0  0  0  0  0  0
   -1.8696    1.7032   -2.5515 H   0  0  0  0  0  0  0  0  0  0  0  0
   -0.4837    0.9637   -3.3542 H   0  0  0  0  0  0  0  0  0  0  0  0
   -2.4379   -0.5315   -3.1640 H   0  0  0  0  0  0  0  0  0  0  0  0
   -1.3322   -2.5381   -2.4211 H   0  0  0  0  0  0  0  0  0  0  0  0
   -0.3245   -1.5477   -3.4686 H   0  0  0  0  0  0  0  0  0  0  0  0
    2.0533   -3.5716   -2.0677 H   0  0  0  0  0  0  0  0  0  0  0  0
    3.9729   -2.5663    0.1138 H   0  0  0  0  0  0  0  0  0  0  0  0
    4.2763   -1.1920   -0.9340 H   0  0  0  0  0  0  0  0  0  0  0  0
    5.2511   -0.6625    1.0639 H   0  0  0  0  0  0  0  0  0  0  0  0
    3.8719    0.4088    0.8720 H   0  0  0  0  0  0  0  0  0  0  0  0
    5.0449   -2.5993    2.5880 H   0  0  0  0  0  0  0  0  0  0  0  0
    3.7788   -2.5484    3.8344 H   0  0  0  0  0  0  0  0  0  0  0  0
    3.3659   -3.0354    2.1845 H   0  0  0  0  0  0  0  0  0  0  0  0
    4.3091    0.9498    3.1520 H   0  0  0  0  0  0  0  0  0  0  0  0
    4.1969   -0.3013    4.4067 H   0  0  0  0  0  0  0  0  0  0  0  0
    5.5607   -0.3063    3.2650 H   0  0  0  0  0  0  0  0  0  0  0  0
    1.6609   -1.3247    2.0483 H   0  0  0  0  0  0  0  0  0  0  0  0
    2.0334   -0.8504    3.7156 H   0  0  0  0  0  0  0  0  0  0  0  0
    2.0694    0.3647    2.4254 H   0  0  0  0  0  0  0  0  0  0  0  0
   -4.0248   -1.4090    0.6683 H   0  0  0  0  0  0  0  0  0  0  0  0
   -3.5836    0.2102    1.1365 H   0  0  0  0  0  0  0  0  0  0  0  0
   -5.8040    1.0683    0.3606 H   0  0  0  0  0  0  0  0  0  0  0  0
   -6.2467   -0.5392   -0.1786 H   0  0  0  0  0  0  0  0  0  0  0  0
   -6.0334   -1.3855    2.1667 H   0  0  0  0  0  0  0  0  0  0  0  0
   -5.6096    0.2241    2.7096 H   0  0  0  0  0  0  0  0  0  0  0  0
   -7.8235    1.0760    1.9284 H   0  0  0  0  0  0  0  0  0  0  0  0
   -8.2440   -0.5236    1.3604 H   0  0  0  0  0  0  0  0  0  0  0  0
   -8.0822   -1.4085    3.7101 H   0  0  0  0  0  0  0  0  0  0  0  0
   -7.6700    0.2041    4.2854 H   0  0  0  0  0  0  0  0  0  0  0  0
   -9.2607   -0.1061    3.5976 H   0  0  0  0  0  0  0  0  0  0  0  0
 18 21  1  6
 20 18  1  0
 14 12  2  0
 18 17  1  0
 18 19  1  0
 17 16  1  0
 12 13  1  6
 12 11  1  0
 12 15  1  0
  6  5  2  0
 16 15  1  0
 11 10  1  0
  5  7  1  0
  5  4  1  0
 10  9  1  0
  7  8  1  0
  4  3  1  0
  9  8  1  0
  9 22  1  0
  3  2  1  0
  2  1  1  0
 22 23  1  0
 23 24  2  0
 23 25  1  0
 25 26  1  0
 26 27  1  0
 27 28  1  0
 28 29  1  0
  1 30  1  0
  1 31  1  0
  1 32  1  0
  2 33  1  0
  2 34  1  0
  3 35  1  0
  3 36  1  0
  4 37  1  0
  4 38  1  0
  8 39  1  0
  8 40  1  0
  9 41  1  6
 10 42  1  0
 10 43  1  0
 13 44  1  0
 16 45  1  0
 16 46  1  0
 17 47  1  0
 17 48  1  0
 19 49  1  0
 19 50  1  0
 19 51  1  0
 20 52  1  0
 20 53  1  0
 20 54  1  0
 21 55  1  0
 21 56  1  0
 21 57  1  0
 25 58  1  0
 25 59  1  0
 26 60  1  0
 26 61  1  0
 27 62  1  0
 27 63  1  0
 28 64  1  0
 28 65  1  0
 29 66  1  0
 29 67  1  0
 29 68  1  0
M  CHG  1  18   1
M  END
