
     RDKit          3D

 21 22  0  0  0  0  0  0  0  0999 V2000
   -1.5631   -1.1666   -0.5032 C   0  0  0  0  0  0  0  0  0  0  0  0
   -2.9969   -1.0441   -0.2839 C   0  0  0  0  0  0  0  0  0  0  0  0
   -4.1328   -0.9919   -0.1117 N   0  0  0  0  0  0  0  0  0  0  0  0
   -0.7344   -0.2704    0.4228 C   0  0  2  0  0  0  0  0  0  0  0  0
   -0.9675    1.2134    0.1344 C   0  0  0  0  0  0  0  0  0  0  0  0
    0.2456    1.7680   -0.1222 N   0  0  0  0  0  0  0  0  0  0  0  0
    1.2726    0.8317   -0.0848 C   0  0  0  0  0  0  0  0  0  0  0  0
    2.6230    1.0204   -0.3075 C   0  0  0  0  0  0  0  0  0  0  0  0
    3.4507   -0.0963   -0.2111 C   0  0  0  0  0  0  0  0  0  0  0  0
    2.9393   -1.3502    0.0978 C   0  0  0  0  0  0  0  0  0  0  0  0
    1.5728   -1.5177    0.3230 C   0  0  0  0  0  0  0  0  0  0  0  0
    0.7447   -0.4195    0.2286 C   0  0  0  0  0  0  0  0  0  0  0  0
   -2.0374    1.7817    0.1238 O   0  0  0  0  0  0  0  0  0  0  0  0
   -1.2986   -2.2118   -0.3325 H   0  0  0  0  0  0  0  0  0  0  0  0
   -1.3495   -0.9488   -1.5513 H   0  0  0  0  0  0  0  0  0  0  0  0
   -1.0173   -0.4689    1.4620 H   0  0  0  0  0  0  0  0  0  0  0  0
    0.3712    2.7438   -0.3467 H   0  0  0  0  0  0  0  0  0  0  0  0
    3.0262    1.9951   -0.5485 H   0  0  0  0  0  0  0  0  0  0  0  0
    4.5131    0.0206   -0.3802 H   0  0  0  0  0  0  0  0  0  0  0  0
    3.6046   -2.2000    0.1674 H   0  0  0  0  0  0  0  0  0  0  0  0
    1.1758   -2.4942    0.5712 H   0  0  0  0  0  0  0  0  0  0  0  0
  1  2  1  0
  1  4  1  0
  2  3  3  0
  4  5  1  0
  4 12  1  0
  5  6  1  0
  5 13  2  0
  6  7  1  0
  7  8  2  0
  7 12  1  0
  8  9  1  0
  9 10  2  0
 10 11  1  0
 11 12  2  0
  1 14  1  0
  1 15  1  0
  4 16  1  1
  6 17  1  0
  8 18  1  0
  9 19  1  0
 10 20  1  0
 11 21  1  0
M  END
