
     RDKit          3D

  7  6  0  0  0  0  0  0  0  0999 V2000
   -0.1176    0.3406   -1.0115 N   0  0  0  0  0  0  0  0  0  0  0  0
    0.2743   -0.4111   -0.1223 N   0  0  0  0  0  0  0  0  0  0  0  0
   -0.2007   -0.0518    1.1964 C   0  0  0  0  0  0  0  0  0  0  0  0
    0.2759   -0.0027   -1.8942 H   0  0  0  0  0  0  0  0  0  0  0  0
    0.6662    0.1129    1.8373 H   0  0  0  0  0  0  0  0  0  0  0  0
   -0.8405    0.8329    1.1990 H   0  0  0  0  0  0  0  0  0  0  0  0
   -0.7407   -0.9048    1.6091 H   0  0  0  0  0  0  0  0  0  0  0  0
  1  2  2  0
  1  4  1  0
  2  3  1  0
  3  5  1  0
  3  6  1  0
  3  7  1  0
M  END
