
     RDKit          3D

 79 83  0  0  0  0  0  0  0  0999 V2000
    6.5702    2.0859   -4.2045 C   0  0  0  0  0  0  0  0  0  0  0  0
    6.8291    2.6367   -3.0260 C   0  0  0  0  0  0  0  0  0  0  0  0
    6.1126    2.2717   -1.7656 C   0  0  0  0  0  0  0  0  0  0  0  0
    7.0888    1.7610   -0.8002 N   0  0  0  0  0  0  0  0  0  0  0  0
    6.6187    1.5109    0.7556 S   0  0  1  0  0  0  0  0  0  0  0  0
    7.7655    0.9463    1.4444 O   0  0  0  0  0  0  0  0  0  0  0  0
    6.0110    2.7431    1.2261 O   0  0  0  0  0  0  0  0  0  0  0  0
    5.3494    0.2685    0.6959 C   0  0  0  0  0  0  0  0  0  0  0  0
    4.0203    0.6510    0.6458 C   0  0  0  0  0  0  0  0  0  0  0  0
    5.7211   -1.0704    0.6484 C   0  0  0  0  0  0  0  0  0  0  0  0
    4.7347   -2.0355    0.5467 C   0  0  0  0  0  0  0  0  0  0  0  0
    3.3974   -1.6674    0.5043 C   0  0  0  0  0  0  0  0  0  0  0  0
    3.0317   -0.3259    0.5614 C   0  0  0  0  0  0  0  0  0  0  0  0
    1.6129    0.1378    0.4773 C   0  0  0  0  0  0  0  0  0  0  0  0
    1.3273    1.2209    0.0175 O   0  0  0  0  0  0  0  0  0  0  0  0
    0.6922   -0.7555    0.9461 N   0  0  0  0  0  0  0  0  0  0  0  0
   -0.6777   -0.5597    0.9619 C   0  0  0  0  0  0  0  0  0  0  0  0
   -1.2623    0.5850    1.1272 N   0  0  0  0  0  0  0  0  0  0  0  0
   -2.5982    0.2821    1.1753 C   0  0  0  0  0  0  0  0  0  0  0  0
   -3.6666    1.1536    1.3571 C   0  0  0  0  0  0  0  0  0  0  0  0
   -4.9444    0.6309    1.4618 C   0  0  0  0  0  0  0  0  0  0  0  0
   -6.1250    1.5449    1.6774 C   0  0  0  0  0  0  0  0  0  0  0  0
   -6.1041    2.6889    0.7912 N   0  0  0  0  0  0  0  0  0  0  0  0
   -6.3259    2.3067   -0.5922 C   0  0  0  0  0  0  0  0  0  0  0  0
   -6.1559    3.4954   -1.5256 C   0  0  0  0  0  0  0  0  0  0  0  0
   -7.0900    4.6307   -1.1260 C   0  0  0  0  0  0  0  0  0  0  0  0
   -6.8993    4.9644    0.3481 C   0  0  0  0  0  0  0  0  0  0  0  0
   -7.0398    3.7178    1.2096 C   0  0  0  0  0  0  0  0  0  0  0  0
   -5.1223   -0.7571    1.4044 C   0  0  0  0  0  0  0  0  0  0  0  0
   -4.0713   -1.6410    1.2190 C   0  0  0  0  0  0  0  0  0  0  0  0
   -2.7941   -1.1077    1.0602 C   0  0  0  0  0  0  0  0  0  0  0  0
   -1.5243   -1.6338    0.8644 N   0  0  0  0  0  0  0  0  0  0  0  0
   -1.0505   -2.9946    0.5407 C   0  0  1  0  0  0  0  0  0  0  0  0
   -2.1271   -4.0774    0.5802 C   0  0  0  0  0  0  0  0  0  0  0  0
   -3.0483   -4.1330   -0.6394 C   0  0  0  0  0  0  0  0  0  0  0  0
   -0.3428   -3.0466   -0.8210 C   0  0  0  0  0  0  0  0  0  0  0  0
   -1.2981   -3.0272   -2.0042 C   0  0  0  0  0  0  0  0  0  0  0  0
   -2.2669   -4.2026   -1.9472 C   0  0  2  0  0  0  0  0  0  0  0  0
   -3.1761   -4.1977   -3.1624 C   0  0  0  0  0  0  0  0  0  0  0  0
   -4.0211   -5.3269   -3.1274 O   0  0  0  0  0  0  0  0  0  0  0  0
    5.8148    1.3179   -4.3228 H   0  0  0  0  0  0  0  0  0  0  0  0
    7.1044    2.3859   -5.0961 H   0  0  0  0  0  0  0  0  0  0  0  0
    7.5952    3.3994   -2.9337 H   0  0  0  0  0  0  0  0  0  0  0  0
    5.6485    3.1622   -1.3389 H   0  0  0  0  0  0  0  0  0  0  0  0
    5.3195    1.5452   -1.9718 H   0  0  0  0  0  0  0  0  0  0  0  0
    7.6414    0.9859   -1.1537 H   0  0  0  0  0  0  0  0  0  0  0  0
    3.7408    1.6953    0.6869 H   0  0  0  0  0  0  0  0  0  0  0  0
    6.7613   -1.3646    0.6907 H   0  0  0  0  0  0  0  0  0  0  0  0
    5.0057   -3.0808    0.4975 H   0  0  0  0  0  0  0  0  0  0  0  0
    2.6573   -2.4508    0.4007 H   0  0  0  0  0  0  0  0  0  0  0  0
    1.0302   -1.5840    1.4129 H   0  0  0  0  0  0  0  0  0  0  0  0
   -3.4993    2.2220    1.4157 H   0  0  0  0  0  0  0  0  0  0  0  0
   -7.0570    0.9606    1.5847 H   0  0  0  0  0  0  0  0  0  0  0  0
   -6.1050    1.9185    2.7065 H   0  0  0  0  0  0  0  0  0  0  0  0
   -5.6174    1.5204   -0.8604 H   0  0  0  0  0  0  0  0  0  0  0  0
   -7.3387    1.8828   -0.7267 H   0  0  0  0  0  0  0  0  0  0  0  0
   -5.1175    3.8376   -1.4831 H   0  0  0  0  0  0  0  0  0  0  0  0
   -6.3479    3.1781   -2.5532 H   0  0  0  0  0  0  0  0  0  0  0  0
   -6.9171    5.5119   -1.7477 H   0  0  0  0  0  0  0  0  0  0  0  0
   -8.1270    4.3223   -1.2981 H   0  0  0  0  0  0  0  0  0  0  0  0
   -5.9031    5.3899    0.5020 H   0  0  0  0  0  0  0  0  0  0  0  0
   -7.6223    5.7152    0.6749 H   0  0  0  0  0  0  0  0  0  0  0  0
   -8.0841    3.3582    1.1626 H   0  0  0  0  0  0  0  0  0  0  0  0
   -6.8402    3.9658    2.2554 H   0  0  0  0  0  0  0  0  0  0  0  0
   -6.1211   -1.1627    1.5130 H   0  0  0  0  0  0  0  0  0  0  0  0
   -4.2741   -2.6992    1.2205 H   0  0  0  0  0  0  0  0  0  0  0  0
   -0.3242   -3.2524    1.3172 H   0  0  0  0  0  0  0  0  0  0  0  0
   -1.5747   -5.0204    0.6233 H   0  0  0  0  0  0  0  0  0  0  0  0
   -2.6905   -4.0347    1.5134 H   0  0  0  0  0  0  0  0  0  0  0  0
   -3.7085   -4.9957   -0.5341 H   0  0  0  0  0  0  0  0  0  0  0  0
   -3.6960   -3.2545   -0.6899 H   0  0  0  0  0  0  0  0  0  0  0  0
    0.3904   -2.2478   -0.9259 H   0  0  0  0  0  0  0  0  0  0  0  0
    0.2290   -3.9797   -0.8366 H   0  0  0  0  0  0  0  0  0  0  0  0
   -1.8587   -2.0851   -2.0213 H   0  0  0  0  0  0  0  0  0  0  0  0
   -0.7166   -3.0557   -2.9294 H   0  0  0  0  0  0  0  0  0  0  0  0
   -1.6751   -5.1280   -1.9646 H   0  0  0  0  0  0  0  0  0  0  0  0
   -3.7551   -3.2625   -3.1689 H   0  0  0  0  0  0  0  0  0  0  0  0
   -2.5569   -4.1919   -4.0701 H   0  0  0  0  0  0  0  0  0  0  0  0
   -4.5841   -5.3048   -3.9060 H   0  0  0  0  0  0  0  0  0  0  0  0
  2  1  2  0
  1 41  1  0
  1 42  1  0
  3  2  1  0
  2 43  1  0
  3  4  1  0
  3 44  1  0
  3 45  1  0
  5  4  1  6
  4 46  1  0
  7  5  2  0
  5  6  2  0
  5  8  1  0
  9  8  2  0
  8 10  1  0
  9 13  1  0
  9 47  1  0
 10 11  2  0
 10 48  1  0
 12 11  1  0
 11 49  1  0
 13 12  2  0
 12 50  1  0
 14 13  1  0
 16 14  1  0
 14 15  2  0
 17 16  1  0
 16 51  1  0
 32 17  1  0
 17 18  2  0
 19 18  1  0
 31 19  2  0
 20 19  1  0
 21 20  2  0
 20 52  1  0
 29 21  1  0
 22 21  1  0
 22 23  1  0
 22 53  1  0
 22 54  1  0
 24 23  1  0
 23 28  1  0
 24 25  1  0
 24 55  1  0
 24 56  1  0
 25 26  1  0
 25 57  1  0
 25 58  1  0
 26 27  1  0
 26 59  1  0
 26 60  1  0
 28 27  1  0
 27 61  1  0
 27 62  1  0
 28 63  1  0
 28 64  1  0
 29 30  2  0
 29 65  1  0
 30 31  1  0
 30 66  1  0
 31 32  1  0
 33 32  1  0
 36 33  1  0
 33 34  1  0
 33 67  1  1
 35 34  1  0
 34 68  1  0
 34 69  1  0
 38 35  1  0
 35 70  1  0
 35 71  1  0
 37 36  1  0
 36 72  1  0
 36 73  1  0
 37 38  1  0
 37 74  1  0
 37 75  1  0
 38 39  1  0
 38 76  1  1
 40 39  1  0
 39 77  1  0
 39 78  1  0
 40 79  1  0
M  END
