
     RDKit          3D

 36 37  0  0  0  0  0  0  0  0999 V2000
    5.9484    0.7920    0.5687 C   0  0  0  0  0  0  0  0  0  0  0  0
    4.6280    0.2026    0.2242 C   0  0  0  0  0  0  0  0  0  0  0  0
    4.3500   -0.1701   -0.9921 N   0  0  0  0  0  0  0  0  0  0  0  0
    3.0769   -0.6632   -0.9644 O   0  0  0  0  0  0  0  0  0  0  0  0
    2.5909   -0.5819    0.2764 C   0  0  0  0  0  0  0  0  0  0  0  0
    1.2138   -1.0730    0.5102 C   0  0  0  0  0  0  0  0  0  0  0  0
    0.1762   -0.1445   -0.0992 C   0  0  0  0  0  0  0  0  0  0  0  0
   -1.0750   -0.6184   -0.1602 N   0  0  0  0  0  0  0  0  0  0  0  0
   -2.1353    0.2059   -0.7075 C   0  0  2  0  0  0  0  0  0  0  0  0
   -2.3900    1.4199    0.1824 C   0  0  0  0  0  0  0  0  0  0  0  0
   -2.8666    2.4887   -0.4618 N   0  0  0  0  0  0  0  0  0  0  0  0
   -3.2467    3.7049    0.2175 C   0  0  0  0  0  0  0  0  0  0  0  0
   -2.2189    1.3847    1.3921 O   0  0  0  0  0  0  0  0  0  0  0  0
   -3.3396   -0.7404   -0.7246 C   0  0  0  0  0  0  0  0  0  0  0  0
   -3.0658   -1.7023    0.4234 C   0  0  2  0  0  0  0  0  0  0  0  0
   -1.5471   -1.8960    0.3473 C   0  0  0  0  0  0  0  0  0  0  0  0
    0.4687    0.9704   -0.5060 O   0  0  0  0  0  0  0  0  0  0  0  0
    3.5264   -0.0416    1.0879 C   0  0  0  0  0  0  0  0  0  0  0  0
   -3.7980   -2.8857    0.2596 O   0  0  0  0  0  0  0  0  0  0  0  0
    5.8283    1.8056    0.9511 H   0  0  0  0  0  0  0  0  0  0  0  0
    6.4369    0.2049    1.3461 H   0  0  0  0  0  0  0  0  0  0  0  0
    6.6017    0.8267   -0.3006 H   0  0  0  0  0  0  0  0  0  0  0  0
    3.4535    0.1560    2.1440 H   0  0  0  0  0  0  0  0  0  0  0  0
    1.0996   -2.0884    0.1207 H   0  0  0  0  0  0  0  0  0  0  0  0
    1.0424   -1.1384    1.5874 H   0  0  0  0  0  0  0  0  0  0  0  0
   -1.8832    0.5364   -1.7181 H   0  0  0  0  0  0  0  0  0  0  0  0
   -1.3127   -2.7094   -0.3466 H   0  0  0  0  0  0  0  0  0  0  0  0
   -1.1108   -2.1319    1.3184 H   0  0  0  0  0  0  0  0  0  0  0  0
   -4.2913   -0.2171   -0.6346 H   0  0  0  0  0  0  0  0  0  0  0  0
   -3.3486   -1.2936   -1.6670 H   0  0  0  0  0  0  0  0  0  0  0  0
   -2.9497    2.4597   -1.4642 H   0  0  0  0  0  0  0  0  0  0  0  0
   -3.9912    3.5144    0.9902 H   0  0  0  0  0  0  0  0  0  0  0  0
   -2.3896    4.1959    0.6799 H   0  0  0  0  0  0  0  0  0  0  0  0
   -3.6774    4.3844   -0.5119 H   0  0  0  0  0  0  0  0  0  0  0  0
   -3.3121   -1.2174    1.3746 H   0  0  0  0  0  0  0  0  0  0  0  0
   -3.7661   -3.3832    1.0825 H   0  0  0  0  0  0  0  0  0  0  0  0
  1  2  1  0
  2  3  2  0
  2 18  1  0
  3  4  1  0
  4  5  1  0
  5  6  1  0
  5 18  2  0
  6  7  1  0
  7  8  1  0
  7 17  2  0
  8  9  1  0
  8 16  1  0
  9 10  1  0
  9 14  1  0
 10 11  1  0
 10 13  2  0
 11 12  1  0
 14 15  1  0
 15 16  1  0
 15 19  1  0
  1 20  1  0
  1 21  1  0
  1 22  1  0
 18 23  1  0
  6 24  1  0
  6 25  1  0
  9 26  1  6
 16 27  1  0
 16 28  1  0
 14 29  1  0
 14 30  1  0
 11 31  1  0
 12 32  1  0
 12 33  1  0
 12 34  1  0
 15 35  1  1
 19 36  1  0
M  END
