
     RDKit          3D

 37 39  0  0  0  0  0  0  0  0999 V2000
   -6.7058   -1.0164   -1.1859 Cl  0  0  0  0  0  0  0  0  0  0  0  0
   -5.1622   -0.4017   -0.6853 C   0  0  0  0  0  0  0  0  0  0  0  0
   -5.1073    0.3343    0.5047 C   0  0  0  0  0  0  0  0  0  0  0  0
   -3.8971    0.8426    0.9339 C   0  0  0  0  0  0  0  0  0  0  0  0
   -3.7711    1.7549    2.3915 Cl  0  0  0  0  0  0  0  0  0  0  0  0
   -4.0540   -0.6536   -1.4688 C   0  0  0  0  0  0  0  0  0  0  0  0
   -2.8387   -0.1358   -1.0262 C   0  0  0  0  0  0  0  0  0  0  0  0
   -1.5898   -0.2215   -1.5874 N   0  0  0  0  0  0  0  0  0  0  0  0
   -0.7982    0.4352   -0.7815 C   0  0  0  0  0  0  0  0  0  0  0  0
   -1.4574    0.9496    0.2921 N   0  0  0  0  0  0  0  0  0  0  0  0
   -2.7697    0.6034    0.1651 C   0  0  0  0  0  0  0  0  0  0  0  0
    0.6686    0.6060   -0.9553 C   0  0  0  0  0  0  0  0  0  0  0  0
    1.4922   -0.1572    0.1013 C   0  0  1  0  0  0  0  0  0  0  0  0
    1.2319   -1.6573    0.0057 C   0  0  0  0  0  0  0  0  0  0  0  0
    1.9313   -2.4439    1.0803 C   0  0  0  0  0  0  0  0  0  0  0  0
    2.3584   -1.9797    2.1069 O   0  0  0  0  0  0  0  0  0  0  0  0
    1.9959   -3.7369    0.7822 O   0  0  0  0  0  0  0  0  0  0  0  0
    2.9560    0.1780   -0.0581 C   0  0  0  0  0  0  0  0  0  0  0  0
    3.6046    0.9680    0.8846 C   0  0  0  0  0  0  0  0  0  0  0  0
    4.9423    1.3073    0.7442 C   0  0  0  0  0  0  0  0  0  0  0  0
    5.6412    0.8443   -0.3587 C   0  0  0  0  0  0  0  0  0  0  0  0
    7.3161    1.2555   -0.5439 Cl  0  0  0  0  0  0  0  0  0  0  0  0
    5.0220    0.0570   -1.3166 C   0  0  0  0  0  0  0  0  0  0  0  0
    3.6828   -0.2679   -1.1592 C   0  0  0  0  0  0  0  0  0  0  0  0
   -6.0043    0.5032    1.0837 H   0  0  0  0  0  0  0  0  0  0  0  0
   -4.1207   -1.2259   -2.3838 H   0  0  0  0  0  0  0  0  0  0  0  0
   -1.0515    1.5040    1.0306 H   0  0  0  0  0  0  0  0  0  0  0  0
    0.9304    0.2653   -1.9577 H   0  0  0  0  0  0  0  0  0  0  0  0
    0.9182    1.6686   -0.8985 H   0  0  0  0  0  0  0  0  0  0  0  0
    1.1802    0.1859    1.0914 H   0  0  0  0  0  0  0  0  0  0  0  0
    0.1614   -1.8637    0.1148 H   0  0  0  0  0  0  0  0  0  0  0  0
    1.5036   -2.0470   -0.9784 H   0  0  0  0  0  0  0  0  0  0  0  0
    2.4033   -4.2253    1.5135 H   0  0  0  0  0  0  0  0  0  0  0  0
    3.0604    1.3288    1.7486 H   0  0  0  0  0  0  0  0  0  0  0  0
    3.2092   -0.8809   -1.9171 H   0  0  0  0  0  0  0  0  0  0  0  0
    5.4316    1.9195    1.4895 H   0  0  0  0  0  0  0  0  0  0  0  0
    5.5722   -0.3012   -2.1761 H   0  0  0  0  0  0  0  0  0  0  0  0
  1  2  1  0
  2  3  2  0
  2  6  1  0
  3  4  1  0
  4  5  1  0
  4 11  2  0
  6  7  2  0
  7  8  1  0
  7 11  1  0
  8  9  2  0
  9 10  1  0
  9 12  1  0
 10 11  1  0
 12 13  1  0
 13 14  1  0
 13 18  1  0
 14 15  1  0
 15 16  2  0
 15 17  1  0
 18 19  2  0
 18 24  1  0
 19 20  1  0
 20 21  2  0
 21 22  1  0
 21 23  1  0
 23 24  2  0
  3 25  1  0
  6 26  1  0
 10 27  1  0
 12 28  1  0
 12 29  1  0
 13 30  1  1
 14 31  1  0
 14 32  1  0
 17 33  1  0
 19 34  1  0
 24 35  1  0
 20 36  1  0
 23 37  1  0
M  END
