
     RDKit          3D

 33 35  0  0  0  0  0  0  0  0999 V2000
    0.7248   -4.1011    0.1199 N   0  0  0  0  0  0  0  0  0  0  0  0
   -0.3227   -3.3952    0.0359 N   0  0  0  0  0  0  0  0  0  0  0  0
   -0.1140   -2.0522   -0.0092 C   0  0  0  0  0  0  0  0  0  0  0  0
    1.2184   -1.7043    0.0377 C   0  0  0  0  0  0  0  0  0  0  0  0
   -1.2474   -1.1198   -0.0375 C   0  0  0  0  0  0  0  0  0  0  0  0
    1.8384   -0.3840   -0.0127 C   0  0  0  0  0  0  0  0  0  0  0  0
    2.9397   -0.0742    0.7912 C   0  0  0  0  0  0  0  0  0  0  0  0
    3.5284    1.1722    0.7411 C   0  0  0  0  0  0  0  0  0  0  0  0
    3.0320    2.1522   -0.1231 C   0  0  0  0  0  0  0  0  0  0  0  0
    1.9383    1.8530   -0.9351 C   0  0  0  0  0  0  0  0  0  0  0  0
    1.3536    0.5986   -0.8723 C   0  0  0  0  0  0  0  0  0  0  0  0
   -2.1911   -1.1482   -1.0689 C   0  0  0  0  0  0  0  0  0  0  0  0
   -3.2376   -0.2326   -1.0859 C   0  0  0  0  0  0  0  0  0  0  0  0
   -3.3624    0.7230   -0.0846 C   0  0  0  0  0  0  0  0  0  0  0  0
   -2.4208    0.7474    0.9456 C   0  0  0  0  0  0  0  0  0  0  0  0
   -1.3846   -0.1634    0.9622 C   0  0  0  0  0  0  0  0  0  0  0  0
   -4.3456    1.6269   -0.0596 O   0  0  0  0  0  0  0  0  0  0  0  0
   -2.0331   -2.0662   -2.0331 O   0  0  0  0  0  0  0  0  0  0  0  0
    3.6608    3.3360   -0.1064 O   0  0  0  0  0  0  0  0  0  0  0  0
    2.1074   -3.1483    0.1447 S   0  0  0  0  0  0  0  0  0  0  0  0
    3.2241    4.3510   -0.9920 C   0  0  0  0  0  0  0  0  0  0  0  0
   -2.5709    1.9288    2.2003 Cl  0  0  0  0  0  0  0  0  0  0  0  0
   -0.6637   -0.1308    1.7686 H   0  0  0  0  0  0  0  0  0  0  0  0
    3.3363   -0.8098    1.4804 H   0  0  0  0  0  0  0  0  0  0  0  0
    0.5133    0.3897   -1.5209 H   0  0  0  0  0  0  0  0  0  0  0  0
    4.3765    1.3969    1.3751 H   0  0  0  0  0  0  0  0  0  0  0  0
    1.5275    2.5786   -1.6231 H   0  0  0  0  0  0  0  0  0  0  0  0
   -3.9622   -0.2594   -1.8935 H   0  0  0  0  0  0  0  0  0  0  0  0
   -2.7237   -1.9819   -2.7009 H   0  0  0  0  0  0  0  0  0  0  0  0
   -4.9282    1.5209   -0.8208 H   0  0  0  0  0  0  0  0  0  0  0  0
    3.3131    4.0433   -2.0368 H   0  0  0  0  0  0  0  0  0  0  0  0
    2.1903    4.6465   -0.7963 H   0  0  0  0  0  0  0  0  0  0  0  0
    3.8716    5.2068   -0.8206 H   0  0  0  0  0  0  0  0  0  0  0  0
  1  2  2  0
  1 20  1  0
  2  3  1  0
  3  4  2  0
  3  5  1  0
  4  6  1  0
  4 20  1  0
  5 12  2  0
  5 16  1  0
  6  7  2  0
  6 11  1  0
  7  8  1  0
  8  9  2  0
  9 10  1  0
  9 19  1  0
 10 11  2  0
 12 13  1  0
 12 18  1  0
 13 14  2  0
 14 15  1  0
 14 17  1  0
 15 16  2  0
 15 22  1  0
 19 21  1  0
 16 23  1  0
  7 24  1  0
 11 25  1  0
  8 26  1  0
 10 27  1  0
 13 28  1  0
 18 29  1  0
 17 30  1  0
 21 31  1  0
 21 32  1  0
 21 33  1  0
M  END
