
     RDKit          3D

 59 61  0  0  0  0  0  0  0  0999 V2000
   -5.3200   -0.5117   -0.7245 N   0  0  0  0  0  0  0  0  0  0  0  0
   -6.5019   -0.2954   -0.1588 C   0  0  0  0  0  0  0  0  0  0  0  0
   -7.5188   -1.1424   -0.5006 N   0  0  0  0  0  0  0  0  0  0  0  0
   -6.7091    0.7274    0.7834 C   0  0  0  0  0  0  0  0  0  0  0  0
   -5.6495    1.5377    1.1352 C   0  0  0  0  0  0  0  0  0  0  0  0
   -4.4097    1.3006    0.5306 C   0  0  0  0  0  0  0  0  0  0  0  0
   -4.2923    0.2696   -0.3845 C   0  0  0  0  0  0  0  0  0  0  0  0
   -5.8055    2.6301    2.1487 C   0  0  0  0  0  0  0  0  0  0  0  0
   -2.9749   -0.0437   -1.0369 C   0  0  0  0  0  0  0  0  0  0  0  0
   -0.2693   -0.6733   -1.3531 O   0  0  0  0  0  0  0  0  0  0  0  0
   -0.7864   -2.0815    1.1640 N   0  0  0  0  0  0  0  0  0  0  0  0
    0.9032   -0.8850   -2.1041 C   0  0  0  0  0  0  0  0  0  0  0  0
    1.7237    0.3853   -2.0524 C   0  0  0  0  0  0  0  0  0  0  0  0
    2.1398    0.6572   -0.6945 N   0  0  0  0  0  0  0  0  0  0  0  0
    2.9410    1.8486   -0.5000 C   0  0  1  0  0  0  0  0  0  0  0  0
    2.1875    3.1604   -0.7262 C   0  0  0  0  0  0  0  0  0  0  0  0
    3.5345    1.8213    0.9161 C   0  0  0  0  0  0  0  0  0  0  0  0
   -0.5388   -2.7487   -0.1092 C   0  0  0  0  0  0  0  0  0  0  0  0
    4.4660    0.6668    1.1414 C   0  0  0  0  0  0  0  0  0  0  0  0
    3.9976   -0.5788    1.5569 C   0  0  0  0  0  0  0  0  0  0  0  0
    4.8725   -1.6403    1.7365 C   0  0  0  0  0  0  0  0  0  0  0  0
    6.2334   -1.4890    1.5001 C   0  0  0  0  0  0  0  0  0  0  0  0
    6.6800   -0.2505    1.0855 C   0  0  0  0  0  0  0  0  0  0  0  0
    7.9948   -0.0768    0.8553 F   0  0  0  0  0  0  0  0  0  0  0  0
    5.8294    0.8229    0.9035 C   0  0  0  0  0  0  0  0  0  0  0  0
   -1.0905   -1.8041   -1.1781 C   0  0  1  0  0  0  0  0  0  0  0  0
   -2.3911   -1.3538   -0.5129 C   0  0  1  0  0  0  0  0  0  0  0  0
   -2.0388   -1.3313    0.9941 C   0  0  0  0  0  0  0  0  0  0  0  0
   -7.3961   -1.6501   -1.3616 H   0  0  0  0  0  0  0  0  0  0  0  0
   -8.4598   -0.8180   -0.3518 H   0  0  0  0  0  0  0  0  0  0  0  0
   -7.6904    0.8734    1.2193 H   0  0  0  0  0  0  0  0  0  0  0  0
   -3.5540    1.9200    0.7699 H   0  0  0  0  0  0  0  0  0  0  0  0
   -5.3429    2.3406    3.0941 H   0  0  0  0  0  0  0  0  0  0  0  0
   -5.3142    3.5462    1.8202 H   0  0  0  0  0  0  0  0  0  0  0  0
   -6.8524    2.8543    2.3468 H   0  0  0  0  0  0  0  0  0  0  0  0
   -3.1244   -0.1180   -2.1179 H   0  0  0  0  0  0  0  0  0  0  0  0
   -2.2740    0.7730   -0.8601 H   0  0  0  0  0  0  0  0  0  0  0  0
   -0.0382   -1.4189    1.3174 H   0  0  0  0  0  0  0  0  0  0  0  0
    1.4969   -1.7141   -1.6994 H   0  0  0  0  0  0  0  0  0  0  0  0
    0.6595   -1.1325   -3.1463 H   0  0  0  0  0  0  0  0  0  0  0  0
    2.6123    0.2414   -2.6738 H   0  0  0  0  0  0  0  0  0  0  0  0
    1.1472    1.1982   -2.5201 H   0  0  0  0  0  0  0  0  0  0  0  0
    1.3256    0.6926   -0.0920 H   0  0  0  0  0  0  0  0  0  0  0  0
    3.7721    1.8000   -1.2143 H   0  0  0  0  0  0  0  0  0  0  0  0
    1.7395    3.2007   -1.7197 H   0  0  0  0  0  0  0  0  0  0  0  0
    1.3844    3.2742    0.0063 H   0  0  0  0  0  0  0  0  0  0  0  0
    2.8517    4.0210   -0.6324 H   0  0  0  0  0  0  0  0  0  0  0  0
    4.0627    2.7610    1.0937 H   0  0  0  0  0  0  0  0  0  0  0  0
    2.7108    1.7861    1.6364 H   0  0  0  0  0  0  0  0  0  0  0  0
    0.5197   -2.9874   -0.2238 H   0  0  0  0  0  0  0  0  0  0  0  0
   -1.0866   -3.6954   -0.1548 H   0  0  0  0  0  0  0  0  0  0  0  0
    2.9413   -0.7191    1.7430 H   0  0  0  0  0  0  0  0  0  0  0  0
    4.4951   -2.6002    2.0637 H   0  0  0  0  0  0  0  0  0  0  0  0
    6.9257   -2.3089    1.6394 H   0  0  0  0  0  0  0  0  0  0  0  0
    6.2267    1.7781    0.5805 H   0  0  0  0  0  0  0  0  0  0  0  0
   -1.2698   -2.3064   -2.1388 H   0  0  0  0  0  0  0  0  0  0  0  0
   -3.1263   -2.1447   -0.6924 H   0  0  0  0  0  0  0  0  0  0  0  0
   -2.8443   -1.7822    1.5791 H   0  0  0  0  0  0  0  0  0  0  0  0
   -1.9164   -0.3102    1.3632 H   0  0  0  0  0  0  0  0  0  0  0  0
  2  1  2  0
  7  1  1  0
  4  2  1  0
  2  3  1  0
  3 29  1  0
  3 30  1  0
  5  4  2  0
  4 31  1  0
  8  5  1  0
  5  6  1  0
  6  7  2  0
  6 32  1  0
  7  9  1  0
  8 33  1  0
  8 34  1  0
  8 35  1  0
 27  9  1  0
  9 36  1  0
  9 37  1  0
 26 10  1  0
 10 12  1  0
 11 28  1  0
 11 18  1  0
 11 38  1  0
 12 13  1  0
 12 39  1  0
 12 40  1  0
 14 13  1  0
 13 41  1  0
 13 42  1  0
 14 15  1  0
 14 43  1  0
 15 17  1  0
 15 16  1  0
 15 44  1  6
 16 45  1  0
 16 46  1  0
 16 47  1  0
 17 19  1  0
 17 48  1  0
 17 49  1  0
 18 26  1  0
 18 50  1  0
 18 51  1  0
 20 19  2  0
 19 25  1  0
 20 21  1  0
 20 52  1  0
 21 22  2  0
 21 53  1  0
 22 23  1  0
 22 54  1  0
 25 23  2  0
 23 24  1  0
 25 55  1  0
 27 26  1  0
 26 56  1  6
 28 27  1  0
 27 57  1  1
 28 58  1  0
 28 59  1  0
M  END
