
     RDKit          3D

 24 24  0  0  0  0  0  0  0  0999 V2000
    2.1182   -0.1212    0.7317 C   0  0  0  0  0  0  0  0  0  0  0  0
    2.5603   -1.2878    1.3697 O   0  0  0  0  0  0  0  0  0  0  0  0
    0.5935   -0.0691    0.7665 C   0  0  1  0  0  0  0  0  0  0  0  0
    0.1763   -0.0424    1.9669 O   0  0  0  0  0  0  0  0  0  0  0  0
    0.0696    1.2145   -0.0307 C   0  0  1  0  0  0  0  0  0  0  0  0
    1.2178    2.1504   -0.3170 O   0  0  0  0  0  0  0  0  0  0  0  0
   -0.3940    0.7758   -1.0883 C   0  0  1  0  0  0  0  0  0  0  0  0
    0.6464    0.7789   -2.1377 O   0  0  0  0  0  0  0  0  0  0  0  0
   -0.8671   -0.7892   -0.7563 C   0  0  1  0  0  0  0  0  0  0  0  0
    0.0137   -1.2688    0.0338 O   0  0  0  0  0  0  0  0  0  0  0  0
   -2.2162   -0.7891   -0.0860 C   0  0  0  0  0  0  0  0  0  0  0  0
   -2.6632   -2.1035    0.0610 O   0  0  0  0  0  0  0  0  0  0  0  0
    2.5221    0.7474    1.2445 H   0  0  0  0  0  0  0  0  0  0  0  0
    2.4564   -0.1223   -0.2984 H   0  0  0  0  0  0  0  0  0  0  0  0
    3.4991   -1.3483    1.2993 H   0  0  0  0  0  0  0  0  0  0  0  0
    0.5541   -0.7651    2.4491 H   0  0  0  0  0  0  0  0  0  0  0  0
   -0.7045    1.7199    0.5379 H   0  0  0  0  0  0  0  0  0  0  0  0
    0.9759    3.0262   -0.0749 H   0  0  0  0  0  0  0  0  0  0  0  0
   -1.2491    1.3681   -1.3965 H   0  0  0  0  0  0  0  0  0  0  0  0
    0.2491    0.9575   -2.9734 H   0  0  0  0  0  0  0  0  0  0  0  0
   -0.8996   -1.3690   -1.6715 H   0  0  0  0  0  0  0  0  0  0  0  0
   -2.1347   -0.3242    0.8894 H   0  0  0  0  0  0  0  0  0  0  0  0
   -2.9225   -0.2327   -0.6943 H   0  0  0  0  0  0  0  0  0  0  0  0
   -3.6015   -2.1062    0.1754 H   0  0  0  0  0  0  0  0  0  0  0  0
  2  1  1  0
  1  3  1  0
  6  5  1  0
  5  3  1  0
  5  7  1  0
  3  4  1  1
  3 10  1  0
  8  7  1  0
 10  9  1  0
  7  9  1  0
  9 11  1  0
 11 12  1  0
  1 13  1  0
  1 14  1  0
  2 15  1  0
  4 16  1  0
  5 17  1  1
  6 18  1  0
  7 19  1  6
  8 20  1  0
  9 21  1  6
 11 22  1  0
 11 23  1  0
 12 24  1  0
M  END
