
     RDKit          3D

 75 80  0  0  0  0  0  0  0  0999 V2000
    5.2414   -3.0408   -1.0799 C   0  0  0  0  0  0  0  0  0  0  0  0
    3.8516   -3.0654   -0.9108 C   0  0  0  0  0  0  0  0  0  0  0  0
    2.9796   -4.0647   -0.6654 N   0  0  0  0  0  0  0  0  0  0  0  0
    1.7094   -3.6333   -0.5749 N   0  0  0  0  0  0  0  0  0  0  0  0
    1.7498   -2.3395   -0.7612 C   0  0  0  0  0  0  0  0  0  0  0  0
    0.6654   -1.4813   -0.7497 N   0  0  0  0  0  0  0  0  0  0  0  0
   -0.6377   -1.7845   -0.4706 C   0  0  0  0  0  0  0  0  0  0  0  0
   -0.9556   -2.9427   -0.2128 O   0  0  0  0  0  0  0  0  0  0  0  0
   -1.5991   -0.6698   -0.4924 C   0  0  0  0  0  0  0  0  0  0  0  0
   -1.2111    0.6453   -0.7741 C   0  0  0  0  0  0  0  0  0  0  0  0
   -2.0671    1.7183   -0.7807 C   0  0  0  0  0  0  0  0  0  0  0  0
   -3.4343    1.5242   -0.4894 C   0  0  0  0  0  0  0  0  0  0  0  0
   -4.3294    2.5708   -0.5005 N   0  0  0  0  0  0  0  0  0  0  0  0
   -3.8545    3.9131   -0.7839 C   0  0  0  0  0  0  0  0  0  0  0  0
   -4.9916    4.8107   -1.2333 C   0  0  0  0  0  0  0  0  0  0  0  0
   -6.0628    4.8351   -0.2628 N   0  0  0  0  0  0  0  0  0  0  0  0
   -7.1116    5.7497   -0.6527 C   0  0  0  0  0  0  0  0  0  0  0  0
   -6.5642    3.4920   -0.0720 C   0  0  0  0  0  0  0  0  0  0  0  0
   -5.4656    2.5658    0.4101 C   0  0  0  0  0  0  0  0  0  0  0  0
   -3.8505    0.2221   -0.2084 C   0  0  0  0  0  0  0  0  0  0  0  0
   -2.9852   -0.8826   -0.2101 C   0  0  0  0  0  0  0  0  0  0  0  0
   -3.4716   -2.1234    0.0275 N   0  0  0  0  0  0  0  0  0  0  0  0
   -4.8243   -2.4428    0.4113 C   0  0  1  0  0  0  0  0  0  0  0  0
   -5.0951   -3.9202    0.1486 C   0  0  0  0  0  0  0  0  0  0  0  0
   -6.4985   -4.2862    0.6062 C   0  0  0  0  0  0  0  0  0  0  0  0
   -6.7148   -3.9767    1.9652 O   0  0  0  0  0  0  0  0  0  0  0  0
   -6.5330   -2.6032    2.2340 C   0  0  0  0  0  0  0  0  0  0  0  0
   -5.1306   -2.1350    1.8795 C   0  0  0  0  0  0  0  0  0  0  0  0
    3.0873   -1.8925   -0.9860 C   0  0  0  0  0  0  0  0  0  0  0  0
    3.7006   -0.6598   -1.2373 C   0  0  0  0  0  0  0  0  0  0  0  0
    5.0679   -0.6194   -1.4030 C   0  0  0  0  0  0  0  0  0  0  0  0
    5.7810    0.6907   -1.6322 C   0  0  0  0  0  0  0  0  0  0  0  0
    6.3373    1.2414   -0.3437 C   0  0  0  0  0  0  0  0  0  0  0  0
    7.6519    0.9762    0.0258 C   0  0  0  0  0  0  0  0  0  0  0  0
    8.1166    1.4549    1.2360 C   0  0  0  0  0  0  0  0  0  0  0  0
    9.3824    1.1947    1.5891 F   0  0  0  0  0  0  0  0  0  0  0  0
    7.3345    2.1955    2.0999 C   0  0  0  0  0  0  0  0  0  0  0  0
    6.0352    2.4432    1.6982 C   0  0  0  0  0  0  0  0  0  0  0  0
    5.2491    3.1666    2.5068 F   0  0  0  0  0  0  0  0  0  0  0  0
    5.5193    1.9844    0.5033 C   0  0  0  0  0  0  0  0  0  0  0  0
    5.8178   -1.8161   -1.3199 C   0  0  0  0  0  0  0  0  0  0  0  0
    5.8384   -3.9413   -1.0292 H   0  0  0  0  0  0  0  0  0  0  0  0
   -0.1787    0.8839   -0.9929 H   0  0  0  0  0  0  0  0  0  0  0  0
   -1.6568    2.6949   -0.9835 H   0  0  0  0  0  0  0  0  0  0  0  0
   -3.3579    4.3520    0.0925 H   0  0  0  0  0  0  0  0  0  0  0  0
   -3.1294    3.8865   -1.5950 H   0  0  0  0  0  0  0  0  0  0  0  0
   -4.5969    5.8208   -1.3643 H   0  0  0  0  0  0  0  0  0  0  0  0
   -5.3477    4.4715   -2.2220 H   0  0  0  0  0  0  0  0  0  0  0  0
   -7.5861    5.4812   -1.6095 H   0  0  0  0  0  0  0  0  0  0  0  0
   -7.8906    5.7760    0.1107 H   0  0  0  0  0  0  0  0  0  0  0  0
   -6.7079    6.7582   -0.7538 H   0  0  0  0  0  0  0  0  0  0  0  0
   -7.3566    3.5043    0.6797 H   0  0  0  0  0  0  0  0  0  0  0  0
   -7.0020    3.0833   -0.9998 H   0  0  0  0  0  0  0  0  0  0  0  0
   -5.8922    1.5703    0.4966 H   0  0  0  0  0  0  0  0  0  0  0  0
   -5.1434    2.8705    1.4152 H   0  0  0  0  0  0  0  0  0  0  0  0
   -4.8942    0.0395   -0.0135 H   0  0  0  0  0  0  0  0  0  0  0  0
   -2.7774   -2.8557    0.0771 H   0  0  0  0  0  0  0  0  0  0  0  0
   -5.5185   -1.8718   -0.2172 H   0  0  0  0  0  0  0  0  0  0  0  0
   -4.9930   -4.1432   -0.9161 H   0  0  0  0  0  0  0  0  0  0  0  0
   -4.3621   -4.5332    0.6837 H   0  0  0  0  0  0  0  0  0  0  0  0
   -7.2356   -3.7689   -0.0263 H   0  0  0  0  0  0  0  0  0  0  0  0
   -6.6682   -5.3578    0.4914 H   0  0  0  0  0  0  0  0  0  0  0  0
   -7.2727   -2.0044    1.6809 H   0  0  0  0  0  0  0  0  0  0  0  0
   -6.7288   -2.4578    3.2974 H   0  0  0  0  0  0  0  0  0  0  0  0
   -4.3950   -2.6410    2.5122 H   0  0  0  0  0  0  0  0  0  0  0  0
   -5.0477   -1.0647    2.0838 H   0  0  0  0  0  0  0  0  0  0  0  0
    3.1162    0.2513   -1.3061 H   0  0  0  0  0  0  0  0  0  0  0  0
    6.5904    0.5528   -2.3516 H   0  0  0  0  0  0  0  0  0  0  0  0
    5.0906    1.4131   -2.0707 H   0  0  0  0  0  0  0  0  0  0  0  0
    8.3085    0.4068   -0.6196 H   0  0  0  0  0  0  0  0  0  0  0  0
    7.7202    2.5680    3.0394 H   0  0  0  0  0  0  0  0  0  0  0  0
    4.4939    2.2057    0.2346 H   0  0  0  0  0  0  0  0  0  0  0  0
    6.8915   -1.7656   -1.4570 H   0  0  0  0  0  0  0  0  0  0  0  0
    0.9049   -0.5251   -0.9431 H   0  0  0  0  0  0  0  0  0  0  0  0
    3.1747   -5.0451   -0.5533 H   0  0  0  0  0  0  0  0  0  0  0  0
  1  2  2  0
  1 41  1  0
  2  3  1  0
  2 29  1  0
  3  4  1  0
  4  5  2  0
  5  6  1  0
  5 29  1  0
  6  7  1  0
  7  8  2  0
  7  9  1  0
  9 10  2  0
  9 21  1  0
 10 11  1  0
 11 12  2  0
 12 13  1  0
 12 20  1  0
 13 14  1  0
 13 19  1  0
 14 15  1  0
 15 16  1  0
 16 17  1  0
 16 18  1  0
 18 19  1  0
 20 21  2  0
 21 22  1  0
 22 23  1  0
 23 24  1  0
 23 28  1  0
 24 25  1  0
 25 26  1  0
 26 27  1  0
 27 28  1  0
 29 30  2  0
 30 31  1  0
 31 32  1  0
 31 41  2  0
 32 33  1  0
 33 34  2  0
 33 40  1  0
 34 35  1  0
 35 36  1  0
 35 37  2  0
 37 38  1  0
 38 39  1  0
 38 40  2  0
  1 42  1  0
 10 43  1  0
 11 44  1  0
 14 45  1  0
 14 46  1  0
 15 47  1  0
 15 48  1  0
 17 49  1  0
 17 50  1  0
 17 51  1  0
 18 52  1  0
 18 53  1  0
 19 54  1  0
 19 55  1  0
 20 56  1  0
 22 57  1  0
 23 58  1  6
 24 59  1  0
 24 60  1  0
 25 61  1  0
 25 62  1  0
 27 63  1  0
 27 64  1  0
 28 65  1  0
 28 66  1  0
 30 67  1  0
 32 68  1  0
 32 69  1  0
 34 70  1  0
 37 71  1  0
 40 72  1  0
 41 73  1  0
  6 74  1  0
  3 75  1  0
M  END
