
     RDKit          3D

 46 48  0  0  0  0  0  0  0  0999 V2000
    2.5483   -1.8909   -0.1704 C   0  0  0  0  0  0  0  0  0  0  0  0
    1.5563   -1.1126   -0.7303 C   0  0  0  0  0  0  0  0  0  0  0  0
    1.8634    0.1712   -1.4327 C   0  0  0  0  0  0  0  0  0  0  0  0
    0.9537    1.3634    1.3728 C   0  0  0  0  0  0  0  0  0  0  0  0
    1.8146    3.6390   -0.7084 C   0  0  0  0  0  0  0  0  0  0  0  0
    0.2345   -1.6190   -0.6996 C   0  0  0  0  0  0  0  0  0  0  0  0
   -2.1846   -1.1710   -0.9869 C   0  0  0  0  0  0  0  0  0  0  0  0
   -3.5207    1.1493    1.5759 C   0  0  0  0  0  0  0  0  0  0  0  0
   -2.7419    0.2682    2.2443 C   0  0  0  0  0  0  0  0  0  0  0  0
    0.4789   -4.7733    1.1108 C   0  0  0  0  0  0  0  0  0  0  0  0
    0.9083   -3.4966    0.4559 C   0  0  0  0  0  0  0  0  0  0  0  0
    2.2384   -3.1052    0.4299 C   0  0  0  0  0  0  0  0  0  0  0  0
    1.6757    0.2421   -2.6449 O   0  0  0  0  0  0  0  0  0  0  0  0
    2.3248    1.1973   -0.6914 N   0  0  0  0  0  0  0  0  0  0  0  0
    2.3407    1.1783    0.7685 C   0  0  0  0  0  0  0  0  0  0  0  0
    0.3290    2.7386    1.1625 C   0  0  0  0  0  0  0  0  0  0  0  0
    0.3936    3.2895   -0.2623 C   0  0  0  0  0  0  0  0  0  0  0  0
    2.5959    2.4783   -1.3287 C   0  0  0  0  0  0  0  0  0  0  0  0
   -0.7890   -0.9438   -1.2912 N   0  0  0  0  0  0  0  0  0  0  0  0
   -2.6721   -0.3428    0.1508 C   0  0  0  0  0  0  0  0  0  0  0  0
   -3.4727    0.7502    0.2045 C   0  0  0  0  0  0  0  0  0  0  0  0
   -2.2269   -0.6422    1.3913 O   0  0  0  0  0  0  0  0  0  0  0  0
   -0.0562   -2.7661   -0.0989 N   0  0  0  0  0  0  0  0  0  0  0  0
    3.5761   -1.5476   -0.1916 H   0  0  0  0  0  0  0  0  0  0  0  0
    0.2944    0.5954    0.9630 H   0  0  0  0  0  0  0  0  0  0  0  0
    1.0188    1.1589    2.4447 H   0  0  0  0  0  0  0  0  0  0  0  0
    1.7903    4.4370   -1.4535 H   0  0  0  0  0  0  0  0  0  0  0  0
    2.3607    4.0480    0.1462 H   0  0  0  0  0  0  0  0  0  0  0  0
   -2.7743   -0.9153   -1.8672 H   0  0  0  0  0  0  0  0  0  0  0  0
   -2.4752    0.1639    3.2835 H   0  0  0  0  0  0  0  0  0  0  0  0
   -0.0037   -5.4334    0.3885 H   0  0  0  0  0  0  0  0  0  0  0  0
    1.3202   -5.3054    1.5505 H   0  0  0  0  0  0  0  0  0  0  0  0
   -0.2492   -4.5739    1.8982 H   0  0  0  0  0  0  0  0  0  0  0  0
    3.0091   -3.7192    0.8743 H   0  0  0  0  0  0  0  0  0  0  0  0
    3.0180    1.9691    1.0963 H   0  0  0  0  0  0  0  0  0  0  0  0
    2.7761    0.2491    1.1296 H   0  0  0  0  0  0  0  0  0  0  0  0
   -0.7152    2.6869    1.4813 H   0  0  0  0  0  0  0  0  0  0  0  0
    0.8170    3.4624    1.8238 H   0  0  0  0  0  0  0  0  0  0  0  0
   -0.2164    4.1948   -0.2973 H   0  0  0  0  0  0  0  0  0  0  0  0
   -0.0716    2.5924   -0.9682 H   0  0  0  0  0  0  0  0  0  0  0  0
    2.3388    2.3831   -2.3798 H   0  0  0  0  0  0  0  0  0  0  0  0
    3.6685    2.6852   -1.2751 H   0  0  0  0  0  0  0  0  0  0  0  0
   -3.9648    1.2180   -0.6334 H   0  0  0  0  0  0  0  0  0  0  0  0
   -2.3351   -2.2323   -0.7939 H   0  0  0  0  0  0  0  0  0  0  0  0
   -0.5811   -0.0653   -1.7346 H   0  0  0  0  0  0  0  0  0  0  0  0
   -4.0595    1.9802    2.0013 H   0  0  0  0  0  0  0  0  0  0  0  0
 10 11  1  0
 12 11  1  0
 12  1  2  0
  4 16  1  0
  4 15  1  0
 16 17  1  0
 11 23  2  0
  1  2  1  0
 17  5  1  0
 15 14  1  0
 23  6  1  0
  2  6  2  0
  2  3  1  0
  6 19  1  0
 14  3  1  0
 14 18  1  0
  5 18  1  0
  3 13  2  0
 19  7  1  0
  7 20  1  0
 20 21  2  0
 20 22  1  0
 21  8  1  0
 22  9  1  0
  8  9  2  0
  1 24  1  0
  4 25  1  0
  4 26  1  0
  5 27  1  0
  5 28  1  0
  7 29  1  0
  8 46  1  0
  9 30  1  0
 10 31  1  0
 10 32  1  0
 10 33  1  0
 12 34  1  0
 15 35  1  0
 15 36  1  0
 16 37  1  0
 16 38  1  0
 17 39  1  0
 17 40  1  0
 18 41  1  0
 18 42  1  0
 21 43  1  0
  7 44  1  0
 19 45  1  0
M  END
