
     RDKit          3D

 68 72  0  0  0  0  0  0  0  0999 V2000
    3.2634   -0.9885    1.0337 C   0  0  0  0  0  0  0  0  0  0  0  0
    3.8129   -2.2250    0.3790 C   0  0  0  0  0  0  0  0  0  0  0  0
    2.3685   -0.2181    0.0681 C   0  0  0  0  0  0  0  0  0  0  0  0
    1.6814    0.9631    0.7200 C   0  0  0  0  0  0  0  0  0  0  0  0
    5.8532   -0.3491   -1.8058 C   0  0  0  0  0  0  0  0  0  0  0  0
    0.1648    2.8439    0.2362 C   0  0  1  0  0  0  0  0  0  0  0  0
    3.1476    3.4121   -1.2186 C   0  0  0  0  0  0  0  0  0  0  0  0
    2.7298   -6.0613    0.1309 Cl  0  0  0  0  0  0  0  0  0  0  0  0
    3.5910   -4.5804   -0.0982 C   0  0  0  0  0  0  0  0  0  0  0  0
    4.7075   -4.5627   -0.9182 C   0  0  0  0  0  0  0  0  0  0  0  0
    5.3860   -3.3680   -1.0810 C   0  0  0  0  0  0  0  0  0  0  0  0
    4.9388   -2.2213   -0.4424 C   0  0  0  0  0  0  0  0  0  0  0  0
    5.6632   -1.0200   -0.6654 N   0  0  0  0  0  0  0  0  0  0  0  0
    6.3641   -0.4135    0.2895 N   0  0  0  0  0  0  0  0  0  0  0  0
    6.9392    0.5809   -0.2561 N   0  0  0  0  0  0  0  0  0  0  0  0
    6.6520    0.6531   -1.5579 N   0  0  0  0  0  0  0  0  0  0  0  0
    3.1481   -3.4357    0.5438 C   0  0  0  0  0  0  0  0  0  0  0  0
    1.9123    1.3157    1.8616 O   0  0  0  0  0  0  0  0  0  0  0  0
    0.7731    1.5742   -0.0787 N   0  0  0  0  0  0  0  0  0  0  0  0
    0.7871    3.9940   -0.5718 C   0  0  0  0  0  0  0  0  0  0  0  0
    2.2706    4.0550   -0.3491 C   0  0  0  0  0  0  0  0  0  0  0  0
    4.5135    3.3946   -0.9696 C   0  0  0  0  0  0  0  0  0  0  0  0
    5.0232    4.0288    0.1550 C   0  0  0  0  0  0  0  0  0  0  0  0
    4.1594    4.6867    1.0214 C   0  0  0  0  0  0  0  0  0  0  0  0
    2.7946    4.6958    0.7707 C   0  0  0  0  0  0  0  0  0  0  0  0
   -1.3163    2.7597    0.0257 C   0  0  0  0  0  0  0  0  0  0  0  0
   -2.0047    1.6090    0.1344 N   0  0  0  0  0  0  0  0  0  0  0  0
   -3.3374    1.8692   -0.0625 C   0  0  0  0  0  0  0  0  0  0  0  0
   -3.3545    3.2222   -0.2910 C   0  0  0  0  0  0  0  0  0  0  0  0
   -4.7141    4.1944   -0.6701 Cl  0  0  0  0  0  0  0  0  0  0  0  0
   -2.1173    3.7628   -0.2400 N   0  0  0  0  0  0  0  0  0  0  0  0
   -4.3576    0.8310   -0.0532 C   0  0  0  0  0  0  0  0  0  0  0  0
   -4.0516   -0.4705   -0.4497 C   0  0  0  0  0  0  0  0  0  0  0  0
   -4.9969   -1.4832   -0.4432 C   0  0  0  0  0  0  0  0  0  0  0  0
   -6.3047   -1.2098   -0.0408 C   0  0  0  0  0  0  0  0  0  0  0  0
   -6.6202    0.0927    0.3559 C   0  0  0  0  0  0  0  0  0  0  0  0
   -5.6670    1.0911    0.3554 C   0  0  0  0  0  0  0  0  0  0  0  0
   -7.3358   -2.1451    0.0052 N   0  0  0  0  0  0  0  0  0  0  0  0
   -7.3090   -3.4493   -0.3769 C   0  0  0  0  0  0  0  0  0  0  0  0
   -6.3544   -4.0441   -0.8224 O   0  0  0  0  0  0  0  0  0  0  0  0
   -8.5099   -3.9917   -0.1884 O   0  0  0  0  0  0  0  0  0  0  0  0
   -8.6636   -5.3620   -0.5503 C   0  0  0  0  0  0  0  0  0  0  0  0
    2.6846   -1.2888    1.9077 H   0  0  0  0  0  0  0  0  0  0  0  0
    4.0654   -0.3495    1.4019 H   0  0  0  0  0  0  0  0  0  0  0  0
    2.9444    0.1531   -0.7852 H   0  0  0  0  0  0  0  0  0  0  0  0
    1.6095   -0.8815   -0.3560 H   0  0  0  0  0  0  0  0  0  0  0  0
    5.4060   -0.6136   -2.7495 H   0  0  0  0  0  0  0  0  0  0  0  0
    0.3499    3.0289    1.2976 H   0  0  0  0  0  0  0  0  0  0  0  0
    5.0509   -5.4588   -1.4153 H   0  0  0  0  0  0  0  0  0  0  0  0
    6.2702   -3.3313   -1.7037 H   0  0  0  0  0  0  0  0  0  0  0  0
    2.2710   -3.4761    1.1768 H   0  0  0  0  0  0  0  0  0  0  0  0
    0.7110    1.2641   -1.0381 H   0  0  0  0  0  0  0  0  0  0  0  0
    0.5638    3.8501   -1.6319 H   0  0  0  0  0  0  0  0  0  0  0  0
    0.3102    4.9270   -0.2678 H   0  0  0  0  0  0  0  0  0  0  0  0
    5.1786    2.8788   -1.6496 H   0  0  0  0  0  0  0  0  0  0  0  0
    6.0870    4.0135    0.3543 H   0  0  0  0  0  0  0  0  0  0  0  0
    4.5492    5.1890    1.8976 H   0  0  0  0  0  0  0  0  0  0  0  0
    2.1272    5.2045    1.4571 H   0  0  0  0  0  0  0  0  0  0  0  0
   -1.6078    0.7111    0.3702 H   0  0  0  0  0  0  0  0  0  0  0  0
   -3.0534   -0.7168   -0.7902 H   0  0  0  0  0  0  0  0  0  0  0  0
   -4.7013   -2.4701   -0.7580 H   0  0  0  0  0  0  0  0  0  0  0  0
   -7.6280    0.3268    0.6777 H   0  0  0  0  0  0  0  0  0  0  0  0
   -5.9516    2.0775    0.6939 H   0  0  0  0  0  0  0  0  0  0  0  0
   -8.2220   -1.7987    0.3427 H   0  0  0  0  0  0  0  0  0  0  0  0
   -8.0162   -6.0082    0.0418 H   0  0  0  0  0  0  0  0  0  0  0  0
   -9.7007   -5.6068   -0.3416 H   0  0  0  0  0  0  0  0  0  0  0  0
   -8.4634   -5.5220   -1.6093 H   0  0  0  0  0  0  0  0  0  0  0  0
    2.7598    2.9204   -2.1034 H   0  0  0  0  0  0  0  0  0  0  0  0
 16  5  2  0
 16 15  1  0
  5 13  1  0
 15 14  2  0
 13 14  1  0
 13 12  1  0
 30 29  1  0
 12 11  2  0
 12  2  1  0
 11 10  1  0
 25 24  2  0
 25 21  1  0
 31 29  1  0
 31 26  2  0
  2  1  1  0
  2 17  2  0
 10  9  2  0
 20 21  1  0
 20  6  1  0
 24 23  1  0
  1  3  1  0
 29 28  2  0
 21  7  2  0
 19  6  1  0
 19  4  1  0
  9 17  1  0
  9  8  1  0
 26  6  1  0
 26 27  1  0
  3  4  1  0
 23 22  2  0
  4 18  2  0
 28 27  1  0
 28 32  1  0
  7 22  1  0
 33 32  2  0
 33 34  1  0
 32 37  1  0
 34 35  2  0
 37 36  2  0
 35 36  1  0
 35 38  1  0
 40 39  2  0
 38 39  1  0
 39 41  1  0
 41 42  1  0
  1 43  1  0
  1 44  1  0
  3 45  1  0
  3 46  1  0
  5 47  1  0
  6 48  1  1
  7 68  1  0
 10 49  1  0
 11 50  1  0
 17 51  1  0
 19 52  1  0
 20 53  1  0
 20 54  1  0
 22 55  1  0
 23 56  1  0
 24 57  1  0
 25 58  1  0
 27 59  1  0
 33 60  1  0
 34 61  1  0
 36 62  1  0
 37 63  1  0
 38 64  1  0
 42 65  1  0
 42 66  1  0
 42 67  1  0
M  END
