
     RDKit          3D

 44 44  0  0  0  0  0  0  0  0999 V2000
   -6.3341   -0.4472    0.3756 C   0  0  0  0  0  0  0  0  0  0  0  0
   -7.6115    0.0086   -0.1541 N   0  0  0  0  0  0  0  0  0  0  0  0
   -5.1813    0.3445   -0.2217 C   0  0  0  0  0  0  0  0  0  0  0  0
   -2.7460    0.6580   -0.2651 N   0  0  0  0  0  0  0  0  0  0  0  0
   -3.8318   -0.1256    0.2967 C   0  0  0  0  0  0  0  0  0  0  0  0
    2.7704   -0.6453    0.2876 N   0  0  0  0  0  0  0  0  0  0  0  0
   -1.4302    0.2922    0.2383 C   0  0  2  0  0  0  0  0  0  0  0  0
   -0.4282    1.3940   -0.0892 C   0  0  0  0  0  0  0  0  0  0  0  0
    0.9781    1.0422    0.3815 C   0  0  0  0  0  0  0  0  0  0  0  0
    1.4564   -0.2774   -0.2186 C   0  0  2  0  0  0  0  0  0  0  0  0
    0.4542   -1.3798    0.1062 C   0  0  0  0  0  0  0  0  0  0  0  0
   -0.9527   -1.0277   -0.3621 C   0  0  0  0  0  0  0  0  0  0  0  0
    5.2051   -0.3386    0.2566 C   0  0  0  0  0  0  0  0  0  0  0  0
    6.3637    0.4592   -0.3208 C   0  0  0  0  0  0  0  0  0  0  0  0
    7.6372   -0.0226    0.1955 N   0  0  0  0  0  0  0  0  0  0  0  0
   -6.2713   -0.3956    1.4725 H   0  0  0  0  0  0  0  0  0  0  0  0
   -6.2145   -1.5025    0.1150 H   0  0  0  0  0  0  0  0  0  0  0  0
   -8.3559   -0.5559    0.2349 H   0  0  0  0  0  0  0  0  0  0  0  0
   -7.7892    0.9510    0.1715 H   0  0  0  0  0  0  0  0  0  0  0  0
   -5.2069    0.2590   -1.3113 H   0  0  0  0  0  0  0  0  0  0  0  0
   -5.3102    1.4074    0.0151 H   0  0  0  0  0  0  0  0  0  0  0  0
   -2.9126    1.6307   -0.0298 H   0  0  0  0  0  0  0  0  0  0  0  0
   -3.8320   -0.0993    1.3997 H   0  0  0  0  0  0  0  0  0  0  0  0
   -3.6938   -1.1746    0.0210 H   0  0  0  0  0  0  0  0  0  0  0  0
    2.9382   -1.6165    0.0470 H   0  0  0  0  0  0  0  0  0  0  0  0
   -1.4476    0.1733    1.3379 H   0  0  0  0  0  0  0  0  0  0  0  0
   -0.4293    1.5615   -1.1718 H   0  0  0  0  0  0  0  0  0  0  0  0
   -0.7478    2.3332    0.3728 H   0  0  0  0  0  0  0  0  0  0  0  0
    1.6601    1.8563    0.1240 H   0  0  0  0  0  0  0  0  0  0  0  0
    0.9969    0.9531    1.4734 H   0  0  0  0  0  0  0  0  0  0  0  0
    1.4761   -0.1575   -1.3180 H   0  0  0  0  0  0  0  0  0  0  0  0
    0.7740   -2.3176   -0.3582 H   0  0  0  0  0  0  0  0  0  0  0  0
    0.4563   -1.5508    1.1885 H   0  0  0  0  0  0  0  0  0  0  0  0
   -1.6344   -1.8412   -0.1022 H   0  0  0  0  0  0  0  0  0  0  0  0
   -0.9733   -0.9385   -1.4539 H   0  0  0  0  0  0  0  0  0  0  0  0
    3.8661    0.1253   -1.3657 H   0  0  0  0  0  0  0  0  0  0  0  0
    3.7219    1.1882    0.0218 H   0  0  0  0  0  0  0  0  0  0  0  0
    5.2155   -0.2650    1.3492 H   0  0  0  0  0  0  0  0  0  0  0  0
    5.3413   -1.3969    0.0106 H   0  0  0  0  0  0  0  0  0  0  0  0
    6.3708    0.3438   -1.4082 H   0  0  0  0  0  0  0  0  0  0  0  0
    6.1913    1.5284   -0.1283 H   0  0  0  0  0  0  0  0  0  0  0  0
    8.3907    0.5114   -0.2186 H   0  0  0  0  0  0  0  0  0  0  0  0
    7.6860    0.1692    1.1890 H   0  0  0  0  0  0  0  0  0  0  0  0
    3.8596    0.1415   -0.2624 C   0  0  0  0  0  0  0  0  0  0  0  0
 15 14  1  0
 14 13  1  0
 13 44  1  0
 44  6  1  0
  6 10  1  0
 10 11  1  0
 10  9  1  0
 11 12  1  0
  9  8  1  0
 12  7  1  0
  8  7  1  0
  7  4  1  0
  4  5  1  0
  5  3  1  0
  3  1  1  0
  1  2  1  0
  1 16  1  0
  1 17  1  0
  2 18  1  0
  2 19  1  0
  3 20  1  0
  3 21  1  0
  4 22  1  0
  5 23  1  0
  5 24  1  0
  6 25  1  0
  7 26  1  1
  8 27  1  0
  8 28  1  0
  9 29  1  0
  9 30  1  0
 10 31  1  6
 11 32  1  0
 11 33  1  0
 12 34  1  0
 12 35  1  0
 44 36  1  0
 44 37  1  0
 13 38  1  0
 13 39  1  0
 14 40  1  0
 14 41  1  0
 15 42  1  0
 15 43  1  0
M  END
