
     RDKit          3D

 42 44  0  0  0  0  0  0  0  0999 V2000
   -5.3906    1.1762   -0.2778 C   0  0  0  0  0  0  0  0  0  0  0  0
   -7.3651   -1.8536    0.5060 C   0  0  0  0  0  0  0  0  0  0  0  0
   -6.4890    0.3597   -0.0813 C   0  0  0  0  0  0  0  0  0  0  0  0
   -3.0246    2.6725   -0.5971 O   0  0  0  0  0  0  0  0  0  0  0  0
   -2.9103    1.4973   -0.2958 C   0  0  0  0  0  0  0  0  0  0  0  0
   -1.7553    0.8374   -0.0999 N   0  0  0  0  0  0  0  0  0  0  0  0
   -0.0947    2.6270   -0.4620 C   0  0  0  0  0  0  0  0  0  0  0  0
    1.2451    2.9760   -0.4651 C   0  0  0  0  0  0  0  0  0  0  0  0
    2.2183    2.0451   -0.1653 C   0  0  0  0  0  0  0  0  0  0  0  0
    2.7120   -2.6453   -0.1210 C   0  0  0  0  0  0  0  0  0  0  0  0
    2.9299   -0.3537    0.5447 C   0  0  1  0  0  0  0  0  0  0  0  0
    1.9116    0.7218    0.1326 C   0  0  0  0  0  0  0  0  0  0  0  0
    4.1888   -0.3845   -0.3443 C   0  0  1  0  0  0  0  0  0  0  0  0
    4.8302   -1.7575   -0.3473 C   0  0  0  0  0  0  0  0  0  0  0  0
    3.2841   -0.1457    2.0253 C   0  0  0  0  0  0  0  0  0  0  0  0
    2.2701   -1.6364    0.5180 N   0  0  0  0  0  0  0  0  0  0  0  0
    3.8946   -2.7325   -0.7517 O   0  0  0  0  0  0  0  0  0  0  0  0
    3.6520    1.1567    2.3077 F   0  0  0  0  0  0  0  0  0  0  0  0
    3.8503   -0.0567   -1.6217 F   0  0  0  0  0  0  0  0  0  0  0  0
    5.1493    0.4877    0.0536 F   0  0  0  0  0  0  0  0  0  0  0  0
    0.5622    0.3918    0.1312 C   0  0  0  0  0  0  0  0  0  0  0  0
   -0.4431    1.3150   -0.1539 C   0  0  0  0  0  0  0  0  0  0  0  0
   -4.1267    0.6320   -0.1001 C   0  0  0  0  0  0  0  0  0  0  0  0
   -3.9246   -0.6344    0.2471 N   0  0  0  0  0  0  0  0  0  0  0  0
   -4.9631   -1.4212    0.4382 C   0  0  0  0  0  0  0  0  0  0  0  0
   -6.2734   -0.9645    0.2856 C   0  0  0  0  0  0  0  0  0  0  0  0
   -8.2440   -2.5753    0.6859 N   0  0  0  0  0  0  0  0  0  0  0  0
   -5.5163    2.2108   -0.5604 H   0  0  0  0  0  0  0  0  0  0  0  0
   -7.4924    0.7413   -0.2097 H   0  0  0  0  0  0  0  0  0  0  0  0
   -1.8650   -0.1399    0.1434 H   0  0  0  0  0  0  0  0  0  0  0  0
   -0.8358    3.3734   -0.6946 H   0  0  0  0  0  0  0  0  0  0  0  0
    1.5387    3.9904   -0.7015 H   0  0  0  0  0  0  0  0  0  0  0  0
    5.6558   -1.7845   -1.0579 H   0  0  0  0  0  0  0  0  0  0  0  0
    5.2235   -1.9918    0.6469 H   0  0  0  0  0  0  0  0  0  0  0  0
    2.3954   -0.3861    2.6093 H   0  0  0  0  0  0  0  0  0  0  0  0
    4.0948   -0.8096    2.3335 H   0  0  0  0  0  0  0  0  0  0  0  0
    1.0317   -3.7583   -0.0186 H   0  0  0  0  0  0  0  0  0  0  0  0
    2.3274   -4.5157   -0.8357 H   0  0  0  0  0  0  0  0  0  0  0  0
    0.2939   -0.6287    0.3697 H   0  0  0  0  0  0  0  0  0  0  0  0
   -4.7657   -2.4476    0.7222 H   0  0  0  0  0  0  0  0  0  0  0  0
    3.4889    2.4715   -0.1888 F   0  0  0  0  0  0  0  0  0  0  0  0
    2.0194   -3.7975   -0.2021 N   0  0  0  0  0  0  0  0  0  0  0  0
 13 19  1  6
 20 13  1  0
 41  9  1  0
 13 14  1  0
 13 11  1  0
 18 15  1  0
 11 15  1  1
  9  8  1  0
  9 12  2  0
 14 17  1  0
 11 12  1  0
 11 16  1  0
  8  7  2  0
 12 21  1  0
 17 10  1  0
 16 10  2  0
  7 22  1  0
 10 42  1  0
 21 22  2  0
 22  6  1  0
  4  5  2  0
  6  5  1  0
  5 23  1  0
 23  1  2  0
 23 24  1  0
  1  3  1  0
 24 25  2  0
  3 26  2  0
 25 26  1  0
 26  2  1  0
  2 27  3  0
  1 28  1  0
  3 29  1  0
  6 30  1  0
  7 31  1  0
  8 32  1  0
 14 33  1  0
 14 34  1  0
 15 35  1  0
 15 36  1  0
 42 37  1  0
 42 38  1  0
 21 39  1  0
 25 40  1  0
M  END
