
     RDKit          3D

 21 21  0  0  0  0  0  0  0  0999 V2000
   -0.1881   -1.3455    0.0295 C   0  0  0  0  0  0  0  0  0  0  0  0
    2.5597    0.3645   -1.5043 N   0  0  0  0  0  0  0  0  0  0  0  0
   -3.6475   -0.3745   -0.0248 O   0  0  0  0  0  0  0  0  0  0  0  0
    2.2073   -0.0206    0.0659 S   0  0  1  0  0  0  0  0  0  0  0  0
   -1.5660   -1.4009    0.0093 C   0  0  0  0  0  0  0  0  0  0  0  0
    2.7111   -1.3323    0.4545 O   0  0  0  0  0  0  0  0  0  0  0  0
   -2.3203   -0.2236   -0.0151 C   0  0  0  0  0  0  0  0  0  0  0  0
    2.6222    1.1333    0.8524 O   0  0  0  0  0  0  0  0  0  0  0  0
   -1.6712    1.0138   -0.0249 C   0  0  0  0  0  0  0  0  0  0  0  0
    0.4502   -0.1095    0.0195 C   0  0  0  0  0  0  0  0  0  0  0  0
   -4.4717    0.7784   -0.0400 C   0  0  0  0  0  0  0  0  0  0  0  0
   -0.2884    1.0649   -0.0080 C   0  0  0  0  0  0  0  0  0  0  0  0
    0.3809   -2.2645    0.0564 H   0  0  0  0  0  0  0  0  0  0  0  0
    2.3983   -0.4095   -2.1409 H   0  0  0  0  0  0  0  0  0  0  0  0
    3.5164    0.6945   -1.5966 H   0  0  0  0  0  0  0  0  0  0  0  0
   -2.0710   -2.3582    0.0186 H   0  0  0  0  0  0  0  0  0  0  0  0
   -2.2262    1.9414   -0.0418 H   0  0  0  0  0  0  0  0  0  0  0  0
   -4.3151    1.4000    0.8445 H   0  0  0  0  0  0  0  0  0  0  0  0
   -4.3060    1.3839   -0.9338 H   0  0  0  0  0  0  0  0  0  0  0  0
   -5.4974    0.4204   -0.0421 H   0  0  0  0  0  0  0  0  0  0  0  0
    0.2019    2.0295   -0.0137 H   0  0  0  0  0  0  0  0  0  0  0  0
  1  5  2  0
  1 10  1  0
  4  2  1  6
  3  7  1  0
  3 11  1  0
  4  6  2  0
  4  8  2  0
  4 10  1  0
  5  7  1  0
  7  9  2  0
  9 12  1  0
 10 12  2  0
  1 13  1  0
  2 14  1  0
  2 15  1  0
  5 16  1  0
  9 17  1  0
 11 18  1  0
 11 19  1  0
 11 20  1  0
 12 21  1  0
M  END
