
     RDKit          3D

 19 20  0  0  0  0  0  0  0  0999 V2000
   -0.0894    0.9070    0.0143 C   0  0  0  0  0  0  0  0  0  0  0  0
    0.1814   -0.4803    0.0044 C   0  0  0  0  0  0  0  0  0  0  0  0
   -1.4365    1.0673    0.0088 N   0  0  0  0  0  0  0  0  0  0  0  0
    0.9334    1.8579    0.0283 C   0  0  0  0  0  0  0  0  0  0  0  0
   -1.0731   -1.1445   -0.0064 C   0  0  0  0  0  0  0  0  0  0  0  0
    1.5101   -0.9289    0.0073 C   0  0  0  0  0  0  0  0  0  0  0  0
   -2.0333   -0.1665   -0.0033 C   0  0  0  0  0  0  0  0  0  0  0  0
    2.2308    1.4003    0.0315 C   0  0  0  0  0  0  0  0  0  0  0  0
    2.5032    0.0196    0.0209 C   0  0  0  0  0  0  0  0  0  0  0  0
   -3.4843   -0.3608   -0.0119 C   0  0  0  0  0  0  0  0  0  0  0  0
    4.1661   -0.4869    0.0250 Cl  0  0  0  0  0  0  0  0  0  0  0  0
   -4.1440    0.7893   -0.0125 O   0  0  0  0  0  0  0  0  0  0  0  0
   -4.0084   -1.4480   -0.0178 O   0  0  0  0  0  0  0  0  0  0  0  0
   -1.9177    1.9525    0.0155 H   0  0  0  0  0  0  0  0  0  0  0  0
    0.7221    2.9190    0.0366 H   0  0  0  0  0  0  0  0  0  0  0  0
   -1.2500   -2.2079   -0.0158 H   0  0  0  0  0  0  0  0  0  0  0  0
    1.7400   -1.9862   -0.0010 H   0  0  0  0  0  0  0  0  0  0  0  0
    3.0494    2.1064    0.0426 H   0  0  0  0  0  0  0  0  0  0  0  0
   -5.0999    0.6307   -0.0183 H   0  0  0  0  0  0  0  0  0  0  0  0
 12 10  1  0
  5  2  1  0
  5  7  2  0
  6  2  1  0
  6  9  2  0
  2  1  2  0
 10  7  1  0
 10 13  2  0
 11  9  1  0
  7  3  1  0
  9  8  1  0
  1  3  1  0
  1  4  1  0
  8  4  2  0
  3 14  1  0
  4 15  1  0
  5 16  1  0
  6 17  1  0
  8 18  1  0
 12 19  1  0
M  END
