
     RDKit          3D

 30 31  0  0  0  0  0  0  0  0999 V2000
    1.6213    0.5722    0.1792 C   0  0  0  0  0  0  0  0  0  0  0  0
    2.4442   -0.5348   -0.0587 C   0  0  0  0  0  0  0  0  0  0  0  0
    3.7526   -0.3230   -0.4893 C   0  0  0  0  0  0  0  0  0  0  0  0
    4.2318    0.9624   -0.6840 C   0  0  0  0  0  0  0  0  0  0  0  0
    2.1090    1.8565    0.0072 C   0  0  0  0  0  0  0  0  0  0  0  0
   -0.8986    0.2238   -0.8113 C   0  0  0  0  0  0  0  0  0  0  0  0
   -2.9180   -1.1791   -0.3408 C   0  0  0  0  0  0  0  0  0  0  0  0
   -4.2735   -1.3150   -0.0790 C   0  0  0  0  0  0  0  0  0  0  0  0
   -5.0902   -0.1916   -0.0380 C   0  0  0  0  0  0  0  0  0  0  0  0
   -4.5447    1.0662   -0.2586 C   0  0  0  0  0  0  0  0  0  0  0  0
   -3.1876    1.2015   -0.5174 C   0  0  0  0  0  0  0  0  0  0  0  0
    0.7476   -2.1354    0.3412 O   0  0  0  0  0  0  0  0  0  0  0  0
    1.9181   -1.9040    0.1414 C   0  0  0  0  0  0  0  0  0  0  0  0
    2.8476   -2.8398    0.0860 O   0  0  0  0  0  0  0  0  0  0  0  0
    3.4096    2.0507   -0.4360 C   0  0  0  0  0  0  0  0  0  0  0  0
   -0.0701    0.4400    0.8182 S   0  0  0  0  0  0  0  0  0  0  0  0
   -0.4547    1.8316    1.2475 O   0  0  0  0  0  0  0  0  0  0  0  0
   -2.3647    0.0792   -0.5698 C   0  0  0  0  0  0  0  0  0  0  0  0
    4.4044   -1.1638   -0.6806 H   0  0  0  0  0  0  0  0  0  0  0  0
    5.2474    1.1118   -1.0239 H   0  0  0  0  0  0  0  0  0  0  0  0
    1.4754    2.7071    0.2194 H   0  0  0  0  0  0  0  0  0  0  0  0
   -0.6581    1.1199   -1.3853 H   0  0  0  0  0  0  0  0  0  0  0  0
   -0.4701   -0.6453   -1.3053 H   0  0  0  0  0  0  0  0  0  0  0  0
   -4.6929   -2.2978    0.0920 H   0  0  0  0  0  0  0  0  0  0  0  0
   -6.1488   -0.2970    0.1614 H   0  0  0  0  0  0  0  0  0  0  0  0
   -5.1773    1.9437   -0.2270 H   0  0  0  0  0  0  0  0  0  0  0  0
   -2.7687    2.1842   -0.6939 H   0  0  0  0  0  0  0  0  0  0  0  0
    2.4470   -3.7157    0.1942 H   0  0  0  0  0  0  0  0  0  0  0  0
    3.7796    3.0567   -0.5818 H   0  0  0  0  0  0  0  0  0  0  0  0
   -2.2835   -2.0569   -0.3736 H   0  0  0  0  0  0  0  0  0  0  0  0
 10  9  2  0
 10 11  1  0
  9  8  1  0
 11 18  2  0
  8  7  2  0
 18  7  1  0
 18  6  1  0
 16  6  1  6
 17 16  2  0
 16  1  1  0
  5  1  1  0
  5 15  2  0
  1  2  2  0
 15  4  1  0
 12 13  2  0
  2 13  1  0
  2  3  1  0
 13 14  1  0
  4  3  2  0
  3 19  1  0
  4 20  1  0
  5 21  1  0
  6 22  1  0
  6 23  1  0
  7 30  1  0
  8 24  1  0
  9 25  1  0
 10 26  1  0
 11 27  1  0
 14 28  1  0
 15 29  1  0
M  END
