
     RDKit          3D

 19 20  0  0  0  0  0  0  0  0999 V2000
    2.6263    0.7854   -0.2543 C   0  0  0  0  0  0  0  0  0  0  0  0
    3.0975   -0.4915   -0.1293 C   0  0  0  0  0  0  0  0  0  0  0  0
    2.0653   -1.3538    0.1013 N   0  0  0  0  0  0  0  0  0  0  0  0
    0.8972   -0.6557    0.1304 C   0  0  0  0  0  0  0  0  0  0  0  0
    1.2118    0.7051   -0.0912 C   0  0  0  0  0  0  0  0  0  0  0  0
    0.2811    1.6655   -0.1214 N   0  0  0  0  0  0  0  0  0  0  0  0
   -0.9654    1.2805    0.0663 C   0  0  0  0  0  0  0  0  0  0  0  0
   -1.3764   -0.0472    0.2933 C   0  0  0  0  0  0  0  0  0  0  0  0
   -0.4207   -1.0469    0.3224 C   0  0  0  0  0  0  0  0  0  0  0  0
   -2.8350   -0.3497    0.4651 C   0  0  0  0  0  0  0  0  0  0  0  0
   -3.4798   -0.1832   -0.7818 O   0  0  0  0  0  0  0  0  0  0  0  0
    3.2153    1.6689   -0.4404 H   0  0  0  0  0  0  0  0  0  0  0  0
    4.1093   -0.8587   -0.1887 H   0  0  0  0  0  0  0  0  0  0  0  0
    2.1619   -2.3484    0.2223 H   0  0  0  0  0  0  0  0  0  0  0  0
   -1.7173    2.0639    0.0487 H   0  0  0  0  0  0  0  0  0  0  0  0
   -0.6931   -2.0823    0.4909 H   0  0  0  0  0  0  0  0  0  0  0  0
   -2.9509   -1.3709    0.8481 H   0  0  0  0  0  0  0  0  0  0  0  0
   -3.2605    0.3214    1.2212 H   0  0  0  0  0  0  0  0  0  0  0  0
   -4.4281   -0.2499   -0.6341 H   0  0  0  0  0  0  0  0  0  0  0  0
 11 10  1  0
 10  8  1  0
  7  8  2  0
  7  6  1  0
  8  9  1  0
  6  5  2  0
  9  4  2  0
  5  4  1  0
  5  1  1  0
  4  3  1  0
  1  2  2  0
  3  2  1  0
  1 12  1  0
  2 13  1  0
  3 14  1  0
  7 15  1  0
  9 16  1  0
 10 17  1  0
 10 18  1  0
 11 19  1  0
M  END
