
     RDKit          3D

 34 34  0  0  0  0  0  0  0  0999 V2000
   -1.7838   -0.5093   -0.1481 C   0  0  2  0  0  0  0  0  0  0  0  0
   -3.3188   -0.5295   -0.0873 C   0  0  0  0  0  0  0  0  0  0  0  0
   -5.1478   -1.9261    0.3192 O   0  0  0  0  0  0  0  0  0  0  0  0
   -1.3451    0.8743   -0.2488 N   0  0  0  0  0  0  0  0  0  0  0  0
    1.3251    0.6664    0.3161 C   0  0  0  0  0  0  0  0  0  0  0  0
    1.7059   -0.5558    0.8599 C   0  0  0  0  0  0  0  0  0  0  0  0
    2.8622   -1.1935    0.4312 C   0  0  0  0  0  0  0  0  0  0  0  0
    3.6033   -0.5485   -0.5522 C   0  0  0  0  0  0  0  0  0  0  0  0
    3.2512    0.6699   -1.0968 C   0  0  0  0  0  0  0  0  0  0  0  0
    2.0941    1.2907   -0.6564 C   0  0  0  0  0  0  0  0  0  0  0  0
   -1.3987    1.5144   -1.5581 C   0  0  0  0  0  0  0  0  0  0  0  0
   -1.2296   -1.4000   -1.2615 C   0  0  0  0  0  0  0  0  0  0  0  0
   -3.8190   -1.7750    0.0499 N   0  0  0  0  0  0  0  0  0  0  0  0
   -4.0056    0.4649   -0.1830 O   0  0  0  0  0  0  0  0  0  0  0  0
   -0.2049    1.4059    0.8128 S   0  0  1  0  0  0  0  0  0  0  0  0
   -0.0879    2.8410    0.6204 O   0  0  0  0  0  0  0  0  0  0  0  0
   -0.5513    0.8798    2.1230 O   0  0  0  0  0  0  0  0  0  0  0  0
    4.7217   -1.1410   -0.9861 F   0  0  0  0  0  0  0  0  0  0  0  0
    3.3022   -2.5093    0.9947 C   0  0  0  0  0  0  0  0  0  0  0  0
   -1.4388   -0.9114    0.8075 H   0  0  0  0  0  0  0  0  0  0  0  0
   -5.5575   -2.1889   -0.5146 H   0  0  0  0  0  0  0  0  0  0  0  0
    1.1074   -1.0253    1.6302 H   0  0  0  0  0  0  0  0  0  0  0  0
    3.8749    1.1321   -1.8500 H   0  0  0  0  0  0  0  0  0  0  0  0
    1.8159    2.2511   -1.0669 H   0  0  0  0  0  0  0  0  0  0  0  0
   -1.5056    2.5893   -1.4496 H   0  0  0  0  0  0  0  0  0  0  0  0
   -0.5246    1.3021   -2.1793 H   0  0  0  0  0  0  0  0  0  0  0  0
   -2.2801    1.1538   -2.0803 H   0  0  0  0  0  0  0  0  0  0  0  0
   -1.4542   -2.4483   -1.0721 H   0  0  0  0  0  0  0  0  0  0  0  0
   -1.6420   -1.1407   -2.2353 H   0  0  0  0  0  0  0  0  0  0  0  0
   -0.1453   -1.3058   -1.3119 H   0  0  0  0  0  0  0  0  0  0  0  0
   -3.2483   -2.5459    0.3681 H   0  0  0  0  0  0  0  0  0  0  0  0
    3.3121   -3.2857    0.2290 H   0  0  0  0  0  0  0  0  0  0  0  0
    4.3077   -2.4507    1.4124 H   0  0  0  0  0  0  0  0  0  0  0  0
    2.6307   -2.8326    1.7874 H   0  0  0  0  0  0  0  0  0  0  0  0
 17 15  2  0
 16 15  2  0
 12  1  1  0
 15  4  1  6
 15  5  1  0
  4  1  1  0
  4 11  1  0
  1  2  1  0
  5 10  2  0
  5  6  1  0
  2 13  1  0
  2 14  2  0
 13  3  1  0
 10  9  1  0
  6  7  2  0
  9  8  2  0
  7  8  1  0
  7 19  1  0
  8 18  1  0
  1 20  1  1
  3 21  1  0
  6 22  1  0
  9 23  1  0
 10 24  1  0
 11 25  1  0
 11 26  1  0
 11 27  1  0
 12 28  1  0
 12 29  1  0
 12 30  1  0
 13 31  1  0
 19 32  1  0
 19 33  1  0
 19 34  1  0
M  END
