
     RDKit          3D

 55 54  0  0  0  0  0  0  0  0999 V2000
   11.4605   -1.2916    0.2308 O   0  0  0  0  0  0  0  0  0  0  0  0
   10.6140   -0.4315    0.2481 C   0  0  0  0  0  0  0  0  0  0  0  0
    9.3701   -0.4198   -0.5812 C   0  0  0  0  0  0  0  0  0  0  0  0
    8.1234   -0.2335    0.2853 C   0  0  0  0  0  0  0  0  0  0  0  0
    6.8507   -0.1091   -0.5426 C   0  0  0  0  0  0  0  0  0  0  0  0
    5.6088    0.0841    0.3172 C   0  0  0  0  0  0  0  0  0  0  0  0
    4.3254    0.2205   -0.4928 C   0  0  0  0  0  0  0  0  0  0  0  0
    3.0987    0.4523    0.3794 C   0  0  0  0  0  0  0  0  0  0  0  0
    1.8030    0.5958   -0.4092 C   0  0  0  0  0  0  0  0  0  0  0  0
    0.6084    0.9118    0.4816 C   0  0  0  0  0  0  0  0  0  0  0  0
   -0.7044    1.0413   -0.2819 C   0  0  0  0  0  0  0  0  0  0  0  0
   -1.8344    1.4664    0.6349 C   0  0  0  0  0  0  0  0  0  0  0  0
   -3.0420    1.5252   -0.0856 O   0  0  0  0  0  0  0  0  0  0  0  0
   -4.1086    2.0221    0.6816 C   0  0  0  0  0  0  0  0  0  0  0  0
   -5.3849    1.9652   -0.1176 C   0  0  0  0  0  0  0  0  0  0  0  0
   -5.7582    0.6254   -0.3154 O   0  0  0  0  0  0  0  0  0  0  0  0
   -6.9323    0.4898   -1.0746 C   0  0  0  0  0  0  0  0  0  0  0  0
   -7.3239   -0.9633   -1.1521 C   0  0  0  0  0  0  0  0  0  0  0  0
   -7.6957   -1.4230    0.1217 O   0  0  0  0  0  0  0  0  0  0  0  0
   -8.1000   -2.7730    0.1187 C   0  0  0  0  0  0  0  0  0  0  0  0
   -8.4935   -3.1795    1.5208 C   0  0  0  0  0  0  0  0  0  0  0  0
   10.7184    0.4440    0.9167 H   0  0  0  0  0  0  0  0  0  0  0  0
    9.4537    0.4304   -1.2693 H   0  0  0  0  0  0  0  0  0  0  0  0
    9.3082   -1.3295   -1.1815 H   0  0  0  0  0  0  0  0  0  0  0  0
    8.0284   -1.0765    0.9760 H   0  0  0  0  0  0  0  0  0  0  0  0
    8.2409    0.6606    0.9062 H   0  0  0  0  0  0  0  0  0  0  0  0
    6.9520    0.7333   -1.2354 H   0  0  0  0  0  0  0  0  0  0  0  0
    6.7315   -1.0022   -1.1651 H   0  0  0  0  0  0  0  0  0  0  0  0
    5.5111   -0.7579    1.0115 H   0  0  0  0  0  0  0  0  0  0  0  0
    5.7379    0.9755    0.9415 H   0  0  0  0  0  0  0  0  0  0  0  0
    4.4301    1.0501   -1.2010 H   0  0  0  0  0  0  0  0  0  0  0  0
    4.1802   -0.6793   -1.1008 H   0  0  0  0  0  0  0  0  0  0  0  0
    2.9974   -0.3726    1.0935 H   0  0  0  0  0  0  0  0  0  0  0  0
    3.2536    1.3536    0.9834 H   0  0  0  0  0  0  0  0  0  0  0  0
    1.9172    1.3884   -1.1567 H   0  0  0  0  0  0  0  0  0  0  0  0
    1.6118   -0.3255   -0.9699 H   0  0  0  0  0  0  0  0  0  0  0  0
    0.5081    0.1342    1.2465 H   0  0  0  0  0  0  0  0  0  0  0  0
    0.8073    1.8434    1.0227 H   0  0  0  0  0  0  0  0  0  0  0  0
   -0.5935    1.7758   -1.0855 H   0  0  0  0  0  0  0  0  0  0  0  0
   -0.9532    0.0862   -0.7546 H   0  0  0  0  0  0  0  0  0  0  0  0
   -1.9229    0.7601    1.4741 H   0  0  0  0  0  0  0  0  0  0  0  0
   -1.5987    2.4470    1.0744 H   0  0  0  0  0  0  0  0  0  0  0  0
   -4.2293    1.4479    1.6121 H   0  0  0  0  0  0  0  0  0  0  0  0
   -3.9303    3.0663    0.9748 H   0  0  0  0  0  0  0  0  0  0  0  0
   -6.1610    2.5131    0.4345 H   0  0  0  0  0  0  0  0  0  0  0  0
   -5.2510    2.4861   -1.0771 H   0  0  0  0  0  0  0  0  0  0  0  0
   -7.7563    1.0726   -0.6373 H   0  0  0  0  0  0  0  0  0  0  0  0
   -6.7871    0.8638   -2.0979 H   0  0  0  0  0  0  0  0  0  0  0  0
   -8.1567   -1.0549   -1.8633 H   0  0  0  0  0  0  0  0  0  0  0  0
   -6.4926   -1.5573   -1.5595 H   0  0  0  0  0  0  0  0  0  0  0  0
   -8.9462   -2.9177   -0.5678 H   0  0  0  0  0  0  0  0  0  0  0  0
   -7.2873   -3.4159   -0.2475 H   0  0  0  0  0  0  0  0  0  0  0  0
   -7.6588   -3.0730    2.2143 H   0  0  0  0  0  0  0  0  0  0  0  0
   -9.3262   -2.5799    1.8899 H   0  0  0  0  0  0  0  0  0  0  0  0
   -8.8043   -4.2240    1.5291 H   0  0  0  0  0  0  0  0  0  0  0  0
 21 20  1  0
 20 19  1  0
 19 18  1  0
 18 17  1  0
 17 16  1  0
 16 15  1  0
 15 14  1  0
  1  2  2  0
 14 13  1  0
  3  2  1  0
  3  4  1  0
 13 12  1  0
  5  4  1  0
  5  6  1  0
  7  6  1  0
  7  8  1  0
 12 11  1  0
  9  8  1  0
  9 10  1  0
 11 10  1  0
  2 22  1  0
  3 23  1  0
  3 24  1  0
  4 25  1  0
  4 26  1  0
  5 27  1  0
  5 28  1  0
  6 29  1  0
  6 30  1  0
  7 31  1  0
  7 32  1  0
  8 33  1  0
  8 34  1  0
  9 35  1  0
  9 36  1  0
 10 37  1  0
 10 38  1  0
 11 39  1  0
 11 40  1  0
 12 41  1  0
 12 42  1  0
 14 43  1  0
 14 44  1  0
 15 45  1  0
 15 46  1  0
 17 47  1  0
 17 48  1  0
 18 49  1  0
 18 50  1  0
 20 51  1  0
 20 52  1  0
 21 53  1  0
 21 54  1  0
 21 55  1  0
M  END
