
     RDKit          3D

 54 55  0  0  0  0  0  0  0  0999 V2000
   -1.2882    3.1093    2.7747 O   0  0  0  0  0  0  0  0  0  0  0  0
   -1.8668    2.3203    1.7017 S   0  0  2  0  0  0  0  0  0  0  0  0
   -3.2750    1.9632    1.7299 O   0  0  0  0  0  0  0  0  0  0  0  0
   -1.0180    0.8983    1.6912 N   0  0  0  0  0  0  0  0  0  0  0  0
   -1.3058   -0.0706    0.6493 C   0  0  1  0  0  0  0  0  0  0  0  0
   -0.4289    0.1530   -0.5753 C   0  0  0  0  0  0  0  0  0  0  0  0
   -0.9404   -0.4263   -1.6477 O   0  0  0  0  0  0  0  0  0  0  0  0
    0.6176    0.7470   -0.5540 O   0  0  0  0  0  0  0  0  0  0  0  0
   -1.1512   -1.5022    1.1798 C   0  0  0  0  0  0  0  0  0  0  0  0
    0.2561   -1.8333    1.6491 C   0  0  0  0  0  0  0  0  0  0  0  0
    0.3645   -3.2285    2.2024 C   0  0  0  0  0  0  0  0  0  0  0  0
   -0.5468   -4.0126    2.2881 O   0  0  0  0  0  0  0  0  0  0  0  0
    1.6030   -3.5056    2.5937 O   0  0  0  0  0  0  0  0  0  0  0  0
   -1.5292    3.1104    0.1611 C   0  0  0  0  0  0  0  0  0  0  0  0
   -0.3298    3.8453    0.0214 C   0  0  0  0  0  0  0  0  0  0  0  0
   -0.0184    4.3958   -1.1851 C   0  0  0  0  0  0  0  0  0  0  0  0
   -0.8745    4.2379   -2.3061 C   0  0  0  0  0  0  0  0  0  0  0  0
   -0.5648    4.7942   -3.5575 C   0  0  0  0  0  0  0  0  0  0  0  0
   -1.4158    4.6329   -4.6305 C   0  0  0  0  0  0  0  0  0  0  0  0
   -2.6182    3.9020   -4.4714 C   0  0  0  0  0  0  0  0  0  0  0  0
   -2.9321    3.3550   -3.2576 C   0  0  0  0  0  0  0  0  0  0  0  0
   -2.0777    3.5021   -2.1454 C   0  0  0  0  0  0  0  0  0  0  0  0
   -2.3898    2.9409   -0.8889 C   0  0  0  0  0  0  0  0  0  0  0  0
   -1.0401    5.1900   -5.7900 O   0  0  0  0  0  0  0  0  0  0  0  0
   -1.9169    5.1570   -6.9106 C   0  0  0  0  0  0  0  0  0  0  0  0
   -1.2533    5.9027   -8.0486 C   0  0  0  0  0  0  0  0  0  0  0  0
   -2.1612    5.9800   -9.2703 C   0  0  0  0  0  0  0  0  0  0  0  0
   -1.5184    6.7247  -10.4343 C   0  0  0  0  0  0  0  0  0  0  0  0
   -2.4369    6.8236  -11.6441 C   0  0  0  0  0  0  0  0  0  0  0  0
   -0.0292    1.0548    1.8616 H   0  0  0  0  0  0  0  0  0  0  0  0
   -2.3525    0.0361    0.3566 H   0  0  0  0  0  0  0  0  0  0  0  0
   -1.4642   -2.1944    0.3970 H   0  0  0  0  0  0  0  0  0  0  0  0
   -1.8580   -1.6129    2.0024 H   0  0  0  0  0  0  0  0  0  0  0  0
   -0.3448   -0.3227   -2.4059 H   0  0  0  0  0  0  0  0  0  0  0  0
    0.9873   -1.7368    0.8414 H   0  0  0  0  0  0  0  0  0  0  0  0
    0.5850   -1.1435    2.4326 H   0  0  0  0  0  0  0  0  0  0  0  0
    1.6434   -4.4055    2.9506 H   0  0  0  0  0  0  0  0  0  0  0  0
    0.3363    3.9787    0.8632 H   0  0  0  0  0  0  0  0  0  0  0  0
   -3.3144    2.3878   -0.7785 H   0  0  0  0  0  0  0  0  0  0  0  0
    0.8953    4.9665   -1.2953 H   0  0  0  0  0  0  0  0  0  0  0  0
    0.3519    5.3589   -3.6806 H   0  0  0  0  0  0  0  0  0  0  0  0
   -3.3004    3.7623   -5.2983 H   0  0  0  0  0  0  0  0  0  0  0  0
   -3.8527    2.7950   -3.1482 H   0  0  0  0  0  0  0  0  0  0  0  0
   -2.1232    4.1223   -7.2051 H   0  0  0  0  0  0  0  0  0  0  0  0
   -2.8722    5.6292   -6.6560 H   0  0  0  0  0  0  0  0  0  0  0  0
   -0.9975    6.9138   -7.7188 H   0  0  0  0  0  0  0  0  0  0  0  0
   -0.3162    5.4055   -8.3159 H   0  0  0  0  0  0  0  0  0  0  0  0
   -3.0988    6.4764   -8.9982 H   0  0  0  0  0  0  0  0  0  0  0  0
   -2.4336    4.9698   -9.5938 H   0  0  0  0  0  0  0  0  0  0  0  0
   -1.2337    7.7289  -10.1060 H   0  0  0  0  0  0  0  0  0  0  0  0
   -0.5882    6.2219  -10.7151 H   0  0  0  0  0  0  0  0  0  0  0  0
   -2.7062    5.8341  -12.0180 H   0  0  0  0  0  0  0  0  0  0  0  0
   -3.3631    7.3431  -11.3908 H   0  0  0  0  0  0  0  0  0  0  0  0
   -1.9660    7.3693  -12.4622 H   0  0  0  0  0  0  0  0  0  0  0  0
  3  2  2  0
  2  4  1  6
  4  5  1  0
  5  6  1  0
  6  7  1  0
  6  8  2  0
  5  9  1  0
  9 10  1  0
 10 11  1  0
 11 12  2  0
 11 13  1  0
  2 14  1  0
 14 15  2  0
 15 16  1  0
 16 17  2  0
 17 18  1  0
 18 19  2  0
 19 20  1  0
 20 21  2  0
 17 22  1  0
 21 22  1  0
 14 23  1  0
 22 23  2  0
 19 24  1  0
 24 25  1  0
  2  1  2  0
 25 26  1  0
 26 27  1  0
 27 28  1  0
 28 29  1  0
  4 30  1  0
  9 32  1  0
  9 33  1  0
  7 34  1  0
 10 35  1  0
 10 36  1  0
 13 37  1  0
 15 38  1  0
 23 39  1  0
 16 40  1  0
 18 41  1  0
 20 42  1  0
 21 43  1  0
 25 44  1  0
 25 45  1  0
 26 46  1  0
 26 47  1  0
 27 48  1  0
 27 49  1  0
 28 50  1  0
 28 51  1  0
 29 52  1  0
 29 53  1  0
 29 54  1  0
  5 31  1  6
M  END
