
     RDKit          3D

 22 23  0  0  0  0  0  0  0  0999 V2000
    0.3737    1.1966   -0.0943 C   0  0  0  0  0  0  0  0  0  0  0  0
   -0.1340   -0.0945   -0.2031 C   0  0  0  0  0  0  0  0  0  0  0  0
   -1.5834   -0.2499   -0.2316 C   0  0  0  0  0  0  0  0  0  0  0  0
   -2.5691    0.4588    0.3777 C   0  0  0  0  0  0  0  0  0  0  0  0
   -3.7396   -0.1715   -0.0882 C   0  0  0  0  0  0  0  0  0  0  0  0
    0.7333   -1.1981   -0.2409 C   0  0  0  0  0  0  0  0  0  0  0  0
    2.1085   -0.9503   -0.1784 C   0  0  0  0  0  0  0  0  0  0  0  0
   -6.0133   -0.7060   -0.2226 F   0  0  0  0  0  0  0  0  0  0  0  0
   -5.1480    0.1861    0.2475 C   0  0  1  0  0  0  0  0  0  0  0  0
   -5.3089    0.2656    1.5703 F   0  0  0  0  0  0  0  0  0  0  0  0
   -5.4675    1.3787   -0.2617 F   0  0  0  0  0  0  0  0  0  0  0  0
   -3.4792   -1.1578   -0.8924 N   0  0  0  0  0  0  0  0  0  0  0  0
   -2.1366   -1.2068   -0.9860 O   0  0  0  0  0  0  0  0  0  0  0  0
    1.7383    1.4043   -0.0250 C   0  0  0  0  0  0  0  0  0  0  0  0
    2.4142    3.1551    0.1174 Br  0  0  0  0  0  0  0  0  0  0  0  0
    2.6163    0.3337   -0.0705 C   0  0  0  0  0  0  0  0  0  0  0  0
    3.3121   -2.3982   -0.2314 Br  0  0  0  0  0  0  0  0  0  0  0  0
    0.1883   -2.4086   -0.3161 O   0  0  0  0  0  0  0  0  0  0  0  0
   -0.3134    2.0319   -0.0791 H   0  0  0  0  0  0  0  0  0  0  0  0
   -2.4770    1.2828    1.0648 H   0  0  0  0  0  0  0  0  0  0  0  0
    3.6855    0.4900   -0.0243 H   0  0  0  0  0  0  0  0  0  0  0  0
    0.8423   -3.1189   -0.2777 H   0  0  0  0  0  0  0  0  0  0  0  0
  9 10  1  1
 12 13  1  0
 12  5  2  0
  9 11  1  0
  9  5  1  0
  9  8  1  0
 13  3  1  0
  5  4  1  0
  3  4  2  0
  3  2  1  0
  1  2  2  0
  1 14  1  0
 15 14  1  0
  2  6  1  0
 14 16  2  0
  6 18  1  0
  6  7  2  0
 16  7  1  0
  7 17  1  0
  1 19  1  0
  4 20  1  0
 16 21  1  0
 18 22  1  0
M  END
