
     RDKit          3D

 23 23  0  0  0  0  0  0  0  0999 V2000
   -0.9954   -0.3355   -1.3639 C   0  0  1  0  0  0  0  0  0  0  0  0
   -1.4367   -0.1892   -2.6445 O   0  0  0  0  0  0  0  0  0  0  0  0
    0.5203   -0.3355   -1.3639 C   0  0  0  0  0  0  0  0  0  0  0  0
    1.0750   -0.3355    0.0046 C   0  0  1  0  0  0  0  0  0  0  0  0
    2.5740   -0.1683   -0.0775 N   0  0  0  0  0  0  0  0  0  0  0  0
    0.5094    0.7746    0.8414 C   0  0  1  0  0  0  0  0  0  0  0  0
    0.9735    2.0250    0.3248 O   0  0  0  0  0  0  0  0  0  0  0  0
   -1.0145    0.7753    0.8369 C   0  0  1  0  0  0  0  0  0  0  0  0
   -1.5620    0.7769   -0.5225 O   0  0  0  0  0  0  0  0  0  0  0  0
   -1.5045   -0.4519    1.5581 C   0  0  0  0  0  0  0  0  0  0  0  0
   -1.3451   -1.2831   -0.9725 H   0  0  0  0  0  0  0  0  0  0  0  0
   -2.1422   -0.7938   -2.8049 H   0  0  0  0  0  0  0  0  0  0  0  0
    0.8707    0.5479   -1.8840 H   0  0  0  0  0  0  0  0  0  0  0  0
    0.8707   -1.2187   -1.8841 H   0  0  0  0  0  0  0  0  0  0  0  0
    0.8457   -1.2832    0.4767 H   0  0  0  0  0  0  0  0  0  0  0  0
    2.9841   -0.3959    0.8066 H   0  0  0  0  0  0  0  0  0  0  0  0
    2.9397   -0.7781   -0.7818 H   0  0  0  0  0  0  0  0  0  0  0  0
    0.8572    0.6577    1.8607 H   0  0  0  0  0  0  0  0  0  0  0  0
    1.2124    2.5913    1.0398 H   0  0  0  0  0  0  0  0  0  0  0  0
   -1.3656    1.6585    1.3567 H   0  0  0  0  0  0  0  0  0  0  0  0
   -2.5854   -0.4234    1.6257 H   0  0  0  0  0  0  0  0  0  0  0  0
   -1.2001   -1.3370    1.0128 H   0  0  0  0  0  0  0  0  0  0  0  0
   -1.0810   -0.4782    2.5548 H   0  0  0  0  0  0  0  0  0  0  0  0
  1  2  1  0
  1  3  1  0
  1  9  1  0
  1 11  1  1
  2 12  1  0
  3  4  1  0
  3 13  1  0
  3 14  1  0
  4  5  1  0
  4  6  1  0
  4 15  1  1
  5 16  1  0
  5 17  1  0
  6  7  1  0
  6  8  1  0
  6 18  1  1
  7 19  1  0
  8  9  1  0
  8 10  1  0
  8 20  1  1
 10 21  1  0
 10 22  1  0
 10 23  1  0
M  END
