
     RDKit          3D

 37 39  0  0  0  0  0  0  0  0999 V2000
   -0.9095   -2.2422   -0.1565 O   0  0  0  0  0  0  0  0  0  0  0  0
   -1.0613   -1.0874    0.2152 C   0  0  0  0  0  0  0  0  0  0  0  0
   -2.2426   -0.5418    0.5476 N   0  0  0  0  0  0  0  0  0  0  0  0
   -3.4703   -1.3128    0.5624 C   0  0  0  0  0  0  0  0  0  0  0  0
   -4.6576   -0.3917    0.4769 C   0  0  0  0  0  0  0  0  0  0  0  0
   -4.8970    0.3112   -0.7013 C   0  0  0  0  0  0  0  0  0  0  0  0
   -5.9823    1.1743   -0.7979 C   0  0  0  0  0  0  0  0  0  0  0  0
   -6.2550    1.8733   -1.9174 O   0  0  0  0  0  0  0  0  0  0  0  0
   -6.8371    1.3366    0.2931 C   0  0  0  0  0  0  0  0  0  0  0  0
   -6.5932    0.6363    1.4611 C   0  0  0  0  0  0  0  0  0  0  0  0
   -5.5072   -0.2274    1.5622 C   0  0  0  0  0  0  0  0  0  0  0  0
    0.0134   -0.2289    0.3084 N   0  0  0  0  0  0  0  0  0  0  0  0
    1.3002   -0.5901    0.0281 C   0  0  0  0  0  0  0  0  0  0  0  0
    2.2764    0.2510    0.1239 N   0  0  0  0  0  0  0  0  0  0  0  0
    3.4716   -0.3402   -0.1949 C   0  0  0  0  0  0  0  0  0  0  0  0
    4.6971    0.4611   -0.1518 C   0  0  0  0  0  0  0  0  0  0  0  0
    5.9578   -0.1025   -0.3475 C   0  0  0  0  0  0  0  0  0  0  0  0
    7.0754    0.7117   -0.3035 C   0  0  0  0  0  0  0  0  0  0  0  0
    7.0286    2.0217   -0.0805 N   0  0  0  0  0  0  0  0  0  0  0  0
    5.8289    2.5572    0.1106 C   0  0  0  0  0  0  0  0  0  0  0  0
    4.6475    1.8332    0.0874 C   0  0  0  0  0  0  0  0  0  0  0  0
    3.3856   -1.6525   -0.5382 C   0  0  0  0  0  0  0  0  0  0  0  0
    1.7536   -2.1904   -0.4691 S   0  0  0  0  0  0  0  0  0  0  0  0
   -2.2657    0.3753    0.9658 H   0  0  0  0  0  0  0  0  0  0  0  0
   -3.4650   -1.9917   -0.2910 H   0  0  0  0  0  0  0  0  0  0  0  0
   -3.5379   -1.9284    1.4636 H   0  0  0  0  0  0  0  0  0  0  0  0
   -4.2310    0.1809   -1.5487 H   0  0  0  0  0  0  0  0  0  0  0  0
   -5.6033    1.6824   -2.6014 H   0  0  0  0  0  0  0  0  0  0  0  0
   -7.6837    2.0076    0.2177 H   0  0  0  0  0  0  0  0  0  0  0  0
   -7.2575    0.7664    2.3057 H   0  0  0  0  0  0  0  0  0  0  0  0
   -5.3250   -0.7685    2.4822 H   0  0  0  0  0  0  0  0  0  0  0  0
   -0.1176    0.7365    0.5766 H   0  0  0  0  0  0  0  0  0  0  0  0
    6.0846   -1.1619   -0.5262 H   0  0  0  0  0  0  0  0  0  0  0  0
    8.0589    0.2804   -0.4540 H   0  0  0  0  0  0  0  0  0  0  0  0
    5.7983    3.6259    0.2923 H   0  0  0  0  0  0  0  0  0  0  0  0
    3.7044    2.3350    0.2515 H   0  0  0  0  0  0  0  0  0  0  0  0
    4.1730   -2.3271   -0.8353 H   0  0  0  0  0  0  0  0  0  0  0  0
  8  7  1  0
  9  7  1  0
  9 10  2  0
  7  6  2  0
 10 11  1  0
  6  5  1  0
 11  5  2  0
  5  4  1  0
  4  3  1  0
  3  2  1  0
  2  1  2  0
  2 12  1  0
 12 13  1  0
 13 14  2  0
 13 23  1  0
 14 15  1  0
 23 22  1  0
 15 22  2  0
 15 16  1  0
 17 16  2  0
 17 18  1  0
 16 21  1  0
 18 19  2  0
 21 20  2  0
 19 20  1  0
  3 24  1  0
  4 25  1  0
  4 26  1  0
  6 27  1  0
  8 28  1  0
  9 29  1  0
 10 30  1  0
 11 31  1  0
 12 32  1  0
 17 33  1  0
 18 34  1  0
 20 35  1  0
 21 36  1  0
 22 37  1  0
M  END
