
     RDKit          3D

 62 65  0  0  0  0  0  0  0  0999 V2000
    2.1810   -8.4966   -0.6665 C   0  0  0  0  0  0  0  0  0  0  0  0
    1.0055   -7.5317   -0.6343 C   0  0  0  0  0  0  0  0  0  0  0  0
    1.4047   -6.1732   -0.0815 C   0  0  0  0  0  0  0  0  0  0  0  0
    0.2609   -5.2855   -0.0515 N   0  0  0  0  0  0  0  0  0  0  0  0
    0.3247   -4.0545    0.4758 C   0  0  0  0  0  0  0  0  0  0  0  0
    1.3272   -3.5542    0.9490 O   0  0  0  0  0  0  0  0  0  0  0  0
   -0.8622   -3.4393    0.4157 O   0  0  0  0  0  0  0  0  0  0  0  0
   -0.9472   -2.1308    0.9680 C   0  0  0  0  0  0  0  0  0  0  0  0
   -2.3727   -1.6415    0.8275 C   0  0  1  0  0  0  0  0  0  0  0  0
   -2.5347   -0.2575    1.4962 C   0  0  0  0  0  0  0  0  0  0  0  0
   -3.4645    0.5776    0.6180 C   0  0  2  0  0  0  0  0  0  0  0  0
   -4.7193   -0.2386    0.3014 C   0  0  0  0  0  0  0  0  0  0  0  0
   -4.2883   -1.4550   -0.5523 C   0  0  0  0  0  0  0  0  0  0  0  0
   -2.8352   -1.5995   -0.5603 N   0  0  0  0  0  0  0  0  0  0  0  0
   -2.2543   -0.4741   -1.2769 C   0  0  0  0  0  0  0  0  0  0  0  0
   -2.7621    0.8829   -0.7224 C   0  0  2  0  0  0  0  0  0  0  0  0
   -1.6894    1.9121   -0.5969 C   0  0  0  0  0  0  0  0  0  0  0  0
   -0.3175    1.8006   -0.5026 C   0  0  0  0  0  0  0  0  0  0  0  0
   -1.9549    3.2361   -0.5088 N   0  0  0  0  0  0  0  0  0  0  0  0
   -3.2399    3.8924   -0.4909 C   0  0  0  0  0  0  0  0  0  0  0  0
   -0.8576    3.9723   -0.3569 N   0  0  0  0  0  0  0  0  0  0  0  0
    0.1538    3.1197   -0.3531 C   0  0  0  0  0  0  0  0  0  0  0  0
    1.5349    3.5846   -0.2145 C   0  0  0  0  0  0  0  0  0  0  0  0
    1.8399    4.9495   -0.1731 C   0  0  0  0  0  0  0  0  0  0  0  0
    3.1406    5.3899   -0.0400 C   0  0  0  0  0  0  0  0  0  0  0  0
    4.1921    4.4744    0.0569 C   0  0  0  0  0  0  0  0  0  0  0  0
    5.4276    4.9934    0.1835 O   0  0  0  0  0  0  0  0  0  0  0  0
    6.5249    4.1081    0.2858 C   0  0  0  0  0  0  0  0  0  0  0  0
    3.9066    3.1125    0.0175 C   0  0  0  0  0  0  0  0  0  0  0  0
    2.5914    2.6857   -0.1161 C   0  0  0  0  0  0  0  0  0  0  0  0
    2.9953   -8.1123   -1.2830 H   0  0  0  0  0  0  0  0  0  0  0  0
    2.5780   -8.6719    0.3345 H   0  0  0  0  0  0  0  0  0  0  0  0
    1.8835   -9.4608   -1.0777 H   0  0  0  0  0  0  0  0  0  0  0  0
    0.6009   -7.4087   -1.6429 H   0  0  0  0  0  0  0  0  0  0  0  0
    0.2012   -7.9495   -0.0224 H   0  0  0  0  0  0  0  0  0  0  0  0
    1.8123   -6.2928    0.9264 H   0  0  0  0  0  0  0  0  0  0  0  0
    2.2012   -5.7458   -0.6981 H   0  0  0  0  0  0  0  0  0  0  0  0
   -0.6204   -5.6190   -0.4079 H   0  0  0  0  0  0  0  0  0  0  0  0
   -0.6894   -2.1436    2.0309 H   0  0  0  0  0  0  0  0  0  0  0  0
   -0.2407   -1.4574    0.4734 H   0  0  0  0  0  0  0  0  0  0  0  0
   -3.0179   -2.3622    1.3408 H   0  0  0  0  0  0  0  0  0  0  0  0
   -2.9494   -0.3623    2.5004 H   0  0  0  0  0  0  0  0  0  0  0  0
   -1.5692    0.2469    1.6106 H   0  0  0  0  0  0  0  0  0  0  0  0
   -3.7373    1.5031    1.1290 H   0  0  0  0  0  0  0  0  0  0  0  0
   -5.1934   -0.5596    1.2327 H   0  0  0  0  0  0  0  0  0  0  0  0
   -5.4485    0.3759   -0.2316 H   0  0  0  0  0  0  0  0  0  0  0  0
   -4.7344   -2.3774   -0.1738 H   0  0  0  0  0  0  0  0  0  0  0  0
   -4.6210   -1.3457   -1.5870 H   0  0  0  0  0  0  0  0  0  0  0  0
   -1.1676   -0.5453   -1.2271 H   0  0  0  0  0  0  0  0  0  0  0  0
   -2.5123   -0.5637   -2.3337 H   0  0  0  0  0  0  0  0  0  0  0  0
   -3.5232    1.2700   -1.4087 H   0  0  0  0  0  0  0  0  0  0  0  0
    0.2680    0.8972   -0.5543 H   0  0  0  0  0  0  0  0  0  0  0  0
   -3.5829    4.0616    0.5298 H   0  0  0  0  0  0  0  0  0  0  0  0
   -3.1556    4.8495   -0.9987 H   0  0  0  0  0  0  0  0  0  0  0  0
   -3.9780    3.2889   -1.0114 H   0  0  0  0  0  0  0  0  0  0  0  0
    1.0445    5.6793   -0.2470 H   0  0  0  0  0  0  0  0  0  0  0  0
    3.3536    6.4516   -0.0122 H   0  0  0  0  0  0  0  0  0  0  0  0
    6.4564    3.4726    1.1727 H   0  0  0  0  0  0  0  0  0  0  0  0
    6.6212    3.4720   -0.5978 H   0  0  0  0  0  0  0  0  0  0  0  0
    7.4151    4.7267    0.3682 H   0  0  0  0  0  0  0  0  0  0  0  0
    4.6869    2.3676    0.0894 H   0  0  0  0  0  0  0  0  0  0  0  0
    2.4033    1.6196   -0.1380 H   0  0  0  0  0  0  0  0  0  0  0  0
  1  2  1  0
  2  3  1  0
  3  4  1  0
  4  5  1  0
  5  6  2  0
  5  7  1  0
  8  7  1  0
  8  9  1  0
  9 14  1  0
  9 10  1  0
 14 13  1  0
 14 15  1  0
 13 12  1  0
 10 11  1  0
 12 11  1  0
 15 16  1  0
 11 16  1  0
 16 17  1  0
 17 19  1  0
 17 18  2  0
 20 19  1  0
 19 21  1  0
 18 22  1  0
 21 22  2  0
 22 23  1  0
 23 24  2  0
 23 30  1  0
 24 25  1  0
 30 29  2  0
 25 26  2  0
 29 26  1  0
 26 27  1  0
 27 28  1  0
  1 31  1  0
  1 32  1  0
  1 33  1  0
  2 34  1  0
  2 35  1  0
  3 36  1  0
  3 37  1  0
  4 38  1  0
  8 39  1  0
  8 40  1  0
  9 41  1  1
 10 42  1  0
 10 43  1  0
 11 44  1  1
 12 45  1  0
 12 46  1  0
 13 47  1  0
 13 48  1  0
 15 49  1  0
 15 50  1  0
 16 51  1  6
 18 52  1  0
 20 53  1  0
 20 54  1  0
 20 55  1  0
 24 56  1  0
 25 57  1  0
 28 58  1  0
 28 59  1  0
 28 60  1  0
 29 61  1  0
 30 62  1  0
M  END
