
     RDKit          3D

 58 62  0  0  0  0  0  0  0  0999 V2000
   -0.1296    0.9103    1.7944 C   0  0  0  0  0  0  0  0  0  0  0  0
   -0.8143   -0.3152    1.4676 N   0  0  0  0  0  0  0  0  0  0  0  0
   -0.8720   -0.8107    0.1991 C   0  0  0  0  0  0  0  0  0  0  0  0
   -1.8043   -1.8012   -0.1685 C   0  0  0  0  0  0  0  0  0  0  0  0
   -1.8369   -2.2986   -1.4509 C   0  0  0  0  0  0  0  0  0  0  0  0
   -0.9541   -1.8333   -2.4268 C   0  0  0  0  0  0  0  0  0  0  0  0
   -0.0162   -0.8479   -2.0861 C   0  0  0  0  0  0  0  0  0  0  0  0
    0.0165   -0.3560   -0.7972 C   0  0  0  0  0  0  0  0  0  0  0  0
    0.9659   -0.3558   -3.0814 C   0  0  0  0  0  0  0  0  0  0  0  0
    0.5660    0.5360   -4.1160 C   0  0  0  0  0  0  0  0  0  0  0  0
    1.5374    0.9723   -5.0564 C   0  0  0  0  0  0  0  0  0  0  0  0
    2.8721    0.5194   -4.9397 C   0  0  0  0  0  0  0  0  0  0  0  0
    3.2334   -0.3248   -3.9279 C   0  0  0  0  0  0  0  0  0  0  0  0
    2.2732   -0.7612   -2.9936 C   0  0  0  0  0  0  0  0  0  0  0  0
   -0.9959   -2.3720   -3.7404 C   0  0  0  0  0  0  0  0  0  0  0  0
    1.1506    1.8598   -6.0881 C   0  0  0  0  0  0  0  0  0  0  0  0
   -1.0397   -2.8209   -4.8027 N   0  0  0  0  0  0  0  0  0  0  0  0
   -0.7585    1.0214   -4.2359 C   0  0  0  0  0  0  0  0  0  0  0  0
   -0.1392    2.3038   -6.1832 C   0  0  0  0  0  0  0  0  0  0  0  0
   -1.1015    1.8820   -5.2430 C   0  0  0  0  0  0  0  0  0  0  0  0
   -4.8683    0.6365    2.9128 N   0  0  0  0  0  0  0  0  0  0  0  0
   -3.9503   -0.0652    2.1914 C   0  0  0  0  0  0  0  0  0  0  0  0
   -2.8039   -0.2516    2.9182 C   0  0  0  0  0  0  0  0  0  0  0  0
   -3.0444    0.3649    4.1209 N   0  0  0  0  0  0  0  0  0  0  0  0
   -4.2915    0.8751    4.0630 C   0  0  0  0  0  0  0  0  0  0  0  0
   -2.1441    0.4719    5.2477 C   0  0  0  0  0  0  0  0  0  0  0  0
    1.9853   -0.4256    2.2190 C   0  0  0  0  0  0  0  0  0  0  0  0
    1.2131    0.7075    2.4567 C   0  0  0  0  0  0  0  0  0  0  0  0
    1.7032    1.6866    3.3099 C   0  0  0  0  0  0  0  0  0  0  0  0
    2.9546    1.5341    3.9030 C   0  0  0  0  0  0  0  0  0  0  0  0
    3.7283    0.4005    3.6575 C   0  0  0  0  0  0  0  0  0  0  0  0
    3.2314   -0.5767    2.8133 C   0  0  0  0  0  0  0  0  0  0  0  0
    3.4455    2.5495    4.7787 C   0  0  0  0  0  0  0  0  0  0  0  0
    3.8435    3.3689    5.4841 N   0  0  0  0  0  0  0  0  0  0  0  0
   -1.5154   -0.9316    2.5774 C   0  0  0  0  0  0  0  0  0  0  0  0
   -0.0137    1.5280    0.9029 H   0  0  0  0  0  0  0  0  0  0  0  0
   -0.7735    1.5002    2.4539 H   0  0  0  0  0  0  0  0  0  0  0  0
   -2.5241   -2.1859    0.5393 H   0  0  0  0  0  0  0  0  0  0  0  0
   -2.5663   -3.0572   -1.7017 H   0  0  0  0  0  0  0  0  0  0  0  0
    0.7699    0.3855   -0.5688 H   0  0  0  0  0  0  0  0  0  0  0  0
    3.6050    0.8557   -5.6631 H   0  0  0  0  0  0  0  0  0  0  0  0
    4.2557   -0.6675   -3.8391 H   0  0  0  0  0  0  0  0  0  0  0  0
    2.5711   -1.4352   -2.2002 H   0  0  0  0  0  0  0  0  0  0  0  0
    1.8972    2.1856   -6.8021 H   0  0  0  0  0  0  0  0  0  0  0  0
   -1.5089    0.7148   -3.5185 H   0  0  0  0  0  0  0  0  0  0  0  0
   -0.4241    2.9822   -6.9767 H   0  0  0  0  0  0  0  0  0  0  0  0
   -2.1181    2.2452   -5.3180 H   0  0  0  0  0  0  0  0  0  0  0  0
   -4.7262    1.4123    4.8930 H   0  0  0  0  0  0  0  0  0  0  0  0
   -1.8707   -0.5105    5.6273 H   0  0  0  0  0  0  0  0  0  0  0  0
   -1.2395    1.0134    4.9748 H   0  0  0  0  0  0  0  0  0  0  0  0
   -2.6409    1.0229    6.0411 H   0  0  0  0  0  0  0  0  0  0  0  0
    1.6149   -1.2092    1.5702 H   0  0  0  0  0  0  0  0  0  0  0  0
    1.1141    2.5715    3.5190 H   0  0  0  0  0  0  0  0  0  0  0  0
    4.6972    0.2869    4.1238 H   0  0  0  0  0  0  0  0  0  0  0  0
    3.8175   -1.4639    2.6165 H   0  0  0  0  0  0  0  0  0  0  0  0
   -0.8446   -0.9237    3.4403 H   0  0  0  0  0  0  0  0  0  0  0  0
   -1.6762   -1.9879    2.3670 H   0  0  0  0  0  0  0  0  0  0  0  0
   -4.1558   -0.3969    1.1846 H   0  0  0  0  0  0  0  0  0  0  0  0
  1  2  1  0
  1 28  1  0
  1 36  1  0
  1 37  1  0
  2  3  1  0
  2 35  1  0
  3  4  2  0
  3  8  1  0
  4  5  1  0
  4 38  1  0
  5  6  2  0
  5 39  1  0
  6  7  1  0
  6 15  1  0
  7  8  2  0
  7  9  1  0
  8 40  1  0
  9 10  2  0
  9 14  1  0
 10 11  1  0
 10 18  1  0
 11 12  2  0
 11 16  1  0
 12 13  1  0
 12 41  1  0
 13 14  2  0
 13 42  1  0
 14 43  1  0
 15 17  3  0
 16 19  2  0
 16 44  1  0
 18 20  2  0
 18 45  1  0
 19 20  1  0
 19 46  1  0
 20 47  1  0
 21 22  1  0
 21 25  2  0
 22 23  2  0
 22 58  1  0
 23 24  1  0
 23 35  1  0
 24 25  1  0
 24 26  1  0
 25 48  1  0
 26 49  1  0
 26 50  1  0
 26 51  1  0
 27 28  2  0
 27 32  1  0
 27 52  1  0
 28 29  1  0
 29 30  2  0
 29 53  1  0
 30 31  1  0
 30 33  1  0
 31 32  2  0
 31 54  1  0
 32 55  1  0
 33 34  3  0
 35 56  1  0
 35 57  1  0
M  END
