
     RDKit          3D

 44 47  0  0  0  0  0  0  0  0999 V2000
    6.8167    9.2534    3.1806 N   0  0  0  0  0  0  0  0  0  0  0  0
    7.4763    8.9088    1.9378 C   0  0  0  0  0  0  0  0  0  0  0  0
    8.6395    7.9488    2.1700 C   0  0  0  0  0  0  0  0  0  0  0  0
    9.6476    8.4200    3.2204 C   0  0  2  0  0  0  0  0  0  0  0  0
   10.6487    7.2791    3.5293 C   0  0  0  0  0  0  0  0  0  0  0  0
   11.4999    6.8322    2.4479 N   0  0  0  0  0  0  0  0  0  0  0  0
    8.8281    8.7011    4.4861 C   0  0  0  0  0  0  0  0  0  0  0  0
    7.7088    9.6979    4.2405 C   0  0  0  0  0  0  0  0  0  0  0  0
   10.4464    9.6414    2.7830 C   0  0  0  0  0  0  0  0  0  0  0  0
   11.1637   10.3880    3.7212 C   0  0  0  0  0  0  0  0  0  0  0  0
   11.9580   11.4619    3.3536 C   0  0  0  0  0  0  0  0  0  0  0  0
   12.0522   11.8067    2.0146 C   0  0  0  0  0  0  0  0  0  0  0  0
   13.0401   13.1518    1.5424 Cl  0  0  0  0  0  0  0  0  0  0  0  0
   11.3686   11.0850    1.0538 C   0  0  0  0  0  0  0  0  0  0  0  0
   10.5796   10.0109    1.4457 C   0  0  0  0  0  0  0  0  0  0  0  0
    5.4750    9.3656    3.3034 C   0  0  0  0  0  0  0  0  0  0  0  0
    4.9911    9.5354    4.5407 N   0  0  0  0  0  0  0  0  0  0  0  0
    3.6819    9.6026    4.7412 C   0  0  0  0  0  0  0  0  0  0  0  0
    2.7210    9.5300    3.8453 N   0  0  0  0  0  0  0  0  0  0  0  0
    3.1974    9.3995    2.6048 C   0  0  0  0  0  0  0  0  0  0  0  0
    2.4411    9.3662    1.4851 N   0  0  0  0  0  0  0  0  0  0  0  0
    3.2557    9.2882    0.3880 C   0  0  0  0  0  0  0  0  0  0  0  0
    4.5567    9.2587    0.7896 C   0  0  0  0  0  0  0  0  0  0  0  0
    4.5509    9.3176    2.2245 C   0  0  0  0  0  0  0  0  0  0  0  0
    6.7762    8.4007    1.2844 H   0  0  0  0  0  0  0  0  0  0  0  0
    7.8134    9.8144    1.4200 H   0  0  0  0  0  0  0  0  0  0  0  0
    8.1313   10.6722    3.9632 H   0  0  0  0  0  0  0  0  0  0  0  0
    7.1308    9.8407    5.1475 H   0  0  0  0  0  0  0  0  0  0  0  0
    8.2290    6.9927    2.5096 H   0  0  0  0  0  0  0  0  0  0  0  0
    9.1082    7.7444    1.2051 H   0  0  0  0  0  0  0  0  0  0  0  0
   11.2824    7.5943    4.3643 H   0  0  0  0  0  0  0  0  0  0  0  0
   10.0764    6.4199    3.8919 H   0  0  0  0  0  0  0  0  0  0  0  0
    8.3976    7.7577    4.8360 H   0  0  0  0  0  0  0  0  0  0  0  0
    9.4500    9.0737    5.3019 H   0  0  0  0  0  0  0  0  0  0  0  0
   10.9499    6.4084    1.7122 H   0  0  0  0  0  0  0  0  0  0  0  0
   11.9842    7.6163    2.0277 H   0  0  0  0  0  0  0  0  0  0  0  0
   11.1210   10.1368    4.7728 H   0  0  0  0  0  0  0  0  0  0  0  0
   10.0617    9.4677    0.6679 H   0  0  0  0  0  0  0  0  0  0  0  0
   12.4994   12.0191    4.1061 H   0  0  0  0  0  0  0  0  0  0  0  0
   11.4442   11.3473    0.0071 H   0  0  0  0  0  0  0  0  0  0  0  0
    3.3728    9.7296    5.7741 H   0  0  0  0  0  0  0  0  0  0  0  0
    1.4353    9.4147    1.4673 H   0  0  0  0  0  0  0  0  0  0  0  0
    2.8419    9.2636   -0.6065 H   0  0  0  0  0  0  0  0  0  0  0  0
    5.3946    9.2175    0.1158 H   0  0  0  0  0  0  0  0  0  0  0  0
  1  2  1  0
  1  8  1  0
  1 16  1  0
  2  3  1  0
  3  4  1  0
  4  5  1  1
  4  7  1  0
  4  9  1  0
  5  6  1  0
  7  8  1  0
  9 10  2  0
  9 15  1  0
 10 11  1  0
 11 12  2  0
 12 13  1  0
 12 14  1  0
 14 15  2  0
 16 17  2  0
 16 24  1  0
 17 18  1  0
 18 19  2  0
 19 20  1  0
 20 21  1  0
 20 24  2  0
 21 22  1  0
 22 23  2  0
 23 24  1  0
  2 25  1  0
  2 26  1  0
  8 27  1  0
  8 28  1  0
  3 29  1  0
  3 30  1  0
  5 31  1  0
  5 32  1  0
  7 33  1  0
  7 34  1  0
  6 35  1  0
  6 36  1  0
 10 37  1  0
 15 38  1  0
 11 39  1  0
 14 40  1  0
 18 41  1  0
 21 42  1  0
 22 43  1  0
 23 44  1  0
M  END
