
     RDKit          3D

 32 33  0  0  0  0  0  0  0  0999 V2000
    0.8423    0.1481    0.1130 C   0  0  0  0  0  0  0  0  0  0  0  0
   -1.5957    0.1221    0.1059 C   0  0  0  0  0  0  0  0  0  0  0  0
   -2.9998    0.4533    0.0288 C   0  0  0  0  0  0  0  0  0  0  0  0
   -3.6531    1.6441    0.2856 C   0  0  0  0  0  0  0  0  0  0  0  0
   -5.0302    1.4243    0.0575 C   0  0  0  0  0  0  0  0  0  0  0  0
   -5.1729    0.1125   -0.3321 C   0  0  0  0  0  0  0  0  0  0  0  0
   -3.9440   -0.4582   -0.3449 N   0  0  0  0  0  0  0  0  0  0  0  0
   -0.9732   -1.0611    0.3828 C   0  0  0  0  0  0  0  0  0  0  0  0
    3.2597   -0.2949    0.0133 C   0  0  0  0  0  0  0  0  0  0  0  0
   -1.6732   -2.3431    0.7032 C   0  0  0  0  0  0  0  0  0  0  0  0
    3.1770   -1.5084    0.0093 O   0  0  0  0  0  0  0  0  0  0  0  0
    4.4271    0.3751   -0.0212 N   0  0  0  0  0  0  0  0  0  0  0  0
    5.6998   -0.3125   -0.1215 C   0  0  0  0  0  0  0  0  0  0  0  0
    6.8367    0.6913   -0.0952 C   0  0  0  0  0  0  0  0  0  0  0  0
    2.1514    0.5459    0.0570 N   0  0  0  0  0  0  0  0  0  0  0  0
   -0.3943    1.3351   -0.1962 S   0  0  0  0  0  0  0  0  0  0  0  0
    0.3961   -1.0308    0.3816 N   0  0  0  0  0  0  0  0  0  0  0  0
   -2.2808   -2.8519   -0.4754 O   0  0  0  0  0  0  0  0  0  0  0  0
   -3.1893    2.5594    0.6206 H   0  0  0  0  0  0  0  0  0  0  0  0
   -5.8271    2.1417    0.1711 H   0  0  0  0  0  0  0  0  0  0  0  0
   -6.0513   -0.4502   -0.6014 H   0  0  0  0  0  0  0  0  0  0  0  0
   -3.7252   -1.4058   -0.6291 H   0  0  0  0  0  0  0  0  0  0  0  0
   -0.9387   -3.0465    1.1057 H   0  0  0  0  0  0  0  0  0  0  0  0
   -2.4217   -2.1692    1.4850 H   0  0  0  0  0  0  0  0  0  0  0  0
    4.4347    1.3813   -0.0606 H   0  0  0  0  0  0  0  0  0  0  0  0
    5.8054   -1.0150    0.7077 H   0  0  0  0  0  0  0  0  0  0  0  0
    5.7424   -0.8988   -1.0431 H   0  0  0  0  0  0  0  0  0  0  0  0
    7.7914    0.1722   -0.1619 H   0  0  0  0  0  0  0  0  0  0  0  0
    6.7747    1.3847   -0.9348 H   0  0  0  0  0  0  0  0  0  0  0  0
    6.8346    1.2697    0.8295 H   0  0  0  0  0  0  0  0  0  0  0  0
    2.3135    1.5393   -0.0139 H   0  0  0  0  0  0  0  0  0  0  0  0
   -2.7285   -3.6737   -0.2460 H   0  0  0  0  0  0  0  0  0  0  0  0
 18 10  1  0
 10  8  1  0
 17  8  1  0
 17  1  2  0
  8  2  2  0
 15  1  1  0
 15  9  1  0
  1 16  1  0
 12  9  1  0
 12 13  1  0
  9 11  2  0
  2 16  1  0
  2  3  1  0
  7  3  1  0
  7  6  1  0
 14 13  1  0
  3  4  2  0
  6  5  2  0
  4  5  1  0
  4 19  1  0
  5 20  1  0
  6 21  1  0
  7 22  1  0
 10 23  1  0
 10 24  1  0
 12 25  1  0
 13 26  1  0
 13 27  1  0
 14 28  1  0
 14 29  1  0
 14 30  1  0
 15 31  1  0
 18 32  1  0
M  END
