
     RDKit          3D

 22 23  0  0  0  0  0  0  0  0999 V2000
   -2.7843   -0.9645   -0.0164 F   0  0  0  0  0  0  0  0  0  0  0  0
   -1.9645    0.0846    0.0425 C   0  0  1  0  0  0  0  0  0  0  0  0
   -2.2733    0.8861   -0.9838 F   0  0  0  0  0  0  0  0  0  0  0  0
   -2.2576    0.7529    1.1652 F   0  0  0  0  0  0  0  0  0  0  0  0
   -0.5130   -0.2976    0.0113 C   0  0  0  0  0  0  0  0  0  0  0  0
    0.4612    0.7271   -0.0215 C   0  0  0  0  0  0  0  0  0  0  0  0
    1.7676    0.3479   -0.0416 C   0  0  0  0  0  0  0  0  0  0  0  0
    2.1342   -0.9479   -0.0246 N   0  0  0  0  0  0  0  0  0  0  0  0
    1.2451   -2.0055    0.0176 C   0  0  0  0  0  0  0  0  0  0  0  0
   -0.1426   -1.6080    0.0363 C   0  0  0  0  0  0  0  0  0  0  0  0
    1.6455   -3.1646    0.0385 O   0  0  0  0  0  0  0  0  0  0  0  0
    2.7055    1.5054   -0.1255 C   0  0  0  0  0  0  0  0  0  0  0  0
    1.7849    2.6856    0.2277 C   0  0  0  0  0  0  0  0  0  0  0  0
    0.3530    2.2266   -0.1088 C   0  0  0  0  0  0  0  0  0  0  0  0
    3.1200   -1.1805   -0.0379 H   0  0  0  0  0  0  0  0  0  0  0  0
   -0.8681   -2.4078    0.0704 H   0  0  0  0  0  0  0  0  0  0  0  0
    3.5570    1.4101    0.5501 H   0  0  0  0  0  0  0  0  0  0  0  0
    3.1056    1.5822   -1.1412 H   0  0  0  0  0  0  0  0  0  0  0  0
    1.8577    2.8872    1.2970 H   0  0  0  0  0  0  0  0  0  0  0  0
    2.0634    3.5975   -0.2976 H   0  0  0  0  0  0  0  0  0  0  0  0
    0.0650    2.5341   -1.1180 H   0  0  0  0  0  0  0  0  0  0  0  0
   -0.3785    2.6567    0.5756 H   0  0  0  0  0  0  0  0  0  0  0  0
  2  1  1  6
  2  3  1  0
  2  4  1  0
  2  5  1  0
  5  6  1  0
  5 10  2  0
  6  7  2  0
  6 14  1  0
  7  8  1  0
  7 12  1  0
  8  9  1  0
  9 10  1  0
  9 11  2  0
 12 13  1  0
 13 14  1  0
  8 15  1  0
 10 16  1  0
 12 17  1  0
 12 18  1  0
 13 19  1  0
 13 20  1  0
 14 21  1  0
 14 22  1  0
M  END
