
     RDKit          3D

 30 29  0  0  0  0  0  0  0  0999 V2000
   -4.4147   -1.1350   -1.3590 O   0  0  0  0  0  0  0  0  0  0  0  0
   -4.4193   -0.3782   -0.2670 C   0  0  0  0  0  0  0  0  0  0  0  0
   -5.2721   -0.4488    0.5824 O   0  0  0  0  0  0  0  0  0  0  0  0
   -3.2271    0.5703   -0.2198 C   0  0  1  0  0  0  0  0  0  0  0  0
   -3.3529    1.6024    0.7797 N   0  0  0  0  0  0  0  0  0  0  0  0
   -1.9418   -0.2393   -0.0046 C   0  0  0  0  0  0  0  0  0  0  0  0
   -0.6834    0.6107   -0.1098 C   0  0  0  0  0  0  0  0  0  0  0  0
    0.5618   -0.2290    0.1230 C   0  0  0  0  0  0  0  0  0  0  0  0
    1.7572    0.5768   -0.0037 N   0  0  0  0  0  0  0  0  0  0  0  0
    2.9868    0.0542    0.3076 C   0  0  0  0  0  0  0  0  0  0  0  0
    3.2484   -1.0390    0.9071 N   0  0  0  0  0  0  0  0  0  0  0  0
    4.0150    0.8810   -0.1522 N   0  0  0  0  0  0  0  0  0  0  0  0
    5.2487    0.6148    0.4045 O   0  0  0  0  0  0  0  0  0  0  0  0
    6.0572   -0.0938   -0.5131 C   0  0  0  0  0  0  0  0  0  0  0  0
   -5.1745   -1.7364   -1.3516 H   0  0  0  0  0  0  0  0  0  0  0  0
   -3.1635    1.0506   -1.2025 H   0  0  0  0  0  0  0  0  0  0  0  0
   -4.1790    2.1617    0.6109 H   0  0  0  0  0  0  0  0  0  0  0  0
   -3.4736    1.1882    1.6960 H   0  0  0  0  0  0  0  0  0  0  0  0
   -1.9842   -0.7180    0.9804 H   0  0  0  0  0  0  0  0  0  0  0  0
   -1.8924   -1.0469   -0.7384 H   0  0  0  0  0  0  0  0  0  0  0  0
   -0.6411    1.0695   -1.1035 H   0  0  0  0  0  0  0  0  0  0  0  0
   -0.7147    1.4255    0.6147 H   0  0  0  0  0  0  0  0  0  0  0  0
    0.5221   -0.6438    1.1332 H   0  0  0  0  0  0  0  0  0  0  0  0
    0.5749   -1.0805   -0.5702 H   0  0  0  0  0  0  0  0  0  0  0  0
    1.7468    1.2199   -0.7822 H   0  0  0  0  0  0  0  0  0  0  0  0
    2.4060   -1.5705    1.0895 H   0  0  0  0  0  0  0  0  0  0  0  0
    3.8238    1.8697   -0.0398 H   0  0  0  0  0  0  0  0  0  0  0  0
    5.6272   -1.0649   -0.7678 H   0  0  0  0  0  0  0  0  0  0  0  0
    6.2277    0.4738   -1.4317 H   0  0  0  0  0  0  0  0  0  0  0  0
    7.0130   -0.2528   -0.0148 H   0  0  0  0  0  0  0  0  0  0  0  0
 14 13  1  0
 13 12  1  0
 12 10  1  0
  8  9  1  0
  8  7  1  0
 10 11  2  0
 10  9  1  0
  3  2  2  0
  6  7  1  0
  6  4  1  0
  2  4  1  0
  2  1  1  0
  4  5  1  0
  1 15  1  0
  4 16  1  6
  5 17  1  0
  5 18  1  0
  6 19  1  0
  6 20  1  0
  7 21  1  0
  7 22  1  0
  8 23  1  0
  8 24  1  0
  9 25  1  0
 11 26  1  0
 12 27  1  0
 14 28  1  0
 14 29  1  0
 14 30  1  0
M  END
