
     RDKit          3D

 31 32  0  0  0  0  0  0  0  0999 V2000
   -4.8397   -1.3964    0.2988 C   0  0  0  0  0  0  0  0  0  0  0  0
   -6.1909   -1.1006    0.3535 C   0  0  0  0  0  0  0  0  0  0  0  0
   -6.6170    0.1745    0.0071 C   0  0  0  0  0  0  0  0  0  0  0  0
   -8.4545    0.5848    0.0690 Br  0  0  0  0  0  0  0  0  0  0  0  0
   -5.7143    1.1496   -0.3899 C   0  0  0  0  0  0  0  0  0  0  0  0
   -4.3629    0.8426   -0.4282 C   0  0  0  0  0  0  0  0  0  0  0  0
   -3.9127   -0.4281   -0.0788 C   0  0  0  0  0  0  0  0  0  0  0  0
   -2.4774   -0.8218   -0.1300 C   0  0  0  0  0  0  0  0  0  0  0  0
   -2.1249   -1.9724   -0.3010 O   0  0  0  0  0  0  0  0  0  0  0  0
   -1.5925    0.1978    0.0381 N   0  0  0  0  0  0  0  0  0  0  0  0
   -0.2786   -0.0615   -0.0275 N   0  0  0  0  0  0  0  0  0  0  0  0
    0.5638    0.8687    0.1995 C   0  0  0  0  0  0  0  0  0  0  0  0
    1.9849    0.5913    0.1302 C   0  0  0  0  0  0  0  0  0  0  0  0
    2.8903    1.6231    0.3677 C   0  0  0  0  0  0  0  0  0  0  0  0
    4.2486    1.4091    0.3160 C   0  0  0  0  0  0  0  0  0  0  0  0
    5.4438    2.8247    0.6370 Br  0  0  0  0  0  0  0  0  0  0  0  0
    4.7629    0.1386    0.0238 C   0  0  0  0  0  0  0  0  0  0  0  0
    6.0825   -0.0005   -0.0071 O   0  0  0  0  0  0  0  0  0  0  0  0
    3.8557   -0.8962   -0.2144 C   0  0  0  0  0  0  0  0  0  0  0  0
    4.4887   -2.6218   -0.6117 Br  0  0  0  0  0  0  0  0  0  0  0  0
    2.4753   -0.6960   -0.1675 C   0  0  0  0  0  0  0  0  0  0  0  0
    1.6803   -1.7277   -0.4030 O   0  0  0  0  0  0  0  0  0  0  0  0
   -4.5081   -2.3907    0.5652 H   0  0  0  0  0  0  0  0  0  0  0  0
   -6.8953   -1.8614    0.6609 H   0  0  0  0  0  0  0  0  0  0  0  0
   -6.0467    2.1376   -0.6769 H   0  0  0  0  0  0  0  0  0  0  0  0
   -3.6783    1.6115   -0.7628 H   0  0  0  0  0  0  0  0  0  0  0  0
   -1.9020    1.1235    0.3087 H   0  0  0  0  0  0  0  0  0  0  0  0
    0.2580    1.8846    0.4523 H   0  0  0  0  0  0  0  0  0  0  0  0
    2.5067    2.6091    0.5975 H   0  0  0  0  0  0  0  0  0  0  0  0
    6.3561   -0.9015   -0.2255 H   0  0  0  0  0  0  0  0  0  0  0  0
    0.7400   -1.4293   -0.3348 H   0  0  0  0  0  0  0  0  0  0  0  0
  1  2  2  0
  1  7  1  0
  2  3  1  0
  3  4  1  0
  3  5  2  0
  5  6  1  0
  6  7  2  0
  7  8  1  0
  8  9  2  0
  8 10  1  0
 10 11  1  0
 11 12  2  0
 12 13  1  0
 13 14  2  0
 13 21  1  0
 14 15  1  0
 15 16  1  0
 15 17  2  0
 17 18  1  0
 17 19  1  0
 19 20  1  0
 19 21  2  0
 21 22  1  0
  1 23  1  0
  2 24  1  0
  5 25  1  0
  6 26  1  0
 10 27  1  0
 12 28  1  0
 14 29  1  0
 18 30  1  0
 22 31  1  0
M  END
