
     RDKit          3D

 43 45  0  0  0  0  0  0  0  0999 V2000
   -6.7194    0.9468    0.0565 C   0  0  0  0  0  0  0  0  0  0  0  0
    0.2940   -1.3651   -0.1508 N   0  0  0  0  0  0  0  0  0  0  0  0
    7.4083   -0.8586    0.2050 O   0  0  0  0  0  0  0  0  0  0  0  0
   -1.5634    0.3823    0.2632 S   0  0  0  0  0  0  0  0  0  0  0  0
   -6.7062   -0.2657    0.7550 C   0  0  0  0  0  0  0  0  0  0  0  0
   -0.8465   -3.3250   -0.5943 N   0  0  0  0  0  0  0  0  0  0  0  0
    7.5024    1.5049    1.0735 O   0  0  0  0  0  0  0  0  0  0  0  0
    6.9847    0.5296    0.1279 S   0  0  1  0  0  0  0  0  0  0  0  0
   -5.6238   -1.1133    0.6544 C   0  0  0  0  0  0  0  0  0  0  0  0
    1.0630    0.7930    0.3832 N   0  0  0  0  0  0  0  0  0  0  0  0
   -3.6300   -2.9364   -0.3641 O   0  0  0  0  0  0  0  0  0  0  0  0
   -4.5344    0.4351   -0.8098 C   0  0  0  0  0  0  0  0  0  0  0  0
    7.4231    1.0610   -1.3661 N   0  0  0  0  0  0  0  0  0  0  0  0
   -5.6273    1.2892   -0.7374 C   0  0  0  0  0  0  0  0  0  0  0  0
   -7.8161    1.7044    0.2051 O   0  0  0  0  0  0  0  0  0  0  0  0
   -7.8889    2.9385   -0.4841 C   0  0  0  0  0  0  0  0  0  0  0  0
   -4.5085   -0.7683   -0.1140 C   0  0  0  0  0  0  0  0  0  0  0  0
   -3.3817   -1.7340   -0.2275 C   0  0  0  0  0  0  0  0  0  0  0  0
   -2.0414   -1.2547   -0.1543 C   0  0  0  0  0  0  0  0  0  0  0  0
   -0.8826   -2.0254   -0.3121 C   0  0  0  0  0  0  0  0  0  0  0  0
    0.0939   -0.1176    0.1547 C   0  0  0  0  0  0  0  0  0  0  0  0
    2.4427    0.6503    0.3126 C   0  0  0  0  0  0  0  0  0  0  0  0
    3.0969   -0.5214   -0.0746 C   0  0  0  0  0  0  0  0  0  0  0  0
    4.4805   -0.5528   -0.1197 C   0  0  0  0  0  0  0  0  0  0  0  0
    5.2205    0.5695    0.2202 C   0  0  0  0  0  0  0  0  0  0  0  0
    4.5786    1.7391    0.6122 C   0  0  0  0  0  0  0  0  0  0  0  0
    3.2015    1.7762    0.6545 C   0  0  0  0  0  0  0  0  0  0  0  0
   -7.5557   -0.5341    1.3706 H   0  0  0  0  0  0  0  0  0  0  0  0
    0.0350   -3.7805   -0.7545 H   0  0  0  0  0  0  0  0  0  0  0  0
   -1.7035   -3.8335   -0.7299 H   0  0  0  0  0  0  0  0  0  0  0  0
   -5.6364   -2.0511    1.1949 H   0  0  0  0  0  0  0  0  0  0  0  0
    0.7483    1.7157    0.6454 H   0  0  0  0  0  0  0  0  0  0  0  0
   -3.7128    0.7129   -1.4586 H   0  0  0  0  0  0  0  0  0  0  0  0
    7.0881    0.4724   -2.1206 H   0  0  0  0  0  0  0  0  0  0  0  0
    7.1975    2.0349   -1.5350 H   0  0  0  0  0  0  0  0  0  0  0  0
   -5.6115    2.2053   -1.3118 H   0  0  0  0  0  0  0  0  0  0  0  0
   -7.8535    2.8023   -1.5679 H   0  0  0  0  0  0  0  0  0  0  0  0
   -8.8441    3.3837   -0.2182 H   0  0  0  0  0  0  0  0  0  0  0  0
   -7.0876    3.6191   -0.1857 H   0  0  0  0  0  0  0  0  0  0  0  0
    2.5389   -1.4047   -0.3370 H   0  0  0  0  0  0  0  0  0  0  0  0
    4.9686   -1.4696   -0.4214 H   0  0  0  0  0  0  0  0  0  0  0  0
    5.1381    2.6211    0.8925 H   0  0  0  0  0  0  0  0  0  0  0  0
    2.7066    2.6881    0.9640 H   0  0  0  0  0  0  0  0  0  0  0  0
  1  5  2  0
  1 14  1  0
  1 15  1  0
  2 20  1  0
  2 21  2  0
  3  8  2  0
  4 19  1  0
  4 21  1  0
  5  9  1  0
  6 20  1  0
  7  8  2  0
  8 13  1  6
  8 25  1  0
  9 17  2  0
 10 21  1  0
 10 22  1  0
 11 18  2  0
 12 14  2  0
 12 17  1  0
 15 16  1  0
 17 18  1  0
 18 19  1  0
 19 20  2  0
 22 23  2  0
 22 27  1  0
 23 24  1  0
 24 25  2  0
 25 26  1  0
 26 27  2  0
  5 28  1  0
  6 29  1  0
  6 30  1  0
  9 31  1  0
 10 32  1  0
 12 33  1  0
 13 34  1  0
 13 35  1  0
 14 36  1  0
 16 37  1  0
 16 38  1  0
 16 39  1  0
 23 40  1  0
 24 41  1  0
 26 42  1  0
 27 43  1  0
M  END
