
     RDKit          3D

 17 17  0  0  0  0  0  0  0  0999 V2000
   -0.0004   -3.3571   -0.0479 O   0  0  0  0  0  0  0  0  0  0  0  0
   -0.0094   -2.1399   -0.0469 C   0  0  0  0  0  0  0  0  0  0  0  0
   -1.2307   -1.3428   -0.0353 C   0  0  0  0  0  0  0  0  0  0  0  0
   -1.1720   -0.0038   -0.0207 C   0  0  0  0  0  0  0  0  0  0  0  0
   -2.3995    0.8458    0.0034 C   0  0  0  0  0  0  0  0  0  0  0  0
   -3.5027    0.3797   -0.0030 O   0  0  0  0  0  0  0  0  0  0  0  0
   -2.1124    2.1360    0.0326 O   0  0  0  0  0  0  0  0  0  0  0  0
    1.2030   -1.3298   -0.0533 C   0  0  0  0  0  0  0  0  0  0  0  0
    1.1310    0.0090   -0.0381 C   0  0  0  0  0  0  0  0  0  0  0  0
   -0.0229    0.6847   -0.0220 O   0  0  0  0  0  0  0  0  0  0  0  0
    2.3527    0.8680   -0.0335 C   0  0  0  0  0  0  0  0  0  0  0  0
    2.0579    2.1557   -0.0080 O   0  0  0  0  0  0  0  0  0  0  0  0
    3.4588    0.4079   -0.0501 O   0  0  0  0  0  0  0  0  0  0  0  0
   -2.1919   -1.8361   -0.0236 H   0  0  0  0  0  0  0  0  0  0  0  0
   -2.9359    2.6423    0.0557 H   0  0  0  0  0  0  0  0  0  0  0  0
    2.1717   -1.8086   -0.0654 H   0  0  0  0  0  0  0  0  0  0  0  0
    2.8781    2.6682   -0.0014 H   0  0  0  0  0  0  0  0  0  0  0  0
  6  5  2  0
  3  4  2  0
  3  2  1  0
  5  4  1  0
  5  7  1  0
  1  2  2  0
  4 10  1  0
  2  8  1  0
 10  9  1  0
  8  9  2  0
  9 11  1  0
 11 13  2  0
 11 12  1  0
  3 14  1  0
  7 15  1  0
  8 16  1  0
 12 17  1  0
M  END
