
     RDKit          3D

 49 50  0  0  0  0  0  0  0  0999 V2000
    1.6822   -1.7787   -0.9514 F   0  0  0  0  0  0  0  0  0  0  0  0
    1.4479   -0.6522   -0.2723 C   0  0  0  0  0  0  0  0  0  0  0  0
    2.4705   -0.1338    0.4972 C   0  0  0  0  0  0  0  0  0  0  0  0
    4.0356   -0.9262    0.6192 S   0  0  0  0  0  0  0  0  0  0  0  0
    4.7012   -0.5789   -1.0450 C   0  0  0  0  0  0  0  0  0  0  0  0
    6.1730   -0.9557   -1.0494 C   0  0  0  0  0  0  0  0  0  0  0  0
    6.6583   -0.7057   -2.3463 O   0  0  0  0  0  0  0  0  0  0  0  0
    2.1901    0.9913    1.2578 C   0  0  0  0  0  0  0  0  0  0  0  0
    3.1089    1.5006    2.0718 F   0  0  0  0  0  0  0  0  0  0  0  0
    0.1688   -0.0922   -0.3783 C   0  0  0  0  0  0  0  0  0  0  0  0
   -0.0422    1.1049    0.3368 C   0  0  0  0  0  0  0  0  0  0  0  0
   -1.4635    2.1590    0.0719 S   0  0  1  0  0  0  0  0  0  0  0  0
   -2.2008    1.7507   -1.1067 O   0  0  0  0  0  0  0  0  0  0  0  0
   -2.4039    1.7753    1.3705 N   0  0  0  0  0  0  0  0  0  0  0  0
   -0.9673    3.5242    0.1045 O   0  0  0  0  0  0  0  0  0  0  0  0
    0.9543    1.5913    1.1803 C   0  0  0  0  0  0  0  0  0  0  0  0
    0.7347    2.6533    1.9509 F   0  0  0  0  0  0  0  0  0  0  0  0
   -0.7849   -0.7162   -1.1483 N   0  0  0  0  0  0  0  0  0  0  0  0
   -1.9946   -1.2621   -0.5082 C   0  0  1  0  0  0  0  0  0  0  0  0
   -2.9749   -1.5959   -1.6245 C   0  0  0  0  0  0  0  0  0  0  0  0
   -4.3872   -1.9879   -1.1904 C   0  0  0  0  0  0  0  0  0  0  0  0
   -5.0015   -1.0957   -0.0997 C   0  0  0  0  0  0  0  0  0  0  0  0
   -4.9920   -1.6869    1.3102 C   0  0  0  0  0  0  0  0  0  0  0  0
   -3.6438   -1.9371    1.9871 C   0  0  0  0  0  0  0  0  0  0  0  0
   -2.7413   -2.9799    1.3109 C   0  0  0  0  0  0  0  0  0  0  0  0
   -1.6266   -2.4148    0.4257 C   0  0  0  0  0  0  0  0  0  0  0  0
    4.1569   -1.1591   -1.7891 H   0  0  0  0  0  0  0  0  0  0  0  0
    4.5773    0.4832   -1.2555 H   0  0  0  0  0  0  0  0  0  0  0  0
    6.7012   -0.3628   -0.2930 H   0  0  0  0  0  0  0  0  0  0  0  0
    6.2837   -2.0112   -0.7703 H   0  0  0  0  0  0  0  0  0  0  0  0
    7.5863   -0.9564   -2.3733 H   0  0  0  0  0  0  0  0  0  0  0  0
   -2.0648    2.1645    2.2448 H   0  0  0  0  0  0  0  0  0  0  0  0
   -3.3751    2.0320    1.2210 H   0  0  0  0  0  0  0  0  0  0  0  0
   -0.3743   -1.4035   -1.7652 H   0  0  0  0  0  0  0  0  0  0  0  0
   -2.4299   -0.4659    0.0919 H   0  0  0  0  0  0  0  0  0  0  0  0
   -3.0428   -0.7061   -2.2550 H   0  0  0  0  0  0  0  0  0  0  0  0
   -2.5545   -2.3888   -2.2532 H   0  0  0  0  0  0  0  0  0  0  0  0
   -5.0142   -1.9454   -2.0840 H   0  0  0  0  0  0  0  0  0  0  0  0
   -4.4181   -3.0315   -0.8722 H   0  0  0  0  0  0  0  0  0  0  0  0
   -4.5174   -0.1132   -0.0971 H   0  0  0  0  0  0  0  0  0  0  0  0
   -6.0459   -0.8993   -0.3535 H   0  0  0  0  0  0  0  0  0  0  0  0
   -5.5718   -1.0217    1.9572 H   0  0  0  0  0  0  0  0  0  0  0  0
   -5.5466   -2.6320    1.2861 H   0  0  0  0  0  0  0  0  0  0  0  0
   -3.1078   -0.9909    2.1117 H   0  0  0  0  0  0  0  0  0  0  0  0
   -3.8627   -2.2781    3.0022 H   0  0  0  0  0  0  0  0  0  0  0  0
   -2.2490   -3.5768    2.0824 H   0  0  0  0  0  0  0  0  0  0  0  0
   -3.3567   -3.6917    0.7570 H   0  0  0  0  0  0  0  0  0  0  0  0
   -1.1793   -3.2262   -0.1585 H   0  0  0  0  0  0  0  0  0  0  0  0
   -0.8389   -2.0470    1.0919 H   0  0  0  0  0  0  0  0  0  0  0  0
 24 23  1  0
 24 25  1  0
 23 22  1  0
 22 21  1  0
  7  6  1  0
 25 26  1  0
  6  5  1  0
 21 20  1  0
 26 19  1  0
  5  4  1  0
 20 19  1  0
 19 18  1  0
  1  2  1  0
  4  3  1  0
  2  3  2  0
  2 10  1  0
 18 10  1  0
  3  8  1  0
 10 11  2  0
  8  9  1  0
  8 16  2  0
 11 16  1  0
 11 12  1  0
 12 14  1  1
 16 17  1  0
 13 12  2  0
 12 15  2  0
  5 27  1  0
  5 28  1  0
  6 29  1  0
  6 30  1  0
  7 31  1  0
 14 32  1  0
 14 33  1  0
 18 34  1  0
 19 35  1  1
 20 36  1  0
 20 37  1  0
 21 38  1  0
 21 39  1  0
 22 40  1  0
 22 41  1  0
 23 42  1  0
 23 43  1  0
 24 44  1  0
 24 45  1  0
 25 46  1  0
 25 47  1  0
 26 48  1  0
 26 49  1  0
M  END
