
     RDKit          3D

 46 48  0  0  0  0  0  0  0  0999 V2000
    4.3405    0.2729    0.1078 N   0  0  0  0  0  0  0  0  0  0  0  0
    5.6751   -0.2447    0.0501 C   0  0  0  0  0  0  0  0  0  0  0  0
   -6.1214   -2.0497    1.2668 C   0  0  0  0  0  0  0  0  0  0  0  0
   -6.7804    3.0932   -0.2179 C   0  0  0  0  0  0  0  0  0  0  0  0
   -5.1298   -0.0907    0.3799 C   0  0  0  0  0  0  0  0  0  0  0  0
   -5.3046    1.2556   -0.0059 C   0  0  0  0  0  0  0  0  0  0  0  0
   -3.8898   -0.6870    0.2422 C   0  0  0  0  0  0  0  0  0  0  0  0
   -4.2239    1.9556   -0.5151 C   0  0  0  0  0  0  0  0  0  0  0  0
   -2.7938    0.0238   -0.2681 C   0  0  0  0  0  0  0  0  0  0  0  0
   -2.9790    1.3449   -0.6431 C   0  0  0  0  0  0  0  0  0  0  0  0
   -1.4763   -0.6284   -0.3936 C   0  0  0  0  0  0  0  0  0  0  0  0
   -0.3177    0.0767   -0.1470 C   0  0  0  0  0  0  0  0  0  0  0  0
   -1.3865   -1.9907   -0.7740 C   0  0  0  0  0  0  0  0  0  0  0  0
    0.9464   -0.5321   -0.2712 C   0  0  0  0  0  0  0  0  0  0  0  0
    3.2193   -0.4256   -0.1387 C   0  0  0  0  0  0  0  0  0  0  0  0
    9.0190    1.4318    0.6146 C   0  0  0  0  0  0  0  0  0  0  0  0
   -0.1704   -2.6061   -0.8994 C   0  0  0  0  0  0  0  0  0  0  0  0
    1.0154   -1.8914   -0.6504 C   0  0  0  0  0  0  0  0  0  0  0  0
    3.2844   -1.8100   -0.5317 C   0  0  0  0  0  0  0  0  0  0  0  0
    6.6589    0.8738    0.3709 C   0  0  0  0  0  0  0  0  0  0  0  0
    6.2856    2.0066    0.6394 O   0  0  0  0  0  0  0  0  0  0  0  0
    2.0626    0.1842   -0.0168 N   0  0  0  0  0  0  0  0  0  0  0  0
    7.9417    0.5099    0.3368 N   0  0  0  0  0  0  0  0  0  0  0  0
    2.2205   -2.5045   -0.7750 N   0  0  0  0  0  0  0  0  0  0  0  0
   -6.5420    1.7522    0.1606 O   0  0  0  0  0  0  0  0  0  0  0  0
    4.2359    1.2391    0.3819 H   0  0  0  0  0  0  0  0  0  0  0  0
    5.8304   -1.0598    0.7665 H   0  0  0  0  0  0  0  0  0  0  0  0
    5.9153   -0.6444   -0.9411 H   0  0  0  0  0  0  0  0  0  0  0  0
   -5.8565   -2.6980    0.4272 H   0  0  0  0  0  0  0  0  0  0  0  0
   -5.3881   -2.1917    2.0650 H   0  0  0  0  0  0  0  0  0  0  0  0
   -7.1018   -2.3394    1.6365 H   0  0  0  0  0  0  0  0  0  0  0  0
   -6.6061    3.2526   -1.2852 H   0  0  0  0  0  0  0  0  0  0  0  0
   -7.8265    3.2932   -0.0005 H   0  0  0  0  0  0  0  0  0  0  0  0
   -6.1619    3.7948    0.3479 H   0  0  0  0  0  0  0  0  0  0  0  0
   -3.7483   -1.7121    0.5582 H   0  0  0  0  0  0  0  0  0  0  0  0
   -4.3308    2.9851   -0.8284 H   0  0  0  0  0  0  0  0  0  0  0  0
   -2.1612    1.9144   -1.0651 H   0  0  0  0  0  0  0  0  0  0  0  0
   -0.3553    1.1115    0.1705 H   0  0  0  0  0  0  0  0  0  0  0  0
   -2.2893   -2.5464   -0.9915 H   0  0  0  0  0  0  0  0  0  0  0  0
    9.0647    2.2342   -0.1223 H   0  0  0  0  0  0  0  0  0  0  0  0
    8.9182    1.8783    1.6037 H   0  0  0  0  0  0  0  0  0  0  0  0
    9.9553    0.8828    0.5815 H   0  0  0  0  0  0  0  0  0  0  0  0
   -0.1005   -3.6443   -1.1987 H   0  0  0  0  0  0  0  0  0  0  0  0
    4.2413   -2.3093   -0.6378 H   0  0  0  0  0  0  0  0  0  0  0  0
    8.1773   -0.4403    0.1032 H   0  0  0  0  0  0  0  0  0  0  0  0
   -6.2241   -0.6958    0.8762 O   0  0  0  0  0  0  0  0  0  0  0  0
 23 16  1  0
 23 20  1  0
  2 20  1  0
  2  1  1  0
 20 21  2  0
  1 15  1  0
 15 22  2  0
 15 19  1  0
 22 14  1  0
  3 46  1  0
 46  5  1  0
 19 24  2  0
 14 12  2  0
 14 18  1  0
 12 11  1  0
  7  5  2  0
  7  9  1  0
  5  6  1  0
 24 18  1  0
 18 17  2  0
 11  9  1  0
 11 13  2  0
  9 10  2  0
  6 25  1  0
  6  8  2  0
 25  4  1  0
 17 13  1  0
 10  8  1  0
  1 26  1  0
  2 27  1  0
  2 28  1  0
  3 29  1  0
  3 30  1  0
  3 31  1  0
  4 32  1  0
  4 33  1  0
  4 34  1  0
  7 35  1  0
  8 36  1  0
 10 37  1  0
 12 38  1  0
 13 39  1  0
 16 40  1  0
 16 41  1  0
 16 42  1  0
 17 43  1  0
 19 44  1  0
 23 45  1  0
M  END
