
     RDKit          3D

 23 22  0  0  0  0  0  0  0  0999 V2000
   -0.1080   -1.5613   -0.8503 C   0  0  0  0  0  0  0  0  0  0  0  0
   -0.0090   -0.0501   -0.6888 C   0  0  1  0  0  0  0  0  0  0  0  0
    1.3877    0.2514   -0.6539 O   0  0  0  0  0  0  0  0  0  0  0  0
   -0.6757    0.6666   -1.8632 C   0  0  0  0  0  0  0  0  0  0  0  0
   -0.6991    0.4353    0.5966 C   0  0  0  0  0  0  0  0  0  0  0  0
   -0.2084   -0.1882    1.9022 C   0  0  1  0  0  0  0  0  0  0  0  0
    1.1589    0.0842    2.1481 O   0  0  0  0  0  0  0  0  0  0  0  0
   -1.0074    0.3368    3.0815 C   0  0  0  0  0  0  0  0  0  0  0  0
   -0.0611    0.3007   -3.0730 O   0  0  0  0  0  0  0  0  0  0  0  0
   -1.1499   -1.8805   -0.8116 H   0  0  0  0  0  0  0  0  0  0  0  0
    0.3080   -1.8828   -1.8041 H   0  0  0  0  0  0  0  0  0  0  0  0
    0.4291   -2.0865   -0.0599 H   0  0  0  0  0  0  0  0  0  0  0  0
    1.4994    1.2090   -0.6839 H   0  0  0  0  0  0  0  0  0  0  0  0
   -1.7437    0.4139   -1.8536 H   0  0  0  0  0  0  0  0  0  0  0  0
   -0.6107    1.7527   -1.6949 H   0  0  0  0  0  0  0  0  0  0  0  0
   -1.7714    0.2380    0.5089 H   0  0  0  0  0  0  0  0  0  0  0  0
   -0.5971    1.5261    0.6649 H   0  0  0  0  0  0  0  0  0  0  0  0
   -0.3726   -1.2747    1.8481 H   0  0  0  0  0  0  0  0  0  0  0  0
    1.6209    0.0031    1.3031 H   0  0  0  0  0  0  0  0  0  0  0  0
   -0.6564   -0.0982    4.0184 H   0  0  0  0  0  0  0  0  0  0  0  0
   -0.9289    1.4233    3.1589 H   0  0  0  0  0  0  0  0  0  0  0  0
   -2.0618    0.0820    2.9722 H   0  0  0  0  0  0  0  0  0  0  0  0
   -0.6002    0.6376   -3.7935 H   0  0  0  0  0  0  0  0  0  0  0  0
  1  2  1  0
  1 10  1  0
  1 11  1  0
  1 12  1  0
  2  3  1  1
  2  4  1  0
  2  5  1  0
  3 13  1  0
  4  9  1  0
  4 14  1  0
  4 15  1  0
  5  6  1  0
  5 16  1  0
  5 17  1  0
  6  7  1  0
  6  8  1  0
  6 18  1  6
  7 19  1  0
  8 20  1  0
  8 21  1  0
  8 22  1  0
  9 23  1  0
M  END
