
     RDKit          3D

 19 18  0  0  0  0  0  0  0  0999 V2000
    4.5636   -0.3105    0.2291 C   0  0  0  0  0  0  0  0  0  0  0  0
    5.5311   -0.2878   -0.4880 O   0  0  0  0  0  0  0  0  0  0  0  0
    3.3621    0.5759    0.0766 C   0  0  0  0  0  0  0  0  0  0  0  0
    2.0824   -0.2536    0.1307 C   0  0  0  0  0  0  0  0  0  0  0  0
    0.6577    0.8658    0.0533 S   0  0  0  0  0  0  0  0  0  0  0  0
   -0.6969   -0.2937    0.0939 C   0  0  0  0  0  0  0  0  0  0  0  0
   -0.5097   -1.4806    0.1610 O   0  0  0  0  0  0  0  0  0  0  0  0
   -2.0437    0.3790    0.0352 C   0  0  0  0  0  0  0  0  0  0  0  0
   -3.2362   -0.5692    0.0307 C   0  0  0  0  0  0  0  0  0  0  0  0
   -4.8086    0.3431   -0.0379 S   0  0  0  0  0  0  0  0  0  0  0  0
    4.5093   -1.0070    1.0852 H   0  0  0  0  0  0  0  0  0  0  0  0
    3.4339    1.1515   -0.8466 H   0  0  0  0  0  0  0  0  0  0  0  0
    3.3796    1.2782    0.9178 H   0  0  0  0  0  0  0  0  0  0  0  0
    2.0340   -0.8292    1.0556 H   0  0  0  0  0  0  0  0  0  0  0  0
    2.0359   -0.9473   -0.7082 H   0  0  0  0  0  0  0  0  0  0  0  0
   -2.0689    1.0151   -0.8553 H   0  0  0  0  0  0  0  0  0  0  0  0
   -2.1172    1.0664    0.8839 H   0  0  0  0  0  0  0  0  0  0  0  0
   -3.1831   -1.2005    0.9233 H   0  0  0  0  0  0  0  0  0  0  0  0
   -3.1367   -1.2511   -0.8199 H   0  0  0  0  0  0  0  0  0  0  0  0
  1  2  2  0
  1  3  1  0
  1 11  1  0
  3  4  1  0
  3 12  1  0
  3 13  1  0
  4  5  1  0
  4 14  1  0
  4 15  1  0
  5  6  1  0
  6  7  2  0
  6  8  1  0
  8  9  1  0
  8 16  1  0
  8 17  1  0
  9 10  1  0
  9 18  1  0
  9 19  1  0
M  CHG  1  10  -1
M  END
