
     RDKit          3D

 18 18  0  0  0  0  0  0  0  0999 V2000
    1.5810    0.6620   -0.6924 C   0  0  0  0  0  0  0  0  0  0  0  0
    1.7937   -0.7951   -0.2908 C   0  0  0  0  0  0  0  0  0  0  0  0
    0.5443   -1.4468    0.2803 C   0  0  0  0  0  0  0  0  0  0  0  0
   -0.6075    1.0421    0.6557 C   0  0  0  0  0  0  0  0  0  0  0  0
    0.8385    1.5008    0.3437 C   0  0  0  0  0  0  0  0  0  0  0  0
   -0.6261   -1.1188   -0.4769 O   0  0  0  0  0  0  0  0  0  0  0  0
   -1.1935    0.0821   -0.3503 C   0  0  0  0  0  0  0  0  0  0  0  0
   -2.1557    0.3269   -1.0349 O   0  0  0  0  0  0  0  0  0  0  0  0
    2.5527    1.1207   -0.8846 H   0  0  0  0  0  0  0  0  0  0  0  0
    1.0485    0.7067   -1.6474 H   0  0  0  0  0  0  0  0  0  0  0  0
    2.1511   -1.3597   -1.1544 H   0  0  0  0  0  0  0  0  0  0  0  0
    2.5709   -0.8670    0.4741 H   0  0  0  0  0  0  0  0  0  0  0  0
    0.6183   -2.5323    0.2394 H   0  0  0  0  0  0  0  0  0  0  0  0
    0.4025   -1.1752    1.3281 H   0  0  0  0  0  0  0  0  0  0  0  0
   -0.6487    0.5743    1.6427 H   0  0  0  0  0  0  0  0  0  0  0  0
   -1.2713    1.9031    0.6996 H   0  0  0  0  0  0  0  0  0  0  0  0
    1.4100    1.5222    1.2735 H   0  0  0  0  0  0  0  0  0  0  0  0
    0.8007    2.5292   -0.0162 H   0  0  0  0  0  0  0  0  0  0  0  0
  8  7  2  0
  4  7  1  0
  4  5  1  0
  7  6  1  0
  5  1  1  0
  6  3  1  0
  1  2  1  0
  3  2  1  0
  1  9  1  0
  1 10  1  0
  2 11  1  0
  2 12  1  0
  3 13  1  0
  3 14  1  0
  4 15  1  0
  4 16  1  0
  5 17  1  0
  5 18  1  0
M  END
