
     RDKit          3D

 34 34  0  0  0  0  0  0  0  0999 V2000
    2.8158    1.3133   -0.0493 C   0  0  0  0  0  0  0  0  0  0  0  0
    4.0090    1.1073    0.8817 C   0  0  0  0  0  0  0  0  0  0  0  0
    5.1987    0.3391    0.3060 C   0  0  0  0  0  0  0  0  0  0  0  0
    4.8408   -0.8500   -0.5867 C   0  0  0  0  0  0  0  0  0  0  0  0
    3.5811   -1.6124   -0.1815 C   0  0  0  0  0  0  0  0  0  0  0  0
    2.2821   -0.9879   -0.6782 C   0  0  0  0  0  0  0  0  0  0  0  0
    1.8528    0.2200    0.0057 N   0  0  0  0  0  0  0  0  0  0  0  0
    0.5278    0.6183   -0.4313 C   0  0  0  0  0  0  0  0  0  0  0  0
   -0.5567   -0.1736    0.2896 C   0  0  0  0  0  0  0  0  0  0  0  0
   -1.8610    0.2521   -0.1709 N   0  0  0  0  0  0  0  0  0  0  0  0
   -3.0015   -0.1823    0.3798 C   0  0  0  0  0  0  0  0  0  0  0  0
   -3.0474   -0.9801    1.3037 O   0  0  0  0  0  0  0  0  0  0  0  0
   -4.2178    0.4086   -0.2457 C   0  0  0  0  0  0  0  0  0  0  0  0
   -5.3423    0.0597    0.2218 N   0  0  0  0  0  0  0  0  0  0  0  0
   -6.3831    0.6471   -0.4022 O   0  0  0  0  0  0  0  0  0  0  0  0
    2.2940    2.2139    0.2787 H   0  0  0  0  0  0  0  0  0  0  0  0
    3.1565    1.5194   -1.0782 H   0  0  0  0  0  0  0  0  0  0  0  0
    4.3654    2.0877    1.2074 H   0  0  0  0  0  0  0  0  0  0  0  0
    3.6386    0.6123    1.7827 H   0  0  0  0  0  0  0  0  0  0  0  0
    5.8291    1.0247   -0.2664 H   0  0  0  0  0  0  0  0  0  0  0  0
    5.8149   -0.0035    1.1418 H   0  0  0  0  0  0  0  0  0  0  0  0
    4.7149   -0.5124   -1.6206 H   0  0  0  0  0  0  0  0  0  0  0  0
    5.6904   -1.5367   -0.6068 H   0  0  0  0  0  0  0  0  0  0  0  0
    3.6266   -2.6129   -0.6188 H   0  0  0  0  0  0  0  0  0  0  0  0
    3.5379   -1.7601    0.9015 H   0  0  0  0  0  0  0  0  0  0  0  0
    2.3854   -0.8081   -1.7639 H   0  0  0  0  0  0  0  0  0  0  0  0
    1.4902   -1.7325   -0.5703 H   0  0  0  0  0  0  0  0  0  0  0  0
    0.3828    1.6746   -0.1968 H   0  0  0  0  0  0  0  0  0  0  0  0
    0.3999    0.5212   -1.5226 H   0  0  0  0  0  0  0  0  0  0  0  0
   -0.4374   -1.2473    0.1229 H   0  0  0  0  0  0  0  0  0  0  0  0
   -0.4664   -0.0031    1.3643 H   0  0  0  0  0  0  0  0  0  0  0  0
   -1.9070    0.9041   -0.9377 H   0  0  0  0  0  0  0  0  0  0  0  0
   -4.1159    1.1147   -1.0692 H   0  0  0  0  0  0  0  0  0  0  0  0
   -7.1643    0.3070    0.0492 H   0  0  0  0  0  0  0  0  0  0  0  0
  4  3  1  0
  4  5  1  0
  3  2  1  0
  5  6  1  0
  2  1  1  0
 12 11  2  0
  6  7  1  0
  1  7  1  0
  7  8  1  0
 11 13  1  0
 11 10  1  0
  8  9  1  0
  9 10  1  0
 13 14  2  0
 14 15  1  0
  1 16  1  0
  1 17  1  0
  2 18  1  0
  2 19  1  0
  3 20  1  0
  3 21  1  0
  4 22  1  0
  4 23  1  0
  5 24  1  0
  5 25  1  0
  6 26  1  0
  6 27  1  0
  8 28  1  0
  8 29  1  0
  9 30  1  0
  9 31  1  0
 10 32  1  0
 13 33  1  0
 15 34  1  0
M  END
