
     RDKit          3D

 36 37  0  0  0  0  0  0  0  0999 V2000
   -5.1674    3.4098    1.0049 C   0  0  0  0  0  0  0  0  0  0  0  0
   -4.3768    2.5378    0.3906 C   0  0  0  0  0  0  0  0  0  0  0  0
   -4.0165    1.2022    0.9459 C   0  0  0  0  0  0  0  0  0  0  0  0
   -4.7777   -0.0928   -0.0999 S   0  0  0  0  0  0  0  0  0  0  0  0
   -3.6092   -1.4674    0.0826 C   0  0  0  0  0  0  0  0  0  0  0  0
   -2.6182   -1.5023   -1.0801 C   0  0  1  0  0  0  0  0  0  0  0  0
   -1.8498   -0.2752   -1.1953 N   0  0  0  0  0  0  0  0  0  0  0  0
   -0.6053   -0.0876   -0.7223 C   0  0  0  0  0  0  0  0  0  0  0  0
    0.0140    1.1699   -0.8643 C   0  0  0  0  0  0  0  0  0  0  0  0
    1.2850    1.3894   -0.3973 C   0  0  0  0  0  0  0  0  0  0  0  0
    1.9513    2.9595   -0.6081 Cl  0  0  0  0  0  0  0  0  0  0  0  0
    2.0195    0.3666    0.2234 C   0  0  0  0  0  0  0  0  0  0  0  0
    3.6520    0.5993    0.8588 S   0  0  1  0  0  0  0  0  0  0  0  0
    4.5012    0.9483   -0.5047 N   0  0  0  0  0  0  0  0  0  0  0  0
    3.6950    1.7871    1.6939 O   0  0  0  0  0  0  0  0  0  0  0  0
    4.0500   -0.6736    1.4431 O   0  0  0  0  0  0  0  0  0  0  0  0
    1.4296   -0.8750    0.3589 C   0  0  0  0  0  0  0  0  0  0  0  0
    0.1419   -1.1012   -0.0928 C   0  0  0  0  0  0  0  0  0  0  0  0
   -0.5546   -2.7021    0.0885 S   0  0  1  0  0  0  0  0  0  0  0  0
    0.4087   -3.7067   -0.3204 O   0  0  0  0  0  0  0  0  0  0  0  0
   -1.1619   -2.8093    1.4020 O   0  0  0  0  0  0  0  0  0  0  0  0
   -1.7581   -2.6735   -1.0446 N   0  0  0  0  0  0  0  0  0  0  0  0
   -5.6071    3.1978    1.9722 H   0  0  0  0  0  0  0  0  0  0  0  0
   -5.3991    4.3695    0.5626 H   0  0  0  0  0  0  0  0  0  0  0  0
   -3.9602    2.7773   -0.5827 H   0  0  0  0  0  0  0  0  0  0  0  0
   -2.9351    1.0607    0.9313 H   0  0  0  0  0  0  0  0  0  0  0  0
   -4.3597    1.0902    1.9744 H   0  0  0  0  0  0  0  0  0  0  0  0
   -3.1219   -1.3881    1.0522 H   0  0  0  0  0  0  0  0  0  0  0  0
   -4.1860   -2.3925    0.0774 H   0  0  0  0  0  0  0  0  0  0  0  0
   -3.1941   -1.5998   -1.9995 H   0  0  0  0  0  0  0  0  0  0  0  0
   -2.2703    0.4692   -1.7284 H   0  0  0  0  0  0  0  0  0  0  0  0
   -0.5264    1.9730   -1.3482 H   0  0  0  0  0  0  0  0  0  0  0  0
    5.2892    1.5599   -0.3208 H   0  0  0  0  0  0  0  0  0  0  0  0
    4.7865    0.1239   -1.0218 H   0  0  0  0  0  0  0  0  0  0  0  0
    1.9827   -1.6815    0.8223 H   0  0  0  0  0  0  0  0  0  0  0  0
   -1.4015   -2.9273   -1.9616 H   0  0  0  0  0  0  0  0  0  0  0  0
  1  2  2  0
  2  3  1  0
  3  4  1  0
  4  5  1  0
  5  6  1  0
  6  7  1  0
  6 22  1  0
  7  8  1  0
  8  9  1  0
  8 18  2  0
  9 10  2  0
 10 11  1  0
 10 12  1  0
 12 13  1  0
 12 17  2  0
 13 14  1  6
 13 15  2  0
 13 16  2  0
 17 18  1  0
 18 19  1  0
 19 20  2  0
 19 21  2  0
 19 22  1  6
  1 23  1  0
  1 24  1  0
  2 25  1  0
  3 26  1  0
  3 27  1  0
  5 28  1  0
  5 29  1  0
  6 30  1  6
  7 31  1  0
  9 32  1  0
 14 33  1  0
 14 34  1  0
 17 35  1  0
 22 36  1  0
M  END
