
     RDKit          3D

 49 52  0  0  0  0  0  0  0  0999 V2000
   -6.4534    3.0087    1.1724 C   0  0  0  0  0  0  0  0  0  0  0  0
   -6.5127    1.8982    0.1315 C   0  0  1  0  0  0  0  0  0  0  0  0
   -7.1533    2.4073   -1.1520 C   0  0  0  0  0  0  0  0  0  0  0  0
   -5.1771    1.3995   -0.1783 N   0  0  0  0  0  0  0  0  0  0  0  0
   -4.5388    0.6736    0.9027 C   0  0  0  0  0  0  0  0  0  0  0  0
   -3.2260    0.0649    0.4362 C   0  0  0  0  0  0  0  0  0  0  0  0
   -2.5343   -0.6876    1.5633 C   0  0  0  0  0  0  0  0  0  0  0  0
   -1.3390   -1.3742    1.1132 N   0  0  0  0  0  0  0  0  0  0  0  0
   -1.2953   -2.6274    0.5713 C   0  0  0  0  0  0  0  0  0  0  0  0
   -2.2968   -3.4891    0.4224 N   0  0  0  0  0  0  0  0  0  0  0  0
   -1.8922   -4.6143   -0.1430 C   0  0  0  0  0  0  0  0  0  0  0  0
   -0.6675   -4.9416   -0.5450 N   0  0  0  0  0  0  0  0  0  0  0  0
    0.3288   -4.0623   -0.3871 C   0  0  0  0  0  0  0  0  0  0  0  0
    1.5569   -4.3825   -0.8050 N   0  0  0  0  0  0  0  0  0  0  0  0
    0.0253   -2.8229    0.2018 C   0  0  0  0  0  0  0  0  0  0  0  0
    0.7857   -1.7226    0.5041 N   0  0  0  0  0  0  0  0  0  0  0  0
   -0.0622   -0.8910    1.0310 C   0  0  0  0  0  0  0  0  0  0  0  0
    0.2970    0.7184    1.6229 S   0  0  0  0  0  0  0  0  0  0  0  0
    1.8598    0.9812    0.8508 C   0  0  0  0  0  0  0  0  0  0  0  0
    2.9989    0.9437    1.6705 C   0  0  0  0  0  0  0  0  0  0  0  0
    4.2075    1.2105    1.0850 C   0  0  0  0  0  0  0  0  0  0  0  0
    5.4341    1.2266    1.6456 O   0  0  0  0  0  0  0  0  0  0  0  0
    6.3480    1.6142    0.6254 C   0  0  0  0  0  0  0  0  0  0  0  0
    5.6008    1.7121   -0.5854 O   0  0  0  0  0  0  0  0  0  0  0  0
    4.3117    1.5002   -0.2667 C   0  0  0  0  0  0  0  0  0  0  0  0
    3.2174    1.5357   -1.0944 C   0  0  0  0  0  0  0  0  0  0  0  0
    1.9761    1.2769   -0.5035 C   0  0  0  0  0  0  0  0  0  0  0  0
    0.4598    1.3195   -1.6137 Br  0  0  0  0  0  0  0  0  0  0  0  0
   -5.8324    3.8346    0.8182 H   0  0  0  0  0  0  0  0  0  0  0  0
   -7.4530    3.3974    1.3695 H   0  0  0  0  0  0  0  0  0  0  0  0
   -6.0476    2.6665    2.1247 H   0  0  0  0  0  0  0  0  0  0  0  0
   -7.1484    1.0917    0.5361 H   0  0  0  0  0  0  0  0  0  0  0  0
   -6.5791    3.2393   -1.5643 H   0  0  0  0  0  0  0  0  0  0  0  0
   -7.2078    1.6239   -1.9109 H   0  0  0  0  0  0  0  0  0  0  0  0
   -8.1698    2.7557   -0.9678 H   0  0  0  0  0  0  0  0  0  0  0  0
   -5.2553    0.7718   -0.9708 H   0  0  0  0  0  0  0  0  0  0  0  0
   -4.3404    1.3624    1.7283 H   0  0  0  0  0  0  0  0  0  0  0  0
   -5.1805   -0.1233    1.3145 H   0  0  0  0  0  0  0  0  0  0  0  0
   -3.4135   -0.6273   -0.3902 H   0  0  0  0  0  0  0  0  0  0  0  0
   -2.5717    0.8523    0.0537 H   0  0  0  0  0  0  0  0  0  0  0  0
   -2.2667   -0.0157    2.3804 H   0  0  0  0  0  0  0  0  0  0  0  0
   -3.1965   -1.4422    1.9882 H   0  0  0  0  0  0  0  0  0  0  0  0
   -2.6539   -5.3698   -0.3024 H   0  0  0  0  0  0  0  0  0  0  0  0
    2.3395   -3.7846   -0.6059 H   0  0  0  0  0  0  0  0  0  0  0  0
    1.7462   -5.3095   -1.1447 H   0  0  0  0  0  0  0  0  0  0  0  0
    2.9130    0.7063    2.7216 H   0  0  0  0  0  0  0  0  0  0  0  0
    6.7857    2.5857    0.8671 H   0  0  0  0  0  0  0  0  0  0  0  0
    7.1253    0.8571    0.5172 H   0  0  0  0  0  0  0  0  0  0  0  0
    3.3155    1.7564   -2.1482 H   0  0  0  0  0  0  0  0  0  0  0  0
  1  2  1  0
  1 29  1  0
  1 30  1  0
  1 31  1  0
  2  3  1  0
  2  4  1  0
  2 32  1  1
  3 33  1  0
  3 34  1  0
  3 35  1  0
  4  5  1  0
  4 36  1  0
  5  6  1  0
  5 37  1  0
  5 38  1  0
  6  7  1  0
  6 39  1  0
  6 40  1  0
  7  8  1  0
  7 41  1  0
  7 42  1  0
  8  9  1  0
  8 17  1  0
  9 10  2  0
  9 15  1  0
 10 11  1  0
 11 12  2  0
 11 43  1  0
 12 13  1  0
 13 14  1  0
 13 15  2  0
 14 44  1  0
 14 45  1  0
 15 16  1  0
 16 17  2  0
 17 18  1  0
 18 19  1  0
 19 20  2  0
 19 27  1  0
 20 21  1  0
 20 46  1  0
 21 22  1  0
 21 25  2  0
 22 23  1  0
 23 24  1  0
 23 47  1  0
 23 48  1  0
 24 25  1  0
 25 26  1  0
 26 27  2  0
 26 49  1  0
 27 28  1  0
M  END
