
     RDKit          3D

 50 52  0  0  0  0  0  0  0  0999 V2000
   -5.7437    3.7072    0.1756 N   0  0  0  0  0  0  0  0  0  0  0  0
   -5.3716    2.4141    0.7310 C   0  0  0  0  0  0  0  0  0  0  0  0
   -4.5769    1.5977   -0.2771 C   0  0  0  0  0  0  0  0  0  0  0  0
   -4.1747    0.2465    0.2970 C   0  0  0  0  0  0  0  0  0  0  0  0
   -3.2323   -0.4852   -0.5339 N   0  0  0  0  0  0  0  0  0  0  0  0
   -3.8166   -0.9072   -1.7904 C   0  0  0  0  0  0  0  0  0  0  0  0
   -2.6564   -1.5944    0.1929 C   0  0  0  0  0  0  0  0  0  0  0  0
   -1.4396   -2.2156   -0.4827 C   0  0  1  0  0  0  0  0  0  0  0  0
   -0.5003   -1.2143   -0.8935 O   0  0  0  0  0  0  0  0  0  0  0  0
    0.7024   -1.3624   -0.1954 C   0  0  1  0  0  0  0  0  0  0  0  0
    1.3113   -0.0763    0.0380 N   0  0  0  0  0  0  0  0  0  0  0  0
    2.6107    0.2094   -0.2851 C   0  0  0  0  0  0  0  0  0  0  0  0
    3.5164   -0.5917   -0.8402 N   0  0  0  0  0  0  0  0  0  0  0  0
    4.6758    0.0206   -1.0101 C   0  0  0  0  0  0  0  0  0  0  0  0
    5.0023    1.2717   -0.6996 N   0  0  0  0  0  0  0  0  0  0  0  0
    4.0778    2.0657   -0.1454 C   0  0  0  0  0  0  0  0  0  0  0  0
    4.3960    3.3264    0.1571 N   0  0  0  0  0  0  0  0  0  0  0  0
    2.8002    1.5274    0.0858 C   0  0  0  0  0  0  0  0  0  0  0  0
    1.6515    2.0482    0.6192 N   0  0  0  0  0  0  0  0  0  0  0  0
    0.7811    1.0784    0.5826 C   0  0  0  0  0  0  0  0  0  0  0  0
    0.3511   -2.1608    1.0558 C   0  0  2  0  0  0  0  0  0  0  0  0
    1.4974   -2.7670    1.5736 O   0  0  0  0  0  0  0  0  0  0  0  0
   -0.6894   -3.1290    0.4820 C   0  0  2  0  0  0  0  0  0  0  0  0
   -0.0667   -4.1594   -0.2414 O   0  0  0  0  0  0  0  0  0  0  0  0
   -0.6181    1.2111    1.0555 C   0  0  0  0  0  0  0  0  0  0  0  0
   -6.4203    3.5700   -0.5654 H   0  0  0  0  0  0  0  0  0  0  0  0
   -6.2228    4.2510    0.8819 H   0  0  0  0  0  0  0  0  0  0  0  0
   -4.7528    2.5883    1.6157 H   0  0  0  0  0  0  0  0  0  0  0  0
   -6.2327    1.8217    1.0739 H   0  0  0  0  0  0  0  0  0  0  0  0
   -5.1781    1.4737   -1.1830 H   0  0  0  0  0  0  0  0  0  0  0  0
   -3.6773    2.1494   -0.5652 H   0  0  0  0  0  0  0  0  0  0  0  0
   -3.6921    0.4227    1.2639 H   0  0  0  0  0  0  0  0  0  0  0  0
   -5.0795   -0.3493    0.5108 H   0  0  0  0  0  0  0  0  0  0  0  0
   -4.2131   -0.0522   -2.3357 H   0  0  0  0  0  0  0  0  0  0  0  0
   -3.0653   -1.3675   -2.4316 H   0  0  0  0  0  0  0  0  0  0  0  0
   -4.6347   -1.6322   -1.6579 H   0  0  0  0  0  0  0  0  0  0  0  0
   -2.3721   -1.2378    1.1868 H   0  0  0  0  0  0  0  0  0  0  0  0
   -3.3833   -2.4096    0.3581 H   0  0  0  0  0  0  0  0  0  0  0  0
   -1.7464   -2.7777   -1.3694 H   0  0  0  0  0  0  0  0  0  0  0  0
    1.4414   -1.9217   -0.7817 H   0  0  0  0  0  0  0  0  0  0  0  0
    5.4670   -0.5706   -1.4591 H   0  0  0  0  0  0  0  0  0  0  0  0
    5.3352    3.6593    0.0230 H   0  0  0  0  0  0  0  0  0  0  0  0
    3.7342    3.9343    0.6065 H   0  0  0  0  0  0  0  0  0  0  0  0
   -0.1335   -1.5117    1.7950 H   0  0  0  0  0  0  0  0  0  0  0  0
    1.3239   -3.0351    2.4817 H   0  0  0  0  0  0  0  0  0  0  0  0
   -1.3534   -3.5278    1.2605 H   0  0  0  0  0  0  0  0  0  0  0  0
    0.6647   -4.4950    0.2909 H   0  0  0  0  0  0  0  0  0  0  0  0
   -0.8236    0.5549    1.9025 H   0  0  0  0  0  0  0  0  0  0  0  0
   -0.7783    2.2357    1.3825 H   0  0  0  0  0  0  0  0  0  0  0  0
   -1.3358    0.9736    0.2695 H   0  0  0  0  0  0  0  0  0  0  0  0
  1  2  1  0
  2  3  1  0
  3  4  1  0
  4  5  1  0
  5  6  1  0
  5  7  1  0
  7  8  1  0
  8  9  1  0
  8 23  1  0
  9 10  1  0
 10 11  1  0
 10 21  1  0
 11 12  1  0
 11 20  1  0
 12 13  2  0
 12 18  1  0
 13 14  1  0
 14 15  2  0
 15 16  1  0
 16 17  1  0
 16 18  2  0
 18 19  1  0
 19 20  2  0
 20 25  1  0
 21 22  1  0
 21 23  1  0
 23 24  1  0
  1 26  1  0
  1 27  1  0
  2 28  1  0
  2 29  1  0
  3 30  1  0
  3 31  1  0
  4 32  1  0
  4 33  1  0
  6 34  1  0
  6 35  1  0
  6 36  1  0
  7 37  1  0
  7 38  1  0
  8 39  1  6
 10 40  1  6
 14 41  1  0
 17 42  1  0
 17 43  1  0
 21 44  1  1
 22 45  1  0
 23 46  1  1
 24 47  1  0
 25 48  1  0
 25 49  1  0
 25 50  1  0
M  END
