
     RDKit          3D

 57 60  0  0  0  0  0  0  0  0999 V2000
    6.0174    0.3984   -1.1418 O   0  0  0  0  0  0  0  0  0  0  0  0
    5.1687   -0.1414   -0.4471 C   0  0  0  0  0  0  0  0  0  0  0  0
    5.1510   -1.6234   -0.3542 C   0  0  0  0  0  0  0  0  0  0  0  0
    5.0904   -2.4736    1.1443 S   0  0  0  0  0  0  0  0  0  0  0  0
    5.2872   -3.9814    0.3639 C   0  0  0  0  0  0  0  0  0  0  0  0
    5.3968   -3.8407   -0.9870 C   0  0  0  0  0  0  0  0  0  0  0  0
    5.3356   -2.4848   -1.3973 C   0  0  0  0  0  0  0  0  0  0  0  0
    4.2701    0.5477    0.2935 N   0  0  0  0  0  0  0  0  0  0  0  0
    4.3500    1.9957    0.3770 C   0  0  0  0  0  0  0  0  0  0  0  0
    3.2484    2.6643   -0.4277 C   0  0  0  0  0  0  0  0  0  0  0  0
    2.9717    0.0450    0.7089 C   0  0  0  0  0  0  0  0  0  0  0  0
    1.8620    0.7124   -0.0919 C   0  0  0  0  0  0  0  0  0  0  0  0
    1.9542    2.1584   -0.0062 N   0  0  0  0  0  0  0  0  0  0  0  0
    0.8716    2.9994   -0.0752 C   0  0  0  0  0  0  0  0  0  0  0  0
    0.9821    4.1717   -0.4174 O   0  0  0  0  0  0  0  0  0  0  0  0
   -0.3330    2.4662    0.2621 N   0  0  0  0  0  0  0  0  0  0  0  0
   -1.5223    3.2901    0.3194 C   0  0  0  0  0  0  0  0  0  0  0  0
   -2.7530    2.4243    0.2941 C   0  0  0  0  0  0  0  0  0  0  0  0
   -3.0146    1.5979   -0.7993 C   0  0  0  0  0  0  0  0  0  0  0  0
   -4.1449    0.8004   -0.8313 C   0  0  0  0  0  0  0  0  0  0  0  0
   -5.0488    0.7995    0.2320 C   0  0  0  0  0  0  0  0  0  0  0  0
   -4.7834    1.6154    1.3232 C   0  0  0  0  0  0  0  0  0  0  0  0
   -3.6495    2.4205    1.3538 C   0  0  0  0  0  0  0  0  0  0  0  0
   -6.2984   -0.0404    0.1808 C   0  0  0  0  0  0  0  0  0  0  0  0
   -6.0615   -1.3581   -0.3536 N   0  0  0  0  0  0  0  0  0  0  0  0
   -7.2787   -2.1174   -0.5831 C   0  0  0  0  0  0  0  0  0  0  0  0
   -6.7793   -3.5400   -0.8427 C   0  0  0  0  0  0  0  0  0  0  0  0
   -5.4086   -3.5970   -0.1334 C   0  0  0  0  0  0  0  0  0  0  0  0
   -5.2501   -2.2123    0.4951 C   0  0  0  0  0  0  0  0  0  0  0  0
    5.3189   -4.8914    0.9433 H   0  0  0  0  0  0  0  0  0  0  0  0
    5.5254   -4.6718   -1.6647 H   0  0  0  0  0  0  0  0  0  0  0  0
    5.4170   -2.1601   -2.4249 H   0  0  0  0  0  0  0  0  0  0  0  0
    4.2514    2.2783    1.4291 H   0  0  0  0  0  0  0  0  0  0  0  0
    5.3213    2.3350    0.0285 H   0  0  0  0  0  0  0  0  0  0  0  0
    3.2954    3.7377   -0.2644 H   0  0  0  0  0  0  0  0  0  0  0  0
    3.4062    2.4827   -1.4983 H   0  0  0  0  0  0  0  0  0  0  0  0
    2.9005   -1.0275    0.5536 H   0  0  0  0  0  0  0  0  0  0  0  0
    2.8322    0.2410    1.7749 H   0  0  0  0  0  0  0  0  0  0  0  0
    1.9330    0.3921   -1.1391 H   0  0  0  0  0  0  0  0  0  0  0  0
    0.9156    0.3399    0.2904 H   0  0  0  0  0  0  0  0  0  0  0  0
   -0.3606    1.6286    0.8196 H   0  0  0  0  0  0  0  0  0  0  0  0
   -1.5350    3.9245    1.2117 H   0  0  0  0  0  0  0  0  0  0  0  0
   -1.5235    3.9575   -0.5430 H   0  0  0  0  0  0  0  0  0  0  0  0
   -2.3239    1.5793   -1.6344 H   0  0  0  0  0  0  0  0  0  0  0  0
   -4.3311    0.1586   -1.6836 H   0  0  0  0  0  0  0  0  0  0  0  0
   -5.4641    1.6226    2.1665 H   0  0  0  0  0  0  0  0  0  0  0  0
   -3.4616    3.0464    2.2185 H   0  0  0  0  0  0  0  0  0  0  0  0
   -6.7501   -0.0819    1.1878 H   0  0  0  0  0  0  0  0  0  0  0  0
   -7.0332    0.4581   -0.4605 H   0  0  0  0  0  0  0  0  0  0  0  0
   -7.9351   -2.1028    0.3029 H   0  0  0  0  0  0  0  0  0  0  0  0
   -7.8481   -1.6978   -1.4155 H   0  0  0  0  0  0  0  0  0  0  0  0
   -7.4803   -4.2808   -0.4591 H   0  0  0  0  0  0  0  0  0  0  0  0
   -6.6684   -3.7235   -1.9115 H   0  0  0  0  0  0  0  0  0  0  0  0
   -5.3575   -4.3832    0.6189 H   0  0  0  0  0  0  0  0  0  0  0  0
   -4.6114   -3.7853   -0.8531 H   0  0  0  0  0  0  0  0  0  0  0  0
   -4.2132   -1.8740    0.5269 H   0  0  0  0  0  0  0  0  0  0  0  0
   -5.6253   -2.2158    1.5331 H   0  0  0  0  0  0  0  0  0  0  0  0
 28 27  1  0
 28 29  1  0
 27 26  1  0
 29 25  1  0
 26 25  1  0
 25 24  1  0
 24 21  1  0
 20 21  1  0
 20 19  2  0
 21 22  2  0
 19 18  1  0
 22 23  1  0
 18 17  1  0
 18 23  2  0
 17 16  1  0
 15 14  2  0
 16 14  1  0
 14 13  1  0
 13 10  1  0
 13 12  1  0
 10  9  1  0
 12 11  1  0
  9  8  1  0
 11  8  1  0
  8  2  1  0
  2  3  1  0
  2  1  2  0
  7  3  2  0
  7  6  1  0
  3  4  1  0
  6  5  2  0
  5  4  1  0
  5 30  1  0
  6 31  1  0
  7 32  1  0
  9 33  1  0
  9 34  1  0
 10 35  1  0
 10 36  1  0
 11 37  1  0
 11 38  1  0
 12 39  1  0
 12 40  1  0
 16 41  1  0
 17 42  1  0
 17 43  1  0
 19 44  1  0
 20 45  1  0
 22 46  1  0
 23 47  1  0
 24 48  1  0
 24 49  1  0
 26 50  1  0
 26 51  1  0
 27 52  1  0
 27 53  1  0
 28 54  1  0
 28 55  1  0
 29 56  1  0
 29 57  1  0
M  END
