
     RDKit          3D

 24 24  0  0  0  0  0  0  0  0999 V2000
    1.9739   -0.0983    0.8287 N   0  0  0  0  0  0  0  0  0  0  0  0
    0.9293   -0.1291    1.6395 C   0  0  0  0  0  0  0  0  0  0  0  0
    1.1706   -0.2685    3.1117 C   0  0  0  0  0  0  0  0  0  0  0  0
   -0.3801   -0.0251    1.1449 C   0  0  0  0  0  0  0  0  0  0  0  0
   -1.3946   -0.0476    2.0202 O   0  0  0  0  0  0  0  0  0  0  0  0
   -0.5865    0.1094   -0.2305 C   0  0  0  0  0  0  0  0  0  0  0  0
    0.5333    0.1352   -1.0673 C   0  0  0  0  0  0  0  0  0  0  0  0
    0.3704    0.2857   -2.5567 C   0  0  0  0  0  0  0  0  0  0  0  0
    1.6274    0.2881   -3.1807 O   0  0  0  0  0  0  0  0  0  0  0  0
    1.7857    0.0272   -0.4823 C   0  0  0  0  0  0  0  0  0  0  0  0
   -1.9882    0.2765   -0.7647 C   0  0  0  0  0  0  0  0  0  0  0  0
   -2.9434   -0.5159    0.0090 N   0  0  0  0  0  0  0  0  0  0  0  0
    0.8270    0.6094    3.6629 H   0  0  0  0  0  0  0  0  0  0  0  0
    0.6415   -1.1280    3.5271 H   0  0  0  0  0  0  0  0  0  0  0  0
    2.2344   -0.3946    3.3035 H   0  0  0  0  0  0  0  0  0  0  0  0
   -2.2227   -0.2291    1.4766 H   0  0  0  0  0  0  0  0  0  0  0  0
   -0.1798    1.2132   -2.7676 H   0  0  0  0  0  0  0  0  0  0  0  0
   -0.2580   -0.5353   -2.9314 H   0  0  0  0  0  0  0  0  0  0  0  0
    1.4878    0.3831   -4.1269 H   0  0  0  0  0  0  0  0  0  0  0  0
    2.6814    0.0418   -1.0895 H   0  0  0  0  0  0  0  0  0  0  0  0
   -2.0314    0.0442   -1.8314 H   0  0  0  0  0  0  0  0  0  0  0  0
   -2.2740    1.3278   -0.6703 H   0  0  0  0  0  0  0  0  0  0  0  0
   -3.8904   -0.2218   -0.1902 H   0  0  0  0  0  0  0  0  0  0  0  0
   -2.8779   -1.4941   -0.2447 H   0  0  0  0  0  0  0  0  0  0  0  0
  1  2  2  0
  1 10  1  0
  2  3  1  0
  2  4  1  0
  3 13  1  0
  3 14  1  0
  3 15  1  0
  4  5  1  0
  4  6  2  0
  5 16  1  0
  6  7  1  0
  6 11  1  0
  7  8  1  0
  7 10  2  0
  8  9  1  0
  8 17  1  0
  8 18  1  0
  9 19  1  0
 10 20  1  0
 11 12  1  0
 11 21  1  0
 11 22  1  0
 12 23  1  0
 12 24  1  0
M  END
