
     RDKit          3D

 44 47  0  0  0  0  0  0  0  0999 V2000
   -1.4751   -1.8974    0.9720 C   0  0  0  0  0  0  0  0  0  0  0  0
   -1.9430   -3.2022    0.9219 C   0  0  0  0  0  0  0  0  0  0  0  0
   -1.5643   -4.0410   -0.1185 C   0  0  0  0  0  0  0  0  0  0  0  0
   -0.7164   -3.5636   -1.1094 C   0  0  0  0  0  0  0  0  0  0  0  0
   -0.2507   -2.2578   -1.0595 C   0  0  0  0  0  0  0  0  0  0  0  0
   -0.6233   -1.4084   -0.0177 C   0  0  0  0  0  0  0  0  0  0  0  0
   -0.1178   -0.0292    0.0204 C   0  0  0  0  0  0  0  0  0  0  0  0
    1.2530    0.4074   -0.0464 C   0  0  0  0  0  0  0  0  0  0  0  0
    2.5530   -0.1557   -0.1071 C   0  0  0  0  0  0  0  0  0  0  0  0
    2.8059   -1.4807    0.0697 N   0  0  0  0  0  0  0  0  0  0  0  0
    4.1082   -1.9991   -0.2862 C   0  0  0  0  0  0  0  0  0  0  0  0
    2.1577   -2.2227    1.1344 C   0  0  0  0  0  0  0  0  0  0  0  0
    3.5878    0.6328   -0.3737 N   0  0  0  0  0  0  0  0  0  0  0  0
    3.4067    1.9568   -0.4782 C   0  0  0  0  0  0  0  0  0  0  0  0
    4.5236    2.6910   -0.7236 N   0  0  0  0  0  0  0  0  0  0  0  0
    2.2696    2.6170   -0.3031 N   0  0  0  0  0  0  0  0  0  0  0  0
    1.2319    1.8086   -0.1077 C   0  0  0  0  0  0  0  0  0  0  0  0
   -0.0531    2.2095    0.0023 N   0  0  0  0  0  0  0  0  0  0  0  0
   -0.8878    1.1090    0.0484 C   0  0  0  0  0  0  0  0  0  0  0  0
   -2.3374    1.2921    0.0912 C   0  0  0  0  0  0  0  0  0  0  0  0
   -2.8906    2.3411    0.8311 C   0  0  0  0  0  0  0  0  0  0  0  0
   -4.2633    2.5366    0.8666 C   0  0  0  0  0  0  0  0  0  0  0  0
   -5.1090    1.6860    0.1678 C   0  0  0  0  0  0  0  0  0  0  0  0
   -4.5686    0.6432   -0.5748 C   0  0  0  0  0  0  0  0  0  0  0  0
   -3.1972    0.4500   -0.6187 C   0  0  0  0  0  0  0  0  0  0  0  0
   -1.7666   -1.2529    1.7922 H   0  0  0  0  0  0  0  0  0  0  0  0
   -2.5995   -3.5673    1.7013 H   0  0  0  0  0  0  0  0  0  0  0  0
   -1.9264   -5.0603   -0.1564 H   0  0  0  0  0  0  0  0  0  0  0  0
   -0.4171   -4.2098   -1.9248 H   0  0  0  0  0  0  0  0  0  0  0  0
    0.4089   -1.8931   -1.8372 H   0  0  0  0  0  0  0  0  0  0  0  0
    4.8655   -1.8068    0.4808 H   0  0  0  0  0  0  0  0  0  0  0  0
    4.0235   -3.0783   -0.4136 H   0  0  0  0  0  0  0  0  0  0  0  0
    4.4534   -1.5704   -1.2229 H   0  0  0  0  0  0  0  0  0  0  0  0
    1.3428   -1.6557    1.5694 H   0  0  0  0  0  0  0  0  0  0  0  0
    1.7613   -3.1737    0.7779 H   0  0  0  0  0  0  0  0  0  0  0  0
    2.8786   -2.4256    1.9329 H   0  0  0  0  0  0  0  0  0  0  0  0
    5.3190    2.2047   -1.0994 H   0  0  0  0  0  0  0  0  0  0  0  0
    4.3944    3.6325   -1.0525 H   0  0  0  0  0  0  0  0  0  0  0  0
   -0.3605    3.1629   -0.1099 H   0  0  0  0  0  0  0  0  0  0  0  0
   -2.2468    3.0019    1.3988 H   0  0  0  0  0  0  0  0  0  0  0  0
   -2.7911   -0.3517   -1.2203 H   0  0  0  0  0  0  0  0  0  0  0  0
   -4.6725    3.3535    1.4468 H   0  0  0  0  0  0  0  0  0  0  0  0
   -6.1802    1.8373    0.1974 H   0  0  0  0  0  0  0  0  0  0  0  0
   -5.2178   -0.0175   -1.1344 H   0  0  0  0  0  0  0  0  0  0  0  0
  1  2  2  0
  1  6  1  0
  2  3  1  0
  3  4  2  0
  4  5  1  0
  5  6  2  0
  6  7  1  0
  7  8  1  0
  7 19  2  0
  8  9  2  0
  8 17  1  0
  9 10  1  0
  9 13  1  0
 10 11  1  0
 10 12  1  0
 13 14  2  0
 14 15  1  0
 14 16  1  0
 16 17  2  0
 17 18  1  0
 18 19  1  0
 19 20  1  0
 20 21  2  0
 20 25  1  0
 21 22  1  0
 22 23  2  0
 23 24  1  0
 24 25  2  0
  1 26  1  0
  2 27  1  0
  3 28  1  0
  4 29  1  0
  5 30  1  0
 11 31  1  0
 11 32  1  0
 11 33  1  0
 12 34  1  0
 12 35  1  0
 12 36  1  0
 15 37  1  0
 15 38  1  0
 18 39  1  0
 21 40  1  0
 25 41  1  0
 22 42  1  0
 23 43  1  0
 24 44  1  0
M  END
