
     RDKit          3D

 62 63  0  0  0  0  0  0  0  0999 V2000
   -4.3683    4.2568    0.3636 C   0  0  0  0  0  0  0  0  0  0  0  0
   -5.7411    3.7537    0.0301 C   0  0  0  0  0  0  0  0  0  0  0  0
   -6.8352    4.7648    0.2158 C   0  0  0  0  0  0  0  0  0  0  0  0
   -6.0134    2.5194   -0.4008 C   0  0  0  0  0  0  0  0  0  0  0  0
   -5.0545    1.3941   -0.6377 C   0  0  0  0  0  0  0  0  0  0  0  0
   -5.1445    0.3192    0.4574 C   0  0  0  0  0  0  0  0  0  0  0  0
   -4.3284   -0.8953    0.1182 C   0  0  0  0  0  0  0  0  0  0  0  0
   -4.8618   -1.7715   -0.9879 C   0  0  0  0  0  0  0  0  0  0  0  0
   -3.1858   -1.1585    0.7639 C   0  0  0  0  0  0  0  0  0  0  0  0
   -2.2752   -2.3266    0.4966 C   0  0  0  0  0  0  0  0  0  0  0  0
   -0.8288   -1.9156    0.3510 C   0  0  0  0  0  0  0  0  0  0  0  0
    0.1812   -2.4412    1.1672 C   0  0  0  0  0  0  0  0  0  0  0  0
    1.5083   -2.0632    0.9888 C   0  0  0  0  0  0  0  0  0  0  0  0
   -0.2102   -3.3202    2.1036 O   0  0  0  0  0  0  0  0  0  0  0  0
    0.7544   -3.8758    2.9768 C   0  0  0  0  0  0  0  0  0  0  0  0
   -0.4574   -1.0037   -0.6356 C   0  0  0  0  0  0  0  0  0  0  0  0
   -1.3801   -0.4391   -1.4397 O   0  0  0  0  0  0  0  0  0  0  0  0
    0.8784   -0.6194   -0.8251 C   0  0  0  0  0  0  0  0  0  0  0  0
    1.2197    0.3676   -1.8815 C   0  0  0  0  0  0  0  0  0  0  0  0
    0.7937   -0.0002   -3.0824 O   0  0  0  0  0  0  0  0  0  0  0  0
    1.8401    1.3865   -1.6900 O   0  0  0  0  0  0  0  0  0  0  0  0
    1.8668   -1.1518    0.0033 C   0  0  0  0  0  0  0  0  0  0  0  0
    3.3194   -0.7712   -0.0998 C   0  0  0  0  0  0  0  0  0  0  0  0
    3.6800    0.3606    0.8752 C   0  0  0  0  0  0  0  0  0  0  0  0
    5.1200    0.7673    0.7413 C   0  0  0  0  0  0  0  0  0  0  0  0
    5.5263    1.5832   -0.3141 C   0  0  0  0  0  0  0  0  0  0  0  0
    6.8598    1.9338   -0.4709 C   0  0  0  0  0  0  0  0  0  0  0  0
    7.8132    1.4722    0.4290 C   0  0  0  0  0  0  0  0  0  0  0  0
    7.4208    0.6595    1.4838 C   0  0  0  0  0  0  0  0  0  0  0  0
    6.0844    0.3102    1.6355 C   0  0  0  0  0  0  0  0  0  0  0  0
   -4.0957    5.0963   -0.2813 H   0  0  0  0  0  0  0  0  0  0  0  0
   -4.3424    4.6361    1.3883 H   0  0  0  0  0  0  0  0  0  0  0  0
   -3.5930    3.4995    0.2724 H   0  0  0  0  0  0  0  0  0  0  0  0
   -6.6624    5.6455   -0.4084 H   0  0  0  0  0  0  0  0  0  0  0  0
   -7.8157    4.3602   -0.0344 H   0  0  0  0  0  0  0  0  0  0  0  0
   -6.8695    5.1212    1.2486 H   0  0  0  0  0  0  0  0  0  0  0  0
   -7.0559    2.2737   -0.5911 H   0  0  0  0  0  0  0  0  0  0  0  0
   -5.2833    0.9408   -1.6076 H   0  0  0  0  0  0  0  0  0  0  0  0
   -4.0224    1.7452   -0.7019 H   0  0  0  0  0  0  0  0  0  0  0  0
   -4.8163    0.7492    1.4066 H   0  0  0  0  0  0  0  0  0  0  0  0
   -6.1918    0.0255    0.5868 H   0  0  0  0  0  0  0  0  0  0  0  0
   -5.7545   -1.3415   -1.4402 H   0  0  0  0  0  0  0  0  0  0  0  0
   -4.1353   -1.9232   -1.7887 H   0  0  0  0  0  0  0  0  0  0  0  0
   -5.1322   -2.7598   -0.6128 H   0  0  0  0  0  0  0  0  0  0  0  0
   -2.8744   -0.4896    1.5623 H   0  0  0  0  0  0  0  0  0  0  0  0
   -2.3725   -3.0442    1.3115 H   0  0  0  0  0  0  0  0  0  0  0  0
   -2.5950   -2.8583   -0.4042 H   0  0  0  0  0  0  0  0  0  0  0  0
    2.2920   -2.4796    1.6075 H   0  0  0  0  0  0  0  0  0  0  0  0
    1.4981   -4.4686    2.4392 H   0  0  0  0  0  0  0  0  0  0  0  0
    1.2677   -3.1084    3.5609 H   0  0  0  0  0  0  0  0  0  0  0  0
    0.2112   -4.5277    3.6559 H   0  0  0  0  0  0  0  0  0  0  0  0
   -2.2491   -0.4563   -1.0075 H   0  0  0  0  0  0  0  0  0  0  0  0
    1.0127    0.6849   -3.7328 H   0  0  0  0  0  0  0  0  0  0  0  0
    3.9304   -1.6454    0.1367 H   0  0  0  0  0  0  0  0  0  0  0  0
    3.5863   -0.4760   -1.1150 H   0  0  0  0  0  0  0  0  0  0  0  0
    3.0292    1.2148    0.6836 H   0  0  0  0  0  0  0  0  0  0  0  0
    3.4780    0.0310    1.8971 H   0  0  0  0  0  0  0  0  0  0  0  0
    4.7880    1.9486   -1.0191 H   0  0  0  0  0  0  0  0  0  0  0  0
    5.7870   -0.3219    2.4648 H   0  0  0  0  0  0  0  0  0  0  0  0
    7.1554    2.5694   -1.2962 H   0  0  0  0  0  0  0  0  0  0  0  0
    8.8533    1.7468    0.3094 H   0  0  0  0  0  0  0  0  0  0  0  0
    8.1550    0.2976    2.1924 H   0  0  0  0  0  0  0  0  0  0  0  0
  1  2  1  0
  2  3  1  0
  2  4  2  0
  4  5  1  0
  5  6  1  0
  6  7  1  0
  7  8  1  0
  7  9  2  0
  9 10  1  0
 10 11  1  0
 11 12  2  0
 11 16  1  0
 12 13  1  0
 12 14  1  0
 13 22  2  0
 14 15  1  0
 16 17  1  0
 16 18  2  0
 18 19  1  0
 18 22  1  0
 19 20  1  0
 19 21  2  0
 22 23  1  0
 23 24  1  0
 24 25  1  0
 25 26  2  0
 25 30  1  0
 26 27  1  0
 27 28  2  0
 28 29  1  0
 29 30  2  0
  1 31  1  0
  1 32  1  0
  1 33  1  0
  3 34  1  0
  3 35  1  0
  3 36  1  0
  4 37  1  0
  5 38  1  0
  5 39  1  0
  6 40  1  0
  6 41  1  0
  8 42  1  0
  8 43  1  0
  8 44  1  0
  9 45  1  0
 10 46  1  0
 10 47  1  0
 13 48  1  0
 15 49  1  0
 15 50  1  0
 15 51  1  0
 17 52  1  0
 20 53  1  0
 23 54  1  0
 23 55  1  0
 24 56  1  0
 24 57  1  0
 26 58  1  0
 30 59  1  0
 27 60  1  0
 28 61  1  0
 29 62  1  0
M  END
