
     RDKit          3D

 74 77  0  0  0  0  0  0  0  0999 V2000
   -6.4317    1.1787   -0.4375 C   0  0  0  0  0  0  0  0  0  0  0  0
   -7.6245    0.4214   -0.4902 C   0  0  0  0  0  0  0  0  0  0  0  0
   -7.5530   -0.6785    0.3083 C   0  0  0  0  0  0  0  0  0  0  0  0
   -8.7577   -1.8611    0.5345 Cl  0  0  0  0  0  0  0  0  0  0  0  0
   -6.0528   -0.8101    1.1267 S   0  0  0  0  0  0  0  0  0  0  0  0
   -5.4872    0.6492    0.3950 C   0  0  0  0  0  0  0  0  0  0  0  0
   -4.1537    1.2422    0.6287 C   0  0  0  0  0  0  0  0  0  0  0  0
   -3.7828    2.2003   -0.0347 O   0  0  0  0  0  0  0  0  0  0  0  0
   -3.3954    0.6901    1.5927 N   0  0  0  0  0  0  0  0  0  0  0  0
   -2.0543    1.1403    1.8505 C   0  0  0  0  0  0  0  0  0  0  0  0
   -1.0636    0.6344    0.7942 C   0  0  1  0  0  0  0  0  0  0  0  0
    0.3144    1.2299    1.0846 C   0  0  0  0  0  0  0  0  0  0  0  0
    1.0221    0.7017    1.9353 O   0  0  0  0  0  0  0  0  0  0  0  0
    0.6660    2.3314    0.4212 N   0  0  0  0  0  0  0  0  0  0  0  0
    1.9247    3.0053    0.7033 C   0  0  0  0  0  0  0  0  0  0  0  0
   -0.1167    3.0285   -0.5980 C   0  0  0  0  0  0  0  0  0  0  0  0
    0.8734    4.0290   -1.1716 C   0  0  0  0  0  0  0  0  0  0  0  0
    1.7784    4.3619    0.0126 C   0  0  2  0  0  0  0  0  0  0  0  0
    3.0558    4.9295   -0.3646 N   0  0  0  0  0  0  0  0  0  0  0  0
    2.8906    6.1745   -1.0879 C   0  0  0  0  0  0  0  0  0  0  0  0
    3.9120    5.1270    0.7890 C   0  0  0  0  0  0  0  0  0  0  0  0
   -1.0219   -0.8180    0.8280 N   0  0  0  0  0  0  0  0  0  0  0  0
   -0.6855   -1.6057   -0.5795 S   0  0  1  0  0  0  0  0  0  0  0  0
   -0.5671   -3.0141   -0.2548 O   0  0  0  0  0  0  0  0  0  0  0  0
   -1.6718   -1.1761   -1.5544 O   0  0  0  0  0  0  0  0  0  0  0  0
    0.8813   -0.9562   -1.1268 C   0  0  0  0  0  0  0  0  0  0  0  0
    2.0431   -1.2272   -0.4067 C   0  0  0  0  0  0  0  0  0  0  0  0
    1.9509   -2.0063    0.7110 O   0  0  0  0  0  0  0  0  0  0  0  0
    2.3218   -3.3255    0.6752 C   0  0  1  0  0  0  0  0  0  0  0  0
    2.3408   -3.7900   -0.5834 F   0  0  0  0  0  0  0  0  0  0  0  0
    3.5771   -3.4660    1.1574 F   0  0  0  0  0  0  0  0  0  0  0  0
    0.9099   -0.1058   -2.2220 C   0  0  0  0  0  0  0  0  0  0  0  0
    2.1081    0.4824   -2.5958 C   0  0  0  0  0  0  0  0  0  0  0  0
    3.2585    0.2338   -1.8676 C   0  0  0  0  0  0  0  0  0  0  0  0
    3.2379   -0.6177   -0.7689 C   0  0  0  0  0  0  0  0  0  0  0  0
    4.4005   -0.8199    0.0082 N   0  0  0  0  0  0  0  0  0  0  0  0
    4.5317    0.0259    1.1978 C   0  0  0  0  0  0  0  0  0  0  0  0
    5.5700   -0.5094    2.1588 C   0  0  0  0  0  0  0  0  0  0  0  0
    6.8573   -0.7991    1.4092 C   0  0  0  0  0  0  0  0  0  0  0  0
    6.5965   -1.8624    0.3534 C   0  0  0  0  0  0  0  0  0  0  0  0
    5.3567   -1.6520   -0.4814 C   0  0  0  0  0  0  0  0  0  0  0  0
    5.1971   -2.2412   -1.5390 O   0  0  0  0  0  0  0  0  0  0  0  0
   -6.2789    2.0911   -0.9953 H   0  0  0  0  0  0  0  0  0  0  0  0
   -8.4870    0.6757   -1.0879 H   0  0  0  0  0  0  0  0  0  0  0  0
   -3.7178   -0.1088    2.1133 H   0  0  0  0  0  0  0  0  0  0  0  0
   -2.0235    2.2302    1.8828 H   0  0  0  0  0  0  0  0  0  0  0  0
   -1.7606    0.7791    2.8353 H   0  0  0  0  0  0  0  0  0  0  0  0
   -1.4418    0.9350   -0.1827 H   0  0  0  0  0  0  0  0  0  0  0  0
   -0.5050   -1.1944    1.6185 H   0  0  0  0  0  0  0  0  0  0  0  0
    2.0898    3.0824    1.7772 H   0  0  0  0  0  0  0  0  0  0  0  0
    2.7626    2.4535    0.2653 H   0  0  0  0  0  0  0  0  0  0  0  0
   -0.4860    2.3477   -1.3647 H   0  0  0  0  0  0  0  0  0  0  0  0
   -0.9801    3.5291   -0.1518 H   0  0  0  0  0  0  0  0  0  0  0  0
    1.2298    5.0421    0.6916 H   0  0  0  0  0  0  0  0  0  0  0  0
    1.4714    3.5616   -1.9582 H   0  0  0  0  0  0  0  0  0  0  0  0
    0.3664    4.8939   -1.5957 H   0  0  0  0  0  0  0  0  0  0  0  0
    2.3661    6.9482   -0.5055 H   0  0  0  0  0  0  0  0  0  0  0  0
    3.8686    6.5712   -1.3618 H   0  0  0  0  0  0  0  0  0  0  0  0
    2.3339    6.0171   -2.0113 H   0  0  0  0  0  0  0  0  0  0  0  0
    4.1558    4.1763    1.2644 H   0  0  0  0  0  0  0  0  0  0  0  0
    4.8529    5.5778    0.4725 H   0  0  0  0  0  0  0  0  0  0  0  0
    3.4666    5.7834    1.5530 H   0  0  0  0  0  0  0  0  0  0  0  0
    0.0080    0.1017   -2.7805 H   0  0  0  0  0  0  0  0  0  0  0  0
    1.6418   -3.9079    1.2925 H   0  0  0  0  0  0  0  0  0  0  0  0
    2.1376    1.1475   -3.4476 H   0  0  0  0  0  0  0  0  0  0  0  0
    4.1907    0.7091   -2.1440 H   0  0  0  0  0  0  0  0  0  0  0  0
    4.8047    1.0396    0.8834 H   0  0  0  0  0  0  0  0  0  0  0  0
    3.5567    0.0945    1.6794 H   0  0  0  0  0  0  0  0  0  0  0  0
    5.7232    0.2305    2.9453 H   0  0  0  0  0  0  0  0  0  0  0  0
    5.1998   -1.4197    2.6379 H   0  0  0  0  0  0  0  0  0  0  0  0
    7.2213    0.1181    0.9379 H   0  0  0  0  0  0  0  0  0  0  0  0
    7.6411   -1.1385    2.0871 H   0  0  0  0  0  0  0  0  0  0  0  0
    7.4389   -1.9641   -0.3321 H   0  0  0  0  0  0  0  0  0  0  0  0
    6.4763   -2.8389    0.8345 H   0  0  0  0  0  0  0  0  0  0  0  0
  1  2  1  0
  1  6  2  0
  2  3  2  0
  3  4  1  0
  3  5  1  0
  5  6  1  0
  6  7  1  0
  7  8  2  0
  7  9  1  0
  9 10  1  0
 10 11  1  0
 11 12  1  0
 11 22  1  0
 12 13  2  0
 12 14  1  0
 14 15  1  0
 14 16  1  0
 15 18  1  0
 16 17  1  0
 17 18  1  0
 18 19  1  0
 19 20  1  0
 19 21  1  0
 23 22  1  1
 23 24  2  0
 23 25  2  0
 23 26  1  0
 26 27  2  0
 26 32  1  0
 27 28  1  0
 27 35  1  0
 28 29  1  0
 29 30  1  0
 29 31  1  0
 32 33  2  0
 33 34  1  0
 34 35  2  0
 35 36  1  0
 36 37  1  0
 36 41  1  0
 37 38  1  0
 38 39  1  0
 39 40  1  0
 40 41  1  0
 41 42  2  0
  1 43  1  0
  2 44  1  0
  9 45  1  0
 10 46  1  0
 10 47  1  0
 11 48  1  6
 22 49  1  0
 15 50  1  0
 15 51  1  0
 16 52  1  0
 16 53  1  0
 18 54  1  1
 17 55  1  0
 17 56  1  0
 20 57  1  0
 20 58  1  0
 20 59  1  0
 21 60  1  0
 21 61  1  0
 21 62  1  0
 32 63  1  0
 29 64  1  1
 33 65  1  0
 34 66  1  0
 37 67  1  0
 37 68  1  0
 38 69  1  0
 38 70  1  0
 39 71  1  0
 39 72  1  0
 40 73  1  0
 40 74  1  0
M  END
