
     RDKit          3D

 43 44  0  0  0  0  0  0  0  0999 V2000
    1.7920   -0.5727    0.0355 N   0  0  0  0  0  0  0  0  0  0  0  0
    3.1286   -0.2440   -0.3569 C   0  0  1  0  0  0  0  0  0  0  0  0
    3.5198    1.1298    0.1973 C   0  0  0  0  0  0  0  0  0  0  0  0
    3.2655    1.4986    1.3185 O   0  0  0  0  0  0  0  0  0  0  0  0
   -6.2156    0.8531    0.7542 C   0  0  0  0  0  0  0  0  0  0  0  0
    4.0933   -1.2394    0.1948 C   0  0  0  0  0  0  0  0  0  0  0  0
    0.7780    0.2515   -0.3028 C   0  0  0  0  0  0  0  0  0  0  0  0
   -0.5903   -0.1770    0.1639 C   0  0  0  0  0  0  0  0  0  0  0  0
   -1.7272    0.5162   -0.5705 C   0  0  0  0  0  0  0  0  0  0  0  0
   -3.0881    0.0367   -0.0839 C   0  0  0  0  0  0  0  0  0  0  0  0
   -4.2428    0.7300   -0.8078 C   0  0  0  0  0  0  0  0  0  0  0  0
   -5.5812    0.2442   -0.3270 C   0  0  0  0  0  0  0  0  0  0  0  0
   -7.4293    0.3758    1.2316 C   0  0  0  0  0  0  0  0  0  0  0  0
   -8.0300   -0.7245    0.6332 C   0  0  0  0  0  0  0  0  0  0  0  0
   -7.4078   -1.3407   -0.4451 C   0  0  0  0  0  0  0  0  0  0  0  0
   -6.1944   -0.8588   -0.9184 C   0  0  0  0  0  0  0  0  0  0  0  0
    4.2784    1.8598   -0.6568 N   0  0  0  0  0  0  0  0  0  0  0  0
    4.7092    3.1171   -0.2474 N   0  0  0  0  0  0  0  0  0  0  0  0
    4.9775   -2.6359    1.4969 N   0  0  0  0  0  0  0  0  0  0  0  0
    5.7299   -2.4008    0.4677 N   0  0  0  0  0  0  0  0  0  0  0  0
    3.9255   -1.8990    1.3484 N   0  0  0  0  0  0  0  0  0  0  0  0
    5.2346   -1.5449   -0.3828 N   0  0  0  0  0  0  0  0  0  0  0  0
    0.9969    1.2750   -0.9329 O   0  0  0  0  0  0  0  0  0  0  0  0
    1.6233   -1.4006    0.5856 H   0  0  0  0  0  0  0  0  0  0  0  0
    3.2313   -0.2398   -1.4467 H   0  0  0  0  0  0  0  0  0  0  0  0
   -0.6789   -1.2628    0.0682 H   0  0  0  0  0  0  0  0  0  0  0  0
   -0.6540    0.0324    1.2375 H   0  0  0  0  0  0  0  0  0  0  0  0
   -1.6518    1.5976   -0.4345 H   0  0  0  0  0  0  0  0  0  0  0  0
   -1.6410    0.3321   -1.6450 H   0  0  0  0  0  0  0  0  0  0  0  0
   -3.1716   -1.0454   -0.2261 H   0  0  0  0  0  0  0  0  0  0  0  0
   -3.1798    0.2122    0.9927 H   0  0  0  0  0  0  0  0  0  0  0  0
   -4.1632    1.8103   -0.6581 H   0  0  0  0  0  0  0  0  0  0  0  0
   -4.1487    0.5547   -1.8831 H   0  0  0  0  0  0  0  0  0  0  0  0
   -7.9087    0.8665    2.0693 H   0  0  0  0  0  0  0  0  0  0  0  0
   -8.9774   -1.0963    1.0016 H   0  0  0  0  0  0  0  0  0  0  0  0
   -7.8699   -2.1962   -0.9215 H   0  0  0  0  0  0  0  0  0  0  0  0
   -5.7167   -1.3462   -1.7611 H   0  0  0  0  0  0  0  0  0  0  0  0
    4.3746    1.6711   -1.6438 H   0  0  0  0  0  0  0  0  0  0  0  0
    4.4871    3.2342    0.7487 H   0  0  0  0  0  0  0  0  0  0  0  0
    5.7205    3.2158   -0.3608 H   0  0  0  0  0  0  0  0  0  0  0  0
    6.6249   -2.8561    0.3356 H   0  0  0  0  0  0  0  0  0  0  0  0
    4.2469    3.8701   -0.7634 H   0  0  0  0  0  0  0  0  0  0  0  0
   -5.7553    1.7133    1.2274 H   0  0  0  0  0  0  0  0  0  0  0  0
  4  3  2  0
  3  2  1  0
  3 17  1  0
  2  6  1  0
  2  1  1  0
 23  7  2  0
  6 22  2  0
  6 21  1  0
 22 20  1  0
 20 19  1  0
 21 19  2  0
  7  1  1  0
  7  8  1  0
 17 18  1  0
  9  8  1  0
  9 10  1  0
 11 10  1  0
 11 12  1  0
  5 12  2  0
  5 13  1  0
 12 16  1  0
 13 14  2  0
 16 15  2  0
 14 15  1  0
  1 24  1  0
  2 25  1  6
  5 43  1  0
  8 26  1  0
  8 27  1  0
  9 28  1  0
  9 29  1  0
 10 30  1  0
 10 31  1  0
 11 32  1  0
 11 33  1  0
 13 34  1  0
 14 35  1  0
 15 36  1  0
 16 37  1  0
 17 38  1  0
 18 39  1  0
 18 40  1  0
 20 41  1  0
 18 42  1  0
M  CHG  1  18   1
M  END
