
     RDKit          3D

 19 20  0  0  0  0  0  0  0  0999 V2000
    3.8780   -0.7719   -0.0471 C   0  0  0  0  0  0  0  0  0  0  0  0
    2.4851   -0.2100   -0.0336 C   0  0  0  0  0  0  0  0  0  0  0  0
    2.2732    1.1735   -0.0096 C   0  0  0  0  0  0  0  0  0  0  0  0
    1.0030    1.7237    0.0324 C   0  0  0  0  0  0  0  0  0  0  0  0
   -0.1061    0.8819    0.0502 C   0  0  0  0  0  0  0  0  0  0  0  0
    0.1112   -0.5047    0.0240 C   0  0  0  0  0  0  0  0  0  0  0  0
    1.3809   -1.0569   -0.0191 C   0  0  0  0  0  0  0  0  0  0  0  0
   -1.4266   -1.3202    0.0453 S   0  0  0  0  0  0  0  0  0  0  0  0
   -2.2122    0.2590    0.0824 C   0  0  0  0  0  0  0  0  0  0  0  0
   -1.4215    1.2800    0.0816 N   0  0  0  0  0  0  0  0  0  0  0  0
   -3.5533    0.3250    0.1576 N   0  0  0  0  0  0  0  0  0  0  0  0
    4.2699   -0.8797    0.9665 H   0  0  0  0  0  0  0  0  0  0  0  0
    3.9075   -1.7574   -0.5110 H   0  0  0  0  0  0  0  0  0  0  0  0
    4.5653   -0.1241   -0.5911 H   0  0  0  0  0  0  0  0  0  0  0  0
    3.1297    1.8366   -0.0266 H   0  0  0  0  0  0  0  0  0  0  0  0
    0.8665    2.7975    0.0458 H   0  0  0  0  0  0  0  0  0  0  0  0
    1.5154   -2.1315   -0.0429 H   0  0  0  0  0  0  0  0  0  0  0  0
   -4.1071   -0.4683   -0.1179 H   0  0  0  0  0  0  0  0  0  0  0  0
   -3.9742    1.2229   -0.0223 H   0  0  0  0  0  0  0  0  0  0  0  0
  1  2  1  0
  2  3  2  0
  2  7  1  0
  3  4  1  0
  4  5  2  0
  5  6  1  0
  5 10  1  0
  6  7  2  0
  6  8  1  0
  8  9  1  0
  9 10  2  0
  9 11  1  0
  1 12  1  0
  1 13  1  0
  1 14  1  0
  3 15  1  0
  4 16  1  0
  7 17  1  0
 11 18  1  0
 11 19  1  0
M  END
