
     RDKit          3D

 52 51  0  0  0  0  0  0  0  0999 V2000
    0.1611   -0.6825    9.0122 O   0  0  0  0  0  0  0  0  0  0  0  0
   -1.0075   -0.8042    8.2338 C   0  0  0  0  0  0  0  0  0  0  0  0
   -1.1631    0.4167    7.3638 C   0  0  0  0  0  0  0  0  0  0  0  0
   -0.1177    0.4773    6.4262 O   0  0  0  0  0  0  0  0  0  0  0  0
   -0.2245    1.5876    5.5732 C   0  0  0  0  0  0  0  0  0  0  0  0
    0.9424    1.6188    4.6209 C   0  0  0  0  0  0  0  0  0  0  0  0
    0.8976    0.5025    3.7691 O   0  0  0  0  0  0  0  0  0  0  0  0
    1.9420    0.5038    2.8296 C   0  0  0  0  0  0  0  0  0  0  0  0
    1.8780   -0.7417    1.9846 C   0  0  0  0  0  0  0  0  0  0  0  0
    0.7005   -0.7426    1.2182 O   0  0  0  0  0  0  0  0  0  0  0  0
    0.6106   -1.8624    0.3749 C   0  0  0  0  0  0  0  0  0  0  0  0
   -0.6984   -1.8448   -0.3709 C   0  0  0  0  0  0  0  0  0  0  0  0
   -0.7483   -0.7350   -1.2310 O   0  0  0  0  0  0  0  0  0  0  0  0
   -1.9202   -0.7103   -2.0056 C   0  0  0  0  0  0  0  0  0  0  0  0
   -1.9535    0.5352   -2.8523 C   0  0  0  0  0  0  0  0  0  0  0  0
   -0.9004    0.5154   -3.7817 O   0  0  0  0  0  0  0  0  0  0  0  0
   -0.9228    1.6283   -4.6390 C   0  0  0  0  0  0  0  0  0  0  0  0
    0.2550    1.5815   -5.5770 C   0  0  0  0  0  0  0  0  0  0  0  0
    0.1482    0.4684   -6.4263 O   0  0  0  0  0  0  0  0  0  0  0  0
    1.1994    0.3993   -7.3568 C   0  0  0  0  0  0  0  0  0  0  0  0
    1.0435   -0.8232   -8.2242 C   0  0  0  0  0  0  0  0  0  0  0  0
   -0.1212   -0.6998   -9.0082 O   0  0  0  0  0  0  0  0  0  0  0  0
    0.2367   -1.4686    9.5600 H   0  0  0  0  0  0  0  0  0  0  0  0
   -1.9087   -0.8774    8.8558 H   0  0  0  0  0  0  0  0  0  0  0  0
   -0.9849   -1.7012    7.6013 H   0  0  0  0  0  0  0  0  0  0  0  0
   -1.1814    1.3221    7.9882 H   0  0  0  0  0  0  0  0  0  0  0  0
   -2.1394    0.3587    6.8622 H   0  0  0  0  0  0  0  0  0  0  0  0
   -0.2218    2.5274    6.1436 H   0  0  0  0  0  0  0  0  0  0  0  0
   -1.1690    1.5635    5.0099 H   0  0  0  0  0  0  0  0  0  0  0  0
    1.8868    1.6457    5.1838 H   0  0  0  0  0  0  0  0  0  0  0  0
    0.8894    2.5557    4.0485 H   0  0  0  0  0  0  0  0  0  0  0  0
    2.9218    0.5249    3.3275 H   0  0  0  0  0  0  0  0  0  0  0  0
    1.8932    1.3962    2.1890 H   0  0  0  0  0  0  0  0  0  0  0  0
    1.9299   -1.6345    2.6246 H   0  0  0  0  0  0  0  0  0  0  0  0
    2.7695   -0.7602    1.3420 H   0  0  0  0  0  0  0  0  0  0  0  0
    0.6571   -2.7970    0.9517 H   0  0  0  0  0  0  0  0  0  0  0  0
    1.4485   -1.8866   -0.3368 H   0  0  0  0  0  0  0  0  0  0  0  0
   -1.5375   -1.8284    0.3394 H   0  0  0  0  0  0  0  0  0  0  0  0
   -0.7771   -2.7857   -0.9337 H   0  0  0  0  0  0  0  0  0  0  0  0
   -2.8162   -0.7092   -1.3690 H   0  0  0  0  0  0  0  0  0  0  0  0
   -1.9863   -1.6028   -2.6445 H   0  0  0  0  0  0  0  0  0  0  0  0
   -1.8957    1.4274   -2.2121 H   0  0  0  0  0  0  0  0  0  0  0  0
   -2.9281    0.5726   -3.3596 H   0  0  0  0  0  0  0  0  0  0  0  0
   -0.8670    2.5670   -4.0699 H   0  0  0  0  0  0  0  0  0  0  0  0
   -1.8603    1.6621   -5.2131 H   0  0  0  0  0  0  0  0  0  0  0  0
    1.1924    1.5512   -5.0023 H   0  0  0  0  0  0  0  0  0  0  0  0
    0.2676    2.5187   -6.1514 H   0  0  0  0  0  0  0  0  0  0  0  0
    2.1723    0.3378   -6.8489 H   0  0  0  0  0  0  0  0  0  0  0  0
    1.2266    1.3029   -7.9836 H   0  0  0  0  0  0  0  0  0  0  0  0
    1.0155   -1.7188   -7.5899 H   0  0  0  0  0  0  0  0  0  0  0  0
    1.9473   -0.9006   -8.8420 H   0  0  0  0  0  0  0  0  0  0  0  0
   -0.1978   -1.4880   -9.5529 H   0  0  0  0  0  0  0  0  0  0  0  0
  1  2  1  0
  1 23  1  0
  2  3  1  0
  2 24  1  0
  2 25  1  0
  3  4  1  0
  3 26  1  0
  3 27  1  0
  4  5  1  0
  5  6  1  0
  5 28  1  0
  5 29  1  0
  6  7  1  0
  6 30  1  0
  6 31  1  0
  7  8  1  0
  8  9  1  0
  8 32  1  0
  8 33  1  0
  9 10  1  0
  9 34  1  0
  9 35  1  0
 10 11  1  0
 11 12  1  0
 11 36  1  0
 11 37  1  0
 12 13  1  0
 12 38  1  0
 12 39  1  0
 13 14  1  0
 14 15  1  0
 14 40  1  0
 14 41  1  0
 15 16  1  0
 15 42  1  0
 15 43  1  0
 16 17  1  0
 17 18  1  0
 17 44  1  0
 17 45  1  0
 18 19  1  0
 18 46  1  0
 18 47  1  0
 19 20  1  0
 20 21  1  0
 20 48  1  0
 20 49  1  0
 21 22  1  0
 21 50  1  0
 21 51  1  0
 22 52  1  0
M  END
