
     RDKit          3D

101106  0  0  0  0  0  0  0  0999 V2000
  -13.2608   -2.4793   -0.2103 C   0  0  0  0  0  0  0  0  0  0  0  0
   -6.9248    0.7162   -1.5508 N   0  0  0  0  0  0  0  0  0  0  0  0
    1.1420    1.7357    2.8060 O   0  0  0  0  0  0  0  0  0  0  0  0
    2.9330    3.9103    1.9782 S   0  0  1  0  0  0  0  0  0  0  0  0
  -13.9187   -3.6605    0.1002 C   0  0  0  0  0  0  0  0  0  0  0  0
   -4.3475    1.2177   -0.4236 N   0  0  0  0  0  0  0  0  0  0  0  0
    2.9675    4.0032    3.4222 O   0  0  0  0  0  0  0  0  0  0  0  0
    8.9149   -0.3946   -0.4431 S   0  0  0  0  0  0  0  0  0  0  0  0
  -13.1968   -4.7823    0.4863 C   0  0  0  0  0  0  0  0  0  0  0  0
    1.3836    3.5300    1.4654 N   0  0  0  0  0  0  0  0  0  0  0  0
    3.2801    5.0665    1.1722 O   0  0  0  0  0  0  0  0  0  0  0  0
  -11.8117   -4.7122    0.5588 C   0  0  0  0  0  0  0  0  0  0  0  0
    5.3266   -0.4917    2.9569 N   0  0  0  0  0  0  0  0  0  0  0  0
    5.9137   -1.5112    2.6374 O   0  0  0  0  0  0  0  0  0  0  0  0
  -11.1546   -3.5305    0.2486 C   0  0  0  0  0  0  0  0  0  0  0  0
    6.0131   -0.7816    0.1152 N   0  0  0  0  0  0  0  0  0  0  0  0
    5.0260   -0.2537    4.1040 O   0  0  0  0  0  0  0  0  0  0  0  0
  -11.8688   -2.3955   -0.1406 C   0  0  0  0  0  0  0  0  0  0  0  0
    3.1453   -2.5690   -2.6153 N   0  0  0  0  0  0  0  0  0  0  0  0
  -11.1697   -1.1361   -0.4691 C   0  0  0  0  0  0  0  0  0  0  0  0
  -11.7073    0.0976   -0.1065 C   0  0  0  0  0  0  0  0  0  0  0  0
  -11.0359    1.2737   -0.4139 C   0  0  0  0  0  0  0  0  0  0  0  0
   -9.8241    1.2363   -1.0849 C   0  0  0  0  0  0  0  0  0  0  0  0
   -9.2714    0.0141   -1.4626 C   0  0  0  0  0  0  0  0  0  0  0  0
   -9.9479   -1.1554   -1.1463 C   0  0  0  0  0  0  0  0  0  0  0  0
   -7.9712   -0.0289   -2.2209 C   0  0  0  0  0  0  0  0  0  0  0  0
   -5.7591    0.8799   -2.3918 C   0  0  0  0  0  0  0  0  0  0  0  0
   -4.7144    1.7529   -1.7215 C   0  0  0  0  0  0  0  0  0  0  0  0
   -5.5054    0.9557    0.4189 C   0  0  0  0  0  0  0  0  0  0  0  0
   -6.5331    0.1050   -0.2982 C   0  0  0  0  0  0  0  0  0  0  0  0
   -3.1457    1.5591    0.1429 C   0  0  0  0  0  0  0  0  0  0  0  0
   -2.7432    1.0244    1.3856 C   0  0  0  0  0  0  0  0  0  0  0  0
   -1.5150    1.3201    1.9287 C   0  0  0  0  0  0  0  0  0  0  0  0
   -0.6217    2.1852    1.2907 C   0  0  0  0  0  0  0  0  0  0  0  0
   -1.0148    2.7283    0.0685 C   0  0  0  0  0  0  0  0  0  0  0  0
   -2.2392    2.4283   -0.4942 C   0  0  0  0  0  0  0  0  0  0  0  0
    0.6817    2.4366    1.9262 C   0  0  0  0  0  0  0  0  0  0  0  0
    3.8845    2.5353    1.4617 C   0  0  0  0  0  0  0  0  0  0  0  0
    4.2429    2.4126    0.1128 C   0  0  0  0  0  0  0  0  0  0  0  0
    4.9490    1.3261   -0.3125 C   0  0  0  0  0  0  0  0  0  0  0  0
    5.3440    0.2823    0.5674 C   0  0  0  0  0  0  0  0  0  0  0  0
    4.9807    0.4602    1.9381 C   0  0  0  0  0  0  0  0  0  0  0  0
    4.2570    1.5710    2.3623 C   0  0  0  0  0  0  0  0  0  0  0  0
    6.4059   -1.0761   -1.2516 C   0  0  2  0  0  0  0  0  0  0  0  0
    5.4706   -2.0971   -1.9035 C   0  0  0  0  0  0  0  0  0  0  0  0
    4.0531   -1.5710   -2.0843 C   0  0  0  0  0  0  0  0  0  0  0  0
    1.7676   -2.1507   -2.4655 C   0  0  0  0  0  0  0  0  0  0  0  0
    3.4299   -2.8995   -3.9959 C   0  0  0  0  0  0  0  0  0  0  0  0
    7.8361   -1.6063   -1.2514 C   0  0  0  0  0  0  0  0  0  0  0  0
   10.5341   -0.9382   -0.8771 C   0  0  0  0  0  0  0  0  0  0  0  0
   11.5803   -0.0502   -0.6161 C   0  0  0  0  0  0  0  0  0  0  0  0
   12.8876   -0.4085   -0.9012 C   0  0  0  0  0  0  0  0  0  0  0  0
   13.1725   -1.6507   -1.4563 C   0  0  0  0  0  0  0  0  0  0  0  0
   12.1336   -2.5313   -1.7171 C   0  0  0  0  0  0  0  0  0  0  0  0
   10.8192   -2.1861   -1.4264 C   0  0  0  0  0  0  0  0  0  0  0  0
  -13.8359   -1.6184   -0.5283 H   0  0  0  0  0  0  0  0  0  0  0  0
  -14.9981   -3.7058    0.0339 H   0  0  0  0  0  0  0  0  0  0  0  0
  -13.7093   -5.7036    0.7308 H   0  0  0  0  0  0  0  0  0  0  0  0
    0.9859    4.1747    0.7945 H   0  0  0  0  0  0  0  0  0  0  0  0
  -11.2402   -5.5785    0.8662 H   0  0  0  0  0  0  0  0  0  0  0  0
  -10.0756   -3.4869    0.3306 H   0  0  0  0  0  0  0  0  0  0  0  0
    6.1982   -1.5063    0.7940 H   0  0  0  0  0  0  0  0  0  0  0  0
  -12.6429    0.1431    0.4373 H   0  0  0  0  0  0  0  0  0  0  0  0
  -11.4614    2.2251   -0.1215 H   0  0  0  0  0  0  0  0  0  0  0  0
   -9.3009    2.1564   -1.3135 H   0  0  0  0  0  0  0  0  0  0  0  0
   -9.5203   -2.1050   -1.4479 H   0  0  0  0  0  0  0  0  0  0  0  0
   -8.1207    0.4194   -3.2082 H   0  0  0  0  0  0  0  0  0  0  0  0
   -7.6815   -1.0780   -2.3988 H   0  0  0  0  0  0  0  0  0  0  0  0
   -5.3026   -0.0899   -2.6534 H   0  0  0  0  0  0  0  0  0  0  0  0
   -6.0524    1.3604   -3.3277 H   0  0  0  0  0  0  0  0  0  0  0  0
   -5.0905    2.7813   -1.6329 H   0  0  0  0  0  0  0  0  0  0  0  0
   -3.8431    1.7735   -2.3739 H   0  0  0  0  0  0  0  0  0  0  0  0
   -5.2138    0.4312    1.3239 H   0  0  0  0  0  0  0  0  0  0  0  0
   -5.9662    1.9047    0.7237 H   0  0  0  0  0  0  0  0  0  0  0  0
   -7.4030    0.0123    0.3540 H   0  0  0  0  0  0  0  0  0  0  0  0
   -6.1281   -0.9105   -0.4507 H   0  0  0  0  0  0  0  0  0  0  0  0
   -3.3824    0.3428    1.9273 H   0  0  0  0  0  0  0  0  0  0  0  0
   -1.2449    0.8703    2.8749 H   0  0  0  0  0  0  0  0  0  0  0  0
   -0.3670    3.3930   -0.4894 H   0  0  0  0  0  0  0  0  0  0  0  0
   -2.4827    2.8926   -1.4380 H   0  0  0  0  0  0  0  0  0  0  0  0
    3.9663    3.1693   -0.6091 H   0  0  0  0  0  0  0  0  0  0  0  0
    5.2029    1.2688   -1.3591 H   0  0  0  0  0  0  0  0  0  0  0  0
    3.9907    1.6650    3.4041 H   0  0  0  0  0  0  0  0  0  0  0  0
    6.4001   -0.1579   -1.8386 H   0  0  0  0  0  0  0  0  0  0  0  0
    5.9066   -2.3690   -2.8674 H   0  0  0  0  0  0  0  0  0  0  0  0
    5.4456   -3.0061   -1.2957 H   0  0  0  0  0  0  0  0  0  0  0  0
    4.0746   -0.6653   -2.7175 H   0  0  0  0  0  0  0  0  0  0  0  0
    3.6647   -1.2602   -1.1105 H   0  0  0  0  0  0  0  0  0  0  0  0
    1.5221   -1.2375   -3.0306 H   0  0  0  0  0  0  0  0  0  0  0  0
    1.1000   -2.9403   -2.8138 H   0  0  0  0  0  0  0  0  0  0  0  0
    1.5434   -1.9611   -1.4147 H   0  0  0  0  0  0  0  0  0  0  0  0
    4.4305   -3.3178   -4.1037 H   0  0  0  0  0  0  0  0  0  0  0  0
    2.7255   -3.6546   -4.3470 H   0  0  0  0  0  0  0  0  0  0  0  0
    3.3552   -2.0309   -4.6692 H   0  0  0  0  0  0  0  0  0  0  0  0
    8.1572   -1.7505   -2.2835 H   0  0  0  0  0  0  0  0  0  0  0  0
    7.8902   -2.5680   -0.7363 H   0  0  0  0  0  0  0  0  0  0  0  0
   11.3713    0.9252   -0.1931 H   0  0  0  0  0  0  0  0  0  0  0  0
   13.6870    0.2910   -0.6933 H   0  0  0  0  0  0  0  0  0  0  0  0
   14.1936   -1.9280   -1.6814 H   0  0  0  0  0  0  0  0  0  0  0  0
   12.3410   -3.5024   -2.1479 H   0  0  0  0  0  0  0  0  0  0  0  0
   10.0340   -2.9012   -1.6304 H   0  0  0  0  0  0  0  0  0  0  0  0
  1  5  2  0
  1 18  1  0
  2 26  1  0
  2 27  1  0
  2 30  1  0
  3 37  2  0
  4  7  2  0
  4 10  1  1
  4 11  2  0
  4 38  1  0
  5  9  1  0
  6 28  1  0
  6 29  1  0
  6 31  1  0
  8 49  1  0
  8 50  1  0
  9 12  2  0
 10 37  1  0
 12 15  1  0
 13 14  1  0
 13 17  2  0
 13 42  1  0
 15 18  2  0
 16 41  1  0
 16 44  1  0
 18 20  1  0
 19 46  1  0
 19 47  1  0
 19 48  1  0
 20 21  2  0
 20 25  1  0
 21 22  1  0
 22 23  2  0
 23 24  1  0
 24 25  2  0
 24 26  1  0
 27 28  1  0
 29 30  1  0
 31 32  2  0
 31 36  1  0
 32 33  1  0
 33 34  2  0
 34 35  1  0
 34 37  1  0
 35 36  2  0
 38 39  2  0
 38 43  1  0
 39 40  1  0
 40 41  2  0
 41 42  1  0
 42 43  2  0
 44 45  1  0
 44 49  1  0
 45 46  1  0
 50 51  2  0
 50 55  1  0
 51 52  1  0
 52 53  2  0
 53 54  1  0
 54 55  2  0
  1 56  1  0
  5 57  1  0
  9 58  1  0
 10 59  1  0
 12 60  1  0
 15 61  1  0
 16 62  1  0
 21 63  1  0
 22 64  1  0
 23 65  1  0
 25 66  1  0
 26 67  1  0
 26 68  1  0
 27 69  1  0
 27 70  1  0
 28 71  1  0
 28 72  1  0
 29 73  1  0
 29 74  1  0
 30 75  1  0
 30 76  1  0
 32 77  1  0
 33 78  1  0
 35 79  1  0
 36 80  1  0
 39 81  1  0
 40 82  1  0
 43 83  1  0
 44 84  1  6
 45 85  1  0
 45 86  1  0
 46 87  1  0
 46 88  1  0
 47 89  1  0
 47 90  1  0
 47 91  1  0
 48 92  1  0
 48 93  1  0
 48 94  1  0
 49 95  1  0
 49 96  1  0
 51 97  1  0
 52 98  1  0
 53 99  1  0
 54100  1  0
 55101  1  0
M  CHG  2  13   1  14  -1
M  END
