
     RDKit          3D

 37 37  0  0  0  0  0  0  0  0999 V2000
    0.3546   -4.3503    0.2929 O   0  0  0  0  0  0  0  0  0  0  0  0
    0.9213   -3.3154    0.1028 C   0  0  0  0  0  0  0  0  0  0  0  0
    2.1539   -3.0942   -0.2429 O   0  0  0  0  0  0  0  0  0  0  0  0
    0.1565   -2.0076    0.2791 C   0  0  0  0  0  0  0  0  0  0  0  0
   -1.3451   -2.0399    0.3399 C   0  0  2  0  0  0  0  0  0  0  0  0
   -1.6760   -2.3401   -0.9681 F   0  0  0  0  0  0  0  0  0  0  0  0
    0.8238   -0.9748    0.3112 O   0  0  0  0  0  0  0  0  0  0  0  0
    0.2754    0.4204    0.4323 C   0  0  1  0  0  0  0  0  0  0  0  0
    1.1659    1.2815   -0.4278 C   0  0  0  0  0  0  0  0  0  0  0  0
    2.6504    1.2265   -0.0537 C   0  0  1  0  0  0  0  0  0  0  0  0
    3.4068    2.2600   -0.8708 C   0  0  0  0  0  0  0  0  0  0  0  0
    4.7836    2.1079   -0.6363 O   0  0  0  0  0  0  0  0  0  0  0  0
    2.8485    1.3779    1.3317 O   0  0  0  0  0  0  0  0  0  0  0  0
   -1.2027    0.4323    0.0490 C   0  0  1  0  0  0  0  0  0  0  0  0
   -1.9384   -0.7025    0.7624 C   0  0  1  0  0  0  0  0  0  0  0  0
   -3.2866   -0.6555    0.4332 O   0  0  0  0  0  0  0  0  0  0  0  0
   -1.7473    1.7088    0.3993 N   0  0  0  0  0  0  0  0  0  0  0  0
   -2.2742    2.5662   -0.5104 C   0  0  0  0  0  0  0  0  0  0  0  0
   -2.2431    2.3533   -1.7098 O   0  0  0  0  0  0  0  0  0  0  0  0
   -2.8978    3.8042    0.0747 C   0  0  0  0  0  0  0  0  0  0  0  0
    2.6504   -3.9225   -0.3578 H   0  0  0  0  0  0  0  0  0  0  0  0
   -1.6754   -2.8511    0.9920 H   0  0  0  0  0  0  0  0  0  0  0  0
    0.4137    0.6302    1.4951 H   0  0  0  0  0  0  0  0  0  0  0  0
    1.0298    1.0253   -1.4809 H   0  0  0  0  0  0  0  0  0  0  0  0
    0.7996    2.3051   -0.3028 H   0  0  0  0  0  0  0  0  0  0  0  0
    3.0497    0.2393   -0.3046 H   0  0  0  0  0  0  0  0  0  0  0  0
    3.1534    2.1204   -1.9298 H   0  0  0  0  0  0  0  0  0  0  0  0
    3.0515    3.2624   -0.5910 H   0  0  0  0  0  0  0  0  0  0  0  0
    5.2462    2.8127   -1.0981 H   0  0  0  0  0  0  0  0  0  0  0  0
    2.5950    2.2725    1.5870 H   0  0  0  0  0  0  0  0  0  0  0  0
   -1.2994    0.3153   -1.0339 H   0  0  0  0  0  0  0  0  0  0  0  0
   -1.7685   -0.6089    1.8435 H   0  0  0  0  0  0  0  0  0  0  0  0
   -3.8098   -0.9493    1.1856 H   0  0  0  0  0  0  0  0  0  0  0  0
   -1.8517    1.9239    1.3793 H   0  0  0  0  0  0  0  0  0  0  0  0
   -2.7648    3.8929    1.1509 H   0  0  0  0  0  0  0  0  0  0  0  0
   -2.4718    4.6850   -0.4038 H   0  0  0  0  0  0  0  0  0  0  0  0
   -3.9665    3.8004   -0.1407 H   0  0  0  0  0  0  0  0  0  0  0  0
 20 18  1  0
 13 10  1  0
 17 18  1  0
 17 14  1  0
 12 11  1  0
 18 19  2  0
 10  9  1  0
 10 11  1  0
  9  8  1  0
  8 14  1  0
  8  7  1  0
 15 14  1  0
 15 16  1  0
 15  5  1  0
  7  4  2  0
  5  4  1  0
  5  6  1  0
  4  2  1  0
  2  1  2  0
  2  3  1  0
  3 21  1  0
  5 22  1  1
  8 23  1  1
  9 24  1  0
  9 25  1  0
 10 26  1  6
 11 27  1  0
 11 28  1  0
 12 29  1  0
 13 30  1  0
 14 31  1  6
 15 32  1  1
 16 33  1  0
 17 34  1  0
 20 35  1  0
 20 36  1  0
 20 37  1  0
M  CHG  1   7   1
M  END
