
     RDKit          3D

 26 28  0  0  0  0  0  0  0  0999 V2000
   -4.8673    1.3616   -0.0784 C   0  0  0  0  0  0  0  0  0  0  0  0
   -3.8750    2.3384   -0.1205 C   0  0  0  0  0  0  0  0  0  0  0  0
    1.4939   -0.8920    0.1007 C   0  0  0  0  0  0  0  0  0  0  0  0
    1.9212   -0.3659    1.3073 C   0  0  0  0  0  0  0  0  0  0  0  0
    3.1575    0.2554    1.3537 C   0  0  0  0  0  0  0  0  0  0  0  0
    3.9469    0.3472    0.2100 C   0  0  0  0  0  0  0  0  0  0  0  0
    3.4925   -0.1916   -0.9931 C   0  0  0  0  0  0  0  0  0  0  0  0
    2.2587   -0.8128   -1.0528 C   0  0  0  0  0  0  0  0  0  0  0  0
    5.2567    1.0111    0.3020 C   0  0  0  0  0  0  0  0  0  0  0  0
   -2.5749    2.0780   -0.1097 N   0  0  0  0  0  0  0  0  0  0  0  0
   -2.2202    0.8055   -0.0546 C   0  0  0  0  0  0  0  0  0  0  0  0
   -3.1506   -0.2484   -0.0092 C   0  0  0  0  0  0  0  0  0  0  0  0
   -4.5054    0.0249   -0.0212 C   0  0  0  0  0  0  0  0  0  0  0  0
   -0.9000    0.4194   -0.0397 N   0  0  0  0  0  0  0  0  0  0  0  0
   -0.8243   -0.8545    0.0157 C   0  0  0  0  0  0  0  0  0  0  0  0
   -2.3118   -1.7655    0.0581 S   0  0  0  0  0  0  0  0  0  0  0  0
    0.2891   -1.5707    0.0396 O   0  0  0  0  0  0  0  0  0  0  0  0
    6.0221    1.1436   -0.6235 O   0  0  0  0  0  0  0  0  0  0  0  0
   -5.9088    1.6499   -0.0905 H   0  0  0  0  0  0  0  0  0  0  0  0
   -4.1538    3.3846   -0.1651 H   0  0  0  0  0  0  0  0  0  0  0  0
    1.3076   -0.4475    2.1947 H   0  0  0  0  0  0  0  0  0  0  0  0
    3.5119    0.6697    2.2896 H   0  0  0  0  0  0  0  0  0  0  0  0
    4.1012   -0.1232   -1.8851 H   0  0  0  0  0  0  0  0  0  0  0  0
    1.8934   -1.2354   -1.9792 H   0  0  0  0  0  0  0  0  0  0  0  0
    5.5063    1.3940    1.3069 H   0  0  0  0  0  0  0  0  0  0  0  0
   -5.2481   -0.7604    0.0122 H   0  0  0  0  0  0  0  0  0  0  0  0
  7  8  2  0
  7  6  1  0
  9  6  1  0
  9 18  2  0
  8  3  1  0
  6  5  2  0
  3 17  1  0
  3  4  2  0
  5  4  1  0
 17 15  1  0
 15 14  2  0
 15 16  1  0
 14 11  1  0
 16 12  1  0
 11 12  1  0
 11 10  2  0
 12 13  2  0
 10  2  1  0
  2  1  2  0
 13  1  1  0
  1 19  1  0
  2 20  1  0
  4 21  1  0
  5 22  1  0
  7 23  1  0
  8 24  1  0
  9 25  1  0
 13 26  1  0
M  END
