
     RDKit          3D

 19 19  0  0  0  0  0  0  0  0999 V2000
   -2.2843   -0.4997    0.0340 C   0  0  0  0  0  0  0  0  0  0  0  0
   -0.9400    0.1333    0.0223 C   0  0  0  0  0  0  0  0  0  0  0  0
   -0.7716    1.5190    0.0098 C   0  0  0  0  0  0  0  0  0  0  0  0
    0.5106    2.0383   -0.0007 C   0  0  0  0  0  0  0  0  0  0  0  0
    1.6260    1.2089    0.0019 C   0  0  0  0  0  0  0  0  0  0  0  0
    1.4544   -0.1739    0.0156 C   0  0  0  0  0  0  0  0  0  0  0  0
    3.7906   -0.5825    0.0151 C   0  0  0  0  0  0  0  0  0  0  0  0
    0.1660   -0.7049    0.0253 C   0  0  0  0  0  0  0  0  0  0  0  0
   -3.2717    0.3839    0.0287 O   0  0  0  0  0  0  0  0  0  0  0  0
   -2.4662   -1.6936    0.0474 O   0  0  0  0  0  0  0  0  0  0  0  0
    2.4611   -1.0652    0.0209 O   0  0  0  0  0  0  0  0  0  0  0  0
   -1.6191    2.1887    0.0077 H   0  0  0  0  0  0  0  0  0  0  0  0
    0.6536    3.1105   -0.0114 H   0  0  0  0  0  0  0  0  0  0  0  0
    2.6111    1.6554   -0.0071 H   0  0  0  0  0  0  0  0  0  0  0  0
    4.0077    0.0043   -0.8812 H   0  0  0  0  0  0  0  0  0  0  0  0
    4.0073    0.0261    0.8968 H   0  0  0  0  0  0  0  0  0  0  0  0
    4.4363   -1.4568    0.0255 H   0  0  0  0  0  0  0  0  0  0  0  0
    0.0388   -1.7799    0.0352 H   0  0  0  0  0  0  0  0  0  0  0  0
   -4.1253   -0.0745    0.0381 H   0  0  0  0  0  0  0  0  0  0  0  0
 10  1  2  0
  1  9  1  0
  1  2  1  0
  8  2  2  0
  8  6  1  0
 11  6  1  0
 11  7  1  0
  2  3  1  0
  6  5  2  0
  3  4  2  0
  5  4  1  0
  3 12  1  0
  4 13  1  0
  5 14  1  0
  7 15  1  0
  7 16  1  0
  7 17  1  0
  8 18  1  0
  9 19  1  0
M  END
