
     RDKit          3D

 59 61  0  0  0  0  0  0  0  0999 V2000
    4.1022   -1.8043    0.3316 C   0  0  0  0  0  0  0  0  0  0  0  0
    4.2662    1.0528    0.3530 N   0  0  0  0  0  0  0  0  0  0  0  0
    4.0834   -3.0231    0.3105 O   0  0  0  0  0  0  0  0  0  0  0  0
    5.4221    0.3105    0.3510 C   0  0  0  0  0  0  0  0  0  0  0  0
    5.2967   -1.0770    0.3902 N   0  0  0  0  0  0  0  0  0  0  0  0
    6.5153    0.8433    0.3273 O   0  0  0  0  0  0  0  0  0  0  0  0
    0.9909   -0.0220    0.2883 C   0  0  0  0  0  0  0  0  0  0  0  0
    1.8492    0.9920    0.3111 N   0  0  0  0  0  0  0  0  0  0  0  0
    3.0604    0.4153    0.3268 C   0  0  0  0  0  0  0  0  0  0  0  0
    1.6225   -1.2088    0.2818 N   0  0  0  0  0  0  0  0  0  0  0  0
   -7.0489    0.8604    1.3835 O   0  0  0  0  0  0  0  0  0  0  0  0
    2.9685   -0.9503    0.3102 C   0  0  0  0  0  0  0  0  0  0  0  0
   -7.8031   -0.1939   -0.4790 N   0  0  0  0  0  0  0  0  0  0  0  0
    6.5412   -1.8476    0.4312 C   0  0  0  0  0  0  0  0  0  0  0  0
  -11.4130   -1.0414   -0.2328 N   0  0  0  0  0  0  0  0  0  0  0  0
    7.0982   -2.1595   -0.9511 C   0  0  0  0  0  0  0  0  0  0  0  0
    4.3322    2.5073    0.2599 C   0  0  0  0  0  0  0  0  0  0  0  0
    4.4232    2.9985   -1.1779 C   0  0  0  0  0  0  0  0  0  0  0  0
    4.4596    4.5191   -1.2400 C   0  0  0  0  0  0  0  0  0  0  0  0
    8.3610   -3.0037   -0.8516 C   0  0  0  0  0  0  0  0  0  0  0  0
   -3.2346    0.4739    0.3353 C   0  0  0  0  0  0  0  0  0  0  0  0
   -2.3862    1.5177    0.7158 C   0  0  0  0  0  0  0  0  0  0  0  0
   -1.0193    1.3480    0.6882 C   0  0  0  0  0  0  0  0  0  0  0  0
   -0.4558    0.1322    0.2881 C   0  0  0  0  0  0  0  0  0  0  0  0
   -1.3081   -0.8957   -0.1017 C   0  0  0  0  0  0  0  0  0  0  0  0
   -2.6851   -0.7353   -0.0851 C   0  0  0  0  0  0  0  0  0  0  0  0
   -5.4569   -0.2686   -0.0002 C   0  0  0  0  0  0  0  0  0  0  0  0
   -6.8510    0.2108    0.3706 C   0  0  0  0  0  0  0  0  0  0  0  0
   -9.2216    0.0110   -0.2888 C   0  0  0  0  0  0  0  0  0  0  0  0
   -9.9922   -1.2996   -0.3892 C   0  0  0  0  0  0  0  0  0  0  0  0
    1.1985   -2.1236    0.3131 H   0  0  0  0  0  0  0  0  0  0  0  0
   -7.5190   -0.6655   -1.3236 H   0  0  0  0  0  0  0  0  0  0  0  0
    7.2688   -1.2914    1.0180 H   0  0  0  0  0  0  0  0  0  0  0  0
    6.3357   -2.7707    0.9693 H   0  0  0  0  0  0  0  0  0  0  0  0
  -11.9359   -1.8802   -0.4465 H   0  0  0  0  0  0  0  0  0  0  0  0
  -11.6141   -0.8298    0.7364 H   0  0  0  0  0  0  0  0  0  0  0  0
    6.3450   -2.6894   -1.5386 H   0  0  0  0  0  0  0  0  0  0  0  0
    7.3155   -1.2278   -1.4777 H   0  0  0  0  0  0  0  0  0  0  0  0
    3.4352    2.9000    0.7376 H   0  0  0  0  0  0  0  0  0  0  0  0
    5.1852    2.8522    0.8414 H   0  0  0  0  0  0  0  0  0  0  0  0
    5.3182    2.5856   -1.6488 H   0  0  0  0  0  0  0  0  0  0  0  0
    3.5655    2.6236   -1.7418 H   0  0  0  0  0  0  0  0  0  0  0  0
    4.5356    4.8658   -2.2703 H   0  0  0  0  0  0  0  0  0  0  0  0
    3.5573    4.9564   -0.8094 H   0  0  0  0  0  0  0  0  0  0  0  0
    5.3153    4.9174   -0.6925 H   0  0  0  0  0  0  0  0  0  0  0  0
    8.7666   -3.2215   -1.8392 H   0  0  0  0  0  0  0  0  0  0  0  0
    9.1376   -2.4911   -0.2814 H   0  0  0  0  0  0  0  0  0  0  0  0
    8.1626   -3.9566   -0.3579 H   0  0  0  0  0  0  0  0  0  0  0  0
   -2.8109    2.4596    1.0385 H   0  0  0  0  0  0  0  0  0  0  0  0
   -0.3770    2.1643    0.9907 H   0  0  0  0  0  0  0  0  0  0  0  0
   -0.9153   -1.8433   -0.4479 H   0  0  0  0  0  0  0  0  0  0  0  0
   -3.3026   -1.5609   -0.4104 H   0  0  0  0  0  0  0  0  0  0  0  0
   -5.3658   -0.4695   -1.0729 H   0  0  0  0  0  0  0  0  0  0  0  0
   -5.2807   -1.2127    0.5300 H   0  0  0  0  0  0  0  0  0  0  0  0
   -9.3728    0.4621    0.6913 H   0  0  0  0  0  0  0  0  0  0  0  0
   -9.6026    0.7145   -1.0332 H   0  0  0  0  0  0  0  0  0  0  0  0
   -9.5786   -2.0113    0.3378 H   0  0  0  0  0  0  0  0  0  0  0  0
   -9.8287   -1.7342   -1.3788 H   0  0  0  0  0  0  0  0  0  0  0  0
   -4.5513    0.7278    0.4073 O   0  0  0  0  0  0  0  0  0  0  0  0
  1  3  2  0
  1  5  1  0
  1 12  1  0
  2  4  1  0
  2  9  1  0
  2 17  1  0
  4  5  1  0
  4  6  2  0
  5 14  1  0
  7  8  2  0
  7 10  1  0
  7 24  1  0
  8  9  1  0
 59 21  1  0
 59 27  1  0
  9 12  2  0
 10 12  1  0
 11 28  2  0
 13 28  1  0
 13 29  1  0
 14 16  1  0
 15 30  1  0
 16 20  1  0
 17 18  1  0
 18 19  1  0
 21 22  2  0
 21 26  1  0
 22 23  1  0
 23 24  2  0
 24 25  1  0
 25 26  2  0
 27 28  1  0
 29 30  1  0
 10 31  1  0
 13 32  1  0
 14 33  1  0
 14 34  1  0
 15 35  1  0
 15 36  1  0
 16 37  1  0
 16 38  1  0
 17 39  1  0
 17 40  1  0
 18 41  1  0
 18 42  1  0
 19 43  1  0
 19 44  1  0
 19 45  1  0
 20 46  1  0
 20 47  1  0
 20 48  1  0
 22 49  1  0
 23 50  1  0
 25 51  1  0
 26 52  1  0
 27 53  1  0
 27 54  1  0
 29 55  1  0
 29 56  1  0
 30 57  1  0
 30 58  1  0
M  END
