
     RDKit          3D

 18 18  0  0  0  0  0  0  0  0999 V2000
   -3.1309   -0.0246   -0.2500 C   0  0  0  0  0  0  0  0  0  0  0  0
   -2.2390   -0.0005    0.9678 C   0  0  0  0  0  0  0  0  0  0  0  0
   -0.7847   -0.0053    0.6055 C   0  0  0  0  0  0  0  0  0  0  0  0
   -0.1016    1.1936    0.4450 C   0  0  0  0  0  0  0  0  0  0  0  0
    1.2399    1.1731    0.1002 C   0  0  0  0  0  0  0  0  0  0  0  0
    1.9265   -0.0148   -0.0908 C   0  0  0  0  0  0  0  0  0  0  0  0
    1.2249   -1.1981    0.0754 C   0  0  0  0  0  0  0  0  0  0  0  0
   -0.1163   -1.2096    0.4201 C   0  0  0  0  0  0  0  0  0  0  0  0
   -2.7429   -0.0220   -1.3893 O   0  0  0  0  0  0  0  0  0  0  0  0
    2.0555   -2.6992   -0.1501 Cl  0  0  0  0  0  0  0  0  0  0  0  0
    2.0887    2.6683   -0.0934 Cl  0  0  0  0  0  0  0  0  0  0  0  0
   -2.4894    0.8849    1.5574 H   0  0  0  0  0  0  0  0  0  0  0  0
   -2.4871   -0.8579    1.5986 H   0  0  0  0  0  0  0  0  0  0  0  0
   -0.6109    2.1365    0.5957 H   0  0  0  0  0  0  0  0  0  0  0  0
    2.9749   -0.0186   -0.3531 H   0  0  0  0  0  0  0  0  0  0  0  0
   -0.6370   -2.1492    0.5510 H   0  0  0  0  0  0  0  0  0  0  0  0
   -4.4117   -0.0451    0.0938 O   0  0  0  0  0  0  0  0  0  0  0  0
   -4.9701   -0.0567   -0.6983 H   0  0  0  0  0  0  0  0  0  0  0  0
 10  7  1  0
  7  8  1  0
  7  6  2  0
  8  3  2  0
  6  5  1  0
  3  4  1  0
  3  2  1  0
  5  4  2  0
  5 11  1  0
  2  1  1  0
  9  1  2  0
  2 12  1  0
  2 13  1  0
  4 14  1  0
  6 15  1  0
  8 16  1  0
  1 17  1  0
 17 18  1  0
M  END
