
     RDKit          3D

 55 58  0  0  0  0  0  0  0  0999 V2000
    4.7027    2.0707   -1.1889 C   0  0  0  0  0  0  0  0  0  0  0  0
    4.5855    0.7268   -0.5240 C   0  0  0  0  0  0  0  0  0  0  0  0
    5.4486    0.3128    0.2203 O   0  0  0  0  0  0  0  0  0  0  0  0
    3.3491   -0.0708   -0.8566 C   0  0  1  0  0  0  0  0  0  0  0  0
    3.5231   -1.6025   -0.8258 C   0  0  0  0  0  0  0  0  0  0  0  0
    2.1597   -2.1791   -0.3800 C   0  0  0  0  0  0  0  0  0  0  0  0
    1.2321   -0.9673   -0.3643 C   0  0  1  0  0  0  0  0  0  0  0  0
   -0.0830   -1.0514    0.3940 C   0  0  2  0  0  0  0  0  0  0  0  0
   -0.9507   -2.2006   -0.1154 C   0  0  0  0  0  0  0  0  0  0  0  0
   -2.3158   -2.2373    0.5643 C   0  0  0  0  0  0  0  0  0  0  0  0
   -3.0505   -0.8990    0.4795 C   0  0  2  0  0  0  0  0  0  0  0  0
   -3.5664   -0.6687   -0.9527 C   0  0  0  0  0  0  0  0  0  0  0  0
   -4.1903    0.6827   -1.1704 C   0  0  0  0  0  0  0  0  0  0  0  0
   -5.2487    0.8269   -1.7450 O   0  0  0  0  0  0  0  0  0  0  0  0
   -3.3932    1.8385   -0.6334 C   0  0  0  0  0  0  0  0  0  0  0  0
   -2.9763    1.5695    0.8117 C   0  0  0  0  0  0  0  0  0  0  0  0
   -2.1847    0.2683    1.0069 C   0  0  1  0  0  0  0  0  0  0  0  0
   -1.9817    0.0998    2.5175 C   0  0  0  0  0  0  0  0  0  0  0  0
   -0.8315    0.2884    0.2498 C   0  0  1  0  0  0  0  0  0  0  0  0
    0.0484    1.4932    0.6021 C   0  0  0  0  0  0  0  0  0  0  0  0
    1.3957    1.4951   -0.1242 C   0  0  0  0  0  0  0  0  0  0  0  0
    2.1430    0.1856    0.0919 C   0  0  2  0  0  0  0  0  0  0  0  0
    2.5793    0.0506    1.5546 C   0  0  0  0  0  0  0  0  0  0  0  0
    5.4567    2.6948   -0.7130 H   0  0  0  0  0  0  0  0  0  0  0  0
    4.9897    1.9137   -2.2324 H   0  0  0  0  0  0  0  0  0  0  0  0
    3.7491    2.5977   -1.2126 H   0  0  0  0  0  0  0  0  0  0  0  0
    3.0215    0.2348   -1.8570 H   0  0  0  0  0  0  0  0  0  0  0  0
    3.8124   -1.9672   -1.8118 H   0  0  0  0  0  0  0  0  0  0  0  0
    4.3174   -1.8931   -0.1387 H   0  0  0  0  0  0  0  0  0  0  0  0
    1.8059   -2.9647   -1.0487 H   0  0  0  0  0  0  0  0  0  0  0  0
    2.2287   -2.6240    0.6161 H   0  0  0  0  0  0  0  0  0  0  0  0
    0.9714   -0.7475   -1.4119 H   0  0  0  0  0  0  0  0  0  0  0  0
    0.1293   -1.2386    1.4531 H   0  0  0  0  0  0  0  0  0  0  0  0
   -1.0691   -2.1039   -1.2013 H   0  0  0  0  0  0  0  0  0  0  0  0
   -0.4436   -3.1548    0.0477 H   0  0  0  0  0  0  0  0  0  0  0  0
   -2.9339   -3.0230    0.1200 H   0  0  0  0  0  0  0  0  0  0  0  0
   -2.1881   -2.5162    1.6138 H   0  0  0  0  0  0  0  0  0  0  0  0
   -3.9354   -0.9534    1.1255 H   0  0  0  0  0  0  0  0  0  0  0  0
   -2.7441   -0.7486   -1.6728 H   0  0  0  0  0  0  0  0  0  0  0  0
   -4.2860   -1.4466   -1.2158 H   0  0  0  0  0  0  0  0  0  0  0  0
   -2.5077    1.9625   -1.2661 H   0  0  0  0  0  0  0  0  0  0  0  0
   -3.9736    2.7592   -0.7090 H   0  0  0  0  0  0  0  0  0  0  0  0
   -2.4165    2.4251    1.1941 H   0  0  0  0  0  0  0  0  0  0  0  0
   -3.8797    1.5120    1.4293 H   0  0  0  0  0  0  0  0  0  0  0  0
   -2.9460    0.1193    3.0307 H   0  0  0  0  0  0  0  0  0  0  0  0
   -1.4973   -0.8374    2.7864 H   0  0  0  0  0  0  0  0  0  0  0  0
   -1.3814    0.9080    2.9365 H   0  0  0  0  0  0  0  0  0  0  0  0
   -1.0505    0.3856   -0.8241 H   0  0  0  0  0  0  0  0  0  0  0  0
   -0.4704    2.4181    0.3390 H   0  0  0  0  0  0  0  0  0  0  0  0
    0.2164    1.5431    1.6813 H   0  0  0  0  0  0  0  0  0  0  0  0
    1.2315    1.6384   -1.1987 H   0  0  0  0  0  0  0  0  0  0  0  0
    1.9799    2.3529    0.2210 H   0  0  0  0  0  0  0  0  0  0  0  0
    1.7325   -0.0701    2.2284 H   0  0  0  0  0  0  0  0  0  0  0  0
    3.2444   -0.7974    1.7176 H   0  0  0  0  0  0  0  0  0  0  0  0
    3.1148    0.9442    1.8817 H   0  0  0  0  0  0  0  0  0  0  0  0
  1  2  1  0
  1 24  1  0
  1 25  1  0
  1 26  1  0
  2  3  2  0
  2  4  1  0
  4  5  1  0
  4 22  1  0
  4 27  1  6
  5  6  1  0
  5 28  1  0
  5 29  1  0
  6  7  1  0
  6 30  1  0
  6 31  1  0
  7  8  1  0
  7 22  1  0
  7 32  1  6
  8  9  1  0
  8 19  1  0
  8 33  1  1
  9 10  1  0
  9 34  1  0
  9 35  1  0
 10 11  1  0
 10 36  1  0
 10 37  1  0
 11 12  1  0
 11 17  1  0
 11 38  1  1
 12 13  1  0
 12 39  1  0
 12 40  1  0
 13 14  2  0
 13 15  1  0
 15 16  1  0
 15 41  1  0
 15 42  1  0
 16 17  1  0
 16 43  1  0
 16 44  1  0
 17 18  1  1
 17 19  1  0
 18 45  1  0
 18 46  1  0
 18 47  1  0
 19 20  1  0
 19 48  1  6
 20 21  1  0
 20 49  1  0
 20 50  1  0
 21 22  1  0
 21 51  1  0
 21 52  1  0
 22 23  1  1
 23 53  1  0
 23 54  1  0
 23 55  1  0
M  END
