
     RDKit          3D

 25 27  0  0  0  0  0  0  0  0999 V2000
    3.5067    0.9302   -0.1633 C   0  0  0  0  0  0  0  0  0  0  0  0
    2.8215   -1.7220    0.2988 C   0  0  0  0  0  0  0  0  0  0  0  0
   -0.6959    0.1644   -0.0065 C   0  0  0  0  0  0  0  0  0  0  0  0
   -2.9863    1.0683    0.2795 C   0  0  0  0  0  0  0  0  0  0  0  0
   -4.3550    0.8872    0.2445 C   0  0  0  0  0  0  0  0  0  0  0  0
   -4.8503   -0.3589   -0.1167 C   0  0  0  0  0  0  0  0  0  0  0  0
    2.1557    0.5864   -0.0501 C   0  0  0  0  0  0  0  0  0  0  0  0
    1.8288   -0.7504    0.1765 C   0  0  0  0  0  0  0  0  0  0  0  0
    1.1367    1.6500   -0.1624 C   0  0  0  0  0  0  0  0  0  0  0  0
    0.1810   -1.2913    0.3480 S   0  0  0  0  0  0  0  0  0  0  0  0
   -0.2090    1.3312   -0.1964 N   0  0  0  0  0  0  0  0  0  0  0  0
    1.4565    2.8189   -0.2473 O   0  0  0  0  0  0  0  0  0  0  0  0
    4.4934   -0.0266   -0.0490 C   0  0  0  0  0  0  0  0  0  0  0  0
    4.1477   -1.3563    0.1858 C   0  0  0  0  0  0  0  0  0  0  0  0
   -2.1586   -0.0069   -0.0403 C   0  0  0  0  0  0  0  0  0  0  0  0
   -2.7616   -1.2102   -0.4045 C   0  0  0  0  0  0  0  0  0  0  0  0
   -4.0737   -1.3850   -0.4420 N   0  0  0  0  0  0  0  0  0  0  0  0
    3.7730    1.9622   -0.3445 H   0  0  0  0  0  0  0  0  0  0  0  0
    2.5547   -2.7559    0.4775 H   0  0  0  0  0  0  0  0  0  0  0  0
   -5.0312    1.6919    0.4964 H   0  0  0  0  0  0  0  0  0  0  0  0
   -5.9197   -0.5332   -0.1450 H   0  0  0  0  0  0  0  0  0  0  0  0
    5.5333    0.2548   -0.1411 H   0  0  0  0  0  0  0  0  0  0  0  0
    4.9175   -2.1102    0.2783 H   0  0  0  0  0  0  0  0  0  0  0  0
   -2.1628   -2.0649   -0.7027 H   0  0  0  0  0  0  0  0  0  0  0  0
   -2.5585    2.0199    0.5636 H   0  0  0  0  0  0  0  0  0  0  0  0
 14 13  1  0
 14  2  2  0
 13  1  2  0
  2  8  1  0
  1  7  1  0
  8  7  2  0
  8 10  1  0
  7  9  1  0
 10  3  1  0
  9 12  2  0
  9 11  1  0
  3 11  2  0
  3 15  1  0
 16 15  1  0
 16 17  2  0
 15  4  2  0
 17  6  1  0
  4  5  1  0
  6  5  2  0
  1 18  1  0
  2 19  1  0
  4 25  1  0
  5 20  1  0
  6 21  1  0
 13 22  1  0
 14 23  1  0
 16 24  1  0
M  END
