
     RDKit          3D

 23 22  0  0  0  0  0  0  0  0999 V2000
    0.4318   -0.3597    5.0132 N   0  0  0  0  0  0  0  0  0  0  0  0
   -0.1008    0.5438    4.0115 C   0  0  2  0  0  0  0  0  0  0  0  0
   -1.6004    0.6465    4.2350 C   0  0  0  0  0  0  0  0  0  0  0  0
   -2.3507   -0.2855    4.0891 O   0  0  0  0  0  0  0  0  0  0  0  0
    0.1666    0.0846    2.5849 C   0  0  0  0  0  0  0  0  0  0  0  0
   -0.4603    1.0167    1.7024 O   0  0  0  0  0  0  0  0  0  0  0  0
   -1.7485    1.8689   -0.2393 N   0  0  0  0  0  0  0  0  0  0  0  0
   -0.6867    0.6608    0.1514 P   0  0  2  0  0  0  0  0  0  0  0  0
   -1.0036   -0.7610   -0.1142 O   0  0  0  0  0  0  0  0  0  0  0  0
    0.6614    1.0399   -0.6221 O   0  0  0  0  0  0  0  0  0  0  0  0
    1.2983    2.3077   -0.4629 C   0  0  0  0  0  0  0  0  0  0  0  0
   -1.9865    1.8499    4.6252 O   0  0  0  0  0  0  0  0  0  0  0  0
    1.4428   -0.3451    4.9825 H   0  0  0  0  0  0  0  0  0  0  0  0
   -0.2298   -0.9226    2.4343 H   0  0  0  0  0  0  0  0  0  0  0  0
    1.2453    0.0593    2.4092 H   0  0  0  0  0  0  0  0  0  0  0  0
   -2.5860    1.9246    0.3248 H   0  0  0  0  0  0  0  0  0  0  0  0
   -1.9830    1.9309   -1.2213 H   0  0  0  0  0  0  0  0  0  0  0  0
    1.7655    2.3916    0.5189 H   0  0  0  0  0  0  0  0  0  0  0  0
    0.5960    3.1307   -0.5949 H   0  0  0  0  0  0  0  0  0  0  0  0
    2.0694    2.3747   -1.2261 H   0  0  0  0  0  0  0  0  0  0  0  0
   -2.9449    1.8618    4.7734 H   0  0  0  0  0  0  0  0  0  0  0  0
    0.3554    1.5232    4.1653 H   0  0  0  0  0  0  0  0  0  0  0  0
    0.1452   -1.3123    4.8225 H   0  0  0  0  0  0  0  0  0  0  0  0
  2 22  1  6
  1  2  1  0
  2  3  1  0
  3  4  2  0
  2  5  1  0
  5  6  1  0
  8  6  1  1
  7  8  1  0
  8  9  2  0
  8 10  1  0
 10 11  1  0
  3 12  1  0
  1 13  1  0
  5 14  1  0
  5 15  1  0
  7 16  1  0
  7 17  1  0
 11 18  1  0
 11 19  1  0
 11 20  1  0
 12 21  1  0
  1 23  1  0
M  END
