
     RDKit          3D

 40 41  0  0  0  0  0  0  0  0999 V2000
   -4.0999    2.1322   -0.8735 C   0  0  0  0  0  0  0  0  0  0  0  0
   -0.1496    1.6901    0.7566 C   0  0  0  0  0  0  0  0  0  0  0  0
    0.9339    2.1358   -0.2064 C   0  0  0  0  0  0  0  0  0  0  0  0
    2.0489    1.1346   -0.2930 C   0  0  0  0  0  0  0  0  0  0  0  0
    3.2960    1.4991   -0.7991 C   0  0  0  0  0  0  0  0  0  0  0  0
    4.3135    0.5622   -0.8658 C   0  0  0  0  0  0  0  0  0  0  0  0
    4.1059   -0.7321   -0.4138 C   0  0  0  0  0  0  0  0  0  0  0  0
    2.8645   -1.1098    0.1002 C   0  0  0  0  0  0  0  0  0  0  0  0
    2.6428   -2.4159    0.5069 N   0  0  0  0  0  0  0  0  0  0  0  0
    1.8207   -0.1657    0.1412 C   0  0  0  0  0  0  0  0  0  0  0  0
    0.4753   -0.6039    0.6565 C   0  0  0  0  0  0  0  0  0  0  0  0
   -0.5865    0.3502    0.4106 N   0  0  0  0  0  0  0  0  0  0  0  0
   -1.8366   -0.0492    1.0467 C   0  0  1  0  0  0  0  0  0  0  0  0
   -2.9752    0.9292    0.7681 C   0  0  0  0  0  0  0  0  0  0  0  0
   -3.1025    1.1844   -0.6022 O   0  0  0  0  0  0  0  0  0  0  0  0
   -2.2376   -1.4783    0.6954 C   0  0  0  0  0  0  0  0  0  0  0  0
   -2.2791   -1.6694   -0.6916 O   0  0  0  0  0  0  0  0  0  0  0  0
   -2.6525   -2.9782   -1.0329 C   0  0  0  0  0  0  0  0  0  0  0  0
   -5.0892    1.8070   -0.5276 H   0  0  0  0  0  0  0  0  0  0  0  0
   -3.8868    3.1012   -0.4041 H   0  0  0  0  0  0  0  0  0  0  0  0
   -4.1452    2.2773   -1.9526 H   0  0  0  0  0  0  0  0  0  0  0  0
    0.2167    1.7488    1.7967 H   0  0  0  0  0  0  0  0  0  0  0  0
   -0.9781    2.3897    0.6796 H   0  0  0  0  0  0  0  0  0  0  0  0
    0.4897    2.2828   -1.1957 H   0  0  0  0  0  0  0  0  0  0  0  0
    1.3262    3.1074    0.1036 H   0  0  0  0  0  0  0  0  0  0  0  0
    3.4658    2.5164   -1.1312 H   0  0  0  0  0  0  0  0  0  0  0  0
    5.2832    0.8407   -1.2590 H   0  0  0  0  0  0  0  0  0  0  0  0
    4.9100   -1.4578   -0.4540 H   0  0  0  0  0  0  0  0  0  0  0  0
    3.4838   -2.9466    0.6724 H   0  0  0  0  0  0  0  0  0  0  0  0
    2.0002   -2.5352    1.2743 H   0  0  0  0  0  0  0  0  0  0  0  0
    0.2283   -1.5491    0.1661 H   0  0  0  0  0  0  0  0  0  0  0  0
    0.5673   -0.8352    1.7376 H   0  0  0  0  0  0  0  0  0  0  0  0
   -1.7341   -0.0567    2.1493 H   0  0  0  0  0  0  0  0  0  0  0  0
   -3.8990    0.4949    1.1805 H   0  0  0  0  0  0  0  0  0  0  0  0
   -2.8214    1.8657    1.3231 H   0  0  0  0  0  0  0  0  0  0  0  0
   -1.5484   -2.1950    1.1648 H   0  0  0  0  0  0  0  0  0  0  0  0
   -3.2200   -1.6727    1.1513 H   0  0  0  0  0  0  0  0  0  0  0  0
   -1.9641   -3.7257   -0.6188 H   0  0  0  0  0  0  0  0  0  0  0  0
   -3.6623   -3.2241   -0.6817 H   0  0  0  0  0  0  0  0  0  0  0  0
   -2.6374   -3.0630   -2.1192 H   0  0  0  0  0  0  0  0  0  0  0  0
  7  6  2  0
  7  8  1  0
  6  5  1  0
  9  8  1  0
  8 10  2  0
  5  4  2  0
 10  4  1  0
 10 11  1  0
  4  3  1  0
 11 12  1  0
  3  2  1  0
  2 12  1  0
 15  1  1  0
 15 14  1  0
 18 17  1  0
 12 13  1  0
 16 13  1  0
 16 17  1  0
 13 14  1  0
  1 19  1  0
  1 20  1  0
  1 21  1  0
  2 22  1  0
  2 23  1  0
  3 24  1  0
  3 25  1  0
  5 26  1  0
  6 27  1  0
  7 28  1  0
  9 29  1  0
  9 30  1  0
 11 31  1  0
 11 32  1  0
 13 33  1  1
 14 34  1  0
 14 35  1  0
 16 36  1  0
 16 37  1  0
 18 38  1  0
 18 39  1  0
 18 40  1  0
M  END
