
     RDKit          3D

 53 56  0  0  0  0  0  0  0  0999 V2000
   -6.2032   -2.8098   -0.5250 O   0  0  0  0  0  0  0  0  0  0  0  0
   -5.3338   -2.0035   -0.2423 C   0  0  0  0  0  0  0  0  0  0  0  0
   -5.5571   -0.6044    0.0493 C   0  0  0  0  0  0  0  0  0  0  0  0
   -6.9522   -0.0720    0.0272 C   0  0  0  0  0  0  0  0  0  0  0  0
   -4.0082   -2.3880   -0.1816 N   0  0  0  0  0  0  0  0  0  0  0  0
   -2.9085   -1.6136    0.0972 C   0  0  0  0  0  0  0  0  0  0  0  0
   -1.7905   -2.0885    0.1220 O   0  0  0  0  0  0  0  0  0  0  0  0
   -3.1890   -0.2909    0.3418 N   0  0  0  0  0  0  0  0  0  0  0  0
   -4.4823    0.1590    0.3197 C   0  0  0  0  0  0  0  0  0  0  0  0
   -2.1126    0.6625    0.6599 C   0  0  1  0  0  0  0  0  0  0  0  0
   -1.4481    0.4026    2.0057 C   0  0  0  0  0  0  0  0  0  0  0  0
   -0.4492    1.5175    2.2911 C   0  0  0  0  0  0  0  0  0  0  0  0
    0.5342    1.6177    1.2296 N   0  0  0  0  0  0  0  0  0  0  0  0
   -0.1002    1.9194   -0.0400 C   0  0  0  0  0  0  0  0  0  0  0  0
   -1.0604    0.8054   -0.4315 C   0  0  0  0  0  0  0  0  0  0  0  0
    1.5909    2.5465    1.5701 C   0  0  0  0  0  0  0  0  0  0  0  0
    2.6934    2.5316    0.5455 C   0  0  0  0  0  0  0  0  0  0  0  0
    3.1999    1.3360    0.2387 N   0  0  0  0  0  0  0  0  0  0  0  0
    4.1135    1.2589   -0.6938 C   0  0  0  0  0  0  0  0  0  0  0  0
    4.6434    2.3609   -1.3665 C   0  0  0  0  0  0  0  0  0  0  0  0
    4.1436    3.5987   -1.0205 C   0  0  0  0  0  0  0  0  0  0  0  0
    3.1404    3.6938   -0.0584 C   0  0  0  0  0  0  0  0  0  0  0  0
    4.5977    0.0413   -1.0350 O   0  0  0  0  0  0  0  0  0  0  0  0
    3.9271   -1.0855   -0.6185 C   0  0  0  0  0  0  0  0  0  0  0  0
    2.6282   -1.3397   -1.0403 C   0  0  0  0  0  0  0  0  0  0  0  0
    2.0067   -2.5151   -0.6492 C   0  0  0  0  0  0  0  0  0  0  0  0
    2.6769   -3.4345    0.1506 C   0  0  0  0  0  0  0  0  0  0  0  0
    3.9767   -3.1711    0.5579 C   0  0  0  0  0  0  0  0  0  0  0  0
    4.6053   -1.9899    0.1809 C   0  0  0  0  0  0  0  0  0  0  0  0
   -7.4170   -0.2181   -0.9488 H   0  0  0  0  0  0  0  0  0  0  0  0
   -7.5829   -0.5737    0.7627 H   0  0  0  0  0  0  0  0  0  0  0  0
   -6.9662    0.9941    0.2477 H   0  0  0  0  0  0  0  0  0  0  0  0
   -3.8076   -3.3624   -0.3709 H   0  0  0  0  0  0  0  0  0  0  0  0
   -4.5983    1.2123    0.5374 H   0  0  0  0  0  0  0  0  0  0  0  0
   -2.6223    1.6273    0.7304 H   0  0  0  0  0  0  0  0  0  0  0  0
   -2.1957    0.3698    2.8012 H   0  0  0  0  0  0  0  0  0  0  0  0
   -0.9261   -0.5545    1.9930 H   0  0  0  0  0  0  0  0  0  0  0  0
   -0.9934    2.4692    2.4305 H   0  0  0  0  0  0  0  0  0  0  0  0
    0.0641    1.3085    3.2323 H   0  0  0  0  0  0  0  0  0  0  0  0
   -0.6363    2.8856   -0.0060 H   0  0  0  0  0  0  0  0  0  0  0  0
    0.6603    2.0096   -0.8170 H   0  0  0  0  0  0  0  0  0  0  0  0
   -0.4923   -0.1168   -0.5432 H   0  0  0  0  0  0  0  0  0  0  0  0
   -1.5288    1.0410   -1.3895 H   0  0  0  0  0  0  0  0  0  0  0  0
    1.2298    3.5802    1.6988 H   0  0  0  0  0  0  0  0  0  0  0  0
    2.0061    2.2402    2.5361 H   0  0  0  0  0  0  0  0  0  0  0  0
    5.4038    2.2425   -2.1260 H   0  0  0  0  0  0  0  0  0  0  0  0
    4.5137    4.4883   -1.5129 H   0  0  0  0  0  0  0  0  0  0  0  0
    2.7094    4.6502    0.2040 H   0  0  0  0  0  0  0  0  0  0  0  0
    2.1023   -0.6263   -1.6614 H   0  0  0  0  0  0  0  0  0  0  0  0
    0.9921   -2.7124   -0.9695 H   0  0  0  0  0  0  0  0  0  0  0  0
    2.1888   -4.3525    0.4500 H   0  0  0  0  0  0  0  0  0  0  0  0
    4.5073   -3.8814    1.1782 H   0  0  0  0  0  0  0  0  0  0  0  0
    5.6172   -1.7762    0.5010 H   0  0  0  0  0  0  0  0  0  0  0  0
 21 20  2  0
 21 22  1  0
 20 19  1  0
 22 17  2  0
 19 23  1  0
 19 18  2  0
 17 18  1  0
 17 16  1  0
 23 24  1  0
 16 13  1  0
 29 24  1  0
 29 28  2  0
 24 25  2  0
 13 12  1  0
 13 14  1  0
 12 11  1  0
 28 27  1  0
 25 26  1  0
 14 15  1  0
 11 10  1  0
 27 26  2  0
 15 10  1  0
 10  8  1  0
  8  9  1  0
  8  6  1  0
  7  6  2  0
  9  3  2  0
  6  5  1  0
  3  4  1  0
  3  2  1  0
  5  2  1  0
  2  1  2  0
  4 30  1  0
  4 31  1  0
  4 32  1  0
  5 33  1  0
  9 34  1  0
 10 35  1  1
 11 36  1  0
 11 37  1  0
 12 38  1  0
 12 39  1  0
 14 40  1  0
 14 41  1  0
 15 42  1  0
 15 43  1  0
 16 44  1  0
 16 45  1  0
 20 46  1  0
 21 47  1  0
 22 48  1  0
 25 49  1  0
 26 50  1  0
 27 51  1  0
 28 52  1  0
 29 53  1  0
M  END
