
     RDKit          3D

 35 36  0  0  0  0  0  0  0  0999 V2000
    0.6467   -0.4098   -4.0736 C   0  0  1  0  0  0  0  0  0  0  0  0
   -0.0913   -1.0896   -2.8810 C   0  0  2  0  0  0  0  0  0  0  0  0
   -1.4243   -0.5651   -3.0114 N   0  0  0  0  0  0  0  0  0  0  0  0
   -1.5515    0.3890   -3.9667 C   0  0  0  0  0  0  0  0  0  0  0  0
   -0.3393    0.5161   -4.5657 N   0  0  0  0  0  0  0  0  0  0  0  0
    0.6218   -0.7139   -1.5662 C   0  0  1  0  0  0  0  0  0  0  0  0
    1.4343    0.8877   -1.8877 S   0  0  0  0  0  0  0  0  0  0  0  0
    1.8890    0.2969   -3.5361 C   0  0  0  0  0  0  0  0  0  0  0  0
   -0.2847   -0.6718   -0.3485 C   0  0  0  0  0  0  0  0  0  0  0  0
    0.4521   -0.4029    0.9582 C   0  0  0  0  0  0  0  0  0  0  0  0
   -0.4866   -0.4080    2.1575 C   0  0  0  0  0  0  0  0  0  0  0  0
    0.2282   -0.1240    3.4731 C   0  0  0  0  0  0  0  0  0  0  0  0
   -0.7425   -0.1041    4.6419 C   0  0  0  0  0  0  0  0  0  0  0  0
   -0.0987    0.1930    5.9676 C   0  0  0  0  0  0  0  0  0  0  0  0
    1.0759    0.4028    6.1419 O   0  0  0  0  0  0  0  0  0  0  0  0
   -0.9886    0.1999    6.9575 O   0  0  0  0  0  0  0  0  0  0  0  0
   -2.5651    1.0168   -4.2373 O   0  0  0  0  0  0  0  0  0  0  0  0
    0.9330   -1.1326   -4.8422 H   0  0  0  0  0  0  0  0  0  0  0  0
   -0.0940   -2.1782   -2.9726 H   0  0  0  0  0  0  0  0  0  0  0  0
   -2.1725   -0.7838   -2.3759 H   0  0  0  0  0  0  0  0  0  0  0  0
   -0.2392    0.9914   -5.4463 H   0  0  0  0  0  0  0  0  0  0  0  0
    1.4078   -1.4575   -1.4001 H   0  0  0  0  0  0  0  0  0  0  0  0
    2.1954    1.1298   -4.1689 H   0  0  0  0  0  0  0  0  0  0  0  0
    2.7223   -0.4037   -3.4616 H   0  0  0  0  0  0  0  0  0  0  0  0
   -0.7998   -1.6374   -0.2770 H   0  0  0  0  0  0  0  0  0  0  0  0
   -1.0607    0.0851   -0.4927 H   0  0  0  0  0  0  0  0  0  0  0  0
    0.9629    0.5642    0.9056 H   0  0  0  0  0  0  0  0  0  0  0  0
    1.2339   -1.1559    1.0989 H   0  0  0  0  0  0  0  0  0  0  0  0
   -0.9901   -1.3792    2.2159 H   0  0  0  0  0  0  0  0  0  0  0  0
   -1.2765    0.3349    2.0048 H   0  0  0  0  0  0  0  0  0  0  0  0
    0.7474    0.8362    3.4070 H   0  0  0  0  0  0  0  0  0  0  0  0
    0.9974   -0.8828    3.6404 H   0  0  0  0  0  0  0  0  0  0  0  0
   -1.2640   -1.0632    4.7257 H   0  0  0  0  0  0  0  0  0  0  0  0
   -1.5287    0.6389    4.4740 H   0  0  0  0  0  0  0  0  0  0  0  0
   -0.5450    0.3865    7.7981 H   0  0  0  0  0  0  0  0  0  0  0  0
  1  2  1  0
  1  5  1  0
  1  8  1  0
  1 18  1  6
  2  3  1  0
  2  6  1  0
  2 19  1  6
  3  4  1  0
  3 20  1  0
  4  5  1  0
  4 17  2  0
  5 21  1  0
  6  7  1  0
  6  9  1  0
  6 22  1  1
  7  8  1  0
  8 23  1  0
  8 24  1  0
  9 10  1  0
  9 25  1  0
  9 26  1  0
 10 11  1  0
 10 27  1  0
 10 28  1  0
 11 12  1  0
 11 29  1  0
 11 30  1  0
 12 13  1  0
 12 31  1  0
 12 32  1  0
 13 14  1  0
 13 33  1  0
 13 34  1  0
 14 15  2  0
 14 16  1  0
 16 35  1  0
M  END
