
     RDKit          3D

 38 40  0  0  0  0  0  0  0  0999 V2000
    2.7798   -0.0855   -0.0014 C   0  0  0  0  0  0  0  0  0  0  0  0
    2.8828   -1.3323   -0.6213 C   0  0  0  0  0  0  0  0  0  0  0  0
    4.0261   -2.1038   -0.4760 C   0  0  0  0  0  0  0  0  0  0  0  0
    5.0882   -1.6427    0.2909 C   0  0  0  0  0  0  0  0  0  0  0  0
    4.9965   -0.4045    0.9133 C   0  0  0  0  0  0  0  0  0  0  0  0
    3.8525    0.3667    0.7689 C   0  0  0  0  0  0  0  0  0  0  0  0
   -0.6145    2.3409   -0.4671 C   0  0  0  0  0  0  0  0  0  0  0  0
    1.6553    2.1259   -0.2843 C   0  0  0  0  0  0  0  0  0  0  0  0
    1.5676    0.7394   -0.1630 C   0  0  0  0  0  0  0  0  0  0  0  0
    0.3048    0.1643   -0.1908 C   0  0  0  0  0  0  0  0  0  0  0  0
   -0.8422    0.9551   -0.3566 C   0  0  0  0  0  0  0  0  0  0  0  0
   -3.2881    1.2014   -0.1802 C   0  0  0  0  0  0  0  0  0  0  0  0
   -4.3146    0.5390    0.7374 C   0  0  0  0  0  0  0  0  0  0  0  0
   -4.9366   -0.7496    0.1966 C   0  0  0  0  0  0  0  0  0  0  0  0
   -2.7453   -1.9273    0.2103 C   0  0  0  0  0  0  0  0  0  0  0  0
   -2.2983   -0.9491   -0.8716 C   0  0  0  0  0  0  0  0  0  0  0  0
   -2.0978    0.4062   -0.3973 N   0  0  0  0  0  0  0  0  0  0  0  0
   -4.1924   -1.9862    0.3728 N   0  0  0  0  0  0  0  0  0  0  0  0
    0.5864    2.8935   -0.4250 N   0  0  0  0  0  0  0  0  0  0  0  0
    2.0712   -1.6964   -1.2393 H   0  0  0  0  0  0  0  0  0  0  0  0
    4.0901   -3.0644   -0.9705 H   0  0  0  0  0  0  0  0  0  0  0  0
    5.9805   -2.2449    0.4025 H   0  0  0  0  0  0  0  0  0  0  0  0
    5.8151   -0.0394    1.5199 H   0  0  0  0  0  0  0  0  0  0  0  0
    3.7867    1.3206    1.2771 H   0  0  0  0  0  0  0  0  0  0  0  0
    2.6192    2.6231   -0.2933 H   0  0  0  0  0  0  0  0  0  0  0  0
    0.2131   -0.9036   -0.0389 H   0  0  0  0  0  0  0  0  0  0  0  0
   -3.7701    1.4481   -1.1363 H   0  0  0  0  0  0  0  0  0  0  0  0
   -3.0050    2.1446    0.2821 H   0  0  0  0  0  0  0  0  0  0  0  0
   -3.8790    0.3717    1.7271 H   0  0  0  0  0  0  0  0  0  0  0  0
   -5.1154    1.2713    0.8715 H   0  0  0  0  0  0  0  0  0  0  0  0
   -5.9064   -0.9038    0.6729 H   0  0  0  0  0  0  0  0  0  0  0  0
   -5.1587   -0.5995   -0.8663 H   0  0  0  0  0  0  0  0  0  0  0  0
   -2.3911   -2.9271   -0.0578 H   0  0  0  0  0  0  0  0  0  0  0  0
   -2.2228   -1.6524    1.1363 H   0  0  0  0  0  0  0  0  0  0  0  0
   -1.3713   -1.3093   -1.3143 H   0  0  0  0  0  0  0  0  0  0  0  0
   -3.0237   -0.9429   -1.6941 H   0  0  0  0  0  0  0  0  0  0  0  0
   -4.3964   -2.3671    1.2857 H   0  0  0  0  0  0  0  0  0  0  0  0
   -1.4398    3.0278   -0.6096 H   0  0  0  0  0  0  0  0  0  0  0  0
 18 14  1  0
 18 15  1  0
 14 13  1  0
 13 12  1  0
 15 16  1  0
  3  2  2  0
  3  4  1  0
  2  1  1  0
 16 17  1  0
 12 17  1  0
  4  5  2  0
 17 11  1  0
 10 11  1  0
 10  9  2  0
 11  7  2  0
  1  9  1  0
  1  6  2  0
  9  8  1  0
  7 19  1  0
  5  6  1  0
  8 19  2  0
  2 20  1  0
  3 21  1  0
  4 22  1  0
  5 23  1  0
  6 24  1  0
  7 38  1  0
  8 25  1  0
 10 26  1  0
 12 27  1  0
 12 28  1  0
 13 29  1  0
 13 30  1  0
 14 31  1  0
 14 32  1  0
 15 33  1  0
 15 34  1  0
 16 35  1  0
 16 36  1  0
 18 37  1  0
M  END
