
     RDKit          3D

 29 30  0  0  0  0  0  0  0  0999 V2000
   -1.4654   -0.5671    0.6146 N   0  0  0  0  0  0  0  0  0  0  0  0
   -2.9712    0.5035   -1.0371 C   0  0  0  0  0  0  0  0  0  0  0  0
   -4.2693    0.9154   -1.2989 C   0  0  0  0  0  0  0  0  0  0  0  0
   -5.2569    0.7199   -0.3491 C   0  0  0  0  0  0  0  0  0  0  0  0
   -3.7777   -0.2512    1.0793 C   0  0  0  0  0  0  0  0  0  0  0  0
    2.1875   -0.8397    0.2365 C   0  0  0  0  0  0  0  0  0  0  0  0
    4.1244   -1.1546   -1.1510 C   0  0  0  0  0  0  0  0  0  0  0  0
    2.7541    0.3275    0.7385 C   0  0  0  0  0  0  0  0  0  0  0  0
    0.8330   -1.2697    0.7156 C   0  0  0  0  0  0  0  0  0  0  0  0
   -0.2895   -0.6084   -0.0661 C   0  0  0  0  0  0  0  0  0  0  0  0
   -2.7075   -0.1019    0.1899 C   0  0  0  0  0  0  0  0  0  0  0  0
   -5.0105    0.1449    0.8235 N   0  0  0  0  0  0  0  0  0  0  0  0
   -0.1438   -0.1874   -1.1958 O   0  0  0  0  0  0  0  0  0  0  0  0
    2.8772   -1.5828   -0.7132 C   0  0  0  0  0  0  0  0  0  0  0  0
    4.6931    0.0071   -0.6554 C   0  0  0  0  0  0  0  0  0  0  0  0
    4.0025    0.7549    0.2966 C   0  0  0  0  0  0  0  0  0  0  0  0
    4.5873    1.8788    0.7583 O   0  0  0  0  0  0  0  0  0  0  0  0
   -1.4505   -0.9466    1.5498 H   0  0  0  0  0  0  0  0  0  0  0  0
   -2.1975    0.6562   -1.7711 H   0  0  0  0  0  0  0  0  0  0  0  0
   -4.5081    1.3894   -2.2411 H   0  0  0  0  0  0  0  0  0  0  0  0
   -6.2765    1.0358   -0.5361 H   0  0  0  0  0  0  0  0  0  0  0  0
   -3.6073   -0.7190    2.0457 H   0  0  0  0  0  0  0  0  0  0  0  0
    4.6648   -1.7350   -1.8878 H   0  0  0  0  0  0  0  0  0  0  0  0
    2.2168    0.9083    1.4822 H   0  0  0  0  0  0  0  0  0  0  0  0
    0.7136   -2.3510    0.5957 H   0  0  0  0  0  0  0  0  0  0  0  0
    0.7186   -1.0671    1.7828 H   0  0  0  0  0  0  0  0  0  0  0  0
    2.4462   -2.4947   -1.1066 H   0  0  0  0  0  0  0  0  0  0  0  0
    5.6672    0.3349   -0.9965 H   0  0  0  0  0  0  0  0  0  0  0  0
    4.0200    2.3124    1.4053 H   0  0  0  0  0  0  0  0  0  0  0  0
  3  2  2  0
  3  4  1  0
  2 11  1  0
 13 10  2  0
  4 12  2  0
 10  1  1  0
 10  9  1  0
 11  1  1  0
 11  5  2  0
  9  6  1  0
 14  6  1  0
 14  7  2  0
 12  5  1  0
  6  8  2  0
  7 15  1  0
  8 16  1  0
 15 16  2  0
 16 17  1  0
  1 18  1  0
  2 19  1  0
  3 20  1  0
  4 21  1  0
  5 22  1  0
  7 23  1  0
  8 24  1  0
  9 25  1  0
  9 26  1  0
 14 27  1  0
 15 28  1  0
 17 29  1  0
M  END
