
     RDKit          3D

 30 32  0  0  0  0  0  0  0  0999 V2000
   -0.7916    0.2547   -0.0403 C   0  0  0  0  0  0  0  0  0  0  0  0
    1.5489   -0.4026    0.0864 C   0  0  0  0  0  0  0  0  0  0  0  0
   -0.3479    1.4939   -0.2587 N   0  0  0  0  0  0  0  0  0  0  0  0
    2.2116    0.0108    1.2319 C   0  0  0  0  0  0  0  0  0  0  0  0
    2.2462   -0.5308   -1.1048 C   0  0  0  0  0  0  0  0  0  0  0  0
   -1.5197   -2.3935    0.4189 C   0  0  0  0  0  0  0  0  0  0  0  0
   -2.5914   -1.4459    0.2486 C   0  0  0  0  0  0  0  0  0  0  0  0
   -3.0500    1.0100   -0.1939 C   0  0  0  0  0  0  0  0  0  0  0  0
   -1.2813    2.4076   -0.4308 C   0  0  0  0  0  0  0  0  0  0  0  0
    3.5647    0.2919    1.1905 C   0  0  0  0  0  0  0  0  0  0  0  0
    3.6003   -0.2524   -1.1528 C   0  0  0  0  0  0  0  0  0  0  0  0
    0.1542   -0.7189    0.1380 N   0  0  0  0  0  0  0  0  0  0  0  0
   -0.2283   -2.0055    0.3589 C   0  0  0  0  0  0  0  0  0  0  0  0
   -2.1496   -0.0805    0.0103 C   0  0  0  0  0  0  0  0  0  0  0  0
   -3.7836   -1.7739    0.3007 O   0  0  0  0  0  0  0  0  0  0  0  0
   -2.5908    2.2485   -0.4140 N   0  0  0  0  0  0  0  0  0  0  0  0
   -4.3646    0.8390   -0.1738 N   0  0  0  0  0  0  0  0  0  0  0  0
    4.2872    0.1660   -0.0047 C   0  0  0  0  0  0  0  0  0  0  0  0
    5.6398    0.3959   -0.0371 N   0  0  0  0  0  0  0  0  0  0  0  0
    1.6690    0.1155    2.1632 H   0  0  0  0  0  0  0  0  0  0  0  0
    1.7316   -0.8493   -2.0026 H   0  0  0  0  0  0  0  0  0  0  0  0
   -1.7515   -3.4340    0.5980 H   0  0  0  0  0  0  0  0  0  0  0  0
   -0.9288    3.4186   -0.6091 H   0  0  0  0  0  0  0  0  0  0  0  0
    4.0710    0.6131    2.0924 H   0  0  0  0  0  0  0  0  0  0  0  0
    4.1346   -0.3570   -2.0893 H   0  0  0  0  0  0  0  0  0  0  0  0
    0.5822   -2.7089    0.4850 H   0  0  0  0  0  0  0  0  0  0  0  0
   -4.7461   -0.0812   -0.0134 H   0  0  0  0  0  0  0  0  0  0  0  0
   -4.9703    1.6256   -0.3354 H   0  0  0  0  0  0  0  0  0  0  0  0
    6.0094    0.9880    0.6888 H   0  0  0  0  0  0  0  0  0  0  0  0
    6.0368    0.6035   -0.9390 H   0  0  0  0  0  0  0  0  0  0  0  0
 16  9  1  0
 16  8  2  0
  9  3  2  0
 17  8  1  0
  8 14  1  0
  3  1  1  0
 14  1  2  0
 14  7  1  0
  1 12  1  0
 15  7  2  0
  7  6  1  0
 12  2  1  0
 12 13  1  0
  2  5  1  0
  2  4  2  0
  5 11  2  0
  4 10  1  0
 11 18  1  0
  6 13  2  0
 10 18  2  0
 18 19  1  0
  4 20  1  0
  5 21  1  0
  6 22  1  0
  9 23  1  0
 10 24  1  0
 11 25  1  0
 13 26  1  0
 17 27  1  0
 17 28  1  0
 19 29  1  0
 19 30  1  0
M  END
