
     RDKit          3D

 44 47  0  0  0  0  0  0  0  0999 V2000
    0.9976    1.2493   -0.8798 N   0  0  0  0  0  0  0  0  0  0  0  0
   -1.2331    1.0283    0.0946 C   0  0  0  0  0  0  0  0  0  0  0  0
   -0.7124    1.3588    1.1347 O   0  0  0  0  0  0  0  0  0  0  0  0
    0.6883   -3.5999    0.5090 C   0  0  0  0  0  0  0  0  0  0  0  0
    0.8012   -2.7259    1.5734 C   0  0  0  0  0  0  0  0  0  0  0  0
    1.1626   -1.4135    1.3176 C   0  0  0  0  0  0  0  0  0  0  0  0
    0.9250   -3.2123   -0.7973 C   0  0  0  0  0  0  0  0  0  0  0  0
    1.2816   -1.8976   -1.0427 C   0  0  0  0  0  0  0  0  0  0  0  0
    1.3953   -0.9940    0.0113 C   0  0  0  0  0  0  0  0  0  0  0  0
    1.8028    0.3979   -0.2453 C   0  0  0  0  0  0  0  0  0  0  0  0
    3.0586    0.8278    0.1595 C   0  0  0  0  0  0  0  0  0  0  0  0
    3.4435    2.1541   -0.0738 N   0  0  0  0  0  0  0  0  0  0  0  0
    4.6806    2.3444    0.4014 C   0  0  0  0  0  0  0  0  0  0  0  0
    5.1223    1.1448    0.9522 C   0  0  0  0  0  0  0  0  0  0  0  0
    4.1206    0.1942    0.8019 C   0  0  0  0  0  0  0  0  0  0  0  0
    2.5884    3.0077   -0.7167 C   0  0  0  0  0  0  0  0  0  0  0  0
    1.3881    2.5552   -1.1053 C   0  0  0  0  0  0  0  0  0  0  0  0
   -0.3856    0.9087   -1.1694 C   0  0  0  0  0  0  0  0  0  0  0  0
   -2.6697    0.7236   -0.0231 C   0  0  0  0  0  0  0  0  0  0  0  0
   -3.2519    0.3383   -1.2313 C   0  0  0  0  0  0  0  0  0  0  0  0
   -4.6068    0.0633   -1.3000 C   0  0  0  0  0  0  0  0  0  0  0  0
   -5.4171    0.1623   -0.1705 C   0  0  0  0  0  0  0  0  0  0  0  0
   -6.8770   -0.1651   -0.2386 C   0  0  0  0  0  0  0  0  0  0  0  0
   -4.8289    0.5502    1.0349 C   0  0  0  0  0  0  0  0  0  0  0  0
   -3.4778    0.8258    1.1118 C   0  0  0  0  0  0  0  0  0  0  0  0
    0.6103   -3.0600    2.5840 H   0  0  0  0  0  0  0  0  0  0  0  0
    1.2527   -0.7154    2.1386 H   0  0  0  0  0  0  0  0  0  0  0  0
    0.8387   -3.9228   -1.6080 H   0  0  0  0  0  0  0  0  0  0  0  0
    1.4796   -1.5817   -2.0592 H   0  0  0  0  0  0  0  0  0  0  0  0
    5.1717    3.3003    0.3227 H   0  0  0  0  0  0  0  0  0  0  0  0
    6.0853    0.9966    1.4132 H   0  0  0  0  0  0  0  0  0  0  0  0
    4.1431   -0.8366    1.1157 H   0  0  0  0  0  0  0  0  0  0  0  0
    2.9117    4.0216   -0.8899 H   0  0  0  0  0  0  0  0  0  0  0  0
    0.6838    3.1926   -1.6134 H   0  0  0  0  0  0  0  0  0  0  0  0
   -0.7527    1.5887   -1.9382 H   0  0  0  0  0  0  0  0  0  0  0  0
   -0.4550   -0.0927   -1.5892 H   0  0  0  0  0  0  0  0  0  0  0  0
   -2.6627    0.2488   -2.1352 H   0  0  0  0  0  0  0  0  0  0  0  0
   -5.0398   -0.2320   -2.2473 H   0  0  0  0  0  0  0  0  0  0  0  0
   -7.0393   -1.2236   -0.0244 H   0  0  0  0  0  0  0  0  0  0  0  0
   -7.4480    0.4038    0.4940 H   0  0  0  0  0  0  0  0  0  0  0  0
   -7.2882    0.0342   -1.2273 H   0  0  0  0  0  0  0  0  0  0  0  0
   -5.4420    0.6387    1.9234 H   0  0  0  0  0  0  0  0  0  0  0  0
   -3.0466    1.1264    2.0572 H   0  0  0  0  0  0  0  0  0  0  0  0
    0.3416   -4.8675    0.7512 F   0  0  0  0  0  0  0  0  0  0  0  0
 23 22  1  0
 21 22  1  0
 21 20  2  0
 22 24  2  0
 20 19  1  0
 24 25  1  0
 19 25  2  0
 19  2  1  0
  3  2  2  0
  2 18  1  0
 18  1  1  0
 17  1  1  0
 17 16  2  0
  1 10  2  0
 16 12  1  0
 10  9  1  0
 10 11  1  0
  8  9  2  0
  8  7  1  0
 12 11  1  0
 12 13  1  0
  9  6  1  0
  7  4  2  0
 11 15  2  0
 13 14  2  0
  6  5  2  0
  4  5  1  0
  4 44  1  0
 15 14  1  0
  5 26  1  0
  6 27  1  0
  7 28  1  0
  8 29  1  0
 13 30  1  0
 14 31  1  0
 15 32  1  0
 16 33  1  0
 17 34  1  0
 18 35  1  0
 18 36  1  0
 20 37  1  0
 21 38  1  0
 23 39  1  0
 23 40  1  0
 23 41  1  0
 24 42  1  0
 25 43  1  0
M  CHG  1   1   1
M  END
