
     RDKit          3D

 45 48  0  0  0  0  0  0  0  0999 V2000
    1.9519    1.8467   -1.8050 C   0  0  0  0  0  0  0  0  0  0  0  0
   -5.7079   -1.5317   -1.8143 C   0  0  0  0  0  0  0  0  0  0  0  0
   -6.5829   -0.9875   -0.8892 C   0  0  0  0  0  0  0  0  0  0  0  0
   -4.3431   -1.3435   -1.6437 C   0  0  0  0  0  0  0  0  0  0  0  0
   -1.5293   -1.5538   -0.5441 C   0  0  0  0  0  0  0  0  0  0  0  0
   -1.7890    0.8084   -0.2447 C   0  0  0  0  0  0  0  0  0  0  0  0
   -0.1545   -1.4184   -0.4602 C   0  0  0  0  0  0  0  0  0  0  0  0
   -0.4135    0.9501   -0.1796 C   0  0  0  0  0  0  0  0  0  0  0  0
   -6.1038   -0.2687    0.1988 C   0  0  0  0  0  0  0  0  0  0  0  0
    4.4975   -1.7993    1.5072 C   0  0  0  0  0  0  0  0  0  0  0  0
    5.8537   -1.7108    1.6575 C   0  0  0  0  0  0  0  0  0  0  0  0
    6.0188    0.1267    0.3258 C   0  0  0  0  0  0  0  0  0  0  0  0
    2.5944    0.9720   -0.8895 C   0  0  0  0  0  0  0  0  0  0  0  0
    4.6281    0.1414    0.0901 C   0  0  0  0  0  0  0  0  0  0  0  0
   -2.3710   -0.4454   -0.4365 C   0  0  0  0  0  0  0  0  0  0  0  0
    0.4204   -0.1610   -0.2904 C   0  0  0  0  0  0  0  0  0  0  0  0
   -3.8331   -0.6177   -0.5718 C   0  0  0  0  0  0  0  0  0  0  0  0
    3.8342   -0.8527    0.7035 C   0  0  0  0  0  0  0  0  0  0  0  0
   -4.7333   -0.0824    0.3676 C   0  0  0  0  0  0  0  0  0  0  0  0
    3.9693    1.0796   -0.7449 C   0  0  0  0  0  0  0  0  0  0  0  0
    1.8875   -0.0438   -0.1852 C   0  0  0  0  0  0  0  0  0  0  0  0
   -4.1696    1.8935    3.3763 C   0  0  0  0  0  0  0  0  0  0  0  0
   -5.0428    1.1952    2.3615 C   0  0  0  0  0  0  0  0  0  0  0  0
    1.4605    2.5531   -2.5719 N   0  0  0  0  0  0  0  0  0  0  0  0
    6.6141   -0.7591    1.0777 N   0  0  0  0  0  0  0  0  0  0  0  0
    2.4939   -0.9262    0.5639 N   0  0  0  0  0  0  0  0  0  0  0  0
   -4.1931    0.5743    1.4074 O   0  0  0  0  0  0  0  0  0  0  0  0
   -6.0779   -2.0897   -2.6635 H   0  0  0  0  0  0  0  0  0  0  0  0
   -7.6511   -1.1190   -1.0042 H   0  0  0  0  0  0  0  0  0  0  0  0
   -3.6532   -1.7551   -2.3705 H   0  0  0  0  0  0  0  0  0  0  0  0
   -6.8104    0.1335    0.9118 H   0  0  0  0  0  0  0  0  0  0  0  0
   -1.9556   -2.5395   -0.6834 H   0  0  0  0  0  0  0  0  0  0  0  0
    0.4779   -2.2929   -0.5373 H   0  0  0  0  0  0  0  0  0  0  0  0
   -2.4092    1.6894   -0.1571 H   0  0  0  0  0  0  0  0  0  0  0  0
    0.0014    1.9358   -0.0122 H   0  0  0  0  0  0  0  0  0  0  0  0
    3.9299   -2.5801    1.9940 H   0  0  0  0  0  0  0  0  0  0  0  0
    6.3820   -2.4291    2.2722 H   0  0  0  0  0  0  0  0  0  0  0  0
    6.6675    0.8740   -0.1210 H   0  0  0  0  0  0  0  0  0  0  0  0
    5.5364    2.0439   -1.2909 H   0  0  0  0  0  0  0  0  0  0  0  0
   -4.7997    2.4007    4.1063 H   0  0  0  0  0  0  0  0  0  0  0  0
   -3.5371    1.1866    3.9128 H   0  0  0  0  0  0  0  0  0  0  0  0
   -3.5323    2.6414    2.9039 H   0  0  0  0  0  0  0  0  0  0  0  0
   -5.6771    0.4481    2.8506 H   0  0  0  0  0  0  0  0  0  0  0  0
   -5.7034    1.9142    1.8658 H   0  0  0  0  0  0  0  0  0  0  0  0
    4.5783    2.0389   -1.4099 O   0  0  0  0  0  0  0  0  0  0  0  0
  1 13  1  0
  1 24  3  0
  2  3  2  0
  2  4  1  0
  3  9  1  0
  4 17  2  0
  5  7  2  0
  5 15  1  0
  6  8  1  0
  6 15  2  0
  7 16  1  0
  8 16  2  0
  9 19  2  0
 10 11  2  0
 10 18  1  0
 11 25  1  0
 12 14  1  0
 12 25  2  0
 13 20  2  0
 13 21  1  0
 14 18  2  0
 14 20  1  0
 15 17  1  0
 16 21  1  0
 17 19  1  0
 18 26  1  0
 19 27  1  0
 20 45  1  0
 21 26  2  0
 22 23  1  0
 23 27  1  0
  2 28  1  0
  3 29  1  0
  4 30  1  0
  9 31  1  0
  5 32  1  0
  7 33  1  0
  6 34  1  0
  8 35  1  0
 10 36  1  0
 11 37  1  0
 12 38  1  0
 45 39  1  0
 22 40  1  0
 22 41  1  0
 22 42  1  0
 23 43  1  0
 23 44  1  0
M  END
