
     RDKit          3D

 39 42  0  0  0  0  0  0  0  0999 V2000
   -0.8693   -5.2657   -1.1205 C   0  0  1  0  0  0  0  0  0  0  0  0
   -0.6258   -3.8070   -0.8124 C   0  0  0  0  0  0  0  0  0  0  0  0
   -1.5273   -2.8349   -1.2403 C   0  0  0  0  0  0  0  0  0  0  0  0
   -1.3390   -1.4897   -0.9542 C   0  0  0  0  0  0  0  0  0  0  0  0
   -0.2195   -1.1007   -0.2236 C   0  0  0  0  0  0  0  0  0  0  0  0
    3.1253   -7.4214   -0.2291 C   0  0  0  0  0  0  0  0  0  0  0  0
    3.6671   -7.0646    2.4554 C   0  0  0  0  0  0  0  0  0  0  0  0
    2.7768   -6.2246    1.8046 C   0  0  0  0  0  0  0  0  0  0  0  0
   -2.0258   -5.9229    0.8814 C   0  0  0  0  0  0  0  0  0  0  0  0
   -0.5686   -6.3988    1.0335 C   0  0  0  0  0  0  0  0  0  0  0  0
    0.1038   -6.1554   -0.3359 C   0  0  2  0  0  0  0  0  0  0  0  0
   -2.2625   -0.6066   -1.4023 O   0  0  0  0  0  0  0  0  0  0  0  0
    0.6956   -2.0526    0.1904 C   0  0  0  0  0  0  0  0  0  0  0  0
    0.5025   -3.3986   -0.1021 C   0  0  0  0  0  0  0  0  0  0  0  0
    1.4505   -4.2636    0.3451 O   0  0  0  0  0  0  0  0  0  0  0  0
    1.4927   -5.5335   -0.2809 C   0  0  1  0  0  0  0  0  0  0  0  0
    2.4890   -6.3896    0.4525 C   0  0  0  0  0  0  0  0  0  0  0  0
    4.0136   -8.2736    0.4089 C   0  0  0  0  0  0  0  0  0  0  0  0
    4.2906   -8.0985    1.7620 C   0  0  0  0  0  0  0  0  0  0  0  0
    5.1462   -8.8888    2.4421 O   0  0  0  0  0  0  0  0  0  0  0  0
   -2.2314   -5.7557   -0.6232 C   0  0  0  0  0  0  0  0  0  0  0  0
   -0.7592   -5.4214   -2.1980 H   0  0  0  0  0  0  0  0  0  0  0  0
   -2.4039   -3.1333   -1.8045 H   0  0  0  0  0  0  0  0  0  0  0  0
   -0.0502   -0.0569    0.0143 H   0  0  0  0  0  0  0  0  0  0  0  0
    3.8827   -6.9175    3.5065 H   0  0  0  0  0  0  0  0  0  0  0  0
    2.3125   -5.4290    2.3723 H   0  0  0  0  0  0  0  0  0  0  0  0
   -2.1641   -4.9620    1.3819 H   0  0  0  0  0  0  0  0  0  0  0  0
   -2.7420   -6.6153    1.3249 H   0  0  0  0  0  0  0  0  0  0  0  0
   -0.0685   -5.8612    1.8400 H   0  0  0  0  0  0  0  0  0  0  0  0
   -0.5181   -7.4564    1.2927 H   0  0  0  0  0  0  0  0  0  0  0  0
    0.1970   -7.1069   -0.8659 H   0  0  0  0  0  0  0  0  0  0  0  0
   -2.0111    0.2904   -1.1570 H   0  0  0  0  0  0  0  0  0  0  0  0
    1.5733   -1.7490    0.7478 H   0  0  0  0  0  0  0  0  0  0  0  0
    1.8405   -5.4042   -1.3170 H   0  0  0  0  0  0  0  0  0  0  0  0
    4.4942   -9.0669   -0.1524 H   0  0  0  0  0  0  0  0  0  0  0  0
    5.5325   -9.5492    1.8564 H   0  0  0  0  0  0  0  0  0  0  0  0
   -2.4462   -6.7223   -1.0874 H   0  0  0  0  0  0  0  0  0  0  0  0
   -3.0577   -5.0892   -0.8732 H   0  0  0  0  0  0  0  0  0  0  0  0
    2.9284   -7.5691   -1.2850 H   0  0  0  0  0  0  0  0  0  0  0  0
  1 21  1  0
  1  2  1  0
  1 11  1  0
  1 22  1  6
  2  3  2  0
  2 14  1  0
  3  4  1  0
  3 23  1  0
  4 12  1  0
  4  5  2  0
  5 13  1  0
  5 24  1  0
  6 17  2  0
  6 18  1  0
  6 39  1  0
  7  8  2  0
  7 19  1  0
  7 25  1  0
  8 17  1  0
  8 26  1  0
  9 21  1  0
  9 10  1  0
  9 27  1  0
  9 28  1  0
 10 11  1  0
 10 29  1  0
 10 30  1  0
 11 16  1  0
 11 31  1  6
 12 32  1  0
 13 14  2  0
 13 33  1  0
 14 15  1  0
 15 16  1  0
 16 17  1  0
 16 34  1  6
 18 19  2  0
 18 35  1  0
 19 20  1  0
 20 36  1  0
 21 37  1  0
 21 38  1  0
M  END
