
     RDKit          3D

 63 65  0  0  0  0  0  0  0  0999 V2000
   -6.0235   -1.5067   -0.2793 C   0  0  1  0  0  0  0  0  0  0  0  0
   -7.2797   -3.5474   -0.3655 C   0  0  0  0  0  0  0  0  0  0  0  0
   -5.1460    2.0269   -0.0160 C   0  0  0  0  0  0  0  0  0  0  0  0
   -4.0367    2.8599    0.0432 C   0  0  0  0  0  0  0  0  0  0  0  0
    8.0510    0.1072    0.8096 C   0  0  1  0  0  0  0  0  0  0  0  0
    9.3141    0.8989    1.0731 C   0  0  0  0  0  0  0  0  0  0  0  0
    4.5851    0.9818   -0.3354 C   0  0  0  0  0  0  0  0  0  0  0  0
    7.6485   -2.7132   -1.4981 C   0  0  0  0  0  0  0  0  0  0  0  0
    7.2240   -1.6884   -0.4677 C   0  0  2  0  0  0  0  0  0  0  0  0
    6.0765   -0.8237   -0.9680 C   0  0  0  0  0  0  0  0  0  0  0  0
    5.7473    0.1910    0.0182 N   0  0  0  0  0  0  0  0  0  0  0  0
    3.3131    0.1653   -0.0888 C   0  0  2  0  0  0  0  0  0  0  0  0
    2.1080    1.0773   -0.1194 C   0  0  0  0  0  0  0  0  0  0  0  0
    0.9487    0.2660   -0.0617 O   0  0  0  0  0  0  0  0  0  0  0  0
   -0.1751    1.0391   -0.0561 N   0  0  0  0  0  0  0  0  0  0  0  0
   -2.5581    0.9631   -0.0515 C   0  0  0  0  0  0  0  0  0  0  0  0
   -3.6749    0.1203   -0.1109 C   0  0  0  0  0  0  0  0  0  0  0  0
   -4.9606    0.6306   -0.0970 C   0  0  0  0  0  0  0  0  0  0  0  0
   -6.0909   -0.0947   -0.1671 O   0  0  0  0  0  0  0  0  0  0  0  0
   -5.7279   -2.2403    1.0271 C   0  0  0  0  0  0  0  0  0  0  0  0
   -6.2060   -3.6703    0.7457 C   0  0  0  0  0  0  0  0  0  0  0  0
   -7.3874   -2.0511   -0.6779 C   0  0  0  0  0  0  0  0  0  0  0  0
   -6.6761    3.8311    0.0721 C   0  0  0  0  0  0  0  0  0  0  0  0
   -2.7514    2.3351    0.0252 C   0  0  0  0  0  0  0  0  0  0  0  0
    3.4004   -0.4785    1.1583 O   0  0  0  0  0  0  0  0  0  0  0  0
    6.9169    0.9949    0.3209 C   0  0  0  0  0  0  0  0  0  0  0  0
    8.3462   -0.8878   -0.1521 O   0  0  0  0  0  0  0  0  0  0  0  0
   -5.2879   -1.7842   -1.0458 H   0  0  0  0  0  0  0  0  0  0  0  0
   -6.9718   -4.1007   -1.2538 H   0  0  0  0  0  0  0  0  0  0  0  0
   -8.2401   -3.9594   -0.0571 H   0  0  0  0  0  0  0  0  0  0  0  0
   -4.1573    3.9328    0.1049 H   0  0  0  0  0  0  0  0  0  0  0  0
    7.7213   -0.3750    1.7434 H   0  0  0  0  0  0  0  0  0  0  0  0
    9.1293    1.6613    1.8298 H   0  0  0  0  0  0  0  0  0  0  0  0
   10.1117    0.2535    1.4419 H   0  0  0  0  0  0  0  0  0  0  0  0
    4.5741    1.8630    0.3137 H   0  0  0  0  0  0  0  0  0  0  0  0
    4.6106    1.3436   -1.3734 H   0  0  0  0  0  0  0  0  0  0  0  0
    8.4695   -3.3258   -1.1249 H   0  0  0  0  0  0  0  0  0  0  0  0
    6.8171   -3.3787   -1.7311 H   0  0  0  0  0  0  0  0  0  0  0  0
    7.9695   -2.2346   -2.4247 H   0  0  0  0  0  0  0  0  0  0  0  0
    6.8792   -2.2061    0.4411 H   0  0  0  0  0  0  0  0  0  0  0  0
    6.3475   -0.3700   -1.9368 H   0  0  0  0  0  0  0  0  0  0  0  0
    5.2105   -1.4659   -1.1425 H   0  0  0  0  0  0  0  0  0  0  0  0
    3.1981   -0.5720   -0.8987 H   0  0  0  0  0  0  0  0  0  0  0  0
    2.1384    1.7706    0.7286 H   0  0  0  0  0  0  0  0  0  0  0  0
    2.1176    1.6676   -1.0429 H   0  0  0  0  0  0  0  0  0  0  0  0
   -3.5109   -0.9478   -0.1654 H   0  0  0  0  0  0  0  0  0  0  0  0
   -4.6827   -2.1995    1.3347 H   0  0  0  0  0  0  0  0  0  0  0  0
   -6.3210   -1.7824    1.8238 H   0  0  0  0  0  0  0  0  0  0  0  0
   -6.5957   -4.1418    1.6474 H   0  0  0  0  0  0  0  0  0  0  0  0
   -5.3746   -4.2883    0.4040 H   0  0  0  0  0  0  0  0  0  0  0  0
   -8.1523   -1.5809   -0.0536 H   0  0  0  0  0  0  0  0  0  0  0  0
   -7.6369   -1.8470   -1.7197 H   0  0  0  0  0  0  0  0  0  0  0  0
   -6.2736    4.2710    0.9884 H   0  0  0  0  0  0  0  0  0  0  0  0
   -6.2668    4.3693   -0.7870 H   0  0  0  0  0  0  0  0  0  0  0  0
   -7.7570    3.9462    0.0742 H   0  0  0  0  0  0  0  0  0  0  0  0
   -1.9056    3.0071    0.0755 H   0  0  0  0  0  0  0  0  0  0  0  0
    4.3539   -0.5970    1.3045 H   0  0  0  0  0  0  0  0  0  0  0  0
    6.6642    1.7158    1.1016 H   0  0  0  0  0  0  0  0  0  0  0  0
    7.2573    1.5665   -0.5590 H   0  0  0  0  0  0  0  0  0  0  0  0
   -6.4223    2.4423   -0.0042 O   0  0  0  0  0  0  0  0  0  0  0  0
   -1.2372    0.3430   -0.0685 C   0  0  0  0  0  0  0  0  0  0  0  0
    9.6664    1.3982    0.1691 H   0  0  0  0  0  0  0  0  0  0  0  0
   -1.2000   -0.7469   -0.0907 H   0  0  0  0  0  0  0  0  0  0  0  0
 23 60  1  0
  4 24  1  0
  4  3  2  0
 24 16  2  0
 60  3  1  0
  3 18  1  0
 16 61  1  0
 16 17  1  0
 61 15  2  0
 18 17  2  0
 18 19  1  0
 15 14  1  0
 14 13  1  0
 19  1  1  0
 25 12  1  0
 13 12  1  0
 12  7  1  0
  1 22  1  0
  1 20  1  0
 22  2  1  0
  2 21  1  0
  7 11  1  0
 20 21  1  0
 11 10  1  0
 11 26  1  0
 10  9  1  0
 26  5  1  0
  9  8  1  0
  9 27  1  0
  5 27  1  0
  5  6  1  0
  1 28  1  6
  2 29  1  0
  2 30  1  0
  4 31  1  0
  5 32  1  1
  6 62  1  0
  6 33  1  0
  6 34  1  0
  7 35  1  0
  7 36  1  0
  8 37  1  0
  8 38  1  0
  8 39  1  0
  9 40  1  1
 10 41  1  0
 10 42  1  0
 12 43  1  6
 13 44  1  0
 13 45  1  0
 61 63  1  0
 17 46  1  0
 20 47  1  0
 20 48  1  0
 21 49  1  0
 21 50  1  0
 22 51  1  0
 22 52  1  0
 23 53  1  0
 23 54  1  0
 23 55  1  0
 24 56  1  0
 25 57  1  0
 26 58  1  0
 26 59  1  0
M  END
