
     RDKit          3D

 25 26  0  0  0  0  0  0  0  0999 V2000
   -3.0517    1.1450   -0.5739 C   0  0  0  0  0  0  0  0  0  0  0  0
   -4.1437    1.1255    0.3839 N   0  0  0  0  0  0  0  0  0  0  0  0
   -1.9673    0.1676   -0.1969 C   0  0  0  0  0  0  0  0  0  0  0  0
    1.7276    0.0476   -0.0277 N   0  0  0  0  0  0  0  0  0  0  0  0
   -2.2823   -1.1290    0.2051 C   0  0  0  0  0  0  0  0  0  0  0  0
   -1.2730   -2.0287    0.5098 C   0  0  0  0  0  0  0  0  0  0  0  0
    0.0610   -1.6510    0.4412 C   0  0  0  0  0  0  0  0  0  0  0  0
    0.3808   -0.3592    0.0420 C   0  0  0  0  0  0  0  0  0  0  0  0
    2.7795   -0.7451   -0.4044 C   0  0  0  0  0  0  0  0  0  0  0  0
    3.9244    0.0015   -0.3386 C   0  0  0  0  0  0  0  0  0  0  0  0
    3.5547    1.3009    0.1004 C   0  0  0  0  0  0  0  0  0  0  0  0
    2.1981    1.2975    0.2797 C   0  0  0  0  0  0  0  0  0  0  0  0
   -0.6319    0.5401   -0.2803 C   0  0  0  0  0  0  0  0  0  0  0  0
   -3.4561    0.8561   -1.5482 H   0  0  0  0  0  0  0  0  0  0  0  0
   -2.6001    2.1354   -0.7171 H   0  0  0  0  0  0  0  0  0  0  0  0
   -3.8392    1.5483    1.2517 H   0  0  0  0  0  0  0  0  0  0  0  0
   -4.9002    1.7032    0.0411 H   0  0  0  0  0  0  0  0  0  0  0  0
   -3.3192   -1.4286    0.2831 H   0  0  0  0  0  0  0  0  0  0  0  0
   -1.5232   -3.0344    0.8216 H   0  0  0  0  0  0  0  0  0  0  0  0
    0.8390   -2.3514    0.7162 H   0  0  0  0  0  0  0  0  0  0  0  0
    2.6260   -1.7644   -0.7188 H   0  0  0  0  0  0  0  0  0  0  0  0
    4.9158   -0.3433   -0.5858 H   0  0  0  0  0  0  0  0  0  0  0  0
    4.2115    2.1383    0.2754 H   0  0  0  0  0  0  0  0  0  0  0  0
    1.5373    2.0721    0.6330 H   0  0  0  0  0  0  0  0  0  0  0  0
   -0.3768    1.5393   -0.6125 H   0  0  0  0  0  0  0  0  0  0  0  0
  1  2  1  0
  1  3  1  0
  3  5  2  0
  3 13  1  0
  4  8  1  0
  4  9  1  0
  4 12  1  0
  5  6  1  0
  6  7  2  0
  7  8  1  0
  8 13  2  0
  9 10  2  0
 10 11  1  0
 11 12  2  0
  1 14  1  0
  1 15  1  0
  2 16  1  0
  2 17  1  0
  5 18  1  0
  6 19  1  0
  7 20  1  0
  9 21  1  0
 10 22  1  0
 11 23  1  0
 12 24  1  0
 13 25  1  0
M  END
