
     RDKit          3D

 23 23  0  0  0  0  0  0  0  0999 V2000
    3.9891   -0.8330    0.0155 O   0  0  0  0  0  0  0  0  0  0  0  0
    3.2341    0.0938   -0.1305 C   0  0  0  0  0  0  0  0  0  0  0  0
    3.5833    1.3651   -0.0018 O   0  0  0  0  0  0  0  0  0  0  0  0
    1.7558   -0.0580   -0.4512 C   0  0  2  0  0  0  0  0  0  0  0  0
    0.9199    0.2816    0.7961 C   0  0  0  0  0  0  0  0  0  0  0  0
   -4.6154   -0.2152   -0.2711 O   0  0  0  0  0  0  0  0  0  0  0  0
   -0.5520    0.1649    0.5254 C   0  0  0  0  0  0  0  0  0  0  0  0
    1.4849   -1.3291   -0.9563 O   0  0  0  0  0  0  0  0  0  0  0  0
   -1.2492   -1.0089    0.7978 C   0  0  0  0  0  0  0  0  0  0  0  0
   -2.6043   -1.1264    0.5319 C   0  0  0  0  0  0  0  0  0  0  0  0
   -3.2972   -0.0569   -0.0298 C   0  0  0  0  0  0  0  0  0  0  0  0
   -2.6151    1.1231   -0.3146 C   0  0  0  0  0  0  0  0  0  0  0  0
   -1.2597    1.2229   -0.0361 C   0  0  0  0  0  0  0  0  0  0  0  0
    4.5196    1.4355    0.2396 H   0  0  0  0  0  0  0  0  0  0  0  0
    1.5026    0.6537   -1.2427 H   0  0  0  0  0  0  0  0  0  0  0  0
    1.2068   -0.3895    1.6117 H   0  0  0  0  0  0  0  0  0  0  0  0
    1.1614    1.2944    1.1244 H   0  0  0  0  0  0  0  0  0  0  0  0
   -4.9911    0.5964   -0.6299 H   0  0  0  0  0  0  0  0  0  0  0  0
    1.7098   -1.9899   -0.2914 H   0  0  0  0  0  0  0  0  0  0  0  0
   -0.7302   -1.8505    1.2409 H   0  0  0  0  0  0  0  0  0  0  0  0
   -3.1284   -2.0461    0.7611 H   0  0  0  0  0  0  0  0  0  0  0  0
   -3.1383    1.9676   -0.7489 H   0  0  0  0  0  0  0  0  0  0  0  0
   -0.7480    2.1515   -0.2622 H   0  0  0  0  0  0  0  0  0  0  0  0
  2  1  2  0
  4  2  1  0
  2  3  1  0
  3 14  1  0
  8  4  1  0
  4  5  1  0
  4 15  1  6
  7  5  1  0
  5 16  1  0
  5 17  1  0
  6 11  1  0
  6 18  1  0
 13  7  2  0
  9  7  1  0
  8 19  1  0
 10  9  2  0
  9 20  1  0
 11 10  1  0
 10 21  1  0
 11 12  2  0
 12 13  1  0
 12 22  1  0
 13 23  1  0
M  END
