
     RDKit          3D

 41 43  0  0  0  0  0  0  0  0999 V2000
   -2.1419   -1.2165   -0.0557 C   0  0  0  0  0  0  0  0  0  0  0  0
    3.1143   -0.7994   -0.0840 C   0  0  0  0  0  0  0  0  0  0  0  0
    0.1753    0.0834    0.2198 C   0  0  0  0  0  0  0  0  0  0  0  0
   -0.9279   -1.8282   -0.2474 C   0  0  0  0  0  0  0  0  0  0  0  0
    4.9295    1.2171    0.3967 C   0  0  0  0  0  0  0  0  0  0  0  0
    2.6507    0.4681    0.2669 C   0  0  0  0  0  0  0  0  0  0  0  0
    3.5856    1.4814    0.5088 C   0  0  0  0  0  0  0  0  0  0  0  0
    5.4316   -0.0317    0.0480 C   0  0  0  0  0  0  0  0  0  0  0  0
    4.4753   -1.0075   -0.1805 C   0  0  0  0  0  0  0  0  0  0  0  0
   -3.2670    0.8170    0.4536 N   0  0  0  0  0  0  0  0  0  0  0  0
   -3.3707   -1.8797   -0.0790 N   0  0  0  0  0  0  0  0  0  0  0  0
   -2.0927    0.1568    0.2682 C   0  0  0  0  0  0  0  0  0  0  0  0
   -0.9464    0.7847    0.4120 N   0  0  0  0  0  0  0  0  0  0  0  0
   -4.5328   -1.1890   -0.1878 C   0  0  0  0  0  0  0  0  0  0  0  0
   -4.4019    0.3276   -0.3339 C   0  0  1  0  0  0  0  0  0  0  0  0
    0.2393   -1.1896   -0.1200 N   0  0  0  0  0  0  0  0  0  0  0  0
   -5.6189   -1.7345   -0.2191 O   0  0  0  0  0  0  0  0  0  0  0  0
    1.3153    0.8137    0.3985 N   0  0  0  0  0  0  0  0  0  0  0  0
    6.7630   -0.2087   -0.0414 O   0  0  0  0  0  0  0  0  0  0  0  0
    4.9165   -2.2325   -0.5204 F   0  0  0  0  0  0  0  0  0  0  0  0
   -2.8530    3.7348   -1.4161 C   0  0  0  0  0  0  0  0  0  0  0  0
   -5.7043    1.0099    0.0423 C   0  0  0  0  0  0  0  0  0  0  0  0
    2.4341   -1.6128   -0.2787 H   0  0  0  0  0  0  0  0  0  0  0  0
   -0.8644   -2.8796   -0.5008 H   0  0  0  0  0  0  0  0  0  0  0  0
   -2.7187   -3.6744    0.7697 H   0  0  0  0  0  0  0  0  0  0  0  0
   -4.3841   -3.6786    0.1816 H   0  0  0  0  0  0  0  0  0  0  0  0
   -3.0490   -3.7631   -0.9704 H   0  0  0  0  0  0  0  0  0  0  0  0
   -4.1137    2.5337    1.2703 H   0  0  0  0  0  0  0  0  0  0  0  0
   -2.3856    2.3968    1.4631 H   0  0  0  0  0  0  0  0  0  0  0  0
    3.2668    2.4786    0.7863 H   0  0  0  0  0  0  0  0  0  0  0  0
   -4.2128    0.5166   -1.4026 H   0  0  0  0  0  0  0  0  0  0  0  0
    1.1372    1.7755    0.6436 H   0  0  0  0  0  0  0  0  0  0  0  0
    6.9710   -1.1132   -0.3013 H   0  0  0  0  0  0  0  0  0  0  0  0
   -2.7146    4.3300   -2.2895 H   0  0  0  0  0  0  0  0  0  0  0  0
   -5.6770    2.0706   -0.2002 H   0  0  0  0  0  0  0  0  0  0  0  0
   -6.5205    0.5748   -0.5277 H   0  0  0  0  0  0  0  0  0  0  0  0
   -5.9265    0.8962    1.1033 H   0  0  0  0  0  0  0  0  0  0  0  0
   -3.3788   -3.3297   -0.0252 C   0  0  0  0  0  0  0  0  0  0  0  0
   -3.1998    2.2339    0.7588 C   0  0  0  0  0  0  0  0  0  0  0  0
    5.8118    2.1969    0.6305 F   0  0  0  0  0  0  0  0  0  0  0  0
   -2.9984    3.0658   -0.4284 C   0  0  0  0  0  0  0  0  0  0  0  0
 40  5  1  0
 16  4  2  0
 16  3  1  0
  7  5  2  0
  7  6  1  0
 18  3  1  0
 18  6  1  0
  4  1  1  0
  5  8  1  0
  3 13  2  0
  6  2  2  0
 38 11  1  0
  1 11  1  0
  1 12  2  0
  8 19  1  0
  8  9  2  0
 13 12  1  0
  2  9  1  0
 11 14  1  0
 12 10  1  0
  9 20  1  0
 14 17  2  0
 14 15  1  0
 10 15  1  0
 10 39  1  0
 15 22  1  0
 39 41  1  0
 41 21  3  0
  2 23  1  0
  4 24  1  0
 38 25  1  0
 38 26  1  0
 38 27  1  0
 39 28  1  0
 39 29  1  0
  7 30  1  0
 15 31  1  6
 18 32  1  0
 19 33  1  0
 21 34  1  0
 22 35  1  0
 22 36  1  0
 22 37  1  0
M  END
