
     RDKit          3D

 22 21  0  0  0  0  0  0  0  0999 V2000
    3.1491   -0.8757   -1.4507 O   0  0  0  0  0  0  0  0  0  0  0  0
    2.6991   -0.2561   -0.0607 P   0  0  1  0  0  0  0  0  0  0  0  0
    2.7474   -1.2590    1.0136 O   0  0  0  0  0  0  0  0  0  0  0  0
    3.4552    1.1249    0.1324 O   0  0  0  0  0  0  0  0  0  0  0  0
    1.2257    0.3762   -0.3352 O   0  0  0  0  0  0  0  0  0  0  0  0
    0.0929   -0.1677    0.1579 C   0  0  0  0  0  0  0  0  0  0  0  0
   -1.1010    0.2396   -0.2729 C   0  0  0  0  0  0  0  0  0  0  0  0
   -2.3313   -0.3565    0.2682 C   0  0  0  0  0  0  0  0  0  0  0  0
   -2.3259   -1.1945    1.1494 O   0  0  0  0  0  0  0  0  0  0  0  0
   -3.6335    0.1461   -0.3481 C   0  0  1  0  0  0  0  0  0  0  0  0
   -4.7898   -0.6737   -0.0699 N   0  0  0  0  0  0  0  0  0  0  0  0
   -3.8863    1.5808    0.1200 C   0  0  0  0  0  0  0  0  0  0  0  0
    3.2041   -0.2660   -2.1999 H   0  0  0  0  0  0  0  0  0  0  0  0
    4.4139    1.0490    0.2414 H   0  0  0  0  0  0  0  0  0  0  0  0
    0.2073   -0.9342    0.9173 H   0  0  0  0  0  0  0  0  0  0  0  0
   -1.1790    0.9945   -1.0460 H   0  0  0  0  0  0  0  0  0  0  0  0
   -3.4834    0.1690   -1.4338 H   0  0  0  0  0  0  0  0  0  0  0  0
   -4.6337   -1.6197   -0.3951 H   0  0  0  0  0  0  0  0  0  0  0  0
   -4.9266   -0.7452    0.9315 H   0  0  0  0  0  0  0  0  0  0  0  0
   -3.0535    2.2441   -0.1119 H   0  0  0  0  0  0  0  0  0  0  0  0
   -4.7750    1.9742   -0.3718 H   0  0  0  0  0  0  0  0  0  0  0  0
   -4.0513    1.6133    1.1987 H   0  0  0  0  0  0  0  0  0  0  0  0
 12 10  1  0
  9  8  2  0
  8 10  1  0
  8  7  1  0
 11 10  1  0
  7  6  2  0
  6  5  1  0
  2  5  1  6
  3  2  2  0
  2  4  1  0
  2  1  1  0
  1 13  1  0
  4 14  1  0
  6 15  1  0
  7 16  1  0
 10 17  1  6
 11 18  1  0
 11 19  1  0
 12 20  1  0
 12 21  1  0
 12 22  1  0
M  END
