
     RDKit          3D

 25 24  0  0  0  0  0  0  0  0999 V2000
    0.3475   -0.8216   -0.5953 C   0  0  1  0  0  0  0  0  0  0  0  0
    0.3703   -2.1615    0.1153 C   0  0  0  0  0  0  0  0  0  0  0  0
   -0.1178    0.3037    0.3035 C   0  0  0  0  0  0  0  0  0  0  0  0
    4.4734    0.3643   -1.5322 C   0  0  1  0  0  0  0  0  0  0  0  0
    5.1174   -0.6339   -0.5887 C   0  0  0  0  0  0  0  0  0  0  0  0
    5.5011    1.1760   -2.2916 C   0  0  0  0  0  0  0  0  0  0  0  0
    2.4116   -1.2388   -2.2383 P   0  0  2  0  0  0  0  0  0  0  0  0
    1.6721   -0.4621   -1.0519 O   0  0  0  0  0  0  0  0  0  0  0  0
    3.6599   -0.2954   -2.5322 O   0  0  0  0  0  0  0  0  0  0  0  0
    1.6104   -1.5008   -3.4554 O   0  0  0  0  0  0  0  0  0  0  0  0
   -0.3113   -0.8806   -1.4665 H   0  0  0  0  0  0  0  0  0  0  0  0
   -0.6249   -2.3908    0.4960 H   0  0  0  0  0  0  0  0  0  0  0  0
    0.6550   -2.9781   -0.5504 H   0  0  0  0  0  0  0  0  0  0  0  0
    1.0616   -2.1471    0.9594 H   0  0  0  0  0  0  0  0  0  0  0  0
   -1.1294    0.0980    0.6527 H   0  0  0  0  0  0  0  0  0  0  0  0
   -0.1345    1.2551   -0.2281 H   0  0  0  0  0  0  0  0  0  0  0  0
    0.5282    0.4031    1.1770 H   0  0  0  0  0  0  0  0  0  0  0  0
    3.8290    1.0401   -0.9643 H   0  0  0  0  0  0  0  0  0  0  0  0
    5.7624   -0.1028    0.1116 H   0  0  0  0  0  0  0  0  0  0  0  0
    4.3859   -1.1828    0.0058 H   0  0  0  0  0  0  0  0  0  0  0  0
    5.7320   -1.3527   -1.1331 H   0  0  0  0  0  0  0  0  0  0  0  0
    6.1057    1.7475   -1.5881 H   0  0  0  0  0  0  0  0  0  0  0  0
    5.0268    1.8805   -2.9749 H   0  0  0  0  0  0  0  0  0  0  0  0
    6.1691    0.5298   -2.8627 H   0  0  0  0  0  0  0  0  0  0  0  0
    2.9357   -2.4035   -1.6562 H   0  0  0  0  0  0  0  0  0  0  0  0
  1  2  1  0
  1  3  1  0
  1  8  1  0
  1 11  1  6
  2 12  1  0
  2 13  1  0
  2 14  1  0
  3 15  1  0
  3 16  1  0
  3 17  1  0
  4  5  1  0
  4  6  1  0
  4  9  1  0
  4 18  1  1
  5 19  1  0
  5 20  1  0
  5 21  1  0
  6 22  1  0
  6 23  1  0
  6 24  1  0
  7  8  1  0
  7  9  1  0
  7 10  2  0
  7 25  1  1
M  END
