
     RDKit          3D

 43 46  0  0  0  0  0  0  0  0999 V2000
   -4.5998    2.8732   -0.6028 S   0  0  0  0  0  0  0  0  0  0  0  0
   -3.3169    1.6858   -0.6252 C   0  0  0  0  0  0  0  0  0  0  0  0
   -3.6617    0.4625   -0.4599 N   0  0  0  0  0  0  0  0  0  0  0  0
   -5.0231    0.3618   -0.3028 C   0  0  0  0  0  0  0  0  0  0  0  0
   -5.7232    1.5763   -0.3562 C   0  0  0  0  0  0  0  0  0  0  0  0
   -5.7152   -0.8321   -0.1093 C   0  0  0  0  0  0  0  0  0  0  0  0
   -7.0873   -0.7682    0.0232 C   0  0  0  0  0  0  0  0  0  0  0  0
   -7.7864    0.4393   -0.0305 C   0  0  0  0  0  0  0  0  0  0  0  0
   -7.1033    1.6266   -0.2220 C   0  0  0  0  0  0  0  0  0  0  0  0
   -7.9788   -2.2343    0.2643 Cl  0  0  0  0  0  0  0  0  0  0  0  0
   -1.6841    2.2578   -0.8665 S   0  0  0  0  0  0  0  0  0  0  0  0
    0.5039   -1.0354   -1.5986 C   0  0  0  0  0  0  0  0  0  0  0  0
    0.7350   -1.5553   -0.3288 C   0  0  0  0  0  0  0  0  0  0  0  0
    0.1940   -0.9286    0.7905 C   0  0  0  0  0  0  0  0  0  0  0  0
   -0.5486    0.2274    0.6275 C   0  0  0  0  0  0  0  0  0  0  0  0
   -1.2057    0.9810    2.0277 Cl  0  0  0  0  0  0  0  0  0  0  0  0
   -0.7911    0.7563   -0.6380 C   0  0  0  0  0  0  0  0  0  0  0  0
   -0.2651    0.1039   -1.7454 C   0  0  0  0  0  0  0  0  0  0  0  0
    2.7969   -2.8133    0.8334 S   0  0  2  0  0  0  0  0  0  0  0  0
    2.3001   -2.7635    2.1931 O   0  0  0  0  0  0  0  0  0  0  0  0
    3.5833   -3.9456    0.3967 O   0  0  0  0  0  0  0  0  0  0  0  0
    3.6912   -1.2957    0.5561 C   0  0  0  0  0  0  0  0  0  0  0  0
    3.8220   -0.4079    1.6131 C   0  0  0  0  0  0  0  0  0  0  0  0
    4.5013    0.7865    1.4413 C   0  0  0  0  0  0  0  0  0  0  0  0
    5.0433    1.0931    0.2031 C   0  0  0  0  0  0  0  0  0  0  0  0
    5.8132    2.3676    0.0064 C   0  0  1  0  0  0  0  0  0  0  0  0
    7.1239    2.1679    0.1878 F   0  0  0  0  0  0  0  0  0  0  0  0
    5.6582    2.8569   -1.2263 F   0  0  0  0  0  0  0  0  0  0  0  0
    5.4354    3.3160    0.8643 F   0  0  0  0  0  0  0  0  0  0  0  0
    4.9185    0.2112   -0.8615 C   0  0  0  0  0  0  0  0  0  0  0  0
    4.2446   -0.9836   -0.6832 C   0  0  0  0  0  0  0  0  0  0  0  0
    4.0976   -2.0388   -2.0349 Cl  0  0  0  0  0  0  0  0  0  0  0  0
   -5.1811   -1.7715   -0.0685 H   0  0  0  0  0  0  0  0  0  0  0  0
   -8.8620    0.4499    0.0764 H   0  0  0  0  0  0  0  0  0  0  0  0
   -7.6425    2.5628   -0.2640 H   0  0  0  0  0  0  0  0  0  0  0  0
    0.9217   -1.5179   -2.4722 H   0  0  0  0  0  0  0  0  0  0  0  0
    0.3291   -1.3386    1.7802 H   0  0  0  0  0  0  0  0  0  0  0  0
   -0.4488    0.4999   -2.7346 H   0  0  0  0  0  0  0  0  0  0  0  0
    1.6725   -3.2215   -1.0720 H   0  0  0  0  0  0  0  0  0  0  0  0
    3.3945   -0.6400    2.5775 H   0  0  0  0  0  0  0  0  0  0  0  0
    4.5893    1.4616    2.2803 H   0  0  0  0  0  0  0  0  0  0  0  0
    5.3334    0.4405   -1.8334 H   0  0  0  0  0  0  0  0  0  0  0  0
    1.5020   -2.7269   -0.2034 N   0  0  0  0  0  0  0  0  0  0  0  0
  1  2  1  0
  1  5  1  0
  2  3  2  0
  2 11  1  0
  3  4  1  0
  4  5  2  0
  4  6  1  0
  5  9  1  0
  6  7  2  0
  7  8  1  0
  7 10  1  0
  8  9  2  0
 11 17  1  0
 12 13  2  0
 12 18  1  0
 13 14  1  0
 13 43  1  0
 14 15  2  0
 15 16  1  0
 15 17  1  0
 17 18  2  0
 19 20  2  0
 19 21  2  0
 19 43  1  6
 19 22  1  0
 22 23  2  0
 22 31  1  0
 23 24  1  0
 24 25  2  0
 25 26  1  0
 25 30  1  0
 26 27  1  1
 26 28  1  0
 26 29  1  0
 30 31  2  0
 31 32  1  0
  6 33  1  0
  8 34  1  0
  9 35  1  0
 12 36  1  0
 14 37  1  0
 18 38  1  0
 43 39  1  0
 23 40  1  0
 24 41  1  0
 30 42  1  0
M  END
