
     RDKit          3D

  9  9  0  0  0  0  0  0  0  0999 V2000
    1.9404    0.0872   -0.0458 Cl  0  0  0  0  0  0  0  0  0  0  0  0
   -0.5768   -1.0621   -0.0240 C   0  0  0  0  0  0  0  0  0  0  0  0
   -0.6439    1.1491   -0.0176 C   0  0  0  0  0  0  0  0  0  0  0  0
   -1.8309   -0.5871   -0.0103 N   0  0  0  0  0  0  0  0  0  0  0  0
   -1.8971    0.7365   -0.0064 N   0  0  0  0  0  0  0  0  0  0  0  0
    0.2295    0.0514   -0.0288 C   0  0  0  0  0  0  0  0  0  0  0  0
   -0.3486   -2.1143   -0.0292 H   0  0  0  0  0  0  0  0  0  0  0  0
   -0.3990    2.1997   -0.0185 H   0  0  0  0  0  0  0  0  0  0  0  0
   -2.6796   -1.1311   -0.0052 H   0  0  0  0  0  0  0  0  0  0  0  0
  1  6  1  0
  2  4  1  0
  2  6  2  0
  3  5  2  0
  3  6  1  0
  4  5  1  0
  2  7  1  0
  3  8  1  0
  4  9  1  0
M  END
