
     RDKit          3D

 31 31  0  0  0  0  0  0  0  0999 V2000
    2.4212    0.1977    0.0602 N   0  0  0  0  0  0  0  0  0  0  0  0
    4.5434    0.3669   -1.1293 C   0  0  0  0  0  0  0  0  0  0  0  0
    1.1773   -0.1406   -0.3435 C   0  0  0  0  0  0  0  0  0  0  0  0
   -1.1784    0.5417    0.0180 C   0  0  0  0  0  0  0  0  0  0  0  0
   -1.7645    0.0297   -1.1418 C   0  0  0  0  0  0  0  0  0  0  0  0
   -3.1451   -0.0101   -1.2676 C   0  0  0  0  0  0  0  0  0  0  0  0
   -3.3902    0.9925    0.9018 C   0  0  0  0  0  0  0  0  0  0  0  0
    3.4494   -2.1377    1.6506 C   0  0  0  0  0  0  0  0  0  0  0  0
    4.3074   -1.1138    0.9223 C   0  0  0  0  0  0  0  0  0  0  0  0
    3.6210   -0.5241   -0.3119 C   0  0  1  0  0  0  0  0  0  0  0  0
    4.9338    1.4670   -0.3389 O   0  0  0  0  0  0  0  0  0  0  0  0
    0.9357   -1.0504   -1.1231 O   0  0  0  0  0  0  0  0  0  0  0  0
    0.1949    0.6514    0.2130 N   0  0  0  0  0  0  0  0  0  0  0  0
   -3.9535    0.4679   -0.2503 C   0  0  0  0  0  0  0  0  0  0  0  0
   -2.0135    1.0222    1.0302 C   0  0  0  0  0  0  0  0  0  0  0  0
   -5.6795    0.4144   -0.4204 Cl  0  0  0  0  0  0  0  0  0  0  0  0
    2.5437    0.9886    0.6727 H   0  0  0  0  0  0  0  0  0  0  0  0
    5.4071   -0.2270   -1.4553 H   0  0  0  0  0  0  0  0  0  0  0  0
    4.0111    0.6885   -2.0331 H   0  0  0  0  0  0  0  0  0  0  0  0
   -1.1615   -0.3334   -1.9580 H   0  0  0  0  0  0  0  0  0  0  0  0
   -3.5820   -0.4096   -2.1727 H   0  0  0  0  0  0  0  0  0  0  0  0
   -4.0125    1.3702    1.7017 H   0  0  0  0  0  0  0  0  0  0  0  0
    3.9621   -2.5144    2.5359 H   0  0  0  0  0  0  0  0  0  0  0  0
    2.5029   -1.7066    1.9781 H   0  0  0  0  0  0  0  0  0  0  0  0
    3.2218   -2.9928    1.0116 H   0  0  0  0  0  0  0  0  0  0  0  0
    4.5866   -0.3090    1.6075 H   0  0  0  0  0  0  0  0  0  0  0  0
    5.2423   -1.5819    0.6019 H   0  0  0  0  0  0  0  0  0  0  0  0
    3.3159   -1.3440   -0.9641 H   0  0  0  0  0  0  0  0  0  0  0  0
    5.4618    2.0595   -0.8808 H   0  0  0  0  0  0  0  0  0  0  0  0
    0.4670    1.2418    0.9842 H   0  0  0  0  0  0  0  0  0  0  0  0
   -1.5812    1.4243    1.9384 H   0  0  0  0  0  0  0  0  0  0  0  0
  6  5  1  0
  6 14  2  0
  5  4  2  0
 16 14  1  0
 14  7  1  0
  4 13  1  0
  4 15  1  0
 13  3  1  0
 11  2  1  0
  3  1  1  0
  3 12  2  0
  1 10  1  0
  7 15  2  0
  2 10  1  0
 10  9  1  0
  9  8  1  0
  1 17  1  0
  2 18  1  0
  2 19  1  0
  5 20  1  0
  6 21  1  0
  7 22  1  0
  8 23  1  0
  8 24  1  0
  8 25  1  0
  9 26  1  0
  9 27  1  0
 10 28  1  6
 11 29  1  0
 13 30  1  0
 15 31  1  0
M  END
