
     RDKit          3D

 38 40  0  0  0  0  0  0  0  0999 V2000
   -2.2836   -0.3607   -0.0067 C   0  0  1  0  0  0  0  0  0  0  0  0
   -3.3305    0.6921    0.3414 C   0  0  0  0  0  0  0  0  0  0  0  0
   -3.2233    1.9182   -0.5576 C   0  0  0  0  0  0  0  0  0  0  0  0
   -1.8200    2.5111   -0.5125 C   0  0  0  0  0  0  0  0  0  0  0  0
   -0.7714    1.4632   -0.8701 C   0  0  0  0  0  0  0  0  0  0  0  0
   -0.8731    0.2491    0.0527 C   0  0  2  0  0  0  0  0  0  0  0  0
    0.2116   -0.8153   -0.2162 C   0  0  1  0  0  0  0  0  0  0  0  0
    0.0556   -1.2181   -1.5616 O   0  0  0  0  0  0  0  0  0  0  0  0
    1.5962   -0.2204    0.0194 C   0  0  0  0  0  0  0  0  0  0  0  0
    1.9885    0.1768    1.2988 C   0  0  0  0  0  0  0  0  0  0  0  0
    3.2387    0.7326    1.5260 C   0  0  0  0  0  0  0  0  0  0  0  0
    4.1294    0.9058    0.4739 C   0  0  0  0  0  0  0  0  0  0  0  0
    3.7506    0.5198   -0.8028 C   0  0  0  0  0  0  0  0  0  0  0  0
    2.4958   -0.0356   -1.0270 C   0  0  0  0  0  0  0  0  0  0  0  0
   -0.0185   -2.0219    0.7077 C   0  0  0  0  0  0  0  0  0  0  0  0
   -1.4477   -2.5435    0.5997 C   0  0  0  0  0  0  0  0  0  0  0  0
   -2.4525   -1.5252    0.8499 N   0  0  0  0  0  0  0  0  0  0  0  0
   -2.4688   -0.6926   -1.0367 H   0  0  0  0  0  0  0  0  0  0  0  0
   -4.3267    0.2478    0.2704 H   0  0  0  0  0  0  0  0  0  0  0  0
   -3.1949    0.9979    1.3867 H   0  0  0  0  0  0  0  0  0  0  0  0
   -3.4610    1.6337   -1.5883 H   0  0  0  0  0  0  0  0  0  0  0  0
   -3.9639    2.6658   -0.2633 H   0  0  0  0  0  0  0  0  0  0  0  0
   -1.7466    3.3625   -1.1937 H   0  0  0  0  0  0  0  0  0  0  0  0
   -1.6207    2.8980    0.4931 H   0  0  0  0  0  0  0  0  0  0  0  0
   -0.9178    1.1511   -1.9089 H   0  0  0  0  0  0  0  0  0  0  0  0
    0.2292    1.8982   -0.8125 H   0  0  0  0  0  0  0  0  0  0  0  0
   -0.7206    0.5988    1.0841 H   0  0  0  0  0  0  0  0  0  0  0  0
    0.5845   -2.0096   -1.7099 H   0  0  0  0  0  0  0  0  0  0  0  0
    1.3129    0.0606    2.1377 H   0  0  0  0  0  0  0  0  0  0  0  0
    3.5184    1.0303    2.5285 H   0  0  0  0  0  0  0  0  0  0  0  0
    5.1050    1.3406    0.6497 H   0  0  0  0  0  0  0  0  0  0  0  0
    4.4308    0.6530   -1.6345 H   0  0  0  0  0  0  0  0  0  0  0  0
    2.2183   -0.3123   -2.0349 H   0  0  0  0  0  0  0  0  0  0  0  0
    0.7002   -2.8128    0.4635 H   0  0  0  0  0  0  0  0  0  0  0  0
    0.1783   -1.7420    1.7456 H   0  0  0  0  0  0  0  0  0  0  0  0
   -1.6203   -2.9596   -0.3968 H   0  0  0  0  0  0  0  0  0  0  0  0
   -1.5938   -3.3632    1.3062 H   0  0  0  0  0  0  0  0  0  0  0  0
   -2.3825   -1.2268    1.8181 H   0  0  0  0  0  0  0  0  0  0  0  0
  4  3  1  0
  4  5  1  0
  3  2  1  0
  2  1  1  0
 11 10  2  0
 11 12  1  0
  5  6  1  0
 10  9  1  0
  6  1  1  0
  6  7  1  0
 12 13  2  0
  1 17  1  0
 17 16  1  0
  9  7  1  0
  9 14  2  0
 13 14  1  0
  7 15  1  0
  7  8  1  6
 15 16  1  0
  1 18  1  6
  2 19  1  0
  2 20  1  0
  3 21  1  0
  3 22  1  0
  4 23  1  0
  4 24  1  0
  5 25  1  0
  5 26  1  0
  6 27  1  1
  8 28  1  0
 10 29  1  0
 11 30  1  0
 12 31  1  0
 13 32  1  0
 14 33  1  0
 15 34  1  0
 15 35  1  0
 16 36  1  0
 16 37  1  0
 17 38  1  0
M  END
