
     RDKit          3D

 36 36  0  0  0  0  0  0  0  0999 V2000
    2.7042   -1.1809   -1.9024 C   0  0  0  0  0  0  0  0  0  0  0  0
   -1.1722    0.1404   -1.4754 O   0  0  0  0  0  0  0  0  0  0  0  0
   -2.4122   -0.0671    0.4155 O   0  0  0  0  0  0  0  0  0  0  0  0
   -3.5485   -0.7536   -0.1799 C   0  0  1  0  0  0  0  0  0  0  0  0
   -3.1347   -2.1274   -0.6918 C   0  0  0  0  0  0  0  0  0  0  0  0
   -4.5086   -0.9034    0.9935 C   0  0  0  0  0  0  0  0  0  0  0  0
   -4.1984    0.0910   -1.2695 C   0  0  0  0  0  0  0  0  0  0  0  0
   -0.3968    0.8173    0.5310 N   0  0  0  0  0  0  0  0  0  0  0  0
    0.8941    1.1828    0.0067 C   0  0  1  0  0  0  0  0  0  0  0  0
    1.7435    1.8410    1.1097 C   0  0  1  0  0  0  0  0  0  0  0  0
    3.1571    2.1329    0.6178 C   0  0  0  0  0  0  0  0  0  0  0  0
    1.0835    3.1240    1.6061 C   0  0  0  0  0  0  0  0  0  0  0  0
    1.5782   -0.0251   -0.5573 C   0  0  0  0  0  0  0  0  0  0  0  0
    2.2022    0.0511   -1.7416 O   0  0  0  0  0  0  0  0  0  0  0  0
    2.4219   -1.9493   -0.9183 N   0  0  0  0  0  0  0  0  0  0  0  0
    1.6875   -1.1932   -0.0365 N   0  0  0  0  0  0  0  0  0  0  0  0
    3.2679   -1.4042   -2.7940 H   0  0  0  0  0  0  0  0  0  0  0  0
   -2.6562   -2.7101    0.0970 H   0  0  0  0  0  0  0  0  0  0  0  0
   -4.0228   -2.6735   -1.0122 H   0  0  0  0  0  0  0  0  0  0  0  0
   -2.4591   -2.0697   -1.5425 H   0  0  0  0  0  0  0  0  0  0  0  0
   -4.8105    0.0693    1.3847 H   0  0  0  0  0  0  0  0  0  0  0  0
   -5.4083   -1.4264    0.6701 H   0  0  0  0  0  0  0  0  0  0  0  0
   -4.0600   -1.4796    1.8039 H   0  0  0  0  0  0  0  0  0  0  0  0
   -3.5790    0.1771   -2.1588 H   0  0  0  0  0  0  0  0  0  0  0  0
   -5.1398   -0.3758   -1.5611 H   0  0  0  0  0  0  0  0  0  0  0  0
   -4.4277    1.0925   -0.9019 H   0  0  0  0  0  0  0  0  0  0  0  0
   -0.5161    0.7633    1.5306 H   0  0  0  0  0  0  0  0  0  0  0  0
    0.7708    1.9065   -0.8058 H   0  0  0  0  0  0  0  0  0  0  0  0
    1.8083    1.1282    1.9394 H   0  0  0  0  0  0  0  0  0  0  0  0
    3.1445    2.7895   -0.2546 H   0  0  0  0  0  0  0  0  0  0  0  0
    3.7244    2.6350    1.4011 H   0  0  0  0  0  0  0  0  0  0  0  0
    3.7084    1.2293    0.3552 H   0  0  0  0  0  0  0  0  0  0  0  0
    0.0798    2.9603    1.9976 H   0  0  0  0  0  0  0  0  0  0  0  0
    1.6796    3.5610    2.4074 H   0  0  0  0  0  0  0  0  0  0  0  0
    1.0145    3.8610    0.8032 H   0  0  0  0  0  0  0  0  0  0  0  0
   -1.3333    0.2715   -0.2790 C   0  0  0  0  0  0  0  0  0  0  0  0
  1 14  1  0
  1 15  2  0
  1 17  1  0
  2 36  2  0
 36  8  1  0
 36  3  1  0
  4  3  1  1
  4  5  1  0
  4  6  1  0
  4  7  1  0
  5 18  1  0
  5 19  1  0
  5 20  1  0
  6 21  1  0
  6 22  1  0
  6 23  1  0
  7 24  1  0
  7 25  1  0
  7 26  1  0
  8  9  1  0
  8 27  1  0
  9 10  1  0
  9 13  1  0
  9 28  1  6
 10 11  1  0
 10 12  1  0
 10 29  1  1
 11 30  1  0
 11 31  1  0
 11 32  1  0
 12 33  1  0
 12 34  1  0
 12 35  1  0
 13 14  1  0
 13 16  2  0
 15 16  1  0
M  END
