
     RDKit          3D

 59 62  0  0  0  0  0  0  0  0999 V2000
   -6.0213   -1.1520    0.6877 C   0  0  0  0  0  0  0  0  0  0  0  0
   -6.5214    1.0929   -0.0017 C   0  0  0  0  0  0  0  0  0  0  0  0
   -1.4281    0.9380    0.0367 C   0  0  0  0  0  0  0  0  0  0  0  0
   -7.8766    0.6167   -0.4912 C   0  0  0  0  0  0  0  0  0  0  0  0
   -4.2042    0.3308    0.0158 C   0  0  0  0  0  0  0  0  0  0  0  0
   -3.2294   -0.6527   -0.1946 C   0  0  0  0  0  0  0  0  0  0  0  0
   -1.8751   -0.3675   -0.1830 C   0  0  0  0  0  0  0  0  0  0  0  0
   -2.3905    1.9224    0.2502 C   0  0  0  0  0  0  0  0  0  0  0  0
   -3.7447    1.6308    0.2485 C   0  0  0  0  0  0  0  0  0  0  0  0
   -8.3393   -0.5206    0.2748 N   0  0  0  0  0  0  0  0  0  0  0  0
   -7.3794   -1.6003    0.1866 C   0  0  0  0  0  0  0  0  0  0  0  0
   -9.6594   -0.9409   -0.1336 C   0  0  0  0  0  0  0  0  0  0  0  0
   -5.5609    0.0109   -0.0567 N   0  0  0  0  0  0  0  0  0  0  0  0
    1.0270    0.6130    0.1255 C   0  0  0  0  0  0  0  0  0  0  0  0
    0.9837   -0.6180    0.2531 O   0  0  0  0  0  0  0  0  0  0  0  0
    2.3106    1.3470    0.0785 C   0  0  0  0  0  0  0  0  0  0  0  0
    3.5343    0.6433    0.2170 C   0  0  0  0  0  0  0  0  0  0  0  0
    4.7640    1.3593    0.1087 C   0  0  0  0  0  0  0  0  0  0  0  0
    4.7363    2.6933   -0.0884 C   0  0  0  0  0  0  0  0  0  0  0  0
    3.5736    3.3640   -0.1770 N   0  0  0  0  0  0  0  0  0  0  0  0
    2.3325    2.7735   -0.1081 C   0  0  0  0  0  0  0  0  0  0  0  0
    1.3428    3.5149   -0.2094 O   0  0  0  0  0  0  0  0  0  0  0  0
    3.5548   -0.6795    0.4288 N   0  0  0  0  0  0  0  0  0  0  0  0
    4.6903   -1.4700    0.6761 C   0  0  0  0  0  0  0  0  0  0  0  0
    5.5354   -1.2150    1.7460 C   0  0  0  0  0  0  0  0  0  0  0  0
    6.6409   -2.0202    1.9855 C   0  0  0  0  0  0  0  0  0  0  0  0
    6.8821   -3.1056    1.1593 C   0  0  0  0  0  0  0  0  0  0  0  0
    6.0324   -3.3912    0.0973 C   0  0  0  0  0  0  0  0  0  0  0  0
    4.9333   -2.5756   -0.1554 C   0  0  0  0  0  0  0  0  0  0  0  0
    4.0557   -2.7645   -1.1538 O   0  0  0  0  0  0  0  0  0  0  0  0
    4.2127   -3.8975   -1.9867 C   0  0  0  0  0  0  0  0  0  0  0  0
   -6.0869   -0.9242    1.7621 H   0  0  0  0  0  0  0  0  0  0  0  0
   -5.3201   -1.9761    0.5747 H   0  0  0  0  0  0  0  0  0  0  0  0
   -6.1958    1.9061   -0.6518 H   0  0  0  0  0  0  0  0  0  0  0  0
   -6.6209    1.5026    1.0155 H   0  0  0  0  0  0  0  0  0  0  0  0
   -8.5940    1.4345   -0.3897 H   0  0  0  0  0  0  0  0  0  0  0  0
   -7.8032    0.3811   -1.5675 H   0  0  0  0  0  0  0  0  0  0  0  0
   -3.5271   -1.6719   -0.4045 H   0  0  0  0  0  0  0  0  0  0  0  0
   -1.1786   -1.1686   -0.3687 H   0  0  0  0  0  0  0  0  0  0  0  0
   -2.0803    2.9444    0.4354 H   0  0  0  0  0  0  0  0  0  0  0  0
   -4.4353    2.4402    0.4396 H   0  0  0  0  0  0  0  0  0  0  0  0
   -7.2786   -1.9747   -0.8475 H   0  0  0  0  0  0  0  0  0  0  0  0
   -7.7229   -2.4377    0.7989 H   0  0  0  0  0  0  0  0  0  0  0  0
   -9.7054   -1.2695   -1.1838 H   0  0  0  0  0  0  0  0  0  0  0  0
   -9.9963   -1.7712    0.4888 H   0  0  0  0  0  0  0  0  0  0  0  0
  -10.3682   -0.1207   -0.0105 H   0  0  0  0  0  0  0  0  0  0  0  0
    0.0792    2.3600   -0.0533 H   0  0  0  0  0  0  0  0  0  0  0  0
    5.7142    0.8529    0.1624 H   0  0  0  0  0  0  0  0  0  0  0  0
    5.6350    3.2838   -0.1875 H   0  0  0  0  0  0  0  0  0  0  0  0
    3.5907    4.3657   -0.3058 H   0  0  0  0  0  0  0  0  0  0  0  0
    2.6346   -1.1204    0.3864 H   0  0  0  0  0  0  0  0  0  0  0  0
    5.3231   -0.3795    2.4016 H   0  0  0  0  0  0  0  0  0  0  0  0
    7.2960   -1.8056    2.8187 H   0  0  0  0  0  0  0  0  0  0  0  0
    7.7350   -3.7473    1.3366 H   0  0  0  0  0  0  0  0  0  0  0  0
    6.2432   -4.2461   -0.5311 H   0  0  0  0  0  0  0  0  0  0  0  0
    5.1514   -3.8657   -2.5452 H   0  0  0  0  0  0  0  0  0  0  0  0
    4.1711   -4.8296   -1.4182 H   0  0  0  0  0  0  0  0  0  0  0  0
    3.3847   -3.8773   -2.6903 H   0  0  0  0  0  0  0  0  0  0  0  0
   -0.0929    1.3547    0.0164 N   0  0  0  0  0  0  0  0  0  0  0  0
 31 30  1  0
 30 29  1  0
 28 29  2  0
 28 27  1  0
 29 24  1  0
 18 19  2  0
 18 17  1  0
 19 20  1  0
 27 26  2  0
 24 23  1  0
 24 25  2  0
 23 17  1  0
 17 16  2  0
 20 21  1  0
 26 25  1  0
 21 16  1  0
 21 22  2  0
 16 14  1  0
 15 14  2  0
 14 59  1  0
 59  3  1  0
  3  8  2  0
  3  7  1  0
  8  9  1  0
  7  6  2  0
  9  5  2  0
  6  5  1  0
  5 13  1  0
 13  2  1  0
 13  1  1  0
  2  4  1  0
  1 11  1  0
  4 10  1  0
 11 10  1  0
 10 12  1  0
  1 32  1  0
  1 33  1  0
  2 34  1  0
  2 35  1  0
  4 36  1  0
  4 37  1  0
  6 38  1  0
  7 39  1  0
  8 40  1  0
  9 41  1  0
 11 42  1  0
 11 43  1  0
 12 44  1  0
 12 45  1  0
 12 46  1  0
 59 47  1  0
 18 48  1  0
 19 49  1  0
 20 50  1  0
 23 51  1  0
 25 52  1  0
 26 53  1  0
 27 54  1  0
 28 55  1  0
 31 56  1  0
 31 57  1  0
 31 58  1  0
M  END
