
     RDKit          3D

 51 54  0  0  0  0  0  0  0  0999 V2000
   -0.8758    0.1796    0.8039 N   0  0  0  0  0  0  0  0  0  0  0  0
    0.0400   -0.8375    1.2795 C   0  0  0  0  0  0  0  0  0  0  0  0
   -2.6293    1.0902   -0.1313 C   0  0  0  0  0  0  0  0  0  0  0  0
   -3.1691   -0.9354    1.1143 C   0  0  0  0  0  0  0  0  0  0  0  0
    1.0420    2.6630   -1.0648 C   0  0  0  0  0  0  0  0  0  0  0  0
    2.1177   -2.0046    0.3808 C   0  0  0  0  0  0  0  0  0  0  0  0
   -4.8989    0.4235   -0.0594 C   0  0  0  0  0  0  0  0  0  0  0  0
    2.5166    2.5200   -1.4286 C   0  0  1  0  0  0  0  0  0  0  0  0
    2.9773    1.9485    0.9887 C   0  0  0  0  0  0  0  0  0  0  0  0
    2.8600   -2.5609   -0.6535 C   0  0  0  0  0  0  0  0  0  0  0  0
    1.0695   -2.0691   -2.1698 C   0  0  0  0  0  0  0  0  0  0  0  0
    3.3852    2.8112   -0.1997 C   0  0  0  0  0  0  0  0  0  0  0  0
    2.3345   -2.5868   -1.9351 C   0  0  0  0  0  0  0  0  0  0  0  0
   -2.2443    0.0236    0.6326 C   0  0  0  0  0  0  0  0  0  0  0  0
   -0.5476    1.3205    0.1454 C   0  0  0  0  0  0  0  0  0  0  0  0
   -1.5972    1.8948   -0.4289 N   0  0  0  0  0  0  0  0  0  0  0  0
    0.7327    1.7669    0.0428 N   0  0  0  0  0  0  0  0  0  0  0  0
    0.8583   -1.4481    0.1663 C   0  0  0  0  0  0  0  0  0  0  0  0
   -3.9263    1.2884   -0.4988 N   0  0  0  0  0  0  0  0  0  0  0  0
   -4.4773   -0.6690    0.6898 N   0  0  0  0  0  0  0  0  0  0  0  0
   -2.9288   -1.9045    1.8192 O   0  0  0  0  0  0  0  0  0  0  0  0
    1.4893    2.0910    1.2541 C   0  0  0  0  0  0  0  0  0  0  0  0
    0.3468   -1.5108   -1.1292 C   0  0  0  0  0  0  0  0  0  0  0  0
   -4.2978    2.4643   -1.2685 C   0  0  0  0  0  0  0  0  0  0  0  0
   -5.4873   -1.6248    1.1316 C   0  0  0  0  0  0  0  0  0  0  0  0
   -6.0724    0.6108   -0.3215 O   0  0  0  0  0  0  0  0  0  0  0  0
    2.7295    1.2116   -2.0322 N   0  0  0  0  0  0  0  0  0  0  0  0
    0.6727   -0.4189    2.0580 H   0  0  0  0  0  0  0  0  0  0  0  0
   -0.5576   -1.6080    1.7647 H   0  0  0  0  0  0  0  0  0  0  0  0
    0.8218    3.7041   -0.7973 H   0  0  0  0  0  0  0  0  0  0  0  0
    0.4257    2.4003   -1.9230 H   0  0  0  0  0  0  0  0  0  0  0  0
    2.7304    3.2779   -2.1889 H   0  0  0  0  0  0  0  0  0  0  0  0
    3.2152    0.8974    0.8039 H   0  0  0  0  0  0  0  0  0  0  0  0
    3.5284    2.2432    1.8837 H   0  0  0  0  0  0  0  0  0  0  0  0
    3.8417   -2.9736   -0.4635 H   0  0  0  0  0  0  0  0  0  0  0  0
    0.6445   -2.0952   -3.1640 H   0  0  0  0  0  0  0  0  0  0  0  0
    4.4393    2.6573   -0.4452 H   0  0  0  0  0  0  0  0  0  0  0  0
    3.2784    3.8675    0.0700 H   0  0  0  0  0  0  0  0  0  0  0  0
    2.9136   -3.0159   -2.7415 H   0  0  0  0  0  0  0  0  0  0  0  0
    1.1796    1.4546    2.0802 H   0  0  0  0  0  0  0  0  0  0  0  0
    1.2628    3.1239    1.5534 H   0  0  0  0  0  0  0  0  0  0  0  0
   -0.6371   -1.1088   -1.3362 H   0  0  0  0  0  0  0  0  0  0  0  0
   -5.1607    2.2447   -1.8877 H   0  0  0  0  0  0  0  0  0  0  0  0
   -4.5307    3.3038   -0.6141 H   0  0  0  0  0  0  0  0  0  0  0  0
   -3.4662    2.7394   -1.9098 H   0  0  0  0  0  0  0  0  0  0  0  0
   -6.4411   -1.3700    0.6885 H   0  0  0  0  0  0  0  0  0  0  0  0
   -5.2121   -2.6301    0.8219 H   0  0  0  0  0  0  0  0  0  0  0  0
   -5.5875   -1.6055    2.2154 H   0  0  0  0  0  0  0  0  0  0  0  0
    3.7220    1.0319   -2.1238 H   0  0  0  0  0  0  0  0  0  0  0  0
    2.3680    0.4879   -1.4222 H   0  0  0  0  0  0  0  0  0  0  0  0
    2.8758   -2.0534    2.1171 Br  0  0  0  0  0  0  0  0  0  0  0  0
 25 20  1  0
 26  7  2  0
 20  7  1  0
 20  4  1  0
  7 19  1  0
 21  4  2  0
  4 14  1  0
 19 24  1  0
 19  3  1  0
 14  3  2  0
 14  1  1  0
  3 16  1  0
  1  2  1  0
  1 15  1  0
 16 15  2  0
  2 18  1  0
 23 18  1  0
 23 11  2  0
 18  6  2  0
 11 13  1  0
  6 10  1  0
  6 51  1  0
 13 10  2  0
 15 17  1  0
 17  5  1  0
 17 22  1  0
  5  8  1  0
 22  9  1  0
  8 27  1  0
  8 12  1  0
  9 12  1  0
  2 28  1  0
  2 29  1  0
  5 30  1  0
  5 31  1  0
  8 32  1  6
  9 33  1  0
  9 34  1  0
 10 35  1  0
 11 36  1  0
 12 37  1  0
 12 38  1  0
 13 39  1  0
 22 40  1  0
 22 41  1  0
 23 42  1  0
 24 43  1  0
 24 44  1  0
 24 45  1  0
 25 46  1  0
 25 47  1  0
 25 48  1  0
 27 49  1  0
 27 50  1  0
M  END
