
     RDKit          3D

 43 46  0  0  0  0  0  0  0  0999 V2000
   -0.4462   -4.3784    0.5464 C   0  0  0  0  0  0  0  0  0  0  0  0
   -0.7737   -2.0266   -0.8950 C   0  0  0  0  0  0  0  0  0  0  0  0
   -1.6171   -3.6474    0.6708 C   0  0  0  0  0  0  0  0  0  0  0  0
    2.8427    2.1049   -0.0168 C   0  0  0  0  0  0  0  0  0  0  0  0
    2.1827    3.3059   -0.1973 C   0  0  0  0  0  0  0  0  0  0  0  0
   -4.4800    0.0912    0.4025 C   0  0  0  0  0  0  0  0  0  0  0  0
    4.2106   -2.1791    0.2312 C   0  0  0  0  0  0  0  0  0  0  0  0
    2.1214    0.9183    0.2055 C   0  0  0  0  0  0  0  0  0  0  0  0
    0.0878    2.1345    0.0707 C   0  0  0  0  0  0  0  0  0  0  0  0
    3.9199   -0.7630   -0.1104 C   0  0  0  0  0  0  0  0  0  0  0  0
    5.3028   -2.7906   -0.2123 C   0  0  0  0  0  0  0  0  0  0  0  0
    0.5781   -3.9315   -0.2784 C   0  0  0  0  0  0  0  0  0  0  0  0
    0.4025   -2.7566   -0.9971 C   0  0  0  0  0  0  0  0  0  0  0  0
    0.7322    0.9221    0.2611 C   0  0  0  0  0  0  0  0  0  0  0  0
   -3.6332    2.2076    0.4292 C   0  0  0  0  0  0  0  0  0  0  0  0
   -1.2588    3.8622   -0.1945 C   0  0  0  0  0  0  0  0  0  0  0  0
   -1.7884   -2.4589   -0.0406 C   0  0  0  0  0  0  0  0  0  0  0  0
    0.7929    3.3236   -0.1566 C   0  0  0  0  0  0  0  0  0  0  0  0
   -3.1868   -0.4289    0.1843 C   0  0  0  0  0  0  0  0  0  0  0  0
   -2.3698    1.6867    0.1837 C   0  0  0  0  0  0  0  0  0  0  0  0
   -4.6716    1.3827    0.5243 N   0  0  0  0  0  0  0  0  0  0  0  0
   -0.0816    4.3780   -0.3173 N   0  0  0  0  0  0  0  0  0  0  0  0
   -2.1551    0.3901    0.0688 N   0  0  0  0  0  0  0  0  0  0  0  0
   -3.0005   -1.7730    0.1028 N   0  0  0  0  0  0  0  0  0  0  0  0
    2.7458   -0.3208    0.4108 N   0  0  0  0  0  0  0  0  0  0  0  0
   -1.2468    2.5076    0.0463 N   0  0  0  0  0  0  0  0  0  0  0  0
    4.6623   -0.0780   -0.7931 O   0  0  0  0  0  0  0  0  0  0  0  0
   -0.3324   -5.2967    1.1075 H   0  0  0  0  0  0  0  0  0  0  0  0
   -0.8912   -1.1283   -1.4820 H   0  0  0  0  0  0  0  0  0  0  0  0
   -2.4037   -3.9968    1.3289 H   0  0  0  0  0  0  0  0  0  0  0  0
    3.9205    2.0904   -0.0384 H   0  0  0  0  0  0  0  0  0  0  0  0
    2.7416    4.2172   -0.3641 H   0  0  0  0  0  0  0  0  0  0  0  0
   -5.3394   -0.5652    0.4850 H   0  0  0  0  0  0  0  0  0  0  0  0
    3.5022   -2.7136    0.8547 H   0  0  0  0  0  0  0  0  0  0  0  0
    5.5036   -3.8230    0.0371 H   0  0  0  0  0  0  0  0  0  0  0  0
    6.0282   -2.2836   -0.8349 H   0  0  0  0  0  0  0  0  0  0  0  0
    1.4956   -4.4981   -0.3672 H   0  0  0  0  0  0  0  0  0  0  0  0
    1.1812   -2.4053   -1.6624 H   0  0  0  0  0  0  0  0  0  0  0  0
    0.1824    0.0078    0.4231 H   0  0  0  0  0  0  0  0  0  0  0  0
   -3.8223    3.2650    0.5552 H   0  0  0  0  0  0  0  0  0  0  0  0
   -2.1836    4.4110   -0.2862 H   0  0  0  0  0  0  0  0  0  0  0  0
   -3.7903   -2.3363    0.3780 H   0  0  0  0  0  0  0  0  0  0  0  0
    2.1835   -1.0063    0.8921 H   0  0  0  0  0  0  0  0  0  0  0  0
 21  6  2  0
 21 15  1  0
  6 19  1  0
 24 19  1  0
 24 17  1  0
 15 20  2  0
 19 23  2  0
  2 17  2  0
  2 13  1  0
 17  3  1  0
 20 23  1  0
 20 26  1  0
 13 12  2  0
  3  1  2  0
 26 16  1  0
 26  9  1  0
 16 22  2  0
 12  1  1  0
  9 14  2  0
  9 18  1  0
 22 18  1  0
 14  8  1  0
 18  5  2  0
  8 25  1  0
  8  4  2  0
 25 10  1  0
  5  4  1  0
 10  7  1  0
 10 27  2  0
  7 11  2  0
  1 28  1  0
  2 29  1  0
  3 30  1  0
  4 31  1  0
  5 32  1  0
  6 33  1  0
  7 34  1  0
 11 35  1  0
 11 36  1  0
 12 37  1  0
 13 38  1  0
 14 39  1  0
 15 40  1  0
 16 41  1  0
 24 42  1  0
 25 43  1  0
M  END
