
     RDKit          3D

 14 14  0  0  0  0  0  0  0  0999 V2000
    2.3447    0.4109   -0.0046 C   0  0  0  0  0  0  0  0  0  0  0  0
    2.3315    1.7282    0.0729 O   0  0  0  0  0  0  0  0  0  0  0  0
    3.3437   -0.2576   -0.0764 O   0  0  0  0  0  0  0  0  0  0  0  0
    0.9728   -0.1787    0.0050 C   0  0  0  0  0  0  0  0  0  0  0  0
   -0.1688    0.6091    0.0296 C   0  0  0  0  0  0  0  0  0  0  0  0
   -1.3893   -0.0505    0.0325 C   0  0  0  0  0  0  0  0  0  0  0  0
   -2.8408    0.8959    0.0598 Cl  0  0  0  0  0  0  0  0  0  0  0  0
   -1.5383   -1.3515    0.0166 N   0  0  0  0  0  0  0  0  0  0  0  0
   -0.4378   -2.0975   -0.0056 C   0  0  0  0  0  0  0  0  0  0  0  0
    0.8375   -1.5622   -0.0140 C   0  0  0  0  0  0  0  0  0  0  0  0
    3.2361    2.0769    0.0627 H   0  0  0  0  0  0  0  0  0  0  0  0
   -0.1281    1.6878    0.0441 H   0  0  0  0  0  0  0  0  0  0  0  0
   -0.5826   -3.1704   -0.0172 H   0  0  0  0  0  0  0  0  0  0  0  0
    1.6990   -2.2134   -0.0330 H   0  0  0  0  0  0  0  0  0  0  0  0
  7  6  1  0
  5  6  1  0
  5  4  2  0
  6  8  2  0
  3  1  2  0
  1  4  1  0
  1  2  1  0
  4 10  1  0
  8  9  1  0
 10  9  2  0
  2 11  1  0
  5 12  1  0
  9 13  1  0
 10 14  1  0
M  END
