
     RDKit          3D

 50 49  0  0  0  0  0  0  0  0999 V2000
    0.2376    1.1744   -5.0874 C   0  0  0  0  0  0  0  0  0  0  0  0
   -0.3758    0.0736   -5.7711 O   0  0  0  0  0  0  0  0  0  0  0  0
    0.4113   -0.6643   -6.9448 P   0  0  1  0  0  0  0  0  0  0  0  0
    1.8094   -1.0431   -6.6679 O   0  0  0  0  0  0  0  0  0  0  0  0
   -0.6483   -1.8325   -7.1764 O   0  0  0  0  0  0  0  0  0  0  0  0
   -0.7413    1.7251   -4.0869 C   0  0  0  0  0  0  0  0  0  0  0  0
   -1.0196    0.7511   -3.1179 O   0  0  0  0  0  0  0  0  0  0  0  0
   -1.9270    1.1961   -2.1402 C   0  0  0  0  0  0  0  0  0  0  0  0
   -2.2243    0.0730   -1.1806 C   0  0  0  0  0  0  0  0  0  0  0  0
   -1.0601   -0.2656   -0.4719 O   0  0  0  0  0  0  0  0  0  0  0  0
   -1.2417   -1.3659    0.3823 C   0  0  0  0  0  0  0  0  0  0  0  0
    0.0551   -1.6858    1.0800 C   0  0  0  0  0  0  0  0  0  0  0  0
    0.3998   -0.6346    1.9455 O   0  0  0  0  0  0  0  0  0  0  0  0
    0.3869   -0.8411    9.8218 O   0  0  0  0  0  0  0  0  0  0  0  0
   -0.8108   -0.8778    9.0799 C   0  0  0  0  0  0  0  0  0  0  0  0
   -0.9213    0.3674    8.2381 C   0  0  0  0  0  0  0  0  0  0  0  0
    0.0939    0.3848    7.2663 O   0  0  0  0  0  0  0  0  0  0  0  0
    0.0264    1.5170    6.4382 C   0  0  0  0  0  0  0  0  0  0  0  0
    1.1298    1.4697    5.4135 C   0  0  0  0  0  0  0  0  0  0  0  0
    0.9257    0.3832    4.5470 O   0  0  0  0  0  0  0  0  0  0  0  0
    1.9012    0.3003    3.5395 C   0  0  0  0  0  0  0  0  0  0  0  0
    1.6007   -0.8674    2.6360 C   0  0  0  0  0  0  0  0  0  0  0  0
    0.3613    0.2973   -8.2213 O   0  0  0  0  0  0  0  0  0  0  0  0
    0.4984    1.9694   -5.7906 H   0  0  0  0  0  0  0  0  0  0  0  0
    1.1516    0.8433   -4.5888 H   0  0  0  0  0  0  0  0  0  0  0  0
   -0.3495   -2.5213   -7.7851 H   0  0  0  0  0  0  0  0  0  0  0  0
   -1.6578    2.0530   -4.5974 H   0  0  0  0  0  0  0  0  0  0  0  0
   -0.2867    2.6207   -3.6408 H   0  0  0  0  0  0  0  0  0  0  0  0
   -2.8742    1.5152   -2.5962 H   0  0  0  0  0  0  0  0  0  0  0  0
   -1.5263    2.0634   -1.5963 H   0  0  0  0  0  0  0  0  0  0  0  0
   -2.6165   -0.7929   -1.7331 H   0  0  0  0  0  0  0  0  0  0  0  0
   -3.0219    0.4045   -0.5010 H   0  0  0  0  0  0  0  0  0  0  0  0
   -1.5553   -2.2557   -0.1813 H   0  0  0  0  0  0  0  0  0  0  0  0
   -2.0282   -1.1669    1.1248 H   0  0  0  0  0  0  0  0  0  0  0  0
    0.8450   -1.8599    0.3348 H   0  0  0  0  0  0  0  0  0  0  0  0
   -0.0744   -2.6272    1.6321 H   0  0  0  0  0  0  0  0  0  0  0  0
    0.4326   -1.6408   10.3530 H   0  0  0  0  0  0  0  0  0  0  0  0
   -0.8611   -1.7615    8.4305 H   0  0  0  0  0  0  0  0  0  0  0  0
   -1.6946   -0.9108    9.7295 H   0  0  0  0  0  0  0  0  0  0  0  0
   -1.9153    0.3764    7.7686 H   0  0  0  0  0  0  0  0  0  0  0  0
   -0.8663    1.2594    8.8794 H   0  0  0  0  0  0  0  0  0  0  0  0
   -0.9494    1.5788    5.9342 H   0  0  0  0  0  0  0  0  0  0  0  0
    0.1384    2.4420    7.0215 H   0  0  0  0  0  0  0  0  0  0  0  0
    1.1258    2.4209    4.8626 H   0  0  0  0  0  0  0  0  0  0  0  0
    2.1065    1.3992    5.9142 H   0  0  0  0  0  0  0  0  0  0  0  0
    1.9395    1.2286    2.9511 H   0  0  0  0  0  0  0  0  0  0  0  0
    2.9026    0.1542    3.9677 H   0  0  0  0  0  0  0  0  0  0  0  0
    2.4427   -0.9870    1.9396 H   0  0  0  0  0  0  0  0  0  0  0  0
    1.5441   -1.7936    3.2263 H   0  0  0  0  0  0  0  0  0  0  0  0
   -0.5226    0.5494   -8.5210 H   0  0  0  0  0  0  0  0  0  0  0  0
  1  2  1  0
  1  6  1  0
  1 24  1  0
  1 25  1  0
  3  2  1  1
  3  4  2  0
  3  5  1  0
  3 23  1  0
  5 26  1  0
  6  7  1  0
  6 27  1  0
  6 28  1  0
  7  8  1  0
  8  9  1  0
  8 29  1  0
  8 30  1  0
  9 10  1  0
  9 31  1  0
  9 32  1  0
 10 11  1  0
 11 12  1  0
 11 33  1  0
 11 34  1  0
 12 13  1  0
 12 35  1  0
 12 36  1  0
 13 22  1  0
 14 15  1  0
 14 37  1  0
 15 16  1  0
 15 38  1  0
 15 39  1  0
 16 17  1  0
 16 40  1  0
 16 41  1  0
 17 18  1  0
 18 19  1  0
 18 42  1  0
 18 43  1  0
 19 20  1  0
 19 44  1  0
 19 45  1  0
 20 21  1  0
 21 22  1  0
 21 46  1  0
 21 47  1  0
 22 48  1  0
 22 49  1  0
 23 50  1  0
M  END
