
     RDKit          3D

 32 33  0  0  0  0  0  0  0  0999 V2000
    1.1853   -3.2925    0.3850 O   0  0  0  0  0  0  0  0  0  0  0  0
    0.6602   -2.0826    0.2220 C   0  0  0  0  0  0  0  0  0  0  0  0
    1.4347   -0.9226    0.0894 C   0  0  0  0  0  0  0  0  0  0  0  0
    2.9158   -1.0155    0.1279 C   0  0  0  0  0  0  0  0  0  0  0  0
    3.5771    0.1265   -0.0180 N   0  0  0  0  0  0  0  0  0  0  0  0
    5.0110    0.1921   -0.0131 C   0  0  0  0  0  0  0  0  0  0  0  0
    5.4624    1.5987   -0.3131 C   0  0  0  0  0  0  0  0  0  0  0  0
    6.7805    1.6789   -0.3273 O   0  0  0  0  0  0  0  0  0  0  0  0
    4.7193    2.5247   -0.5128 O   0  0  0  0  0  0  0  0  0  0  0  0
    3.4765   -2.1082    0.2868 O   0  0  0  0  0  0  0  0  0  0  0  0
    0.8910    0.2797   -0.0756 N   0  0  0  0  0  0  0  0  0  0  0  0
   -0.4153    0.4076   -0.1116 C   0  0  0  0  0  0  0  0  0  0  0  0
   -1.2863   -0.6853    0.0211 C   0  0  0  0  0  0  0  0  0  0  0  0
   -0.7273   -1.9398    0.1877 C   0  0  0  0  0  0  0  0  0  0  0  0
   -2.7467   -0.4947   -0.0218 C   0  0  0  0  0  0  0  0  0  0  0  0
   -3.3209    0.6374    0.5559 C   0  0  0  0  0  0  0  0  0  0  0  0
   -4.6945    0.8059    0.5124 C   0  0  0  0  0  0  0  0  0  0  0  0
   -5.3934    2.2127    1.2446 Cl  0  0  0  0  0  0  0  0  0  0  0  0
   -5.5215   -0.1265   -0.0937 C   0  0  0  0  0  0  0  0  0  0  0  0
   -4.9452   -1.2504   -0.6680 C   0  0  0  0  0  0  0  0  0  0  0  0
   -3.5725   -1.4367   -0.6346 C   0  0  0  0  0  0  0  0  0  0  0  0
    2.1662   -3.1819    0.3913 H   0  0  0  0  0  0  0  0  0  0  0  0
    3.0399    0.9739   -0.1458 H   0  0  0  0  0  0  0  0  0  0  0  0
    5.4253   -0.1108    0.9536 H   0  0  0  0  0  0  0  0  0  0  0  0
    5.4399   -0.4806   -0.7615 H   0  0  0  0  0  0  0  0  0  0  0  0
    7.0617    2.5850   -0.5261 H   0  0  0  0  0  0  0  0  0  0  0  0
   -0.8037    1.4074   -0.2684 H   0  0  0  0  0  0  0  0  0  0  0  0
   -1.3501   -2.8174    0.3125 H   0  0  0  0  0  0  0  0  0  0  0  0
   -2.7040    1.3733    1.0543 H   0  0  0  0  0  0  0  0  0  0  0  0
   -6.5926    0.0200   -0.1197 H   0  0  0  0  0  0  0  0  0  0  0  0
   -5.5762   -1.9841   -1.1513 H   0  0  0  0  0  0  0  0  0  0  0  0
   -3.1427   -2.3102   -1.1070 H   0  0  0  0  0  0  0  0  0  0  0  0
  9  7  2  0
  8  7  1  0
  7  6  1  0
 10  4  2  0
  6  5  1  0
  4  5  1  0
  4  3  1  0
 11  3  1  0
 11 12  2  0
  3  2  2  0
 12 13  1  0
  2  1  1  0
  2 14  1  0
 13 14  2  0
 13 15  1  0
 21 15  1  0
 21 20  2  0
 15 16  2  0
 20 19  1  0
 16 17  1  0
 19 17  2  0
 17 18  1  0
  1 22  1  0
  5 23  1  0
  6 24  1  0
  6 25  1  0
  8 26  1  0
 12 27  1  0
 14 28  1  0
 16 29  1  0
 19 30  1  0
 20 31  1  0
 21 32  1  0
M  END
