
     RDKit          3D

 24 23  0  0  0  0  0  0  0  0999 V2000
    0.2130   -1.5099   -0.1140 C   0  0  0  0  0  0  0  0  0  0  0  0
    1.4516    0.5629   -0.4191 N   0  0  0  0  0  0  0  0  0  0  0  0
    0.2700   -2.0819   -1.2062 O   0  0  0  0  0  0  0  0  0  0  0  0
    0.2929   -0.0179    0.2048 C   0  0  1  0  0  0  0  0  0  0  0  0
   -1.0392    0.6741   -0.1938 C   0  0  2  0  0  0  0  0  0  0  0  0
   -2.2043   -0.0329    0.4883 C   0  0  0  0  0  0  0  0  0  0  0  0
   -1.2325    0.7363   -1.6945 C   0  0  0  0  0  0  0  0  0  0  0  0
    2.0437    1.7246    0.0211 C   0  0  0  0  0  0  0  0  0  0  0  0
    1.6308    2.3739    0.9947 O   0  0  0  0  0  0  0  0  0  0  0  0
    0.0636   -2.2947    0.9870 O   0  0  0  0  0  0  0  0  0  0  0  0
    0.0202   -3.2285    0.7207 H   0  0  0  0  0  0  0  0  0  0  0  0
    1.8209    0.0799   -1.2041 H   0  0  0  0  0  0  0  0  0  0  0  0
    0.4113    0.0827    1.3301 H   0  0  0  0  0  0  0  0  0  0  0  0
   -0.9852    1.7274    0.2035 H   0  0  0  0  0  0  0  0  0  0  0  0
   -3.0097    1.7364    1.4542 H   0  0  0  0  0  0  0  0  0  0  0  0
   -3.7534    1.3535   -0.1515 H   0  0  0  0  0  0  0  0  0  0  0  0
   -4.1693    0.3534    1.2997 H   0  0  0  0  0  0  0  0  0  0  0  0
   -2.5614   -0.8725   -0.1665 H   0  0  0  0  0  0  0  0  0  0  0  0
   -1.8496   -0.4983    1.4480 H   0  0  0  0  0  0  0  0  0  0  0  0
   -2.1397    1.3400   -1.9399 H   0  0  0  0  0  0  0  0  0  0  0  0
   -0.3558    1.2175   -2.1919 H   0  0  0  0  0  0  0  0  0  0  0  0
   -1.3650   -0.2888   -2.1203 H   0  0  0  0  0  0  0  0  0  0  0  0
    2.9451    2.0139   -0.5680 H   0  0  0  0  0  0  0  0  0  0  0  0
   -3.3450    0.9058    0.7868 C   0  0  0  0  0  0  0  0  0  0  0  0
  1 10  1  0
  2  4  1  0
  3  1  2  0
  4  1  1  0
  4 13  1  1
  5  4  1  0
  5  7  1  0
 24 16  1  0
 24  6  1  0
  6  5  1  0
  6 19  1  0
  7 20  1  0
  7 21  1  0
 12  2  1  0
  5 14  1  1
 15 24  1  0
 18  6  1  0
 17 24  1  0
 22  7  1  0
  8  2  1  0
  8  9  2  0
 23  8  1  0
 10 11  1  0
M  END
