
     RDKit          3D

 76 81  0  0  0  0  0  0  0  0999 V2000
   -8.5662   -2.8591   -1.4307 C   0  0  0  0  0  0  0  0  0  0  0  0
   11.8171   -0.4101    0.8212 F   0  0  0  0  0  0  0  0  0  0  0  0
   -9.1824   -5.1500   -1.1226 N   0  0  0  0  0  0  0  0  0  0  0  0
   -3.4631   -1.1727   -1.6259 O   0  0  0  0  0  0  0  0  0  0  0  0
   -9.3826   -3.9491   -1.6577 C   0  0  0  0  0  0  0  0  0  0  0  0
   11.6582    1.7308    0.8163 F   0  0  0  0  0  0  0  0  0  0  0  0
   -8.1268   -5.2754   -0.3285 C   0  0  0  0  0  0  0  0  0  0  0  0
   11.8797    0.6611   -1.0409 F   0  0  0  0  0  0  0  0  0  0  0  0
   -3.5846   -0.3108    0.4423 N   0  0  0  0  0  0  0  0  0  0  0  0
   -7.2363   -4.2567   -0.0265 C   0  0  0  0  0  0  0  0  0  0  0  0
   -1.0406   -2.5722   -1.7370 F   0  0  0  0  0  0  0  0  0  0  0  0
    2.7746   -0.1000   -0.3836 N   0  0  0  0  0  0  0  0  0  0  0  0
   -7.4582   -3.0009   -0.5920 C   0  0  0  0  0  0  0  0  0  0  0  0
    5.6161    0.0694   -0.1435 N   0  0  0  0  0  0  0  0  0  0  0  0
   -5.5383   -1.7583    0.3670 C   0  0  0  0  0  0  0  0  0  0  0  0
   -3.8978    3.5101    2.5907 N   0  0  0  0  0  0  0  0  0  0  0  0
   -5.0178   -0.3246    0.4580 C   0  0  1  0  0  0  0  0  0  0  0  0
   -1.4231   -0.5822   -0.5402 C   0  0  0  0  0  0  0  0  0  0  0  0
   -0.8253    0.5002    0.1130 C   0  0  0  0  0  0  0  0  0  0  0  0
    0.5403    0.6631    0.1752 C   0  0  0  0  0  0  0  0  0  0  0  0
    1.4096   -0.2740   -0.4168 C   0  0  0  0  0  0  0  0  0  0  0  0
    3.6338   -1.0703   -1.0290 C   0  0  0  0  0  0  0  0  0  0  0  0
    5.0045   -0.4891   -1.3300 C   0  0  0  0  0  0  0  0  0  0  0  0
    6.9863    0.2407   -0.1021 C   0  0  0  0  0  0  0  0  0  0  0  0
    7.6160    0.7547    1.0468 C   0  0  0  0  0  0  0  0  0  0  0  0
    8.9865    0.8878    1.1161 C   0  0  0  0  0  0  0  0  0  0  0  0
    9.7971    0.5193    0.0449 C   0  0  0  0  0  0  0  0  0  0  0  0
   11.2774    0.6274    0.1547 C   0  0  1  0  0  0  0  0  0  0  0  0
    9.1930    0.0114   -1.0960 C   0  0  0  0  0  0  0  0  0  0  0  0
    7.8171   -0.1181   -1.1753 C   0  0  0  0  0  0  0  0  0  0  0  0
    4.7533    1.0554    0.4851 C   0  0  0  0  0  0  0  0  0  0  0  0
    3.3950    0.4669    0.8031 C   0  0  0  0  0  0  0  0  0  0  0  0
    0.8214   -1.3713   -1.0642 C   0  0  0  0  0  0  0  0  0  0  0  0
   -0.5504   -1.4889   -1.1241 C   0  0  0  0  0  0  0  0  0  0  0  0
   -5.5303    0.3127    1.7619 C   0  0  0  0  0  0  0  0  0  0  0  0
   -5.0619    1.7184    1.9189 C   0  0  0  0  0  0  0  0  0  0  0  0
   -4.0954    2.1717    2.7732 C   0  0  0  0  0  0  0  0  0  0  0  0
   -4.7320    3.9609    1.6101 C   0  0  0  0  0  0  0  0  0  0  0  0
   -5.4874    2.8559    1.1588 C   0  0  0  0  0  0  0  0  0  0  0  0
   -6.4379    3.0473    0.1493 C   0  0  0  0  0  0  0  0  0  0  0  0
   -6.6049    4.3115   -0.3810 C   0  0  0  0  0  0  0  0  0  0  0  0
   -5.8385    5.3959    0.0784 C   0  0  0  0  0  0  0  0  0  0  0  0
   -4.8968    5.2386    1.0772 C   0  0  0  0  0  0  0  0  0  0  0  0
   -8.7910   -1.9093   -1.9000 H   0  0  0  0  0  0  0  0  0  0  0  0
  -10.2442   -3.8420   -2.3069 H   0  0  0  0  0  0  0  0  0  0  0  0
   -6.9675   -1.0536   -0.8769 H   0  0  0  0  0  0  0  0  0  0  0  0
   -7.9638   -6.2550    0.1076 H   0  0  0  0  0  0  0  0  0  0  0  0
   -3.0965   -0.0907    1.2954 H   0  0  0  0  0  0  0  0  0  0  0  0
   -6.4059   -4.4558    0.6292 H   0  0  0  0  0  0  0  0  0  0  0  0
   -3.2424    4.0712    3.1081 H   0  0  0  0  0  0  0  0  0  0  0  0
   -5.3939    0.2582   -0.3891 H   0  0  0  0  0  0  0  0  0  0  0  0
   -1.4471    1.2667    0.5593 H   0  0  0  0  0  0  0  0  0  0  0  0
    0.9247    1.5483    0.6594 H   0  0  0  0  0  0  0  0  0  0  0  0
    3.7411   -1.9761   -0.4163 H   0  0  0  0  0  0  0  0  0  0  0  0
    3.2077   -1.3673   -1.9859 H   0  0  0  0  0  0  0  0  0  0  0  0
    4.9163    0.2628   -2.1268 H   0  0  0  0  0  0  0  0  0  0  0  0
    5.6098   -1.3084   -1.7139 H   0  0  0  0  0  0  0  0  0  0  0  0
    7.0397    1.0374    1.9158 H   0  0  0  0  0  0  0  0  0  0  0  0
    9.4163    1.2823    2.0279 H   0  0  0  0  0  0  0  0  0  0  0  0
    9.7817   -0.2804   -1.9557 H   0  0  0  0  0  0  0  0  0  0  0  0
    7.4054   -0.4935   -2.1000 H   0  0  0  0  0  0  0  0  0  0  0  0
    5.1799    1.4038    1.4213 H   0  0  0  0  0  0  0  0  0  0  0  0
    4.6349    1.9310   -0.1678 H   0  0  0  0  0  0  0  0  0  0  0  0
    2.7824    1.2625    1.2173 H   0  0  0  0  0  0  0  0  0  0  0  0
    3.5047   -0.3038    1.5777 H   0  0  0  0  0  0  0  0  0  0  0  0
    1.4103   -2.1593   -1.5106 H   0  0  0  0  0  0  0  0  0  0  0  0
   -6.6223    0.2658    1.7564 H   0  0  0  0  0  0  0  0  0  0  0  0
   -5.1966   -0.2922    2.6089 H   0  0  0  0  0  0  0  0  0  0  0  0
   -3.5294    1.6283    3.5146 H   0  0  0  0  0  0  0  0  0  0  0  0
   -7.0402    2.2209   -0.2095 H   0  0  0  0  0  0  0  0  0  0  0  0
   -7.3358    4.4721   -1.1629 H   0  0  0  0  0  0  0  0  0  0  0  0
   -5.9895    6.3746   -0.3586 H   0  0  0  0  0  0  0  0  0  0  0  0
   -4.3090    6.0765    1.4301 H   0  0  0  0  0  0  0  0  0  0  0  0
   -6.6668   -1.8809   -0.3826 N   0  0  0  0  0  0  0  0  0  0  0  0
   -2.8961   -0.7286   -0.6380 C   0  0  0  0  0  0  0  0  0  0  0  0
   -5.0073   -2.6681    0.9666 O   0  0  0  0  0  0  0  0  0  0  0  0
  1  5  2  0
  1 13  1  0
 28  2  1  1
  3  5  1  0
  3  7  2  0
  4 75  2  0
  6 28  1  0
 74 13  1  0
 74 15  1  0
 76 15  2  0
  7 10  1  0
  8 28  1  0
  9 17  1  0
  9 75  1  0
 10 13  2  0
 11 34  1  0
 12 21  1  0
 12 22  1  0
 12 32  1  0
 14 23  1  0
 14 24  1  0
 14 31  1  0
 15 17  1  0
 16 37  1  0
 16 38  1  0
 17 35  1  0
 75 18  1  0
 18 19  2  0
 18 34  1  0
 19 20  1  0
 20 21  2  0
 21 33  1  0
 22 23  1  0
 24 25  2  0
 24 30  1  0
 25 26  1  0
 26 27  2  0
 27 28  1  0
 27 29  1  0
 29 30  2  0
 31 32  1  0
 33 34  2  0
 35 36  1  0
 36 37  2  0
 36 39  1  0
 38 39  2  0
 38 43  1  0
 39 40  1  0
 40 41  2  0
 41 42  1  0
 42 43  2  0
  1 44  1  0
  5 45  1  0
 74 46  1  0
  7 47  1  0
  9 48  1  0
 10 49  1  0
 16 50  1  0
 17 51  1  6
 19 52  1  0
 20 53  1  0
 22 54  1  0
 22 55  1  0
 23 56  1  0
 23 57  1  0
 25 58  1  0
 26 59  1  0
 29 60  1  0
 30 61  1  0
 31 62  1  0
 31 63  1  0
 32 64  1  0
 32 65  1  0
 33 66  1  0
 35 67  1  0
 35 68  1  0
 37 69  1  0
 40 70  1  0
 41 71  1  0
 42 72  1  0
 43 73  1  0
M  END
