
     RDKit          3D

 35 34  0  0  0  0  0  0  0  0999 V2000
   -0.2171   -0.0304    7.6360 C   0  0  0  0  0  0  0  0  0  0  0  0
    0.5835    0.1720    6.3571 C   0  0  0  0  0  0  0  0  0  0  0  0
   -0.2453   -0.0504    5.0981 C   0  0  0  0  0  0  0  0  0  0  0  0
    0.5479    0.1368    3.8111 C   0  0  0  0  0  0  0  0  0  0  0  0
   -0.2814   -0.1038    2.5560 C   0  0  0  0  0  0  0  0  0  0  0  0
    0.5130    0.0815    1.2696 C   0  0  0  0  0  0  0  0  0  0  0  0
   -0.3114   -0.2184    0.0224 C   0  0  0  0  0  0  0  0  0  0  0  0
    0.4923    0.0093   -1.2476 C   0  0  0  0  0  0  0  0  0  0  0  0
   -0.4608   -0.5266   -2.6949 S   0  0  0  0  0  0  0  0  0  0  0  0
    0.6475    0.1452   -3.9616 C   0  0  0  0  0  0  0  0  0  0  0  0
    0.1258   -0.2138   -5.3405 C   0  0  0  0  0  0  0  0  0  0  0  0
   -1.7214    0.3097   -2.7390 O   0  0  0  0  0  0  0  0  0  0  0  0
    1.0063    0.3473   -6.2850 O   0  0  0  0  0  0  0  0  0  0  0  0
   -0.6250   -1.0417    7.6884 H   0  0  0  0  0  0  0  0  0  0  0  0
    0.3981    0.1232    8.5239 H   0  0  0  0  0  0  0  0  0  0  0  0
   -1.0569    0.6648    7.6920 H   0  0  0  0  0  0  0  0  0  0  0  0
    1.0019    1.1833    6.3415 H   0  0  0  0  0  0  0  0  0  0  0  0
    1.4400   -0.5096    6.3515 H   0  0  0  0  0  0  0  0  0  0  0  0
   -0.6693   -1.0607    5.1181 H   0  0  0  0  0  0  0  0  0  0  0  0
   -1.0997    0.6357    5.1015 H   0  0  0  0  0  0  0  0  0  0  0  0
    0.9649    1.1496    3.7848 H   0  0  0  0  0  0  0  0  0  0  0  0
    1.4061   -0.5445    3.8128 H   0  0  0  0  0  0  0  0  0  0  0  0
   -0.6944   -1.1180    2.5838 H   0  0  0  0  0  0  0  0  0  0  0  0
   -1.1413    0.5747    2.5519 H   0  0  0  0  0  0  0  0  0  0  0  0
    0.8948    1.1065    1.2205 H   0  0  0  0  0  0  0  0  0  0  0  0
    1.3906   -0.5729    1.2859 H   0  0  0  0  0  0  0  0  0  0  0  0
   -0.6595   -1.2553    0.0617 H   0  0  0  0  0  0  0  0  0  0  0  0
   -1.2014    0.4148    0.0066 H   0  0  0  0  0  0  0  0  0  0  0  0
    0.7542    1.0623   -1.3746 H   0  0  0  0  0  0  0  0  0  0  0  0
    1.4084   -0.5860   -1.2504 H   0  0  0  0  0  0  0  0  0  0  0  0
    0.6952    1.2274   -3.8193 H   0  0  0  0  0  0  0  0  0  0  0  0
    1.6375   -0.2835   -3.7916 H   0  0  0  0  0  0  0  0  0  0  0  0
    0.0707   -1.3057   -5.4344 H   0  0  0  0  0  0  0  0  0  0  0  0
   -0.8933    0.1734   -5.4563 H   0  0  0  0  0  0  0  0  0  0  0  0
    0.6679    0.1495   -7.1632 H   0  0  0  0  0  0  0  0  0  0  0  0
  1  2  1  0
  1 14  1  0
  1 15  1  0
  1 16  1  0
  2  3  1  0
  2 17  1  0
  2 18  1  0
  3  4  1  0
  3 19  1  0
  3 20  1  0
  4  5  1  0
  4 21  1  0
  4 22  1  0
  5  6  1  0
  5 23  1  0
  5 24  1  0
  6  7  1  0
  6 25  1  0
  6 26  1  0
  7  8  1  0
  7 27  1  0
  7 28  1  0
  9  8  1  1
  8 29  1  0
  8 30  1  0
  9 10  1  0
  9 12  2  0
 10 11  1  0
 10 31  1  0
 10 32  1  0
 11 13  1  0
 11 33  1  0
 11 34  1  0
 13 35  1  0
M  END
