
     RDKit          3D

 62 64  0  0  0  0  0  0  0  0999 V2000
    0.4517   -0.0512   -0.2410 C   0  0  0  0  0  0  0  0  0  0  0  0
    0.5019    0.9557   -1.1378 N   0  0  0  0  0  0  0  0  0  0  0  0
    0.1861    0.1496    0.9336 O   0  0  0  0  0  0  0  0  0  0  0  0
    1.5076    3.0837   -1.6166 C   0  0  0  0  0  0  0  0  0  0  0  0
    1.7705    4.2820   -1.1269 O   0  0  0  0  0  0  0  0  0  0  0  0
   -2.0365    2.7235    1.3523 N   0  0  0  0  0  0  0  0  0  0  0  0
    0.0657   -1.7715   -2.0753 C   0  0  0  0  0  0  0  0  0  0  0  0
    0.2709   -2.5237    0.1544 C   0  0  0  0  0  0  0  0  0  0  0  0
   -2.5232    1.3138   -0.2579 O   0  0  0  0  0  0  0  0  0  0  0  0
    3.2125   -1.3852    0.2787 C   0  0  1  0  0  0  0  0  0  0  0  0
   -2.9364    1.7979    1.8220 C   0  0  0  0  0  0  0  0  0  0  0  0
    7.0099   -2.2992    0.6877 C   0  0  0  0  0  0  0  0  0  0  0  0
   -0.8715    3.0043   -0.8284 C   0  0  0  0  0  0  0  0  0  0  0  0
    0.5196    2.3346   -0.7413 C   0  0  1  0  0  0  0  0  0  0  0  0
   -4.4919   -0.9032    1.8943 C   0  0  0  0  0  0  0  0  0  0  0  0
   -5.3097   -2.0186    1.8237 C   0  0  0  0  0  0  0  0  0  0  0  0
   -5.7393   -2.4948    0.5908 C   0  0  0  0  0  0  0  0  0  0  0  0
    0.8190   -1.4367   -0.7757 C   0  0  2  0  0  0  0  0  0  0  0  0
    4.6557   -1.7964   -0.0654 C   0  0  0  0  0  0  0  0  0  0  0  0
    3.2366    0.0229    0.8257 C   0  0  0  0  0  0  0  0  0  0  0  0
   -4.0970   -0.2395    0.7301 C   0  0  0  0  0  0  0  0  0  0  0  0
   -4.5392   -0.7174   -0.5046 C   0  0  0  0  0  0  0  0  0  0  0  0
   -1.3610   -2.0895   -1.6227 C   0  0  0  0  0  0  0  0  0  0  0  0
    3.3959    1.0106    0.1482 O   0  0  0  0  0  0  0  0  0  0  0  0
   -1.2247   -2.6169   -0.1772 C   0  0  0  0  0  0  0  0  0  0  0  0
    3.1321    0.0650    2.1482 O   0  0  0  0  0  0  0  0  0  0  0  0
   -3.2341    0.9230    0.8303 C   0  0  0  0  0  0  0  0  0  0  0  0
    2.3402   -1.5189   -0.9733 C   0  0  0  0  0  0  0  0  0  0  0  0
    1.9711    2.6508   -2.6397 O   0  0  0  0  0  0  0  0  0  0  0  0
   -1.8195    2.3858    0.1272 C   0  0  0  0  0  0  0  0  0  0  0  0
   -5.3509   -1.8397   -0.5697 C   0  0  0  0  0  0  0  0  0  0  0  0
    0.7971    0.7615   -2.0816 H   0  0  0  0  0  0  0  0  0  0  0  0
    2.3741    4.7640   -1.7129 H   0  0  0  0  0  0  0  0  0  0  0  0
    0.1060   -0.9998   -2.8458 H   0  0  0  0  0  0  0  0  0  0  0  0
    0.5335   -2.6596   -2.5098 H   0  0  0  0  0  0  0  0  0  0  0  0
    0.7715   -3.4622   -0.1024 H   0  0  0  0  0  0  0  0  0  0  0  0
    0.4617   -2.3357    1.2096 H   0  0  0  0  0  0  0  0  0  0  0  0
    2.8438   -2.0602    1.0557 H   0  0  0  0  0  0  0  0  0  0  0  0
   -3.3212    1.8289    2.8288 H   0  0  0  0  0  0  0  0  0  0  0  0
    6.9433   -3.3381    0.3599 H   0  0  0  0  0  0  0  0  0  0  0  0
    7.4324   -1.7203   -0.1354 H   0  0  0  0  0  0  0  0  0  0  0  0
    7.7158   -2.2577    1.5172 H   0  0  0  0  0  0  0  0  0  0  0  0
    5.2515   -2.3415    1.9309 H   0  0  0  0  0  0  0  0  0  0  0  0
    5.7665   -0.7359    1.4611 H   0  0  0  0  0  0  0  0  0  0  0  0
   -0.7831    4.0594   -0.5718 H   0  0  0  0  0  0  0  0  0  0  0  0
   -1.2514    2.9355   -1.8490 H   0  0  0  0  0  0  0  0  0  0  0  0
    0.8619    2.4066    0.2934 H   0  0  0  0  0  0  0  0  0  0  0  0
   -5.6016   -2.5252    2.7343 H   0  0  0  0  0  0  0  0  0  0  0  0
   -6.3727   -3.3704    0.5362 H   0  0  0  0  0  0  0  0  0  0  0  0
    4.6122   -2.8154   -0.4605 H   0  0  0  0  0  0  0  0  0  0  0  0
    5.0208   -1.1679   -0.8842 H   0  0  0  0  0  0  0  0  0  0  0  0
   -4.2590   -0.2134   -1.4204 H   0  0  0  0  0  0  0  0  0  0  0  0
   -1.9728   -1.1870   -1.6402 H   0  0  0  0  0  0  0  0  0  0  0  0
   -1.8453   -2.8056   -2.2869 H   0  0  0  0  0  0  0  0  0  0  0  0
   -1.5916   -3.6385   -0.0736 H   0  0  0  0  0  0  0  0  0  0  0  0
   -1.8135   -2.0037    0.5058 H   0  0  0  0  0  0  0  0  0  0  0  0
    3.1999    0.9823    2.4539 H   0  0  0  0  0  0  0  0  0  0  0  0
    2.6673   -0.7946   -1.7244 H   0  0  0  0  0  0  0  0  0  0  0  0
    2.5439   -2.5060   -1.3980 H   0  0  0  0  0  0  0  0  0  0  0  0
   -5.6830   -2.2007   -1.5343 H   0  0  0  0  0  0  0  0  0  0  0  0
    5.6451   -1.7584    1.0932 C   0  0  0  0  0  0  0  0  0  0  0  0
   -4.1449   -0.5555    2.8594 H   0  0  0  0  0  0  0  0  0  0  0  0
 18  1  1  1
  3  1  2  0
  1  2  1  0
  2 14  1  0
  2 32  1  0
 29  4  2  0
  4  5  1  0
  4 14  1  0
  5 33  1  0
 30  6  2  0
  6 11  1  0
  7 18  1  0
  7 23  1  0
  7 34  1  0
  7 35  1  0
 18  8  1  0
  8 25  1  0
  8 36  1  0
  8 37  1  0
 30  9  1  0
  9 27  1  0
 20 10  1  0
 19 10  1  0
 10 28  1  0
 10 38  1  1
 11 27  2  0
 11 39  1  0
 12 61  1  0
 12 40  1  0
 12 41  1  0
 12 42  1  0
 61 19  1  0
 61 43  1  0
 61 44  1  0
 14 13  1  0
 13 30  1  0
 13 45  1  0
 13 46  1  0
 14 47  1  1
 21 15  2  0
 15 16  1  0
 15 62  1  0
 17 16  2  0
 16 48  1  0
 31 17  1  0
 17 49  1  0
 28 18  1  0
 19 50  1  0
 19 51  1  0
 24 20  2  0
 26 20  1  0
 27 21  1  0
 22 21  1  0
 22 31  2  0
 22 52  1  0
 23 25  1  0
 23 53  1  0
 23 54  1  0
 25 55  1  0
 25 56  1  0
 26 57  1  0
 28 58  1  0
 28 59  1  0
 31 60  1  0
M  END
