
     RDKit          3D

 62 64  0  0  0  0  0  0  0  0999 V2000
    7.9722   -4.3020   -0.0130 C   0  0  0  0  0  0  0  0  0  0  0  0
    6.5720   -3.7150   -0.1603 C   0  0  1  0  0  0  0  0  0  0  0  0
    5.6056   -4.3986    0.8042 C   0  0  0  0  0  0  0  0  0  0  0  0
    6.6240   -2.1991    0.0420 C   0  0  0  0  0  0  0  0  0  0  0  0
    5.2826   -1.5247   -0.1516 C   0  0  0  0  0  0  0  0  0  0  0  0
    5.4899   -0.1158   -0.0592 O   0  0  0  0  0  0  0  0  0  0  0  0
    2.1044    1.2603   -0.3940 C   0  0  0  0  0  0  0  0  0  0  0  0
    2.3993    2.6237   -0.2859 C   0  0  0  0  0  0  0  0  0  0  0  0
    3.7116    3.0123   -0.1087 C   0  0  0  0  0  0  0  0  0  0  0  0
    4.7442    2.0822   -0.0338 C   0  0  0  0  0  0  0  0  0  0  0  0
    4.4501    0.7113   -0.1438 C   0  0  0  0  0  0  0  0  0  0  0  0
    3.1360    0.3146   -0.3256 C   0  0  0  0  0  0  0  0  0  0  0  0
    6.0875    2.4991    0.1535 C   0  0  0  0  0  0  0  0  0  0  0  0
    7.1737    2.8575    0.3046 N   0  0  0  0  0  0  0  0  0  0  0  0
   -1.3958    0.4758   -0.8067 N   0  0  0  0  0  0  0  0  0  0  0  0
   -0.3862    1.3296   -0.6291 C   0  0  0  0  0  0  0  0  0  0  0  0
   -0.5052    2.6433   -0.5070 N   0  0  0  0  0  0  0  0  0  0  0  0
   -1.7529    3.0830   -0.5710 C   0  0  0  0  0  0  0  0  0  0  0  0
   -2.8326    2.3419   -0.7411 N   0  0  0  0  0  0  0  0  0  0  0  0
   -2.5853    1.0438   -0.8542 C   0  0  0  0  0  0  0  0  0  0  0  0
   -1.8755    4.3843   -0.4487 O   0  0  0  0  0  0  0  0  0  0  0  0
   -3.1838    4.9549   -0.4950 C   0  0  0  0  0  0  0  0  0  0  0  0
   -3.5841    0.2117   -1.0304 O   0  0  0  0  0  0  0  0  0  0  0  0
   -4.9197    0.7254   -1.0856 C   0  0  0  0  0  0  0  0  0  0  0  0
   -5.8496   -0.4401   -1.3314 C   0  0  0  0  0  0  0  0  0  0  0  0
   -5.8016   -1.4579   -0.3040 N   0  0  0  0  0  0  0  0  0  0  0  0
   -6.3347   -1.0082    0.9692 C   0  0  0  0  0  0  0  0  0  0  0  0
   -6.2327   -2.1170    1.9991 C   0  0  0  0  0  0  0  0  0  0  0  0
   -6.8951   -3.2877    1.5762 O   0  0  0  0  0  0  0  0  0  0  0  0
   -6.3791   -3.7341    0.3419 C   0  0  0  0  0  0  0  0  0  0  0  0
   -6.4878   -2.6652   -0.7278 C   0  0  0  0  0  0  0  0  0  0  0  0
    7.9736   -5.3739   -0.2164 H   0  0  0  0  0  0  0  0  0  0  0  0
    8.6789   -3.8330   -0.6998 H   0  0  0  0  0  0  0  0  0  0  0  0
    8.3492   -4.1565    1.0023 H   0  0  0  0  0  0  0  0  0  0  0  0
    6.2286   -3.9077   -1.1834 H   0  0  0  0  0  0  0  0  0  0  0  0
    4.5674   -4.1144    0.6288 H   0  0  0  0  0  0  0  0  0  0  0  0
    5.6621   -5.4836    0.7042 H   0  0  0  0  0  0  0  0  0  0  0  0
    5.8492   -4.1485    1.8399 H   0  0  0  0  0  0  0  0  0  0  0  0
    6.9990   -1.9810    1.0473 H   0  0  0  0  0  0  0  0  0  0  0  0
    7.3402   -1.7708   -0.6654 H   0  0  0  0  0  0  0  0  0  0  0  0
    4.8604   -1.7740   -1.1317 H   0  0  0  0  0  0  0  0  0  0  0  0
    4.5681   -1.8405    0.6139 H   0  0  0  0  0  0  0  0  0  0  0  0
    1.6223    3.3659   -0.3369 H   0  0  0  0  0  0  0  0  0  0  0  0
    3.9429    4.0657   -0.0251 H   0  0  0  0  0  0  0  0  0  0  0  0
    2.8879   -0.7350   -0.4166 H   0  0  0  0  0  0  0  0  0  0  0  0
    0.7864   -0.2647   -0.6630 H   0  0  0  0  0  0  0  0  0  0  0  0
   -3.6696    4.7570   -1.4495 H   0  0  0  0  0  0  0  0  0  0  0  0
   -3.8107    4.5749    0.3105 H   0  0  0  0  0  0  0  0  0  0  0  0
   -3.0400    6.0243   -0.3727 H   0  0  0  0  0  0  0  0  0  0  0  0
   -5.1545    1.2500   -0.1582 H   0  0  0  0  0  0  0  0  0  0  0  0
   -5.0168    1.4429   -1.9024 H   0  0  0  0  0  0  0  0  0  0  0  0
   -6.8614   -0.0191   -1.4580 H   0  0  0  0  0  0  0  0  0  0  0  0
   -5.5879   -0.9026   -2.2867 H   0  0  0  0  0  0  0  0  0  0  0  0
   -5.7633   -0.1537    1.3381 H   0  0  0  0  0  0  0  0  0  0  0  0
   -7.3846   -0.6790    0.8779 H   0  0  0  0  0  0  0  0  0  0  0  0
   -5.1725   -2.3271    2.1994 H   0  0  0  0  0  0  0  0  0  0  0  0
   -6.6941   -1.7994    2.9351 H   0  0  0  0  0  0  0  0  0  0  0  0
   -5.3271   -4.0341    0.4511 H   0  0  0  0  0  0  0  0  0  0  0  0
   -6.9496   -4.6164    0.0472 H   0  0  0  0  0  0  0  0  0  0  0  0
   -7.5522   -2.4765   -0.9508 H   0  0  0  0  0  0  0  0  0  0  0  0
   -6.0286   -3.0388   -1.6466 H   0  0  0  0  0  0  0  0  0  0  0  0
    0.8351    0.7402   -0.5749 N   0  0  0  0  0  0  0  0  0  0  0  0
 28 29  1  0
 28 27  1  0
 29 30  1  0
 30 31  1  0
 27 26  1  0
 26 31  1  0
 26 25  1  0
 25 24  1  0
 24 23  1  0
 23 20  1  0
 15 20  2  0
 15 16  1  0
  8  9  2  0
  8  7  1  0
 62 16  1  0
 62  7  1  0
 20 19  1  0
 16 17  2  0
  9 10  1  0
  7 12  2  0
 19 18  2  0
 17 18  1  0
 10 13  1  0
 10 11  2  0
 12 11  1  0
 18 21  1  0
 13 14  3  0
 11  6  1  0
 21 22  1  0
  6  5  1  0
  3  2  1  0
  5  4  1  0
  4  2  1  0
  2  1  1  0
  1 32  1  0
  1 33  1  0
  1 34  1  0
  2 35  1  6
  3 36  1  0
  3 37  1  0
  3 38  1  0
  4 39  1  0
  4 40  1  0
  5 41  1  0
  5 42  1  0
  8 43  1  0
  9 44  1  0
 12 45  1  0
 62 46  1  0
 22 47  1  0
 22 48  1  0
 22 49  1  0
 24 50  1  0
 24 51  1  0
 25 52  1  0
 25 53  1  0
 27 54  1  0
 27 55  1  0
 28 56  1  0
 28 57  1  0
 30 58  1  0
 30 59  1  0
 31 60  1  0
 31 61  1  0
M  END
