
     RDKit          3D

 19 19  0  0  0  0  0  0  0  0999 V2000
   -2.6191   -0.0298    0.0977 S   0  0  1  0  0  0  0  0  0  0  0  0
   -2.9950    0.3501   -1.4647 N   0  0  0  0  0  0  0  0  0  0  0  0
   -3.0850    1.0945    0.8965 O   0  0  0  0  0  0  0  0  0  0  0  0
   -3.0451   -1.3702    0.4786 O   0  0  0  0  0  0  0  0  0  0  0  0
   -0.8604   -0.0259    0.0435 C   0  0  0  0  0  0  0  0  0  0  0  0
   -0.1600   -1.2206    0.0932 C   0  0  0  0  0  0  0  0  0  0  0  0
    1.2175   -1.1926    0.0662 C   0  0  0  0  0  0  0  0  0  0  0  0
    2.0874   -2.6879    0.1271 Cl  0  0  0  0  0  0  0  0  0  0  0  0
    1.9523    0.0066   -0.0020 C   0  0  0  0  0  0  0  0  0  0  0  0
    3.2972    0.0228   -0.0517 N   0  0  0  0  0  0  0  0  0  0  0  0
    1.1872    1.1916   -0.0516 C   0  0  0  0  0  0  0  0  0  0  0  0
    2.0225    2.7047   -0.1401 Cl  0  0  0  0  0  0  0  0  0  0  0  0
   -0.1876    1.1875   -0.0287 C   0  0  0  0  0  0  0  0  0  0  0  0
   -2.8139   -0.4127   -2.1095 H   0  0  0  0  0  0  0  0  0  0  0  0
   -3.9587    0.6602   -1.5498 H   0  0  0  0  0  0  0  0  0  0  0  0
   -0.6759   -2.1687    0.1564 H   0  0  0  0  0  0  0  0  0  0  0  0
    3.7865    0.8858    0.1154 H   0  0  0  0  0  0  0  0  0  0  0  0
    3.8097   -0.8097    0.1857 H   0  0  0  0  0  0  0  0  0  0  0  0
   -0.7270    2.1244   -0.0666 H   0  0  0  0  0  0  0  0  0  0  0  0
  1  2  1  6
  1  3  2  0
  1  4  2  0
  1  5  1  0
  2 14  1  0
  2 15  1  0
  5  6  2  0
  5 13  1  0
  6  7  1  0
  6 16  1  0
  7  8  1  0
  7  9  2  0
  9 10  1  0
  9 11  1  0
 10 17  1  0
 10 18  1  0
 11 12  1  0
 11 13  2  0
 13 19  1  0
M  END
