
     RDKit          3D

 25 25  0  0  0  0  0  0  0  0999 V2000
    0.0201    1.4514   -0.1283 N   0  0  0  0  0  0  0  0  0  0  0  0
    0.0746    0.0063    0.0010 C   0  0  1  0  0  0  0  0  0  0  0  0
    3.7420   -0.2051    0.3038 C   0  0  0  0  0  0  0  0  0  0  0  0
    4.1428   -1.2690   -0.1313 O   0  0  0  0  0  0  0  0  0  0  0  0
   -1.0301   -0.7488   -0.7586 C   0  0  0  0  0  0  0  0  0  0  0  0
   -2.3964   -0.3452   -0.3364 C   0  0  0  0  0  0  0  0  0  0  0  0
   -3.3262    0.4780   -0.9112 C   0  0  0  0  0  0  0  0  0  0  0  0
   -2.9676   -0.7296    0.8462 N   0  0  0  0  0  0  0  0  0  0  0  0
   -4.1815   -0.1477    0.9322 C   0  0  0  0  0  0  0  0  0  0  0  0
   -4.4332    0.5921   -0.1159 N   0  0  0  0  0  0  0  0  0  0  0  0
    1.4408   -0.4853   -0.4638 C   0  0  0  0  0  0  0  0  0  0  0  0
    2.4769    0.2294    0.2396 N   0  0  0  0  0  0  0  0  0  0  0  0
   -0.0030    1.7136   -1.1083 H   0  0  0  0  0  0  0  0  0  0  0  0
   -0.8338    1.8098    0.2809 H   0  0  0  0  0  0  0  0  0  0  0  0
   -0.0178   -0.2252    1.0673 H   0  0  0  0  0  0  0  0  0  0  0  0
   -0.9259   -0.5540   -1.8293 H   0  0  0  0  0  0  0  0  0  0  0  0
   -0.8944   -1.8262   -0.6220 H   0  0  0  0  0  0  0  0  0  0  0  0
   -3.2455    0.9894   -1.8592 H   0  0  0  0  0  0  0  0  0  0  0  0
   -2.5627   -1.3498    1.5302 H   0  0  0  0  0  0  0  0  0  0  0  0
   -4.8365   -0.3021    1.7758 H   0  0  0  0  0  0  0  0  0  0  0  0
    1.5299   -1.5545   -0.2700 H   0  0  0  0  0  0  0  0  0  0  0  0
    1.5285   -0.3459   -1.5490 H   0  0  0  0  0  0  0  0  0  0  0  0
    2.2484    1.1731    0.5185 H   0  0  0  0  0  0  0  0  0  0  0  0
    4.5340    0.6761    0.9302 O   0  0  0  0  0  0  0  0  0  0  0  0
    5.4331    0.3244    0.9574 H   0  0  0  0  0  0  0  0  0  0  0  0
  1  2  1  0
  2  5  1  0
  2 11  1  0
  5  6  1  0
  8  6  1  0
  8  9  1  0
 12 11  1  0
 12  3  1  0
  6  7  2  0
  9 10  2  0
  3  4  2  0
  7 10  1  0
  1 13  1  0
  1 14  1  0
  2 15  1  1
  5 16  1  0
  5 17  1  0
  7 18  1  0
  8 19  1  0
  9 20  1  0
 11 21  1  0
 11 22  1  0
 12 23  1  0
  3 24  1  0
 24 25  1  0
M  END
