
     RDKit          3D

 36 38  0  0  0  0  0  0  0  0999 V2000
    3.2379    3.0746    0.2756 C   0  0  0  0  0  0  0  0  0  0  0  0
    2.0265    3.7495    0.2754 C   0  0  0  0  0  0  0  0  0  0  0  0
    3.2422    1.6887    0.1893 C   0  0  0  0  0  0  0  0  0  0  0  0
    0.8216    3.0644    0.1929 C   0  0  0  0  0  0  0  0  0  0  0  0
   -3.9004    0.1819   -0.4659 C   0  0  0  0  0  0  0  0  0  0  0  0
   -4.5952   -0.9821   -0.3889 C   0  0  0  0  0  0  0  0  0  0  0  0
   -2.2588   -1.2435    0.3366 C   0  0  0  0  0  0  0  0  0  0  0  0
   -2.5427    0.0375   -0.0545 C   0  0  0  0  0  0  0  0  0  0  0  0
    2.0522    0.9827    0.1065 C   0  0  0  0  0  0  0  0  0  0  0  0
    0.8257    1.6727    0.1079 C   0  0  0  0  0  0  0  0  0  0  0  0
   -1.6100    1.1920   -0.0446 C   0  0  0  0  0  0  0  0  0  0  0  0
    2.6172   -1.1415    1.1305 C   0  0  0  0  0  0  0  0  0  0  0  0
    2.4556   -0.9656   -1.2648 C   0  0  0  0  0  0  0  0  0  0  0  0
    2.3192   -2.6232    1.0010 C   0  0  0  0  0  0  0  0  0  0  0  0
    2.1676   -2.4542   -1.3156 C   0  0  0  0  0  0  0  0  0  0  0  0
    1.9984   -0.4355    0.0158 N   0  0  0  0  0  0  0  0  0  0  0  0
   -0.3013    0.8617    0.0344 N   0  0  0  0  0  0  0  0  0  0  0  0
   -2.0293    2.3362   -0.1123 O   0  0  0  0  0  0  0  0  0  0  0  0
    2.7647   -3.1350   -0.2348 O   0  0  0  0  0  0  0  0  0  0  0  0
   -3.6171   -2.2623    0.1970 S   0  0  0  0  0  0  0  0  0  0  0  0
    4.1698    3.6199    0.3417 H   0  0  0  0  0  0  0  0  0  0  0  0
    2.0094    4.8296    0.3411 H   0  0  0  0  0  0  0  0  0  0  0  0
    4.1814    1.1478    0.1873 H   0  0  0  0  0  0  0  0  0  0  0  0
   -0.1049    3.6151    0.1966 H   0  0  0  0  0  0  0  0  0  0  0  0
   -5.6284   -1.1579   -0.6446 H   0  0  0  0  0  0  0  0  0  0  0  0
   -1.3357   -1.6474    0.7265 H   0  0  0  0  0  0  0  0  0  0  0  0
    2.1992   -0.7712    2.0681 H   0  0  0  0  0  0  0  0  0  0  0  0
    3.7052   -0.9850    1.1682 H   0  0  0  0  0  0  0  0  0  0  0  0
    3.5294   -0.7839   -1.4200 H   0  0  0  0  0  0  0  0  0  0  0  0
    1.9189   -0.4684   -2.0751 H   0  0  0  0  0  0  0  0  0  0  0  0
    2.8299   -3.1780    1.7891 H   0  0  0  0  0  0  0  0  0  0  0  0
    1.2380   -2.7866    1.1191 H   0  0  0  0  0  0  0  0  0  0  0  0
    1.0790   -2.6113   -1.3169 H   0  0  0  0  0  0  0  0  0  0  0  0
    2.5692   -2.8824   -2.2350 H   0  0  0  0  0  0  0  0  0  0  0  0
   -0.0321   -0.1168    0.0030 H   0  0  0  0  0  0  0  0  0  0  0  0
   -4.3283    1.1117   -0.8101 H   0  0  0  0  0  0  0  0  0  0  0  0
 13 15  1  0
 13 16  1  0
 19 15  1  0
 19 14  1  0
  3  1  2  0
  3  9  1  0
  1  2  1  0
 12 16  1  0
 12 14  1  0
 16  9  1  0
  9 10  2  0
  2  4  2  0
 18 11  2  0
 10  4  1  0
 10 17  1  0
 11 17  1  0
 11  8  1  0
  8  7  2  0
  8  5  1  0
  7 20  1  0
  5  6  2  0
 20  6  1  0
  1 21  1  0
  2 22  1  0
  3 23  1  0
  4 24  1  0
  5 36  1  0
  6 25  1  0
  7 26  1  0
 12 27  1  0
 12 28  1  0
 13 29  1  0
 13 30  1  0
 14 31  1  0
 14 32  1  0
 15 33  1  0
 15 34  1  0
 17 35  1  0
M  END
