
     RDKit          3D

 51 53  0  0  0  0  0  0  0  0999 V2000
   -5.8892    0.7053    1.4828 C   0  0  0  0  0  0  0  0  0  0  0  0
   -4.8210   -0.4994   -0.3020 C   0  0  0  0  0  0  0  0  0  0  0  0
   -3.8360   -1.5149   -0.8017 C   0  0  0  0  0  0  0  0  0  0  0  0
   -1.4747   -2.0380   -0.4942 C   0  0  0  0  0  0  0  0  0  0  0  0
    7.9740    2.5843    0.4036 O   0  0  0  0  0  0  0  0  0  0  0  0
   -6.6646    1.3446    0.5041 C   0  0  0  0  0  0  0  0  0  0  0  0
   -4.9645   -0.2204    1.0627 C   0  0  0  0  0  0  0  0  0  0  0  0
   -1.6831   -3.2156   -0.7635 O   0  0  0  0  0  0  0  0  0  0  0  0
    8.9182    0.4069    0.3573 C   0  0  0  0  0  0  0  0  0  0  0  0
    6.4005    0.8495    0.2347 C   0  0  0  0  0  0  0  0  0  0  0  0
    5.3097    1.7204    0.1982 C   0  0  0  0  0  0  0  0  0  0  0  0
    4.0140    1.2581    0.1017 C   0  0  0  0  0  0  0  0  0  0  0  0
    6.1257   -0.5191    0.1662 C   0  0  0  0  0  0  0  0  0  0  0  0
    4.8365   -0.9967    0.0741 C   0  0  0  0  0  0  0  0  0  0  0  0
    3.7330   -0.1218    0.0480 C   0  0  0  0  0  0  0  0  0  0  0  0
    2.4453   -0.6026    0.0023 N   0  0  0  0  0  0  0  0  0  0  0  0
    1.3275    0.3187    0.0426 C   0  0  0  0  0  0  0  0  0  0  0  0
    0.0695   -0.3742    0.5391 C   0  0  0  0  0  0  0  0  0  0  0  0
    2.1470   -1.8128   -0.7481 C   0  0  0  0  0  0  0  0  0  0  0  0
    0.8939   -2.4930   -0.2340 C   0  0  0  0  0  0  0  0  0  0  0  0
   -0.2153   -1.5623   -0.2405 N   0  0  0  0  0  0  0  0  0  0  0  0
   -2.4887   -1.1295   -0.4349 N   0  0  0  0  0  0  0  0  0  0  0  0
   -5.6351    0.2014   -1.1679 C   0  0  0  0  0  0  0  0  0  0  0  0
   -6.5400    1.1027   -0.7807 N   0  0  0  0  0  0  0  0  0  0  0  0
   -7.5622    2.2366    0.9279 O   0  0  0  0  0  0  0  0  0  0  0  0
   -8.3586    2.8967   -0.0449 C   0  0  0  0  0  0  0  0  0  0  0  0
   -6.0234    0.9375    2.5307 H   0  0  0  0  0  0  0  0  0  0  0  0
   -4.0518   -2.4875   -0.3589 H   0  0  0  0  0  0  0  0  0  0  0  0
   -3.9477   -1.6295   -1.8854 H   0  0  0  0  0  0  0  0  0  0  0  0
   -4.3480   -0.7339    1.7904 H   0  0  0  0  0  0  0  0  0  0  0  0
    9.8639    0.9352    0.4544 H   0  0  0  0  0  0  0  0  0  0  0  0
    8.8217   -0.2949    1.1870 H   0  0  0  0  0  0  0  0  0  0  0  0
    8.9420   -0.1835   -0.5601 H   0  0  0  0  0  0  0  0  0  0  0  0
    5.4747    2.7896    0.2307 H   0  0  0  0  0  0  0  0  0  0  0  0
    3.2198    1.9882    0.0483 H   0  0  0  0  0  0  0  0  0  0  0  0
    6.9276   -1.2449    0.1930 H   0  0  0  0  0  0  0  0  0  0  0  0
    4.6949   -2.0677    0.0496 H   0  0  0  0  0  0  0  0  0  0  0  0
    1.5383    1.1267    0.7409 H   0  0  0  0  0  0  0  0  0  0  0  0
    1.1395    0.7654   -0.9433 H   0  0  0  0  0  0  0  0  0  0  0  0
    0.1996   -0.6451    1.5939 H   0  0  0  0  0  0  0  0  0  0  0  0
   -0.7420    0.3466    0.4937 H   0  0  0  0  0  0  0  0  0  0  0  0
    2.0204   -1.5737   -1.8125 H   0  0  0  0  0  0  0  0  0  0  0  0
    2.9642   -2.5235   -0.6712 H   0  0  0  0  0  0  0  0  0  0  0  0
    0.6696   -3.3408   -0.8755 H   0  0  0  0  0  0  0  0  0  0  0  0
    1.0709   -2.8765    0.7786 H   0  0  0  0  0  0  0  0  0  0  0  0
   -2.2735   -0.1542   -0.5643 H   0  0  0  0  0  0  0  0  0  0  0  0
   -5.5627    0.0317   -2.2378 H   0  0  0  0  0  0  0  0  0  0  0  0
   -9.0236    3.5526    0.5106 H   0  0  0  0  0  0  0  0  0  0  0  0
   -7.7525    3.4933   -0.7275 H   0  0  0  0  0  0  0  0  0  0  0  0
   -8.9524    2.1937   -0.6301 H   0  0  0  0  0  0  0  0  0  0  0  0
    7.7716    1.3850    0.3377 C   0  0  0  0  0  0  0  0  0  0  0  0
  1  7  2  0
  1  6  1  0
  7  2  1  0
 25  6  1  0
 25 26  1  0
  6 24  2  0
  2  3  1  0
  2 23  2  0
  3 22  1  0
  8  4  2  0
 24 23  1  0
  4 22  1  0
  4 21  1  0
 21 20  1  0
 21 18  1  0
 20 19  1  0
 18 17  1  0
 19 16  1  0
 17 16  1  0
 16 15  1  0
 15 14  2  0
 15 12  1  0
 14 13  1  0
 12 11  2  0
 13 10  2  0
 11 10  1  0
 10 51  1  0
 51  5  2  0
 51  9  1  0
  1 27  1  0
  3 28  1  0
  3 29  1  0
  7 30  1  0
  9 31  1  0
  9 32  1  0
  9 33  1  0
 11 34  1  0
 12 35  1  0
 13 36  1  0
 14 37  1  0
 17 38  1  0
 17 39  1  0
 18 40  1  0
 18 41  1  0
 19 42  1  0
 19 43  1  0
 20 44  1  0
 20 45  1  0
 22 46  1  0
 23 47  1  0
 26 48  1  0
 26 49  1  0
 26 50  1  0
M  END
