
     RDKit          3D

 24 25  0  0  0  0  0  0  0  0999 V2000
    0.7351    0.6901   -0.0017 C   0  0  0  0  0  0  0  0  0  0  0  0
    1.9471    1.3770   -0.0119 C   0  0  0  0  0  0  0  0  0  0  0  0
    3.1517    0.6947   -0.0136 C   0  0  0  0  0  0  0  0  0  0  0  0
    3.1593   -0.6901   -0.0037 C   0  0  0  0  0  0  0  0  0  0  0  0
    1.9622   -1.3858    0.0079 C   0  0  0  0  0  0  0  0  0  0  0  0
    0.7427   -0.7121    0.0083 C   0  0  0  0  0  0  0  0  0  0  0  0
   -1.6624   -0.7842    0.0234 C   0  0  0  0  0  0  0  0  0  0  0  0
   -1.6707    0.7360    0.0118 C   0  0  0  0  0  0  0  0  0  0  0  0
   -0.4783    1.3780    0.0001 N   0  0  0  0  0  0  0  0  0  0  0  0
   -0.4629   -1.4131    0.0200 N   0  0  0  0  0  0  0  0  0  0  0  0
   -2.7312   -1.3582    0.0342 O   0  0  0  0  0  0  0  0  0  0  0  0
   -2.7459    1.2984    0.0134 O   0  0  0  0  0  0  0  0  0  0  0  0
    1.9666    2.4564   -0.0190 H   0  0  0  0  0  0  0  0  0  0  0  0
    4.0776    1.2532   -0.0223 H   0  0  0  0  0  0  0  0  0  0  0  0
    4.0913   -1.2385   -0.0054 H   0  0  0  0  0  0  0  0  0  0  0  0
    1.9941   -2.4648    0.0186 H   0  0  0  0  0  0  0  0  0  0  0  0
   -1.4497   -3.2445    0.0336 H   0  0  0  0  0  0  0  0  0  0  0  0
    0.0764   -3.2436   -0.8554 H   0  0  0  0  0  0  0  0  0  0  0  0
    0.0780   -3.2315    0.9197 H   0  0  0  0  0  0  0  0  0  0  0  0
   -1.4853    3.1984   -0.0141 H   0  0  0  0  0  0  0  0  0  0  0  0
    0.0427    3.2155    0.8718 H   0  0  0  0  0  0  0  0  0  0  0  0
    0.0401    3.2009   -0.9031 H   0  0  0  0  0  0  0  0  0  0  0  0
   -0.4345   -2.8681    0.0300 C   0  0  0  0  0  0  0  0  0  0  0  0
   -0.4661    2.8332   -0.0120 C   0  0  0  0  0  0  0  0  0  0  0  0
 12  8  2  0
 11  7  2  0
  8  7  1  0
  8  9  1  0
  7 10  1  0
 24  9  1  0
  9  1  1  0
 10 23  1  0
 10  6  1  0
  1  6  1  0
  1  2  2  0
  6  5  2  0
  2  3  1  0
  5  4  1  0
  3  4  2  0
  2 13  1  0
  3 14  1  0
  4 15  1  0
  5 16  1  0
 23 17  1  0
 23 18  1  0
 23 19  1  0
 24 20  1  0
 24 21  1  0
 24 22  1  0
M  END
