
     RDKit          3D

 19 18  0  0  0  0  0  0  0  0999 V2000
   -1.8912   -0.0742   -1.0393 N   0  0  0  0  0  0  0  0  0  0  0  0
   -0.5160    0.3654   -0.9784 C   0  0  1  0  0  0  0  0  0  0  0  0
    0.3328   -0.2030    0.1820 C   0  0  0  0  0  0  0  0  0  0  0  0
   -0.3415    0.1967    1.3820 O   0  0  0  0  0  0  0  0  0  0  0  0
    0.2205    0.0006   -2.2570 C   0  0  0  0  0  0  0  0  0  0  0  0
    0.1855   -1.0513   -2.8974 O   0  0  0  0  0  0  0  0  0  0  0  0
   -0.4508    0.4659    3.7436 C   0  0  0  0  0  0  0  0  0  0  0  0
    0.3027   -0.0515    2.5694 C   0  0  0  0  0  0  0  0  0  0  0  0
    1.3002   -0.7727    2.5450 O   0  0  0  0  0  0  0  0  0  0  0  0
    1.0161    0.9993   -2.7252 O   0  0  0  0  0  0  0  0  0  0  0  0
   -1.9501   -1.0486   -1.2654 H   0  0  0  0  0  0  0  0  0  0  0  0
   -2.3387    0.0991   -0.1597 H   0  0  0  0  0  0  0  0  0  0  0  0
   -0.5301    1.4940   -0.8793 H   0  0  0  0  0  0  0  0  0  0  0  0
    1.3672    0.2287    0.1640 H   0  0  0  0  0  0  0  0  0  0  0  0
    0.3891   -1.3212    0.1542 H   0  0  0  0  0  0  0  0  0  0  0  0
    0.1317    0.2614    4.6744 H   0  0  0  0  0  0  0  0  0  0  0  0
   -0.6121    1.5657    3.6336 H   0  0  0  0  0  0  0  0  0  0  0  0
   -1.4455   -0.0388    3.8038 H   0  0  0  0  0  0  0  0  0  0  0  0
    1.4591    0.7096   -3.5404 H   0  0  0  0  0  0  0  0  0  0  0  0
  1  2  1  0
  1 11  1  0
  1 12  1  0
  2  3  1  0
  2  5  1  0
  2 13  1  1
  3  4  1  0
  3 14  1  0
  3 15  1  0
  4  8  1  0
  5  6  2  0
  5 10  1  0
  7  8  1  0
  7 16  1  0
  7 17  1  0
  7 18  1  0
  8  9  2  0
 10 19  1  0
M  END
