
     RDKit          3D

 73 75  0  0  0  0  0  0  0  0999 V2000
   -0.0389    0.7078    4.2000 C   0  0  0  0  0  0  0  0  0  0  0  0
   -0.8677    0.0206    5.2773 C   0  0  0  0  0  0  0  0  0  0  0  0
   -1.1162    0.9181    6.4907 C   0  0  0  0  0  0  0  0  0  0  0  0
   -1.9523    0.2405    7.5398 C   0  0  0  0  0  0  0  0  0  0  0  0
   -1.3636   -0.4219    8.6147 C   0  0  0  0  0  0  0  0  0  0  0  0
   -3.3425    0.2242    7.4348 C   0  0  0  0  0  0  0  0  0  0  0  0
   -2.1399   -1.0812    9.5597 C   0  0  0  0  0  0  0  0  0  0  0  0
   -4.1233   -0.4332    8.3755 C   0  0  0  0  0  0  0  0  0  0  0  0
   -3.5234   -1.0897    9.4432 C   0  0  0  0  0  0  0  0  0  0  0  0
    2.0459    0.2940   -0.4059 C   0  0  0  0  0  0  0  0  0  0  0  0
    1.8342    1.4547   -0.7283 O   0  0  0  0  0  0  0  0  0  0  0  0
    1.2635   -0.3840    0.6985 C   0  0  0  0  0  0  0  0  0  0  0  0
    1.0284    0.5166    1.9049 C   0  0  0  0  0  0  0  0  0  0  0  0
    0.2044   -0.1752    2.9831 C   0  0  0  0  0  0  0  0  0  0  0  0
    2.9754   -0.4810   -0.9955 N   0  0  0  0  0  0  0  0  0  0  0  0
    3.7538   -0.1117   -2.1574 C   0  0  2  0  0  0  0  0  0  0  0  0
    3.3125   -0.9324   -3.3788 C   0  0  0  0  0  0  0  0  0  0  0  0
    1.8617   -0.7274   -3.7027 C   0  0  0  0  0  0  0  0  0  0  0  0
    1.4543    0.3240   -4.5235 C   0  0  0  0  0  0  0  0  0  0  0  0
    0.1178    0.5650   -4.7815 C   0  0  0  0  0  0  0  0  0  0  0  0
    0.8729   -1.5317   -3.1527 C   0  0  0  0  0  0  0  0  0  0  0  0
   -0.4782   -1.3043   -3.3935 C   0  0  0  0  0  0  0  0  0  0  0  0
   -0.8640   -0.2476   -4.2123 C   0  0  0  0  0  0  0  0  0  0  0  0
   -2.1440    0.0603   -4.5161 O   0  0  0  0  0  0  0  0  0  0  0  0
    5.2474   -0.2785   -1.8879 C   0  0  0  0  0  0  0  0  0  0  0  0
    5.7211    0.6010   -0.7438 C   0  0  0  0  0  0  0  0  0  0  0  0
    7.1996    0.5145   -0.4908 C   0  0  0  0  0  0  0  0  0  0  0  0
    7.9697   -0.1962   -1.0878 O   0  0  0  0  0  0  0  0  0  0  0  0
    7.5782    1.3264    0.4924 O   0  0  0  0  0  0  0  0  0  0  0  0
   -3.1836   -0.7008   -3.9172 C   0  0  0  0  0  0  0  0  0  0  0  0
   -4.4837   -0.1503   -4.4199 C   0  0  0  0  0  0  0  0  0  0  0  0
   -5.1014   -0.7078   -5.5350 C   0  0  0  0  0  0  0  0  0  0  0  0
   -5.0689    0.9517   -3.8021 C   0  0  0  0  0  0  0  0  0  0  0  0
   -6.2878   -0.1769   -6.0240 C   0  0  0  0  0  0  0  0  0  0  0  0
   -6.2541    1.4857   -4.2882 C   0  0  0  0  0  0  0  0  0  0  0  0
   -6.8652    0.9219   -5.4016 C   0  0  0  0  0  0  0  0  0  0  0  0
    0.9227    1.0181    4.6234 H   0  0  0  0  0  0  0  0  0  0  0  0
   -0.5444    1.6284    3.8882 H   0  0  0  0  0  0  0  0  0  0  0  0
   -1.8286   -0.2926    4.8558 H   0  0  0  0  0  0  0  0  0  0  0  0
   -0.3628   -0.8953    5.6005 H   0  0  0  0  0  0  0  0  0  0  0  0
   -0.1558    1.2203    6.9171 H   0  0  0  0  0  0  0  0  0  0  0  0
   -1.6134    1.8350    6.1608 H   0  0  0  0  0  0  0  0  0  0  0  0
   -0.2843   -0.4179    8.7178 H   0  0  0  0  0  0  0  0  0  0  0  0
   -3.8197    0.7359    6.6067 H   0  0  0  0  0  0  0  0  0  0  0  0
   -1.6624   -1.5850   10.3905 H   0  0  0  0  0  0  0  0  0  0  0  0
   -5.2015   -0.4301    8.2768 H   0  0  0  0  0  0  0  0  0  0  0  0
   -4.1297   -1.5999   10.1806 H   0  0  0  0  0  0  0  0  0  0  0  0
    0.2985   -0.6834    0.2744 H   0  0  0  0  0  0  0  0  0  0  0  0
    1.7566   -1.3081    1.0110 H   0  0  0  0  0  0  0  0  0  0  0  0
    1.9904    0.8262    2.3254 H   0  0  0  0  0  0  0  0  0  0  0  0
    0.5201    1.4304    1.5892 H   0  0  0  0  0  0  0  0  0  0  0  0
   -0.7575   -0.4863    2.5607 H   0  0  0  0  0  0  0  0  0  0  0  0
    0.7105   -1.0952    3.2949 H   0  0  0  0  0  0  0  0  0  0  0  0
    3.0716   -1.4304   -0.6692 H   0  0  0  0  0  0  0  0  0  0  0  0
    3.5474    0.9414   -2.3563 H   0  0  0  0  0  0  0  0  0  0  0  0
    3.9341   -0.6434   -4.2300 H   0  0  0  0  0  0  0  0  0  0  0  0
    3.5143   -1.9908   -3.1868 H   0  0  0  0  0  0  0  0  0  0  0  0
    2.1984    0.9703   -4.9751 H   0  0  0  0  0  0  0  0  0  0  0  0
   -0.1752    1.3865   -5.4238 H   0  0  0  0  0  0  0  0  0  0  0  0
    1.1498   -2.3659   -2.5185 H   0  0  0  0  0  0  0  0  0  0  0  0
   -1.2052   -1.9612   -2.9351 H   0  0  0  0  0  0  0  0  0  0  0  0
    5.7887   -0.0279   -2.8027 H   0  0  0  0  0  0  0  0  0  0  0  0
    5.4661   -1.3288   -1.6739 H   0  0  0  0  0  0  0  0  0  0  0  0
    5.2072    0.3368    0.1853 H   0  0  0  0  0  0  0  0  0  0  0  0
    5.4644    1.6484   -0.9317 H   0  0  0  0  0  0  0  0  0  0  0  0
    8.5320    1.2446    0.6402 H   0  0  0  0  0  0  0  0  0  0  0  0
   -3.0885   -1.7584   -4.1844 H   0  0  0  0  0  0  0  0  0  0  0  0
   -3.1271   -0.6265   -2.8258 H   0  0  0  0  0  0  0  0  0  0  0  0
   -4.6557   -1.5663   -6.0237 H   0  0  0  0  0  0  0  0  0  0  0  0
   -4.5974    1.3920   -2.9313 H   0  0  0  0  0  0  0  0  0  0  0  0
   -6.7623   -0.6224   -6.8888 H   0  0  0  0  0  0  0  0  0  0  0  0
   -6.7028    2.3391   -3.7966 H   0  0  0  0  0  0  0  0  0  0  0  0
   -7.7913    1.3356   -5.7793 H   0  0  0  0  0  0  0  0  0  0  0  0
  1  2  1  0
  1 14  1  0
  1 37  1  0
  1 38  1  0
  2  3  1  0
  2 39  1  0
  2 40  1  0
  3  4  1  0
  3 41  1  0
  3 42  1  0
  4  5  2  0
  4  6  1  0
  5  7  1  0
  5 43  1  0
  6  8  2  0
  6 44  1  0
  7  9  2  0
  7 45  1  0
  8  9  1  0
  8 46  1  0
  9 47  1  0
 10 11  2  0
 10 12  1  0
 10 15  1  0
 12 13  1  0
 12 48  1  0
 12 49  1  0
 13 14  1  0
 13 50  1  0
 13 51  1  0
 14 52  1  0
 14 53  1  0
 15 16  1  0
 15 54  1  0
 16 17  1  0
 16 25  1  0
 16 55  1  6
 17 18  1  0
 17 56  1  0
 17 57  1  0
 18 19  2  0
 18 21  1  0
 19 20  1  0
 19 58  1  0
 20 23  2  0
 20 59  1  0
 21 22  2  0
 21 60  1  0
 22 23  1  0
 22 61  1  0
 23 24  1  0
 24 30  1  0
 25 26  1  0
 25 62  1  0
 25 63  1  0
 26 27  1  0
 26 64  1  0
 26 65  1  0
 27 28  2  0
 27 29  1  0
 29 66  1  0
 30 31  1  0
 30 67  1  0
 30 68  1  0
 31 32  2  0
 31 33  1  0
 32 34  1  0
 32 69  1  0
 33 35  2  0
 33 70  1  0
 34 36  2  0
 34 71  1  0
 35 36  1  0
 35 72  1  0
 36 73  1  0
M  END
