
     RDKit          3D

 50 54  0  0  0  0  0  0  0  0999 V2000
   -7.7416   -2.4897   -0.4932 O   0  0  0  0  0  0  0  0  0  0  0  0
   -6.4194   -2.4836   -0.4863 C   0  0  0  0  0  0  0  0  0  0  0  0
   -5.7461   -3.4706   -0.6713 O   0  0  0  0  0  0  0  0  0  0  0  0
   -5.8406   -1.1388   -0.2307 C   0  0  0  0  0  0  0  0  0  0  0  0
   -6.6905   -0.1229   -0.0338 N   0  0  0  0  0  0  0  0  0  0  0  0
   -6.2247    1.0852    0.1955 C   0  0  0  0  0  0  0  0  0  0  0  0
   -4.8514    1.3226    0.2357 C   0  0  0  0  0  0  0  0  0  0  0  0
   -4.1550    2.4732    0.4540 N   0  0  0  0  0  0  0  0  0  0  0  0
   -2.8158    2.1985    0.3986 C   0  0  0  0  0  0  0  0  0  0  0  0
   -4.4600   -1.0049   -0.2106 C   0  0  0  0  0  0  0  0  0  0  0  0
   -3.9484    0.2610    0.0285 C   0  0  0  0  0  0  0  0  0  0  0  0
   -2.6327    0.8267    0.1344 C   0  0  0  0  0  0  0  0  0  0  0  0
   -1.3348    0.3538    0.0291 C   0  0  0  0  0  0  0  0  0  0  0  0
   -0.2889    1.2567    0.2020 C   0  0  0  0  0  0  0  0  0  0  0  0
   -0.6184    2.5968    0.4752 C   0  0  0  0  0  0  0  0  0  0  0  0
   -1.8481    3.0788    0.5697 N   0  0  0  0  0  0  0  0  0  0  0  0
    1.1204    0.8390    0.1194 C   0  0  0  0  0  0  0  0  0  0  0  0
    2.1022    1.6745   -0.4182 C   0  0  0  0  0  0  0  0  0  0  0  0
    3.4280    1.2938   -0.4808 C   0  0  0  0  0  0  0  0  0  0  0  0
    3.8541    0.0394   -0.0108 C   0  0  0  0  0  0  0  0  0  0  0  0
    2.8620   -0.8092    0.5036 C   0  0  0  0  0  0  0  0  0  0  0  0
    1.5375   -0.4094    0.5741 C   0  0  0  0  0  0  0  0  0  0  0  0
    5.1959   -0.3104   -0.0251 N   0  0  0  0  0  0  0  0  0  0  0  0
    6.0101    0.0812   -1.1666 C   0  0  0  0  0  0  0  0  0  0  0  0
    7.4852    0.0295   -0.8229 C   0  0  0  0  0  0  0  0  0  0  0  0
    7.8592   -1.2893   -0.3606 N   0  0  0  0  0  0  0  0  0  0  0  0
    9.2768   -1.3848   -0.0979 C   0  0  0  0  0  0  0  0  0  0  0  0
    7.0747   -1.6303    0.8062 C   0  0  0  0  0  0  0  0  0  0  0  0
    5.5881   -1.6026    0.5016 C   0  0  0  0  0  0  0  0  0  0  0  0
   -8.0571   -3.3882   -0.6710 H   0  0  0  0  0  0  0  0  0  0  0  0
   -6.9418    1.8834    0.3509 H   0  0  0  0  0  0  0  0  0  0  0  0
   -4.5513    3.3824    0.6338 H   0  0  0  0  0  0  0  0  0  0  0  0
   -3.8141   -1.8564   -0.3758 H   0  0  0  0  0  0  0  0  0  0  0  0
   -1.1395   -0.6873   -0.1974 H   0  0  0  0  0  0  0  0  0  0  0  0
    0.1777    3.3140    0.6424 H   0  0  0  0  0  0  0  0  0  0  0  0
    1.8313    2.6460   -0.8133 H   0  0  0  0  0  0  0  0  0  0  0  0
    4.1378    1.9970   -0.8940 H   0  0  0  0  0  0  0  0  0  0  0  0
    3.1082   -1.7992    0.8594 H   0  0  0  0  0  0  0  0  0  0  0  0
    0.8188   -1.0966    1.0049 H   0  0  0  0  0  0  0  0  0  0  0  0
    5.8105   -0.5789   -2.0226 H   0  0  0  0  0  0  0  0  0  0  0  0
    5.7731    1.0956   -1.4769 H   0  0  0  0  0  0  0  0  0  0  0  0
    8.0589    0.2769   -1.7192 H   0  0  0  0  0  0  0  0  0  0  0  0
    7.7077    0.8048   -0.0687 H   0  0  0  0  0  0  0  0  0  0  0  0
    9.6191   -0.7006    0.6943 H   0  0  0  0  0  0  0  0  0  0  0  0
    9.5319   -2.4005    0.2077 H   0  0  0  0  0  0  0  0  0  0  0  0
    9.8413   -1.1536   -1.0023 H   0  0  0  0  0  0  0  0  0  0  0  0
    7.3390   -2.6366    1.1399 H   0  0  0  0  0  0  0  0  0  0  0  0
    7.2796   -0.9441    1.6466 H   0  0  0  0  0  0  0  0  0  0  0  0
    5.0607   -1.7991    1.4348 H   0  0  0  0  0  0  0  0  0  0  0  0
    5.3389   -2.4143   -0.1980 H   0  0  0  0  0  0  0  0  0  0  0  0
 16 15  2  0
 16  9  1  0
 22 21  2  0
 22 17  1  0
 15 14  1  0
 21 20  1  0
 24 25  1  0
 24 23  1  0
  9  8  1  0
  9 12  2  0
  8  7  1  0
 14 17  1  0
 14 13  2  0
 25 26  1  0
 17 18  2  0
 20 23  1  0
 20 19  2  0
 26 27  1  0
 26 28  1  0
 23 29  1  0
 12 13  1  0
 12 11  1  0
  7  6  2  0
  7 11  1  0
 29 28  1  0
 18 19  1  0
  6  5  1  0
 11 10  2  0
  5  4  2  0
 10  4  1  0
  4  2  1  0
  2  3  2  0
  2  1  1  0
  1 30  1  0
  6 31  1  0
  8 32  1  0
 10 33  1  0
 13 34  1  0
 15 35  1  0
 18 36  1  0
 19 37  1  0
 21 38  1  0
 22 39  1  0
 24 40  1  0
 24 41  1  0
 25 42  1  0
 25 43  1  0
 27 44  1  0
 27 45  1  0
 27 46  1  0
 28 47  1  0
 28 48  1  0
 29 49  1  0
 29 50  1  0
M  END
