
     RDKit          3D

 20 21  0  0  0  0  0  0  0  0999 V2000
    0.7861    0.8032    0.0738 C   0  0  0  0  0  0  0  0  0  0  0  0
    1.4832   -1.5051    0.1876 C   0  0  0  0  0  0  0  0  0  0  0  0
    1.8069   -0.1438    0.1265 C   0  0  0  0  0  0  0  0  0  0  0  0
   -2.8984   -0.1975    0.0111 C   0  0  0  0  0  0  0  0  0  0  0  0
    3.2130    0.3558    0.1483 C   0  0  0  0  0  0  0  0  0  0  0  0
   -4.2339   -0.1552    0.0021 N   0  0  0  0  0  0  0  0  0  0  0  0
   -0.8597   -1.0013    0.1082 C   0  0  0  0  0  0  0  0  0  0  0  0
   -0.5215    0.3639    0.0546 C   0  0  0  0  0  0  0  0  0  0  0  0
    0.1701   -1.9376    0.1829 C   0  0  0  0  0  0  0  0  0  0  0  0
   -2.1968   -1.2856    0.0830 N   0  0  0  0  0  0  0  0  0  0  0  0
   -1.9812    1.3072   -0.0318 S   0  0  0  0  0  0  0  0  0  0  0  0
    3.4705    1.5063    0.4796 O   0  0  0  0  0  0  0  0  0  0  0  0
    4.1666   -0.5224   -0.2052 N   0  0  0  0  0  0  0  0  0  0  0  0
    1.0189    1.8591    0.0381 H   0  0  0  0  0  0  0  0  0  0  0  0
    2.2619   -2.2525    0.2663 H   0  0  0  0  0  0  0  0  0  0  0  0
   -4.7250    0.6871   -0.2434 H   0  0  0  0  0  0  0  0  0  0  0  0
   -4.7339   -1.0192   -0.1311 H   0  0  0  0  0  0  0  0  0  0  0  0
   -0.0620   -2.9928    0.2422 H   0  0  0  0  0  0  0  0  0  0  0  0
    3.9557   -1.3961   -0.6543 H   0  0  0  0  0  0  0  0  0  0  0  0
    5.1254   -0.2166   -0.2437 H   0  0  0  0  0  0  0  0  0  0  0  0
 13  5  1  0
  2  9  2  0
  2  3  1  0
  9  7  1  0
  5  3  1  0
  5 12  2  0
  3  1  2  0
  7 10  1  0
  7  8  2  0
 10  4  2  0
  1  8  1  0
  8 11  1  0
  4  6  1  0
  4 11  1  0
  1 14  1  0
  2 15  1  0
  6 16  1  0
  6 17  1  0
  9 18  1  0
 13 19  1  0
 13 20  1  0
M  END
