
     RDKit          3D

 31 32  0  0  0  0  0  0  0  0999 V2000
   -1.7146   -1.2048    0.4357 C   0  0  0  0  0  0  0  0  0  0  0  0
    0.4014   -0.0422    0.2421 N   0  0  0  0  0  0  0  0  0  0  0  0
   -5.5316   -0.0441    0.2447 Cl  0  0  0  0  0  0  0  0  0  0  0  0
   -3.0965   -1.2148    0.4416 C   0  0  0  0  0  0  0  0  0  0  0  0
    3.2212   -0.0011   -0.0983 N   0  0  0  0  0  0  0  0  0  0  0  0
   -3.7950   -0.0349    0.2289 C   0  0  0  0  0  0  0  0  0  0  0  0
    5.1879    1.1964   -0.0558 N   0  0  0  0  0  0  0  0  0  0  0  0
   -3.1110    1.1455    0.0067 C   0  0  0  0  0  0  0  0  0  0  0  0
    5.2184   -1.0882   -0.6297 N   0  0  0  0  0  0  0  0  0  0  0  0
   -1.7228    1.1478   -0.0128 C   0  0  0  0  0  0  0  0  0  0  0  0
   -0.9904   -0.0243    0.2076 C   0  0  0  0  0  0  0  0  0  0  0  0
    1.1096    1.2176    0.1522 C   0  0  0  0  0  0  0  0  0  0  0  0
    2.5434    1.0575    0.6215 C   0  0  0  0  0  0  0  0  0  0  0  0
    2.5086   -1.2602   -0.0551 C   0  0  0  0  0  0  0  0  0  0  0  0
    1.0781   -1.0762   -0.5246 C   0  0  0  0  0  0  0  0  0  0  0  0
    4.5911    0.0722   -0.2254 C   0  0  0  0  0  0  0  0  0  0  0  0
   -1.1967   -2.1330    0.6376 H   0  0  0  0  0  0  0  0  0  0  0  0
   -3.6237   -2.1409    0.6281 H   0  0  0  0  0  0  0  0  0  0  0  0
    6.1853    1.0936   -0.1982 H   0  0  0  0  0  0  0  0  0  0  0  0
   -3.6474    2.0684   -0.1692 H   0  0  0  0  0  0  0  0  0  0  0  0
    4.8750   -1.9646   -0.2715 H   0  0  0  0  0  0  0  0  0  0  0  0
    6.2235   -1.0482   -0.5753 H   0  0  0  0  0  0  0  0  0  0  0  0
   -1.2240    2.0846   -0.2176 H   0  0  0  0  0  0  0  0  0  0  0  0
    1.0991    1.6173   -0.8730 H   0  0  0  0  0  0  0  0  0  0  0  0
    0.6342    1.9548    0.7997 H   0  0  0  0  0  0  0  0  0  0  0  0
    2.5486    0.8517    1.7006 H   0  0  0  0  0  0  0  0  0  0  0  0
    3.0736    1.9921    0.4626 H   0  0  0  0  0  0  0  0  0  0  0  0
    2.9656   -1.9872   -0.7237 H   0  0  0  0  0  0  0  0  0  0  0  0
    2.5057   -1.6847    0.9579 H   0  0  0  0  0  0  0  0  0  0  0  0
    0.5665   -2.0299   -0.4169 H   0  0  0  0  0  0  0  0  0  0  0  0
    1.0777   -0.8227   -1.5949 H   0  0  0  0  0  0  0  0  0  0  0  0
  1  4  2  0
  1 11  1  0
  2 11  1  0
  2 12  1  0
  2 15  1  0
  3  6  1  0
  4  6  1  0
  5 13  1  0
  5 14  1  0
  5 16  1  0
  6  8  2  0
  7 16  2  0
  8 10  1  0
  9 16  1  0
 10 11  2  0
 12 13  1  0
 14 15  1  0
  1 17  1  0
  4 18  1  0
  7 19  1  0
  8 20  1  0
  9 21  1  0
  9 22  1  0
 10 23  1  0
 12 24  1  0
 12 25  1  0
 13 26  1  0
 13 27  1  0
 14 28  1  0
 14 29  1  0
 15 30  1  0
 15 31  1  0
M  END
