
     RDKit          3D

 23 23  0  0  0  0  0  0  0  0999 V2000
    3.7489   -0.2688   -0.1210 C   0  0  0  0  0  0  0  0  0  0  0  0
    2.4067   -0.7130   -0.1643 O   0  0  0  0  0  0  0  0  0  0  0  0
    1.4288    0.1942   -0.0141 C   0  0  0  0  0  0  0  0  0  0  0  0
    0.1161   -0.3097   -0.0842 C   0  0  0  0  0  0  0  0  0  0  0  0
   -0.0633   -1.6277   -0.3268 O   0  0  0  0  0  0  0  0  0  0  0  0
    0.0708   -2.4813    0.8051 C   0  0  0  0  0  0  0  0  0  0  0  0
   -0.9653    0.5639    0.0218 C   0  0  0  0  0  0  0  0  0  0  0  0
   -0.7402    1.9341    0.1961 C   0  0  0  0  0  0  0  0  0  0  0  0
    0.5491    2.4132    0.2942 C   0  0  0  0  0  0  0  0  0  0  0  0
    1.6358    1.5524    0.1861 C   0  0  0  0  0  0  0  0  0  0  0  0
   -2.3588    0.0480   -0.0384 C   0  0  0  0  0  0  0  0  0  0  0  0
   -2.7134   -1.0495    0.3131 O   0  0  0  0  0  0  0  0  0  0  0  0
    3.9617    0.4590   -0.9080 H   0  0  0  0  0  0  0  0  0  0  0  0
    4.0009    0.1735    0.8462 H   0  0  0  0  0  0  0  0  0  0  0  0
    4.3686   -1.1476   -0.2784 H   0  0  0  0  0  0  0  0  0  0  0  0
   -0.1329   -3.4929    0.4602 H   0  0  0  0  0  0  0  0  0  0  0  0
    1.0786   -2.4504    1.2225 H   0  0  0  0  0  0  0  0  0  0  0  0
   -0.6484   -2.2237    1.5838 H   0  0  0  0  0  0  0  0  0  0  0  0
   -1.5717    2.6191    0.2769 H   0  0  0  0  0  0  0  0  0  0  0  0
    0.7235    3.4696    0.4464 H   0  0  0  0  0  0  0  0  0  0  0  0
    2.6363    1.9578    0.2539 H   0  0  0  0  0  0  0  0  0  0  0  0
   -3.2011    0.9575   -0.5168 O   0  0  0  0  0  0  0  0  0  0  0  0
   -4.1051    0.6092   -0.4930 H   0  0  0  0  0  0  0  0  0  0  0  0
 12 11  2  0
 11  7  1  0
  8  7  2  0
  8  9  1  0
  7  4  1  0
  9 10  2  0
  4  5  1  0
  4  3  2  0
  5  6  1  0
 10  3  1  0
  3  2  1  0
  2  1  1  0
  1 13  1  0
  1 14  1  0
  1 15  1  0
  6 16  1  0
  6 17  1  0
  6 18  1  0
  8 19  1  0
  9 20  1  0
 10 21  1  0
 11 22  1  0
 22 23  1  0
M  END
