
     RDKit          3D

 14 13  0  0  0  0  0  0  0  0999 V2000
    2.5152   -0.3647    0.0301 C   0  0  0  0  0  0  0  0  0  0  0  0
    1.2671    0.5069    0.0434 C   0  0  0  0  0  0  0  0  0  0  0  0
   -0.0033   -0.3257   -0.0468 C   0  0  0  0  0  0  0  0  0  0  0  0
   -1.1676    0.5428   -0.0213 N   0  0  0  0  0  0  0  0  0  0  0  0
   -2.3237   -0.2299   -0.2639 O   0  0  0  0  0  0  0  0  0  0  0  0
    3.4205    0.2393    0.0892 H   0  0  0  0  0  0  0  0  0  0  0  0
    2.5223   -1.0561    0.8742 H   0  0  0  0  0  0  0  0  0  0  0  0
    2.5731   -0.9573   -0.8846 H   0  0  0  0  0  0  0  0  0  0  0  0
    1.2423    1.1114    0.9538 H   0  0  0  0  0  0  0  0  0  0  0  0
    1.3046    1.2088   -0.7956 H   0  0  0  0  0  0  0  0  0  0  0  0
    0.0323   -0.9516   -0.9501 H   0  0  0  0  0  0  0  0  0  0  0  0
   -0.0586   -1.0020    0.8111 H   0  0  0  0  0  0  0  0  0  0  0  0
   -1.1112    1.1692   -0.8183 H   0  0  0  0  0  0  0  0  0  0  0  0
   -2.8517   -0.1139    0.5314 H   0  0  0  0  0  0  0  0  0  0  0  0
  5  4  1  0
  4  3  1  0
  3  2  1  0
  1  2  1  0
  1  6  1  0
  1  7  1  0
  1  8  1  0
  2  9  1  0
  2 10  1  0
  3 11  1  0
  3 12  1  0
  4 13  1  0
  5 14  1  0
M  END
