
     RDKit          3D

 35 37  0  0  0  0  0  0  0  0999 V2000
    1.7667    3.1313    0.0167 C   0  0  0  0  0  0  0  0  0  0  0  0
    3.0032    2.6787   -0.4318 C   0  0  0  0  0  0  0  0  0  0  0  0
    3.2389    1.3215   -0.5573 C   0  0  0  0  0  0  0  0  0  0  0  0
   -0.7191   -0.4742   -1.8259 C   0  0  0  0  0  0  0  0  0  0  0  0
   -2.8414   -0.4560   -1.7090 C   0  0  0  0  0  0  0  0  0  0  0  0
   -2.3886   -0.2385   -0.4394 C   0  0  0  0  0  0  0  0  0  0  0  0
   -3.1381    0.0260    0.8105 C   0  0  1  0  0  0  0  0  0  0  0  0
   -0.0679   -0.1338    0.5745 C   0  0  2  0  0  0  0  0  0  0  0  0
    0.7687    2.2268    0.3444 C   0  0  0  0  0  0  0  0  0  0  0  0
    1.0034    0.8644    0.2299 C   0  0  0  0  0  0  0  0  0  0  0  0
    2.2383    0.4103   -0.2247 C   0  0  0  0  0  0  0  0  0  0  0  0
    2.4847   -1.0375   -0.4031 C   0  0  0  0  0  0  0  0  0  0  0  0
    0.5537   -1.4735    0.9984 C   0  0  2  0  0  0  0  0  0  0  0  0
   -2.9345    1.3186    1.2165 F   0  0  0  0  0  0  0  0  0  0  0  0
   -4.4624   -0.1066    0.5603 F   0  0  0  0  0  0  0  0  0  0  0  0
   -1.0172   -0.2539   -0.5252 N   0  0  0  0  0  0  0  0  0  0  0  0
   -1.7908   -0.6020   -2.5617 N   0  0  0  0  0  0  0  0  0  0  0  0
    3.4506   -1.4837   -0.9674 O   0  0  0  0  0  0  0  0  0  0  0  0
    1.5529   -1.8798    0.0388 O   0  0  0  0  0  0  0  0  0  0  0  0
    1.5817    4.1925    0.1153 H   0  0  0  0  0  0  0  0  0  0  0  0
    3.7806    3.3872   -0.6835 H   0  0  0  0  0  0  0  0  0  0  0  0
    4.1968    0.9662   -0.9115 H   0  0  0  0  0  0  0  0  0  0  0  0
   -1.2636   -2.3722    1.7195 H   0  0  0  0  0  0  0  0  0  0  0  0
   -0.8992   -2.7829    0.0361 H   0  0  0  0  0  0  0  0  0  0  0  0
    0.0091   -3.5227    1.3551 H   0  0  0  0  0  0  0  0  0  0  0  0
    0.4320   -1.1178    3.1174 H   0  0  0  0  0  0  0  0  0  0  0  0
    1.6987   -2.2502    2.6526 H   0  0  0  0  0  0  0  0  0  0  0  0
    1.9293   -0.5147    2.4155 H   0  0  0  0  0  0  0  0  0  0  0  0
    0.2933   -0.5148   -2.1963 H   0  0  0  0  0  0  0  0  0  0  0  0
   -3.8640   -0.5135   -2.0479 H   0  0  0  0  0  0  0  0  0  0  0  0
   -2.8800   -0.6228    1.6500 H   0  0  0  0  0  0  0  0  0  0  0  0
   -0.6170    0.2451    1.4360 H   0  0  0  0  0  0  0  0  0  0  0  0
   -0.1927    2.5803    0.6961 H   0  0  0  0  0  0  0  0  0  0  0  0
   -0.4622   -2.6001    1.0171 C   0  0  0  0  0  0  0  0  0  0  0  0
    1.1997   -1.3234    2.3711 C   0  0  0  0  0  0  0  0  0  0  0  0
  2  1  2  0
  2  3  1  0
  1  9  1  0
  3 11  2  0
  9 10  2  0
 13 35  1  1
 11 10  1  0
 11 12  1  0
 10  8  1  0
 12 18  2  0
 12 19  1  0
  8 13  1  0
  8 16  1  0
 13 19  1  0
 13 34  1  0
 14  7  1  0
 16  4  1  0
 16  6  1  0
  4 17  2  0
  7  6  1  0
  7 15  1  0
  6  5  2  0
 17  5  1  0
  1 20  1  0
  2 21  1  0
  3 22  1  0
 34 23  1  0
 34 24  1  0
 34 25  1  0
 35 26  1  0
 35 27  1  0
 35 28  1  0
  4 29  1  0
  5 30  1  0
  7 31  1  1
  8 32  1  1
  9 33  1  0
M  END
