
     RDKit          3D

 57 60  0  0  0  0  0  0  0  0999 V2000
   -1.1215   -0.2775    0.5111 C   0  0  1  0  0  0  0  0  0  0  0  0
    1.1194    1.5342    0.6734 C   0  0  0  0  0  0  0  0  0  0  0  0
    1.1169    0.2933    1.5342 C   0  0  1  0  0  0  0  0  0  0  0  0
    0.9060    3.9550   -0.7973 C   0  0  0  0  0  0  0  0  0  0  0  0
    1.7210    2.6369    1.1364 C   0  0  0  0  0  0  0  0  0  0  0  0
   -4.7170   -1.2817    0.1329 C   0  0  0  0  0  0  0  0  0  0  0  0
   -3.4049   -0.8146   -0.4583 C   0  0  1  0  0  0  0  0  0  0  0  0
   -2.9296   -1.9909   -1.3325 C   0  0  0  0  0  0  0  0  0  0  0  0
   -3.4260    0.4840   -1.2464 C   0  0  0  0  0  0  0  0  0  0  0  0
   -1.9962    0.9342   -1.5618 C   0  0  0  0  0  0  0  0  0  0  0  0
   -4.4164   -2.0067    1.4374 C   0  0  0  0  0  0  0  0  0  0  0  0
   -2.9072   -1.8426    1.6696 C   0  0  0  0  0  0  0  0  0  0  0  0
   -2.5698   -0.6222    0.8113 C   0  0  1  0  0  0  0  0  0  0  0  0
   -1.1076    1.0288   -0.3113 C   0  0  2  0  0  0  0  0  0  0  0  0
   -0.3200   -0.1191    1.7962 C   0  0  0  0  0  0  0  0  0  0  0  0
    0.3522    1.5052   -0.6250 C   0  0  2  0  0  0  0  0  0  0  0  0
    1.0502    0.5816   -1.6513 C   0  0  0  0  0  0  0  0  0  0  0  0
    0.3073    2.8580   -1.2642 C   0  0  0  0  0  0  0  0  0  0  0  0
    1.6776    3.9254    0.4436 C   0  0  0  0  0  0  0  0  0  0  0  0
    2.2458    4.9142    0.8849 O   0  0  0  0  0  0  0  0  0  0  0  0
    1.7825   -0.7986    0.9352 O   0  0  0  0  0  0  0  0  0  0  0  0
    3.1829   -0.6436    0.8824 C   0  0  0  0  0  0  0  0  0  0  0  0
    3.7542   -1.7735    0.1624 C   0  0  0  0  0  0  0  0  0  0  0  0
    4.2343   -2.6998   -0.4373 C   0  0  0  0  0  0  0  0  0  0  0  0
    4.8274   -3.8178   -1.1619 C   0  0  0  0  0  0  0  0  0  0  0  0
    6.3195   -3.9812   -0.8734 C   0  0  0  0  0  0  0  0  0  0  0  0
   -0.6816   -1.0905   -0.0761 H   0  0  0  0  0  0  0  0  0  0  0  0
    1.5992    0.5386    2.4913 H   0  0  0  0  0  0  0  0  0  0  0  0
    0.8423    4.8945   -1.3331 H   0  0  0  0  0  0  0  0  0  0  0  0
    2.2555    2.6087    2.0811 H   0  0  0  0  0  0  0  0  0  0  0  0
   -3.5881   -2.0969   -2.1955 H   0  0  0  0  0  0  0  0  0  0  0  0
   -1.9183   -1.8398   -1.7071 H   0  0  0  0  0  0  0  0  0  0  0  0
   -2.9301   -2.9424   -0.7988 H   0  0  0  0  0  0  0  0  0  0  0  0
   -3.9930    0.3814   -2.1747 H   0  0  0  0  0  0  0  0  0  0  0  0
   -3.9241    1.2586   -0.6548 H   0  0  0  0  0  0  0  0  0  0  0  0
   -1.5476    0.2567   -2.2919 H   0  0  0  0  0  0  0  0  0  0  0  0
   -2.0521    1.9072   -2.0527 H   0  0  0  0  0  0  0  0  0  0  0  0
   -4.9971   -1.5324    2.2334 H   0  0  0  0  0  0  0  0  0  0  0  0
   -4.7510   -3.0447    1.3848 H   0  0  0  0  0  0  0  0  0  0  0  0
   -2.6729   -1.6922    2.7229 H   0  0  0  0  0  0  0  0  0  0  0  0
   -2.3539   -2.7245    1.3391 H   0  0  0  0  0  0  0  0  0  0  0  0
   -2.9968    0.2491    1.3325 H   0  0  0  0  0  0  0  0  0  0  0  0
   -1.5480    1.8017    0.3351 H   0  0  0  0  0  0  0  0  0  0  0  0
   -0.7848    0.6463    2.4259 H   0  0  0  0  0  0  0  0  0  0  0  0
   -0.3242   -1.0459    2.3757 H   0  0  0  0  0  0  0  0  0  0  0  0
    0.5938    0.6933   -2.6343 H   0  0  0  0  0  0  0  0  0  0  0  0
    2.1023    0.8513   -1.7499 H   0  0  0  0  0  0  0  0  0  0  0  0
    0.9927   -0.4661   -1.3686 H   0  0  0  0  0  0  0  0  0  0  0  0
   -0.2295    2.9206   -2.2039 H   0  0  0  0  0  0  0  0  0  0  0  0
    3.4716    0.2895    0.3822 H   0  0  0  0  0  0  0  0  0  0  0  0
    3.6046   -0.5937    1.8958 H   0  0  0  0  0  0  0  0  0  0  0  0
    4.2978   -4.7355   -0.8943 H   0  0  0  0  0  0  0  0  0  0  0  0
    4.6698   -3.6754   -2.2336 H   0  0  0  0  0  0  0  0  0  0  0  0
    6.7187   -4.8208   -1.4412 H   0  0  0  0  0  0  0  0  0  0  0  0
    6.8754   -3.0875   -1.1546 H   0  0  0  0  0  0  0  0  0  0  0  0
    6.4961   -4.1726    0.1844 H   0  0  0  0  0  0  0  0  0  0  0  0
   -5.8140   -1.1156   -0.3430 O   0  0  0  0  0  0  0  0  0  0  0  0
 57  6  2  0
  9 10  1  0
  9  7  1  0
  7  8  1  6
 10 14  1  0
  7  6  1  0
  7 13  1  0
  6 11  1  0
 18  4  2  0
 18 16  1  0
 16 17  1  6
 14 16  1  0
 14  1  1  0
  4 19  1  0
 11 12  1  0
 16  2  1  0
 13  1  1  0
 13 12  1  0
  1 15  1  0
 19 20  2  0
 19  5  1  0
  2  5  2  0
  2  3  1  0
 15  3  1  0
 21  3  1  0
 21 22  1  0
 22 23  1  0
 23 24  3  0
 24 25  1  0
 25 26  1  0
  1 27  1  6
  3 28  1  1
  4 29  1  0
  5 30  1  0
  8 31  1  0
  8 32  1  0
  8 33  1  0
  9 34  1  0
  9 35  1  0
 10 36  1  0
 10 37  1  0
 11 38  1  0
 11 39  1  0
 12 40  1  0
 12 41  1  0
 13 42  1  1
 14 43  1  1
 15 44  1  0
 15 45  1  0
 17 46  1  0
 17 47  1  0
 17 48  1  0
 18 49  1  0
 22 50  1  0
 22 51  1  0
 25 52  1  0
 25 53  1  0
 26 54  1  0
 26 55  1  0
 26 56  1  0
M  END
