
     RDKit          3D

 17 16  0  0  0  0  0  0  0  0999 V2000
    0.8718    0.7528   -0.3025 C   0  0  0  0  0  0  0  0  0  0  0  0
   -1.5214    0.3265   -0.0367 C   0  0  0  0  0  0  0  0  0  0  0  0
   -0.1371   -0.3408    0.1022 C   0  0  2  0  0  0  0  0  0  0  0  0
    0.0141   -0.6402    1.6052 C   0  0  0  0  0  0  0  0  0  0  0  0
    0.0367   -1.5407   -0.6951 N   0  0  0  0  0  0  0  0  0  0  0  0
   -1.8388    1.4864    0.2402 O   0  0  0  0  0  0  0  0  0  0  0  0
    2.4218    0.0349   -0.7660 S   0  0  0  0  0  0  0  0  0  0  0  0
    0.4629    1.3476   -1.1563 H   0  0  0  0  0  0  0  0  0  0  0  0
    0.9989    1.4464    0.5651 H   0  0  0  0  0  0  0  0  0  0  0  0
   -0.2992    0.2559    2.1920 H   0  0  0  0  0  0  0  0  0  0  0  0
   -0.6204   -1.5092    1.9011 H   0  0  0  0  0  0  0  0  0  0  0  0
    1.0845   -0.8710    1.8310 H   0  0  0  0  0  0  0  0  0  0  0  0
   -0.6255   -2.2401   -0.4224 H   0  0  0  0  0  0  0  0  0  0  0  0
   -0.0645   -1.3387   -1.6692 H   0  0  0  0  0  0  0  0  0  0  0  0
    3.2054    0.9885   -0.2953 H   0  0  0  0  0  0  0  0  0  0  0  0
   -2.5097   -0.4725   -0.5267 O   0  0  0  0  0  0  0  0  0  0  0  0
   -3.3412    0.0281   -0.5795 H   0  0  0  0  0  0  0  0  0  0  0  0
  1  8  1  0
  1  9  1  0
  2  6  2  0
  3  1  1  0
  3  2  1  1
  3  4  1  0
  4 10  1  0
  4 11  1  0
  4 12  1  0
  5  3  1  0
  5 13  1  0
  5 14  1  0
  7  1  1  0
  7 15  1  0
  2 16  1  0
 16 17  1  0
M  END
