
     RDKit          3D

 20 19  0  0  0  0  0  0  0  0999 V2000
    3.4659   -0.9137   -0.1042 C   0  0  0  0  0  0  0  0  0  0  0  0
    2.2697   -0.2400   -0.3964 O   0  0  0  0  0  0  0  0  0  0  0  0
    1.7994    0.5193    0.6872 C   0  0  0  0  0  0  0  0  0  0  0  0
    0.5136    1.2081    0.3080 C   0  0  0  0  0  0  0  0  0  0  0  0
   -0.4887    0.2521    0.0789 O   0  0  0  0  0  0  0  0  0  0  0  0
   -1.6992    0.8205   -0.3517 C   0  0  0  0  0  0  0  0  0  0  0  0
   -2.7210   -0.2633   -0.5832 C   0  0  0  0  0  0  0  0  0  0  0  0
   -3.0424   -0.8782    0.6432 O   0  0  0  0  0  0  0  0  0  0  0  0
    4.2817   -0.2221    0.1396 H   0  0  0  0  0  0  0  0  0  0  0  0
    3.3525   -1.6071    0.7380 H   0  0  0  0  0  0  0  0  0  0  0  0
    3.7541   -1.4875   -0.9845 H   0  0  0  0  0  0  0  0  0  0  0  0
    1.6404   -0.1138    1.5727 H   0  0  0  0  0  0  0  0  0  0  0  0
    2.5259    1.2921    0.9769 H   0  0  0  0  0  0  0  0  0  0  0  0
    0.2369    1.8871    1.1270 H   0  0  0  0  0  0  0  0  0  0  0  0
    0.6732    1.8342   -0.5821 H   0  0  0  0  0  0  0  0  0  0  0  0
   -2.0800    1.5447    0.3837 H   0  0  0  0  0  0  0  0  0  0  0  0
   -1.5644    1.3689   -1.2947 H   0  0  0  0  0  0  0  0  0  0  0  0
   -3.5970    0.2062   -1.0488 H   0  0  0  0  0  0  0  0  0  0  0  0
   -2.3237   -0.9845   -1.3092 H   0  0  0  0  0  0  0  0  0  0  0  0
   -3.6509   -1.6007    0.4659 H   0  0  0  0  0  0  0  0  0  0  0  0
  1  2  1  0
  1  9  1  0
  1 10  1  0
  1 11  1  0
  2  3  1  0
  3  4  1  0
  3 12  1  0
  3 13  1  0
  4  5  1  0
  4 14  1  0
  4 15  1  0
  5  6  1  0
  6  7  1  0
  6 16  1  0
  6 17  1  0
  7  8  1  0
  7 18  1  0
  7 19  1  0
  8 20  1  0
M  END
