
     RDKit          3D

 28 29  0  0  0  0  0  0  0  0999 V2000
    4.9704    0.0088    0.0196 C   0  0  0  0  0  0  0  0  0  0  0  0
    3.5028   -0.0106    0.0079 N   0  0  0  0  0  0  0  0  0  0  0  0
    2.8441    1.1031   -0.3385 C   0  0  0  0  0  0  0  0  0  0  0  0
    1.4718    1.1383   -0.3374 C   0  0  0  0  0  0  0  0  0  0  0  0
    0.7558   -0.0002    0.0224 C   0  0  0  0  0  0  0  0  0  0  0  0
    1.4659   -1.1425    0.3734 C   0  0  0  0  0  0  0  0  0  0  0  0
    2.8409   -1.1176    0.3599 C   0  0  0  0  0  0  0  0  0  0  0  0
   -0.7157    0.0077    0.0291 C   0  0  0  0  0  0  0  0  0  0  0  0
   -1.4383   -1.1051   -0.3900 C   0  0  0  0  0  0  0  0  0  0  0  0
   -2.8113   -1.0662   -0.3759 C   0  0  0  0  0  0  0  0  0  0  0  0
   -1.4195    1.1290    0.4549 C   0  0  0  0  0  0  0  0  0  0  0  0
   -2.7936    1.1092    0.4518 C   0  0  0  0  0  0  0  0  0  0  0  0
   -3.4631    0.0267    0.0397 N   0  0  0  0  0  0  0  0  0  0  0  0
   -4.9302    0.0469    0.0018 C   0  0  0  0  0  0  0  0  0  0  0  0
    5.3088    0.6325    0.8424 H   0  0  0  0  0  0  0  0  0  0  0  0
    5.3390   -1.0021    0.1493 H   0  0  0  0  0  0  0  0  0  0  0  0
    5.3284    0.4094   -0.9234 H   0  0  0  0  0  0  0  0  0  0  0  0
    3.4415    1.9582   -0.6171 H   0  0  0  0  0  0  0  0  0  0  0  0
    0.9806    2.0513   -0.6409 H   0  0  0  0  0  0  0  0  0  0  0  0
    0.9719   -2.0535    0.6783 H   0  0  0  0  0  0  0  0  0  0  0  0
    3.4315   -1.9786    0.6331 H   0  0  0  0  0  0  0  0  0  0  0  0
   -0.9527   -2.0015   -0.7466 H   0  0  0  0  0  0  0  0  0  0  0  0
   -3.4126   -1.9023   -0.6995 H   0  0  0  0  0  0  0  0  0  0  0  0
   -0.9194    2.0165    0.8139 H   0  0  0  0  0  0  0  0  0  0  0  0
   -3.3791    1.9543    0.7797 H   0  0  0  0  0  0  0  0  0  0  0  0
   -5.2541    0.3166   -0.9998 H   0  0  0  0  0  0  0  0  0  0  0  0
   -5.3065   -0.9364    0.2625 H   0  0  0  0  0  0  0  0  0  0  0  0
   -5.2953    0.7761    0.7163 H   0  0  0  0  0  0  0  0  0  0  0  0
  1  2  1  0
  7  2  2  0
  7  6  1  0
  2  3  1  0
  6  5  2  0
  3  4  2  0
 11 12  2  0
 11  8  1  0
  5  4  1  0
  5  8  1  0
 12 13  1  0
  8  9  2  0
 13 14  1  0
 13 10  2  0
  9 10  1  0
  1 15  1  0
  1 16  1  0
  1 17  1  0
  3 18  1  0
  4 19  1  0
  6 20  1  0
  7 21  1  0
  9 22  1  0
 10 23  1  0
 11 24  1  0
 12 25  1  0
 14 26  1  0
 14 27  1  0
 14 28  1  0
M  CHG  2   2   1  13   1
M  END
