
     RDKit          3D

 62 66  0  0  0  0  0  0  0  0999 V2000
    1.6845   -0.8690   -1.4484 C   0  0  0  0  0  0  0  0  0  0  0  0
    1.1339   -0.6845   -0.0374 C   0  0  2  0  0  0  0  0  0  0  0  0
    0.1683   -1.8353    0.2874 C   0  0  0  0  0  0  0  0  0  0  0  0
   -1.1511   -1.7681   -0.4639 C   0  0  0  0  0  0  0  0  0  0  0  0
   -1.8857   -0.4555   -0.2035 C   0  0  2  0  0  0  0  0  0  0  0  0
   -3.2546   -0.3702   -0.9318 C   0  0  1  0  0  0  0  0  0  0  0  0
   -3.0873   -0.5118   -2.4506 C   0  0  0  0  0  0  0  0  0  0  0  0
   -4.2115   -1.4928   -0.4894 C   0  0  0  0  0  0  0  0  0  0  0  0
   -4.6665   -1.4021    0.9603 C   0  0  0  0  0  0  0  0  0  0  0  0
   -5.3299   -0.0612    1.2567 C   0  0  2  0  0  0  0  0  0  0  0  0
   -6.5532    0.0891    0.5557 O   0  0  0  0  0  0  0  0  0  0  0  0
   -4.4110    1.0752    0.8414 C   0  0  0  0  0  0  0  0  0  0  0  0
   -3.9340    0.9834   -0.6130 C   0  0  1  0  0  0  0  0  0  0  0  0
   -3.0235    2.1593   -0.9576 C   0  0  0  0  0  0  0  0  0  0  0  0
   -1.6716    2.0687   -0.2608 C   0  0  0  0  0  0  0  0  0  0  0  0
   -0.9708    0.7362   -0.5384 C   0  0  1  0  0  0  0  0  0  0  0  0
    0.3990    0.6595    0.1657 C   0  0  2  0  0  0  0  0  0  0  0  0
    1.2618    1.6614   -0.3586 O   0  0  0  0  0  0  0  0  0  0  0  0
    0.3578    0.7960    1.6900 C   0  0  0  0  0  0  0  0  0  0  0  0
    1.7359    0.3158    2.1501 C   0  0  0  0  0  0  0  0  0  0  0  0
    2.2359   -0.6841    1.0782 C   0  0  2  0  0  0  0  0  0  0  0  0
    3.6449   -0.4485    0.6003 C   0  0  0  0  0  0  0  0  0  0  0  0
    4.4953   -1.5604    0.3062 C   0  0  0  0  0  0  0  0  0  0  0  0
    5.7605   -1.3976   -0.1424 C   0  0  0  0  0  0  0  0  0  0  0  0
    6.2982   -0.0797   -0.3353 C   0  0  0  0  0  0  0  0  0  0  0  0
    7.4056    0.2151   -0.7228 O   0  0  0  0  0  0  0  0  0  0  0  0
    5.4457    0.9434   -0.0407 O   0  0  0  0  0  0  0  0  0  0  0  0
    4.1892    0.7655    0.3971 C   0  0  0  0  0  0  0  0  0  0  0  0
    2.1699   -1.8436   -1.5409 H   0  0  0  0  0  0  0  0  0  0  0  0
    0.8920   -0.8350   -2.1964 H   0  0  0  0  0  0  0  0  0  0  0  0
    2.4178   -0.1113   -1.7151 H   0  0  0  0  0  0  0  0  0  0  0  0
    0.6733   -2.7802    0.0648 H   0  0  0  0  0  0  0  0  0  0  0  0
   -0.0361   -1.8579    1.3633 H   0  0  0  0  0  0  0  0  0  0  0  0
   -0.9759   -1.8965   -1.5358 H   0  0  0  0  0  0  0  0  0  0  0  0
   -1.7652   -2.6158   -0.1523 H   0  0  0  0  0  0  0  0  0  0  0  0
   -2.0890   -0.4126    0.8741 H   0  0  0  0  0  0  0  0  0  0  0  0
   -2.8299   -1.5349   -2.7299 H   0  0  0  0  0  0  0  0  0  0  0  0
   -4.0264   -0.2688   -2.9524 H   0  0  0  0  0  0  0  0  0  0  0  0
   -2.3191    0.1390   -2.8670 H   0  0  0  0  0  0  0  0  0  0  0  0
   -5.0956   -1.4463   -1.1346 H   0  0  0  0  0  0  0  0  0  0  0  0
   -3.7683   -2.4728   -0.6819 H   0  0  0  0  0  0  0  0  0  0  0  0
   -5.3614   -2.2185    1.1853 H   0  0  0  0  0  0  0  0  0  0  0  0
   -3.8243   -1.5346    1.6458 H   0  0  0  0  0  0  0  0  0  0  0  0
   -5.5104    0.0125    2.3391 H   0  0  0  0  0  0  0  0  0  0  0  0
   -7.1156   -0.6610    0.7722 H   0  0  0  0  0  0  0  0  0  0  0  0
   -4.9177    2.0337    0.9950 H   0  0  0  0  0  0  0  0  0  0  0  0
   -3.5615    1.0733    1.5287 H   0  0  0  0  0  0  0  0  0  0  0  0
   -4.8216    1.0468   -1.2533 H   0  0  0  0  0  0  0  0  0  0  0  0
   -2.8726    2.2078   -2.0400 H   0  0  0  0  0  0  0  0  0  0  0  0
   -3.5148    3.0970   -0.6810 H   0  0  0  0  0  0  0  0  0  0  0  0
   -1.0531    2.9057   -0.5969 H   0  0  0  0  0  0  0  0  0  0  0  0
   -1.8044    2.2005    0.8177 H   0  0  0  0  0  0  0  0  0  0  0  0
   -0.7568    0.6992   -1.6144 H   0  0  0  0  0  0  0  0  0  0  0  0
    0.9886    2.5142   -0.0062 H   0  0  0  0  0  0  0  0  0  0  0  0
    0.1545    1.8208    2.0118 H   0  0  0  0  0  0  0  0  0  0  0  0
   -0.4387    0.1809    2.1120 H   0  0  0  0  0  0  0  0  0  0  0  0
    2.4168    1.1616    2.2444 H   0  0  0  0  0  0  0  0  0  0  0  0
    1.6968   -0.1508    3.1346 H   0  0  0  0  0  0  0  0  0  0  0  0
    2.2479   -1.6886    1.5118 H   0  0  0  0  0  0  0  0  0  0  0  0
    4.1085   -2.5623    0.4525 H   0  0  0  0  0  0  0  0  0  0  0  0
    6.4011   -2.2404   -0.3600 H   0  0  0  0  0  0  0  0  0  0  0  0
    3.6802    1.7063    0.5459 H   0  0  0  0  0  0  0  0  0  0  0  0
 11 10  1  0
 12 10  1  0
 12 13  1  0
 10  9  1  0
 13 14  1  0
 13  6  1  0
 14 15  1  0
  6  7  1  6
  8  6  1  0
  8  9  1  0
  6  5  1  0
 15 16  1  0
  5 16  1  0
  5  4  1  0
 16 17  1  0
  4  3  1  0
 17 18  1  6
 17 19  1  0
 17  2  1  0
 19 20  1  0
  3  2  1  0
  2  1  1  6
  2 21  1  0
 20 21  1  0
 21 22  1  0
 23 22  1  0
 23 24  2  0
 22 28  2  0
 24 25  1  0
 28 27  1  0
 25 27  1  0
 25 26  2  0
  1 29  1  0
  1 30  1  0
  1 31  1  0
  3 32  1  0
  3 33  1  0
  4 34  1  0
  4 35  1  0
  5 36  1  1
  7 37  1  0
  7 38  1  0
  7 39  1  0
  8 40  1  0
  8 41  1  0
  9 42  1  0
  9 43  1  0
 10 44  1  1
 11 45  1  0
 12 46  1  0
 12 47  1  0
 13 48  1  6
 14 49  1  0
 14 50  1  0
 15 51  1  0
 15 52  1  0
 16 53  1  6
 18 54  1  0
 19 55  1  0
 19 56  1  0
 20 57  1  0
 20 58  1  0
 21 59  1  1
 23 60  1  0
 24 61  1  0
 28 62  1  0
M  END
