
     RDKit          3D

 69 73  0  0  0  0  0  0  0  0999 V2000
    9.0569   -2.0316    1.8914 C   0  0  0  0  0  0  0  0  0  0  0  0
    9.5732   -1.5989   -1.5060 C   0  0  0  0  0  0  0  0  0  0  0  0
    9.1654   -2.7005    0.5217 C   0  0  1  0  0  0  0  0  0  0  0  0
   -2.9223    0.9235   -0.7763 C   0  0  1  0  0  0  0  0  0  0  0  0
    1.8053    2.1897    0.0475 C   0  0  0  0  0  0  0  0  0  0  0  0
   -5.1470    0.7840   -1.5800 C   0  0  2  0  0  0  0  0  0  0  0  0
    5.8657   -0.8256   -0.1541 C   0  0  0  0  0  0  0  0  0  0  0  0
   -3.4842   -0.3668   -0.1688 C   0  0  0  0  0  0  0  0  0  0  0  0
   -4.1538    1.7923   -0.9912 C   0  0  1  0  0  0  0  0  0  0  0  0
   -1.8249    1.5352    0.0733 C   0  0  0  0  0  0  0  0  0  0  0  0
    7.8181   -2.5003   -0.2365 C   0  0  2  0  0  0  0  0  0  0  0  0
    8.2460   -1.8765   -1.4596 N   0  0  0  0  0  0  0  0  0  0  0  0
   10.1714   -1.0636   -2.4275 O   0  0  0  0  0  0  0  0  0  0  0  0
   10.1112   -2.0355   -0.3374 N   0  0  0  0  0  0  0  0  0  0  0  0
    7.9836   -0.5957    1.6441 S   0  0  0  0  0  0  0  0  0  0  0  0
    6.8815   -1.6366    0.6290 C   0  0  1  0  0  0  0  0  0  0  0  0
    4.8834   -0.0644    0.7272 C   0  0  0  0  0  0  0  0  0  0  0  0
    3.8434    0.6911   -0.0907 C   0  0  0  0  0  0  0  0  0  0  0  0
    2.8807    1.4548    0.8029 C   0  0  0  0  0  0  0  0  0  0  0  0
    1.6742    2.1809   -1.1567 O   0  0  0  0  0  0  0  0  0  0  0  0
    0.9359    2.8853    0.8535 N   0  0  0  0  0  0  0  0  0  0  0  0
   -0.3690    3.7627    0.2563 S   0  0  1  0  0  0  0  0  0  0  0  0
   -1.0792    4.1574    1.4521 O   0  0  0  0  0  0  0  0  0  0  0  0
    0.1166    4.7522   -0.6764 O   0  0  0  0  0  0  0  0  0  0  0  0
   -1.2956    2.7254   -0.5878 N   0  0  0  0  0  0  0  0  0  0  0  0
   -4.5953    2.2739    0.2542 O   0  0  0  0  0  0  0  0  0  0  0  0
   -6.4896    1.1518   -1.4353 O   0  0  0  0  0  0  0  0  0  0  0  0
   -4.8553   -0.5527   -0.8414 C   0  0  1  0  0  0  0  0  0  0  0  0
   -5.9095   -0.9305    0.0743 N   0  0  0  0  0  0  0  0  0  0  0  0
   -6.2396   -0.3611    1.2707 C   0  0  0  0  0  0  0  0  0  0  0  0
   -7.3084   -0.8688    1.8140 N   0  0  0  0  0  0  0  0  0  0  0  0
   -7.7232   -1.8177    0.9164 C   0  0  0  0  0  0  0  0  0  0  0  0
   -6.8717   -1.8617   -0.1769 C   0  0  0  0  0  0  0  0  0  0  0  0
   -6.9861   -2.6628   -1.2351 N   0  0  0  0  0  0  0  0  0  0  0  0
   -8.0421   -3.4506   -1.1416 C   0  0  0  0  0  0  0  0  0  0  0  0
   -8.9395   -3.5194   -0.1609 N   0  0  0  0  0  0  0  0  0  0  0  0
   -8.8097   -2.7107    0.8970 C   0  0  0  0  0  0  0  0  0  0  0  0
   -9.7066   -2.7779    1.8832 N   0  0  0  0  0  0  0  0  0  0  0  0
    8.6027   -2.7123    2.6140 H   0  0  0  0  0  0  0  0  0  0  0  0
   10.0283   -1.7219    2.2751 H   0  0  0  0  0  0  0  0  0  0  0  0
    9.4117   -3.7586    0.6413 H   0  0  0  0  0  0  0  0  0  0  0  0
   -2.5082    0.6918   -1.7649 H   0  0  0  0  0  0  0  0  0  0  0  0
   -4.8858    0.6359   -2.6344 H   0  0  0  0  0  0  0  0  0  0  0  0
    6.3846   -0.1245   -0.8133 H   0  0  0  0  0  0  0  0  0  0  0  0
    5.3092   -1.5124   -0.8018 H   0  0  0  0  0  0  0  0  0  0  0  0
   -3.5882   -0.2623    0.9129 H   0  0  0  0  0  0  0  0  0  0  0  0
   -3.9634    2.6163   -1.6908 H   0  0  0  0  0  0  0  0  0  0  0  0
   -2.2220    1.8196    1.0467 H   0  0  0  0  0  0  0  0  0  0  0  0
   -1.0394    0.7901    0.2376 H   0  0  0  0  0  0  0  0  0  0  0  0
    7.3220   -3.4529   -0.4396 H   0  0  0  0  0  0  0  0  0  0  0  0
    7.6159   -1.5878   -2.1877 H   0  0  0  0  0  0  0  0  0  0  0  0
   11.1050   -2.1479   -0.2305 H   0  0  0  0  0  0  0  0  0  0  0  0
    6.3549   -2.3145    1.3095 H   0  0  0  0  0  0  0  0  0  0  0  0
    4.3814   -0.7639    1.4036 H   0  0  0  0  0  0  0  0  0  0  0  0
    5.4268    0.6413    1.3640 H   0  0  0  0  0  0  0  0  0  0  0  0
    4.3471    1.3829   -0.7707 H   0  0  0  0  0  0  0  0  0  0  0  0
    3.2893   -0.0139   -0.7154 H   0  0  0  0  0  0  0  0  0  0  0  0
    3.4209    2.1772    1.4234 H   0  0  0  0  0  0  0  0  0  0  0  0
    2.3898    0.7737    1.5059 H   0  0  0  0  0  0  0  0  0  0  0  0
    1.0312    2.8542    1.8614 H   0  0  0  0  0  0  0  0  0  0  0  0
   -0.9223    2.5558   -1.5164 H   0  0  0  0  0  0  0  0  0  0  0  0
   -5.5150    2.5460    0.1541 H   0  0  0  0  0  0  0  0  0  0  0  0
   -6.7092    1.7839   -2.1274 H   0  0  0  0  0  0  0  0  0  0  0  0
   -4.8102   -1.3575   -1.5737 H   0  0  0  0  0  0  0  0  0  0  0  0
   -5.6498    0.4344    1.6977 H   0  0  0  0  0  0  0  0  0  0  0  0
   -8.2055   -4.1316   -1.9702 H   0  0  0  0  0  0  0  0  0  0  0  0
   -9.6319   -2.1915    2.6954 H   0  0  0  0  0  0  0  0  0  0  0  0
  -10.4770   -3.4207    1.8264 H   0  0  0  0  0  0  0  0  0  0  0  0
   -2.8299   -1.2204   -0.3401 H   0  0  0  0  0  0  0  0  0  0  0  0
 23 22  2  0
 24 22  2  0
 22 25  1  6
 22 21  1  0
 25 10  1  0
 21  5  1  0
 10  4  1  0
  4  9  1  0
  4  8  1  0
  5 20  2  0
  5 19  1  0
  9  6  1  0
  9 26  1  0
  8 28  1  0
  6 28  1  0
  6 27  1  0
 19 18  1  0
 28 29  1  0
 18 17  1  0
 29 33  1  0
 29 30  1  0
 34 33  2  0
 34 35  1  0
 17  7  1  0
 33 32  1  0
 30 31  2  0
 35 36  2  0
 32 31  1  0
 32 37  2  0
  7 16  1  0
 36 37  1  0
 12 11  1  0
 12  2  1  0
 11 16  1  0
 11  3  1  0
 37 38  1  0
 16 15  1  0
  2 13  2  0
  2 14  1  0
  3 14  1  0
  3  1  1  0
 15  1  1  0
  1 39  1  0
  1 40  1  0
  3 41  1  1
  4 42  1  6
  6 43  1  6
  7 44  1  0
  7 45  1  0
  8 69  1  0
  8 46  1  0
  9 47  1  6
 10 48  1  0
 10 49  1  0
 11 50  1  6
 12 51  1  0
 14 52  1  0
 16 53  1  1
 17 54  1  0
 17 55  1  0
 18 56  1  0
 18 57  1  0
 19 58  1  0
 19 59  1  0
 21 60  1  0
 25 61  1  0
 26 62  1  0
 27 63  1  0
 28 64  1  6
 30 65  1  0
 35 66  1  0
 38 67  1  0
 38 68  1  0
M  END
