
     RDKit          3D

 73 75  0  0  0  0  0  0  0  0999 V2000
    0.3831    0.9520   -0.1528 F   0  0  0  0  0  0  0  0  0  0  0  0
   -0.0188   -0.3073   -0.3255 C   0  0  0  0  0  0  0  0  0  0  0  0
    0.5537   -1.0308   -1.3585 C   0  0  0  0  0  0  0  0  0  0  0  0
    1.7323   -0.3251   -2.4554 S   0  0  0  0  0  0  0  0  0  0  0  0
    3.1881   -0.2052   -1.3564 C   0  0  0  0  0  0  0  0  0  0  0  0
    4.3002    0.5209   -2.1085 C   0  0  0  0  0  0  0  0  0  0  0  0
    5.5112    0.6455   -1.2282 C   0  0  0  0  0  0  0  0  0  0  0  0
    6.5159   -0.3189   -1.2539 C   0  0  0  0  0  0  0  0  0  0  0  0
    7.6092   -0.2244   -0.4107 C   0  0  0  0  0  0  0  0  0  0  0  0
    7.7203    0.8388    0.4829 C   0  0  0  0  0  0  0  0  0  0  0  0
    8.9086    0.8950    1.3672 C   0  0  0  0  0  0  0  0  0  0  0  0
    9.7964    0.0754    1.3526 O   0  0  0  0  0  0  0  0  0  0  0  0
    8.9006    1.9387    2.1851 O   0  0  0  0  0  0  0  0  0  0  0  0
    6.7187    1.8084    0.5136 C   0  0  0  0  0  0  0  0  0  0  0  0
    5.6288    1.7075   -0.3347 C   0  0  0  0  0  0  0  0  0  0  0  0
    0.0952   -2.3242   -1.5471 C   0  0  0  0  0  0  0  0  0  0  0  0
    0.5775   -3.0686   -2.5333 F   0  0  0  0  0  0  0  0  0  0  0  0
   -0.8645   -2.8614   -0.7155 C   0  0  0  0  0  0  0  0  0  0  0  0
   -1.2597   -4.1091   -0.9495 F   0  0  0  0  0  0  0  0  0  0  0  0
   -0.9930   -0.8028    0.5417 C   0  0  0  0  0  0  0  0  0  0  0  0
   -1.3816   -2.1358    0.3510 C   0  0  0  0  0  0  0  0  0  0  0  0
   -2.5222   -3.0209    1.4210 S   0  0  1  0  0  0  0  0  0  0  0  0
   -3.6249   -3.4527    0.5791 O   0  0  0  0  0  0  0  0  0  0  0  0
   -1.6246   -4.3401    1.8096 N   0  0  0  0  0  0  0  0  0  0  0  0
   -2.7867   -2.2532    2.6177 O   0  0  0  0  0  0  0  0  0  0  0  0
   -1.5640    0.0313    1.5143 N   0  0  0  0  0  0  0  0  0  0  0  0
   -2.5753    0.9748    1.0059 C   0  0  1  0  0  0  0  0  0  0  0  0
   -3.7814    0.2695    0.3770 C   0  0  0  0  0  0  0  0  0  0  0  0
   -3.7024   -0.0307   -1.1301 C   0  0  0  0  0  0  0  0  0  0  0  0
   -4.8881    0.5072   -1.9375 C   0  0  0  0  0  0  0  0  0  0  0  0
   -5.0230    2.0416   -1.9182 C   0  0  0  0  0  0  0  0  0  0  0  0
   -6.0510    2.5952   -0.9313 C   0  0  0  0  0  0  0  0  0  0  0  0
   -5.9953    4.1157   -0.7749 C   0  0  0  0  0  0  0  0  0  0  0  0
   -6.6312    4.6300    0.5225 C   0  0  0  0  0  0  0  0  0  0  0  0
   -5.7081    4.7734    1.7390 C   0  0  0  0  0  0  0  0  0  0  0  0
   -5.0328    3.5113    2.2918 C   0  0  0  0  0  0  0  0  0  0  0  0
   -3.7201    3.1468    1.6036 C   0  0  0  0  0  0  0  0  0  0  0  0
   -3.0333    1.8824    2.1481 C   0  0  0  0  0  0  0  0  0  0  0  0
    2.9160    0.3456   -0.4571 H   0  0  0  0  0  0  0  0  0  0  0  0
    3.5020   -1.2090   -1.0714 H   0  0  0  0  0  0  0  0  0  0  0  0
    4.5530   -0.0257   -3.0191 H   0  0  0  0  0  0  0  0  0  0  0  0
    3.9519    1.5114   -2.4085 H   0  0  0  0  0  0  0  0  0  0  0  0
    6.4465   -1.1509   -1.9440 H   0  0  0  0  0  0  0  0  0  0  0  0
    8.3799   -0.9822   -0.4504 H   0  0  0  0  0  0  0  0  0  0  0  0
    9.6972    1.9325    2.7363 H   0  0  0  0  0  0  0  0  0  0  0  0
    6.7776    2.6478    1.1924 H   0  0  0  0  0  0  0  0  0  0  0  0
    4.8599    2.4699   -0.3023 H   0  0  0  0  0  0  0  0  0  0  0  0
   -2.0955   -5.2172    1.6237 H   0  0  0  0  0  0  0  0  0  0  0  0
   -1.2310   -4.3012    2.7420 H   0  0  0  0  0  0  0  0  0  0  0  0
   -0.8368    0.5570    1.9847 H   0  0  0  0  0  0  0  0  0  0  0  0
   -2.1307    1.6232    0.2342 H   0  0  0  0  0  0  0  0  0  0  0  0
   -4.0090   -0.6317    0.9472 H   0  0  0  0  0  0  0  0  0  0  0  0
   -4.6375    0.9164    0.5539 H   0  0  0  0  0  0  0  0  0  0  0  0
   -2.7875    0.4050   -1.5458 H   0  0  0  0  0  0  0  0  0  0  0  0
   -3.6215   -1.1074   -1.2948 H   0  0  0  0  0  0  0  0  0  0  0  0
   -4.7694    0.1676   -2.9695 H   0  0  0  0  0  0  0  0  0  0  0  0
   -5.8157    0.0469   -1.5803 H   0  0  0  0  0  0  0  0  0  0  0  0
   -4.0433    2.4816   -1.6968 H   0  0  0  0  0  0  0  0  0  0  0  0
   -5.2803    2.4014   -2.9184 H   0  0  0  0  0  0  0  0  0  0  0  0
   -7.0562    2.2996   -1.2485 H   0  0  0  0  0  0  0  0  0  0  0  0
   -5.9208    2.1316    0.0469 H   0  0  0  0  0  0  0  0  0  0  0  0
   -4.9564    4.4584   -0.8255 H   0  0  0  0  0  0  0  0  0  0  0  0
   -6.4924    4.5755   -1.6335 H   0  0  0  0  0  0  0  0  0  0  0  0
   -7.0596    5.6189    0.3377 H   0  0  0  0  0  0  0  0  0  0  0  0
   -7.4811    3.9918    0.7896 H   0  0  0  0  0  0  0  0  0  0  0  0
   -4.9342    5.5160    1.5129 H   0  0  0  0  0  0  0  0  0  0  0  0
   -6.3089    5.2176    2.5376 H   0  0  0  0  0  0  0  0  0  0  0  0
   -4.8304    3.6624    3.3568 H   0  0  0  0  0  0  0  0  0  0  0  0
   -5.7242    2.6627    2.2432 H   0  0  0  0  0  0  0  0  0  0  0  0
   -3.8982    3.0238    0.5341 H   0  0  0  0  0  0  0  0  0  0  0  0
   -3.0349    3.9957    1.6784 H   0  0  0  0  0  0  0  0  0  0  0  0
   -3.7082    1.3183    2.8002 H   0  0  0  0  0  0  0  0  0  0  0  0
   -2.1769    2.1637    2.7675 H   0  0  0  0  0  0  0  0  0  0  0  0
 33 34  1  0
 33 32  1  0
 34 35  1  0
 32 31  1  0
 25 22  2  0
 35 36  1  0
 23 22  2  0
 22 24  1  1
 22 21  1  0
 36 37  1  0
 31 30  1  0
 29 30  1  0
 29 28  1  0
 38 37  1  0
 38 27  1  0
 21 18  2  0
 21 20  1  0
 26 27  1  0
 26 20  1  0
 19 18  1  0
 28 27  1  0
 18 16  1  0
 20  2  2  0
 16 17  1  0
 16  3  2  0
  2  3  1  0
  2  1  1  0
  3  4  1  0
  6  5  1  0
  6  7  1  0
  5  4  1  0
 15  7  1  0
 15 14  2  0
  7  8  2  0
 14 10  1  0
  8  9  1  0
 10  9  2  0
 10 11  1  0
 11 12  2  0
 11 13  1  0
  5 39  1  0
  5 40  1  0
  6 41  1  0
  6 42  1  0
  8 43  1  0
  9 44  1  0
 13 45  1  0
 14 46  1  0
 15 47  1  0
 24 48  1  0
 24 49  1  0
 26 50  1  0
 27 51  1  6
 28 52  1  0
 28 53  1  0
 29 54  1  0
 29 55  1  0
 30 56  1  0
 30 57  1  0
 31 58  1  0
 31 59  1  0
 32 60  1  0
 32 61  1  0
 33 62  1  0
 33 63  1  0
 34 64  1  0
 34 65  1  0
 35 66  1  0
 35 67  1  0
 36 68  1  0
 36 69  1  0
 37 70  1  0
 37 71  1  0
 38 72  1  0
 38 73  1  0
M  END
