
     RDKit          3D

 57 60  0  0  0  0  0  0  0  0999 V2000
    3.6064    1.7097    0.6435 N   0  0  0  0  0  0  0  0  0  0  0  0
    0.3903   -1.5527    0.1974 N   0  0  0  0  0  0  0  0  0  0  0  0
    3.9543    0.3894    0.4106 C   0  0  0  0  0  0  0  0  0  0  0  0
    1.0222   -2.6972    0.3414 C   0  0  0  0  0  0  0  0  0  0  0  0
    4.4205    2.7563    0.3508 C   0  0  0  0  0  0  0  0  0  0  0  0
    3.0086   -0.5242    0.4830 N   0  0  0  0  0  0  0  0  0  0  0  0
   -0.9471   -1.5657    0.1858 C   0  0  0  0  0  0  0  0  0  0  0  0
    6.1994    1.1104    0.1467 O   0  0  0  0  0  0  0  0  0  0  0  0
    5.7390    2.3793   -0.3356 C   0  0  1  0  0  0  0  0  0  0  0  0
    0.2704   -3.8837    0.4657 C   0  0  0  0  0  0  0  0  0  0  0  0
   -5.3907    1.1787   -0.1901 C   0  0  0  0  0  0  0  0  0  0  0  0
    5.2890    0.1124    0.1406 C   0  0  0  0  0  0  0  0  0  0  0  0
    3.3433   -1.7861    0.2712 C   0  0  0  0  0  0  0  0  0  0  0  0
   -5.1967   -0.1948   -0.0500 C   0  0  0  0  0  0  0  0  0  0  0  0
   -4.2745    2.0190   -0.2320 C   0  0  0  0  0  0  0  0  0  0  0  0
   -1.7219   -2.6320    0.2967 N   0  0  0  0  0  0  0  0  0  0  0  0
   -2.8122    0.1082   -0.0222 C   0  0  0  0  0  0  0  0  0  0  0  0
   -3.9158   -0.7401    0.0294 C   0  0  0  0  0  0  0  0  0  0  0  0
   -2.9932    1.4889   -0.1520 C   0  0  0  0  0  0  0  0  0  0  0  0
   -1.4935   -0.3237    0.0431 N   0  0  0  0  0  0  0  0  0  0  0  0
   -1.0874   -3.7998    0.4354 C   0  0  0  0  0  0  0  0  0  0  0  0
    4.1031    3.9077    0.5618 O   0  0  0  0  0  0  0  0  0  0  0  0
    5.6352   -1.2062   -0.0830 C   0  0  0  0  0  0  0  0  0  0  0  0
    0.9045   -5.0607    0.6075 F   0  0  0  0  0  0  0  0  0  0  0  0
    4.6522   -2.1787   -0.0151 C   0  0  0  0  0  0  0  0  0  0  0  0
   -4.5398    3.3300   -0.3581 O   0  0  0  0  0  0  0  0  0  0  0  0
   -6.3191   -0.9344   -0.0045 O   0  0  0  0  0  0  0  0  0  0  0  0
    5.4997    2.3217   -1.8431 C   0  0  0  0  0  0  0  0  0  0  0  0
    6.8298    3.3733    0.0124 C   0  0  0  0  0  0  0  0  0  0  0  0
   -7.2287    2.0565    0.9512 C   0  0  0  0  0  0  0  0  0  0  0  0
   -3.4598    4.2416   -0.3823 C   0  0  0  0  0  0  0  0  0  0  0  0
   -6.2030   -2.3385    0.1091 C   0  0  0  0  0  0  0  0  0  0  0  0
    2.6785    1.9019    0.9989 H   0  0  0  0  0  0  0  0  0  0  0  0
    2.7508   -3.7191    0.3708 H   0  0  0  0  0  0  0  0  0  0  0  0
   -3.7659   -1.8012    0.1335 H   0  0  0  0  0  0  0  0  0  0  0  0
   -2.1249    2.1338   -0.1843 H   0  0  0  0  0  0  0  0  0  0  0  0
   -0.7974    0.4028   -0.0212 H   0  0  0  0  0  0  0  0  0  0  0  0
   -1.6970   -4.6920    0.5285 H   0  0  0  0  0  0  0  0  0  0  0  0
    6.6615   -1.4738   -0.2982 H   0  0  0  0  0  0  0  0  0  0  0  0
    4.8960   -3.2175   -0.1918 H   0  0  0  0  0  0  0  0  0  0  0  0
    5.1888    3.2980   -2.2138 H   0  0  0  0  0  0  0  0  0  0  0  0
    6.4244    2.0454   -2.3505 H   0  0  0  0  0  0  0  0  0  0  0  0
    4.7302    1.5986   -2.1175 H   0  0  0  0  0  0  0  0  0  0  0  0
    6.9943    3.4297    1.0883 H   0  0  0  0  0  0  0  0  0  0  0  0
    7.7628    3.0744   -0.4655 H   0  0  0  0  0  0  0  0  0  0  0  0
    6.5725    4.3661   -0.3489 H   0  0  0  0  0  0  0  0  0  0  0  0
   -7.3171    1.1995    1.6237 H   0  0  0  0  0  0  0  0  0  0  0  0
   -6.6554    2.8393    1.4541 H   0  0  0  0  0  0  0  0  0  0  0  0
   -8.2272    2.4377    0.7423 H   0  0  0  0  0  0  0  0  0  0  0  0
   -2.7899    4.0626   -1.2272 H   0  0  0  0  0  0  0  0  0  0  0  0
   -3.8961    5.2320   -0.4856 H   0  0  0  0  0  0  0  0  0  0  0  0
   -2.8774    4.2100    0.5422 H   0  0  0  0  0  0  0  0  0  0  0  0
   -5.6603   -2.7732   -0.7342 H   0  0  0  0  0  0  0  0  0  0  0  0
   -5.7079   -2.6355    1.0373 H   0  0  0  0  0  0  0  0  0  0  0  0
   -7.2168   -2.7312    0.1128 H   0  0  0  0  0  0  0  0  0  0  0  0
    2.3779   -2.7820    0.3617 N   0  0  0  0  0  0  0  0  0  0  0  0
   -6.6470    1.6933   -0.2929 O   0  0  0  0  0  0  0  0  0  0  0  0
  1  3  1  0
  1  5  1  0
  2  4  2  0
  2  7  1  0
  3  6  1  0
  3 12  2  0
  4 56  1  0
  4 10  1  0
  5  9  1  0
  5 22  2  0
  6 13  2  0
  7 16  2  0
  7 20  1  0
  8  9  1  0
  8 12  1  0
  9 28  1  6
  9 29  1  0
 56 13  1  0
 10 21  2  0
 10 24  1  0
 11 14  2  0
 11 15  1  0
 11 57  1  0
 12 23  1  0
 13 25  1  0
 14 18  1  0
 14 27  1  0
 15 19  2  0
 15 26  1  0
 16 21  1  0
 17 18  2  0
 17 19  1  0
 17 20  1  0
 23 25  2  0
 57 30  1  0
 26 31  1  0
 27 32  1  0
  1 33  1  0
 56 34  1  0
 18 35  1  0
 19 36  1  0
 20 37  1  0
 21 38  1  0
 23 39  1  0
 25 40  1  0
 28 41  1  0
 28 42  1  0
 28 43  1  0
 29 44  1  0
 29 45  1  0
 29 46  1  0
 30 47  1  0
 30 48  1  0
 30 49  1  0
 31 50  1  0
 31 51  1  0
 31 52  1  0
 32 53  1  0
 32 54  1  0
 32 55  1  0
M  END
