
     RDKit          3D

 47 47  0  0  0  0  0  0  0  0999 V2000
   32.7354   77.2920    0.9289 N   0  0  0  0  0  0  0  0  0  0  0  0
   32.5496   75.9810    0.9114 C   0  0  0  0  0  0  0  0  0  0  0  0
   32.1601   75.3021    2.1875 C   0  0  0  0  0  0  0  0  0  0  0  0
   32.7078   75.2450   -0.2704 C   0  0  0  0  0  0  0  0  0  0  0  0
   32.4963   73.9098   -0.1885 O   0  0  0  0  0  0  0  0  0  0  0  0
   33.0970   75.8756   -1.4474 C   0  0  0  0  0  0  0  0  0  0  0  0
   33.3680   75.0527   -2.6818 C   0  0  0  0  0  0  0  0  0  0  0  0
   33.2426   77.2665   -1.4099 C   0  0  0  0  0  0  0  0  0  0  0  0
   33.0504   77.9131   -0.2001 C   0  0  0  0  0  0  0  0  0  0  0  0
   33.5689   78.0789   -2.6240 C   0  0  0  0  0  0  0  0  0  0  0  0
   32.4206   78.0604   -3.4901 O   0  0  0  0  0  0  0  0  0  0  0  0
   32.4919   78.4955   -5.0221 P   0  0  2  0  0  0  0  0  0  0  0  0
   31.1454   78.5483   -5.6188 O   0  0  0  0  0  0  0  0  0  0  0  0
   33.5222   77.4270   -5.6045 O   0  0  0  0  0  0  0  0  0  0  0  0
   33.3505   79.8425   -5.0940 O   0  0  0  0  0  0  0  0  0  0  0  0
   34.5584   74.2403   -2.4961 N   0  0  0  0  0  0  0  0  0  0  0  0
   35.1820   73.7180   -3.7058 C   0  0  1  0  0  0  0  0  0  0  0  0
   34.1834   73.3112   -4.8087 C   0  0  0  0  0  0  0  0  0  0  0  0
   36.1353   74.7884   -4.2549 C   0  0  0  0  0  0  0  0  0  0  0  0
   37.3336   75.1048   -3.3589 C   0  0  0  0  0  0  0  0  0  0  0  0
   36.9971   75.4771   -1.9397 C   0  0  0  0  0  0  0  0  0  0  0  0
   36.4246   76.6769   -1.8543 O   0  0  0  0  0  0  0  0  0  0  0  0
   37.2840   74.8197   -0.9697 O   0  0  0  0  0  0  0  0  0  0  0  0
   35.9759   72.4495   -3.3988 C   0  0  0  0  0  0  0  0  0  0  0  0
   36.8578   72.0392   -4.1104 O   0  0  0  0  0  0  0  0  0  0  0  0
   35.5588   71.8071   -2.3191 O   0  0  0  0  0  0  0  0  0  0  0  0
   32.8756   74.5288    2.4717 H   0  0  0  0  0  0  0  0  0  0  0  0
   32.1078   76.0316    2.9925 H   0  0  0  0  0  0  0  0  0  0  0  0
   31.1861   74.8170    2.1003 H   0  0  0  0  0  0  0  0  0  0  0  0
   32.1760   73.5531   -1.0252 H   0  0  0  0  0  0  0  0  0  0  0  0
   32.4716   74.4672   -2.9398 H   0  0  0  0  0  0  0  0  0  0  0  0
   33.5197   75.7090   -3.5342 H   0  0  0  0  0  0  0  0  0  0  0  0
   33.1623   78.9912   -0.1410 H   0  0  0  0  0  0  0  0  0  0  0  0
   33.7869   79.1085   -2.3346 H   0  0  0  0  0  0  0  0  0  0  0  0
   34.4470   77.6880   -3.1404 H   0  0  0  0  0  0  0  0  0  0  0  0
   33.7212   77.5085   -6.5470 H   0  0  0  0  0  0  0  0  0  0  0  0
   32.8293   80.6506   -4.9949 H   0  0  0  0  0  0  0  0  0  0  0  0
   34.3937   73.5144   -1.8158 H   0  0  0  0  0  0  0  0  0  0  0  0
   34.6976   72.8369   -5.6437 H   0  0  0  0  0  0  0  0  0  0  0  0
   33.4298   72.6201   -4.4294 H   0  0  0  0  0  0  0  0  0  0  0  0
   33.6717   74.1907   -5.2007 H   0  0  0  0  0  0  0  0  0  0  0  0
   36.5177   74.4834   -5.2302 H   0  0  0  0  0  0  0  0  0  0  0  0
   35.5525   75.6949   -4.4347 H   0  0  0  0  0  0  0  0  0  0  0  0
   38.0199   74.2602   -3.3287 H   0  0  0  0  0  0  0  0  0  0  0  0
   37.8797   75.9373   -3.8101 H   0  0  0  0  0  0  0  0  0  0  0  0
   36.2071   76.8704   -0.9311 H   0  0  0  0  0  0  0  0  0  0  0  0
   36.0683   70.9911   -2.1972 H   0  0  0  0  0  0  0  0  0  0  0  0
  1  2  2  0
  1  9  1  0
  2  3  1  0
  2  4  1  0
  3 27  1  0
  3 28  1  0
  3 29  1  0
  4  5  1  0
  4  6  2  0
  5 30  1  0
  6  7  1  0
  6  8  1  0
  7 16  1  0
  7 31  1  0
  7 32  1  0
  8  9  2  0
  8 10  1  0
  9 33  1  0
 10 11  1  0
 10 34  1  0
 10 35  1  0
 12 11  1  1
 12 13  2  0
 12 14  1  0
 12 15  1  0
 14 36  1  0
 15 37  1  0
 16 17  1  0
 16 38  1  0
 17 18  1  0
 17 19  1  0
 17 24  1  1
 18 39  1  0
 18 40  1  0
 18 41  1  0
 19 20  1  0
 19 42  1  0
 19 43  1  0
 20 21  1  0
 20 44  1  0
 20 45  1  0
 21 22  1  0
 21 23  2  0
 22 46  1  0
 24 25  2  0
 24 26  1  0
 26 47  1  0
M  END
