
     RDKit          3D

 42 43  0  0  0  0  0  0  0  0999 V2000
    6.6200    0.5462    0.0481 C   0  0  0  0  0  0  0  0  0  0  0  0
   -3.2461   -0.1562    0.0754 C   0  0  0  0  0  0  0  0  0  0  0  0
   -5.6354   -0.4655    0.2581 C   0  0  0  0  0  0  0  0  0  0  0  0
   -3.0880   -1.5272   -0.0793 C   0  0  0  0  0  0  0  0  0  0  0  0
    0.9821   -0.5984    1.2342 C   0  0  0  0  0  0  0  0  0  0  0  0
   -0.3239   -0.1346    1.2501 C   0  0  0  0  0  0  0  0  0  0  0  0
   -0.9298    0.2591    0.0707 C   0  0  0  0  0  0  0  0  0  0  0  0
   -0.2372    0.2095   -1.1381 C   0  0  0  0  0  0  0  0  0  0  0  0
    1.0725   -0.2578   -1.1388 C   0  0  0  0  0  0  0  0  0  0  0  0
    1.6899   -0.6732    0.0360 C   0  0  0  0  0  0  0  0  0  0  0  0
    3.1105   -1.1619    0.0103 C   0  0  0  0  0  0  0  0  0  0  0  0
    4.1361   -0.0285    0.0374 C   0  0  0  0  0  0  0  0  0  0  0  0
    5.5665   -0.5528    0.0432 C   0  0  0  0  0  0  0  0  0  0  0  0
   -2.2224    0.7375    0.0616 O   0  0  0  0  0  0  0  0  0  0  0  0
   -4.5280    0.3650    0.2434 C   0  0  0  0  0  0  0  0  0  0  0  0
   -5.4719   -1.8352    0.1060 C   0  0  0  0  0  0  0  0  0  0  0  0
   -4.1995   -2.3588   -0.0624 C   0  0  0  0  0  0  0  0  0  0  0  0
   -4.7220    2.0722    0.4303 Cl  0  0  0  0  0  0  0  0  0  0  0  0
    6.4881    1.1847   -0.8326 H   0  0  0  0  0  0  0  0  0  0  0  0
    6.4685    1.1968    0.9168 H   0  0  0  0  0  0  0  0  0  0  0  0
   -6.6212   -0.0404    0.3909 H   0  0  0  0  0  0  0  0  0  0  0  0
   -2.1027   -1.9535   -0.2146 H   0  0  0  0  0  0  0  0  0  0  0  0
    1.4484   -0.9117    2.1597 H   0  0  0  0  0  0  0  0  0  0  0  0
   -0.8795   -0.0822    2.1785 H   0  0  0  0  0  0  0  0  0  0  0  0
    1.6088   -0.3058   -2.0800 H   0  0  0  0  0  0  0  0  0  0  0  0
    3.2818   -1.8206    0.8659 H   0  0  0  0  0  0  0  0  0  0  0  0
    3.2728   -1.7696   -0.8843 H   0  0  0  0  0  0  0  0  0  0  0  0
    3.9852    0.6228   -0.8298 H   0  0  0  0  0  0  0  0  0  0  0  0
    5.7169   -1.1968   -0.8304 H   0  0  0  0  0  0  0  0  0  0  0  0
   -1.6472    1.0070   -2.1557 H   0  0  0  0  0  0  0  0  0  0  0  0
   -6.3364   -2.4844    0.1185 H   0  0  0  0  0  0  0  0  0  0  0  0
   -4.0606   -3.4246   -0.1832 H   0  0  0  0  0  0  0  0  0  0  0  0
    8.0443    0.0036    0.0688 C   0  0  0  0  0  0  0  0  0  0  0  0
    9.0998    1.1000    0.0666 C   0  0  0  0  0  0  0  0  0  0  0  0
    3.9693    0.5956    0.9214 H   0  0  0  0  0  0  0  0  0  0  0  0
    5.7082   -1.1969    0.9181 H   0  0  0  0  0  0  0  0  0  0  0  0
    8.1741   -0.6305    0.9515 H   0  0  0  0  0  0  0  0  0  0  0  0
    8.1921   -0.6512   -0.7957 H   0  0  0  0  0  0  0  0  0  0  0  0
   10.1085    0.6856    0.0805 H   0  0  0  0  0  0  0  0  0  0  0  0
    9.0138    1.7287   -0.8216 H   0  0  0  0  0  0  0  0  0  0  0  0
    8.9977    1.7484    0.9387 H   0  0  0  0  0  0  0  0  0  0  0  0
   -0.7921    0.5861   -2.3045 O   0  0  0  0  0  0  0  0  0  0  0  0
 16  3  2  0
 16 17  1  0
  3 15  1  0
 17  4  2  0
 15 18  1  0
 15  2  2  0
 42  8  1  0
  4  2  1  0
  2 14  1  0
 14  7  1  0
  8  7  2  0
  8  9  1  0
  7  6  1  0
  9 10  2  0
  6  5  2  0
 10  5  1  0
 10 11  1  0
 12 11  1  0
 12 13  1  0
  1 13  1  0
  1 19  1  0
  1 20  1  0
  3 21  1  0
  4 22  1  0
  5 23  1  0
  6 24  1  0
  9 25  1  0
 11 26  1  0
 11 27  1  0
 12 28  1  0
 13 29  1  0
 42 30  1  0
 16 31  1  0
 17 32  1  0
  1 33  1  0
 33 34  1  0
 12 35  1  0
 13 36  1  0
 33 37  1  0
 33 38  1  0
 34 39  1  0
 34 40  1  0
 34 41  1  0
M  END
