
     RDKit          3D

 47 49  0  0  0  0  0  0  0  0999 V2000
    7.7039   -1.4981   -0.2165 Cl  0  0  0  0  0  0  0  0  0  0  0  0
    5.9768   -1.3359   -0.1431 C   0  0  0  0  0  0  0  0  0  0  0  0
    5.3826   -0.1238   -0.4478 C   0  0  0  0  0  0  0  0  0  0  0  0
    4.0036    0.0162   -0.3932 C   0  0  0  0  0  0  0  0  0  0  0  0
    5.1961   -2.4230    0.2184 C   0  0  0  0  0  0  0  0  0  0  0  0
    3.8221   -2.2826    0.2774 C   0  0  0  0  0  0  0  0  0  0  0  0
    3.1973   -1.0656   -0.0238 C   0  0  0  0  0  0  0  0  0  0  0  0
    1.8153   -1.0324    0.0447 N   0  0  0  0  0  0  0  0  0  0  0  0
    0.9589    0.0512    0.0222 C   0  0  0  0  0  0  0  0  0  0  0  0
    1.3733    1.2018   -0.0947 O   0  0  0  0  0  0  0  0  0  0  0  0
   -0.3202   -0.3760    0.1462 N   0  0  0  0  0  0  0  0  0  0  0  0
   -1.3006    0.4985    0.1629 C   0  0  0  0  0  0  0  0  0  0  0  0
   -1.4054    1.9198    0.0873 C   0  0  0  0  0  0  0  0  0  0  0  0
   -2.5891    0.0444    0.2430 N   0  0  0  0  0  0  0  0  0  0  0  0
   -3.4509    1.0944    0.1223 N   0  0  0  0  0  0  0  0  0  0  0  0
   -2.7349    2.2390    0.1039 C   0  0  0  0  0  0  0  0  0  0  0  0
   -3.4202    3.5766    0.1005 C   0  0  2  0  0  0  0  0  0  0  0  0
   -2.3759    4.6903    0.0593 C   0  0  0  0  0  0  0  0  0  0  0  0
   -4.2620    3.7231    1.3752 C   0  0  0  0  0  0  0  0  0  0  0  0
   -4.3243    3.6758   -1.1351 C   0  0  0  0  0  0  0  0  0  0  0  0
   -3.0723   -1.2719    0.1093 C   0  0  0  0  0  0  0  0  0  0  0  0
   -2.5279   -2.2931    0.8813 C   0  0  0  0  0  0  0  0  0  0  0  0
   -3.0243   -3.5810    0.7514 C   0  0  0  0  0  0  0  0  0  0  0  0
   -4.0656   -3.8534   -0.1268 C   0  0  0  0  0  0  0  0  0  0  0  0
   -4.6092   -2.8263   -0.8850 C   0  0  0  0  0  0  0  0  0  0  0  0
   -4.1111   -1.5358   -0.7778 C   0  0  0  0  0  0  0  0  0  0  0  0
    5.9873    0.7255   -0.7366 H   0  0  0  0  0  0  0  0  0  0  0  0
    3.5688    0.9688   -0.6453 H   0  0  0  0  0  0  0  0  0  0  0  0
    5.6494   -3.3750    0.4593 H   0  0  0  0  0  0  0  0  0  0  0  0
    3.2218   -3.1372    0.5656 H   0  0  0  0  0  0  0  0  0  0  0  0
    1.3598   -1.9163    0.2109 H   0  0  0  0  0  0  0  0  0  0  0  0
   -0.5852    2.6074    0.0168 H   0  0  0  0  0  0  0  0  0  0  0  0
   -4.3587    0.9953    0.5568 H   0  0  0  0  0  0  0  0  0  0  0  0
   -1.7205    4.6597    0.9302 H   0  0  0  0  0  0  0  0  0  0  0  0
   -1.7583    4.6342   -0.8380 H   0  0  0  0  0  0  0  0  0  0  0  0
   -2.8787    5.6579    0.0554 H   0  0  0  0  0  0  0  0  0  0  0  0
   -4.7373    4.7050    1.3884 H   0  0  0  0  0  0  0  0  0  0  0  0
   -5.0589    2.9797    1.4385 H   0  0  0  0  0  0  0  0  0  0  0  0
   -3.6453    3.6388    2.2711 H   0  0  0  0  0  0  0  0  0  0  0  0
   -3.7478    3.5771   -2.0558 H   0  0  0  0  0  0  0  0  0  0  0  0
   -5.1024    2.9113   -1.1377 H   0  0  0  0  0  0  0  0  0  0  0  0
   -4.8160    4.6497   -1.1522 H   0  0  0  0  0  0  0  0  0  0  0  0
   -1.7276   -2.0854    1.5757 H   0  0  0  0  0  0  0  0  0  0  0  0
   -2.6000   -4.3737    1.3531 H   0  0  0  0  0  0  0  0  0  0  0  0
   -4.4523   -4.8598   -0.2167 H   0  0  0  0  0  0  0  0  0  0  0  0
   -5.4199   -3.0248   -1.5735 H   0  0  0  0  0  0  0  0  0  0  0  0
   -4.5269   -0.7451   -1.3887 H   0  0  0  0  0  0  0  0  0  0  0  0
  1  2  1  0
  2  3  2  0
  2  5  1  0
  3  4  1  0
  3 27  1  0
  4  7  2  0
  4 28  1  0
  5  6  2  0
  5 29  1  0
  6  7  1  0
  6 30  1  0
  7  8  1  0
  8  9  1  0
  8 31  1  0
  9 10  2  0
  9 11  1  0
 11 12  2  0
 12 13  1  0
 12 14  1  0
 13 16  2  0
 13 32  1  0
 14 15  1  0
 14 21  1  0
 15 16  1  0
 15 33  1  0
 16 17  1  0
 17 18  1  6
 17 19  1  0
 17 20  1  0
 18 34  1  0
 18 35  1  0
 18 36  1  0
 19 37  1  0
 19 38  1  0
 19 39  1  0
 20 40  1  0
 20 41  1  0
 20 42  1  0
 21 22  2  0
 21 26  1  0
 22 23  1  0
 22 43  1  0
 23 24  2  0
 23 44  1  0
 24 25  1  0
 24 45  1  0
 25 26  2  0
 25 46  1  0
 26 47  1  0
M  END
