
     RDKit          3D

 50 51  0  0  0  0  0  0  0  0999 V2000
    4.5630    2.3884   -1.1341 O   0  0  0  0  0  0  0  0  0  0  0  0
    3.9247    1.1430   -1.0497 C   0  0  2  0  0  0  0  0  0  0  0  0
    2.8394    1.2534   -0.0020 C   0  0  1  0  0  0  0  0  0  0  0  0
    1.6380    2.1280   -0.3214 C   0  0  0  0  0  0  0  0  0  0  0  0
    0.5658    1.4747    0.3760 O   0  0  0  0  0  0  0  0  0  0  0  0
    4.8769    0.0290   -0.6180 C   0  0  2  0  0  0  0  0  0  0  0  0
    5.8698   -0.0759   -1.6080 O   0  0  0  0  0  0  0  0  0  0  0  0
    4.1294   -1.2926   -0.4364 C   0  0  1  0  0  0  0  0  0  0  0  0
    5.0641   -2.2440    0.0062 O   0  0  0  0  0  0  0  0  0  0  0  0
    2.9680   -1.1635    0.5524 C   0  0  2  0  0  0  0  0  0  0  0  0
    2.2268   -2.3356    0.5155 O   0  0  0  0  0  0  0  0  0  0  0  0
    2.1715   -0.0227    0.1367 N   0  0  0  0  0  0  0  0  0  0  0  0
    0.9120    0.2006    0.6242 C   0  0  0  0  0  0  0  0  0  0  0  0
    0.2042   -0.6676    1.2152 N   0  0  0  0  0  0  0  0  0  0  0  0
   -1.1452   -0.3393    1.6256 C   0  0  0  0  0  0  0  0  0  0  0  0
   -2.1685   -0.5382    0.5104 C   0  0  0  0  0  0  0  0  0  0  0  0
   -3.5838   -0.2027    0.9621 C   0  0  0  0  0  0  0  0  0  0  0  0
   -4.6225   -0.3606   -0.1413 C   0  0  0  0  0  0  0  0  0  0  0  0
   -6.0258    0.0359    0.2998 C   0  0  0  0  0  0  0  0  0  0  0  0
   -7.0676   -0.0917   -0.8042 C   0  0  0  0  0  0  0  0  0  0  0  0
   -8.4628    0.3376   -0.3671 C   0  0  0  0  0  0  0  0  0  0  0  0
   -9.4958    0.2253   -1.4797 C   0  0  0  0  0  0  0  0  0  0  0  0
    5.2978    2.3125   -1.7520 H   0  0  0  0  0  0  0  0  0  0  0  0
    3.4633    0.8606   -2.0086 H   0  0  0  0  0  0  0  0  0  0  0  0
    3.2951    1.5671    0.9510 H   0  0  0  0  0  0  0  0  0  0  0  0
    5.3186    0.3176    0.3494 H   0  0  0  0  0  0  0  0  0  0  0  0
    1.7249    3.1468    0.0467 H   0  0  0  0  0  0  0  0  0  0  0  0
    1.4169    2.1430   -1.3916 H   0  0  0  0  0  0  0  0  0  0  0  0
    6.5747   -0.6422   -1.2792 H   0  0  0  0  0  0  0  0  0  0  0  0
    3.6962   -1.5774   -1.4070 H   0  0  0  0  0  0  0  0  0  0  0  0
    4.6896   -3.1226   -0.1099 H   0  0  0  0  0  0  0  0  0  0  0  0
   -1.4051   -0.9944    2.4607 H   0  0  0  0  0  0  0  0  0  0  0  0
   -1.2268    0.6855    2.0063 H   0  0  0  0  0  0  0  0  0  0  0  0
   -1.8999    0.0917   -0.3435 H   0  0  0  0  0  0  0  0  0  0  0  0
   -2.1231   -1.5734    0.1589 H   0  0  0  0  0  0  0  0  0  0  0  0
   -3.8590   -0.8356    1.8130 H   0  0  0  0  0  0  0  0  0  0  0  0
   -3.6081    0.8281    1.3329 H   0  0  0  0  0  0  0  0  0  0  0  0
   -4.3280    0.2483   -1.0033 H   0  0  0  0  0  0  0  0  0  0  0  0
   -4.6285   -1.3981   -0.4924 H   0  0  0  0  0  0  0  0  0  0  0  0
   -6.3267   -0.5780    1.1562 H   0  0  0  0  0  0  0  0  0  0  0  0
   -6.0092    1.0698    0.6623 H   0  0  0  0  0  0  0  0  0  0  0  0
   -6.7571    0.5098   -1.6662 H   0  0  0  0  0  0  0  0  0  0  0  0
   -7.1008   -1.1284   -1.1572 H   0  0  0  0  0  0  0  0  0  0  0  0
   -8.7769   -0.2686    0.4885 H   0  0  0  0  0  0  0  0  0  0  0  0
   -8.4250    1.3703   -0.0066 H   0  0  0  0  0  0  0  0  0  0  0  0
   -9.2177    0.8402   -2.3379 H   0  0  0  0  0  0  0  0  0  0  0  0
   -9.5884   -0.8040   -1.8313 H   0  0  0  0  0  0  0  0  0  0  0  0
  -10.4822    0.5498   -1.1466 H   0  0  0  0  0  0  0  0  0  0  0  0
    3.3694   -0.9714    1.5646 H   0  0  0  0  0  0  0  0  0  0  0  0
    1.3831   -2.1412    0.9739 H   0  0  0  0  0  0  0  0  0  0  0  0
  1  2  1  0
  2  3  1  0
  3  4  1  0
  4  5  1  0
  2  6  1  0
  6  7  1  0
  6  8  1  0
  8  9  1  0
  8 10  1  0
 10 11  1  0
  3 12  1  0
 10 12  1  0
  5 13  1  0
 12 13  1  0
 13 14  2  0
 14 15  1  0
 15 16  1  0
 16 17  1  0
 17 18  1  0
 18 19  1  0
 19 20  1  0
 20 21  1  0
 21 22  1  0
  1 23  1  0
  2 24  1  6
  3 25  1  1
  6 26  1  1
  4 27  1  0
  4 28  1  0
  7 29  1  0
  8 30  1  6
  9 31  1  0
 15 32  1  0
 15 33  1  0
 16 34  1  0
 16 35  1  0
 17 36  1  0
 17 37  1  0
 18 38  1  0
 18 39  1  0
 19 40  1  0
 19 41  1  0
 20 42  1  0
 20 43  1  0
 21 44  1  0
 21 45  1  0
 22 46  1  0
 22 47  1  0
 22 48  1  0
 10 49  1  1
 11 50  1  0
M  END
