
     RDKit          3D

 28 27  0  0  0  0  0  0  0  0999 V2000
   -1.0714   -0.3111   -0.1418 P   0  0  2  0  0  0  0  0  0  0  0  0
   -1.0340   -1.7871   -0.3174 O   0  0  0  0  0  0  0  0  0  0  0  0
   -0.1063    0.4886   -1.1501 O   0  0  0  0  0  0  0  0  0  0  0  0
    0.5487   -0.1317   -2.2776 C   0  0  1  0  0  0  0  0  0  0  0  0
    0.6290    0.9138   -3.3706 C   0  0  0  0  0  0  0  0  0  0  0  0
    1.9114   -0.6418   -1.8520 C   0  0  0  0  0  0  0  0  0  0  0  0
   -0.6294    0.2243    1.3019 O   0  0  0  0  0  0  0  0  0  0  0  0
    0.6039   -0.2211    1.9147 C   0  0  1  0  0  0  0  0  0  0  0  0
    1.5870    0.9316    1.9312 C   0  0  0  0  0  0  0  0  0  0  0  0
    0.2714   -0.7315    3.3012 C   0  0  0  0  0  0  0  0  0  0  0  0
   -2.6791    0.4565   -0.3320 C   0  0  0  0  0  0  0  0  0  0  0  0
   -0.0581   -0.9710   -2.6285 H   0  0  0  0  0  0  0  0  0  0  0  0
    1.1082    0.4911   -4.2535 H   0  0  0  0  0  0  0  0  0  0  0  0
   -0.3630    1.2594   -3.6618 H   0  0  0  0  0  0  0  0  0  0  0  0
    1.2172    1.7755   -3.0506 H   0  0  0  0  0  0  0  0  0  0  0  0
    2.5305    0.1722   -1.4700 H   0  0  0  0  0  0  0  0  0  0  0  0
    1.8247   -1.4044   -1.0778 H   0  0  0  0  0  0  0  0  0  0  0  0
    2.4281   -1.0881   -2.7019 H   0  0  0  0  0  0  0  0  0  0  0  0
    1.0257   -1.0448    1.3294 H   0  0  0  0  0  0  0  0  0  0  0  0
    2.5203    0.6148    2.3972 H   0  0  0  0  0  0  0  0  0  0  0  0
    1.8174    1.2745    0.9227 H   0  0  0  0  0  0  0  0  0  0  0  0
    1.1959    1.7751    2.5024 H   0  0  0  0  0  0  0  0  0  0  0  0
   -0.1562    0.0598    3.9191 H   0  0  0  0  0  0  0  0  0  0  0  0
   -0.4347   -1.5608    3.2594 H   0  0  0  0  0  0  0  0  0  0  0  0
    1.1771   -1.0884    3.7917 H   0  0  0  0  0  0  0  0  0  0  0  0
   -2.6267    1.5354   -0.1969 H   0  0  0  0  0  0  0  0  0  0  0  0
   -3.0554    0.2490   -1.3333 H   0  0  0  0  0  0  0  0  0  0  0  0
   -3.3814    0.0427    0.3904 H   0  0  0  0  0  0  0  0  0  0  0  0
  1  2  2  0
  1  3  1  6
  1  7  1  0
  1 11  1  0
  3  4  1  0
  4  5  1  0
  4  6  1  0
  4 12  1  6
  5 13  1  0
  5 14  1  0
  5 15  1  0
  6 16  1  0
  6 17  1  0
  6 18  1  0
  7  8  1  0
  8  9  1  0
  8 10  1  0
  8 19  1  6
  9 20  1  0
  9 21  1  0
  9 22  1  0
 10 23  1  0
 10 24  1  0
 10 25  1  0
 11 26  1  0
 11 27  1  0
 11 28  1  0
M  END
