
     RDKit          3D

 18 17  0  0  0  0  0  0  0  0999 V2000
   -0.2500   -0.0200    3.0890 N   0  0  0  0  0  0  0  0  0  0  0  0
    0.5350   -0.0200    1.8490 C   0  0  0  0  0  0  0  0  0  0  0  0
   -0.4090   -0.0200    0.6460 C   0  0  0  0  0  0  0  0  0  0  0  0
    0.4090   -0.0200   -0.6460 C   0  0  0  0  0  0  0  0  0  0  0  0
   -0.5350   -0.0200   -1.8490 C   0  0  0  0  0  0  0  0  0  0  0  0
    0.2500   -0.0200   -3.0890 N   0  0  0  0  0  0  0  0  0  0  0  0
   -0.7340    0.8640    3.1260 H   0  0  0  0  0  0  0  0  0  0  0  0
    0.4100   -0.0200    3.8520 H   0  0  0  0  0  0  0  0  0  0  0  0
    1.1640    0.8690    1.8170 H   0  0  0  0  0  0  0  0  0  0  0  0
    1.1640   -0.9100    1.8170 H   0  0  0  0  0  0  0  0  0  0  0  0
   -1.0380   -0.9100    0.6780 H   0  0  0  0  0  0  0  0  0  0  0  0
   -1.0380    0.8690    0.6780 H   0  0  0  0  0  0  0  0  0  0  0  0
    1.0380    0.8690   -0.6780 H   0  0  0  0  0  0  0  0  0  0  0  0
    1.0380   -0.9100   -0.6780 H   0  0  0  0  0  0  0  0  0  0  0  0
   -1.1640   -0.9100   -1.8170 H   0  0  0  0  0  0  0  0  0  0  0  0
   -1.1640    0.8690   -1.8170 H   0  0  0  0  0  0  0  0  0  0  0  0
   -0.4100   -0.0200   -3.8520 H   0  0  0  0  0  0  0  0  0  0  0  0
    0.7350    0.8640   -3.1260 H   0  0  0  0  0  0  0  0  0  0  0  0
  1  2  1  0
  1  7  1  0
  1  8  1  0
  2  3  1  0
  2  9  1  0
  2 10  1  0
  3  4  1  0
  3 11  1  0
  3 12  1  0
  4  5  1  0
  4 13  1  0
  4 14  1  0
  5  6  1  0
  5 15  1  0
  5 16  1  0
  6 17  1  0
  6 18  1  0
M  END
