
     RDKit          3D

 47 50  0  0  0  0  0  0  0  0999 V2000
   -6.1598   -0.4864   -0.5566 F   0  0  0  0  0  0  0  0  0  0  0  0
   -4.8354   -0.5151   -0.3298 C   0  0  0  0  0  0  0  0  0  0  0  0
   -4.2430   -1.5746    0.3258 C   0  0  0  0  0  0  0  0  0  0  0  0
   -5.0438   -2.7400    0.8066 C   0  0  0  0  0  0  0  0  0  0  0  0
   -2.9289   -1.5724    0.5335 N   0  0  0  0  0  0  0  0  0  0  0  0
   -4.0445    0.5406   -0.7582 C   0  0  0  0  0  0  0  0  0  0  0  0
   -4.8088    1.8746   -1.5895 S   0  0  0  0  0  0  0  0  0  0  0  0
   -3.3928    2.9381   -1.9300 C   0  0  0  0  0  0  0  0  0  0  0  0
   -2.7450    0.5410   -0.5414 N   0  0  0  0  0  0  0  0  0  0  0  0
   -2.2379   -0.5205    0.0933 C   0  0  0  0  0  0  0  0  0  0  0  0
   -0.9079   -0.5207    0.3085 N   0  0  0  0  0  0  0  0  0  0  0  0
   -0.2179   -1.5989    0.9863 C   0  0  0  0  0  0  0  0  0  0  0  0
    1.2141   -1.0572    1.0969 C   0  0  2  0  0  0  0  0  0  0  0  0
    2.7962   -2.5384   -0.0408 N   0  0  0  0  0  0  0  0  0  0  0  0
    1.4588   -1.0398   -1.2561 N   0  0  0  0  0  0  0  0  0  0  0  0
   -0.0284    0.5198   -0.1694 C   0  0  0  0  0  0  0  0  0  0  0  0
    1.3449   -0.1563   -0.1307 C   0  0  1  0  0  0  0  0  0  0  0  0
    2.4890    0.8223   -0.0669 C   0  0  0  0  0  0  0  0  0  0  0  0
    3.4895    0.9879   -0.9836 C   0  0  0  0  0  0  0  0  0  0  0  0
    4.4076    1.9977   -0.6235 C   0  0  0  0  0  0  0  0  0  0  0  0
    4.0861    2.5850    0.5699 C   0  0  0  0  0  0  0  0  0  0  0  0
    2.6601    1.9044    1.2561 S   0  0  0  0  0  0  0  0  0  0  0  0
    4.7844    3.6208    1.2226 C   0  0  0  0  0  0  0  0  0  0  0  0
    5.3536    4.4683    1.7594 N   0  0  0  0  0  0  0  0  0  0  0  0
    2.2527   -2.1420    1.1547 C   0  0  0  0  0  0  0  0  0  0  0  0
    3.8254   -3.5676   -0.0425 C   0  0  0  0  0  0  0  0  0  0  0  0
    2.3428   -2.0824   -1.2894 C   0  0  0  0  0  0  0  0  0  0  0  0
   -5.4913   -3.2775   -0.0306 H   0  0  0  0  0  0  0  0  0  0  0  0
   -4.4074   -3.4280    1.3571 H   0  0  0  0  0  0  0  0  0  0  0  0
   -5.8587   -2.4204    1.4565 H   0  0  0  0  0  0  0  0  0  0  0  0
   -2.9189    3.2691   -1.0100 H   0  0  0  0  0  0  0  0  0  0  0  0
   -2.6639    2.4334   -2.5584 H   0  0  0  0  0  0  0  0  0  0  0  0
   -3.7929    3.7990   -2.4613 H   0  0  0  0  0  0  0  0  0  0  0  0
   -0.6382   -1.8004    1.9713 H   0  0  0  0  0  0  0  0  0  0  0  0
   -0.2617   -2.5266    0.4089 H   0  0  0  0  0  0  0  0  0  0  0  0
    1.3038   -0.4704    2.0133 H   0  0  0  0  0  0  0  0  0  0  0  0
    3.2619   -3.3942   -2.3403 H   0  0  0  0  0  0  0  0  0  0  0  0
   -0.2898    0.8549   -1.1743 H   0  0  0  0  0  0  0  0  0  0  0  0
   -0.0443    1.3989    0.4837 H   0  0  0  0  0  0  0  0  0  0  0  0
    3.5731    0.4079   -1.8908 H   0  0  0  0  0  0  0  0  0  0  0  0
    5.2659    2.2837   -1.2133 H   0  0  0  0  0  0  0  0  0  0  0  0
    3.4336   -4.5209   -0.3974 H   0  0  0  0  0  0  0  0  0  0  0  0
    4.6565   -3.2618   -0.6750 H   0  0  0  0  0  0  0  0  0  0  0  0
    4.1979   -3.7032    0.9654 H   0  0  0  0  0  0  0  0  0  0  0  0
    1.2347   -0.6702   -2.1682 H   0  0  0  0  0  0  0  0  0  0  0  0
    2.5798   -2.6374    2.2124 O   0  0  0  0  0  0  0  0  0  0  0  0
    2.6775   -2.5737   -2.4121 N   0  0  0  0  0  0  0  0  0  0  0  0
 20 19  1  0
 20 21  2  0
 19 18  2  0
  4  3  1  0
 24 23  3  0
 23 21  1  0
 21 22  1  0
 18 22  1  0
 17 18  1  1
  5  3  1  0
  5 10  2  0
  3  2  2  0
 16 17  1  0
 16 11  1  0
 17 13  1  0
 17 15  1  0
 10 11  1  0
 10  9  1  0
 11 12  1  0
  2  1  1  0
  2  6  1  0
 13 12  1  0
 13 25  1  0
  9  6  2  0
  6  7  1  0
 15 27  1  0
 25 46  2  0
 25 14  1  0
  7  8  1  0
 27 14  1  0
 27 47  2  0
 14 26  1  0
  4 28  1  0
  4 29  1  0
  4 30  1  0
  8 31  1  0
  8 32  1  0
  8 33  1  0
 12 34  1  0
 12 35  1  0
 13 36  1  1
 47 37  1  0
 16 38  1  0
 16 39  1  0
 19 40  1  0
 20 41  1  0
 26 42  1  0
 26 43  1  0
 26 44  1  0
 15 45  1  0
M  END
