
     RDKit          3D

 32 33  0  0  0  0  0  0  0  0999 V2000
    0.0727    0.2512    0.1957 N   0  0  0  0  0  0  0  0  0  0  0  0
   -2.1352   -3.2339   -0.3118 N   0  0  0  0  0  0  0  0  0  0  0  0
    4.5894    0.7553    0.9067 N   0  0  0  0  0  0  0  0  0  0  0  0
   -5.4843    0.5862   -0.1040 N   0  0  0  0  0  0  0  0  0  0  0  0
   -3.4435   -0.7433    0.0409 C   0  0  0  0  0  0  0  0  0  0  0  0
   -2.0678   -0.8599    0.1024 C   0  0  0  0  0  0  0  0  0  0  0  0
   -1.2629    0.3202    0.1081 C   0  0  0  0  0  0  0  0  0  0  0  0
   -1.9174    1.5685   -0.0050 C   0  0  0  0  0  0  0  0  0  0  0  0
   -3.2822    1.6586   -0.0846 C   0  0  0  0  0  0  0  0  0  0  0  0
   -4.0551    0.4988   -0.0517 C   0  0  0  0  0  0  0  0  0  0  0  0
    0.9546    1.3960    0.1955 C   0  0  0  0  0  0  0  0  0  0  0  0
    2.3744    0.9435    0.0207 C   0  0  0  0  0  0  0  0  0  0  0  0
    3.3186    1.1336    1.0168 C   0  0  0  0  0  0  0  0  0  0  0  0
    4.9543    0.1684   -0.2043 C   0  0  0  0  0  0  0  0  0  0  0  0
    4.1103   -0.0870   -1.2765 C   0  0  0  0  0  0  0  0  0  0  0  0
    2.7944    0.3136   -1.1488 C   0  0  0  0  0  0  0  0  0  0  0  0
   -0.3330   -2.3689    0.7104 O   0  0  0  0  0  0  0  0  0  0  0  0
   -6.1307   -0.4393   -0.0440 O   0  0  0  0  0  0  0  0  0  0  0  0
   -5.9897    1.6846   -0.2071 O   0  0  0  0  0  0  0  0  0  0  0  0
    6.6172   -0.3152   -0.3161 Cl  0  0  0  0  0  0  0  0  0  0  0  0
    0.4509   -0.6462    0.4705 H   0  0  0  0  0  0  0  0  0  0  0  0
   -2.9473   -3.1095   -0.8904 H   0  0  0  0  0  0  0  0  0  0  0  0
   -1.7417   -4.1604   -0.2749 H   0  0  0  0  0  0  0  0  0  0  0  0
   -4.0602   -1.6304    0.0827 H   0  0  0  0  0  0  0  0  0  0  0  0
   -1.3402    2.4820   -0.0073 H   0  0  0  0  0  0  0  0  0  0  0  0
   -3.7428    2.6335   -0.1564 H   0  0  0  0  0  0  0  0  0  0  0  0
    0.6926    2.0642   -0.6287 H   0  0  0  0  0  0  0  0  0  0  0  0
    0.8590    1.9766    1.1192 H   0  0  0  0  0  0  0  0  0  0  0  0
    3.0420    1.6166    1.9479 H   0  0  0  0  0  0  0  0  0  0  0  0
    4.4686   -0.5743   -2.1716 H   0  0  0  0  0  0  0  0  0  0  0  0
    2.0983    0.1416   -1.9603 H   0  0  0  0  0  0  0  0  0  0  0  0
   -1.4369   -2.2086    0.1917 C   0  0  0  0  0  0  0  0  0  0  0  0
  1  7  1  0
  1 11  1  0
  1 21  1  0
  2 32  1  0
  2 22  1  0
  2 23  1  0
  3 14  2  0
  4 18  1  0
  5 10  2  0
  5 24  1  0
  6  5  1  0
  6  7  2  0
  7  8  1  0
  8  9  2  0
  8 25  1  0
  9 26  1  0
 10  4  1  0
 10  9  1  0
 32  6  1  0
 11 12  1  0
 11 27  1  0
 11 28  1  0
 12 16  1  0
 13 12  2  0
 13  3  1  0
 13 29  1  0
 14 15  1  0
 14 20  1  0
 15 30  1  0
 16 15  2  0
 16 31  1  0
 17 32  2  0
 19  4  2  0
M  CHG  2   4   1  18  -1
M  END
