
     RDKit          3D

 20 20  0  0  0  0  0  0  0  0999 V2000
    1.3401   -2.1808   -0.0562 N   0  0  0  0  0  0  0  0  0  0  0  0
   -3.6068    1.1220   -0.0545 O   0  0  0  0  0  0  0  0  0  0  0  0
    3.5315   -0.5634    0.0111 O   0  0  0  0  0  0  0  0  0  0  0  0
   -3.5478   -1.1039    0.0400 O   0  0  0  0  0  0  0  0  0  0  0  0
    3.1933    1.6315   -0.0263 O   0  0  0  0  0  0  0  0  0  0  0  0
   -0.8738    1.3611   -0.0230 C   0  0  0  0  0  0  0  0  0  0  0  0
    0.5002    1.4148   -0.0246 C   0  0  0  0  0  0  0  0  0  0  0  0
   -0.7400   -1.0466   -0.0120 C   0  0  0  0  0  0  0  0  0  0  0  0
   -2.9775   -0.0412   -0.0052 C   0  0  0  0  0  0  0  0  0  0  0  0
    2.7618    0.3762   -0.0122 C   0  0  0  0  0  0  0  0  0  0  0  0
    0.6696   -1.0121   -0.0230 C   0  0  0  0  0  0  0  0  0  0  0  0
   -1.4944    0.1055   -0.0140 C   0  0  0  0  0  0  0  0  0  0  0  0
    1.2950    0.2603   -0.0233 C   0  0  0  0  0  0  0  0  0  0  0  0
    0.8381   -3.0396    0.0861 H   0  0  0  0  0  0  0  0  0  0  0  0
    2.3379   -2.1962    0.0584 H   0  0  0  0  0  0  0  0  0  0  0  0
   -4.5652    0.9809   -0.0475 H   0  0  0  0  0  0  0  0  0  0  0  0
    4.1617    1.6413   -0.0112 H   0  0  0  0  0  0  0  0  0  0  0  0
   -1.4470    2.2761   -0.0239 H   0  0  0  0  0  0  0  0  0  0  0  0
    0.9763    2.3850   -0.0249 H   0  0  0  0  0  0  0  0  0  0  0  0
   -1.2315   -2.0114   -0.0056 H   0  0  0  0  0  0  0  0  0  0  0  0
 11  1  1  0
  1 14  1  0
  1 15  1  0
  9  2  1  0
  2 16  1  0
  3 10  2  0
  4  9  2  0
 10  5  1  0
  5 17  1  0
  6 12  2  0
  6  7  1  0
  6 18  1  0
  7 13  2  0
  7 19  1  0
 12  8  1  0
  8 11  2  0
  8 20  1  0
  9 12  1  0
 13 10  1  0
 13 11  1  0
M  END
