
     RDKit          3D

 31 32  0  0  0  0  0  0  0  0999 V2000
    6.1690   -1.0899    0.3886 C   0  0  0  0  0  0  0  0  0  0  0  0
    5.0229   -0.4310    0.2785 C   0  0  0  0  0  0  0  0  0  0  0  0
    4.3553   -0.1300   -1.0295 C   0  0  0  0  0  0  0  0  0  0  0  0
    2.9997   -0.6478   -1.0914 N   0  0  0  0  0  0  0  0  0  0  0  0
    1.9584    0.0002   -0.5797 C   0  0  0  0  0  0  0  0  0  0  0  0
    2.0471    1.1890   -0.0378 N   0  0  0  0  0  0  0  0  0  0  0  0
    0.8357    1.6279    0.3733 C   0  0  0  0  0  0  0  0  0  0  0  0
   -0.2446    0.7492    0.1785 C   0  0  0  0  0  0  0  0  0  0  0  0
    0.3668   -0.7015   -0.6148 S   0  0  0  0  0  0  0  0  0  0  0  0
    0.7450    2.8318    0.9322 N   0  0  0  0  0  0  0  0  0  0  0  0
   -1.6027    1.0194    0.4764 C   0  0  0  0  0  0  0  0  0  0  0  0
   -2.6200   -0.0483    0.2315 C   0  0  0  0  0  0  0  0  0  0  0  0
   -3.8051    0.2864   -0.4221 C   0  0  0  0  0  0  0  0  0  0  0  0
   -4.7778   -0.6757   -0.6453 C   0  0  0  0  0  0  0  0  0  0  0  0
   -4.5901   -1.9758   -0.1906 C   0  0  0  0  0  0  0  0  0  0  0  0
   -3.4257   -2.3085    0.4871 C   0  0  0  0  0  0  0  0  0  0  0  0
   -2.4411   -1.3509    0.6924 C   0  0  0  0  0  0  0  0  0  0  0  0
   -1.9810    2.1156    0.9102 O   0  0  0  0  0  0  0  0  0  0  0  0
    6.6261   -1.2730    1.3521 H   0  0  0  0  0  0  0  0  0  0  0  0
    6.6980   -1.4652   -0.4801 H   0  0  0  0  0  0  0  0  0  0  0  0
    4.5174   -0.0669    1.1677 H   0  0  0  0  0  0  0  0  0  0  0  0
    4.3178    0.9468   -1.1990 H   0  0  0  0  0  0  0  0  0  0  0  0
    4.9117   -0.5707   -1.8560 H   0  0  0  0  0  0  0  0  0  0  0  0
    2.8776   -1.5952   -1.4105 H   0  0  0  0  0  0  0  0  0  0  0  0
    1.5646    3.4062    1.0225 H   0  0  0  0  0  0  0  0  0  0  0  0
   -0.1559    3.1974    1.1907 H   0  0  0  0  0  0  0  0  0  0  0  0
   -3.9609    1.2997   -0.7703 H   0  0  0  0  0  0  0  0  0  0  0  0
   -5.6858   -0.4104   -1.1710 H   0  0  0  0  0  0  0  0  0  0  0  0
   -5.3522   -2.7254   -0.3599 H   0  0  0  0  0  0  0  0  0  0  0  0
   -3.2827   -3.3137    0.8619 H   0  0  0  0  0  0  0  0  0  0  0  0
   -1.5475   -1.6202    1.2421 H   0  0  0  0  0  0  0  0  0  0  0  0
  1  2  2  0
  2  3  1  0
  3  4  1  0
  4  5  1  0
  5  6  2  0
  5  9  1  0
  6  7  1  0
  7  8  2  0
  7 10  1  0
  8  9  1  0
  8 11  1  0
 11 12  1  0
 11 18  2  0
 12 13  2  0
 12 17  1  0
 13 14  1  0
 14 15  2  0
 15 16  1  0
 16 17  2  0
  1 19  1  0
  1 20  1  0
  2 21  1  0
  3 22  1  0
  3 23  1  0
  4 24  1  0
 10 25  1  0
 10 26  1  0
 13 27  1  0
 14 28  1  0
 15 29  1  0
 16 30  1  0
 17 31  1  0
M  END
