
     RDKit          3D

 49 51  0  0  0  0  0  0  0  0999 V2000
    5.1476    2.8892   -1.1062 C   0  0  0  0  0  0  0  0  0  0  0  0
    4.3770    1.8524   -0.3172 C   0  0  1  0  0  0  0  0  0  0  0  0
    5.1184    1.4802    0.9484 C   0  0  0  0  0  0  0  0  0  0  0  0
    2.9450    2.3546   -0.0274 C   0  0  2  0  0  0  0  0  0  0  0  0
    2.9042    3.4904    0.8624 N   0  0  0  0  0  0  0  0  0  0  0  0
    2.1103    1.1518    0.4868 C   0  0  0  0  0  0  0  0  0  0  0  0
    1.8176    1.0317    1.6934 O   0  0  0  0  0  0  0  0  0  0  0  0
    1.6694    0.2382   -0.4522 N   0  0  0  0  0  0  0  0  0  0  0  0
    0.9205   -0.9246   -0.1010 C   0  0  2  0  0  0  0  0  0  0  0  0
    1.5757   -2.2973   -0.4310 C   0  0  2  0  0  0  0  0  0  0  0  0
    2.4377   -2.1639   -1.5458 O   0  0  0  0  0  0  0  0  0  0  0  0
    0.3815   -3.2076   -0.7694 C   0  0  1  0  0  0  0  0  0  0  0  0
   -0.0547   -4.0681    0.4195 C   0  0  0  0  0  0  0  0  0  0  0  0
    0.7778   -5.2018    0.5446 O   0  0  0  0  0  0  0  0  0  0  0  0
   -0.7079   -2.3780   -1.1806 O   0  0  0  0  0  0  0  0  0  0  0  0
   -0.4734   -0.9981   -0.8446 C   0  0  1  0  0  0  0  0  0  0  0  0
   -1.5634   -0.4924   -0.0545 N   0  0  0  0  0  0  0  0  0  0  0  0
   -2.0613   -1.0068    1.1720 C   0  0  0  0  0  0  0  0  0  0  0  0
   -3.1679   -0.3911    1.6055 N   0  0  0  0  0  0  0  0  0  0  0  0
   -3.4556    0.5746    0.6274 C   0  0  0  0  0  0  0  0  0  0  0  0
   -2.4630    0.5175   -0.4395 C   0  0  0  0  0  0  0  0  0  0  0  0
   -2.4760    1.3387   -1.5314 N   0  0  0  0  0  0  0  0  0  0  0  0
   -3.5129    2.2100   -1.5142 C   0  0  0  0  0  0  0  0  0  0  0  0
   -4.5024    2.3793   -0.5989 N   0  0  0  0  0  0  0  0  0  0  0  0
   -4.4972    1.5543    0.5036 C   0  0  0  0  0  0  0  0  0  0  0  0
   -5.4712    1.6514    1.4605 N   0  0  0  0  0  0  0  0  0  0  0  0
    6.1608    2.4941   -1.3610 H   0  0  0  0  0  0  0  0  0  0  0  0
    4.6123    3.1369   -2.0544 H   0  0  0  0  0  0  0  0  0  0  0  0
    5.2715    3.8286   -0.5154 H   0  0  0  0  0  0  0  0  0  0  0  0
    4.2779    0.9287   -0.9560 H   0  0  0  0  0  0  0  0  0  0  0  0
    6.0228    0.8758    0.6950 H   0  0  0  0  0  0  0  0  0  0  0  0
    5.4555    2.3918    1.4989 H   0  0  0  0  0  0  0  0  0  0  0  0
    4.4622    0.8785    1.6243 H   0  0  0  0  0  0  0  0  0  0  0  0
    2.4933    2.6989   -1.0076 H   0  0  0  0  0  0  0  0  0  0  0  0
    1.9537    3.7464    1.0515 H   0  0  0  0  0  0  0  0  0  0  0  0
    3.3572    3.2749    1.7308 H   0  0  0  0  0  0  0  0  0  0  0  0
    2.0039    0.2921   -1.3863 H   0  0  0  0  0  0  0  0  0  0  0  0
    0.7460   -0.9096    1.0192 H   0  0  0  0  0  0  0  0  0  0  0  0
    2.1432   -2.6872    0.4558 H   0  0  0  0  0  0  0  0  0  0  0  0
    2.9245   -2.9942   -1.6196 H   0  0  0  0  0  0  0  0  0  0  0  0
    0.6100   -3.8588   -1.6581 H   0  0  0  0  0  0  0  0  0  0  0  0
    0.0694   -3.5124    1.3879 H   0  0  0  0  0  0  0  0  0  0  0  0
   -1.1301   -4.3635    0.2947 H   0  0  0  0  0  0  0  0  0  0  0  0
    0.5569   -5.8023   -0.1779 H   0  0  0  0  0  0  0  0  0  0  0  0
   -0.4608   -0.4425   -1.8302 H   0  0  0  0  0  0  0  0  0  0  0  0
   -1.5496   -1.8312    1.6831 H   0  0  0  0  0  0  0  0  0  0  0  0
   -3.5667    2.8987   -2.3855 H   0  0  0  0  0  0  0  0  0  0  0  0
   -5.4097    1.0791    2.2649 H   0  0  0  0  0  0  0  0  0  0  0  0
   -6.1657    2.3534    1.4061 H   0  0  0  0  0  0  0  0  0  0  0  0
  1  2  1  0
  1 27  1  0
  1 28  1  0
  1 29  1  0
  2  3  1  0
  2  4  1  0
  2 30  1  6
  3 31  1  0
  3 32  1  0
  3 33  1  0
  4  5  1  0
  4  6  1  0
  4 34  1  6
  5 35  1  0
  5 36  1  0
  6  7  2  0
  6  8  1  0
  8  9  1  0
  8 37  1  0
  9 10  1  0
  9 16  1  0
  9 38  1  1
 10 11  1  0
 10 12  1  0
 10 39  1  1
 11 40  1  0
 12 13  1  0
 12 15  1  0
 12 41  1  6
 13 14  1  0
 13 42  1  0
 13 43  1  0
 14 44  1  0
 15 16  1  0
 16 17  1  0
 16 45  1  6
 17 18  1  0
 17 21  1  0
 18 19  2  0
 18 46  1  0
 19 20  1  0
 20 21  2  0
 20 25  1  0
 21 22  1  0
 22 23  2  0
 23 24  1  0
 23 47  1  0
 24 25  2  0
 25 26  1  0
 26 48  1  0
 26 49  1  0
M  END
