
     RDKit          3D

 39 38  0  0  0  0  0  0  0  0999 V2000
    0.4228   -9.2829   -2.7926 O   0  0  0  0  0  0  0  0  0  0  0  0
    1.6132   -9.1052   -3.0645 C   0  0  0  0  0  0  0  0  0  0  0  0
    2.3216   -7.8410   -3.5458 C   0  0  1  0  0  0  0  0  0  0  0  0
    3.0020   -7.9689   -4.8086 N   0  0  0  0  0  0  0  0  0  0  0  0
    1.3053   -6.6799   -3.5471 C   0  0  0  0  0  0  0  0  0  0  0  0
    0.9752   -6.4220   -2.1986 O   0  0  0  0  0  0  0  0  0  0  0  0
   -0.1455   -5.2903   -1.9979 P   0  0  1  0  0  0  0  0  0  0  0  0
    0.0999   -4.8378   -0.4925 O   0  0  0  0  0  0  0  0  0  0  0  0
   -0.0483   -4.1922   -2.9442 O   0  0  0  0  0  0  0  0  0  0  0  0
   -1.5198   -6.0906   -1.9366 O   0  0  0  0  0  0  0  0  0  0  0  0
   -1.6531   -7.0408   -0.8908 C   0  0  0  0  0  0  0  0  0  0  0  0
   -2.9405   -7.8471   -1.0980 C   0  0  1  0  0  0  0  0  0  0  0  0
   -4.1392   -7.0133   -0.6787 C   0  0  0  0  0  0  0  0  0  0  0  0
   -3.0819   -8.2080   -2.5703 C   0  0  0  0  0  0  0  0  0  0  0  0
   -2.8934   -9.1619   -0.2799 C   0  0  1  0  0  0  0  0  0  0  0  0
   -2.2019  -10.1895   -0.9541 O   0  0  0  0  0  0  0  0  0  0  0  0
   -2.2400   -8.9850    1.1022 C   0  0  0  0  0  0  0  0  0  0  0  0
   -1.0434   -9.3012    1.2748 O   0  0  0  0  0  0  0  0  0  0  0  0
   -2.9814   -8.4875    2.1390 N   0  0  0  0  0  0  0  0  0  0  0  0
    2.4421  -10.1756   -2.9246 O   0  0  0  0  0  0  0  0  0  0  0  0
    3.1016   -7.6133   -2.7519 H   0  0  0  0  0  0  0  0  0  0  0  0
    1.9389  -10.9484   -2.6174 H   0  0  0  0  0  0  0  0  0  0  0  0
    2.3870   -8.2811   -5.5327 H   0  0  0  0  0  0  0  0  0  0  0  0
    3.7812   -8.5920   -4.7277 H   0  0  0  0  0  0  0  0  0  0  0  0
    0.3669   -6.9633   -4.0971 H   0  0  0  0  0  0  0  0  0  0  0  0
    1.7468   -5.7443   -3.9865 H   0  0  0  0  0  0  0  0  0  0  0  0
    0.1830   -3.8980   -0.3445 H   0  0  0  0  0  0  0  0  0  0  0  0
   -1.6815   -6.4777    0.0815 H   0  0  0  0  0  0  0  0  0  0  0  0
   -0.7581   -7.7251   -0.9153 H   0  0  0  0  0  0  0  0  0  0  0  0
   -4.2028   -6.1068   -1.3300 H   0  0  0  0  0  0  0  0  0  0  0  0
   -5.0814   -7.6011   -0.7894 H   0  0  0  0  0  0  0  0  0  0  0  0
   -4.0437   -6.6773    0.3811 H   0  0  0  0  0  0  0  0  0  0  0  0
   -3.4043   -7.3112   -3.1511 H   0  0  0  0  0  0  0  0  0  0  0  0
   -2.1003   -8.5632   -2.9703 H   0  0  0  0  0  0  0  0  0  0  0  0
   -3.8364   -9.0208   -2.6945 H   0  0  0  0  0  0  0  0  0  0  0  0
   -3.9426   -9.5647   -0.1826 H   0  0  0  0  0  0  0  0  0  0  0  0
   -1.2602  -10.1090   -0.7360 H   0  0  0  0  0  0  0  0  0  0  0  0
   -2.5659   -8.3733    3.0303 H   0  0  0  0  0  0  0  0  0  0  0  0
   -3.9269   -8.2367    2.0170 H   0  0  0  0  0  0  0  0  0  0  0  0
  1  2  2  0
  2  3  1  0
  3  4  1  0
  3  5  1  0
  5  6  1  0
  7  6  1  6
  7  8  1  0
  7  9  2  0
  7 10  1  0
 10 11  1  0
 12 11  1  6
 12 13  1  0
 12 14  1  0
 12 15  1  0
 15 16  1  0
 15 17  1  0
 17 18  2  0
 17 19  1  0
  2 20  1  0
  3 21  1  1
 20 22  1  0
  4 23  1  0
  4 24  1  0
  5 25  1  0
  5 26  1  0
  8 27  1  0
 11 28  1  0
 11 29  1  0
 13 30  1  0
 13 31  1  0
 13 32  1  0
 14 33  1  0
 14 34  1  0
 14 35  1  0
 15 36  1  1
 16 37  1  0
 19 38  1  0
 19 39  1  0
M  END
