
     RDKit          3D

 60 63  0  0  0  0  0  0  0  0999 V2000
   -4.6187   -1.9951   -0.0295 C   0  0  0  0  0  0  0  0  0  0  0  0
   -4.3924   -3.3714   -0.0380 C   0  0  0  0  0  0  0  0  0  0  0  0
   -3.0795   -3.7297   -0.2552 C   0  0  0  0  0  0  0  0  0  0  0  0
   -2.0945   -2.8597   -0.4473 N   0  0  0  0  0  0  0  0  0  0  0  0
   -2.4392   -1.5718   -0.4305 C   0  0  0  0  0  0  0  0  0  0  0  0
   -3.6815   -1.1050   -0.2189 N   0  0  0  0  0  0  0  0  0  0  0  0
   -5.8763   -1.5738    0.1883 O   0  0  0  0  0  0  0  0  0  0  0  0
   -6.1328   -0.2229    0.2249 C   0  0  0  0  0  0  0  0  0  0  0  0
   -1.4929   -0.6448   -0.6598 N   0  0  0  0  0  0  0  0  0  0  0  0
   -0.0776   -0.9264   -0.7513 C   0  0  1  0  0  0  0  0  0  0  0  0
    0.6141    0.1650   -1.5519 C   0  0  0  0  0  0  0  0  0  0  0  0
    2.1169   -0.0635   -1.6335 C   0  0  0  0  0  0  0  0  0  0  0  0
    2.7014   -0.2046   -0.3129 N   0  0  0  0  0  0  0  0  0  0  0  0
    2.0796   -1.2546    0.4849 C   0  0  0  0  0  0  0  0  0  0  0  0
    0.5817   -1.0428    0.6188 C   0  0  0  0  0  0  0  0  0  0  0  0
    4.0240    0.1093   -0.1142 C   0  0  0  0  0  0  0  0  0  0  0  0
    4.5683    0.1546    1.1849 C   0  0  0  0  0  0  0  0  0  0  0  0
    5.8813    0.5115    1.4032 C   0  0  0  0  0  0  0  0  0  0  0  0
    6.7052    0.8292    0.3289 C   0  0  0  0  0  0  0  0  0  0  0  0
    6.1989    0.7861   -0.9638 C   0  0  0  0  0  0  0  0  0  0  0  0
    4.8841    0.4294   -1.1832 C   0  0  0  0  0  0  0  0  0  0  0  0
   -6.4955    0.4132   -0.9595 C   0  0  0  0  0  0  0  0  0  0  0  0
   -6.8371    1.7560   -0.8896 C   0  0  0  0  0  0  0  0  0  0  0  0
   -6.8051    2.4251    0.3312 C   0  0  0  0  0  0  0  0  0  0  0  0
   -6.4318    1.7627    1.4979 C   0  0  0  0  0  0  0  0  0  0  0  0
   -6.0831    0.4208    1.4586 C   0  0  0  0  0  0  0  0  0  0  0  0
   -5.6723   -0.3098    2.7006 C   0  0  0  0  0  0  0  0  0  0  0  0
   -6.5179   -0.3275   -2.2615 C   0  0  0  0  0  0  0  0  0  0  0  0
   -7.1663    3.8042    0.3906 C   0  0  0  0  0  0  0  0  0  0  0  0
   -7.4656    4.9159    0.4421 N   0  0  0  0  0  0  0  0  0  0  0  0
    8.3802    1.2762    0.5914 S   0  0  1  0  0  0  0  0  0  0  0  0
    9.1666   -0.1157    0.1529 N   0  0  0  0  0  0  0  0  0  0  0  0
    8.7937    2.2762   -0.3849 O   0  0  0  0  0  0  0  0  0  0  0  0
    8.5500    1.5936    2.0052 O   0  0  0  0  0  0  0  0  0  0  0  0
   -5.1770   -4.0961    0.1171 H   0  0  0  0  0  0  0  0  0  0  0  0
   -2.8021   -4.7780   -0.2738 H   0  0  0  0  0  0  0  0  0  0  0  0
   -1.7728    0.3139   -0.5210 H   0  0  0  0  0  0  0  0  0  0  0  0
    0.0367   -1.8770   -1.2789 H   0  0  0  0  0  0  0  0  0  0  0  0
    0.2149    0.2048   -2.5673 H   0  0  0  0  0  0  0  0  0  0  0  0
    0.4246    1.1387   -1.0886 H   0  0  0  0  0  0  0  0  0  0  0  0
    2.3269   -0.9444   -2.2569 H   0  0  0  0  0  0  0  0  0  0  0  0
    2.5550    0.7977   -2.1349 H   0  0  0  0  0  0  0  0  0  0  0  0
    2.2757   -2.2316    0.0207 H   0  0  0  0  0  0  0  0  0  0  0  0
    2.5224   -1.2884    1.4762 H   0  0  0  0  0  0  0  0  0  0  0  0
    0.3912   -0.1328    1.1951 H   0  0  0  0  0  0  0  0  0  0  0  0
    0.1542   -1.8801    1.1744 H   0  0  0  0  0  0  0  0  0  0  0  0
    3.9515   -0.0563    2.0468 H   0  0  0  0  0  0  0  0  0  0  0  0
    6.2514    0.5537    2.4187 H   0  0  0  0  0  0  0  0  0  0  0  0
    6.8279    1.0141   -1.8146 H   0  0  0  0  0  0  0  0  0  0  0  0
    4.5399    0.3795   -2.2057 H   0  0  0  0  0  0  0  0  0  0  0  0
   -7.1272    2.2835   -1.7889 H   0  0  0  0  0  0  0  0  0  0  0  0
   -6.4140    2.2951    2.4399 H   0  0  0  0  0  0  0  0  0  0  0  0
   -4.6409   -0.6598    2.6335 H   0  0  0  0  0  0  0  0  0  0  0  0
   -5.7422    0.3423    3.5692 H   0  0  0  0  0  0  0  0  0  0  0  0
   -6.3005   -1.1815    2.8841 H   0  0  0  0  0  0  0  0  0  0  0  0
   -7.1579   -1.2090   -2.2122 H   0  0  0  0  0  0  0  0  0  0  0  0
   -6.8891    0.3105   -3.0611 H   0  0  0  0  0  0  0  0  0  0  0  0
   -5.5187   -0.6633   -2.5438 H   0  0  0  0  0  0  0  0  0  0  0  0
    9.0023   -0.8719    0.8100 H   0  0  0  0  0  0  0  0  0  0  0  0
   10.1660    0.0426    0.0570 H   0  0  0  0  0  0  0  0  0  0  0  0
  1  2  2  0
  1  6  1  0
  1  7  1  0
  2  3  1  0
  3  4  2  0
  4  5  1  0
  5  6  2  0
  5  9  1  0
  7  8  1  0
  8 22  2  0
  8 26  1  0
  9 10  1  0
 10 11  1  0
 10 15  1  0
 11 12  1  0
 12 13  1  0
 13 14  1  0
 13 16  1  0
 14 15  1  0
 16 17  2  0
 16 21  1  0
 17 18  1  0
 18 19  2  0
 19 20  1  0
 19 31  1  0
 20 21  2  0
 22 23  1  0
 22 28  1  0
 23 24  2  0
 24 25  1  0
 24 29  1  0
 25 26  2  0
 26 27  1  0
 29 30  3  0
 31 32  1  6
 31 33  2  0
 31 34  2  0
  2 35  1  0
  3 36  1  0
  9 37  1  0
 10 38  1  6
 11 39  1  0
 11 40  1  0
 12 41  1  0
 12 42  1  0
 14 43  1  0
 14 44  1  0
 15 45  1  0
 15 46  1  0
 17 47  1  0
 18 48  1  0
 20 49  1  0
 21 50  1  0
 23 51  1  0
 25 52  1  0
 27 53  1  0
 27 54  1  0
 27 55  1  0
 28 56  1  0
 28 57  1  0
 28 58  1  0
 32 59  1  0
 32 60  1  0
M  END
