
     RDKit          3D

 30 32  0  0  0  0  0  0  0  0999 V2000
   -2.1500    1.4816   -0.5938 C   0  0  0  0  0  0  0  0  0  0  0  0
    1.8429   -0.0167    0.6396 C   0  0  0  0  0  0  0  0  0  0  0  0
   -3.5376   -0.3397    0.1709 C   0  0  0  0  0  0  0  0  0  0  0  0
    3.9453   -0.4246   -0.5021 C   0  0  0  0  0  0  0  0  0  0  0  0
    3.1649    0.2989    0.4079 C   0  0  0  0  0  0  0  0  0  0  0  0
   -1.1255   -0.6452   -0.0242 C   0  0  0  0  0  0  0  0  0  0  0  0
    5.2493    1.1856    0.4131 C   0  0  0  0  0  0  0  0  0  0  0  0
    3.4138   -1.4824   -1.2106 C   0  0  0  0  0  0  0  0  0  0  0  0
    2.0720   -1.7887   -1.0059 C   0  0  0  0  0  0  0  0  0  0  0  0
   -1.0367    0.6843   -0.4768 C   0  0  0  0  0  0  0  0  0  0  0  0
    1.2966   -1.0689   -0.0988 C   0  0  0  0  0  0  0  0  0  0  0  0
   -3.4027    0.9737   -0.2660 C   0  0  0  0  0  0  0  0  0  0  0  0
   -2.4176   -1.1257    0.2867 C   0  0  0  0  0  0  0  0  0  0  0  0
    5.2013    0.1385   -0.4742 N   0  0  0  0  0  0  0  0  0  0  0  0
    3.9849    1.2629    0.9467 N   0  0  0  0  0  0  0  0  0  0  0  0
   -0.0458   -1.4495    0.1007 N   0  0  0  0  0  0  0  0  0  0  0  0
   -4.5693    1.8020   -0.3832 N   0  0  0  0  0  0  0  0  0  0  0  0
   -5.6477    1.3226   -0.1035 O   0  0  0  0  0  0  0  0  0  0  0  0
   -4.4249    2.9464   -0.7567 O   0  0  0  0  0  0  0  0  0  0  0  0
   -2.5962   -2.7592    0.8347 Cl  0  0  0  0  0  0  0  0  0  0  0  0
   -2.0341    2.4944   -0.9512 H   0  0  0  0  0  0  0  0  0  0  0  0
    1.2545    0.5231    1.3700 H   0  0  0  0  0  0  0  0  0  0  0  0
   -4.5052   -0.7486    0.4237 H   0  0  0  0  0  0  0  0  0  0  0  0
    4.0103   -2.0492   -1.9122 H   0  0  0  0  0  0  0  0  0  0  0  0
    1.6205   -2.6006   -1.5611 H   0  0  0  0  0  0  0  0  0  0  0  0
   -0.0751    1.0917   -0.7533 H   0  0  0  0  0  0  0  0  0  0  0  0
    5.9906   -0.1455   -1.0323 H   0  0  0  0  0  0  0  0  0  0  0  0
    3.7190    1.9508    1.6330 H   0  0  0  0  0  0  0  0  0  0  0  0
   -0.2158   -2.4351    0.2308 H   0  0  0  0  0  0  0  0  0  0  0  0
    6.2045    1.8933    0.6718 O   0  0  0  0  0  0  0  0  0  0  0  0
 30  7  2  0
  7 14  1  0
  7 15  1  0
 14  4  1  0
 15  5  1  0
  4  5  1  0
  4  8  2  0
  5  2  2  0
  8  9  1  0
  2 11  1  0
  9 11  2  0
 11 16  1  0
 16  6  1  0
  6 10  1  0
  6 13  2  0
 20 13  1  0
 10  1  2  0
 13  3  1  0
  1 12  1  0
  3 12  2  0
 12 17  1  0
 17 19  1  0
 17 18  2  0
  1 21  1  0
  2 22  1  0
  3 23  1  0
  8 24  1  0
  9 25  1  0
 10 26  1  0
 14 27  1  0
 15 28  1  0
 16 29  1  0
M  CHG  2  17   1  19  -1
M  END
