
     RDKit          3D

 59 61  0  0  0  0  0  0  0  0999 V2000
    5.6890    3.6677   -0.1935 Cl  0  0  0  0  0  0  0  0  0  0  0  0
    4.2574    2.7678    0.1956 C   0  0  0  0  0  0  0  0  0  0  0  0
    3.0175    3.3769    0.0892 C   0  0  0  0  0  0  0  0  0  0  0  0
    1.8796    2.6487    0.4034 C   0  0  0  0  0  0  0  0  0  0  0  0
    4.3698    1.4545    0.6210 C   0  0  0  0  0  0  0  0  0  0  0  0
    3.2185    0.7444    0.9288 C   0  0  0  0  0  0  0  0  0  0  0  0
    1.9543    1.3190    0.8142 C   0  0  0  0  0  0  0  0  0  0  0  0
    0.7140    0.5283    1.1273 C   0  0  0  0  0  0  0  0  0  0  0  0
    0.0462   -0.1551   -0.0970 C   0  0  1  0  0  0  0  0  0  0  0  0
   -0.5427    0.8656   -1.0742 C   0  0  0  0  0  0  0  0  0  0  0  0
   -1.7582    1.5799   -0.5055 C   0  0  0  0  0  0  0  0  0  0  0  0
    1.0962   -1.0137   -0.8025 C   0  0  0  0  0  0  0  0  0  0  0  0
    1.4457   -0.7816   -1.9423 O   0  0  0  0  0  0  0  0  0  0  0  0
    1.6544   -2.1294   -0.0266 C   0  0  0  0  0  0  0  0  0  0  0  0
    2.5944   -2.9861   -0.4631 C   0  0  0  0  0  0  0  0  0  0  0  0
    3.1388   -2.9315   -1.6690 O   0  0  0  0  0  0  0  0  0  0  0  0
    3.0647   -4.0680    0.4757 C   0  0  0  0  0  0  0  0  0  0  0  0
    4.0120   -4.7954   -0.0880 O   0  0  0  0  0  0  0  0  0  0  0  0
    2.6332   -4.2333    1.5841 O   0  0  0  0  0  0  0  0  0  0  0  0
   -1.1030   -1.0646    0.3815 C   0  0  0  0  0  0  0  0  0  0  0  0
   -2.3084   -0.2793    0.8810 C   0  0  0  0  0  0  0  0  0  0  0  0
   -2.7934    0.6386   -0.1277 N   0  0  0  0  0  0  0  0  0  0  0  0
   -4.0133    1.3171    0.2636 C   0  0  0  0  0  0  0  0  0  0  0  0
   -5.2376    0.4110    0.3646 C   0  0  1  0  0  0  0  0  0  0  0  0
   -6.4738    1.2473    0.6991 C   0  0  0  0  0  0  0  0  0  0  0  0
   -7.7328    0.3904    0.7915 C   0  0  0  0  0  0  0  0  0  0  0  0
   -7.9527   -0.4091   -0.4887 C   0  0  0  0  0  0  0  0  0  0  0  0
   -6.7245   -1.2479   -0.8270 C   0  0  0  0  0  0  0  0  0  0  0  0
   -5.4695   -0.3849   -0.9179 C   0  0  0  0  0  0  0  0  0  0  0  0
    2.9342    4.4074   -0.2284 H   0  0  0  0  0  0  0  0  0  0  0  0
    5.3403    0.9876    0.7210 H   0  0  0  0  0  0  0  0  0  0  0  0
    0.9170    3.1392    0.3296 H   0  0  0  0  0  0  0  0  0  0  0  0
    3.3174   -0.2775    1.2734 H   0  0  0  0  0  0  0  0  0  0  0  0
    0.9474   -0.2347    1.8738 H   0  0  0  0  0  0  0  0  0  0  0  0
   -0.0201    1.1822    1.6014 H   0  0  0  0  0  0  0  0  0  0  0  0
    0.2043    1.6035   -1.3704 H   0  0  0  0  0  0  0  0  0  0  0  0
   -0.8504    0.3496   -1.9864 H   0  0  0  0  0  0  0  0  0  0  0  0
   -1.4265   -1.6978   -0.4499 H   0  0  0  0  0  0  0  0  0  0  0  0
   -0.7700   -1.7311    1.1800 H   0  0  0  0  0  0  0  0  0  0  0  0
   -1.4705    2.2272    0.3429 H   0  0  0  0  0  0  0  0  0  0  0  0
   -2.1608    2.2476   -1.2708 H   0  0  0  0  0  0  0  0  0  0  0  0
    1.2981   -2.2876    0.9800 H   0  0  0  0  0  0  0  0  0  0  0  0
    3.7899   -3.6350   -1.7939 H   0  0  0  0  0  0  0  0  0  0  0  0
    4.3275   -5.4933    0.5072 H   0  0  0  0  0  0  0  0  0  0  0  0
   -3.0931   -0.9961    1.1263 H   0  0  0  0  0  0  0  0  0  0  0  0
   -2.0623    0.2425    1.8234 H   0  0  0  0  0  0  0  0  0  0  0  0
   -3.8875    1.8625    1.2173 H   0  0  0  0  0  0  0  0  0  0  0  0
   -4.2207    2.0774   -0.4974 H   0  0  0  0  0  0  0  0  0  0  0  0
   -5.0973   -0.3036    1.1865 H   0  0  0  0  0  0  0  0  0  0  0  0
   -6.3175    1.7908    1.6357 H   0  0  0  0  0  0  0  0  0  0  0  0
   -6.6105    2.0057   -0.0817 H   0  0  0  0  0  0  0  0  0  0  0  0
   -5.5717    0.3180   -1.7546 H   0  0  0  0  0  0  0  0  0  0  0  0
   -4.5970   -1.0027   -1.1400 H   0  0  0  0  0  0  0  0  0  0  0  0
   -7.6389   -0.2994    1.6374 H   0  0  0  0  0  0  0  0  0  0  0  0
   -8.6011    1.0210    0.9988 H   0  0  0  0  0  0  0  0  0  0  0  0
   -8.8355   -1.0464   -0.3925 H   0  0  0  0  0  0  0  0  0  0  0  0
   -8.1547    0.2822   -1.3147 H   0  0  0  0  0  0  0  0  0  0  0  0
   -6.5829   -2.0085   -0.0510 H   0  0  0  0  0  0  0  0  0  0  0  0
   -6.8787   -1.7871   -1.7652 H   0  0  0  0  0  0  0  0  0  0  0  0
  1  2  1  0
  2  3  2  0
  2  5  1  0
  3  4  1  0
  4  7  2  0
  5  6  2  0
  6  7  1  0
  7  8  1  0
  8  9  1  0
  9 10  1  0
  9 12  1  6
  9 20  1  0
 10 11  1  0
 11 22  1  0
 12 13  2  0
 12 14  1  0
 14 15  2  0
 15 16  1  0
 15 17  1  0
 17 18  1  0
 17 19  2  0
 20 21  1  0
 21 22  1  0
 22 23  1  0
 23 24  1  0
 24 25  1  0
 24 29  1  0
 25 26  1  0
 26 27  1  0
 27 28  1  0
 28 29  1  0
  3 30  1  0
  5 31  1  0
  4 32  1  0
  6 33  1  0
  8 34  1  0
  8 35  1  0
 10 36  1  0
 10 37  1  0
 20 38  1  0
 20 39  1  0
 11 40  1  0
 11 41  1  0
 14 42  1  0
 16 43  1  0
 18 44  1  0
 21 45  1  0
 21 46  1  0
 23 47  1  0
 23 48  1  0
 24 49  1  1
 25 50  1  0
 25 51  1  0
 29 52  1  0
 29 53  1  0
 26 54  1  0
 26 55  1  0
 27 56  1  0
 27 57  1  0
 28 58  1  0
 28 59  1  0
M  END
