
     RDKit          3D

 59 63  0  0  0  0  0  0  0  0999 V2000
    3.1135    2.6715    1.6872 C   0  0  0  0  0  0  0  0  0  0  0  0
    2.1409    2.0483    0.9053 C   0  0  0  0  0  0  0  0  0  0  0  0
    2.1783    0.6651    0.6787 C   0  0  0  0  0  0  0  0  0  0  0  0
    0.4707    1.6154   -0.3336 C   0  0  0  0  0  0  0  0  0  0  0  0
   -0.8750    1.3757   -2.4315 C   0  0  0  0  0  0  0  0  0  0  0  0
   -3.1743    2.0266   -2.4568 C   0  0  0  0  0  0  0  0  0  0  0  0
   -1.8938    2.2991   -0.4584 C   0  0  0  0  0  0  0  0  0  0  0  0
    1.5785   -1.8254   -1.2044 C   0  0  1  0  0  0  0  0  0  0  0  0
   -0.0753   -1.4913    0.7269 C   0  0  0  0  0  0  0  0  0  0  0  0
    0.8228   -3.0167   -1.8023 C   0  0  0  0  0  0  0  0  0  0  0  0
    2.5463   -3.2263   -3.6269 C   0  0  0  0  0  0  0  0  0  0  0  0
    2.3656   -1.0935   -2.2903 C   0  0  0  0  0  0  0  0  0  0  0  0
    4.0885    1.8714    2.2249 C   0  0  0  0  0  0  0  0  0  0  0  0
    4.1085    0.4901    2.0041 C   0  0  0  0  0  0  0  0  0  0  0  0
    3.1626   -0.1459    1.2365 C   0  0  0  0  0  0  0  0  0  0  0  0
    1.0640    2.6044    0.2681 N   0  0  0  0  0  0  0  0  0  0  0  0
    1.1014    0.4083   -0.1416 N   0  0  0  0  0  0  0  0  0  0  0  0
    0.5742   -0.8939   -0.5273 C   0  0  1  0  0  0  0  0  0  0  0  0
    1.7596   -3.9605   -2.5489 C   0  0  0  0  0  0  0  0  0  0  0  0
    3.2981   -2.0382   -3.0404 C   0  0  0  0  0  0  0  0  0  0  0  0
   -1.3845   -1.1373    0.8576 N   0  0  0  0  0  0  0  0  0  0  0  0
   -2.2481   -1.3797    1.9240 C   0  0  0  0  0  0  0  0  0  0  0  0
   -3.6308   -1.2566    1.6953 C   0  0  0  0  0  0  0  0  0  0  0  0
   -4.5491   -1.4417    2.7281 C   0  0  0  0  0  0  0  0  0  0  0  0
   -4.1053   -1.7614    3.9962 C   0  0  0  0  0  0  0  0  0  0  0  0
   -2.7413   -1.8893    4.2233 C   0  0  0  0  0  0  0  0  0  0  0  0
   -1.8160   -1.7018    3.2083 C   0  0  0  0  0  0  0  0  0  0  0  0
   -4.1112   -0.9435    0.3908 C   0  0  0  0  0  0  0  0  0  0  0  0
   -4.4796   -0.6907   -0.6724 N   0  0  0  0  0  0  0  0  0  0  0  0
   -0.7786    1.7571   -1.0946 C   0  0  0  0  0  0  0  0  0  0  0  0
   -2.0716    1.5066   -3.1170 C   0  0  0  0  0  0  0  0  0  0  0  0
   -3.0951    2.4329   -1.1343 C   0  0  0  0  0  0  0  0  0  0  0  0
    5.0888   -0.2216    2.5721 F   0  0  0  0  0  0  0  0  0  0  0  0
    5.0541    2.3995    2.9873 F   0  0  0  0  0  0  0  0  0  0  0  0
    3.1015    3.7383    1.8672 H   0  0  0  0  0  0  0  0  0  0  0  0
   -0.0103    0.9883   -2.9560 H   0  0  0  0  0  0  0  0  0  0  0  0
   -1.8283    2.6059    0.5772 H   0  0  0  0  0  0  0  0  0  0  0  0
    2.2813   -2.2250   -0.4684 H   0  0  0  0  0  0  0  0  0  0  0  0
    0.2932   -3.5685   -1.0212 H   0  0  0  0  0  0  0  0  0  0  0  0
    0.0570   -2.6436   -2.4927 H   0  0  0  0  0  0  0  0  0  0  0  0
    3.2427   -3.9087   -4.1198 H   0  0  0  0  0  0  0  0  0  0  0  0
    1.8574   -2.8730   -4.4018 H   0  0  0  0  0  0  0  0  0  0  0  0
    1.6650   -0.6401   -3.0018 H   0  0  0  0  0  0  0  0  0  0  0  0
    2.9475   -0.2743   -1.8628 H   0  0  0  0  0  0  0  0  0  0  0  0
    3.2087   -1.2165    1.1063 H   0  0  0  0  0  0  0  0  0  0  0  0
   -0.2010   -0.6989   -1.2699 H   0  0  0  0  0  0  0  0  0  0  0  0
    2.4541   -4.4198   -1.8376 H   0  0  0  0  0  0  0  0  0  0  0  0
    1.1811   -4.7770   -2.9866 H   0  0  0  0  0  0  0  0  0  0  0  0
    4.0745   -2.3979   -2.3566 H   0  0  0  0  0  0  0  0  0  0  0  0
    3.8146   -1.4876   -3.8295 H   0  0  0  0  0  0  0  0  0  0  0  0
   -1.7932   -0.6677    0.0626 H   0  0  0  0  0  0  0  0  0  0  0  0
   -5.6054   -1.3359    2.5224 H   0  0  0  0  0  0  0  0  0  0  0  0
   -4.8141   -1.9070    4.7989 H   0  0  0  0  0  0  0  0  0  0  0  0
   -2.3819   -2.1346    5.2135 H   0  0  0  0  0  0  0  0  0  0  0  0
   -0.7658   -1.7981    3.4280 H   0  0  0  0  0  0  0  0  0  0  0  0
   -2.1381    1.2086   -4.1542 H   0  0  0  0  0  0  0  0  0  0  0  0
   -3.9603    2.8403   -0.6302 H   0  0  0  0  0  0  0  0  0  0  0  0
    0.5478   -2.1473    1.5307 O   0  0  0  0  0  0  0  0  0  0  0  0
   -4.6764    2.1681   -3.2981 Cl  0  0  0  0  0  0  0  0  0  0  0  0
 25 26  2  0
 25 24  1  0
 26 27  1  0
 24 23  2  0
 31  5  2  0
 31  6  1  0
 27 22  2  0
 23 22  1  0
 23 28  1  0
  5 30  1  0
 59  6  1  0
 22 21  1  0
 16  2  1  0
 16  4  2  0
 28 29  3  0
  6 32  2  0
  1  2  2  0
  1 13  1  0
 34 13  1  0
  2  3  1  0
 30  4  1  0
 30  7  2  0
  4 17  1  0
 21  9  1  0
 13 14  2  0
 32  7  1  0
  3 17  1  0
  3 15  2  0
 17 18  1  0
 14 15  1  0
 14 33  1  0
  9 18  1  0
  9 58  2  0
 18  8  1  0
  8 12  1  0
  8 10  1  0
 12 20  1  0
 10 19  1  0
 20 11  1  0
 19 11  1  0
  1 35  1  0
  5 36  1  0
  7 37  1  0
  8 38  1  1
 10 39  1  0
 10 40  1  0
 11 41  1  0
 11 42  1  0
 12 43  1  0
 12 44  1  0
 15 45  1  0
 18 46  1  6
 19 47  1  0
 19 48  1  0
 20 49  1  0
 20 50  1  0
 21 51  1  0
 24 52  1  0
 25 53  1  0
 26 54  1  0
 27 55  1  0
 31 56  1  0
 32 57  1  0
M  END
