
     RDKit          3D

 64 66  0  0  0  0  0  0  0  0999 V2000
   -2.9270   -0.2018    0.7565 C   0  0  0  0  0  0  0  0  0  0  0  0
   -3.0517   -1.5099    0.9784 N   0  0  0  0  0  0  0  0  0  0  0  0
   -4.2089   -2.0476    0.6547 C   0  0  0  0  0  0  0  0  0  0  0  0
   -5.2704   -1.4593    0.1399 N   0  0  0  0  0  0  0  0  0  0  0  0
   -5.1580   -0.1520   -0.0966 C   0  0  0  0  0  0  0  0  0  0  0  0
   -3.9770    0.5188    0.1997 C   0  0  0  0  0  0  0  0  0  0  0  0
   -4.3326   -3.4681    0.9026 C   0  0  0  0  0  0  0  0  0  0  0  0
   -4.4320   -4.5963    1.0989 N   0  0  0  0  0  0  0  0  0  0  0  0
   -6.3190    0.5376   -0.7335 C   0  0  0  0  0  0  0  0  0  0  0  0
   -6.3705    0.2615   -2.2403 C   0  0  0  0  0  0  0  0  0  0  0  0
   -7.5653    0.9342   -2.8983 C   0  0  0  0  0  0  0  0  0  0  0  0
   -1.6356    0.4160    1.1128 C   0  0  0  0  0  0  0  0  0  0  0  0
   -0.4983   -0.3803    1.2345 C   0  0  0  0  0  0  0  0  0  0  0  0
    0.7282    0.1898    1.5317 C   0  0  0  0  0  0  0  0  0  0  0  0
    0.8228    1.5571    1.7641 C   0  0  0  0  0  0  0  0  0  0  0  0
   -0.3120    2.3470    1.6741 C   0  0  0  0  0  0  0  0  0  0  0  0
   -1.5355    1.7841    1.3385 C   0  0  0  0  0  0  0  0  0  0  0  0
   -0.2477    3.8249    1.9155 C   0  0  1  0  0  0  0  0  0  0  0  0
   -0.5201    4.5119    0.7978 F   0  0  0  0  0  0  0  0  0  0  0  0
   -1.1401    4.2150    2.8331 F   0  0  0  0  0  0  0  0  0  0  0  0
    0.9548    4.2216    2.3368 F   0  0  0  0  0  0  0  0  0  0  0  0
    1.9231   -0.6991    1.7130 C   0  0  0  0  0  0  0  0  0  0  0  0
    1.9203   -1.5078    2.6291 O   0  0  0  0  0  0  0  0  0  0  0  0
    2.9499   -0.5351    0.8547 N   0  0  0  0  0  0  0  0  0  0  0  0
    4.1791   -1.2952    1.0510 C   0  0  0  0  0  0  0  0  0  0  0  0
    4.3046   -2.4530    0.0939 C   0  0  0  0  0  0  0  0  0  0  0  0
    5.2797   -2.4449   -0.8979 C   0  0  0  0  0  0  0  0  0  0  0  0
    5.3914   -3.5023   -1.7932 C   0  0  0  0  0  0  0  0  0  0  0  0
    4.5230   -4.5804   -1.7044 C   0  0  0  0  0  0  0  0  0  0  0  0
    3.5447   -4.5969   -0.7163 C   0  0  0  0  0  0  0  0  0  0  0  0
    3.4366   -3.5408    0.1762 C   0  0  0  0  0  0  0  0  0  0  0  0
    2.8469    0.1963   -0.3987 C   0  0  0  0  0  0  0  0  0  0  0  0
    3.6809    1.4737   -0.4164 C   0  0  0  0  0  0  0  0  0  0  0  0
    3.5359    2.1865   -1.6691 N   0  0  0  0  0  0  0  0  0  0  0  0
    3.9307    3.5728   -1.5337 C   0  0  0  0  0  0  0  0  0  0  0  0
    4.2544    1.5519   -2.7558 C   0  0  0  0  0  0  0  0  0  0  0  0
   -3.8906    1.5734   -0.0191 H   0  0  0  0  0  0  0  0  0  0  0  0
   -7.2414    0.1846   -0.2664 H   0  0  0  0  0  0  0  0  0  0  0  0
   -6.2507    1.6128   -0.5574 H   0  0  0  0  0  0  0  0  0  0  0  0
   -5.4442    0.6113   -2.7035 H   0  0  0  0  0  0  0  0  0  0  0  0
   -6.4135   -0.8176   -2.4060 H   0  0  0  0  0  0  0  0  0  0  0  0
   -8.5038    0.5644   -2.4830 H   0  0  0  0  0  0  0  0  0  0  0  0
   -7.5414    2.0153   -2.7530 H   0  0  0  0  0  0  0  0  0  0  0  0
   -7.5787    0.7447   -3.9716 H   0  0  0  0  0  0  0  0  0  0  0  0
   -0.5751   -1.4474    1.0720 H   0  0  0  0  0  0  0  0  0  0  0  0
    1.7773    1.9880    2.0339 H   0  0  0  0  0  0  0  0  0  0  0  0
   -2.4165    2.4100    1.2783 H   0  0  0  0  0  0  0  0  0  0  0  0
    5.0254   -0.6182    0.9236 H   0  0  0  0  0  0  0  0  0  0  0  0
    4.2076   -1.6438    2.0813 H   0  0  0  0  0  0  0  0  0  0  0  0
    5.9600   -1.6042   -0.9726 H   0  0  0  0  0  0  0  0  0  0  0  0
    6.1545   -3.4804   -2.5601 H   0  0  0  0  0  0  0  0  0  0  0  0
    4.6071   -5.4057   -2.3996 H   0  0  0  0  0  0  0  0  0  0  0  0
    2.8670   -5.4371   -0.6386 H   0  0  0  0  0  0  0  0  0  0  0  0
    2.6755   -3.5666    0.9463 H   0  0  0  0  0  0  0  0  0  0  0  0
    3.1545   -0.4813   -1.1985 H   0  0  0  0  0  0  0  0  0  0  0  0
    1.8076    0.4471   -0.6013 H   0  0  0  0  0  0  0  0  0  0  0  0
    3.3300    2.1224    0.3888 H   0  0  0  0  0  0  0  0  0  0  0  0
    4.7375    1.2515   -0.1923 H   0  0  0  0  0  0  0  0  0  0  0  0
    4.9923    3.7033   -1.2733 H   0  0  0  0  0  0  0  0  0  0  0  0
    3.7518    4.1030   -2.4702 H   0  0  0  0  0  0  0  0  0  0  0  0
    3.3360    4.0583   -0.7584 H   0  0  0  0  0  0  0  0  0  0  0  0
    3.8929    0.5390   -2.9315 H   0  0  0  0  0  0  0  0  0  0  0  0
    4.0953    2.1130   -3.6776 H   0  0  0  0  0  0  0  0  0  0  0  0
    5.3402    1.4963   -2.5800 H   0  0  0  0  0  0  0  0  0  0  0  0
  1  6  1  0
  2  1  2  0
  2  3  1  0
  3  4  2  0
  4  5  1  0
  5  9  1  0
  6  5  2  0
  7  3  1  0
  7  8  3  0
 10  9  1  0
 11 10  1  0
 12  1  1  0
 12 13  2  0
 14 13  1  0
 14 22  1  0
 15 14  2  0
 16 15  1  0
 16 17  2  0
 17 12  1  0
 18 16  1  0
 18 21  1  1
 19 18  1  0
 20 18  1  0
 22 23  2  0
 24 22  1  0
 24 32  1  0
 25 24  1  0
 26 25  1  0
 26 27  2  0
 28 27  1  0
 29 28  2  0
 30 29  1  0
 30 31  2  0
 31 26  1  0
 32 33  1  0
 34 33  1  0
 34 35  1  0
 36 34  1  0
  6 37  1  0
  9 38  1  0
  9 39  1  0
 10 40  1  0
 10 41  1  0
 11 42  1  0
 11 43  1  0
 11 44  1  0
 13 45  1  0
 15 46  1  0
 17 47  1  0
 25 48  1  0
 25 49  1  0
 27 50  1  0
 28 51  1  0
 29 52  1  0
 30 53  1  0
 31 54  1  0
 32 55  1  0
 32 56  1  0
 33 57  1  0
 33 58  1  0
 35 59  1  0
 35 60  1  0
 35 61  1  0
 36 62  1  0
 36 63  1  0
 36 64  1  0
M  END
