
     RDKit          3D

 38 39  0  0  0  0  0  0  0  0999 V2000
    2.1742   -0.1541    0.1770 C   0  0  0  0  0  0  0  0  0  0  0  0
    2.6721    0.6886   -0.8026 C   0  0  0  0  0  0  0  0  0  0  0  0
    2.9603    2.0411   -0.4640 C   0  0  0  0  0  0  0  0  0  0  0  0
    2.3945   -1.1810   -1.7374 C   0  0  0  0  0  0  0  0  0  0  0  0
    2.6744    2.2823    0.8853 N   0  0  0  0  0  0  0  0  0  0  0  0
    1.9289    0.1285    1.4643 N   0  0  0  0  0  0  0  0  0  0  0  0
   -3.6795    2.4996    0.2775 O   0  0  0  0  0  0  0  0  0  0  0  0
   -3.5050    1.1630   -0.5955 P   0  0  1  0  0  0  0  0  0  0  0  0
   -4.8201    0.2673   -0.3513 O   0  0  0  0  0  0  0  0  0  0  0  0
   -3.3149    1.3501   -2.0538 O   0  0  0  0  0  0  0  0  0  0  0  0
   -2.1464    0.3597    0.2723 C   0  0  0  0  0  0  0  0  0  0  0  0
   -0.6848   -1.4880    0.3536 O   0  0  0  0  0  0  0  0  0  0  0  0
   -0.0766   -2.6192   -0.2196 C   0  0  2  0  0  0  0  0  0  0  0  0
   -0.7049   -3.9220    0.2408 C   0  0  0  0  0  0  0  0  0  0  0  0
   -0.5233   -4.0649    1.6281 O   0  0  0  0  0  0  0  0  0  0  0  0
    2.0079   -1.3548   -0.4346 N   0  0  0  0  0  0  0  0  0  0  0  0
    2.1974    1.3680    1.7818 C   0  0  0  0  0  0  0  0  0  0  0  0
    3.3934    2.9332   -1.1756 O   0  0  0  0  0  0  0  0  0  0  0  0
    2.8024    0.0242   -1.9947 N   0  0  0  0  0  0  0  0  0  0  0  0
    2.3541   -1.9972   -2.4437 H   0  0  0  0  0  0  0  0  0  0  0  0
    2.8629    3.2217    1.2117 H   0  0  0  0  0  0  0  0  0  0  0  0
    1.5398    1.1806    3.6750 H   0  0  0  0  0  0  0  0  0  0  0  0
    2.0059    2.7693    3.2631 H   0  0  0  0  0  0  0  0  0  0  0  0
   -4.2799    3.1500   -0.1123 H   0  0  0  0  0  0  0  0  0  0  0  0
   -5.0704    0.1355    0.5725 H   0  0  0  0  0  0  0  0  0  0  0  0
   -1.2827    1.0279    0.2291 H   0  0  0  0  0  0  0  0  0  0  0  0
   -2.4105    0.2337    1.3252 H   0  0  0  0  0  0  0  0  0  0  0  0
   -2.6441   -1.6630   -0.3108 H   0  0  0  0  0  0  0  0  0  0  0  0
   -1.5350   -0.8409   -1.4123 H   0  0  0  0  0  0  0  0  0  0  0  0
   -0.1742   -2.5948   -1.3155 H   0  0  0  0  0  0  0  0  0  0  0  0
   -1.7680   -3.9198   -0.0341 H   0  0  0  0  0  0  0  0  0  0  0  0
   -0.2378   -4.7392   -0.3242 H   0  0  0  0  0  0  0  0  0  0  0  0
   -0.8984   -4.9086    1.8952 H   0  0  0  0  0  0  0  0  0  0  0  0
    1.5603   -2.5307    1.2020 H   0  0  0  0  0  0  0  0  0  0  0  0
    1.9254   -3.4184   -0.2742 H   0  0  0  0  0  0  0  0  0  0  0  0
    2.0428    1.7870    3.0494 N   0  0  0  0  0  0  0  0  0  0  0  0
    1.4072   -2.5456    0.1244 C   0  0  0  0  0  0  0  0  0  0  0  0
   -1.7873   -0.9785   -0.3532 C   0  0  0  0  0  0  0  0  0  0  0  0
 10  8  2  0
  8  9  1  6
  8 11  1  0
  8  7  1  0
 38 12  1  0
 38 11  1  0
 13 12  1  0
 13 14  1  0
 13 37  1  0
 15 14  1  0
 37 16  1  0
 16  4  1  0
 16  1  1  0
  6  1  1  0
  6 17  2  0
  4 19  2  0
  1  2  2  0
 36 17  1  0
 17  5  1  0
 19  2  1  0
  2  3  1  0
  5  3  1  0
  3 18  2  0
  4 20  1  0
  5 21  1  0
 36 22  1  0
 36 23  1  0
  7 24  1  0
  9 25  1  0
 11 26  1  0
 11 27  1  0
 38 28  1  0
 38 29  1  0
 13 30  1  6
 14 31  1  0
 14 32  1  0
 15 33  1  0
 37 34  1  0
 37 35  1  0
M  END
