
     RDKit          3D

 30 30  0  0  0  0  0  0  0  0999 V2000
   -0.0397   -0.0142   -3.5011 C   0  0  0  0  0  0  0  0  0  0  0  0
    0.8937    0.4188   -2.3772 C   0  0  0  0  0  0  0  0  0  0  0  0
    0.2136   -0.0444   -1.1708 N   0  0  0  0  0  0  0  0  0  0  0  0
   -1.1596   -0.4677   -1.4394 C   0  0  0  0  0  0  0  0  0  0  0  0
   -1.4177    0.0457   -2.8512 C   0  0  0  0  0  0  0  0  0  0  0  0
    0.8574   -0.1243    0.0025 C   0  0  0  0  0  0  0  0  0  0  0  0
    0.0679   -0.6368    1.2003 C   0  0  2  0  0  0  0  0  0  0  0  0
   -0.6948    0.5319    1.8803 C   0  0  1  0  0  0  0  0  0  0  0  0
   -1.6964   -0.0160    2.8939 C   0  0  0  0  0  0  0  0  0  0  0  0
    2.0288    0.2232    0.1208 O   0  0  0  0  0  0  0  0  0  0  0  0
    0.9763   -1.3776    2.0538 N   0  0  0  0  0  0  0  0  0  0  0  0
    0.2313    1.5477    2.5396 C   0  0  0  0  0  0  0  0  0  0  0  0
    0.0499    0.6270   -4.3771 H   0  0  0  0  0  0  0  0  0  0  0  0
    0.1898   -1.0366   -3.8092 H   0  0  0  0  0  0  0  0  0  0  0  0
    1.0149    1.5058   -2.3554 H   0  0  0  0  0  0  0  0  0  0  0  0
    1.8874   -0.0210   -2.4603 H   0  0  0  0  0  0  0  0  0  0  0  0
   -1.2460   -1.5576   -1.3966 H   0  0  0  0  0  0  0  0  0  0  0  0
   -1.8614   -0.0478   -0.7184 H   0  0  0  0  0  0  0  0  0  0  0  0
   -1.7747    1.0773   -2.8159 H   0  0  0  0  0  0  0  0  0  0  0  0
   -2.1679   -0.5503   -3.3690 H   0  0  0  0  0  0  0  0  0  0  0  0
   -0.6904   -1.3444    0.8510 H   0  0  0  0  0  0  0  0  0  0  0  0
   -1.2675    1.0516    1.1032 H   0  0  0  0  0  0  0  0  0  0  0  0
   -2.2761    0.7928    3.3405 H   0  0  0  0  0  0  0  0  0  0  0  0
   -2.3974   -0.7116    2.4285 H   0  0  0  0  0  0  0  0  0  0  0  0
   -1.1970   -0.5421    3.7112 H   0  0  0  0  0  0  0  0  0  0  0  0
    1.7358   -0.7810    2.3561 H   0  0  0  0  0  0  0  0  0  0  0  0
    0.4932   -1.6799    2.8898 H   0  0  0  0  0  0  0  0  0  0  0  0
    0.8435    1.0819    3.3150 H   0  0  0  0  0  0  0  0  0  0  0  0
    0.9007    2.0310    1.8286 H   0  0  0  0  0  0  0  0  0  0  0  0
   -0.3553    2.3316    3.0207 H   0  0  0  0  0  0  0  0  0  0  0  0
  1  2  1  0
  1  5  1  0
  1 13  1  0
  1 14  1  0
  2  3  1  0
  2 15  1  0
  2 16  1  0
  3  4  1  0
  3  6  1  0
  4  5  1  0
  4 17  1  0
  4 18  1  0
  5 19  1  0
  5 20  1  0
  6  7  1  0
  6 10  2  0
  7  8  1  0
  7 11  1  0
  7 21  1  6
  8  9  1  0
  8 12  1  0
  8 22  1  6
  9 23  1  0
  9 24  1  0
  9 25  1  0
 11 26  1  0
 11 27  1  0
 12 28  1  0
 12 29  1  0
 12 30  1  0
M  END
