
     RDKit          3D

 58 59  0  0  0  0  0  0  0  0999 V2000
    9.1488   -0.4070    0.2440 C   0  0  0  0  0  0  0  0  0  0  0  0
    7.9700    0.0822   -0.3107 C   0  0  0  0  0  0  0  0  0  0  0  0
    7.9159    1.3967   -0.7801 C   0  0  0  0  0  0  0  0  0  0  0  0
    9.0284    2.2137   -0.7065 C   0  0  0  0  0  0  0  0  0  0  0  0
   10.2065    1.7304   -0.1484 C   0  0  0  0  0  0  0  0  0  0  0  0
   10.2690    0.4331    0.3294 C   0  0  0  0  0  0  0  0  0  0  0  0
    6.7796   -0.8131   -0.4512 C   0  0  0  0  0  0  0  0  0  0  0  0
    6.8557   -1.9228   -0.9595 O   0  0  0  0  0  0  0  0  0  0  0  0
    5.6301   -0.2821   -0.0065 N   0  0  0  0  0  0  0  0  0  0  0  0
    4.3551   -0.9642   -0.0767 C   0  0  0  0  0  0  0  0  0  0  0  0
    3.2020    0.0267   -0.0549 C   0  0  0  0  0  0  0  0  0  0  0  0
    1.8520   -0.6781   -0.0836 C   0  0  0  0  0  0  0  0  0  0  0  0
    0.6742    0.2881   -0.0691 C   0  0  0  0  0  0  0  0  0  0  0  0
   -0.6734   -0.4221   -0.0811 C   0  0  0  0  0  0  0  0  0  0  0  0
   -1.8567    0.5373   -0.0661 C   0  0  0  0  0  0  0  0  0  0  0  0
   -3.1970   -0.1858   -0.0696 C   0  0  0  0  0  0  0  0  0  0  0  0
   -4.3662    0.7850   -0.0526 C   0  0  0  0  0  0  0  0  0  0  0  0
   -5.6234    0.0592   -0.0547 N   0  0  0  0  0  0  0  0  0  0  0  0
   -6.8080    0.6624   -0.0429 C   0  0  0  0  0  0  0  0  0  0  0  0
   -8.0367   -0.1709   -0.0572 C   0  0  0  0  0  0  0  0  0  0  0  0
   -9.2655    0.4897    0.0703 C   0  0  0  0  0  0  0  0  0  0  0  0
  -10.4633   -0.2475    0.0746 C   0  0  0  0  0  0  0  0  0  0  0  0
  -10.4237   -1.6209   -0.0566 C   0  0  0  0  0  0  0  0  0  0  0  0
   -9.2025   -2.2791   -0.1950 C   0  0  0  0  0  0  0  0  0  0  0  0
   -8.0241   -1.5655   -0.1976 C   0  0  0  0  0  0  0  0  0  0  0  0
   -6.8915    1.9031   -0.0152 O   0  0  0  0  0  0  0  0  0  0  0  0
   11.3672   -0.1138    0.8970 O   0  0  0  0  0  0  0  0  0  0  0  0
   -9.3831    1.8158    0.1932 O   0  0  0  0  0  0  0  0  0  0  0  0
  -11.6508    0.3768    0.2039 O   0  0  0  0  0  0  0  0  0  0  0  0
    9.1902   -1.6647    0.7199 O   0  0  0  0  0  0  0  0  0  0  0  0
   10.0529   -1.8452    1.1128 H   0  0  0  0  0  0  0  0  0  0  0  0
    7.0019    1.7683   -1.2248 H   0  0  0  0  0  0  0  0  0  0  0  0
    8.9893    3.2265   -1.0834 H   0  0  0  0  0  0  0  0  0  0  0  0
   11.0810    2.3677   -0.0851 H   0  0  0  0  0  0  0  0  0  0  0  0
    5.6712    0.5795    0.5153 H   0  0  0  0  0  0  0  0  0  0  0  0
    4.3224   -1.5513   -0.9954 H   0  0  0  0  0  0  0  0  0  0  0  0
    4.2539   -1.6699    0.7549 H   0  0  0  0  0  0  0  0  0  0  0  0
    3.2679    0.6492    0.8441 H   0  0  0  0  0  0  0  0  0  0  0  0
    3.2887    0.7027   -0.9109 H   0  0  0  0  0  0  0  0  0  0  0  0
    1.7900   -1.3120   -0.9749 H   0  0  0  0  0  0  0  0  0  0  0  0
    1.7759   -1.3534    0.7754 H   0  0  0  0  0  0  0  0  0  0  0  0
    0.7404    0.9285    0.8173 H   0  0  0  0  0  0  0  0  0  0  0  0
    0.7424    0.9577   -0.9334 H   0  0  0  0  0  0  0  0  0  0  0  0
   -0.7386   -1.0644   -0.9663 H   0  0  0  0  0  0  0  0  0  0  0  0
   -0.7391   -1.0908    0.7842 H   0  0  0  0  0  0  0  0  0  0  0  0
   -1.7912    1.1815    0.8173 H   0  0  0  0  0  0  0  0  0  0  0  0
   -1.7971    1.2022   -0.9343 H   0  0  0  0  0  0  0  0  0  0  0  0
   -3.2657   -0.8254   -0.9556 H   0  0  0  0  0  0  0  0  0  0  0  0
   -3.2587   -0.8464    0.8015 H   0  0  0  0  0  0  0  0  0  0  0  0
   -4.3081    1.4235    0.8328 H   0  0  0  0  0  0  0  0  0  0  0  0
   -4.3180    1.4419   -0.9248 H   0  0  0  0  0  0  0  0  0  0  0  0
   -5.5742   -0.9455   -0.0364 H   0  0  0  0  0  0  0  0  0  0  0  0
   -7.0967   -2.1082   -0.3245 H   0  0  0  0  0  0  0  0  0  0  0  0
   12.0876    0.5245    0.9417 H   0  0  0  0  0  0  0  0  0  0  0  0
   -8.4561    2.1764    0.1314 H   0  0  0  0  0  0  0  0  0  0  0  0
  -11.3506   -2.1810   -0.0573 H   0  0  0  0  0  0  0  0  0  0  0  0
  -11.5216    1.3323    0.2470 H   0  0  0  0  0  0  0  0  0  0  0  0
   -9.1847   -3.3545   -0.3043 H   0  0  0  0  0  0  0  0  0  0  0  0
  1  2  2  0
  1  6  1  0
  1 30  1  0
  2  3  1  0
  2  7  1  0
  3  4  2  0
  4  5  1  0
  5  6  2  0
  6 27  1  0
  7  8  2  0
  7  9  1  0
  9 10  1  0
 10 11  1  0
 11 12  1  0
 12 13  1  0
 13 14  1  0
 14 15  1  0
 15 16  1  0
 16 17  1  0
 17 18  1  0
 18 19  1  0
 19 20  1  0
 19 26  2  0
 20 21  2  0
 20 25  1  0
 21 22  1  0
 21 28  1  0
 22 23  2  0
 22 29  1  0
 23 24  1  0
 24 25  2  0
 30 31  1  0
  3 32  1  0
  4 33  1  0
  5 34  1  0
  9 35  1  0
 10 36  1  0
 10 37  1  0
 11 38  1  0
 11 39  1  0
 12 40  1  0
 12 41  1  0
 13 42  1  0
 13 43  1  0
 14 44  1  0
 14 45  1  0
 15 46  1  0
 15 47  1  0
 16 48  1  0
 16 49  1  0
 17 50  1  0
 17 51  1  0
 18 52  1  0
 25 53  1  0
 27 54  1  0
 28 55  1  0
 23 56  1  0
 29 57  1  0
 24 58  1  0
M  END
