
     RDKit          3D

 37 39  0  0  0  0  0  0  0  0999 V2000
    1.0243   -3.3721   -3.0223 C   0  0  0  0  0  0  0  0  0  0  0  0
    0.5464   -3.0222   -1.7321 O   0  0  0  0  0  0  0  0  0  0  0  0
    1.2469   -2.1695   -0.9928 C   0  0  0  0  0  0  0  0  0  0  0  0
    2.4645   -1.6090   -1.3755 C   0  0  0  0  0  0  0  0  0  0  0  0
    3.1198   -0.7143   -0.5454 C   0  0  0  0  0  0  0  0  0  0  0  0
    2.5700   -0.3645    0.6780 C   0  0  0  0  0  0  0  0  0  0  0  0
    3.4635    0.8620    1.7958 Br  0  0  0  0  0  0  0  0  0  0  0  0
    1.3615   -0.9048    1.0824 C   0  0  0  0  0  0  0  0  0  0  0  0
    0.7078   -1.7989    0.2487 C   0  0  0  0  0  0  0  0  0  0  0  0
   -0.8528   -2.4534    0.7706 S   0  0  1  0  0  0  0  0  0  0  0  0
   -0.8858   -3.8950    0.6096 O   0  0  0  0  0  0  0  0  0  0  0  0
   -1.1294   -1.8844    2.0800 O   0  0  0  0  0  0  0  0  0  0  0  0
   -1.8800   -1.8251   -0.3729 N   0  0  0  0  0  0  0  0  0  0  0  0
   -2.3075   -0.4882   -0.1995 C   0  0  0  0  0  0  0  0  0  0  0  0
   -1.5446    0.5380   -0.7125 C   0  0  0  0  0  0  0  0  0  0  0  0
   -1.9658    1.8458   -0.4893 C   0  0  0  0  0  0  0  0  0  0  0  0
   -1.4920    3.1571   -0.8077 C   0  0  0  0  0  0  0  0  0  0  0  0
   -0.2603    3.5184   -1.5520 C   0  0  0  0  0  0  0  0  0  0  0  0
   -2.3029    4.0540   -0.3455 N   0  0  0  0  0  0  0  0  0  0  0  0
   -3.3441    3.4025    0.2910 O   0  0  0  0  0  0  0  0  0  0  0  0
   -3.1391    2.0839    0.2072 C   0  0  0  0  0  0  0  0  0  0  0  0
   -3.9450    1.0793    0.7215 C   0  0  0  0  0  0  0  0  0  0  0  0
   -3.5018   -0.2188    0.5224 C   0  0  0  0  0  0  0  0  0  0  0  0
   -4.1649   -1.2869    0.9726 O   0  0  0  0  0  0  0  0  0  0  0  0
    0.2899   -4.0537   -3.4412 H   0  0  0  0  0  0  0  0  0  0  0  0
    1.1093   -2.4959   -3.6681 H   0  0  0  0  0  0  0  0  0  0  0  0
    1.9904   -3.8777   -2.9700 H   0  0  0  0  0  0  0  0  0  0  0  0
    2.9187   -1.8601   -2.3240 H   0  0  0  0  0  0  0  0  0  0  0  0
    4.0626   -0.2954   -0.8700 H   0  0  0  0  0  0  0  0  0  0  0  0
    0.9197   -0.6300    2.0300 H   0  0  0  0  0  0  0  0  0  0  0  0
   -2.5741   -2.5010   -0.6752 H   0  0  0  0  0  0  0  0  0  0  0  0
   -0.6455    0.3146   -1.2718 H   0  0  0  0  0  0  0  0  0  0  0  0
   -0.3162    3.1544   -2.5782 H   0  0  0  0  0  0  0  0  0  0  0  0
   -0.1133    4.5958   -1.5747 H   0  0  0  0  0  0  0  0  0  0  0  0
    0.6128    3.0583   -1.0891 H   0  0  0  0  0  0  0  0  0  0  0  0
   -4.8579    1.2942    1.2630 H   0  0  0  0  0  0  0  0  0  0  0  0
   -4.9698   -1.0248    1.4347 H   0  0  0  0  0  0  0  0  0  0  0  0
  5  4  1  0
  5  6  2  0
  4  3  2  0
  1  2  1  0
  7  6  1  0
  6  8  1  0
  3  2  1  0
  3  9  1  0
  8  9  2  0
 24 23  1  0
  9 10  1  0
 22 23  2  0
 22 21  1  0
 23 14  1  0
 21 20  1  0
 21 16  2  0
 20 19  1  0
 10 12  2  0
 10 13  1  6
 10 11  2  0
 14 13  1  0
 14 15  2  0
 16 15  1  0
 16 17  1  0
 19 17  2  0
 17 18  1  0
  1 25  1  0
  1 26  1  0
  1 27  1  0
  4 28  1  0
  5 29  1  0
  8 30  1  0
 13 31  1  0
 15 32  1  0
 18 33  1  0
 18 34  1  0
 18 35  1  0
 22 36  1  0
 24 37  1  0
M  END
