
     RDKit          3D

 16 16  0  0  0  0  0  0  0  0999 V2000
    0.0076    0.1397   -1.2068 C   0  0  0  0  0  0  0  0  0  0  0  0
    0.0051    0.2734   -2.6056 N   0  0  0  0  0  0  0  0  0  0  0  0
   -1.1576    0.1051   -0.4343 C   0  0  0  0  0  0  0  0  0  0  0  0
   -1.1813    0.0523    0.8969 N   0  0  0  0  0  0  0  0  0  0  0  0
    0.0129    0.0285    1.5079 C   0  0  0  0  0  0  0  0  0  0  0  0
    0.0158   -0.0781    2.8811 N   0  0  0  0  0  0  0  0  0  0  0  0
    1.2047    0.0568    0.8925 N   0  0  0  0  0  0  0  0  0  0  0  0
    1.1758    0.1096   -0.4386 C   0  0  0  0  0  0  0  0  0  0  0  0
    2.3607    0.1252   -1.0964 O   0  0  0  0  0  0  0  0  0  0  0  0
   -2.3450    0.1160   -1.0876 O   0  0  0  0  0  0  0  0  0  0  0  0
    0.8403   -0.1137   -3.0286 H   0  0  0  0  0  0  0  0  0  0  0  0
   -0.8308   -0.1151   -3.0260 H   0  0  0  0  0  0  0  0  0  0  0  0
    0.8725    0.2037    3.3333 H   0  0  0  0  0  0  0  0  0  0  0  0
   -0.8403    0.2005    3.3365 H   0  0  0  0  0  0  0  0  0  0  0  0
    3.0472    0.0795   -0.4122 H   0  0  0  0  0  0  0  0  0  0  0  0
   -3.0287    0.0677   -0.4008 H   0  0  0  0  0  0  0  0  0  0  0  0
  1  2  1  0
  1  3  2  0
  1  8  1  0
  2 11  1  0
  2 12  1  0
  3  4  1  0
  3 10  1  0
  4  5  2  0
  5  6  1  0
  5  7  1  0
  6 13  1  0
  6 14  1  0
  7  8  2  0
  8  9  1  0
  9 15  1  0
 10 16  1  0
M  END
