
     RDKit          3D

 56 60  0  0  0  0  0  0  0  0999 V2000
   -0.0821   -3.2903    0.3395 C   0  0  0  0  0  0  0  0  0  0  0  0
    0.3589   -0.3683   -0.1682 C   0  0  0  0  0  0  0  0  0  0  0  0
    0.6685    0.9422   -0.4176 C   0  0  0  0  0  0  0  0  0  0  0  0
   -1.4782    0.6863   -0.1053 C   0  0  0  0  0  0  0  0  0  0  0  0
   -2.9196    0.9901    0.0534 C   0  0  2  0  0  0  0  0  0  0  0  0
   -4.7858   -0.6128    0.1612 C   0  0  0  0  0  0  0  0  0  0  0  0
   -3.8666    0.0870   -0.8471 C   0  0  1  0  0  0  0  0  0  0  0  0
   -4.7157    1.1030   -1.6211 C   0  0  0  0  0  0  0  0  0  0  0  0
   -4.8189    2.2298   -0.5952 C   0  0  2  0  0  0  0  0  0  0  0  0
   -3.3344    2.4298   -0.2924 C   0  0  0  0  0  0  0  0  0  0  0  0
   -5.5538    1.7284    0.6627 C   0  0  0  0  0  0  0  0  0  0  0  0
    1.9844    1.4177   -0.6484 C   0  0  0  0  0  0  0  0  0  0  0  0
    7.2872    1.7157    1.4572 C   0  0  0  0  0  0  0  0  0  0  0  0
    6.5248    1.3997    0.1782 C   0  0  0  0  0  0  0  0  0  0  0  0
    5.0666    1.0460    0.4433 C   0  0  0  0  0  0  0  0  0  0  0  0
    2.9195    0.3767   -0.6230 N   0  0  0  0  0  0  0  0  0  0  0  0
    2.6601   -0.9574   -0.3486 C   0  0  0  0  0  0  0  0  0  0  0  0
    3.5582   -1.7729   -0.3106 O   0  0  0  0  0  0  0  0  0  0  0  0
    1.3369   -1.3356   -0.1237 N   0  0  0  0  0  0  0  0  0  0  0  0
    1.0938   -2.6908    0.1712 C   0  0  0  0  0  0  0  0  0  0  0  0
   -0.1507   -4.7541    0.6273 C   0  0  0  0  0  0  0  0  0  0  0  0
   -0.8052   -4.9394    1.8679 O   0  0  0  0  0  0  0  0  0  0  0  0
   -0.5334    1.5985   -0.3688 N   0  0  0  0  0  0  0  0  0  0  0  0
   -0.9588   -0.5284    0.0243 N   0  0  0  0  0  0  0  0  0  0  0  0
   -3.4152    0.7195    1.4925 C   0  0  0  0  0  0  0  0  0  0  0  0
   -4.8976    0.4618    1.2413 C   0  0  2  0  0  0  0  0  0  0  0  0
   -1.0161   -2.7521    0.2632 H   0  0  0  0  0  0  0  0  0  0  0  0
   -5.7422   -0.8968   -0.2828 H   0  0  0  0  0  0  0  0  0  0  0  0
   -4.3278   -1.5175    0.5689 H   0  0  0  0  0  0  0  0  0  0  0  0
   -3.3188   -0.6037   -1.4875 H   0  0  0  0  0  0  0  0  0  0  0  0
   -4.2100    1.4544   -2.5242 H   0  0  0  0  0  0  0  0  0  0  0  0
   -5.6795    0.6878   -1.9233 H   0  0  0  0  0  0  0  0  0  0  0  0
   -5.2966    3.1322   -0.9821 H   0  0  0  0  0  0  0  0  0  0  0  0
   -3.1352    3.1300    0.5222 H   0  0  0  0  0  0  0  0  0  0  0  0
   -2.8269    2.8038   -1.1868 H   0  0  0  0  0  0  0  0  0  0  0  0
   -5.5602    2.5165    1.4218 H   0  0  0  0  0  0  0  0  0  0  0  0
   -6.5994    1.5222    0.4162 H   0  0  0  0  0  0  0  0  0  0  0  0
    8.3321    1.9494    1.2511 H   0  0  0  0  0  0  0  0  0  0  0  0
    6.8524    2.5725    1.9752 H   0  0  0  0  0  0  0  0  0  0  0  0
    7.2663    0.8694    2.1456 H   0  0  0  0  0  0  0  0  0  0  0  0
    6.5752    2.2565   -0.5006 H   0  0  0  0  0  0  0  0  0  0  0  0
    7.0116    0.5694   -0.3421 H   0  0  0  0  0  0  0  0  0  0  0  0
    5.0154    0.1858    1.1159 H   0  0  0  0  0  0  0  0  0  0  0  0
    4.5751    1.8784    0.9556 H   0  0  0  0  0  0  0  0  0  0  0  0
    4.3391    1.5972   -1.5088 H   0  0  0  0  0  0  0  0  0  0  0  0
    4.8033   -0.0848   -1.3802 H   0  0  0  0  0  0  0  0  0  0  0  0
    2.0074   -3.2602    0.2551 H   0  0  0  0  0  0  0  0  0  0  0  0
   -0.7035   -5.2489   -0.1816 H   0  0  0  0  0  0  0  0  0  0  0  0
    0.8586   -5.1858    0.6312 H   0  0  0  0  0  0  0  0  0  0  0  0
   -1.0026   -5.8760    1.9609 H   0  0  0  0  0  0  0  0  0  0  0  0
   -0.6739    2.5889   -0.5022 H   0  0  0  0  0  0  0  0  0  0  0  0
   -2.9397   -0.1676    1.9172 H   0  0  0  0  0  0  0  0  0  0  0  0
   -3.2102    1.5607    2.1587 H   0  0  0  0  0  0  0  0  0  0  0  0
   -5.4288    0.1292    2.1360 H   0  0  0  0  0  0  0  0  0  0  0  0
    2.3050    2.5745   -0.8518 O   0  0  0  0  0  0  0  0  0  0  0  0
    4.3237    0.7337   -0.8477 C   0  0  0  0  0  0  0  0  0  0  0  0
 22 21  1  0
 21  1  1  0
  1 20  2  0
 13 14  1  0
 20 19  1  0
 10  9  1  0
 10  5  1  0
 14 15  1  0
  9 11  1  0
  9  8  1  0
 11 26  1  0
 25  5  1  0
 25 26  1  0
 19  2  1  0
 19 17  1  0
 24  2  1  0
 24  4  2  0
 18 17  2  0
  2  3  2  0
 17 16  1  0
  5  4  1  1
  5  7  1  0
  4 23  1  0
 15 56  1  0
 26  6  1  0
  3 23  1  0
  3 12  1  0
 16 12  1  0
 16 56  1  0
  8  7  1  0
 12 55  2  0
  7  6  1  0
  1 27  1  0
  6 28  1  0
  6 29  1  0
  7 30  1  6
  8 31  1  0
  8 32  1  0
  9 33  1  6
 10 34  1  0
 10 35  1  0
 11 36  1  0
 11 37  1  0
 13 38  1  0
 13 39  1  0
 13 40  1  0
 14 41  1  0
 14 42  1  0
 15 43  1  0
 15 44  1  0
 56 45  1  0
 56 46  1  0
 20 47  1  0
 21 48  1  0
 21 49  1  0
 22 50  1  0
 23 51  1  0
 25 52  1  0
 25 53  1  0
 26 54  1  1
M  END
