
     RDKit          3D

 22 23  0  0  0  0  0  0  0  0999 V2000
    1.0671   -0.4137    0.1093 C   0  0  0  0  0  0  0  0  0  0  0  0
   -0.1847   -1.2186    0.2819 C   0  0  1  0  0  0  0  0  0  0  0  0
   -1.3980   -0.4557   -0.2476 C   0  0  2  0  0  0  0  0  0  0  0  0
   -1.3732    0.9624    0.3106 C   0  0  1  0  0  0  0  0  0  0  0  0
   -0.1624    1.7081   -0.2529 C   0  0  0  0  0  0  0  0  0  0  0  0
    1.0404    0.9229   -0.0718 N   0  0  0  0  0  0  0  0  0  0  0  0
    2.3376    1.3479   -0.1452 C   0  0  0  0  0  0  0  0  0  0  0  0
    3.0950    0.2216    0.0037 C   0  0  0  0  0  0  0  0  0  0  0  0
    2.2918   -0.8714    0.1671 N   0  0  0  0  0  0  0  0  0  0  0  0
   -0.1143   -2.4470   -0.3962 O   0  0  0  0  0  0  0  0  0  0  0  0
   -2.5931   -1.0750    0.1416 O   0  0  0  0  0  0  0  0  0  0  0  0
   -2.5540    1.6175   -0.0640 O   0  0  0  0  0  0  0  0  0  0  0  0
   -0.3430   -1.3798    1.3594 H   0  0  0  0  0  0  0  0  0  0  0  0
   -1.3179   -0.3985   -1.3461 H   0  0  0  0  0  0  0  0  0  0  0  0
   -1.2795    0.9075    1.4053 H   0  0  0  0  0  0  0  0  0  0  0  0
   -0.3193    1.8980   -1.3175 H   0  0  0  0  0  0  0  0  0  0  0  0
   -0.0387    2.6687    0.2483 H   0  0  0  0  0  0  0  0  0  0  0  0
    2.5959    2.3833   -0.2922 H   0  0  0  0  0  0  0  0  0  0  0  0
    4.1714    0.1446    0.0049 H   0  0  0  0  0  0  0  0  0  0  0  0
    0.5657   -2.9855    0.0212 H   0  0  0  0  0  0  0  0  0  0  0  0
   -2.5878   -1.9753   -0.2001 H   0  0  0  0  0  0  0  0  0  0  0  0
   -2.6319    2.4232    0.4562 H   0  0  0  0  0  0  0  0  0  0  0  0
  1  2  1  0
  1  6  1  0
  1  9  2  0
  2  3  1  0
  2 10  1  0
  2 13  1  1
  3  4  1  0
  3 11  1  0
  3 14  1  6
  4  5  1  0
  4 12  1  0
  4 15  1  1
  5  6  1  0
  5 16  1  0
  5 17  1  0
  6  7  1  0
  7  8  2  0
  7 18  1  0
  8  9  1  0
  8 19  1  0
 10 20  1  0
 11 21  1  0
 12 22  1  0
M  END
