
     RDKit          3D

 34 35  0  0  0  0  0  0  0  0999 V2000
   -0.5195   -0.5189   -0.1253 N   0  0  0  0  0  0  0  0  0  0  0  0
   -1.5868   -1.2693    0.3140 C   0  0  0  0  0  0  0  0  0  0  0  0
   -1.4725   -2.4255    0.6696 O   0  0  0  0  0  0  0  0  0  0  0  0
   -2.8087   -0.6285    0.3140 N   0  0  0  0  0  0  0  0  0  0  0  0
   -3.0076    0.7173    0.0177 C   0  0  0  0  0  0  0  0  0  0  0  0
   -4.1118    1.2211    0.1167 O   0  0  0  0  0  0  0  0  0  0  0  0
   -1.8328    1.4519   -0.4092 C   0  0  0  0  0  0  0  0  0  0  0  0
   -0.6629    0.8003   -0.4552 C   0  0  0  0  0  0  0  0  0  0  0  0
   -1.9781    2.8964   -0.7577 C   0  0  0  0  0  0  0  0  0  0  0  0
   -3.9612   -1.4185    0.7327 C   0  0  0  0  0  0  0  0  0  0  0  0
    0.8134   -1.1094   -0.1540 C   0  0  1  0  0  0  0  0  0  0  0  0
    1.5290   -0.9711   -1.5040 C   0  0  0  0  0  0  0  0  0  0  0  0
    2.6596    0.0229   -1.2341 C   0  0  2  0  0  0  0  0  0  0  0  0
    3.8516   -0.2271   -1.9250 O   0  0  0  0  0  0  0  0  0  0  0  0
    2.8867   -0.1548    0.2644 C   0  0  2  0  0  0  0  0  0  0  0  0
    1.6049   -0.4393    0.7990 O   0  0  0  0  0  0  0  0  0  0  0  0
    3.4624    1.0703    0.9294 C   0  0  0  0  0  0  0  0  0  0  0  0
    3.7339    0.7838    2.2794 O   0  0  0  0  0  0  0  0  0  0  0  0
    0.2398    1.3096   -0.7632 H   0  0  0  0  0  0  0  0  0  0  0  0
   -2.3339    3.4778    0.0939 H   0  0  0  0  0  0  0  0  0  0  0  0
   -1.0238    3.3155   -1.0728 H   0  0  0  0  0  0  0  0  0  0  0  0
   -2.6925    3.0408   -1.5689 H   0  0  0  0  0  0  0  0  0  0  0  0
   -4.0531   -1.4300    1.8182 H   0  0  0  0  0  0  0  0  0  0  0  0
   -4.8604   -0.9870    0.3090 H   0  0  0  0  0  0  0  0  0  0  0  0
   -3.8588   -2.4377    0.3763 H   0  0  0  0  0  0  0  0  0  0  0  0
    0.6883   -2.1558    0.1157 H   0  0  0  0  0  0  0  0  0  0  0  0
    1.9598   -1.9344   -1.7818 H   0  0  0  0  0  0  0  0  0  0  0  0
    0.8592   -0.6660   -2.3081 H   0  0  0  0  0  0  0  0  0  0  0  0
    2.3127    1.0484   -1.4272 H   0  0  0  0  0  0  0  0  0  0  0  0
    3.7335    0.0348   -2.8430 H   0  0  0  0  0  0  0  0  0  0  0  0
    3.5624   -1.0099    0.4170 H   0  0  0  0  0  0  0  0  0  0  0  0
    4.3699    1.3500    0.3789 H   0  0  0  0  0  0  0  0  0  0  0  0
    2.7506    1.9001    0.8197 H   0  0  0  0  0  0  0  0  0  0  0  0
    4.0878    1.5783    2.6890 H   0  0  0  0  0  0  0  0  0  0  0  0
  1  2  1  0
  1  8  1  0
  1 11  1  0
  2  3  2  0
  2  4  1  0
  4  5  1  0
  4 10  1  0
  5  6  2  0
  5  7  1  0
  7  8  2  0
  7  9  1  0
 11 12  1  0
 11 16  1  0
 12 13  1  0
 13 14  1  0
 13 15  1  0
 15 16  1  0
 15 17  1  0
 17 18  1  0
  8 19  1  0
  9 20  1  0
  9 21  1  0
  9 22  1  0
 10 23  1  0
 10 24  1  0
 10 25  1  0
 11 26  1  1
 12 27  1  0
 12 28  1  0
 13 29  1  1
 14 30  1  0
 15 31  1  6
 17 32  1  0
 17 33  1  0
 18 34  1  0
M  END
