
     RDKit          3D

 46 48  0  0  0  0  0  0  0  0999 V2000
   -5.5127   -0.5777   -1.2375 C   0  0  0  0  0  0  0  0  0  0  0  0
   -6.1665   -1.7656   -1.0599 C   0  0  0  0  0  0  0  0  0  0  0  0
   -6.4794   -2.1800    0.2562 C   0  0  0  0  0  0  0  0  0  0  0  0
   -7.1222   -3.3320    0.4806 N   0  0  0  0  0  0  0  0  0  0  0  0
   -6.1622   -1.4390    1.3258 N   0  0  0  0  0  0  0  0  0  0  0  0
   -5.5326   -0.2940    1.1392 C   0  0  0  0  0  0  0  0  0  0  0  0
   -5.1792    0.1860   -0.1131 C   0  0  0  0  0  0  0  0  0  0  0  0
   -4.3194    1.7025   -0.2782 S   0  0  1  0  0  0  0  0  0  0  0  0
   -4.5931    2.2352   -1.6101 O   0  0  0  0  0  0  0  0  0  0  0  0
   -4.6021    2.5182    0.8998 O   0  0  0  0  0  0  0  0  0  0  0  0
   -2.6050    1.2504   -0.2158 C   0  0  0  0  0  0  0  0  0  0  0  0
   -1.9502    1.2345    1.0076 C   0  0  0  0  0  0  0  0  0  0  0  0
   -0.6205    0.8551    1.0566 C   0  0  0  0  0  0  0  0  0  0  0  0
   -1.9429    0.9014   -1.3850 C   0  0  0  0  0  0  0  0  0  0  0  0
   -0.6133    0.5214   -1.3212 C   0  0  0  0  0  0  0  0  0  0  0  0
    0.0670    0.4900   -0.1024 C   0  0  0  0  0  0  0  0  0  0  0  0
    1.4832    0.0849   -0.0352 C   0  0  0  0  0  0  0  0  0  0  0  0
    1.9677   -0.6503    1.0433 C   0  0  0  0  0  0  0  0  0  0  0  0
    3.2993   -1.0304    1.1094 C   0  0  0  0  0  0  0  0  0  0  0  0
    2.3790    0.4203   -1.0500 C   0  0  0  0  0  0  0  0  0  0  0  0
    3.7096    0.0459   -0.9804 C   0  0  0  0  0  0  0  0  0  0  0  0
    4.1971   -0.6805    0.1061 C   0  0  0  0  0  0  0  0  0  0  0  0
    5.6597   -1.1163    0.1757 C   0  0  2  0  0  0  0  0  0  0  0  0
    6.5503    0.1200    0.4044 C   0  0  1  0  0  0  0  0  0  0  0  0
    7.8385   -0.2136    0.5222 F   0  0  0  0  0  0  0  0  0  0  0  0
    6.4679    1.0108   -0.5887 F   0  0  0  0  0  0  0  0  0  0  0  0
    6.2064    0.7567    1.5335 F   0  0  0  0  0  0  0  0  0  0  0  0
    6.0723   -1.8382   -1.1046 C   0  0  0  0  0  0  0  0  0  0  0  0
    5.9075   -2.0090    1.2269 O   0  0  0  0  0  0  0  0  0  0  0  0
   -5.2680   -0.2420   -2.2366 H   0  0  0  0  0  0  0  0  0  0  0  0
   -6.4423   -2.3789   -1.9068 H   0  0  0  0  0  0  0  0  0  0  0  0
   -7.3316   -3.9696   -0.2669 H   0  0  0  0  0  0  0  0  0  0  0  0
   -7.2683   -3.6494    1.4232 H   0  0  0  0  0  0  0  0  0  0  0  0
   -5.3002    0.2718    2.0347 H   0  0  0  0  0  0  0  0  0  0  0  0
   -2.4574    1.5231    1.9179 H   0  0  0  0  0  0  0  0  0  0  0  0
   -0.1081    0.8674    2.0095 H   0  0  0  0  0  0  0  0  0  0  0  0
   -2.4488    0.9189   -2.3411 H   0  0  0  0  0  0  0  0  0  0  0  0
   -0.1084    0.2319   -2.2335 H   0  0  0  0  0  0  0  0  0  0  0  0
    1.2988   -0.9588    1.8369 H   0  0  0  0  0  0  0  0  0  0  0  0
    3.6066   -1.6236    1.9596 H   0  0  0  0  0  0  0  0  0  0  0  0
    2.0452    0.9981   -1.9026 H   0  0  0  0  0  0  0  0  0  0  0  0
    4.3559    0.3303   -1.7989 H   0  0  0  0  0  0  0  0  0  0  0  0
    6.0012   -1.1977   -1.9809 H   0  0  0  0  0  0  0  0  0  0  0  0
    7.0950   -2.2080   -1.0365 H   0  0  0  0  0  0  0  0  0  0  0  0
    5.4112   -2.6893   -1.2608 H   0  0  0  0  0  0  0  0  0  0  0  0
    5.6767   -1.6177    2.0777 H   0  0  0  0  0  0  0  0  0  0  0  0
 10  8  2  0
  6  5  2  0
  6  7  1  0
  5  3  1  0
  8  7  1  1
  8  9  2  0
  8 11  1  0
  7  1  2  0
  3  4  1  0
  3  2  2  0
 12 11  2  0
 12 13  1  0
 11 14  1  0
  1  2  1  0
 13 16  2  0
 14 15  2  0
 16 15  1  0
 16 17  1  0
 18 17  2  0
 18 19  1  0
 17 20  1  0
 19 22  2  0
 20 21  2  0
 22 21  1  0
 22 23  1  0
 23 29  1  1
 24 26  1  6
 23 24  1  0
 23 28  1  0
 24 27  1  0
 24 25  1  0
  1 30  1  0
  2 31  1  0
  4 32  1  0
  4 33  1  0
  6 34  1  0
 12 35  1  0
 13 36  1  0
 14 37  1  0
 15 38  1  0
 18 39  1  0
 19 40  1  0
 20 41  1  0
 21 42  1  0
 28 43  1  0
 28 44  1  0
 28 45  1  0
 29 46  1  0
M  END
