
     RDKit          3D

 42 44  0  0  0  0  0  0  0  0999 V2000
   -8.9348   -0.2909    0.4561 C   0  0  0  0  0  0  0  0  0  0  0  0
   -9.0268    0.9423   -0.1682 C   0  0  0  0  0  0  0  0  0  0  0  0
   -7.8541    1.5731   -0.5641 C   0  0  0  0  0  0  0  0  0  0  0  0
   -6.6563    1.0455   -0.3689 N   0  0  0  0  0  0  0  0  0  0  0  0
   -6.5708   -0.1368    0.2317 C   0  0  0  0  0  0  0  0  0  0  0  0
   -7.6812   -0.8470    0.6643 C   0  0  0  0  0  0  0  0  0  0  0  0
   -5.1959   -0.7065    0.4394 C   0  0  0  0  0  0  0  0  0  0  0  0
   -5.0357   -1.7829    0.9903 O   0  0  0  0  0  0  0  0  0  0  0  0
   -4.2156    0.0859   -0.0362 N   0  0  0  0  0  0  0  0  0  0  0  0
   -2.8340   -0.1058   -0.0183 C   0  0  0  0  0  0  0  0  0  0  0  0
   -2.0448    0.9111   -0.5540 C   0  0  0  0  0  0  0  0  0  0  0  0
   -0.6640    0.8272   -0.5878 C   0  0  0  0  0  0  0  0  0  0  0  0
   -0.0258   -0.3029   -0.0761 C   0  0  0  0  0  0  0  0  0  0  0  0
   -0.8150   -1.3211    0.4571 C   0  0  0  0  0  0  0  0  0  0  0  0
   -2.1952   -1.2364    0.4923 C   0  0  0  0  0  0  0  0  0  0  0  0
    1.3593   -0.5042   -0.0557 N   0  0  0  0  0  0  0  0  0  0  0  0
    2.3458    0.3094   -0.4982 C   0  0  0  0  0  0  0  0  0  0  0  0
    2.1576    1.4218   -0.9612 O   0  0  0  0  0  0  0  0  0  0  0  0
    3.7278   -0.2410   -0.3691 C   0  0  0  0  0  0  0  0  0  0  0  0
    4.0247   -1.6095   -0.2996 C   0  0  0  0  0  0  0  0  0  0  0  0
    5.3199   -2.0559   -0.2038 C   0  0  0  0  0  0  0  0  0  0  0  0
    6.3938   -1.1592   -0.1654 C   0  0  0  0  0  0  0  0  0  0  0  0
    6.0889    0.2150   -0.2450 C   0  0  0  0  0  0  0  0  0  0  0  0
    4.7748    0.6571   -0.3564 C   0  0  0  0  0  0  0  0  0  0  0  0
    7.1338    1.2044   -0.2181 N   0  0  0  0  0  0  0  0  0  0  0  0
    8.2888    0.8162   -0.1173 O   0  0  0  0  0  0  0  0  0  0  0  0
    6.8437    2.3695   -0.2939 O   0  0  0  0  0  0  0  0  0  0  0  0
    7.6061   -1.6704   -0.0624 O   0  0  0  0  0  0  0  0  0  0  0  0
   -9.8256   -0.8142    0.7764 H   0  0  0  0  0  0  0  0  0  0  0  0
   -9.9836    1.4118   -0.3487 H   0  0  0  0  0  0  0  0  0  0  0  0
   -7.8866    2.5375   -1.0571 H   0  0  0  0  0  0  0  0  0  0  0  0
   -7.5695   -1.8061    1.1493 H   0  0  0  0  0  0  0  0  0  0  0  0
   -4.5450    0.9462   -0.4583 H   0  0  0  0  0  0  0  0  0  0  0  0
   -2.5174    1.7992   -0.9568 H   0  0  0  0  0  0  0  0  0  0  0  0
   -0.1059    1.6456   -1.0100 H   0  0  0  0  0  0  0  0  0  0  0  0
   -0.3437   -2.2107    0.8584 H   0  0  0  0  0  0  0  0  0  0  0  0
   -2.7540   -2.0539    0.9165 H   0  0  0  0  0  0  0  0  0  0  0  0
    1.6403   -1.3579    0.4007 H   0  0  0  0  0  0  0  0  0  0  0  0
    3.2416   -2.3553   -0.3446 H   0  0  0  0  0  0  0  0  0  0  0  0
    5.5303   -3.1163   -0.1622 H   0  0  0  0  0  0  0  0  0  0  0  0
    4.5735    1.7166   -0.4272 H   0  0  0  0  0  0  0  0  0  0  0  0
    8.2602   -0.9472   -0.0430 H   0  0  0  0  0  0  0  0  0  0  0  0
  1  2  2  0
  1  6  1  0
  2  3  1  0
  6  5  2  0
  3  4  2  0
  5  4  1  0
  5  7  1  0
  7  9  1  0
  7  8  2  0
  9 10  1  0
 11 10  2  0
 11 12  1  0
 10 15  1  0
 12 13  2  0
 18 17  2  0
 15 14  2  0
 13 14  1  0
 13 16  1  0
 17 16  1  0
 17 19  1  0
 20 19  2  0
 20 21  1  0
 19 24  1  0
 21 22  2  0
 24 23  2  0
 22 23  1  0
 22 28  1  0
 23 25  1  0
 25 27  2  0
 25 26  1  0
  1 29  1  0
  2 30  1  0
  3 31  1  0
  6 32  1  0
  9 33  1  0
 11 34  1  0
 12 35  1  0
 14 36  1  0
 15 37  1  0
 16 38  1  0
 20 39  1  0
 21 40  1  0
 24 41  1  0
 28 42  1  0
M  CHG  2  25   1  26  -1
M  END
