
     RDKit          3D

 23 24  0  0  0  0  0  0  0  0999 V2000
    0.6377   -1.1919    0.3924 C   0  0  0  0  0  0  0  0  0  0  0  0
   -0.7437   -1.2061    0.4222 C   0  0  0  0  0  0  0  0  0  0  0  0
   -1.6457   -2.7862    0.9008 Br  0  0  0  0  0  0  0  0  0  0  0  0
   -1.5028   -0.0729    0.1150 C   0  0  0  0  0  0  0  0  0  0  0  0
   -2.8300   -0.1715    0.1697 O   0  0  0  0  0  0  0  0  0  0  0  0
   -0.7932    1.0818   -0.2265 C   0  0  0  0  0  0  0  0  0  0  0  0
   -1.7462    2.6496   -0.6690 Br  0  0  0  0  0  0  0  0  0  0  0  0
    0.5906    1.1063   -0.2620 C   0  0  0  0  0  0  0  0  0  0  0  0
    1.3286   -0.0316    0.0478 C   0  0  0  0  0  0  0  0  0  0  0  0
    2.8040   -0.0110    0.0110 C   0  0  0  0  0  0  0  0  0  0  0  0
    3.5128    1.1127    0.4384 C   0  0  0  0  0  0  0  0  0  0  0  0
    4.8992    1.1325    0.4014 C   0  0  0  0  0  0  0  0  0  0  0  0
    5.6026    0.0278   -0.0607 C   0  0  0  0  0  0  0  0  0  0  0  0
    4.9074   -1.0962   -0.4868 C   0  0  0  0  0  0  0  0  0  0  0  0
    3.5208   -1.1150   -0.4525 C   0  0  0  0  0  0  0  0  0  0  0  0
    1.1861   -2.0863    0.6577 H   0  0  0  0  0  0  0  0  0  0  0  0
   -3.2714    0.6513   -0.0779 H   0  0  0  0  0  0  0  0  0  0  0  0
    1.0997    2.0157   -0.5534 H   0  0  0  0  0  0  0  0  0  0  0  0
    2.9807    1.9737    0.8234 H   0  0  0  0  0  0  0  0  0  0  0  0
    5.4297    2.0111    0.7444 H   0  0  0  0  0  0  0  0  0  0  0  0
    6.6843    0.0429   -0.0887 H   0  0  0  0  0  0  0  0  0  0  0  0
    5.4437   -1.9604   -0.8565 H   0  0  0  0  0  0  0  0  0  0  0  0
    2.9937   -1.9904   -0.8112 H   0  0  0  0  0  0  0  0  0  0  0  0
  1  2  2  0
  1  9  1  0
  2  3  1  0
  2  4  1  0
  4  5  1  0
  4  6  2  0
  6  7  1  0
  6  8  1  0
  8  9  2  0
  9 10  1  0
 10 11  2  0
 10 15  1  0
 11 12  1  0
 12 13  2  0
 13 14  1  0
 14 15  2  0
  1 16  1  0
  5 17  1  0
  8 18  1  0
 11 19  1  0
 12 20  1  0
 13 21  1  0
 14 22  1  0
 15 23  1  0
M  END
