
     RDKit          3D

 10  9  0  0  0  0  0  0  0  0999 V2000
   -0.4511   -1.1106    1.0731 O   0  0  0  0  0  0  0  0  0  0  0  0
   -0.0438    0.2514    0.3350 S   0  0  1  0  0  0  0  0  0  0  0  0
    0.5869   -0.3983   -1.1657 C   0  0  0  0  0  0  0  0  0  0  0  0
    0.0063   -0.1337   -2.3240 C   0  0  0  0  0  0  0  0  0  0  0  0
   -1.2558    0.9994    0.0802 O   0  0  0  0  0  0  0  0  0  0  0  0
    1.0334    0.8745    1.0800 O   0  0  0  0  0  0  0  0  0  0  0  0
   -0.0849   -1.1556    1.9720 H   0  0  0  0  0  0  0  0  0  0  0  0
    1.4871   -0.9905   -1.0562 H   0  0  0  0  0  0  0  0  0  0  0  0
    0.4303   -0.5201   -3.2401 H   0  0  0  0  0  0  0  0  0  0  0  0
   -0.8907    0.4640   -2.4093 H   0  0  0  0  0  0  0  0  0  0  0  0
  2  1  1  1
  1  7  1  0
  2  3  1  0
  2  5  2  0
  2  6  2  0
  3  4  2  0
  3  8  1  0
  4  9  1  0
  4 10  1  0
M  END
