
     RDKit          3D

 61 64  0  0  0  0  0  0  0  0999 V2000
   -5.4161   -1.7154    0.4471 N   0  0  0  0  0  0  0  0  0  0  0  0
   -1.4063    0.3228   -0.3440 N   0  0  0  0  0  0  0  0  0  0  0  0
    6.4486   -1.8124    1.0037 C   0  0  0  0  0  0  0  0  0  0  0  0
    0.9542    0.9985   -0.6086 C   0  0  0  0  0  0  0  0  0  0  0  0
    0.3687   -1.0790    0.4320 C   0  0  0  0  0  0  0  0  0  0  0  0
    8.7406   -0.4027    0.3269 C   0  0  0  0  0  0  0  0  0  0  0  0
    2.3008    0.7041   -0.4215 C   0  0  0  0  0  0  0  0  0  0  0  0
   -4.6010   -2.0627   -1.7716 C   0  0  0  0  0  0  0  0  0  0  0  0
   -0.0265    0.1129   -0.1791 C   0  0  0  0  0  0  0  0  0  0  0  0
    7.4878    0.1104    0.0106 C   0  0  0  0  0  0  0  0  0  0  0  0
   -5.2806   -2.4737   -0.6159 C   0  0  0  0  0  0  0  0  0  0  0  0
   -5.0935    0.3361    1.6831 C   0  0  0  0  0  0  0  0  0  0  0  0
   -4.1513    1.5267    1.7210 C   0  0  0  0  0  0  0  0  0  0  0  0
   -3.5945    1.4038   -0.6321 C   0  0  2  0  0  0  0  0  0  0  0  0
    8.4097    2.0689   -0.9729 C   0  0  0  0  0  0  0  0  0  0  0  0
    4.9966    0.0097   -0.0122 C   0  0  0  0  0  0  0  0  0  0  0  0
    7.7000   -2.3321    1.3222 C   0  0  0  0  0  0  0  0  0  0  0  0
    8.8392   -1.6256    0.9819 C   0  0  0  0  0  0  0  0  0  0  0  0
   -4.0550   -0.8036   -1.7638 C   0  0  0  0  0  0  0  0  0  0  0  0
    1.7031   -1.3760    0.6142 C   0  0  0  0  0  0  0  0  0  0  0  0
   -4.1785    0.0130   -0.6336 C   0  0  0  0  0  0  0  0  0  0  0  0
    6.3235   -0.5963    0.3505 C   0  0  0  0  0  0  0  0  0  0  0  0
    2.6873   -0.4816    0.1923 C   0  0  0  0  0  0  0  0  0  0  0  0
   -4.8786   -0.4926    0.4515 C   0  0  0  0  0  0  0  0  0  0  0  0
   -2.0538    1.4882   -0.5308 C   0  0  0  0  0  0  0  0  0  0  0  0
   -4.6798    3.4412    0.2813 C   0  0  0  0  0  0  0  0  0  0  0  0
   -4.6739    4.0400   -1.1045 C   0  0  0  0  0  0  0  0  0  0  0  0
   -6.5022   -4.1400    0.5310 C   0  0  0  0  0  0  0  0  0  0  0  0
   -4.1588    2.1964    0.4325 N   0  0  0  0  0  0  0  0  0  0  0  0
   -1.5169    2.5770   -0.6135 O   0  0  0  0  0  0  0  0  0  0  0  0
   -5.1440    4.0546    1.2309 O   0  0  0  0  0  0  0  0  0  0  0  0
    3.9654   -0.8485    0.4181 O   0  0  0  0  0  0  0  0  0  0  0  0
   -5.8063   -3.6972   -0.6260 O   0  0  0  0  0  0  0  0  0  0  0  0
   -1.9818   -0.4976   -0.2212 H   0  0  0  0  0  0  0  0  0  0  0  0
    5.5629   -2.3707    1.2737 H   0  0  0  0  0  0  0  0  0  0  0  0
    0.6946    1.9235   -1.0974 H   0  0  0  0  0  0  0  0  0  0  0  0
   -0.3791   -1.7859    0.7720 H   0  0  0  0  0  0  0  0  0  0  0  0
    9.6452    0.1325    0.0725 H   0  0  0  0  0  0  0  0  0  0  0  0
    3.0295    1.4234   -0.7695 H   0  0  0  0  0  0  0  0  0  0  0  0
   -4.5214   -2.7138   -2.6311 H   0  0  0  0  0  0  0  0  0  0  0  0
   -4.9580   -0.2843    2.5707 H   0  0  0  0  0  0  0  0  0  0  0  0
   -6.1312    0.6829    1.6981 H   0  0  0  0  0  0  0  0  0  0  0  0
   -4.4356    2.2293    2.4976 H   0  0  0  0  0  0  0  0  0  0  0  0
   -3.1332    1.1937    1.9444 H   0  0  0  0  0  0  0  0  0  0  0  0
   -3.8333    1.8591   -1.5937 H   0  0  0  0  0  0  0  0  0  0  0  0
    9.0763    1.5474   -1.6644 H   0  0  0  0  0  0  0  0  0  0  0  0
    8.0227    2.9580   -1.4643 H   0  0  0  0  0  0  0  0  0  0  0  0
    8.9819    2.3724   -0.0925 H   0  0  0  0  0  0  0  0  0  0  0  0
    4.8936    0.9965    0.4566 H   0  0  0  0  0  0  0  0  0  0  0  0
    4.9339    0.1652   -1.0970 H   0  0  0  0  0  0  0  0  0  0  0  0
    7.7753   -3.2826    1.8335 H   0  0  0  0  0  0  0  0  0  0  0  0
    9.8189   -2.0182    1.2210 H   0  0  0  0  0  0  0  0  0  0  0  0
   -3.5289   -0.4422   -2.6399 H   0  0  0  0  0  0  0  0  0  0  0  0
    1.9904   -2.3045    1.0909 H   0  0  0  0  0  0  0  0  0  0  0  0
   -3.6632    4.1294   -1.5009 H   0  0  0  0  0  0  0  0  0  0  0  0
   -5.2557    3.4425   -1.8082 H   0  0  0  0  0  0  0  0  0  0  0  0
   -5.1152    5.0320   -1.0581 H   0  0  0  0  0  0  0  0  0  0  0  0
   -5.8548   -4.1650    1.4082 H   0  0  0  0  0  0  0  0  0  0  0  0
   -7.3651   -3.5108    0.7517 H   0  0  0  0  0  0  0  0  0  0  0  0
   -6.8412   -5.1477    0.3055 H   0  0  0  0  0  0  0  0  0  0  0  0
    7.2881    1.2821   -0.6251 O   0  0  0  0  0  0  0  0  0  0  0  0
 27 26  1  0
 31 26  2  0
 26 29  1  0
 13 29  1  0
 13 12  1  0
 29 14  1  0
 30 25  2  0
 12 24  1  0
 14 25  1  0
 14 21  1  0
 25  2  1  0
  2  9  1  0
 24 21  1  0
 24  1  2  0
  5  9  1  0
  5 20  2  0
 21 19  2  0
  9  4  2  0
 15 61  1  0
 20 23  1  0
  1 11  1  0
 19  8  1  0
 61 10  1  0
  4  7  1  0
 23  7  2  0
 23 32  1  0
 16 32  1  0
 16 22  1  0
 11  8  2  0
 11 33  1  0
 10 22  1  0
 10  6  2  0
 22  3  2  0
  6 18  1  0
 33 28  1  0
  3 17  1  0
 18 17  2  0
  2 34  1  0
  3 35  1  0
  4 36  1  0
  5 37  1  0
  6 38  1  0
  7 39  1  0
  8 40  1  0
 12 41  1  0
 12 42  1  0
 13 43  1  0
 13 44  1  0
 14 45  1  6
 15 46  1  0
 15 47  1  0
 15 48  1  0
 16 49  1  0
 16 50  1  0
 17 51  1  0
 18 52  1  0
 19 53  1  0
 20 54  1  0
 27 55  1  0
 27 56  1  0
 27 57  1  0
 28 58  1  0
 28 59  1  0
 28 60  1  0
M  END
