
     RDKit          3D

 26 25  0  0  0  0  0  0  0  0999 V2000
   -2.6677   -1.4212   -0.4752 N   0  0  0  0  0  0  0  0  0  0  0  0
   -2.3247   -0.1353    0.0934 C   0  0  1  0  0  0  0  0  0  0  0  0
   -1.0310    0.4422   -0.4825 C   0  0  0  0  0  0  0  0  0  0  0  0
    0.3267   -0.5816   -0.0059 S   0  0  0  0  0  0  0  0  0  0  0  0
    1.6825    0.5168   -0.2916 C   0  0  0  0  0  0  0  0  0  0  0  0
   -3.4123    0.9569   -0.0642 C   0  0  0  0  0  0  0  0  0  0  0  0
   -4.6086    0.4357    0.4888 O   0  0  0  0  0  0  0  0  0  0  0  0
    2.9451   -0.2352    0.0432 C   0  0  0  0  0  0  0  0  0  0  0  0
    4.1554    0.6905   -0.0900 C   0  0  0  0  0  0  0  0  0  0  0  0
    5.4131    0.0217    0.1404 N   0  0  0  0  0  0  0  0  0  0  0  0
   -3.5206   -1.7510   -0.0638 H   0  0  0  0  0  0  0  0  0  0  0  0
   -2.7883   -1.3524   -1.4667 H   0  0  0  0  0  0  0  0  0  0  0  0
   -2.1813   -0.3054    1.2040 H   0  0  0  0  0  0  0  0  0  0  0  0
   -0.8839    1.4762   -0.0839 H   0  0  0  0  0  0  0  0  0  0  0  0
   -1.0899    0.5146   -1.5959 H   0  0  0  0  0  0  0  0  0  0  0  0
    1.5856    1.4297    0.3460 H   0  0  0  0  0  0  0  0  0  0  0  0
    1.6982    0.8526   -1.3571 H   0  0  0  0  0  0  0  0  0  0  0  0
   -3.1025    1.8834    0.4869 H   0  0  0  0  0  0  0  0  0  0  0  0
   -3.5690    1.2081   -1.1470 H   0  0  0  0  0  0  0  0  0  0  0  0
   -5.2665    1.1386    0.4389 H   0  0  0  0  0  0  0  0  0  0  0  0
    3.0594   -1.1137   -0.6461 H   0  0  0  0  0  0  0  0  0  0  0  0
    2.8826   -0.6344    1.0905 H   0  0  0  0  0  0  0  0  0  0  0  0
    3.9986    1.5700    0.6048 H   0  0  0  0  0  0  0  0  0  0  0  0
    4.1839    1.1022   -1.1396 H   0  0  0  0  0  0  0  0  0  0  0  0
    6.1575    0.6880    0.1874 H   0  0  0  0  0  0  0  0  0  0  0  0
    5.3912   -0.5099    0.9875 H   0  0  0  0  0  0  0  0  0  0  0  0
  1  2  1  0
  1 11  1  0
  1 12  1  0
  2  3  1  0
  2  6  1  0
  2 13  1  1
  3  4  1  0
  3 14  1  0
  3 15  1  0
  4  5  1  0
  5  8  1  0
  5 16  1  0
  5 17  1  0
  6  7  1  0
  6 18  1  0
  6 19  1  0
  7 20  1  0
  8  9  1  0
  8 21  1  0
  8 22  1  0
  9 10  1  0
  9 23  1  0
  9 24  1  0
 10 25  1  0
 10 26  1  0
M  END
