
     RDKit          3D

 53 57  0  0  0  0  0  0  0  0999 V2000
    5.0484   -1.6678    1.3611 C   0  0  0  0  0  0  0  0  0  0  0  0
    3.8597    0.2323   -0.8222 N   0  0  0  0  0  0  0  0  0  0  0  0
    6.4786   -0.1508    0.0381 O   0  0  0  0  0  0  0  0  0  0  0  0
    5.6006   -1.2632   -0.0005 C   0  0  2  0  0  0  0  0  0  0  0  0
   -0.0955    0.9862   -0.0640 N   0  0  0  0  0  0  0  0  0  0  0  0
   -5.3332    0.6636    0.2692 O   0  0  0  0  0  0  0  0  0  0  0  0
    4.4906   -1.0527   -1.0295 C   0  0  0  0  0  0  0  0  0  0  0  0
    2.1347    1.6963   -0.4227 N   0  0  0  0  0  0  0  0  0  0  0  0
    4.8146    1.3153   -0.9422 C   0  0  0  0  0  0  0  0  0  0  0  0
   -0.4334   -2.5901   -0.0696 N   0  0  0  0  0  0  0  0  0  0  0  0
    5.9142    1.1503    0.1004 C   0  0  1  0  0  0  0  0  0  0  0  0
   -1.5669   -3.2551    0.0445 N   0  0  0  0  0  0  0  0  0  0  0  0
    5.4543    1.5543    1.4953 C   0  0  0  0  0  0  0  0  0  0  0  0
    2.5518    0.4280   -0.5598 C   0  0  0  0  0  0  0  0  0  0  0  0
    1.6238   -0.6249   -0.4365 C   0  0  0  0  0  0  0  0  0  0  0  0
    0.3083   -0.2878   -0.1912 C   0  0  0  0  0  0  0  0  0  0  0  0
    0.8535    1.8936   -0.1871 C   0  0  0  0  0  0  0  0  0  0  0  0
   -0.7313   -1.3053   -0.0635 C   0  0  0  0  0  0  0  0  0  0  0  0
   -2.6439   -2.4328    0.1259 C   0  0  0  0  0  0  0  0  0  0  0  0
   -4.0127   -2.6969    0.2418 C   0  0  0  0  0  0  0  0  0  0  0  0
   -4.8543   -1.6150    0.2830 C   0  0  0  0  0  0  0  0  0  0  0  0
   -4.3665   -0.2859    0.2158 C   0  0  0  0  0  0  0  0  0  0  0  0
   -4.9729    2.0172    0.1660 C   0  0  1  0  0  0  0  0  0  0  0  0
   -4.6692    2.4719   -1.2373 C   0  0  0  0  0  0  0  0  0  0  0  0
   -5.7362    2.9125    1.0803 C   0  0  0  0  0  0  0  0  0  0  0  0
   -4.2813    2.6306    1.3420 C   0  0  0  0  0  0  0  0  0  0  0  0
   -3.0168   -0.0275    0.1103 C   0  0  0  0  0  0  0  0  0  0  0  0
   -2.1420   -1.1257    0.0619 C   0  0  0  0  0  0  0  0  0  0  0  0
    4.2286   -1.0345    1.6995 H   0  0  0  0  0  0  0  0  0  0  0  0
    4.6664   -2.6881    1.3032 H   0  0  0  0  0  0  0  0  0  0  0  0
    5.8295   -1.6461    2.1211 H   0  0  0  0  0  0  0  0  0  0  0  0
    6.2217   -2.0872   -0.3625 H   0  0  0  0  0  0  0  0  0  0  0  0
    3.7781   -1.8705   -0.9666 H   0  0  0  0  0  0  0  0  0  0  0  0
    4.9127   -1.0718   -2.0398 H   0  0  0  0  0  0  0  0  0  0  0  0
    5.2490    1.2862   -1.9479 H   0  0  0  0  0  0  0  0  0  0  0  0
    4.3152    2.2720   -0.8211 H   0  0  0  0  0  0  0  0  0  0  0  0
    6.7333    1.8171   -0.1843 H   0  0  0  0  0  0  0  0  0  0  0  0
    6.2305    1.3517    2.2337 H   0  0  0  0  0  0  0  0  0  0  0  0
    5.2522    2.6263    1.5125 H   0  0  0  0  0  0  0  0  0  0  0  0
    4.5450    1.0445    1.8103 H   0  0  0  0  0  0  0  0  0  0  0  0
    1.9011   -1.6625   -0.5367 H   0  0  0  0  0  0  0  0  0  0  0  0
    0.5446    2.9295   -0.0830 H   0  0  0  0  0  0  0  0  0  0  0  0
   -4.3975   -3.7066    0.2950 H   0  0  0  0  0  0  0  0  0  0  0  0
   -5.9226   -1.7678    0.3699 H   0  0  0  0  0  0  0  0  0  0  0  0
   -3.8277    1.9311   -1.6719 H   0  0  0  0  0  0  0  0  0  0  0  0
   -5.5342    2.3301   -1.8868 H   0  0  0  0  0  0  0  0  0  0  0  0
   -4.4151    3.5313   -1.2448 H   0  0  0  0  0  0  0  0  0  0  0  0
   -6.0196    3.8891    0.7085 H   0  0  0  0  0  0  0  0  0  0  0  0
   -6.4598    2.4591    1.7465 H   0  0  0  0  0  0  0  0  0  0  0  0
   -4.0424    1.9918    2.1835 H   0  0  0  0  0  0  0  0  0  0  0  0
   -3.5543    3.4117    1.1571 H   0  0  0  0  0  0  0  0  0  0  0  0
   -2.6180    0.9735    0.0690 H   0  0  0  0  0  0  0  0  0  0  0  0
   -1.5553   -4.2622    0.0631 H   0  0  0  0  0  0  0  0  0  0  0  0
 24 23  1  0
 25 23  1  0
 25 26  1  0
 23 26  1  0
 23  6  1  6
  6 22  1  0
 22 27  1  0
 22 21  2  0
 27 28  2  0
 21 20  1  0
 17  5  2  0
 17  8  1  0
  5 16  1  0
 28 19  1  0
 28 18  1  0
 20 19  2  0
  8 14  2  0
 19 12  1  0
 16 18  1  0
 16 15  2  0
 18 10  2  0
 14 15  1  0
 14  2  1  0
 12 10  1  0
  7  2  1  0
  7  4  1  0
  2  9  1  0
  1  4  1  0
  4  3  1  0
  9 11  1  0
  3 11  1  0
 11 13  1  0
  1 29  1  0
  1 30  1  0
  1 31  1  0
  4 32  1  6
  7 33  1  0
  7 34  1  0
  9 35  1  0
  9 36  1  0
 11 37  1  6
 13 38  1  0
 13 39  1  0
 13 40  1  0
 15 41  1  0
 17 42  1  0
 20 43  1  0
 21 44  1  0
 24 45  1  0
 24 46  1  0
 24 47  1  0
 25 48  1  0
 25 49  1  0
 26 50  1  0
 26 51  1  0
 27 52  1  0
 12 53  1  0
M  END
