
     RDKit          3D

 24 25  0  0  0  0  0  0  0  0999 V2000
    4.5283    0.9413   -0.1789 O   0  0  0  0  0  0  0  0  0  0  0  0
    3.3407    0.6178   -0.1738 C   0  0  0  0  0  0  0  0  0  0  0  0
    2.8738   -0.6253    0.4112 C   0  0  0  0  0  0  0  0  0  0  0  0
    3.8058   -1.4149    0.9605 O   0  0  0  0  0  0  0  0  0  0  0  0
    1.5579   -0.9546    0.4074 C   0  0  0  0  0  0  0  0  0  0  0  0
    0.5905   -0.0838   -0.1753 C   0  0  0  0  0  0  0  0  0  0  0  0
   -0.8382   -0.4381   -0.1908 C   0  0  0  0  0  0  0  0  0  0  0  0
   -1.2439   -1.7614   -0.3773 C   0  0  0  0  0  0  0  0  0  0  0  0
   -2.5873   -2.1048   -0.4010 C   0  0  0  0  0  0  0  0  0  0  0  0
   -3.5615   -1.1340   -0.2432 C   0  0  0  0  0  0  0  0  0  0  0  0
   -3.1647    0.1889   -0.0544 C   0  0  0  0  0  0  0  0  0  0  0  0
   -4.1536    1.2035    0.1246 C   0  0  0  0  0  0  0  0  0  0  0  0
   -4.9545    2.0192    0.2687 N   0  0  0  0  0  0  0  0  0  0  0  0
   -1.8166    0.5371   -0.0200 C   0  0  0  0  0  0  0  0  0  0  0  0
    1.0321    1.0768   -0.7265 C   0  0  0  0  0  0  0  0  0  0  0  0
    2.3538    1.3892   -0.7106 N   0  0  0  0  0  0  0  0  0  0  0  0
    4.6668   -0.9815    0.8640 H   0  0  0  0  0  0  0  0  0  0  0  0
    1.2422   -1.8807    0.8726 H   0  0  0  0  0  0  0  0  0  0  0  0
   -0.5021   -2.5359   -0.5240 H   0  0  0  0  0  0  0  0  0  0  0  0
   -2.8750   -3.1361   -0.5524 H   0  0  0  0  0  0  0  0  0  0  0  0
   -4.6111   -1.3929   -0.2636 H   0  0  0  0  0  0  0  0  0  0  0  0
   -1.5374    1.5670    0.1604 H   0  0  0  0  0  0  0  0  0  0  0  0
    0.3913    1.7937   -1.2176 H   0  0  0  0  0  0  0  0  0  0  0  0
    2.6423    2.2601   -1.1366 H   0  0  0  0  0  0  0  0  0  0  0  0
 13 12  3  0
 12 11  1  0
 11 10  2  0
 11 14  1  0
 10  9  1  0
 14  7  2  0
  9  8  2  0
  7  8  1  0
  7  6  1  0
 15  6  2  0
 15 16  1  0
  6  5  1  0
 16  2  1  0
  5  3  2  0
  2  3  1  0
  2  1  2  0
  3  4  1  0
  4 17  1  0
  5 18  1  0
  8 19  1  0
  9 20  1  0
 10 21  1  0
 14 22  1  0
 15 23  1  0
 16 24  1  0
M  END
