
     RDKit          3D

 24 24  0  0  0  0  0  0  0  0999 V2000
   -1.6183    0.4687   -0.7980 C   0  0  0  0  0  0  0  0  0  0  0  0
    1.9146    1.0165    0.5025 C   0  0  0  0  0  0  0  0  0  0  0  0
    1.8321   -1.1330   -0.5671 C   0  0  0  0  0  0  0  0  0  0  0  0
   -2.5340    0.1763    0.3953 C   0  0  2  0  0  0  0  0  0  0  0  0
    2.5528   -0.1610    0.1208 C   0  0  0  0  0  0  0  0  0  0  0  0
    3.8536   -0.4060    0.3878 O   0  0  0  0  0  0  0  0  0  0  0  0
    0.4944   -0.9209   -0.8657 C   0  0  0  0  0  0  0  0  0  0  0  0
    0.5767    1.2109    0.1922 C   0  0  0  0  0  0  0  0  0  0  0  0
   -0.1615    0.2522   -0.4976 C   0  0  0  0  0  0  0  0  0  0  0  0
   -2.3963   -1.2200    0.7868 N   0  0  0  0  0  0  0  0  0  0  0  0
   -3.9836    0.4573    0.0324 C   0  0  0  0  0  0  0  0  0  0  0  0
   -1.9276   -0.1636   -1.6357 H   0  0  0  0  0  0  0  0  0  0  0  0
   -1.7817    1.5047   -1.1071 H   0  0  0  0  0  0  0  0  0  0  0  0
    2.3205   -2.0508   -0.8709 H   0  0  0  0  0  0  0  0  0  0  0  0
   -2.2491    0.8682    1.2042 H   0  0  0  0  0  0  0  0  0  0  0  0
    4.2504    0.3480    0.8376 H   0  0  0  0  0  0  0  0  0  0  0  0
   -0.0488   -1.6892   -1.4035 H   0  0  0  0  0  0  0  0  0  0  0  0
    0.1010    2.1372    0.4938 H   0  0  0  0  0  0  0  0  0  0  0  0
   -1.4535   -1.3908    1.1152 H   0  0  0  0  0  0  0  0  0  0  0  0
   -2.9987   -1.4063    1.5795 H   0  0  0  0  0  0  0  0  0  0  0  0
   -4.6473    0.2626    0.8771 H   0  0  0  0  0  0  0  0  0  0  0  0
   -4.1174    1.4993   -0.2604 H   0  0  0  0  0  0  0  0  0  0  0  0
   -4.3045   -0.1735   -0.7991 H   0  0  0  0  0  0  0  0  0  0  0  0
    2.4600    1.7858    1.0379 H   0  0  0  0  0  0  0  0  0  0  0  0
  1  4  1  0
  1  9  1  0
  2  5  2  0
  2  8  1  0
  3  5  1  0
  3  7  2  0
  4 10  1  0
  4 11  1  0
  5  6  1  0
  7  9  1  0
  8  9  2  0
  1 12  1  0
  1 13  1  0
  2 24  1  0
  3 14  1  0
  4 15  1  1
  6 16  1  0
  7 17  1  0
  8 18  1  0
 10 19  1  0
 10 20  1  0
 11 21  1  0
 11 22  1  0
 11 23  1  0
M  END
