
     RDKit          3D

 59 63  0  0  0  0  0  0  0  0999 V2000
   -6.9605   -1.4960    0.5111 C   0  0  0  0  0  0  0  0  0  0  0  0
    7.8686    0.4033   -1.5581 F   0  0  0  0  0  0  0  0  0  0  0  0
   -8.0118   -3.3127   -0.6362 N   0  0  0  0  0  0  0  0  0  0  0  0
   -1.1268   -1.2361    1.8892 O   0  0  0  0  0  0  0  0  0  0  0  0
   -8.0383   -2.3166    0.2443 C   0  0  0  0  0  0  0  0  0  0  0  0
    0.9415   -3.0925    1.2462 F   0  0  0  0  0  0  0  0  0  0  0  0
   -6.8671   -3.5028   -1.2797 C   0  0  0  0  0  0  0  0  0  0  0  0
   -1.1977    0.0117    0.0111 N   0  0  0  0  0  0  0  0  0  0  0  0
   -5.7194   -2.7466   -1.0974 C   0  0  0  0  0  0  0  0  0  0  0  0
   -1.1883    4.4392    0.8790 N   0  0  0  0  0  0  0  0  0  0  0  0
   -5.7596   -1.7045   -0.1709 C   0  0  0  0  0  0  0  0  0  0  0  0
   -3.4428   -0.8472   -0.3977 C   0  0  0  0  0  0  0  0  0  0  0  0
   -2.5949    0.3211    0.1053 C   0  0  2  0  0  0  0  0  0  0  0  0
    0.9209   -0.7930    0.7566 C   0  0  0  0  0  0  0  0  0  0  0  0
    1.6659    0.3388    0.4295 C   0  0  0  0  0  0  0  0  0  0  0  0
    3.0444    0.2841    0.3251 C   0  0  0  0  0  0  0  0  0  0  0  0
    3.7252   -0.9142    0.5395 C   0  0  0  0  0  0  0  0  0  0  0  0
    5.1956   -0.9823    0.4346 C   0  0  0  0  0  0  0  0  0  0  0  0
    5.9364   -1.7877    1.3003 C   0  0  0  0  0  0  0  0  0  0  0  0
    7.3182   -1.8437    1.1984 C   0  0  0  0  0  0  0  0  0  0  0  0
    7.9892   -1.1039    0.2348 C   0  0  0  0  0  0  0  0  0  0  0  0
    7.2390   -0.3121   -0.6129 C   0  0  0  0  0  0  0  0  0  0  0  0
    5.8635   -0.2341   -0.5349 C   0  0  0  0  0  0  0  0  0  0  0  0
    2.9901   -2.0551    0.8590 C   0  0  0  0  0  0  0  0  0  0  0  0
    1.6182   -1.9742    0.9676 C   0  0  0  0  0  0  0  0  0  0  0  0
   -2.9188    1.5947   -0.7012 C   0  0  0  0  0  0  0  0  0  0  0  0
   -2.0507    2.7392   -0.2955 C   0  0  0  0  0  0  0  0  0  0  0  0
   -2.2476    3.5869    0.7583 C   0  0  0  0  0  0  0  0  0  0  0  0
   -0.2713    4.1638   -0.0922 C   0  0  0  0  0  0  0  0  0  0  0  0
    0.9713    4.7376   -0.3575 C   0  0  0  0  0  0  0  0  0  0  0  0
    1.6966    4.2279   -1.4174 C   0  0  0  0  0  0  0  0  0  0  0  0
    1.1969    3.1797   -2.2080 C   0  0  0  0  0  0  0  0  0  0  0  0
   -0.0361    2.6170   -1.9449 C   0  0  0  0  0  0  0  0  0  0  0  0
   -0.7864    3.0994   -0.8652 C   0  0  0  0  0  0  0  0  0  0  0  0
   -7.0551   -0.7038    1.2428 H   0  0  0  0  0  0  0  0  0  0  0  0
   -8.9715   -2.1571    0.7728 H   0  0  0  0  0  0  0  0  0  0  0  0
   -4.8952   -0.1627    0.8293 H   0  0  0  0  0  0  0  0  0  0  0  0
   -6.8455   -4.3152   -1.9975 H   0  0  0  0  0  0  0  0  0  0  0  0
   -0.7023    0.2669   -0.8281 H   0  0  0  0  0  0  0  0  0  0  0  0
   -4.8364   -2.9800   -1.6675 H   0  0  0  0  0  0  0  0  0  0  0  0
   -1.1067    5.1583    1.5776 H   0  0  0  0  0  0  0  0  0  0  0  0
   -2.8321    0.5182    1.1540 H   0  0  0  0  0  0  0  0  0  0  0  0
    1.1659    1.2876    0.2800 H   0  0  0  0  0  0  0  0  0  0  0  0
    3.5922    1.1901    0.1036 H   0  0  0  0  0  0  0  0  0  0  0  0
    5.4362   -2.3566    2.0732 H   0  0  0  0  0  0  0  0  0  0  0  0
    7.8829   -2.4648    1.8804 H   0  0  0  0  0  0  0  0  0  0  0  0
    9.0667   -1.1429    0.1442 H   0  0  0  0  0  0  0  0  0  0  0  0
    5.3204    0.3839   -1.2389 H   0  0  0  0  0  0  0  0  0  0  0  0
    3.4755   -3.0124    1.0018 H   0  0  0  0  0  0  0  0  0  0  0  0
   -2.8060    1.3899   -1.7697 H   0  0  0  0  0  0  0  0  0  0  0  0
   -3.9716    1.8379   -0.5474 H   0  0  0  0  0  0  0  0  0  0  0  0
   -3.0764    3.6406    1.4471 H   0  0  0  0  0  0  0  0  0  0  0  0
    1.3579    5.5494    0.2456 H   0  0  0  0  0  0  0  0  0  0  0  0
    2.6677    4.6473   -1.6461 H   0  0  0  0  0  0  0  0  0  0  0  0
    1.7902    2.8095   -3.0339 H   0  0  0  0  0  0  0  0  0  0  0  0
   -0.4130    1.8147   -2.5706 H   0  0  0  0  0  0  0  0  0  0  0  0
   -4.6997   -0.8590    0.1242 N   0  0  0  0  0  0  0  0  0  0  0  0
   -0.5587   -0.7171    0.9429 C   0  0  0  0  0  0  0  0  0  0  0  0
   -3.0263   -1.6442   -1.2098 O   0  0  0  0  0  0  0  0  0  0  0  0
  1  5  2  0
  1 11  1  0
  2 22  1  0
  3  5  1  0
  3  7  2  0
  4 58  2  0
  6 25  1  0
 57 11  1  0
 57 12  1  0
 59 12  2  0
  7  9  1  0
  8 13  1  0
  8 58  1  0
  9 11  2  0
 10 28  1  0
 10 29  1  0
 12 13  1  0
 13 26  1  0
 58 14  1  0
 14 15  2  0
 14 25  1  0
 15 16  1  0
 16 17  2  0
 17 18  1  0
 17 24  1  0
 18 19  2  0
 18 23  1  0
 19 20  1  0
 20 21  2  0
 21 22  1  0
 22 23  2  0
 24 25  2  0
 26 27  1  0
 27 28  2  0
 27 34  1  0
 29 30  2  0
 29 34  1  0
 30 31  1  0
 31 32  2  0
 32 33  1  0
 33 34  2  0
  1 35  1  0
  5 36  1  0
 57 37  1  0
  7 38  1  0
  8 39  1  0
  9 40  1  0
 10 41  1  0
 13 42  1  1
 15 43  1  0
 16 44  1  0
 19 45  1  0
 20 46  1  0
 21 47  1  0
 23 48  1  0
 24 49  1  0
 26 50  1  0
 26 51  1  0
 28 52  1  0
 30 53  1  0
 31 54  1  0
 32 55  1  0
 33 56  1  0
M  END
