
     RDKit          3D

 32 33  0  0  0  0  0  0  0  0999 V2000
   -3.2928   -1.1192   -0.7873 C   0  0  0  0  0  0  0  0  0  0  0  0
   -4.6269   -0.7653   -0.8734 C   0  0  0  0  0  0  0  0  0  0  0  0
   -5.1553    0.1020    0.0717 C   0  0  0  0  0  0  0  0  0  0  0  0
   -6.5582    0.4757   -0.0148 N   0  0  0  0  0  0  0  0  0  0  0  0
   -7.2231   -0.0175   -0.8946 O   0  0  0  0  0  0  0  0  0  0  0  0
   -6.9868    1.2606    0.7975 O   0  0  0  0  0  0  0  0  0  0  0  0
   -4.3814    0.6189    1.1008 C   0  0  0  0  0  0  0  0  0  0  0  0
   -3.0482    0.2622    1.1851 C   0  0  0  0  0  0  0  0  0  0  0  0
   -2.5189   -0.6063    0.2423 C   0  0  0  0  0  0  0  0  0  0  0  0
   -1.2089   -1.0091    0.3452 O   0  0  0  0  0  0  0  0  0  0  0  0
   -0.0150   -0.0560   -0.1561 P   0  0  1  0  0  0  0  0  0  0  0  0
    0.0147   -0.1286   -1.7390 O   0  0  0  0  0  0  0  0  0  0  0  0
   -0.0279    1.3332    0.3169 O   0  0  0  0  0  0  0  0  0  0  0  0
    1.1675   -1.0012    0.3870 O   0  0  0  0  0  0  0  0  0  0  0  0
    2.4805   -0.6105    0.2736 C   0  0  0  0  0  0  0  0  0  0  0  0
    3.0116    0.2920    1.1830 C   0  0  0  0  0  0  0  0  0  0  0  0
    4.3462    0.6403    1.0870 C   0  0  0  0  0  0  0  0  0  0  0  0
    5.1198    0.0804    0.0804 C   0  0  0  0  0  0  0  0  0  0  0  0
    6.5239    0.4462   -0.0191 N   0  0  0  0  0  0  0  0  0  0  0  0
    6.9551    1.2578    0.7650 O   0  0  0  0  0  0  0  0  0  0  0  0
    7.1873   -0.0800   -0.8808 O   0  0  0  0  0  0  0  0  0  0  0  0
    4.5900   -0.8220   -0.8305 C   0  0  0  0  0  0  0  0  0  0  0  0
    3.2544   -1.1672   -0.7331 C   0  0  0  0  0  0  0  0  0  0  0  0
   -2.8640   -1.8004   -1.5098 H   0  0  0  0  0  0  0  0  0  0  0  0
   -5.2332   -1.1658   -1.6722 H   0  0  0  0  0  0  0  0  0  0  0  0
   -4.8009    1.2893    1.8361 H   0  0  0  0  0  0  0  0  0  0  0  0
   -2.4348    0.6462    1.9882 H   0  0  0  0  0  0  0  0  0  0  0  0
    0.0189   -1.0097   -2.1398 H   0  0  0  0  0  0  0  0  0  0  0  0
    2.3977    0.7099    1.9685 H   0  0  0  0  0  0  0  0  0  0  0  0
    4.7669    1.3392    1.7945 H   0  0  0  0  0  0  0  0  0  0  0  0
    5.1968   -1.2555   -1.6113 H   0  0  0  0  0  0  0  0  0  0  0  0
    2.8242   -1.8753   -1.4285 H   0  0  0  0  0  0  0  0  0  0  0  0
  1  2  2  0
  1  9  1  0
  2  3  1  0
  3  4  1  0
  3  7  2  0
  4  5  2  0
  4  6  1  0
  7  8  1  0
  8  9  2  0
  9 10  1  0
 11 10  1  1
 11 12  1  0
 11 13  2  0
 11 14  1  0
 14 15  1  0
 15 16  2  0
 15 23  1  0
 16 17  1  0
 17 18  2  0
 18 19  1  0
 18 22  1  0
 19 20  2  0
 19 21  1  0
 22 23  2  0
  1 24  1  0
  2 25  1  0
  7 26  1  0
  8 27  1  0
 12 28  1  0
 16 29  1  0
 17 30  1  0
 22 31  1  0
 23 32  1  0
M  CHG  4   4   1   6  -1  19   1  21  -1
M  END
