
     RDKit          3D

 62 64  0  0  0  0  0  0  0  0999 V2000
   -6.8111    2.8017    0.7651 C   0  0  0  0  0  0  0  0  0  0  0  0
   -9.2098    2.0384    0.6256 C   0  0  0  0  0  0  0  0  0  0  0  0
   -4.1769   -2.0553   -1.8760 C   0  0  0  0  0  0  0  0  0  0  0  0
   -7.4378    0.6797   -0.4300 C   0  0  0  0  0  0  0  0  0  0  0  0
   -3.2706   -1.5204    0.4091 C   0  0  0  0  0  0  0  0  0  0  0  0
   -6.0715    0.2358   -0.8491 C   0  0  0  0  0  0  0  0  0  0  0  0
   -1.8675   -2.0066    0.2264 C   0  0  0  0  0  0  0  0  0  0  0  0
    0.4566   -1.3555    0.3716 C   0  0  0  0  0  0  0  0  0  0  0  0
    1.4172   -0.1851    0.5049 C   0  0  0  0  0  0  0  0  0  0  0  0
   -5.6292   -1.0129   -0.0699 C   0  0  0  0  0  0  0  0  0  0  0  0
    7.0064    0.3381   -0.8580 C   0  0  0  0  0  0  0  0  0  0  0  0
    5.1255    1.9814   -0.7229 C   0  0  0  0  0  0  0  0  0  0  0  0
    4.7108   -0.3286   -1.5858 C   0  0  0  0  0  0  0  0  0  0  0  0
    6.0909    1.0258    1.3627 C   0  0  0  0  0  0  0  0  0  0  0  0
    5.6793   -1.2834    0.5061 C   0  0  0  0  0  0  0  0  0  0  0  0
   -0.9227   -0.9101    0.3716 N   0  0  0  0  0  0  0  0  0  0  0  0
    2.7754   -0.6652    0.6575 N   0  0  0  0  0  0  0  0  0  0  0  0
   -7.7765    1.7668    0.2680 C   0  0  0  0  0  0  0  0  0  0  0  0
   -4.2752   -1.5368   -0.4712 C   0  0  0  0  0  0  0  0  0  0  0  0
    6.4157    1.4999   -0.0554 C   0  0  1  0  0  0  0  0  0  0  0  0
    5.9990   -0.8135   -0.9155 C   0  0  2  0  0  0  0  0  0  0  0  0
    4.1160    0.8324   -0.7854 C   0  0  1  0  0  0  0  0  0  0  0  0
    5.0803   -0.1222    1.3048 C   0  0  2  0  0  0  0  0  0  0  0  0
    3.7879    0.3766    0.6453 C   0  0  2  0  0  0  0  0  0  0  0  0
   -6.8499    2.8642    1.8558 H   0  0  0  0  0  0  0  0  0  0  0  0
   -5.7785    2.6103    0.4810 H   0  0  0  0  0  0  0  0  0  0  0  0
   -7.0825    3.7920    0.3908 H   0  0  0  0  0  0  0  0  0  0  0  0
   -9.5468    2.9868    0.1990 H   0  0  0  0  0  0  0  0  0  0  0  0
   -9.8785    1.2533    0.2730 H   0  0  0  0  0  0  0  0  0  0  0  0
   -9.3316    2.1262    1.7086 H   0  0  0  0  0  0  0  0  0  0  0  0
   -3.2036   -2.4785   -2.1136 H   0  0  0  0  0  0  0  0  0  0  0  0
   -4.9298   -2.8274   -2.0533 H   0  0  0  0  0  0  0  0  0  0  0  0
   -4.3719   -1.2609   -2.6002 H   0  0  0  0  0  0  0  0  0  0  0  0
   -8.2390    0.0005   -0.7153 H   0  0  0  0  0  0  0  0  0  0  0  0
   -3.4749   -1.1078    1.3946 H   0  0  0  0  0  0  0  0  0  0  0  0
   -6.0901    0.0078   -1.9187 H   0  0  0  0  0  0  0  0  0  0  0  0
   -5.3268    1.0228   -0.7167 H   0  0  0  0  0  0  0  0  0  0  0  0
   -1.6491   -2.7324    1.0177 H   0  0  0  0  0  0  0  0  0  0  0  0
   -1.7454   -2.5509   -0.7199 H   0  0  0  0  0  0  0  0  0  0  0  0
    0.7270   -1.9352   -0.5247 H   0  0  0  0  0  0  0  0  0  0  0  0
    0.5909   -2.0295    1.2253 H   0  0  0  0  0  0  0  0  0  0  0  0
    1.3558    0.4320   -0.3962 H   0  0  0  0  0  0  0  0  0  0  0  0
    1.0929    0.4553    1.3403 H   0  0  0  0  0  0  0  0  0  0  0  0
   -5.6314   -0.7774    0.9970 H   0  0  0  0  0  0  0  0  0  0  0  0
   -6.3788   -1.7993   -0.2166 H   0  0  0  0  0  0  0  0  0  0  0  0
    7.9415    0.0024   -0.3975 H   0  0  0  0  0  0  0  0  0  0  0  0
    4.7079    2.8239   -0.1610 H   0  0  0  0  0  0  0  0  0  0  0  0
    5.3347    2.3506   -1.7322 H   0  0  0  0  0  0  0  0  0  0  0  0
    4.9185   -0.0009   -2.6099 H   0  0  0  0  0  0  0  0  0  0  0  0
    3.9876   -1.1449   -1.6535 H   0  0  0  0  0  0  0  0  0  0  0  0
    7.0022    0.6915    1.8699 H   0  0  0  0  0  0  0  0  0  0  0  0
    5.6882    1.8553    1.9537 H   0  0  0  0  0  0  0  0  0  0  0  0
    4.9880   -2.1301    0.4793 H   0  0  0  0  0  0  0  0  0  0  0  0
    6.5897   -1.6352    1.0026 H   0  0  0  0  0  0  0  0  0  0  0  0
   -1.0653   -0.2603   -0.3931 H   0  0  0  0  0  0  0  0  0  0  0  0
    2.8349   -1.1675    1.5363 H   0  0  0  0  0  0  0  0  0  0  0  0
    7.1369    2.3217   -0.0119 H   0  0  0  0  0  0  0  0  0  0  0  0
    6.4235   -1.6427   -1.4902 H   0  0  0  0  0  0  0  0  0  0  0  0
    3.2035    1.1853   -1.2769 H   0  0  0  0  0  0  0  0  0  0  0  0
    4.8511   -0.4526    2.3251 H   0  0  0  0  0  0  0  0  0  0  0  0
    3.4453    1.2610    1.2141 H   0  0  0  0  0  0  0  0  0  0  0  0
    7.2564    0.6705   -1.8708 H   0  0  0  0  0  0  0  0  0  0  0  0
 18  1  1  0
  1 25  1  0
  1 26  1  0
  1 27  1  0
  2 18  1  0
  2 28  1  0
  2 29  1  0
  2 30  1  0
 19  3  1  0
  3 31  1  0
  3 32  1  0
  3 33  1  0
 18  4  2  0
  6  4  1  0
  4 34  1  0
  5  7  1  0
  5 19  2  0
  5 35  1  0
  6 10  1  0
  6 36  1  0
  6 37  1  0
  7 16  1  0
  7 38  1  0
  7 39  1  0
  8  9  1  0
  8 16  1  0
  8 40  1  0
  8 41  1  0
 17  9  1  0
  9 42  1  0
  9 43  1  0
 19 10  1  0
 10 44  1  0
 10 45  1  0
 21 11  1  0
 11 20  1  0
 11 62  1  0
 11 46  1  0
 22 12  1  0
 20 12  1  0
 12 47  1  0
 12 48  1  0
 21 13  1  0
 13 22  1  0
 13 49  1  0
 13 50  1  0
 23 14  1  0
 14 20  1  0
 14 51  1  0
 14 52  1  0
 15 21  1  0
 15 23  1  0
 15 53  1  0
 15 54  1  0
 16 55  1  0
 17 24  1  0
 17 56  1  0
 20 57  1  1
 21 58  1  6
 24 22  1  0
 22 59  1  6
 23 24  1  0
 23 60  1  1
 24 61  1  1
M  END
