
     RDKit          3D

 49 50  0  0  0  0  0  0  0  0999 V2000
    2.6362    0.4458    5.6100 C   0  0  0  0  0  0  0  0  0  0  0  0
    1.7195    0.5921    4.5831 C   0  0  0  0  0  0  0  0  0  0  0  0
    0.3510    0.4706    4.8062 C   0  0  0  0  0  0  0  0  0  0  0  0
   -0.0848    0.1850    6.0982 C   0  0  0  0  0  0  0  0  0  0  0  0
   -1.7618   -0.0310    6.4439 Cl  0  0  0  0  0  0  0  0  0  0  0  0
    0.8144    0.0171    7.1383 C   0  0  0  0  0  0  0  0  0  0  0  0
    2.1690    0.1584    6.8816 C   0  0  0  0  0  0  0  0  0  0  0  0
   -0.3071   -0.0032    2.5580 N   0  0  0  0  0  0  0  0  0  0  0  0
   -0.6099    0.7184    3.6846 C   0  0  0  0  0  0  0  0  0  0  0  0
   -1.5300    1.4910    3.7911 O   0  0  0  0  0  0  0  0  0  0  0  0
   -0.4046   -0.7333    0.3948 N   0  0  0  0  0  0  0  0  0  0  0  0
   -0.9050   -0.8281   -0.9244 C   0  0  0  0  0  0  0  0  0  0  0  0
   -2.2070   -1.2851   -1.1217 C   0  0  0  0  0  0  0  0  0  0  0  0
   -2.6952   -1.4017   -2.4071 C   0  0  0  0  0  0  0  0  0  0  0  0
   -1.8963   -1.0885   -3.5004 C   0  0  0  0  0  0  0  0  0  0  0  0
   -0.2172   -0.3417   -5.6314 C   0  0  0  0  0  0  0  0  0  0  0  0
    0.9109    0.1144   -6.5323 C   0  0  0  0  0  0  0  0  0  0  0  0
    0.4639    0.1650   -7.9885 C   0  0  0  0  0  0  0  0  0  0  0  0
    1.5958    0.6018   -8.9030 C   0  0  0  0  0  0  0  0  0  0  0  0
    1.1992    0.6883  -10.3506 C   0  0  0  0  0  0  0  0  0  0  0  0
    2.2115    1.0824  -11.1183 O   0  0  0  0  0  0  0  0  0  0  0  0
    0.1045    0.4357  -10.7886 O   0  0  0  0  0  0  0  0  0  0  0  0
   -0.5942   -0.6476   -3.2952 C   0  0  0  0  0  0  0  0  0  0  0  0
   -0.0813   -0.4882   -1.9952 C   0  0  0  0  0  0  0  0  0  0  0  0
   -0.9628    0.0793    1.3268 C   0  0  0  0  0  0  0  0  0  0  0  0
   -1.9181    0.7933    1.1245 O   0  0  0  0  0  0  0  0  0  0  0  0
    3.2896   -0.0364    8.1788 Cl  0  0  0  0  0  0  0  0  0  0  0  0
    3.6939    0.5558    5.4176 H   0  0  0  0  0  0  0  0  0  0  0  0
    2.0837    0.8266    3.5909 H   0  0  0  0  0  0  0  0  0  0  0  0
    0.4621   -0.2219    8.1318 H   0  0  0  0  0  0  0  0  0  0  0  0
    0.4403   -0.6767    2.6467 H   0  0  0  0  0  0  0  0  0  0  0  0
    0.4585   -1.2117    0.6028 H   0  0  0  0  0  0  0  0  0  0  0  0
   -2.8197   -1.5596   -0.2738 H   0  0  0  0  0  0  0  0  0  0  0  0
   -3.7045   -1.7542   -2.5729 H   0  0  0  0  0  0  0  0  0  0  0  0
    2.0582   -0.7545   -1.9729 H   0  0  0  0  0  0  0  0  0  0  0  0
    1.5379    0.8385   -2.4913 H   0  0  0  0  0  0  0  0  0  0  0  0
    1.4649    0.4034   -0.7918 H   0  0  0  0  0  0  0  0  0  0  0  0
   -2.2997   -1.2061   -4.4964 H   0  0  0  0  0  0  0  0  0  0  0  0
   -0.5449   -1.3483   -5.9166 H   0  0  0  0  0  0  0  0  0  0  0  0
   -1.0804    0.3268   -5.7320 H   0  0  0  0  0  0  0  0  0  0  0  0
    1.2526    1.1041   -6.2160 H   0  0  0  0  0  0  0  0  0  0  0  0
    1.7593   -0.5681   -6.4272 H   0  0  0  0  0  0  0  0  0  0  0  0
    0.0990   -0.8186   -8.2954 H   0  0  0  0  0  0  0  0  0  0  0  0
   -0.3773    0.8556   -8.0881 H   0  0  0  0  0  0  0  0  0  0  0  0
    1.9835    1.5790   -8.5976 H   0  0  0  0  0  0  0  0  0  0  0  0
    2.4434   -0.0866   -8.8251 H   0  0  0  0  0  0  0  0  0  0  0  0
    1.9258    1.1262  -12.0429 H   0  0  0  0  0  0  0  0  0  0  0  0
    1.3142    0.0267   -1.8009 C   0  0  0  0  0  0  0  0  0  0  0  0
    0.2534   -0.3335   -4.2933 O   0  0  0  0  0  0  0  0  0  0  0  0
  1  2  2  0
  1  7  1  0
  1 28  1  0
  2  3  1  0
  2 29  1  0
  3  4  2  0
  3  9  1  0
  4  5  1  0
  4  6  1  0
  6  7  2  0
  6 30  1  0
  7 27  1  0
  8  9  1  0
  8 25  1  0
  8 31  1  0
  9 10  2  0
 11 12  1  0
 11 25  1  0
 11 32  1  0
 12 13  2  0
 12 24  1  0
 13 14  1  0
 13 33  1  0
 14 15  2  0
 14 34  1  0
 48 24  1  0
 48 35  1  0
 48 36  1  0
 48 37  1  0
 15 23  1  0
 15 38  1  0
 49 16  1  0
 49 23  1  0
 16 17  1  0
 16 39  1  0
 16 40  1  0
 17 18  1  0
 17 41  1  0
 17 42  1  0
 18 19  1  0
 18 43  1  0
 18 44  1  0
 19 20  1  0
 19 45  1  0
 19 46  1  0
 20 21  1  0
 20 22  2  0
 21 47  1  0
 23 24  2  0
 25 26  2  0
M  END
