
     RDKit          3D

 35 37  0  0  0  0  0  0  0  0999 V2000
    1.0439    1.6385    0.0594 C   0  0  0  0  0  0  0  0  0  0  0  0
    2.1433    2.1251    0.0782 C   0  0  0  0  0  0  0  0  0  0  0  0
    3.4883    2.6824    0.1056 C   0  0  0  0  0  0  0  0  0  0  0  0
   -3.7046   -1.5460    0.0122 C   0  0  0  0  0  0  0  0  0  0  0  0
   -1.7464   -0.5521    0.0095 C   0  0  0  0  0  0  0  0  0  0  0  0
   -2.3226    0.7091    0.0492 C   0  0  0  0  0  0  0  0  0  0  0  0
   -3.7310    0.7537    0.0699 C   0  0  0  0  0  0  0  0  0  0  0  0
   -0.2335    1.0307    0.0367 C   0  0  0  0  0  0  0  0  0  0  0  0
    0.6254   -1.3563   -0.0082 C   0  0  2  0  0  0  0  0  0  0  0  0
    1.4534   -1.3391   -1.2877 C   0  0  0  0  0  0  0  0  0  0  0  0
    2.6117   -2.3240   -1.1664 C   0  0  0  0  0  0  0  0  0  0  0  0
    3.3967   -2.0346    0.1069 C   0  0  0  0  0  0  0  0  0  0  0  0
    2.4564   -2.0593    1.2975 C   0  0  0  0  0  0  0  0  0  0  0  0
   -4.3929   -0.4081    0.0500 N   0  0  0  0  0  0  0  0  0  0  0  0
   -2.3936   -1.7142   -0.0123 N   0  0  0  0  0  0  0  0  0  0  0  0
   -1.3675    1.6820    0.0665 N   0  0  0  0  0  0  0  0  0  0  0  0
   -0.4014   -0.3361   -0.0041 N   0  0  0  0  0  0  0  0  0  0  0  0
    1.3857   -1.1414    1.1454 O   0  0  0  0  0  0  0  0  0  0  0  0
    4.3328    1.8488   -0.6503 O   0  0  0  0  0  0  0  0  0  0  0  0
    3.4508    3.7065   -0.2864 H   0  0  0  0  0  0  0  0  0  0  0  0
    3.8083    2.7607    1.1522 H   0  0  0  0  0  0  0  0  0  0  0  0
   -4.3022   -2.4513   -0.0004 H   0  0  0  0  0  0  0  0  0  0  0  0
    0.0914   -2.3152    0.0519 H   0  0  0  0  0  0  0  0  0  0  0  0
    0.8024   -1.5957   -2.1258 H   0  0  0  0  0  0  0  0  0  0  0  0
    1.8451   -0.3367   -1.4719 H   0  0  0  0  0  0  0  0  0  0  0  0
    2.2270   -3.3486   -1.1362 H   0  0  0  0  0  0  0  0  0  0  0  0
    3.2516   -2.2554   -2.0472 H   0  0  0  0  0  0  0  0  0  0  0  0
    4.1835   -2.7761    0.2597 H   0  0  0  0  0  0  0  0  0  0  0  0
    3.8781   -1.0547    0.0357 H   0  0  0  0  0  0  0  0  0  0  0  0
    2.0613   -3.0759    1.4357 H   0  0  0  0  0  0  0  0  0  0  0  0
    2.9668   -1.7771    2.2185 H   0  0  0  0  0  0  0  0  0  0  0  0
   -5.4196    1.8855    0.1092 H   0  0  0  0  0  0  0  0  0  0  0  0
   -3.9461    2.7853    0.1074 H   0  0  0  0  0  0  0  0  0  0  0  0
    5.2229    2.2114   -0.5944 H   0  0  0  0  0  0  0  0  0  0  0  0
   -4.4142    1.8960    0.1122 N   0  0  0  0  0  0  0  0  0  0  0  0
 35  7  1  0
  7 14  1  0
  7  6  2  0
 19  3  1  0
 14  4  2  0
  6 16  1  0
  6  5  1  0
 16  8  2  0
  4 15  1  0
  5 15  2  0
  5 17  1  0
  8  1  1  0
  8 17  1  0
 18 13  1  0
 18  9  1  0
  1  2  3  0
 17  9  1  0
  2  3  1  0
 13 12  1  0
  9 10  1  0
 12 11  1  0
 10 11  1  0
  3 20  1  0
  3 21  1  0
  4 22  1  0
  9 23  1  1
 10 24  1  0
 10 25  1  0
 11 26  1  0
 11 27  1  0
 12 28  1  0
 12 29  1  0
 13 30  1  0
 13 31  1  0
 35 32  1  0
 35 33  1  0
 19 34  1  0
M  END
