
     RDKit          3D

 66 67  0  0  0  0  0  0  0  0999 V2000
    5.4584   -0.2047   -7.2770 C   0  0  0  0  0  0  0  0  0  0  0  0
    3.9437   -0.3266   -7.1984 C   0  0  0  0  0  0  0  0  0  0  0  0
    3.4031    0.1151   -5.8418 C   0  0  0  0  0  0  0  0  0  0  0  0
    1.8875   -0.0108   -5.7901 C   0  0  0  0  0  0  0  0  0  0  0  0
    1.2328    0.4734   -4.1970 S   0  0  1  0  0  0  0  0  0  0  0  0
    1.7047   -0.4875   -3.2094 O   0  0  0  0  0  0  0  0  0  0  0  0
    1.5095    1.8900   -4.0092 O   0  0  0  0  0  0  0  0  0  0  0  0
   -0.3957    0.3299   -4.2811 N   0  0  0  0  0  0  0  0  0  0  0  0
   -1.1059   -0.9101   -4.1095 C   0  0  1  0  0  0  0  0  0  0  0  0
   -2.3074   -0.7130   -3.1636 C   0  0  0  0  0  0  0  0  0  0  0  0
   -1.8728   -0.2672   -1.7986 C   0  0  0  0  0  0  0  0  0  0  0  0
   -1.7137    1.0827   -1.4884 C   0  0  0  0  0  0  0  0  0  0  0  0
   -1.2967    1.4879   -0.2343 C   0  0  0  0  0  0  0  0  0  0  0  0
   -1.0188    0.5429    0.7553 C   0  0  0  0  0  0  0  0  0  0  0  0
   -0.6256    1.0268    1.9502 O   0  0  0  0  0  0  0  0  0  0  0  0
   -1.1660   -0.8099    0.4611 C   0  0  0  0  0  0  0  0  0  0  0  0
   -1.5886   -1.1951   -0.8064 C   0  0  0  0  0  0  0  0  0  0  0  0
   -1.5717   -1.5618   -5.4049 C   0  0  0  0  0  0  0  0  0  0  0  0
   -2.1438   -2.6221   -5.4210 O   0  0  0  0  0  0  0  0  0  0  0  0
   -1.2936   -0.8553   -6.4858 O   0  0  0  0  0  0  0  0  0  0  0  0
   -0.4443    0.1279    3.0330 C   0  0  0  0  0  0  0  0  0  0  0  0
   -0.1679    0.9387    4.2814 C   0  0  0  0  0  0  0  0  0  0  0  0
   -0.0031    0.0503    5.5093 C   0  0  0  0  0  0  0  0  0  0  0  0
    0.1523    0.8675    6.7866 C   0  0  0  0  0  0  0  0  0  0  0  0
    0.4213    0.0515    8.0479 C   0  0  1  0  0  0  0  0  0  0  0  0
    0.5965    0.9704    9.2575 C   0  0  0  0  0  0  0  0  0  0  0  0
    0.7996    0.1810   10.5415 C   0  0  0  0  0  0  0  0  0  0  0  0
   -0.3181   -0.7234   10.7450 N   0  0  0  0  0  0  0  0  0  0  0  0
   -0.4222   -1.6869    9.6643 C   0  0  0  0  0  0  0  0  0  0  0  0
   -0.6739   -0.9734    8.3438 C   0  0  0  0  0  0  0  0  0  0  0  0
    5.8308   -0.5208   -8.2516 H   0  0  0  0  0  0  0  0  0  0  0  0
    5.7815    0.8255   -7.1174 H   0  0  0  0  0  0  0  0  0  0  0  0
    5.9422   -0.8239   -6.5198 H   0  0  0  0  0  0  0  0  0  0  0  0
    3.6477   -1.3622   -7.3875 H   0  0  0  0  0  0  0  0  0  0  0  0
    3.4819    0.2738   -7.9870 H   0  0  0  0  0  0  0  0  0  0  0  0
    3.8537   -0.4946   -5.0551 H   0  0  0  0  0  0  0  0  0  0  0  0
    3.6957    1.1508   -5.6532 H   0  0  0  0  0  0  0  0  0  0  0  0
    1.4051    0.6257   -6.5339 H   0  0  0  0  0  0  0  0  0  0  0  0
    1.5668   -1.0399   -5.9632 H   0  0  0  0  0  0  0  0  0  0  0  0
   -0.8662    1.0920   -4.7517 H   0  0  0  0  0  0  0  0  0  0  0  0
   -0.4329   -1.6266   -3.6328 H   0  0  0  0  0  0  0  0  0  0  0  0
   -2.9928    0.0143   -3.6067 H   0  0  0  0  0  0  0  0  0  0  0  0
   -2.8478   -1.6576   -3.0947 H   0  0  0  0  0  0  0  0  0  0  0  0
   -1.9306    1.8357   -2.2361 H   0  0  0  0  0  0  0  0  0  0  0  0
   -1.1873    2.5416   -0.0087 H   0  0  0  0  0  0  0  0  0  0  0  0
   -0.9644   -1.5752    1.1983 H   0  0  0  0  0  0  0  0  0  0  0  0
   -1.7010   -2.2531   -1.0148 H   0  0  0  0  0  0  0  0  0  0  0  0
   -1.6090   -1.3181   -7.2774 H   0  0  0  0  0  0  0  0  0  0  0  0
   -1.3448   -0.4813    3.1751 H   0  0  0  0  0  0  0  0  0  0  0  0
    0.3863   -0.5584    2.8270 H   0  0  0  0  0  0  0  0  0  0  0  0
    0.7325    1.5438    4.1394 H   0  0  0  0  0  0  0  0  0  0  0  0
   -0.9962    1.6346    4.4454 H   0  0  0  0  0  0  0  0  0  0  0  0
   -0.8716   -0.6100    5.5925 H   0  0  0  0  0  0  0  0  0  0  0  0
    0.8663   -0.6033    5.3803 H   0  0  0  0  0  0  0  0  0  0  0  0
    0.9714    1.5833    6.6531 H   0  0  0  0  0  0  0  0  0  0  0  0
   -0.7509    1.4713    6.9365 H   0  0  0  0  0  0  0  0  0  0  0  0
    1.3623   -0.4989    7.9070 H   0  0  0  0  0  0  0  0  0  0  0  0
    1.4453    1.6419    9.1002 H   0  0  0  0  0  0  0  0  0  0  0  0
   -0.2924    1.6027    9.3625 H   0  0  0  0  0  0  0  0  0  0  0  0
    1.7659   -0.3492   10.4844 H   0  0  0  0  0  0  0  0  0  0  0  0
    0.8638    0.8610   11.3939 H   0  0  0  0  0  0  0  0  0  0  0  0
   -0.2025   -1.2124   11.6230 H   0  0  0  0  0  0  0  0  0  0  0  0
    0.4868   -2.3045    9.5647 H   0  0  0  0  0  0  0  0  0  0  0  0
   -1.2446   -2.3730    9.8791 H   0  0  0  0  0  0  0  0  0  0  0  0
   -1.6453   -0.4673    8.3835 H   0  0  0  0  0  0  0  0  0  0  0  0
   -0.7366   -1.7181    7.5470 H   0  0  0  0  0  0  0  0  0  0  0  0
  1  2  1  0
  1 31  1  0
  1 32  1  0
  1 33  1  0
  2  3  1  0
  2 34  1  0
  2 35  1  0
  3  4  1  0
  3 36  1  0
  3 37  1  0
  4  5  1  0
  4 38  1  0
  4 39  1  0
  5  6  2  0
  5  7  2  0
  5  8  1  6
  8  9  1  0
  8 40  1  0
  9 10  1  0
  9 18  1  0
  9 41  1  1
 10 11  1  0
 10 42  1  0
 10 43  1  0
 11 12  2  0
 11 17  1  0
 12 13  1  0
 12 44  1  0
 13 14  2  0
 13 45  1  0
 14 15  1  0
 14 16  1  0
 15 21  1  0
 16 17  2  0
 16 46  1  0
 17 47  1  0
 18 19  2  0
 18 20  1  0
 20 48  1  0
 21 22  1  0
 21 49  1  0
 21 50  1  0
 22 23  1  0
 22 51  1  0
 22 52  1  0
 23 24  1  0
 23 53  1  0
 23 54  1  0
 24 25  1  0
 24 55  1  0
 24 56  1  0
 25 26  1  0
 25 30  1  0
 25 57  1  6
 26 27  1  0
 26 58  1  0
 26 59  1  0
 27 28  1  0
 27 60  1  0
 27 61  1  0
 28 29  1  0
 28 62  1  0
 29 30  1  0
 29 63  1  0
 29 64  1  0
 30 65  1  0
 30 66  1  0
M  END
