
     RDKit          3D

 49 53  0  0  0  0  0  0  0  0999 V2000
    9.9291    0.1221   -0.1391 C   0  0  0  0  0  0  0  0  0  0  0  0
    8.4464   -0.0902   -0.0419 C   0  0  0  0  0  0  0  0  0  0  0  0
    7.5620    0.9669   -0.2052 C   0  0  0  0  0  0  0  0  0  0  0  0
    6.1990    0.7178   -0.1125 C   0  0  0  0  0  0  0  0  0  0  0  0
    5.6890   -0.5619    0.1415 C   0  0  0  0  0  0  0  0  0  0  0  0
    6.5820   -1.6195    0.3076 C   0  0  0  0  0  0  0  0  0  0  0  0
    7.9374   -1.3734    0.2148 C   0  0  0  0  0  0  0  0  0  0  0  0
    4.3174   -0.6523    0.2093 N   0  0  0  0  0  0  0  0  0  0  0  0
    3.7813    0.4942    0.0131 C   0  0  0  0  0  0  0  0  0  0  0  0
    2.4350    0.7728    0.0084 N   0  0  0  0  0  0  0  0  0  0  0  0
    1.4176   -0.1435    0.0141 C   0  0  0  0  0  0  0  0  0  0  0  0
    1.5716   -1.3409    0.0193 O   0  0  0  0  0  0  0  0  0  0  0  0
    0.0524    0.5061    0.0117 C   0  0  0  0  0  0  0  0  0  0  0  0
   -1.1588   -0.8343   -0.0139 S   0  0  0  0  0  0  0  0  0  0  0  0
   -2.6253    0.1232    0.0062 C   0  0  0  0  0  0  0  0  0  0  0  0
   -2.5833    1.4158    0.0343 N   0  0  0  0  0  0  0  0  0  0  0  0
   -3.7687    2.0637    0.0471 C   0  0  0  0  0  0  0  0  0  0  0  0
   -4.9715    1.4325    0.0304 C   0  0  0  0  0  0  0  0  0  0  0  0
   -6.3660    2.4891    0.0701 S   0  0  0  0  0  0  0  0  0  0  0  0
   -5.2814    3.9230   -0.3143 C   0  0  0  0  0  0  0  0  0  0  0  0
   -3.8708    3.5541    0.1453 C   0  0  0  0  0  0  0  0  0  0  0  0
   -5.0525    0.0085    0.0134 C   0  0  0  0  0  0  0  0  0  0  0  0
   -6.0669   -0.6631    0.0175 O   0  0  0  0  0  0  0  0  0  0  0  0
   -3.7836   -0.5970   -0.0072 N   0  0  0  0  0  0  0  0  0  0  0  0
   -3.7388   -2.0271   -0.0364 C   0  0  0  0  0  0  0  0  0  0  0  0
   -3.7169   -2.6811   -1.2586 C   0  0  0  0  0  0  0  0  0  0  0  0
   -3.6625   -4.0670   -1.2827 C   0  0  0  0  0  0  0  0  0  0  0  0
   -3.6333   -4.7826   -0.0927 C   0  0  0  0  0  0  0  0  0  0  0  0
   -3.6586   -4.1158    1.1255 C   0  0  0  0  0  0  0  0  0  0  0  0
   -3.7128   -2.7302    1.1582 C   0  0  0  0  0  0  0  0  0  0  0  0
    4.8812    1.8327   -0.2805 S   0  0  0  0  0  0  0  0  0  0  0  0
   10.4267   -0.1334    0.7978 H   0  0  0  0  0  0  0  0  0  0  0  0
   10.3657   -0.5086   -0.9149 H   0  0  0  0  0  0  0  0  0  0  0  0
   10.1722    1.1568   -0.3755 H   0  0  0  0  0  0  0  0  0  0  0  0
    7.9299    1.9649   -0.4072 H   0  0  0  0  0  0  0  0  0  0  0  0
    6.2089   -2.6159    0.5056 H   0  0  0  0  0  0  0  0  0  0  0  0
    8.6317   -2.1953    0.3415 H   0  0  0  0  0  0  0  0  0  0  0  0
    2.1711    1.7473   -0.0290 H   0  0  0  0  0  0  0  0  0  0  0  0
   -3.7057    3.8451    1.1877 H   0  0  0  0  0  0  0  0  0  0  0  0
   -3.1137    4.0580   -0.4556 H   0  0  0  0  0  0  0  0  0  0  0  0
   -3.7392   -2.1105   -2.1782 H   0  0  0  0  0  0  0  0  0  0  0  0
   -3.6426   -4.5869   -2.2310 H   0  0  0  0  0  0  0  0  0  0  0  0
   -3.5911   -5.8634   -0.1148 H   0  0  0  0  0  0  0  0  0  0  0  0
   -3.6364   -4.6745    2.0515 H   0  0  0  0  0  0  0  0  0  0  0  0
   -3.7293   -2.1981    2.1005 H   0  0  0  0  0  0  0  0  0  0  0  0
   -0.0765    1.1262    0.9005 H   0  0  0  0  0  0  0  0  0  0  0  0
   -0.0676    1.1514   -0.8599 H   0  0  0  0  0  0  0  0  0  0  0  0
   -5.3120    4.0917   -1.3902 H   0  0  0  0  0  0  0  0  0  0  0  0
   -5.6724    4.8032    0.1895 H   0  0  0  0  0  0  0  0  0  0  0  0
  1  2  1  0
  2  3  2  0
  2  7  1  0
  3  4  1  0
  4  5  2  0
  4 31  1  0
  5  6  1  0
  5  8  1  0
  6  7  2  0
  8  9  2  0
  9 10  1  0
  9 31  1  0
 10 11  1  0
 11 12  2  0
 11 13  1  0
 13 14  1  0
 14 15  1  0
 15 16  2  0
 15 24  1  0
 16 17  1  0
 17 18  2  0
 17 21  1  0
 18 19  1  0
 18 22  1  0
 19 20  1  0
 20 21  1  0
 22 23  2  0
 22 24  1  0
 24 25  1  0
 25 26  2  0
 25 30  1  0
 26 27  1  0
 27 28  2  0
 28 29  1  0
 29 30  2  0
  1 32  1  0
  1 33  1  0
  1 34  1  0
  3 35  1  0
  6 36  1  0
  7 37  1  0
 10 38  1  0
 13 46  1  0
 13 47  1  0
 20 48  1  0
 20 49  1  0
 21 39  1  0
 21 40  1  0
 26 41  1  0
 27 42  1  0
 28 43  1  0
 29 44  1  0
 30 45  1  0
M  END
