
     RDKit          3D

 27 28  0  0  0  0  0  0  0  0999 V2000
    0.0388    2.0006    1.0477 Cl  0  0  0  0  0  0  0  0  0  0  0  0
   -0.6990    0.6027    0.3255 C   0  0  0  0  0  0  0  0  0  0  0  0
   -2.0843    0.5689    0.2615 C   0  0  0  0  0  0  0  0  0  0  0  0
    0.0915   -0.4509   -0.1276 C   0  0  0  0  0  0  0  0  0  0  0  0
   -0.5808   -1.5619   -0.6399 C   0  0  0  0  0  0  0  0  0  0  0  0
   -1.9618   -1.6121   -0.7031 C   0  0  0  0  0  0  0  0  0  0  0  0
   -2.7342   -0.5413   -0.2615 C   0  0  0  0  0  0  0  0  0  0  0  0
   -4.2371   -0.5915   -0.3774 C   0  0  0  0  0  0  0  0  0  0  0  0
   -4.8990    0.3419    0.5123 N   0  0  0  0  0  0  0  0  0  0  0  0
    1.5695   -0.4496   -0.0734 C   0  0  0  0  0  0  0  0  0  0  0  0
    2.3172    0.5223   -0.7379 C   0  0  0  0  0  0  0  0  0  0  0  0
    3.7034    0.4850   -0.7103 C   0  0  0  0  0  0  0  0  0  0  0  0
    4.3630   -0.5212   -0.0149 C   0  0  0  0  0  0  0  0  0  0  0  0
    3.6271   -1.4944    0.6465 C   0  0  0  0  0  0  0  0  0  0  0  0
    2.2393   -1.4597    0.6149 C   0  0  0  0  0  0  0  0  0  0  0  0
   -2.6641    1.4036    0.6309 H   0  0  0  0  0  0  0  0  0  0  0  0
   -0.0003   -2.4007   -1.0030 H   0  0  0  0  0  0  0  0  0  0  0  0
   -2.4437   -2.4951   -1.1050 H   0  0  0  0  0  0  0  0  0  0  0  0
   -4.5067   -0.3252   -1.4035 H   0  0  0  0  0  0  0  0  0  0  0  0
   -4.5555   -1.6347   -0.2476 H   0  0  0  0  0  0  0  0  0  0  0  0
   -5.8807    0.3890    0.2749 H   0  0  0  0  0  0  0  0  0  0  0  0
   -4.8558   -0.0009    1.4639 H   0  0  0  0  0  0  0  0  0  0  0  0
    1.8147    1.3039   -1.2934 H   0  0  0  0  0  0  0  0  0  0  0  0
    4.2701    1.2419   -1.2368 H   0  0  0  0  0  0  0  0  0  0  0  0
    5.4448   -0.5471    0.0076 H   0  0  0  0  0  0  0  0  0  0  0  0
    4.1315   -2.2832    1.1893 H   0  0  0  0  0  0  0  0  0  0  0  0
    1.6713   -2.2204    1.1362 H   0  0  0  0  0  0  0  0  0  0  0  0
  5  6  2  0
  5  4  1  0
  6  7  1  0
 12 11  2  0
 12 13  1  0
 11 10  1  0
 13 14  2  0
 10 15  2  0
 10  4  1  0
 14 15  1  0
  4  2  2  0
  7  8  1  0
  7  3  2  0
  8  9  1  0
  2  3  1  0
  2  1  1  0
  3 16  1  0
  5 17  1  0
  6 18  1  0
  8 19  1  0
  8 20  1  0
  9 21  1  0
  9 22  1  0
 11 23  1  0
 12 24  1  0
 13 25  1  0
 14 26  1  0
 15 27  1  0
M  END
