
     RDKit          3D

 19 19  0  0  0  0  0  0  0  0999 V2000
    1.5346    0.9997   -0.0498 C   0  0  0  0  0  0  0  0  0  0  0  0
    0.1201    1.1942   -0.0411 C   0  0  0  0  0  0  0  0  0  0  0  0
   -0.7608    0.1460   -0.0213 C   0  0  0  0  0  0  0  0  0  0  0  0
   -2.2272    0.4186   -0.1446 C   0  0  0  0  0  0  0  0  0  0  0  0
   -0.3319   -1.1352    0.0219 N   0  0  0  0  0  0  0  0  0  0  0  0
   -1.2288   -2.2910    0.1041 C   0  0  0  0  0  0  0  0  0  0  0  0
    1.0078   -1.3826    0.0285 C   0  0  0  0  0  0  0  0  0  0  0  0
    1.9311   -0.3883   -0.0144 C   0  0  0  0  0  0  0  0  0  0  0  0
    2.3917    1.8975   -0.0781 O   0  0  0  0  0  0  0  0  0  0  0  0
   -2.9807   -0.2495   -0.8028 O   0  0  0  0  0  0  0  0  0  0  0  0
   -2.5725    1.5026    0.5217 O   0  0  0  0  0  0  0  0  0  0  0  0
    3.2403   -0.6710   -0.0117 O   0  0  0  0  0  0  0  0  0  0  0  0
   -0.2591    2.2061   -0.0749 H   0  0  0  0  0  0  0  0  0  0  0  0
   -1.6479   -2.5322   -0.8685 H   0  0  0  0  0  0  0  0  0  0  0  0
   -0.6527   -3.1382    0.4616 H   0  0  0  0  0  0  0  0  0  0  0  0
   -2.0286   -2.1094    0.8149 H   0  0  0  0  0  0  0  0  0  0  0  0
    1.3036   -2.4208    0.0788 H   0  0  0  0  0  0  0  0  0  0  0  0
   -3.5084    1.7072    0.3693 H   0  0  0  0  0  0  0  0  0  0  0  0
    3.7143    0.1751   -0.0386 H   0  0  0  0  0  0  0  0  0  0  0  0
  6  5  1  0
  7  5  1  0
  7  8  2  0
  5  3  1  0
 12  8  1  0
  8  1  1  0
 10  4  2  0
  3  4  1  0
  3  2  2  0
  4 11  1  0
  1  2  1  0
  1  9  2  0
  2 13  1  0
  6 14  1  0
  6 15  1  0
  6 16  1  0
  7 17  1  0
 11 18  1  0
 12 19  1  0
M  END
