
     RDKit          3D

 30 32  0  0  0  0  0  0  0  0999 V2000
    3.8970    0.6710    1.0087 C   0  0  0  0  0  0  0  0  0  0  0  0
    0.7156   -0.6511   -0.3370 N   0  0  0  0  0  0  0  0  0  0  0  0
    2.5360    0.5311    0.7844 C   0  0  0  0  0  0  0  0  0  0  0  0
    4.8177   -0.1501    0.3702 C   0  0  0  0  0  0  0  0  0  0  0  0
    2.0655   -0.4369   -0.1091 C   0  0  0  0  0  0  0  0  0  0  0  0
    4.3518   -1.1252   -0.5023 C   0  0  0  0  0  0  0  0  0  0  0  0
    2.9951   -1.2651   -0.7470 C   0  0  0  0  0  0  0  0  0  0  0  0
   -1.6402   -0.1841   -0.0465 C   0  0  0  0  0  0  0  0  0  0  0  0
   -2.7110    0.7501   -0.0478 C   0  0  0  0  0  0  0  0  0  0  0  0
   -0.3087    0.2861   -0.2832 C   0  0  0  0  0  0  0  0  0  0  0  0
   -2.4449    2.1257   -0.2373 C   0  0  0  0  0  0  0  0  0  0  0  0
   -0.0940    1.6330   -0.4744 C   0  0  0  0  0  0  0  0  0  0  0  0
   -1.1604    2.5485   -0.4348 C   0  0  0  0  0  0  0  0  0  0  0  0
   -4.2853   -1.0440    0.3694 C   0  0  0  0  0  0  0  0  0  0  0  0
   -4.0308    0.2830    0.1581 C   0  0  0  0  0  0  0  0  0  0  0  0
   -1.9340   -1.5472    0.1959 C   0  0  0  0  0  0  0  0  0  0  0  0
   -3.2221   -1.9673    0.3957 C   0  0  0  0  0  0  0  0  0  0  0  0
    4.2381    1.4294    1.7023 H   0  0  0  0  0  0  0  0  0  0  0  0
    0.4990   -1.5082   -0.8201 H   0  0  0  0  0  0  0  0  0  0  0  0
    1.8431    1.1680    1.3175 H   0  0  0  0  0  0  0  0  0  0  0  0
    5.8775   -0.0350    0.5537 H   0  0  0  0  0  0  0  0  0  0  0  0
    5.0485   -1.7820   -1.0075 H   0  0  0  0  0  0  0  0  0  0  0  0
    2.6479   -2.0261   -1.4367 H   0  0  0  0  0  0  0  0  0  0  0  0
   -3.2657    2.8314   -0.2233 H   0  0  0  0  0  0  0  0  0  0  0  0
    0.9020    2.0007   -0.6805 H   0  0  0  0  0  0  0  0  0  0  0  0
   -0.9499    3.5993   -0.5859 H   0  0  0  0  0  0  0  0  0  0  0  0
   -5.2998   -1.3866    0.5264 H   0  0  0  0  0  0  0  0  0  0  0  0
   -4.8420    1.0009    0.1477 H   0  0  0  0  0  0  0  0  0  0  0  0
   -1.1377   -2.2778    0.2427 H   0  0  0  0  0  0  0  0  0  0  0  0
   -3.4239   -3.0136    0.5834 H   0  0  0  0  0  0  0  0  0  0  0  0
  1  4  2  0
  1 18  1  0
  2  5  1  0
  2 19  1  0
  3  1  1  0
  3 20  1  0
  4 21  1  0
  5  7  1  0
  5  3  2  0
  6  4  1  0
  6 22  1  0
  7  6  2  0
  7 23  1  0
  8 16  1  0
  9  8  1  0
  9 15  1  0
 10  2  1  0
 10  8  2  0
 11  9  2  0
 11 24  1  0
 12 10  1  0
 12 25  1  0
 13 12  2  0
 13 11  1  0
 13 26  1  0
 14 17  1  0
 14 27  1  0
 15 14  2  0
 15 28  1  0
 16 17  2  0
 16 29  1  0
 17 30  1  0
M  END
