
     RDKit          3D

 51 54  0  0  0  0  0  0  0  0999 V2000
    5.6569   -0.9049    1.6933 C   0  0  0  0  0  0  0  0  0  0  0  0
    6.3095   -1.1296    0.4926 C   0  0  0  0  0  0  0  0  0  0  0  0
    4.3336   -0.4883    1.6927 C   0  0  0  0  0  0  0  0  0  0  0  0
    5.6399   -0.9380   -0.7072 C   0  0  0  0  0  0  0  0  0  0  0  0
   -0.1348   -0.3705    0.7321 C   0  0  0  0  0  0  0  0  0  0  0  0
   -0.8560    3.6192    1.0649 C   0  0  0  0  0  0  0  0  0  0  0  0
   -0.4369    1.0024    0.7002 C   0  0  0  0  0  0  0  0  0  0  0  0
    3.6518   -0.2935    0.4990 C   0  0  0  0  0  0  0  0  0  0  0  0
    2.2357    0.1432    0.5603 C   0  0  0  0  0  0  0  0  0  0  0  0
    4.3145   -0.5229   -0.7099 C   0  0  0  0  0  0  0  0  0  0  0  0
    0.6006    1.9519    0.7085 C   0  0  0  0  0  0  0  0  0  0  0  0
    1.9225    1.4732    0.5994 C   0  0  0  0  0  0  0  0  0  0  0  0
    1.1690   -0.7759    0.6606 C   0  0  0  0  0  0  0  0  0  0  0  0
   -1.7677    1.5509    0.7537 C   0  0  0  0  0  0  0  0  0  0  0  0
   -8.8189   -1.1626   -0.5561 C   0  0  0  0  0  0  0  0  0  0  0  0
   -7.5977   -0.6413    0.1811 C   0  0  0  0  0  0  0  0  0  0  0  0
   -6.2983   -1.2376   -0.3284 C   0  0  0  0  0  0  0  0  0  0  0  0
   -2.9774   -0.1604   -0.5309 C   0  0  0  0  0  0  0  0  0  0  0  0
   -4.1626    1.2699    1.0089 C   0  0  0  0  0  0  0  0  0  0  0  0
   -3.8616   -1.3348   -0.1587 C   0  0  0  0  0  0  0  0  0  0  0  0
   -5.0595    0.0963    1.3779 C   0  0  0  0  0  0  0  0  0  0  0  0
    3.5963   -0.3138   -2.0100 C   0  0  1  0  0  0  0  0  0  0  0  0
    0.3857    3.2774    0.8686 N   0  0  0  0  0  0  0  0  0  0  0  0
   -1.9376    2.8311    1.0062 N   0  0  0  0  0  0  0  0  0  0  0  0
   -2.8635    0.7644    0.5955 N   0  0  0  0  0  0  0  0  0  0  0  0
   -5.1542   -0.8547    0.2889 N   0  0  0  0  0  0  0  0  0  0  0  0
   -6.2919   -2.0359   -1.2552 O   0  0  0  0  0  0  0  0  0  0  0  0
    2.9030    2.3713    0.5680 F   0  0  0  0  0  0  0  0  0  0  0  0
    4.3465   -0.6397   -3.0651 F   0  0  0  0  0  0  0  0  0  0  0  0
    2.4779   -1.0471   -2.0892 F   0  0  0  0  0  0  0  0  0  0  0  0
    3.2293    0.9654   -2.1774 F   0  0  0  0  0  0  0  0  0  0  0  0
    1.5363   -2.4595    0.7176 Cl  0  0  0  0  0  0  0  0  0  0  0  0
    6.1734   -1.0542    2.6319 H   0  0  0  0  0  0  0  0  0  0  0  0
    7.3410   -1.4542    0.4827 H   0  0  0  0  0  0  0  0  0  0  0  0
    3.8209   -0.3149    2.6298 H   0  0  0  0  0  0  0  0  0  0  0  0
    6.1654   -1.1170   -1.6344 H   0  0  0  0  0  0  0  0  0  0  0  0
   -0.9150   -1.1077    0.8516 H   0  0  0  0  0  0  0  0  0  0  0  0
   -1.0526    4.6664    1.2684 H   0  0  0  0  0  0  0  0  0  0  0  0
   -8.7774   -0.9365   -1.6205 H   0  0  0  0  0  0  0  0  0  0  0  0
   -8.9275   -2.2409   -0.4460 H   0  0  0  0  0  0  0  0  0  0  0  0
   -9.7165   -0.6957   -0.1521 H   0  0  0  0  0  0  0  0  0  0  0  0
   -7.5509    0.4481    0.0956 H   0  0  0  0  0  0  0  0  0  0  0  0
   -7.6969   -0.8492    1.2500 H   0  0  0  0  0  0  0  0  0  0  0  0
   -2.0037   -0.5145   -0.8560 H   0  0  0  0  0  0  0  0  0  0  0  0
   -3.4218    0.3727   -1.3802 H   0  0  0  0  0  0  0  0  0  0  0  0
   -4.6280    1.8632    0.2128 H   0  0  0  0  0  0  0  0  0  0  0  0
   -4.0467    1.9131    1.8782 H   0  0  0  0  0  0  0  0  0  0  0  0
   -3.9886   -1.9863   -1.0184 H   0  0  0  0  0  0  0  0  0  0  0  0
   -3.3898   -1.9180    0.6395 H   0  0  0  0  0  0  0  0  0  0  0  0
   -4.6471   -0.4058    2.2586 H   0  0  0  0  0  0  0  0  0  0  0  0
   -6.0377    0.4772    1.6537 H   0  0  0  0  0  0  0  0  0  0  0  0
 27 17  2  0
 22 29  1  6
 31 22  1  0
 30 22  1  0
 15 16  1  0
 20 26  1  0
 20 18  1  0
 22 10  1  0
 17 16  1  0
 17 26  1  0
 26 21  1  0
 18 25  1  0
 10  4  2  0
 10  8  1  0
  4  2  1  0
 24  6  1  0
 24 14  2  0
  6 23  2  0
 21 19  1  0
 19 25  1  0
 25 14  1  0
 14  7  1  0
 23 11  1  0
 11  7  1  0
 11 12  2  0
  7  5  2  0
 28 12  1  0
  5 13  1  0
 12  9  1  0
 13  9  2  0
 13 32  1  0
  9  8  1  0
  8  3  2  0
  2  1  2  0
  3  1  1  0
  1 33  1  0
  2 34  1  0
  3 35  1  0
  4 36  1  0
  5 37  1  0
  6 38  1  0
 15 39  1  0
 15 40  1  0
 15 41  1  0
 16 42  1  0
 16 43  1  0
 18 44  1  0
 18 45  1  0
 19 46  1  0
 19 47  1  0
 20 48  1  0
 20 49  1  0
 21 50  1  0
 21 51  1  0
M  END
