
     RDKit          3D

 19 18  0  0  0  0  0  0  0  0999 V2000
    0.4103   -0.4795   -0.0030 C   0  0  0  0  0  0  0  0  0  0  0  0
    2.9259   -0.6384   -0.0150 C   0  0  0  0  0  0  0  0  0  0  0  0
    1.7189    0.2924    0.0006 C   0  0  0  0  0  0  0  0  0  0  0  0
   -0.8098    0.3839    0.0189 C   0  0  0  0  0  0  0  0  0  0  0  0
    4.2436    0.1234   -0.0120 C   0  0  0  0  0  0  0  0  0  0  0  0
   -2.1549   -0.3649    0.0100 C   0  0  0  0  0  0  0  0  0  0  0  0
   -2.2284   -1.5645   -0.0119 O   0  0  0  0  0  0  0  0  0  0  0  0
   -3.1731    0.4661    0.0295 O   0  0  0  0  0  0  0  0  0  0  0  0
   -0.8057    1.5859    0.0433 O   0  0  0  0  0  0  0  0  0  0  0  0
    0.3457   -1.1349   -0.8790 H   0  0  0  0  0  0  0  0  0  0  0  0
    0.3566   -1.1587    0.8558 H   0  0  0  0  0  0  0  0  0  0  0  0
    2.8827   -1.3038    0.8524 H   0  0  0  0  0  0  0  0  0  0  0  0
    2.8757   -1.2845   -0.8966 H   0  0  0  0  0  0  0  0  0  0  0  0
    1.7627    0.9561   -0.8675 H   0  0  0  0  0  0  0  0  0  0  0  0
    1.7697    0.9355    0.8834 H   0  0  0  0  0  0  0  0  0  0  0  0
    4.3249    0.7721   -0.8863 H   0  0  0  0  0  0  0  0  0  0  0  0
    4.3311    0.7542    0.8748 H   0  0  0  0  0  0  0  0  0  0  0  0
    5.0985   -0.5533   -0.0218 H   0  0  0  0  0  0  0  0  0  0  0  0
   -4.0099   -0.0245    0.0260 H   0  0  0  0  0  0  0  0  0  0  0  0
  7  6  2  0
  6  8  1  0
  6  4  1  0
  1  4  1  0
  1  3  1  0
  4  9  2  0
  2  3  1  0
  2  5  1  0
  1 10  1  0
  1 11  1  0
  2 12  1  0
  2 13  1  0
  3 14  1  0
  3 15  1  0
  5 16  1  0
  5 17  1  0
  5 18  1  0
  8 19  1  0
M  END
