
     RDKit          3D

 24 25  0  0  0  0  0  0  0  0999 V2000
    2.3035   -0.3952    0.0054 C   0  0  0  0  0  0  0  0  0  0  0  0
   -4.7645   -0.5228   -0.0250 C   0  0  0  0  0  0  0  0  0  0  0  0
   -3.6939    0.5396   -0.0279 C   0  0  0  0  0  0  0  0  0  0  0  0
    1.6578    1.7927   -0.0015 C   0  0  0  0  0  0  0  0  0  0  0  0
   -0.0822   -0.1820   -0.0123 C   0  0  0  0  0  0  0  0  0  0  0  0
    1.1649    0.4551   -0.0036 C   0  0  0  0  0  0  0  0  0  0  0  0
    3.0217    1.7018    0.0091 C   0  0  0  0  0  0  0  0  0  0  0  0
    2.3051   -1.7142    0.0061 N   0  0  0  0  0  0  0  0  0  0  0  0
    3.4096    0.3952    0.0124 N   0  0  0  0  0  0  0  0  0  0  0  0
    1.1078   -2.2823   -0.0025 C   0  0  0  0  0  0  0  0  0  0  0  0
   -0.0930   -1.5713   -0.0115 C   0  0  0  0  0  0  0  0  0  0  0  0
   -1.3297    0.6237   -0.0238 C   0  0  0  0  0  0  0  0  0  0  0  0
   -1.3400    1.8312   -0.0399 O   0  0  0  0  0  0  0  0  0  0  0  0
   -2.4184   -0.1229   -0.0143 O   0  0  0  0  0  0  0  0  0  0  0  0
   -4.6985   -1.1618   -0.9053 H   0  0  0  0  0  0  0  0  0  0  0  0
   -4.7076   -1.1470    0.8665 H   0  0  0  0  0  0  0  0  0  0  0  0
   -5.7422   -0.0419   -0.0342 H   0  0  0  0  0  0  0  0  0  0  0  0
   -3.7678    1.1697   -0.9163 H   0  0  0  0  0  0  0  0  0  0  0  0
   -3.7782    1.1846    0.8488 H   0  0  0  0  0  0  0  0  0  0  0  0
    1.0907    2.7065   -0.0071 H   0  0  0  0  0  0  0  0  0  0  0  0
    3.7580    2.4888    0.0135 H   0  0  0  0  0  0  0  0  0  0  0  0
    4.3614    0.0656    0.0193 H   0  0  0  0  0  0  0  0  0  0  0  0
    1.0857   -3.3654   -0.0024 H   0  0  0  0  0  0  0  0  0  0  0  0
   -1.0197   -2.1263   -0.0187 H   0  0  0  0  0  0  0  0  0  0  0  0
 10 11  2  0
 10  8  1  0
 11  5  1  0
 13 12  2  0
  8  1  2  0
  5 12  1  0
  5  6  2  0
 12 14  1  0
  1  6  1  0
  1  9  1  0
  6  4  1  0
 14  3  1  0
  3  2  1  0
  9  7  1  0
  4  7  2  0
  2 15  1  0
  2 16  1  0
  2 17  1  0
  3 18  1  0
  3 19  1  0
  4 20  1  0
  7 21  1  0
  9 22  1  0
 10 23  1  0
 11 24  1  0
M  END
