
     RDKit          3D

 41 42  0  0  0  0  0  0  0  0999 V2000
   -0.3402   -0.8781    0.4396 N   0  0  0  0  0  0  0  0  0  0  0  0
    0.8592   -1.4681    0.9966 C   0  0  1  0  0  0  0  0  0  0  0  0
    1.7138   -0.5250    1.8731 C   0  0  0  0  0  0  0  0  0  0  0  0
    0.4744   -2.6739    1.8401 C   0  0  0  0  0  0  0  0  0  0  0  0
   -0.1863   -2.6972    2.8820 O   0  0  0  0  0  0  0  0  0  0  0  0
    3.0828   -1.0484    2.1144 C   0  0  0  0  0  0  0  0  0  0  0  0
    4.0939   -0.9740    1.1357 C   0  0  0  0  0  0  0  0  0  0  0  0
    3.9117   -0.4220   -0.1104 O   0  0  0  0  0  0  0  0  0  0  0  0
    5.3777   -1.4724    1.3823 C   0  0  0  0  0  0  0  0  0  0  0  0
    3.3890   -1.6320    3.3441 C   0  0  0  0  0  0  0  0  0  0  0  0
    4.6650   -2.1470    3.6384 C   0  0  0  0  0  0  0  0  0  0  0  0
    5.0267   -2.7457    4.8604 N   0  0  0  0  0  0  0  0  0  0  0  0
    5.6632   -2.0546    2.6229 C   0  0  0  0  0  0  0  0  0  0  0  0
    6.9460   -2.5113    2.7652 O   0  0  0  0  0  0  0  0  0  0  0  0
    4.4334   -5.7444    6.6979 C   0  0  0  0  0  0  0  0  0  0  0  0
    3.1209   -6.2078    6.8491 C   0  0  0  0  0  0  0  0  0  0  0  0
    2.8506   -7.5740    6.8173 C   0  0  0  0  0  0  0  0  0  0  0  0
    3.8884   -8.4882    6.6342 C   0  0  0  0  0  0  0  0  0  0  0  0
    5.1971   -8.0320    6.4831 C   0  0  0  0  0  0  0  0  0  0  0  0
    5.4706   -6.6653    6.5144 C   0  0  0  0  0  0  0  0  0  0  0  0
    4.7222   -4.2830    6.7317 C   0  0  0  0  0  0  0  0  0  0  0  0
    4.2939   -3.6271    5.4478 C   0  0  0  0  0  0  0  0  0  0  0  0
    0.9336   -3.8533    1.3535 O   0  0  0  0  0  0  0  0  0  0  0  0
   -0.1778    0.0795    0.2015 H   0  0  0  0  0  0  0  0  0  0  0  0
   -1.1073   -0.9417    1.0811 H   0  0  0  0  0  0  0  0  0  0  0  0
    1.4902   -1.8343    0.1298 H   0  0  0  0  0  0  0  0  0  0  0  0
    1.7777    0.4806    1.3750 H   0  0  0  0  0  0  0  0  0  0  0  0
    1.1863   -0.3709    2.8535 H   0  0  0  0  0  0  0  0  0  0  0  0
    3.7370   -1.1351   -0.7414 H   0  0  0  0  0  0  0  0  0  0  0  0
    6.1572   -1.4085    0.6103 H   0  0  0  0  0  0  0  0  0  0  0  0
    2.5906   -1.6856    4.1047 H   0  0  0  0  0  0  0  0  0  0  0  0
    7.5186   -1.7800    3.0449 H   0  0  0  0  0  0  0  0  0  0  0  0
    2.3014   -5.4885    6.9935 H   0  0  0  0  0  0  0  0  0  0  0  0
    1.8170   -7.9309    6.9368 H   0  0  0  0  0  0  0  0  0  0  0  0
    3.6742   -9.5669    6.6092 H   0  0  0  0  0  0  0  0  0  0  0  0
    6.0172   -8.7506    6.3386 H   0  0  0  0  0  0  0  0  0  0  0  0
    6.5047   -6.3101    6.3947 H   0  0  0  0  0  0  0  0  0  0  0  0
    5.8108   -4.1081    6.9451 H   0  0  0  0  0  0  0  0  0  0  0  0
    4.1370   -3.8015    7.5645 H   0  0  0  0  0  0  0  0  0  0  0  0
    3.2562   -3.8912    5.1480 H   0  0  0  0  0  0  0  0  0  0  0  0
    0.6544   -4.5796    1.9360 H   0  0  0  0  0  0  0  0  0  0  0  0
  1  2  1  0
  1 24  1  0
  1 25  1  0
  2  3  1  0
  2  4  1  0
  2 26  1  6
  3  6  1  0
  3 27  1  0
  3 28  1  0
  4  5  2  0
  4 23  1  0
  6  7  2  0
  6 10  1  0
  7  8  1  0
  7  9  1  0
  8 29  1  0
  9 13  2  0
  9 30  1  0
 10 11  2  0
 10 31  1  0
 11 12  1  0
 11 13  1  0
 12 22  2  0
 13 14  1  0
 14 32  1  0
 15 16  2  0
 15 20  1  0
 15 21  1  0
 16 17  1  0
 16 33  1  0
 17 18  2  0
 17 34  1  0
 18 19  1  0
 18 35  1  0
 19 20  2  0
 19 36  1  0
 20 37  1  0
 21 22  1  0
 21 38  1  0
 21 39  1  0
 22 40  1  0
 23 41  1  0
M  END
