
     RDKit          3D

 24 24  0  0  0  0  0  0  0  0999 V2000
    2.3591   -1.1913   -0.1881 O   0  0  0  0  0  0  0  0  0  0  0  0
   -0.0903   -2.4575    0.3546 O   0  0  0  0  0  0  0  0  0  0  0  0
   -2.4160   -1.0442   -0.2515 O   0  0  0  0  0  0  0  0  0  0  0  0
   -1.2580   -0.4089    0.2399 C   0  0  2  0  0  0  0  0  0  0  0  0
   -1.2419    1.0223   -0.2806 C   0  0  1  0  0  0  0  0  0  0  0  0
   -2.4113    1.7346    0.2107 N   0  0  0  0  0  0  0  0  0  0  0  0
   -0.0016   -1.1592   -0.1898 C   0  0  1  0  0  0  0  0  0  0  0  0
    1.2591   -0.4422    0.2750 C   0  0  2  0  0  0  0  0  0  0  0  0
    1.2784    0.9882   -0.2460 C   0  0  2  0  0  0  0  0  0  0  0  0
    2.4576    1.5910    0.2457 O   0  0  0  0  0  0  0  0  0  0  0  0
    0.0228    1.7237    0.2012 C   0  0  0  0  0  0  0  0  0  0  0  0
    3.1642   -0.7691    0.1281 H   0  0  0  0  0  0  0  0  0  0  0  0
    0.6244   -2.9900   -0.0077 H   0  0  0  0  0  0  0  0  0  0  0  0
   -2.4120   -1.9556    0.0587 H   0  0  0  0  0  0  0  0  0  0  0  0
   -1.2784   -0.3649    1.3413 H   0  0  0  0  0  0  0  0  0  0  0  0
   -1.2087    0.9761   -1.3822 H   0  0  0  0  0  0  0  0  0  0  0  0
   -2.3917    2.6837   -0.1417 H   0  0  0  0  0  0  0  0  0  0  0  0
   -3.2490    1.3180   -0.1751 H   0  0  0  0  0  0  0  0  0  0  0  0
    0.0131   -1.2028   -1.2911 H   0  0  0  0  0  0  0  0  0  0  0  0
    1.2517   -0.4039    1.3770 H   0  0  0  0  0  0  0  0  0  0  0  0
    1.2984    0.9532   -1.3457 H   0  0  0  0  0  0  0  0  0  0  0  0
    2.6201    2.3969   -0.2534 H   0  0  0  0  0  0  0  0  0  0  0  0
    0.0402    2.7483   -0.1819 H   0  0  0  0  0  0  0  0  0  0  0  0
    0.0043    1.7931    1.2943 H   0  0  0  0  0  0  0  0  0  0  0  0
  1  8  1  0
 10  9  1  0
  9  8  1  0
  9 11  1  0
  8  7  1  0
  7  2  1  0
  7  4  1  0
 11  5  1  0
  5  4  1  0
  5  6  1  0
  3  4  1  0
  1 12  1  0
  2 13  1  0
  3 14  1  0
  4 15  1  1
  5 16  1  6
  6 17  1  0
  6 18  1  0
  7 19  1  6
  8 20  1  1
  9 21  1  6
 10 22  1  0
 11 23  1  0
 11 24  1  0
M  END
