
     RDKit          3D

 30 32  0  0  0  0  0  0  0  0999 V2000
    0.3219    0.2214   -0.0309 C   0  0  0  0  0  0  0  0  0  0  0  0
   -2.0215    0.9533    0.1692 C   0  0  0  0  0  0  0  0  0  0  0  0
   -3.3967    0.3481    0.0924 C   0  0  0  0  0  0  0  0  0  0  0  0
   -1.0289   -0.0839   -0.0079 N   0  0  0  0  0  0  0  0  0  0  0  0
   -4.1465    0.1308    1.2419 C   0  0  0  0  0  0  0  0  0  0  0  0
   -5.3979   -0.4577    1.1273 C   0  0  0  0  0  0  0  0  0  0  0  0
   -3.8365    0.0119   -1.1184 N   0  0  0  0  0  0  0  0  0  0  0  0
   -5.8545   -0.8086   -0.1322 C   0  0  0  0  0  0  0  0  0  0  0  0
   -5.0332   -0.5494   -1.2213 C   0  0  0  0  0  0  0  0  0  0  0  0
    1.2456   -0.8257    0.1287 C   0  0  0  0  0  0  0  0  0  0  0  0
    2.5883   -0.5280    0.0515 C   0  0  0  0  0  0  0  0  0  0  0  0
    3.7079   -1.3220    0.1628 N   0  0  0  0  0  0  0  0  0  0  0  0
    6.0047   -0.9867    0.0470 O   0  0  0  0  0  0  0  0  0  0  0  0
    4.8561   -0.5796    0.0080 C   0  0  0  0  0  0  0  0  0  0  0  0
    3.0478    0.7732   -0.1789 C   0  0  0  0  0  0  0  0  0  0  0  0
    4.4310    0.7044   -0.1977 N   0  0  0  0  0  0  0  0  0  0  0  0
    0.7902    1.5248   -0.2478 C   0  0  0  0  0  0  0  0  0  0  0  0
    2.1533    1.8084   -0.3287 C   0  0  0  0  0  0  0  0  0  0  0  0
   -1.9239    1.6882   -0.6324 H   0  0  0  0  0  0  0  0  0  0  0  0
   -1.9022    1.4933    1.1178 H   0  0  0  0  0  0  0  0  0  0  0  0
   -1.2403   -0.9280    0.5031 H   0  0  0  0  0  0  0  0  0  0  0  0
   -3.7556    0.4164    2.2096 H   0  0  0  0  0  0  0  0  0  0  0  0
   -6.0024   -0.6373    2.0066 H   0  0  0  0  0  0  0  0  0  0  0  0
   -6.8216   -1.2704   -0.2760 H   0  0  0  0  0  0  0  0  0  0  0  0
   -5.3614   -0.8055   -2.2227 H   0  0  0  0  0  0  0  0  0  0  0  0
    0.9067   -1.8397    0.3042 H   0  0  0  0  0  0  0  0  0  0  0  0
    3.7151   -2.3166    0.3205 H   0  0  0  0  0  0  0  0  0  0  0  0
    5.0613    1.4740   -0.3524 H   0  0  0  0  0  0  0  0  0  0  0  0
    0.0942    2.3442   -0.3578 H   0  0  0  0  0  0  0  0  0  0  0  0
    2.4870    2.8233   -0.5004 H   0  0  0  0  0  0  0  0  0  0  0  0
 13 14  2  0
 14 12  1  0
 14 16  1  0
 12 11  1  0
 11 10  2  0
 11 15  1  0
 16 15  1  0
 10  1  1  0
 15 18  2  0
  1  4  1  0
  1 17  2  0
 18 17  1  0
  4  2  1  0
  2  3  1  0
  3  5  2  0
  3  7  1  0
  5  6  1  0
  7  9  2  0
  6  8  2  0
  9  8  1  0
  2 19  1  0
  2 20  1  0
  4 21  1  0
  5 22  1  0
  6 23  1  0
  8 24  1  0
  9 25  1  0
 10 26  1  0
 12 27  1  0
 16 28  1  0
 17 29  1  0
 18 30  1  0
M  END
