
     RDKit          3D

 49 51  0  0  0  0  0  0  0  0999 V2000
    5.3272   -0.1645   -2.0418 C   0  0  0  0  0  0  0  0  0  0  0  0
    4.7094    0.7933   -1.2042 O   0  0  0  0  0  0  0  0  0  0  0  0
    3.6023    0.4364   -0.5341 C   0  0  0  0  0  0  0  0  0  0  0  0
    3.0074   -0.8173   -0.6041 C   0  0  0  0  0  0  0  0  0  0  0  0
    1.8428   -1.0697    0.1169 C   0  0  0  0  0  0  0  0  0  0  0  0
    1.2753   -2.4415    0.0426 C   0  0  0  0  0  0  0  0  0  0  0  0
    1.9847   -3.3971   -0.1968 O   0  0  0  0  0  0  0  0  0  0  0  0
   -0.1934   -2.6589    0.2473 C   0  0  0  0  0  0  0  0  0  0  0  0
   -0.6521   -3.9005    0.6720 C   0  0  0  0  0  0  0  0  0  0  0  0
   -2.0206   -4.0621    0.8167 C   0  0  0  0  0  0  0  0  0  0  0  0
   -2.8659   -3.0064    0.5247 C   0  0  0  0  0  0  0  0  0  0  0  0
   -2.3183   -1.7967    0.0894 C   0  0  0  0  0  0  0  0  0  0  0  0
   -3.1460   -0.6109   -0.2259 C   0  0  0  0  0  0  0  0  0  0  0  0
   -4.5347   -0.6799   -0.3217 C   0  0  0  0  0  0  0  0  0  0  0  0
   -5.2661    0.4633   -0.6037 C   0  0  0  0  0  0  0  0  0  0  0  0
   -4.6622    1.7003   -0.7958 C   0  0  0  0  0  0  0  0  0  0  0  0
   -5.4668    2.9308   -1.0937 C   0  0  0  0  0  0  0  0  0  0  0  0
   -3.2662    1.7597   -0.7004 C   0  0  0  0  0  0  0  0  0  0  0  0
   -2.5794    2.9096   -0.8688 O   0  0  0  0  0  0  0  0  0  0  0  0
   -2.5240    0.6202   -0.4249 C   0  0  0  0  0  0  0  0  0  0  0  0
   -1.0040   -1.6512   -0.0366 N   0  0  0  0  0  0  0  0  0  0  0  0
    1.2825   -0.0894    0.9306 C   0  0  0  0  0  0  0  0  0  0  0  0
    1.8896    1.1590    1.0201 C   0  0  0  0  0  0  0  0  0  0  0  0
    1.4390    2.1687    1.7830 O   0  0  0  0  0  0  0  0  0  0  0  0
    0.2430    1.9778    2.5132 C   0  0  0  0  0  0  0  0  0  0  0  0
    3.0415    1.4305    0.2761 C   0  0  0  0  0  0  0  0  0  0  0  0
    3.6036    2.6610    0.3268 O   0  0  0  0  0  0  0  0  0  0  0  0
    4.6125    2.8060    1.3214 C   0  0  0  0  0  0  0  0  0  0  0  0
    4.6639   -0.4914   -2.8468 H   0  0  0  0  0  0  0  0  0  0  0  0
    6.1941    0.3243   -2.4786 H   0  0  0  0  0  0  0  0  0  0  0  0
    5.6624   -1.0412   -1.4819 H   0  0  0  0  0  0  0  0  0  0  0  0
    3.4301   -1.5985   -1.2198 H   0  0  0  0  0  0  0  0  0  0  0  0
    0.0340   -4.7054    0.8939 H   0  0  0  0  0  0  0  0  0  0  0  0
   -2.4276   -5.0034    1.1603 H   0  0  0  0  0  0  0  0  0  0  0  0
   -3.9321   -3.1278    0.6502 H   0  0  0  0  0  0  0  0  0  0  0  0
   -5.0638   -1.6135   -0.1881 H   0  0  0  0  0  0  0  0  0  0  0  0
   -6.3446    0.3928   -0.6786 H   0  0  0  0  0  0  0  0  0  0  0  0
   -5.3330    3.7017   -0.3307 H   0  0  0  0  0  0  0  0  0  0  0  0
   -5.1976    3.3739   -2.0558 H   0  0  0  0  0  0  0  0  0  0  0  0
   -6.5295    2.6997   -1.1317 H   0  0  0  0  0  0  0  0  0  0  0  0
   -3.1733    3.6497   -1.0342 H   0  0  0  0  0  0  0  0  0  0  0  0
   -1.4458    0.6952   -0.3638 H   0  0  0  0  0  0  0  0  0  0  0  0
    0.3941   -0.3062    1.5025 H   0  0  0  0  0  0  0  0  0  0  0  0
    0.0579    2.9058    3.0476 H   0  0  0  0  0  0  0  0  0  0  0  0
   -0.6078    1.7744    1.8563 H   0  0  0  0  0  0  0  0  0  0  0  0
    0.3298    1.1645    3.2377 H   0  0  0  0  0  0  0  0  0  0  0  0
    4.9807    3.8280    1.2556 H   0  0  0  0  0  0  0  0  0  0  0  0
    4.2151    2.6394    2.3250 H   0  0  0  0  0  0  0  0  0  0  0  0
    5.4467    2.1217    1.1523 H   0  0  0  0  0  0  0  0  0  0  0  0
 25 24  1  0
 24 23  1  0
 28 27  1  0
 27 26  1  0
 23 26  1  0
 23 22  2  0
 26  3  2  0
 22  5  1  0
  3  2  1  0
  3  4  1  0
  5  4  2  0
  5  6  1  0
  7  6  2  0
  2  1  1  0
  6  8  1  0
  8 21  1  0
  8  9  2  0
 21 12  2  0
  9 10  1  0
 14 15  2  0
 14 13  1  0
 12 13  1  0
 12 11  1  0
 15 16  1  0
 10 11  2  0
 13 20  2  0
 16 17  1  0
 16 18  2  0
 20 18  1  0
 18 19  1  0
  1 29  1  0
  1 30  1  0
  1 31  1  0
  4 32  1  0
  9 33  1  0
 10 34  1  0
 11 35  1  0
 14 36  1  0
 15 37  1  0
 17 38  1  0
 17 39  1  0
 17 40  1  0
 19 41  1  0
 20 42  1  0
 22 43  1  0
 25 44  1  0
 25 45  1  0
 25 46  1  0
 28 47  1  0
 28 48  1  0
 28 49  1  0
M  END
