
     RDKit          3D

 68 67  0  0  0  0  0  0  0  0999 V2000
    9.4746    2.0808   -0.7258 O   0  0  0  0  0  0  0  0  0  0  0  0
    8.0134    2.6438   -0.4004 P   0  0  1  0  0  0  0  0  0  0  0  0
    8.1771    3.8717    0.6031 O   0  0  0  0  0  0  0  0  0  0  0  0
    7.2844    2.8787   -1.6607 O   0  0  0  0  0  0  0  0  0  0  0  0
    7.3470    1.6379    0.6395 O   0  0  0  0  0  0  0  0  0  0  0  0
    6.9218    0.3403    0.2022 C   0  0  0  0  0  0  0  0  0  0  0  0
    6.3107   -0.3993    1.3915 C   0  0  1  0  0  0  0  0  0  0  0  0
    7.3342   -0.5216    2.5244 C   0  0  0  0  0  0  0  0  0  0  0  0
    5.0792    0.3462    1.9103 C   0  0  0  0  0  0  0  0  0  0  0  0
    5.9154   -1.8401    0.9569 C   0  0  2  0  0  0  0  0  0  0  0  0
    7.0192   -2.6020    0.5502 O   0  0  0  0  0  0  0  0  0  0  0  0
    4.8712   -1.8673   -0.1598 C   0  0  0  0  0  0  0  0  0  0  0  0
    5.2288   -1.8569   -1.3331 O   0  0  0  0  0  0  0  0  0  0  0  0
    3.5921   -1.9062    0.2147 N   0  0  0  0  0  0  0  0  0  0  0  0
    2.4983   -1.9125   -0.7377 C   0  0  0  0  0  0  0  0  0  0  0  0
    1.1827   -1.7508    0.0013 C   0  0  0  0  0  0  0  0  0  0  0  0
   -0.0061   -1.7587   -0.9376 C   0  0  0  0  0  0  0  0  0  0  0  0
    0.0747   -2.1049   -2.1071 O   0  0  0  0  0  0  0  0  0  0  0  0
   -1.1630   -1.3686   -0.3805 N   0  0  0  0  0  0  0  0  0  0  0  0
   -2.4065   -1.3478   -1.1198 C   0  0  0  0  0  0  0  0  0  0  0  0
   -3.5354   -0.9352   -0.1876 C   0  0  0  0  0  0  0  0  0  0  0  0
   -5.0739   -0.9017   -1.1445 S   0  0  0  0  0  0  0  0  0  0  0  0
   -6.2302   -0.3384    0.0812 C   0  0  0  0  0  0  0  0  0  0  0  0
   -5.9015   -0.1001    1.2132 O   0  0  0  0  0  0  0  0  0  0  0  0
   -7.6276   -0.1991   -0.4632 C   0  0  0  0  0  0  0  0  0  0  0  0
   -8.6448    0.2889    0.5574 C   0  0  0  0  0  0  0  0  0  0  0  0
  -10.0328    0.4298   -0.0554 C   0  0  0  0  0  0  0  0  0  0  0  0
  -11.0723    0.9186    0.9451 C   0  0  0  0  0  0  0  0  0  0  0  0
  -12.4616    1.0756    0.3399 C   0  0  0  0  0  0  0  0  0  0  0  0
  -13.4990    1.5736    1.3389 C   0  0  0  0  0  0  0  0  0  0  0  0
  -14.8849    1.7309    0.7285 C   0  0  0  0  0  0  0  0  0  0  0  0
    6.1943    0.4554   -0.6038 H   0  0  0  0  0  0  0  0  0  0  0  0
    7.7825   -0.2119   -0.1854 H   0  0  0  0  0  0  0  0  0  0  0  0
    6.9196   -1.1026    3.3510 H   0  0  0  0  0  0  0  0  0  0  0  0
    8.2498   -1.0132    2.1961 H   0  0  0  0  0  0  0  0  0  0  0  0
    7.6019    0.4578    2.9187 H   0  0  0  0  0  0  0  0  0  0  0  0
    4.5932   -0.2203    2.7082 H   0  0  0  0  0  0  0  0  0  0  0  0
    5.3612    1.3114    2.3294 H   0  0  0  0  0  0  0  0  0  0  0  0
    4.3381    0.5283    1.1309 H   0  0  0  0  0  0  0  0  0  0  0  0
    5.4998   -2.3239    1.8487 H   0  0  0  0  0  0  0  0  0  0  0  0
    7.1167   -2.4937   -0.4046 H   0  0  0  0  0  0  0  0  0  0  0  0
    3.3786   -2.0068    1.1942 H   0  0  0  0  0  0  0  0  0  0  0  0
    2.6355   -1.0957   -1.4477 H   0  0  0  0  0  0  0  0  0  0  0  0
    2.5031   -2.8429   -1.3089 H   0  0  0  0  0  0  0  0  0  0  0  0
    1.0527   -2.5644    0.7225 H   0  0  0  0  0  0  0  0  0  0  0  0
    1.1832   -0.8235    0.5809 H   0  0  0  0  0  0  0  0  0  0  0  0
   -1.1698   -1.0869    0.5871 H   0  0  0  0  0  0  0  0  0  0  0  0
   -2.3371   -0.6471   -1.9558 H   0  0  0  0  0  0  0  0  0  0  0  0
   -2.6098   -2.3360   -1.5393 H   0  0  0  0  0  0  0  0  0  0  0  0
   -3.6362   -1.6457    0.6330 H   0  0  0  0  0  0  0  0  0  0  0  0
   -3.3513    0.0572    0.2246 H   0  0  0  0  0  0  0  0  0  0  0  0
   -7.5853    0.4806   -1.3208 H   0  0  0  0  0  0  0  0  0  0  0  0
   -7.9275   -1.1692   -0.8731 H   0  0  0  0  0  0  0  0  0  0  0  0
   -8.6861   -0.4063    1.3999 H   0  0  0  0  0  0  0  0  0  0  0  0
   -8.3272    1.2528    0.9635 H   0  0  0  0  0  0  0  0  0  0  0  0
   -9.9884    1.1240   -0.9016 H   0  0  0  0  0  0  0  0  0  0  0  0
  -10.3501   -0.5339   -0.4681 H   0  0  0  0  0  0  0  0  0  0  0  0
  -11.1206    0.2207    1.7882 H   0  0  0  0  0  0  0  0  0  0  0  0
  -10.7487    1.8783    1.3629 H   0  0  0  0  0  0  0  0  0  0  0  0
  -12.4128    1.7698   -0.5066 H   0  0  0  0  0  0  0  0  0  0  0  0
  -12.7888    0.1153   -0.0741 H   0  0  0  0  0  0  0  0  0  0  0  0
  -13.5483    0.8811    2.1851 H   0  0  0  0  0  0  0  0  0  0  0  0
  -13.1706    2.5329    1.7511 H   0  0  0  0  0  0  0  0  0  0  0  0
  -14.8718    2.4385   -0.1026 H   0  0  0  0  0  0  0  0  0  0  0  0
  -15.2581    0.7801    0.3437 H   0  0  0  0  0  0  0  0  0  0  0  0
  -15.6055    2.0957    1.4616 H   0  0  0  0  0  0  0  0  0  0  0  0
   10.0500    1.9423    0.0385 H   0  0  0  0  0  0  0  0  0  0  0  0
    8.4646    4.6911    0.1790 H   0  0  0  0  0  0  0  0  0  0  0  0
  2  1  1  6
  1 67  1  0
  4  2  2  0
  2  5  1  0
  2  3  1  0
  3 68  1  0
  5  6  1  0
  6 33  1  0
  7  6  1  6
  6 32  1  0
  9  7  1  0
  7 10  1  0
  7  8  1  0
 34  8  1  0
  8 36  1  0
  8 35  1  0
 37  9  1  0
 38  9  1  0
  9 39  1  0
 11 10  1  0
 10 12  1  0
 10 40  1  1
 41 11  1  0
 13 12  2  0
 12 14  1  0
 14 15  1  0
 14 42  1  0
 43 15  1  0
 15 44  1  0
 15 16  1  0
 17 16  1  0
 16 46  1  0
 16 45  1  0
 19 17  1  0
 17 18  2  0
 47 19  1  0
 20 19  1  0
 21 20  1  0
 48 20  1  0
 20 49  1  0
 22 21  1  0
 51 21  1  0
 21 50  1  0
 23 22  1  0
 25 23  1  0
 23 24  2  0
 26 25  1  0
 52 25  1  0
 25 53  1  0
 55 26  1  0
 54 26  1  0
 26 27  1  0
 28 27  1  0
 27 56  1  0
 27 57  1  0
 59 28  1  0
 58 28  1  0
 28 29  1  0
 60 29  1  0
 29 30  1  0
 29 61  1  0
 31 30  1  0
 30 62  1  0
 30 63  1  0
 65 31  1  0
 64 31  1  0
 31 66  1  0
M  END
