
     RDKit          3D

 45 46  0  0  0  0  0  0  0  0999 V2000
   -3.8384    2.2348    0.1723 O   0  0  0  0  0  0  0  0  0  0  0  0
   -3.3004    1.1445    0.0352 C   0  0  0  0  0  0  0  0  0  0  0  0
   -3.9563   -0.0218    0.1197 N   0  0  0  0  0  0  0  0  0  0  0  0
   -5.3754   -0.1259    0.3782 C   0  0  0  0  0  0  0  0  0  0  0  0
   -5.9503   -1.3538   -0.2925 C   0  0  0  0  0  0  0  0  0  0  0  0
   -5.2995   -2.4937    0.2268 O   0  0  0  0  0  0  0  0  0  0  0  0
   -1.8325    1.0421   -0.2444 C   0  0  0  0  0  0  0  0  0  0  0  0
   -0.9980    2.0548    0.2184 C   0  0  0  0  0  0  0  0  0  0  0  0
    0.3638    2.0062   -0.0259 C   0  0  0  0  0  0  0  0  0  0  0  0
   -1.2862    0.0014   -0.9908 C   0  0  0  0  0  0  0  0  0  0  0  0
    0.0744   -0.0349   -1.2495 C   0  0  0  0  0  0  0  0  0  0  0  0
    0.9178    0.9536   -0.7510 C   0  0  0  0  0  0  0  0  0  0  0  0
    2.3873    0.9237   -1.0455 C   0  0  0  0  0  0  0  0  0  0  0  0
    3.2255    0.1638   -0.0393 N   0  0  2  0  0  0  0  0  0  0  0  0
    3.0887    0.7912    1.3017 C   0  0  0  0  0  0  0  0  0  0  0  0
    4.6546    0.2513   -0.5144 C   0  0  0  0  0  0  0  0  0  0  0  0
    2.8005   -1.2786    0.0018 C   0  0  0  0  0  0  0  0  0  0  0  0
    3.7259   -2.1442    0.8345 C   0  0  0  0  0  0  0  0  0  0  0  0
    5.1659   -2.0462    0.3548 C   0  0  0  0  0  0  0  0  0  0  0  0
    5.6122   -0.5919    0.3035 C   0  0  0  0  0  0  0  0  0  0  0  0
   -3.4284   -0.8791    0.1661 H   0  0  0  0  0  0  0  0  0  0  0  0
   -5.5702   -0.1590    1.4550 H   0  0  0  0  0  0  0  0  0  0  0  0
   -5.8769    0.7575   -0.0138 H   0  0  0  0  0  0  0  0  0  0  0  0
   -7.0299   -1.3771   -0.1011 H   0  0  0  0  0  0  0  0  0  0  0  0
   -5.8129   -1.2700   -1.3765 H   0  0  0  0  0  0  0  0  0  0  0  0
   -5.4852   -3.2395   -0.3502 H   0  0  0  0  0  0  0  0  0  0  0  0
   -1.4117    2.8852    0.7741 H   0  0  0  0  0  0  0  0  0  0  0  0
    0.9965    2.8046    0.3424 H   0  0  0  0  0  0  0  0  0  0  0  0
   -1.9147   -0.7750   -1.4080 H   0  0  0  0  0  0  0  0  0  0  0  0
    0.4761   -0.8378   -1.8551 H   0  0  0  0  0  0  0  0  0  0  0  0
    2.7941    1.9341   -1.0735 H   0  0  0  0  0  0  0  0  0  0  0  0
    2.5777    0.4597   -2.0128 H   0  0  0  0  0  0  0  0  0  0  0  0
    3.3622    1.8407    1.2295 H   0  0  0  0  0  0  0  0  0  0  0  0
    2.0620    0.6956    1.6427 H   0  0  0  0  0  0  0  0  0  0  0  0
    3.7394    0.3000    2.0161 H   0  0  0  0  0  0  0  0  0  0  0  0
    4.6511   -0.0872   -1.5515 H   0  0  0  0  0  0  0  0  0  0  0  0
    4.9314    1.3053   -0.5017 H   0  0  0  0  0  0  0  0  0  0  0  0
    1.7826   -1.3088    0.3852 H   0  0  0  0  0  0  0  0  0  0  0  0
    2.7894   -1.6226   -1.0336 H   0  0  0  0  0  0  0  0  0  0  0  0
    3.3578   -3.1673    0.7441 H   0  0  0  0  0  0  0  0  0  0  0  0
    3.6484   -1.8885    1.8933 H   0  0  0  0  0  0  0  0  0  0  0  0
    5.2473   -2.4855   -0.6436 H   0  0  0  0  0  0  0  0  0  0  0  0
    5.8228   -2.6200    1.0087 H   0  0  0  0  0  0  0  0  0  0  0  0
    6.5875   -0.5058   -0.1779 H   0  0  0  0  0  0  0  0  0  0  0  0
    5.7367   -0.1839    1.3085 H   0  0  0  0  0  0  0  0  0  0  0  0
  1  2  2  0
  2  3  1  0
  2  7  1  0
  3  4  1  0
  3 21  1  0
  4  5  1  0
  4 22  1  0
  4 23  1  0
  5  6  1  0
  5 24  1  0
  5 25  1  0
  6 26  1  0
  7  8  2  0
  7 10  1  0
  8  9  1  0
  8 27  1  0
  9 12  2  0
  9 28  1  0
 10 11  2  0
 10 29  1  0
 11 12  1  0
 11 30  1  0
 12 13  1  0
 14 13  1  6
 13 31  1  0
 13 32  1  0
 14 15  1  0
 14 16  1  0
 14 17  1  0
 15 33  1  0
 15 34  1  0
 15 35  1  0
 16 20  1  0
 16 36  1  0
 16 37  1  0
 17 18  1  0
 17 38  1  0
 17 39  1  0
 18 19  1  0
 18 40  1  0
 18 41  1  0
 19 20  1  0
 19 42  1  0
 19 43  1  0
 20 44  1  0
 20 45  1  0
M  CHG  1  14   1
M  END
