
     RDKit          3D

 49 50  0  0  0  0  0  0  0  0999 V2000
   -4.8131    2.9859   -1.2413 C   0  0  0  0  0  0  0  0  0  0  0  0
   -4.4885    2.5993    0.2078 C   0  0  1  0  0  0  0  0  0  0  0  0
   -4.0550    3.8492    0.9843 C   0  0  0  0  0  0  0  0  0  0  0  0
   -5.7615    2.0476    0.8494 C   0  0  0  0  0  0  0  0  0  0  0  0
   -3.3537    1.5798    0.2097 C   0  0  0  0  0  0  0  0  0  0  0  0
   -2.1117    1.9138   -0.3353 C   0  0  0  0  0  0  0  0  0  0  0  0
   -1.0504    1.0275   -0.3843 C   0  0  0  0  0  0  0  0  0  0  0  0
   -1.1960   -0.2633    0.1536 C   0  0  0  0  0  0  0  0  0  0  0  0
   -2.4278   -0.5939    0.7081 C   0  0  0  0  0  0  0  0  0  0  0  0
   -3.4913    0.3001    0.7312 C   0  0  0  0  0  0  0  0  0  0  0  0
   -2.6476   -2.3188    1.4457 Br  0  0  0  0  0  0  0  0  0  0  0  0
   -0.1989   -1.1513    0.1344 O   0  0  0  0  0  0  0  0  0  0  0  0
    0.2381    1.4077   -1.0673 C   0  0  0  0  0  0  0  0  0  0  0  0
    1.3959    0.8515   -0.3728 N   0  0  0  0  0  0  0  0  0  0  0  0
    2.6329    0.9653   -1.1336 C   0  0  0  0  0  0  0  0  0  0  0  0
    3.8044    0.3587   -0.3815 C   0  0  0  0  0  0  0  0  0  0  0  0
    5.1070    0.4763   -1.1737 C   0  0  0  0  0  0  0  0  0  0  0  0
    6.2757   -0.1070   -0.4305 C   0  0  0  0  0  0  0  0  0  0  0  0
    6.6530   -1.4353   -0.6141 C   0  0  0  0  0  0  0  0  0  0  0  0
    7.7099   -1.9824    0.1022 C   0  0  0  0  0  0  0  0  0  0  0  0
    8.4084   -1.2066    1.0181 C   0  0  0  0  0  0  0  0  0  0  0  0
    8.0408    0.1190    1.2115 C   0  0  0  0  0  0  0  0  0  0  0  0
    6.9838    0.6607    0.4928 C   0  0  0  0  0  0  0  0  0  0  0  0
   -3.9510    3.4169   -1.7519 H   0  0  0  0  0  0  0  0  0  0  0  0
   -5.1400    2.1159   -1.8142 H   0  0  0  0  0  0  0  0  0  0  0  0
   -5.6162    3.7253   -1.2695 H   0  0  0  0  0  0  0  0  0  0  0  0
   -4.8541    4.5935    0.9847 H   0  0  0  0  0  0  0  0  0  0  0  0
   -3.8219    3.6075    2.0227 H   0  0  0  0  0  0  0  0  0  0  0  0
   -3.1725    4.3186    0.5465 H   0  0  0  0  0  0  0  0  0  0  0  0
   -6.1406    1.1753    0.3136 H   0  0  0  0  0  0  0  0  0  0  0  0
   -5.6094    1.7655    1.8931 H   0  0  0  0  0  0  0  0  0  0  0  0
   -6.5429    2.8086    0.8273 H   0  0  0  0  0  0  0  0  0  0  0  0
   -1.9572    2.9031   -0.7526 H   0  0  0  0  0  0  0  0  0  0  0  0
   -4.4277   -0.0178    1.1680 H   0  0  0  0  0  0  0  0  0  0  0  0
    0.2398    0.9954   -2.0812 H   0  0  0  0  0  0  0  0  0  0  0  0
    0.2982    2.4965   -1.1765 H   0  0  0  0  0  0  0  0  0  0  0  0
    0.6358   -0.6218   -0.0534 H   0  0  0  0  0  0  0  0  0  0  0  0
    1.5069    1.3259    0.5178 H   0  0  0  0  0  0  0  0  0  0  0  0
    2.4918    0.4409   -2.0829 H   0  0  0  0  0  0  0  0  0  0  0  0
    2.8540    2.0122   -1.3827 H   0  0  0  0  0  0  0  0  0  0  0  0
    3.9238    0.8597    0.5846 H   0  0  0  0  0  0  0  0  0  0  0  0
    3.5959   -0.6930   -0.1668 H   0  0  0  0  0  0  0  0  0  0  0  0
    4.9901   -0.0278   -2.1369 H   0  0  0  0  0  0  0  0  0  0  0  0
    5.3020    1.5293   -1.3947 H   0  0  0  0  0  0  0  0  0  0  0  0
    6.1174   -2.0494   -1.3292 H   0  0  0  0  0  0  0  0  0  0  0  0
    6.7071    1.6975    0.6482 H   0  0  0  0  0  0  0  0  0  0  0  0
    7.9898   -3.0159   -0.0579 H   0  0  0  0  0  0  0  0  0  0  0  0
    9.2347   -1.6309    1.5739 H   0  0  0  0  0  0  0  0  0  0  0  0
    8.5791    0.7343    1.9212 H   0  0  0  0  0  0  0  0  0  0  0  0
  2  1  1  6
  2  3  1  0
  2  4  1  0
  2  5  1  0
  5  6  2  0
  5 10  1  0
  6  7  1  0
  7  8  2  0
  7 13  1  0
  8  9  1  0
  8 12  1  0
  9 10  2  0
  9 11  1  0
 13 14  1  0
 14 15  1  0
 15 16  1  0
 16 17  1  0
 17 18  1  0
 18 19  2  0
 18 23  1  0
 19 20  1  0
 20 21  2  0
 21 22  1  0
 22 23  2  0
  1 24  1  0
  1 25  1  0
  1 26  1  0
  3 27  1  0
  3 28  1  0
  3 29  1  0
  4 30  1  0
  4 31  1  0
  4 32  1  0
  6 33  1  0
 10 34  1  0
 13 35  1  0
 13 36  1  0
 12 37  1  0
 14 38  1  0
 15 39  1  0
 15 40  1  0
 16 41  1  0
 16 42  1  0
 17 43  1  0
 17 44  1  0
 19 45  1  0
 23 46  1  0
 20 47  1  0
 21 48  1  0
 22 49  1  0
M  END
