
     RDKit          3D

 34 36  0  0  0  0  0  0  0  0999 V2000
    1.6371   -1.1935    0.8076 C   0  0  0  0  0  0  0  0  0  0  0  0
    2.6860   -1.7112   -0.1654 C   0  0  0  0  0  0  0  0  0  0  0  0
    3.9983   -0.9567    0.0235 C   0  0  1  0  0  0  0  0  0  0  0  0
    4.9677   -1.3079   -0.9376 O   0  0  0  0  0  0  0  0  0  0  0  0
    3.7522    0.5395   -0.0739 C   0  0  0  0  0  0  0  0  0  0  0  0
    2.6639    0.9881    0.8941 C   0  0  0  0  0  0  0  0  0  0  0  0
    1.4359    0.2446    0.6449 N   0  0  0  0  0  0  0  0  0  0  0  0
    0.2723    0.8377    0.3761 C   0  0  0  0  0  0  0  0  0  0  0  0
    0.0202    2.4913    0.5337 S   0  0  0  0  0  0  0  0  0  0  0  0
   -0.8358    0.0147   -0.1090 C   0  0  0  0  0  0  0  0  0  0  0  0
   -2.2147    0.0788    0.2931 C   0  0  0  0  0  0  0  0  0  0  0  0
   -2.9175    0.7878    1.2736 C   0  0  0  0  0  0  0  0  0  0  0  0
   -4.2741    0.5702    1.4094 C   0  0  0  0  0  0  0  0  0  0  0  0
   -4.9525   -0.3426    0.5849 C   0  0  0  0  0  0  0  0  0  0  0  0
   -4.2846   -1.0579   -0.3888 C   0  0  0  0  0  0  0  0  0  0  0  0
   -2.9154   -0.8349   -0.5202 C   0  0  0  0  0  0  0  0  0  0  0  0
   -2.0118   -1.3978   -1.3800 N   0  0  0  0  0  0  0  0  0  0  0  0
   -0.7770   -0.9017   -1.1323 C   0  0  0  0  0  0  0  0  0  0  0  0
    0.6991   -1.7275    0.7027 H   0  0  0  0  0  0  0  0  0  0  0  0
    1.9823   -1.3532    1.8346 H   0  0  0  0  0  0  0  0  0  0  0  0
    2.8301   -2.7802    0.0131 H   0  0  0  0  0  0  0  0  0  0  0  0
    2.3372   -1.5943   -1.1964 H   0  0  0  0  0  0  0  0  0  0  0  0
    4.3641   -1.1739    1.0397 H   0  0  0  0  0  0  0  0  0  0  0  0
    5.1658   -2.2446   -0.8399 H   0  0  0  0  0  0  0  0  0  0  0  0
    4.6671    1.0916    0.1527 H   0  0  0  0  0  0  0  0  0  0  0  0
    3.4541    0.7992   -1.0942 H   0  0  0  0  0  0  0  0  0  0  0  0
    2.9717    0.8135    1.9301 H   0  0  0  0  0  0  0  0  0  0  0  0
    2.4659    2.0501    0.7852 H   0  0  0  0  0  0  0  0  0  0  0  0
   -2.4047    1.4984    1.9078 H   0  0  0  0  0  0  0  0  0  0  0  0
   -4.8295    1.1120    2.1640 H   0  0  0  0  0  0  0  0  0  0  0  0
   -6.0165   -0.4894    0.7173 H   0  0  0  0  0  0  0  0  0  0  0  0
   -4.8033   -1.7658   -1.0225 H   0  0  0  0  0  0  0  0  0  0  0  0
   -2.2242   -2.0658   -2.1029 H   0  0  0  0  0  0  0  0  0  0  0  0
    0.0652   -1.2111   -1.7314 H   0  0  0  0  0  0  0  0  0  0  0  0
  4  3  1  0
  3  5  1  0
  3  2  1  0
  5  6  1  0
  2  1  1  0
  6  7  1  0
  1  7  1  0
  7  8  1  0
  9  8  2  0
  8 10  1  0
 10 11  1  0
 10 18  2  0
 12 11  2  0
 12 13  1  0
 11 16  1  0
 18 17  1  0
 13 14  2  0
 16 17  1  0
 16 15  2  0
 14 15  1  0
  1 19  1  0
  1 20  1  0
  2 21  1  0
  2 22  1  0
  3 23  1  1
  4 24  1  0
  5 25  1  0
  5 26  1  0
  6 27  1  0
  6 28  1  0
 12 29  1  0
 13 30  1  0
 14 31  1  0
 15 32  1  0
 17 33  1  0
 18 34  1  0
M  END
