
     RDKit          3D

 30 31  0  0  0  0  0  0  0  0999 V2000
    2.0766   -1.1438    0.3584 N   0  0  0  0  0  0  0  0  0  0  0  0
    0.8569   -1.6771    0.1305 C   0  0  0  0  0  0  0  0  0  0  0  0
    0.7581   -2.9803   -0.1124 N   0  0  0  0  0  0  0  0  0  0  0  0
   -0.2312   -0.7838    0.1693 C   0  0  0  0  0  0  0  0  0  0  0  0
   -1.5744   -1.1031   -0.1252 C   0  0  0  0  0  0  0  0  0  0  0  0
   -2.5978   -0.0106   -0.0678 C   0  0  0  0  0  0  0  0  0  0  0  0
   -3.4795    0.1597   -1.1294 C   0  0  0  0  0  0  0  0  0  0  0  0
   -4.4352    1.1591   -1.0473 C   0  0  0  0  0  0  0  0  0  0  0  0
   -4.5772    1.9547    0.0078 N   0  0  0  0  0  0  0  0  0  0  0  0
   -3.7503    1.7726    1.0288 C   0  0  0  0  0  0  0  0  0  0  0  0
   -2.7446    0.8158    1.0397 C   0  0  0  0  0  0  0  0  0  0  0  0
   -1.9463   -2.2361   -0.4547 O   0  0  0  0  0  0  0  0  0  0  0  0
    0.3947    0.8281    0.5123 S   0  0  0  0  0  0  0  0  0  0  0  0
    1.9953    0.1461    0.5725 C   0  0  0  0  0  0  0  0  0  0  0  0
    3.0483    0.9075    0.8438 N   0  0  0  0  0  0  0  0  0  0  0  0
    4.4089    0.3951    0.8525 C   0  0  0  0  0  0  0  0  0  0  0  0
    4.9983    0.3261   -0.5243 C   0  0  0  0  0  0  0  0  0  0  0  0
    6.0745    1.0050   -0.8993 C   0  0  0  0  0  0  0  0  0  0  0  0
    1.5903   -3.5376   -0.1981 H   0  0  0  0  0  0  0  0  0  0  0  0
   -0.1347   -3.3782   -0.3511 H   0  0  0  0  0  0  0  0  0  0  0  0
   -3.4210   -0.4620   -2.0126 H   0  0  0  0  0  0  0  0  0  0  0  0
   -5.1184    1.3225   -1.8730 H   0  0  0  0  0  0  0  0  0  0  0  0
   -3.8897    2.4170    1.8894 H   0  0  0  0  0  0  0  0  0  0  0  0
   -2.1164    0.7120    1.9149 H   0  0  0  0  0  0  0  0  0  0  0  0
    2.9293    1.9065    0.8952 H   0  0  0  0  0  0  0  0  0  0  0  0
    4.9983    1.0519    1.4911 H   0  0  0  0  0  0  0  0  0  0  0  0
    4.3978   -0.5920    1.3158 H   0  0  0  0  0  0  0  0  0  0  0  0
    4.4919   -0.3255   -1.2296 H   0  0  0  0  0  0  0  0  0  0  0  0
    6.4732    0.9252   -1.9020 H   0  0  0  0  0  0  0  0  0  0  0  0
    6.5979    1.6648   -0.2172 H   0  0  0  0  0  0  0  0  0  0  0  0
  1  2  1  0
  1 14  2  0
  2  3  1  0
  2  4  2  0
  4  5  1  0
  4 13  1  0
  5  6  1  0
  5 12  2  0
  6  7  2  0
  6 11  1  0
  7  8  1  0
  8  9  2  0
  9 10  1  0
 10 11  2  0
 13 14  1  0
 14 15  1  0
 15 16  1  0
 16 17  1  0
 17 18  2  0
  3 19  1  0
  3 20  1  0
  7 21  1  0
  8 22  1  0
 10 23  1  0
 11 24  1  0
 15 25  1  0
 16 26  1  0
 16 27  1  0
 17 28  1  0
 18 29  1  0
 18 30  1  0
M  END
