
     RDKit          3D

 31 32  0  0  0  0  0  0  0  0999 V2000
    3.4900    0.9177    0.7463 C   0  0  0  0  0  0  0  0  0  0  0  0
    4.8672    0.8233    0.6259 C   0  0  0  0  0  0  0  0  0  0  0  0
    5.4350   -0.1854   -0.1431 C   0  0  0  0  0  0  0  0  0  0  0  0
    4.6178   -1.1011   -0.7943 C   0  0  0  0  0  0  0  0  0  0  0  0
    3.2393   -1.0117   -0.6809 C   0  0  0  0  0  0  0  0  0  0  0  0
    2.6618   -0.0003    0.0926 C   0  0  0  0  0  0  0  0  0  0  0  0
    1.2441    0.0944    0.2174 C   0  0  0  0  0  0  0  0  0  0  0  0
    0.0454    0.1712    0.3272 C   0  0  0  0  0  0  0  0  0  0  0  0
   -1.3991    0.2755    0.4734 C   0  0  2  0  0  0  0  0  0  0  0  0
   -2.0553   -1.0107    0.7222 N   0  0  0  0  0  0  0  0  0  0  0  0
   -3.1843   -1.1633   -0.2101 C   0  0  1  0  0  0  0  0  0  0  0  0
   -4.3410   -1.9124    0.4240 C   0  0  0  0  0  0  0  0  0  0  0  0
   -3.4938    0.2610   -0.6529 C   0  0  1  0  0  0  0  0  0  0  0  0
   -4.2227    0.9219    0.3522 O   0  0  0  0  0  0  0  0  0  0  0  0
   -2.0897    0.8350   -0.7931 C   0  0  1  0  0  0  0  0  0  0  0  0
   -2.1118    2.2284   -0.8805 O   0  0  0  0  0  0  0  0  0  0  0  0
    3.0489    1.7030    1.3459 H   0  0  0  0  0  0  0  0  0  0  0  0
    5.4990    1.5392    1.1350 H   0  0  0  0  0  0  0  0  0  0  0  0
    6.5108   -0.2573   -0.2351 H   0  0  0  0  0  0  0  0  0  0  0  0
    5.0559   -1.8888   -1.3930 H   0  0  0  0  0  0  0  0  0  0  0  0
    2.6043   -1.7259   -1.1886 H   0  0  0  0  0  0  0  0  0  0  0  0
   -1.5984    0.9695    1.3002 H   0  0  0  0  0  0  0  0  0  0  0  0
   -1.4091   -1.7822    0.6380 H   0  0  0  0  0  0  0  0  0  0  0  0
   -2.8782   -1.7059   -1.1145 H   0  0  0  0  0  0  0  0  0  0  0  0
   -4.6771   -1.4226    1.3364 H   0  0  0  0  0  0  0  0  0  0  0  0
   -5.1846   -1.9838   -0.2642 H   0  0  0  0  0  0  0  0  0  0  0  0
   -4.0378   -2.9287    0.6784 H   0  0  0  0  0  0  0  0  0  0  0  0
   -4.0337    0.2666   -1.6090 H   0  0  0  0  0  0  0  0  0  0  0  0
   -4.2730    1.8559    0.1237 H   0  0  0  0  0  0  0  0  0  0  0  0
   -1.6227    0.3806   -1.6771 H   0  0  0  0  0  0  0  0  0  0  0  0
   -1.2263    2.5465   -1.0815 H   0  0  0  0  0  0  0  0  0  0  0  0
 14 13  1  0
 16 15  1  0
 13 15  1  0
 13 11  1  0
 12 11  1  0
 15  9  1  0
  9 10  1  0
  9  8  1  0
 11 10  1  0
  8  7  3  0
  7  6  1  0
  1  6  2  0
  1  2  1  0
  6  5  1  0
  2  3  2  0
  5  4  2  0
  3  4  1  0
  1 17  1  0
  2 18  1  0
  3 19  1  0
  4 20  1  0
  5 21  1  0
  9 22  1  1
 10 23  1  0
 11 24  1  6
 12 25  1  0
 12 26  1  0
 12 27  1  0
 13 28  1  6
 14 29  1  0
 15 30  1  6
 16 31  1  0
M  END
