
     RDKit          3D

 33 34  0  0  0  0  0  0  0  0999 V2000
   -4.5273    0.2599    0.0217 N   0  0  0  0  0  0  0  0  0  0  0  0
    0.4032    0.3368   -0.3182 N   0  0  0  0  0  0  0  0  0  0  0  0
   -2.7711   -1.4386    0.1127 C   0  0  0  0  0  0  0  0  0  0  0  0
   -3.9574   -0.8078    0.8186 C   0  0  0  0  0  0  0  0  0  0  0  0
    1.7948    0.2489   -0.1947 C   0  0  0  0  0  0  0  0  0  0  0  0
    2.4864    1.3340    0.3404 C   0  0  0  0  0  0  0  0  0  0  0  0
    4.5579    0.2146   -0.0074 C   0  0  0  0  0  0  0  0  0  0  0  0
   -5.7066    0.8198    0.6410 C   0  0  0  0  0  0  0  0  0  0  0  0
   -3.5298    1.2743   -0.2478 C   0  0  0  0  0  0  0  0  0  0  0  0
   -2.3406    0.6734   -0.9745 C   0  0  0  0  0  0  0  0  0  0  0  0
   -1.7824   -0.4236   -0.2027 N   0  0  0  0  0  0  0  0  0  0  0  0
   -0.0567   -1.7804    0.3649 O   0  0  0  0  0  0  0  0  0  0  0  0
    3.8704    1.3274    0.4298 C   0  0  0  0  0  0  0  0  0  0  0  0
    3.9011   -0.8763   -0.5430 C   0  0  0  0  0  0  0  0  0  0  0  0
    2.5187   -0.8551   -0.6454 C   0  0  0  0  0  0  0  0  0  0  0  0
    5.8994    0.1910    0.0864 F   0  0  0  0  0  0  0  0  0  0  0  0
    0.0407    1.2759   -0.2986 H   0  0  0  0  0  0  0  0  0  0  0  0
   -2.3296   -2.2007    0.7483 H   0  0  0  0  0  0  0  0  0  0  0  0
   -3.1098   -1.9259   -0.8095 H   0  0  0  0  0  0  0  0  0  0  0  0
   -3.6366   -0.4491    1.8122 H   0  0  0  0  0  0  0  0  0  0  0  0
   -4.7161   -1.5771    0.9808 H   0  0  0  0  0  0  0  0  0  0  0  0
    1.9396    2.1987    0.6961 H   0  0  0  0  0  0  0  0  0  0  0  0
   -6.1272    1.5991    0.0040 H   0  0  0  0  0  0  0  0  0  0  0  0
   -6.4652    0.0460    0.7670 H   0  0  0  0  0  0  0  0  0  0  0  0
   -5.5104    1.2628    1.6296 H   0  0  0  0  0  0  0  0  0  0  0  0
   -3.9678    2.0517   -0.8780 H   0  0  0  0  0  0  0  0  0  0  0  0
   -3.1772    1.7619    0.6782 H   0  0  0  0  0  0  0  0  0  0  0  0
   -2.6633    0.2969   -1.9520 H   0  0  0  0  0  0  0  0  0  0  0  0
   -1.6110    1.4561   -1.1635 H   0  0  0  0  0  0  0  0  0  0  0  0
    4.3969    2.1763    0.8456 H   0  0  0  0  0  0  0  0  0  0  0  0
    4.4593   -1.7348   -0.8931 H   0  0  0  0  0  0  0  0  0  0  0  0
    2.0154   -1.7000   -1.0897 H   0  0  0  0  0  0  0  0  0  0  0  0
   -0.4614   -0.6959   -0.0304 C   0  0  0  0  0  0  0  0  0  0  0  0
 16  7  1  0
 14  7  2  0
 14 15  1  0
  7 13  1  0
 15  5  2  0
 13  6  2  0
  5  6  1  0
  5  2  1  0
  2 33  1  0
  3  4  1  0
  3 11  1  0
  4  1  1  0
 33 11  1  0
 33 12  2  0
 11 10  1  0
 10  9  1  0
  1  8  1  0
  1  9  1  0
  2 17  1  0
  3 18  1  0
  3 19  1  0
  4 20  1  0
  4 21  1  0
  6 22  1  0
  8 23  1  0
  8 24  1  0
  8 25  1  0
  9 26  1  0
  9 27  1  0
 10 28  1  0
 10 29  1  0
 13 30  1  0
 14 31  1  0
 15 32  1  0
M  END
