
     RDKit          3D

 33 34  0  0  0  0  0  0  0  0999 V2000
   -3.6303   -0.2262    1.5402 N   0  0  0  0  0  0  0  0  0  0  0  0
   -1.5712   -0.1825   -0.6660 C   0  0  0  0  0  0  0  0  0  0  0  0
   -0.4146    0.5822   -0.5695 C   0  0  0  0  0  0  0  0  0  0  0  0
   -1.4604   -1.5645   -0.6010 C   0  0  0  0  0  0  0  0  0  0  0  0
   -0.2175   -2.1611   -0.4598 C   0  0  0  0  0  0  0  0  0  0  0  0
    0.9344   -1.3875   -0.3724 C   0  0  0  0  0  0  0  0  0  0  0  0
    2.0283    0.8828   -0.3508 C   0  0  0  0  0  0  0  0  0  0  0  0
    4.1287    2.6124   -0.3346 C   0  0  0  0  0  0  0  0  0  0  0  0
   -4.8177    1.5420    0.4023 C   0  0  0  0  0  0  0  0  0  0  0  0
   -5.8833    1.0436    0.6583 O   0  0  0  0  0  0  0  0  0  0  0  0
   -3.4782    0.8619    0.6068 C   0  0  2  0  0  0  0  0  0  0  0  0
   -2.9126    0.4754   -0.7859 C   0  0  0  0  0  0  0  0  0  0  0  0
   -0.1203   -3.8806   -0.4098 Cl  0  0  0  0  0  0  0  0  0  0  0  0
    2.4705   -2.1574   -0.2590 Cl  0  0  0  0  0  0  0  0  0  0  0  0
    0.8420    0.0049   -0.4210 C   0  0  0  0  0  0  0  0  0  0  0  0
    2.8846    0.8808    0.7447 C   0  0  0  0  0  0  0  0  0  0  0  0
    2.2867    1.7750   -1.3862 C   0  0  0  0  0  0  0  0  0  0  0  0
    3.3118    2.6163   -1.3732 N   0  0  0  0  0  0  0  0  0  0  0  0
    3.9593    1.7577    0.7564 C   0  0  0  0  0  0  0  0  0  0  0  0
    4.8468    1.8368    1.7602 O   0  0  0  0  0  0  0  0  0  0  0  0
   -4.1444   -0.9942    1.1256 H   0  0  0  0  0  0  0  0  0  0  0  0
   -2.7217   -0.5862    1.7994 H   0  0  0  0  0  0  0  0  0  0  0  0
   -0.4872    1.6627   -0.6044 H   0  0  0  0  0  0  0  0  0  0  0  0
   -2.3425   -2.1865   -0.6791 H   0  0  0  0  0  0  0  0  0  0  0  0
    4.9604    3.3093   -0.3474 H   0  0  0  0  0  0  0  0  0  0  0  0
   -5.5514    3.1403   -0.3000 H   0  0  0  0  0  0  0  0  0  0  0  0
   -2.7974    1.5934    1.0527 H   0  0  0  0  0  0  0  0  0  0  0  0
   -2.8293    1.3661   -1.4107 H   0  0  0  0  0  0  0  0  0  0  0  0
   -3.6141   -0.2013   -1.2808 H   0  0  0  0  0  0  0  0  0  0  0  0
    2.7086    0.2135    1.5808 H   0  0  0  0  0  0  0  0  0  0  0  0
    1.6427    1.7987   -2.2584 H   0  0  0  0  0  0  0  0  0  0  0  0
    4.6427    1.1946    2.4497 H   0  0  0  0  0  0  0  0  0  0  0  0
   -4.6810    2.7488   -0.1329 O   0  0  0  0  0  0  0  0  0  0  0  0
 10  9  2  0
 33  9  1  0
  9 11  1  0
 11 12  1  0
 11  1  1  0
 12  2  1  0
  2  4  2  0
  2  3  1  0
  4  5  1  0
  3 15  2  0
  5 13  1  0
  5  6  2  0
 15  6  1  0
 15  7  1  0
  6 14  1  0
  7 17  2  0
  7 16  1  0
 17 18  1  0
 16 19  2  0
 18  8  2  0
 19  8  1  0
 19 20  1  0
  1 21  1  0
  1 22  1  0
  3 23  1  0
  4 24  1  0
  8 25  1  0
 33 26  1  0
 11 27  1  1
 12 28  1  0
 12 29  1  0
 16 30  1  0
 17 31  1  0
 20 32  1  0
M  END
