
     RDKit          3D

 33 33  0  0  0  0  0  0  0  0999 V2000
   -4.6720   -0.8484   -1.3665 C   0  0  0  0  0  0  0  0  0  0  0  0
   -3.2797   -0.6772   -1.4819 O   0  0  0  0  0  0  0  0  0  0  0  0
   -2.6297   -0.4748   -0.2607 C   0  0  0  0  0  0  0  0  0  0  0  0
   -1.1466   -0.5358   -0.4688 C   0  0  1  0  0  0  0  0  0  0  0  0
   -0.7560    0.5211   -1.4164 O   0  0  0  0  0  0  0  0  0  0  0  0
    0.7178    0.6292   -1.5586 C   0  0  1  0  0  0  0  0  0  0  0  0
    1.0091    1.7139   -2.3388 O   0  0  0  0  0  0  0  0  0  0  0  0
    1.4172    0.7873   -0.2059 C   0  0  2  0  0  0  0  0  0  0  0  0
    2.8501    0.7310   -0.4088 O   0  0  0  0  0  0  0  0  0  0  0  0
    3.4902    2.0078   -0.3783 C   0  0  0  0  0  0  0  0  0  0  0  0
    1.0260   -0.2752    0.7500 C   0  0  1  0  0  0  0  0  0  0  0  0
    1.6041    0.0306    2.0577 O   0  0  0  0  0  0  0  0  0  0  0  0
    2.3762   -1.0058    2.5912 C   0  0  0  0  0  0  0  0  0  0  0  0
   -0.4462   -0.3817    0.8911 C   0  0  2  0  0  0  0  0  0  0  0  0
   -0.7497   -1.5202    1.6962 O   0  0  0  0  0  0  0  0  0  0  0  0
   -5.0991   -1.0104   -2.3508 H   0  0  0  0  0  0  0  0  0  0  0  0
   -4.8811   -1.7125   -0.7321 H   0  0  0  0  0  0  0  0  0  0  0  0
   -5.1128    0.0454   -0.9211 H   0  0  0  0  0  0  0  0  0  0  0  0
   -2.9287   -1.2453    0.4398 H   0  0  0  0  0  0  0  0  0  0  0  0
   -2.8988    0.4958    0.1343 H   0  0  0  0  0  0  0  0  0  0  0  0
   -0.8829   -1.5059   -0.8936 H   0  0  0  0  0  0  0  0  0  0  0  0
    1.0883   -0.2641   -2.0399 H   0  0  0  0  0  0  0  0  0  0  0  0
    0.7559    1.5352   -3.2367 H   0  0  0  0  0  0  0  0  0  0  0  0
    1.1538    1.7490    0.2134 H   0  0  0  0  0  0  0  0  0  0  0  0
    3.5369    2.4148   -1.3881 H   0  0  0  0  0  0  0  0  0  0  0  0
    4.5075    1.8975    0.0191 H   0  0  0  0  0  0  0  0  0  0  0  0
    2.9192    2.6876    0.2636 H   0  0  0  0  0  0  0  0  0  0  0  0
    1.4161   -1.2285    0.3980 H   0  0  0  0  0  0  0  0  0  0  0  0
    3.0928   -1.3421    1.8494 H   0  0  0  0  0  0  0  0  0  0  0  0
    1.7303   -1.8310    2.8700 H   0  0  0  0  0  0  0  0  0  0  0  0
    2.9030   -0.6491    3.4659 H   0  0  0  0  0  0  0  0  0  0  0  0
   -0.8199    0.5178    1.3823 H   0  0  0  0  0  0  0  0  0  0  0  0
   -1.2910   -1.2562    2.4250 H   0  0  0  0  0  0  0  0  0  0  0  0
  1  2  1  0
  1 16  1  0
  1 17  1  0
  1 18  1  0
  2  3  1  0
  3  4  1  0
  3 19  1  0
  3 20  1  0
  4  5  1  0
  4 14  1  0
  4 21  1  6
  5  6  1  0
  6  7  1  0
  6  8  1  0
  6 22  1  6
  7 23  1  0
  8  9  1  0
  8 11  1  0
  8 24  1  1
  9 10  1  0
 10 25  1  0
 10 26  1  0
 10 27  1  0
 11 12  1  0
 11 14  1  0
 11 28  1  6
 12 13  1  0
 13 29  1  0
 13 30  1  0
 13 31  1  0
 14 15  1  0
 14 32  1  1
 15 33  1  0
M  END
