
     RDKit          3D

 23 23  0  0  0  0  0  0  0  0999 V2000
   -0.7660    1.5024   -1.3798 N   0  0  0  0  0  0  0  0  0  0  0  0
    0.1351    0.3845   -1.5331 C   0  0  2  0  0  0  0  0  0  0  0  0
   -0.0536   -0.2276   -2.9148 C   0  0  0  0  0  0  0  0  0  0  0  0
   -1.0673   -0.7208   -3.4143 O   0  0  0  0  0  0  0  0  0  0  0  0
   -0.0220   -0.7709   -0.5256 C   0  0  0  0  0  0  0  0  0  0  0  0
    0.1063   -0.3311    0.8764 C   0  0  0  0  0  0  0  0  0  0  0  0
    0.9632    0.6844    1.3236 N   0  0  0  0  0  0  0  0  0  0  0  0
   -0.6096   -0.8629    1.9711 C   0  0  0  0  0  0  0  0  0  0  0  0
    0.7732    0.7677    2.6556 C   0  0  0  0  0  0  0  0  0  0  0  0
   -0.1818   -0.1609    3.0993 N   0  0  0  0  0  0  0  0  0  0  0  0
   -0.6321   -0.3556    4.4361 C   0  0  0  0  0  0  0  0  0  0  0  0
    1.0725   -0.2117   -3.6772 O   0  0  0  0  0  0  0  0  0  0  0  0
   -0.4377    2.1179   -0.6632 H   0  0  0  0  0  0  0  0  0  0  0  0
   -1.6930    1.1913   -1.1657 H   0  0  0  0  0  0  0  0  0  0  0  0
    1.1924    0.7830   -1.4643 H   0  0  0  0  0  0  0  0  0  0  0  0
    0.7699   -1.5377   -0.7451 H   0  0  0  0  0  0  0  0  0  0  0  0
   -1.0230   -1.2618   -0.6685 H   0  0  0  0  0  0  0  0  0  0  0  0
   -1.3561   -1.6530    2.0198 H   0  0  0  0  0  0  0  0  0  0  0  0
    1.2838    1.4611    3.3321 H   0  0  0  0  0  0  0  0  0  0  0  0
   -1.6703    0.0562    4.5615 H   0  0  0  0  0  0  0  0  0  0  0  0
   -0.6467   -1.4518    4.6798 H   0  0  0  0  0  0  0  0  0  0  0  0
    0.0578    0.1710    5.1472 H   0  0  0  0  0  0  0  0  0  0  0  0
    0.8881   -0.6137   -4.5417 H   0  0  0  0  0  0  0  0  0  0  0  0
  1  2  1  0
  1 13  1  0
  1 14  1  0
  2  3  1  0
  2  5  1  0
  2 15  1  6
  3  4  2  0
  3 12  1  0
  5  6  1  0
  5 16  1  0
  5 17  1  0
  6  7  1  0
  6  8  2  0
  7  9  2  0
  8 10  1  0
  8 18  1  0
  9 10  1  0
  9 19  1  0
 10 11  1  0
 11 20  1  0
 11 21  1  0
 11 22  1  0
 12 23  1  0
M  END
