
     RDKit          3D

 58 59  0  0  0  0  0  0  0  0999 V2000
   -0.6180   -0.3544    0.2478 C   0  0  1  0  0  0  0  0  0  0  0  0
    2.1335   -2.6793    0.8940 O   0  0  0  0  0  0  0  0  0  0  0  0
   -1.3757   -1.5476    0.9113 C   0  0  2  0  0  0  0  0  0  0  0  0
    3.8833    2.2061    0.8425 O   0  0  0  0  0  0  0  0  0  0  0  0
    0.8432   -0.8032    0.0976 C   0  0  2  0  0  0  0  0  0  0  0  0
   -0.3498   -2.6769    0.9820 C   0  0  0  0  0  0  0  0  0  0  0  0
    0.9717   -1.9273    1.1322 C   0  0  1  0  0  0  0  0  0  0  0  0
   -1.3789   -0.0491   -1.0465 C   0  0  0  0  0  0  0  0  0  0  0  0
   -2.6347   -1.7918    0.0644 C   0  0  0  0  0  0  0  0  0  0  0  0
   -2.7730   -0.5484   -0.7765 C   0  0  0  0  0  0  0  0  0  0  0  0
    1.8616    0.2712    0.2796 C   0  0  0  0  0  0  0  0  0  0  0  0
   -3.8952    0.0454   -1.1761 C   0  0  0  0  0  0  0  0  0  0  0  0
    2.9207    0.4274   -0.5066 C   0  0  0  0  0  0  0  0  0  0  0  0
   -5.2933   -0.4217   -0.9155 C   0  0  0  0  0  0  0  0  0  0  0  0
    4.0387    1.4083   -0.3072 C   0  0  2  0  0  0  0  0  0  0  0  0
   -6.1458    0.6496   -0.2355 C   0  0  0  0  0  0  0  0  0  0  0  0
    5.3933    0.6730   -0.3389 C   0  0  1  0  0  0  0  0  0  0  0  0
   -7.5626    0.1562    0.0068 C   0  0  0  0  0  0  0  0  0  0  0  0
    6.5442    1.6894   -0.3085 C   0  0  0  0  0  0  0  0  0  0  0  0
    5.5163   -0.3632    0.7728 C   0  0  0  0  0  0  0  0  0  0  0  0
   -8.4641    1.1758    0.6439 C   0  0  0  0  0  0  0  0  0  0  0  0
    7.8542    1.0789   -0.5072 C   0  0  0  0  0  0  0  0  0  0  0  0
    8.9306    0.5664   -0.6788 C   0  0  0  0  0  0  0  0  0  0  0  0
   10.2348   -0.0480   -0.8850 C   0  0  0  0  0  0  0  0  0  0  0  0
   -0.6682    0.5183    0.9055 H   0  0  0  0  0  0  0  0  0  0  0  0
    2.2349   -3.3159    1.6077 H   0  0  0  0  0  0  0  0  0  0  0  0
   -1.6678   -1.2659    1.9254 H   0  0  0  0  0  0  0  0  0  0  0  0
    0.9837   -1.2599   -0.8907 H   0  0  0  0  0  0  0  0  0  0  0  0
  -10.2473    1.3774    1.2480 H   0  0  0  0  0  0  0  0  0  0  0  0
   -0.5364   -3.3852    1.7925 H   0  0  0  0  0  0  0  0  0  0  0  0
   -0.3367   -3.2448    0.0450 H   0  0  0  0  0  0  0  0  0  0  0  0
    1.0000   -1.4727    2.1358 H   0  0  0  0  0  0  0  0  0  0  0  0
   -1.3466    1.0024   -1.3349 H   0  0  0  0  0  0  0  0  0  0  0  0
   -0.9474   -0.6218   -1.8763 H   0  0  0  0  0  0  0  0  0  0  0  0
   -2.4921   -2.6603   -0.5892 H   0  0  0  0  0  0  0  0  0  0  0  0
   -3.5156   -2.0016    0.6719 H   0  0  0  0  0  0  0  0  0  0  0  0
    1.7208    0.9207    1.1413 H   0  0  0  0  0  0  0  0  0  0  0  0
   -3.8079    0.9640   -1.7536 H   0  0  0  0  0  0  0  0  0  0  0  0
    3.0394   -0.2328   -1.3626 H   0  0  0  0  0  0  0  0  0  0  0  0
   -5.7679   -0.6994   -1.8639 H   0  0  0  0  0  0  0  0  0  0  0  0
   -5.2891   -1.3288   -0.3057 H   0  0  0  0  0  0  0  0  0  0  0  0
    4.0330    2.1118   -1.1496 H   0  0  0  0  0  0  0  0  0  0  0  0
   -5.6798    0.9337    0.7110 H   0  0  0  0  0  0  0  0  0  0  0  0
   -6.1647    1.5481   -0.8579 H   0  0  0  0  0  0  0  0  0  0  0  0
    5.4360    0.1508   -1.3011 H   0  0  0  0  0  0  0  0  0  0  0  0
   -8.0244   -0.1633   -0.9332 H   0  0  0  0  0  0  0  0  0  0  0  0
   -7.5547   -0.7341    0.6440 H   0  0  0  0  0  0  0  0  0  0  0  0
    6.3832    2.4409   -1.0877 H   0  0  0  0  0  0  0  0  0  0  0  0
    6.5363    2.2291    0.6425 H   0  0  0  0  0  0  0  0  0  0  0  0
    4.6891   -1.0733    0.7465 H   0  0  0  0  0  0  0  0  0  0  0  0
    6.4439   -0.9275    0.6771 H   0  0  0  0  0  0  0  0  0  0  0  0
    5.5290    0.1017    1.7620 H   0  0  0  0  0  0  0  0  0  0  0  0
   11.0371    0.6775   -0.7477 H   0  0  0  0  0  0  0  0  0  0  0  0
   10.4032   -0.8638   -0.1814 H   0  0  0  0  0  0  0  0  0  0  0  0
   10.3249   -0.4550   -1.8925 H   0  0  0  0  0  0  0  0  0  0  0  0
    3.8269    1.6299    1.6128 H   0  0  0  0  0  0  0  0  0  0  0  0
   -9.6905    0.6977    0.8401 O   0  0  0  0  0  0  0  0  0  0  0  0
   -8.1433    2.2974    0.9501 O   0  0  0  0  0  0  0  0  0  0  0  0
  3  1  1  0
  5  1  1  0
  1  8  1  0
  1 25  1  1
  2  7  1  0
  2 26  1  0
  6  3  1  0
  9  3  1  0
  3 27  1  1
  4 15  1  0
  4 56  1  0
  7  5  1  0
  5 11  1  0
  5 28  1  6
 57 21  1  0
 57 29  1  0
  6  7  1  0
  6 30  1  0
  6 31  1  0
 58 21  2  0
  7 32  1  1
 10  8  1  0
  8 33  1  0
  8 34  1  0
  9 10  1  0
  9 35  1  0
  9 36  1  0
 10 12  2  0
 11 13  2  0
 11 37  1  0
 14 12  1  0
 12 38  1  0
 13 15  1  0
 13 39  1  0
 14 16  1  0
 14 40  1  0
 14 41  1  0
 15 17  1  0
 15 42  1  6
 18 16  1  0
 16 43  1  0
 16 44  1  0
 17 20  1  0
 17 19  1  0
 17 45  1  6
 21 18  1  0
 18 46  1  0
 18 47  1  0
 19 22  1  0
 19 48  1  0
 19 49  1  0
 20 50  1  0
 20 51  1  0
 20 52  1  0
 22 23  3  0
 23 24  1  0
 24 53  1  0
 24 54  1  0
 24 55  1  0
M  END
