
     RDKit          3D

 45 49  0  0  0  0  0  0  0  0999 V2000
   -4.9654   -2.4833   -0.0066 C   0  0  0  0  0  0  0  0  0  0  0  0
    2.0794    1.0498   -0.1399 C   0  0  0  0  0  0  0  0  0  0  0  0
   -5.8839   -2.6026   -1.0152 C   0  0  0  0  0  0  0  0  0  0  0  0
   -5.9581   -1.6326   -2.0365 C   0  0  0  0  0  0  0  0  0  0  0  0
   -1.4427    1.9887    0.0394 C   0  0  0  0  0  0  0  0  0  0  0  0
   -5.1093   -0.5592   -2.0260 C   0  0  0  0  0  0  0  0  0  0  0  0
   -4.1523   -0.4111   -0.9961 C   0  0  0  0  0  0  0  0  0  0  0  0
   -3.2568    0.6792   -0.9597 C   0  0  0  0  0  0  0  0  0  0  0  0
   -2.3239    0.8207    0.0362 C   0  0  0  0  0  0  0  0  0  0  0  0
   -0.0713    2.1436    0.1666 C   0  0  0  0  0  0  0  0  0  0  0  0
    0.1591    3.5183   -0.0231 C   0  0  0  0  0  0  0  0  0  0  0  0
   -1.9145    3.2317   -0.1995 N   0  0  0  0  0  0  0  0  0  0  0  0
    0.8469    1.1297    0.4232 N   0  0  0  0  0  0  0  0  0  0  0  0
   -4.0750   -1.3854    0.0283 C   0  0  0  0  0  0  0  0  0  0  0  0
    3.5512   -2.0148    1.3142 N   0  0  0  0  0  0  0  0  0  0  0  0
    2.5001    1.8847   -0.9251 O   0  0  0  0  0  0  0  0  0  0  0  0
    2.8710   -0.1128    0.2681 C   0  0  0  0  0  0  0  0  0  0  0  0
    4.1331   -0.4549   -0.2238 C   0  0  0  0  0  0  0  0  0  0  0  0
    4.9444    0.0944   -1.1332 N   0  0  0  0  0  0  0  0  0  0  0  0
    6.0840   -0.5062   -1.3565 C   0  0  0  0  0  0  0  0  0  0  0  0
    6.4948   -1.6866   -0.6977 C   0  0  0  0  0  0  0  0  0  0  0  0
    5.6578   -2.2350    0.2214 C   0  0  0  0  0  0  0  0  0  0  0  0
    4.4833   -1.6097    0.4468 N   0  0  0  0  0  0  0  0  0  0  0  0
    2.5900   -1.1208    1.2051 C   0  0  0  0  0  0  0  0  0  0  0  0
   -0.9737    4.1588   -0.2432 N   0  0  0  0  0  0  0  0  0  0  0  0
   -2.2591   -0.1667    1.0649 C   0  0  0  0  0  0  0  0  0  0  0  0
   -1.3269    0.0528    2.0123 O   0  0  0  0  0  0  0  0  0  0  0  0
   -1.2463   -0.8420    3.1097 C   0  0  0  0  0  0  0  0  0  0  0  0
   -3.1121   -1.2389    1.0539 C   0  0  0  0  0  0  0  0  0  0  0  0
   -4.9105   -3.2307    0.7753 H   0  0  0  0  0  0  0  0  0  0  0  0
   -6.5591   -3.4481   -1.0319 H   0  0  0  0  0  0  0  0  0  0  0  0
   -6.6882   -1.7418   -2.8274 H   0  0  0  0  0  0  0  0  0  0  0  0
   -5.1618    0.1885   -2.8081 H   0  0  0  0  0  0  0  0  0  0  0  0
   -3.3040    1.4116   -1.7569 H   0  0  0  0  0  0  0  0  0  0  0  0
    1.0972    4.0487   -0.0130 H   0  0  0  0  0  0  0  0  0  0  0  0
   -2.8830    3.4955   -0.2959 H   0  0  0  0  0  0  0  0  0  0  0  0
    0.5291    0.4007    1.0414 H   0  0  0  0  0  0  0  0  0  0  0  0
    6.7361   -0.0554   -2.0951 H   0  0  0  0  0  0  0  0  0  0  0  0
    7.4466   -2.1445   -0.9168 H   0  0  0  0  0  0  0  0  0  0  0  0
    5.8545   -3.1336    0.7874 H   0  0  0  0  0  0  0  0  0  0  0  0
    1.7126   -1.2351    1.8255 H   0  0  0  0  0  0  0  0  0  0  0  0
   -0.4565   -0.4649    3.7540 H   0  0  0  0  0  0  0  0  0  0  0  0
   -2.1813   -0.8678    3.6733 H   0  0  0  0  0  0  0  0  0  0  0  0
   -0.9947   -1.8552    2.7882 H   0  0  0  0  0  0  0  0  0  0  0  0
   -3.0753   -1.9913    1.8306 H   0  0  0  0  0  0  0  0  0  0  0  0
 15 24  2  0
 15 23  1  0
 24 17  1  0
 22 23  1  0
 22 21  2  0
 23 18  1  0
 21 20  1  0
 17 18  2  0
 17  2  1  0
 18 19  1  0
 16  2  2  0
  2 13  1  0
 20 19  2  0
 13 10  1  0
 11 10  1  0
 11 25  2  0
 10  5  2  0
 28 27  1  0
 27 26  1  0
 25 12  1  0
  5  9  1  0
  5 12  1  0
 26  9  1  0
 26 29  2  0
  9  8  2  0
 29 14  1  0
  8  7  1  0
 14  7  1  0
 14  1  2  0
  7  6  2  0
  1  3  1  0
  6  4  1  0
  3  4  2  0
  1 30  1  0
  3 31  1  0
  4 32  1  0
  6 33  1  0
  8 34  1  0
 11 35  1  0
 12 36  1  0
 13 37  1  0
 20 38  1  0
 21 39  1  0
 22 40  1  0
 24 41  1  0
 28 42  1  0
 28 43  1  0
 28 44  1  0
 29 45  1  0
M  END
