
     RDKit          3D

 50 53  0  0  0  0  0  0  0  0999 V2000
   -2.5676    0.5910    0.5562 C   0  0  0  0  0  0  0  0  0  0  0  0
   -0.1551    0.7015    1.0523 N   0  0  0  0  0  0  0  0  0  0  0  0
   -1.0868   -1.9128    1.7920 O   0  0  0  0  0  0  0  0  0  0  0  0
   -3.5967   -0.2512    0.9428 C   0  0  0  0  0  0  0  0  0  0  0  0
    3.5215   -3.4557   -0.4366 N   0  0  0  0  0  0  0  0  0  0  0  0
    2.2363   -2.7952    1.3036 O   0  0  0  0  0  0  0  0  0  0  0  0
   -4.5850   -0.6024    0.0347 C   0  0  0  0  0  0  0  0  0  0  0  0
   -5.6503   -1.4923    0.4621 N   0  0  0  0  0  0  0  0  0  0  0  0
   -0.4124   -2.6101   -0.2230 O   0  0  0  0  0  0  0  0  0  0  0  0
   -4.5756   -0.1332   -1.2703 C   0  0  0  0  0  0  0  0  0  0  0  0
   -5.6360   -1.8888    1.6037 O   0  0  0  0  0  0  0  0  0  0  0  0
   -3.5580    0.7146   -1.6656 C   0  0  0  0  0  0  0  0  0  0  0  0
   -6.4972   -1.7918   -0.3460 O   0  0  0  0  0  0  0  0  0  0  0  0
   -2.5831    1.0635   -0.7506 C   0  0  0  0  0  0  0  0  0  0  0  0
    2.3880   -1.3745   -0.6042 C   0  0  0  0  0  0  0  0  0  0  0  0
    3.0090    1.7857   -0.1977 C   0  0  0  0  0  0  0  0  0  0  0  0
    3.0469    3.1337    0.0944 C   0  0  0  0  0  0  0  0  0  0  0  0
    1.8723    1.0361    0.1329 C   0  0  0  0  0  0  0  0  0  0  0  0
    0.7915    1.6550    0.7856 C   0  0  0  0  0  0  0  0  0  0  0  0
    0.2965   -0.5016    0.5538 C   0  0  0  0  0  0  0  0  0  0  0  0
    1.5317   -0.3423   -0.0234 C   0  0  0  0  0  0  0  0  0  0  0  0
    1.9341    3.7325    0.7243 C   0  0  0  0  0  0  0  0  0  0  0  0
    0.8092    3.0203    1.0778 C   0  0  0  0  0  0  0  0  0  0  0  0
   -0.4310   -1.7766    0.6472 C   0  0  0  0  0  0  0  0  0  0  0  0
   -1.4922    0.9906    1.5321 C   0  0  0  0  0  0  0  0  0  0  0  0
    2.6744   -2.5609    0.1811 C   0  0  0  0  0  0  0  0  0  0  0  0
    4.0819   -3.2996   -1.6570 C   0  0  0  0  0  0  0  0  0  0  0  0
    3.8277   -2.1871   -2.3884 C   0  0  0  0  0  0  0  0  0  0  0  0
    2.9621   -1.2173   -1.8345 C   0  0  0  0  0  0  0  0  0  0  0  0
    4.2353    3.9799   -0.2745 C   0  0  0  0  0  0  0  0  0  0  0  0
    4.0049    4.7811   -1.5542 C   0  0  0  0  0  0  0  0  0  0  0  0
   -1.5671   -2.7552    1.8033 H   0  0  0  0  0  0  0  0  0  0  0  0
   -3.6168   -0.6249    1.9565 H   0  0  0  0  0  0  0  0  0  0  0  0
    3.7415   -4.2937    0.0853 H   0  0  0  0  0  0  0  0  0  0  0  0
   -5.3422   -0.4130   -1.9775 H   0  0  0  0  0  0  0  0  0  0  0  0
   -3.5251    1.1060   -2.6731 H   0  0  0  0  0  0  0  0  0  0  0  0
   -1.6159    1.8939   -1.1367 F   0  0  0  0  0  0  0  0  0  0  0  0
    3.8582    1.3083   -0.6736 H   0  0  0  0  0  0  0  0  0  0  0  0
    1.9721    4.7915    0.9514 H   0  0  0  0  0  0  0  0  0  0  0  0
   -0.0120    3.5143    1.5800 H   0  0  0  0  0  0  0  0  0  0  0  0
   -1.5482    2.0610    1.7229 H   0  0  0  0  0  0  0  0  0  0  0  0
   -1.6711    0.5027    2.4891 H   0  0  0  0  0  0  0  0  0  0  0  0
    4.7232   -4.1023   -1.9894 H   0  0  0  0  0  0  0  0  0  0  0  0
    4.2692   -2.0559   -3.3640 H   0  0  0  0  0  0  0  0  0  0  0  0
    2.7377   -0.3290   -2.4131 H   0  0  0  0  0  0  0  0  0  0  0  0
    4.4634    4.6673    0.5442 H   0  0  0  0  0  0  0  0  0  0  0  0
    5.1137    3.3426   -0.3978 H   0  0  0  0  0  0  0  0  0  0  0  0
    4.8711    5.4017   -1.7872 H   0  0  0  0  0  0  0  0  0  0  0  0
    3.8270    4.1202   -2.4034 H   0  0  0  0  0  0  0  0  0  0  0  0
    3.1403    5.4392   -1.4580 H   0  0  0  0  0  0  0  0  0  0  0  0
  1  4  2  0
  1 14  1  0
  1 25  1  0
  2 19  1  0
  3 24  1  0
  3 32  1  0
  4  7  1  0
  4 33  1  0
  5 27  1  0
  5 34  1  0
  6 26  2  0
  7 10  2  0
  8  7  1  0
  9 24  2  0
 10 12  1  0
 10 35  1  0
 11  8  2  0
 12 14  2  0
 12 36  1  0
 13  8  1  0
 14 37  1  0
 15 29  2  0
 16 17  2  0
 16 38  1  0
 17 30  1  0
 18 16  1  0
 19 18  2  0
 19 23  1  0
 20  2  1  0
 20 21  2  0
 21 15  1  0
 21 18  1  0
 22 17  1  0
 22 39  1  0
 23 22  2  0
 23 40  1  0
 24 20  1  0
 25  2  1  0
 25 41  1  0
 25 42  1  0
 26  5  1  0
 26 15  1  0
 27 28  2  0
 27 43  1  0
 28 44  1  0
 29 28  1  0
 29 45  1  0
 30 31  1  0
 30 46  1  0
 30 47  1  0
 31 48  1  0
 31 49  1  0
 31 50  1  0
M  CHG  2   8   1  13  -1
M  END
