
     RDKit          3D

 38 37  0  0  0  0  0  0  0  0999 V2000
    1.2675    0.0259   -6.0124 O   0  0  0  0  0  0  0  0  0  0  0  0
   -0.7698    0.0269   -6.9153 O   0  0  0  0  0  0  0  0  0  0  0  0
    0.0685    0.0265   -5.8816 C   0  0  0  0  0  0  0  0  0  0  0  0
   -0.6636    0.0283   -4.5690 C   0  0  0  0  0  0  0  0  0  0  0  0
    0.2463    0.0180   -3.3515 C   0  0  0  0  0  0  0  0  0  0  0  0
   -0.5509    0.0204   -2.0532 C   0  0  0  0  0  0  0  0  0  0  0  0
    0.3329    0.0127   -0.8123 C   0  0  0  0  0  0  0  0  0  0  0  0
   -0.4633    0.0154    0.4866 C   0  0  0  0  0  0  0  0  0  0  0  0
    0.4135    0.0071    1.7329 C   0  0  0  0  0  0  0  0  0  0  0  0
   -0.3883    0.0118    3.0285 C   0  0  0  0  0  0  0  0  0  0  0  0
    0.4825    0.0039    4.2791 C   0  0  0  0  0  0  0  0  0  0  0  0
   -0.3248    0.0104    5.5711 C   0  0  0  0  0  0  0  0  0  0  0  0
    0.5394    0.0026    6.8265 C   0  0  0  0  0  0  0  0  0  0  0  0
   -0.2841    0.0103    8.1070 C   0  0  0  0  0  0  0  0  0  0  0  0
   -0.2703    0.0271   -7.7453 H   0  0  0  0  0  0  0  0  0  0  0  0
   -1.3346   -0.8368   -4.5532 H   0  0  0  0  0  0  0  0  0  0  0  0
   -1.3206    0.9042   -4.5487 H   0  0  0  0  0  0  0  0  0  0  0  0
    0.9074    0.8887   -3.3739 H   0  0  0  0  0  0  0  0  0  0  0  0
    0.8937   -0.8629   -3.3791 H   0  0  0  0  0  0  0  0  0  0  0  0
   -1.2151   -0.8507   -2.0302 H   0  0  0  0  0  0  0  0  0  0  0  0
   -1.2040    0.8999   -2.0272 H   0  0  0  0  0  0  0  0  0  0  0  0
    0.9967    0.8843   -0.8340 H   0  0  0  0  0  0  0  0  0  0  0  0
    0.9861   -0.8667   -0.8370 H   0  0  0  0  0  0  0  0  0  0  0  0
   -1.1283   -0.8554    0.5061 H   0  0  0  0  0  0  0  0  0  0  0  0
   -1.1166    0.8951    0.5095 H   0  0  0  0  0  0  0  0  0  0  0  0
    1.0792    0.8774    1.7141 H   0  0  0  0  0  0  0  0  0  0  0  0
    1.0658   -0.8733    1.7120 H   0  0  0  0  0  0  0  0  0  0  0  0
   -1.0544   -0.8583    3.0458 H   0  0  0  0  0  0  0  0  0  0  0  0
   -1.0409    0.8921    3.0475 H   0  0  0  0  0  0  0  0  0  0  0  0
    1.1491    0.8736    4.2627 H   0  0  0  0  0  0  0  0  0  0  0  0
    1.1344   -0.8769    4.2621 H   0  0  0  0  0  0  0  0  0  0  0  0
   -0.9920   -0.8591    5.5868 H   0  0  0  0  0  0  0  0  0  0  0  0
   -0.9770    0.8912    5.5874 H   0  0  0  0  0  0  0  0  0  0  0  0
    1.2058    0.8707    6.8120 H   0  0  0  0  0  0  0  0  0  0  0  0
    1.1895   -0.8779    6.8122 H   0  0  0  0  0  0  0  0  0  0  0  0
    0.3484    0.0038    8.9955 H   0  0  0  0  0  0  0  0  0  0  0  0
   -0.9188    0.8971    8.1601 H   0  0  0  0  0  0  0  0  0  0  0  0
   -0.9362   -0.8639    8.1595 H   0  0  0  0  0  0  0  0  0  0  0  0
  1  3  2  0
  2  3  1  0
  2 15  1  0
  3  4  1  0
  4  5  1  0
  4 16  1  0
  4 17  1  0
  5  6  1  0
  5 18  1  0
  5 19  1  0
  6  7  1  0
  6 20  1  0
  6 21  1  0
  7  8  1  0
  7 22  1  0
  7 23  1  0
  8  9  1  0
  8 24  1  0
  8 25  1  0
  9 10  1  0
  9 26  1  0
  9 27  1  0
 10 11  1  0
 10 28  1  0
 10 29  1  0
 11 12  1  0
 11 30  1  0
 11 31  1  0
 12 13  1  0
 12 32  1  0
 12 33  1  0
 13 14  1  0
 13 34  1  0
 13 35  1  0
 14 36  1  0
 14 37  1  0
 14 38  1  0
M  END
