
     RDKit          3D

 32 32  0  0  0  0  0  0  0  0999 V2000
   -0.7902    1.2858   -0.3581 C   0  0  0  0  0  0  0  0  0  0  0  0
   -1.5983    0.1730   -0.1246 C   0  0  0  0  0  0  0  0  0  0  0  0
   -0.9507   -1.0349    0.1400 C   0  0  0  0  0  0  0  0  0  0  0  0
    0.4255   -1.1300    0.1838 C   0  0  0  0  0  0  0  0  0  0  0  0
    1.2477   -0.0021   -0.0271 C   0  0  0  0  0  0  0  0  0  0  0  0
    0.5854    1.2152   -0.3009 C   0  0  0  0  0  0  0  0  0  0  0  0
    2.6045   -0.0836    0.0242 N   0  0  0  0  0  0  0  0  0  0  0  0
    3.4513    1.0519   -0.2898 C   0  0  0  0  0  0  0  0  0  0  0  0
    3.7163    1.9538    0.9079 C   0  0  0  0  0  0  0  0  0  0  0  0
    3.2867   -1.3093    0.3944 C   0  0  0  0  0  0  0  0  0  0  0  0
    3.5478   -2.2335   -0.7871 C   0  0  0  0  0  0  0  0  0  0  0  0
   -3.0731    0.3327   -0.2053 C   0  0  0  0  0  0  0  0  0  0  0  0
   -3.5856    1.2646   -0.8096 O   0  0  0  0  0  0  0  0  0  0  0  0
   -3.7909   -0.6095    0.4438 N   0  0  0  0  0  0  0  0  0  0  0  0
   -5.1738   -0.5910    0.4254 N   0  0  0  0  0  0  0  0  0  0  0  0
   -1.2485    2.2416   -0.5770 H   0  0  0  0  0  0  0  0  0  0  0  0
   -1.5128   -1.9490    0.2884 H   0  0  0  0  0  0  0  0  0  0  0  0
    0.8564   -2.1033    0.3684 H   0  0  0  0  0  0  0  0  0  0  0  0
    1.1461    2.1245   -0.4635 H   0  0  0  0  0  0  0  0  0  0  0  0
    4.3971    0.6633   -0.6715 H   0  0  0  0  0  0  0  0  0  0  0  0
    3.0212    1.6242   -1.1129 H   0  0  0  0  0  0  0  0  0  0  0  0
    4.2064    1.4006    1.7101 H   0  0  0  0  0  0  0  0  0  0  0  0
    4.3685    2.7806    0.6246 H   0  0  0  0  0  0  0  0  0  0  0  0
    2.7930    2.3757    1.3061 H   0  0  0  0  0  0  0  0  0  0  0  0
    4.2346   -1.0311    0.8589 H   0  0  0  0  0  0  0  0  0  0  0  0
    2.7262   -1.8310    1.1716 H   0  0  0  0  0  0  0  0  0  0  0  0
    2.6186   -2.5589   -1.2559 H   0  0  0  0  0  0  0  0  0  0  0  0
    4.1517   -1.7351   -1.5467 H   0  0  0  0  0  0  0  0  0  0  0  0
    4.0891   -3.1227   -0.4620 H   0  0  0  0  0  0  0  0  0  0  0  0
   -3.3261   -1.2795    1.0375 H   0  0  0  0  0  0  0  0  0  0  0  0
   -5.5091   -1.4954    0.1207 H   0  0  0  0  0  0  0  0  0  0  0  0
   -5.5185   -0.4395    1.3648 H   0  0  0  0  0  0  0  0  0  0  0  0
  1  2  2  0
  1  6  1  0
  2  3  1  0
  2 12  1  0
  3  4  2  0
  4  5  1  0
  5  6  2  0
  5  7  1  0
  7  8  1  0
  7 10  1  0
  8  9  1  0
 10 11  1  0
 12 13  2  0
 12 14  1  0
 14 15  1  0
  1 16  1  0
  3 17  1  0
  4 18  1  0
  6 19  1  0
  8 20  1  0
  8 21  1  0
  9 22  1  0
  9 23  1  0
  9 24  1  0
 10 25  1  0
 10 26  1  0
 11 27  1  0
 11 28  1  0
 11 29  1  0
 14 30  1  0
 15 31  1  0
 15 32  1  0
M  END
