
     RDKit          3D

 42 41  0  0  0  0  0  0  0  0999 V2000
   -1.2691    0.3216   -0.0169 C   0  0  0  0  0  0  0  0  0  0  0  0
   -2.5189   -0.5447   -0.0075 C   0  0  0  0  0  0  0  0  0  0  0  0
   -4.9364   -0.5441   -0.0012 C   0  0  0  0  0  0  0  0  0  0  0  0
   -6.1833    0.3258    0.0037 C   0  0  0  0  0  0  0  0  0  0  0  0
   -7.4619   -0.4980    0.0033 C   0  0  0  0  0  0  0  0  0  0  0  0
    7.3429   -0.8583    0.0474 C   0  0  0  0  0  0  0  0  0  0  0  0
    5.0222   -0.6941    0.0267 C   0  0  0  0  0  0  0  0  0  0  0  0
    3.8475    0.2916    0.0085 C   0  0  1  0  0  0  0  0  0  0  0  0
    2.5346   -0.5017    0.0036 C   0  0  0  0  0  0  0  0  0  0  0  0
    1.2727    0.3517   -0.0132 C   0  0  0  0  0  0  0  0  0  0  0  0
    0.0111   -0.5037   -0.0088 C   0  0  0  0  0  0  0  0  0  0  0  0
   -3.7275    0.2570    0.0063 N   0  0  0  0  0  0  0  0  0  0  0  0
   -8.6354    0.3643    0.0215 N   0  0  0  0  0  0  0  0  0  0  0  0
    6.2339    0.0028    0.0398 O   0  0  0  0  0  0  0  0  0  0  0  0
    3.9169    1.1743    1.0924 O   0  0  0  0  0  0  0  0  0  0  0  0
    3.9365    1.1561   -1.0889 O   0  0  0  0  0  0  0  0  0  0  0  0
   -1.2795    0.9668   -0.9028 H   0  0  0  0  0  0  0  0  0  0  0  0
   -1.2867    0.9871    0.8518 H   0  0  0  0  0  0  0  0  0  0  0  0
   -2.4842   -1.2405   -0.8628 H   0  0  0  0  0  0  0  0  0  0  0  0
   -2.5147   -1.1711    0.8913 H   0  0  0  0  0  0  0  0  0  0  0  0
   -4.9322   -1.1748    0.8943 H   0  0  0  0  0  0  0  0  0  0  0  0
   -4.9782   -1.2359   -0.8596 H   0  0  0  0  0  0  0  0  0  0  0  0
   -6.1628    0.9752    0.8853 H   0  0  0  0  0  0  0  0  0  0  0  0
   -6.1816    0.9827   -0.8725 H   0  0  0  0  0  0  0  0  0  0  0  0
   -7.4970   -1.1035   -0.9067 H   0  0  0  0  0  0  0  0  0  0  0  0
   -7.4279   -1.2076    0.8430 H   0  0  0  0  0  0  0  0  0  0  0  0
    8.2453   -0.2475    0.0577 H   0  0  0  0  0  0  0  0  0  0  0  0
    7.3553   -1.5070    0.9318 H   0  0  0  0  0  0  0  0  0  0  0  0
    7.3716   -1.5019   -0.8404 H   0  0  0  0  0  0  0  0  0  0  0  0
    4.9315   -1.3486    0.9080 H   0  0  0  0  0  0  0  0  0  0  0  0
    4.9523   -1.3531   -0.8529 H   0  0  0  0  0  0  0  0  0  0  0  0
    2.5311   -1.1721   -0.8636 H   0  0  0  0  0  0  0  0  0  0  0  0
    2.5167   -1.1575    0.8817 H   0  0  0  0  0  0  0  0  0  0  0  0
    1.2606    1.0162    0.8553 H   0  0  0  0  0  0  0  0  0  0  0  0
    1.2688    0.9957   -0.8972 H   0  0  0  0  0  0  0  0  0  0  0  0
    0.0168   -1.1548    0.8727 H   0  0  0  0  0  0  0  0  0  0  0  0
    0.0210   -1.1705   -0.8780 H   0  0  0  0  0  0  0  0  0  0  0  0
   -3.7294    0.8551   -0.8128 H   0  0  0  0  0  0  0  0  0  0  0  0
   -9.4717   -0.2044   -0.0153 H   0  0  0  0  0  0  0  0  0  0  0  0
   -8.6766    0.8468    0.9113 H   0  0  0  0  0  0  0  0  0  0  0  0
    3.8076    0.6754    1.9083 H   0  0  0  0  0  0  0  0  0  0  0  0
    3.8157    0.6473   -1.8971 H   0  0  0  0  0  0  0  0  0  0  0  0
  8 15  1  1
  8  7  1  0
  8 16  1  0
  8  9  1  0
  7 14  1  0
  3  4  1  0
  3 12  1  0
  4  5  1  0
  5 13  1  0
  2 12  1  0
  2  1  1  0
  9 10  1  0
 11 10  1  0
 11  1  1  0
  6 14  1  0
  1 17  1  0
  1 18  1  0
  2 19  1  0
  2 20  1  0
  3 21  1  0
  3 22  1  0
  4 23  1  0
  4 24  1  0
  5 25  1  0
  5 26  1  0
  6 27  1  0
  6 28  1  0
  6 29  1  0
  7 30  1  0
  7 31  1  0
  9 32  1  0
  9 33  1  0
 10 34  1  0
 10 35  1  0
 11 36  1  0
 11 37  1  0
 12 38  1  0
 13 39  1  0
 13 40  1  0
 15 41  1  0
 16 42  1  0
M  END
