
     RDKit          3D

 38 40  0  0  0  0  0  0  0  0999 V2000
   -4.7059    0.0411    0.8673 C   0  0  0  0  0  0  0  0  0  0  0  0
   -6.0066   -0.2875    0.5178 C   0  0  0  0  0  0  0  0  0  0  0  0
   -0.2836    0.5368    0.2853 N   0  0  0  0  0  0  0  0  0  0  0  0
   -2.2988    0.1931    0.3291 C   0  0  0  0  0  0  0  0  0  0  0  0
   -3.6657   -0.1611   -0.0384 C   0  0  0  0  0  0  0  0  0  0  0  0
   -6.2796   -0.8211   -0.7350 C   0  0  0  0  0  0  0  0  0  0  0  0
   -5.2447   -1.0264   -1.6388 C   0  0  0  0  0  0  0  0  0  0  0  0
   -3.9430   -0.6984   -1.2950 C   0  0  0  0  0  0  0  0  0  0  0  0
    1.6122   -0.6888   -0.0555 O   0  0  0  0  0  0  0  0  0  0  0  0
    2.9052   -0.8000   -0.6328 C   0  0  1  0  0  0  0  0  0  0  0  0
    3.8759    0.1260    0.1022 C   0  0  2  0  0  0  0  0  0  0  0  0
    3.3336    1.5525    0.1032 C   0  0  1  0  0  0  0  0  0  0  0  0
    1.9129    1.5883    0.6588 C   0  0  2  0  0  0  0  0  0  0  0  0
    1.0893    0.5973   -0.1647 C   0  0  2  0  0  0  0  0  0  0  0  0
    1.4199    2.8942    0.5382 O   0  0  0  0  0  0  0  0  0  0  0  0
    4.2075    2.3361    0.8734 O   0  0  0  0  0  0  0  0  0  0  0  0
    5.1155    0.0537   -0.5532 O   0  0  0  0  0  0  0  0  0  0  0  0
   -1.2596    0.1125   -0.4768 N   0  0  0  0  0  0  0  0  0  0  0  0
   -1.9337    0.6596    1.5411 N   0  0  0  0  0  0  0  0  0  0  0  0
   -0.6649    0.8637    1.4881 N   0  0  0  0  0  0  0  0  0  0  0  0
   -4.5003    0.4581    1.8444 H   0  0  0  0  0  0  0  0  0  0  0  0
   -6.8085   -0.1248    1.2255 H   0  0  0  0  0  0  0  0  0  0  0  0
   -7.2955   -1.0749   -1.0075 H   0  0  0  0  0  0  0  0  0  0  0  0
   -5.4523   -1.4438   -2.6152 H   0  0  0  0  0  0  0  0  0  0  0  0
   -3.1429   -0.8615   -2.0053 H   0  0  0  0  0  0  0  0  0  0  0  0
    2.8632   -0.4984   -1.6916 H   0  0  0  0  0  0  0  0  0  0  0  0
    3.9577   -0.2143    1.1471 H   0  0  0  0  0  0  0  0  0  0  0  0
    3.3042    1.9047   -0.9404 H   0  0  0  0  0  0  0  0  0  0  0  0
    1.9382    1.2538    1.7030 H   0  0  0  0  0  0  0  0  0  0  0  0
    1.0509    0.9264   -1.2116 H   0  0  0  0  0  0  0  0  0  0  0  0
    0.7810    3.0550    1.2394 H   0  0  0  0  0  0  0  0  0  0  0  0
    4.0012    3.2643    0.7249 H   0  0  0  0  0  0  0  0  0  0  0  0
    5.7303    0.6415   -0.1018 H   0  0  0  0  0  0  0  0  0  0  0  0
    2.7364   -3.9388   -1.2791 H   0  0  0  0  0  0  0  0  0  0  0  0
    3.3205   -2.2513   -0.5378 C   0  0  0  0  0  0  0  0  0  0  0  0
    2.4421   -3.0245   -1.3180 O   0  0  0  0  0  0  0  0  0  0  0  0
    4.3555   -2.3368   -0.8841 H   0  0  0  0  0  0  0  0  0  0  0  0
    3.3077   -2.5543    0.5185 H   0  0  0  0  0  0  0  0  0  0  0  0
 16 12  1  0
 17 11  1  0
 12 11  1  0
 12 13  1  0
 11 10  1  0
 15 13  1  0
 13 14  1  0
 36 35  1  0
 10 35  1  0
 10  9  1  0
 14  9  1  0
 14  3  1  0
 20  3  1  0
 20 19  2  0
  3 18  1  0
 19  4  1  0
 18  4  2  0
  4  5  1  0
  5  1  2  0
  5  8  1  0
  1  2  1  0
  8  7  2  0
  2  6  2  0
  7  6  1  0
  1 21  1  0
  2 22  1  0
  6 23  1  0
  7 24  1  0
  8 25  1  0
 10 26  1  6
 11 27  1  1
 12 28  1  6
 13 29  1  1
 14 30  1  6
 15 31  1  0
 16 32  1  0
 17 33  1  0
 35 37  1  0
 35 38  1  0
 36 34  1  0
M  END
