
     RDKit          3D

 15 14  0  0  0  0  0  0  0  0999 V2000
    2.4747   -0.8338    0.2148 C   0  0  0  0  0  0  0  0  0  0  0  0
    1.3116    0.0368   -0.1812 C   0  0  0  0  0  0  0  0  0  0  0  0
   -0.0064   -0.6946   -0.2795 C   0  0  0  0  0  0  0  0  0  0  0  0
   -1.2967    0.0855   -0.1523 C   0  0  0  0  0  0  0  0  0  0  0  0
   -2.4819   -0.7652    0.2175 C   0  0  0  0  0  0  0  0  0  0  0  0
    1.4400    1.2171   -0.4015 O   0  0  0  0  0  0  0  0  0  0  0  0
   -1.3857    1.2734   -0.3421 O   0  0  0  0  0  0  0  0  0  0  0  0
    2.3727   -1.8499   -0.1649 H   0  0  0  0  0  0  0  0  0  0  0  0
    3.4177   -0.4086   -0.1239 H   0  0  0  0  0  0  0  0  0  0  0  0
    2.4962   -0.8990    1.3059 H   0  0  0  0  0  0  0  0  0  0  0  0
   -0.0285   -1.1724   -1.2700 H   0  0  0  0  0  0  0  0  0  0  0  0
   -0.0140   -1.5371    0.4165 H   0  0  0  0  0  0  0  0  0  0  0  0
   -2.4504   -0.9442    1.2956 H   0  0  0  0  0  0  0  0  0  0  0  0
   -3.4207   -0.2740   -0.0306 H   0  0  0  0  0  0  0  0  0  0  0  0
   -2.4377   -1.7438   -0.2622 H   0  0  0  0  0  0  0  0  0  0  0  0
  7  4  2  0
  6  2  2  0
  4  3  1  0
  4  5  1  0
  2  1  1  0
  2  3  1  0
  1  8  1  0
  1  9  1  0
  1 10  1  0
  3 11  1  0
  3 12  1  0
  5 13  1  0
  5 14  1  0
  5 15  1  0
M  END
