
     RDKit          3D

 16 16  0  0  0  0  0  0  0  0999 V2000
   -2.7345   -1.1359    0.0031 O   0  0  0  0  0  0  0  0  0  0  0  0
    2.1692   -2.2068   -0.0626 O   0  0  0  0  0  0  0  0  0  0  0  0
   -2.8574    1.0946    0.0124 O   0  0  0  0  0  0  0  0  0  0  0  0
   -0.0614    1.1982   -0.0014 C   0  0  0  0  0  0  0  0  0  0  0  0
   -0.0174   -1.2739   -0.0187 C   0  0  0  0  0  0  0  0  0  0  0  0
    2.0576    0.0374   -0.0292 N   0  0  0  0  0  0  0  0  0  0  0  0
   -2.2134    0.0771    0.0045 C   0  0  0  0  0  0  0  0  0  0  0  0
    1.4067    1.2509   -0.0126 C   0  0  0  0  0  0  0  0  0  0  0  0
   -0.7189    0.0405   -0.0059 C   0  0  0  0  0  0  0  0  0  0  0  0
    1.4851   -1.2096   -0.0396 C   0  0  0  0  0  0  0  0  0  0  0  0
   -3.7030   -1.0894    0.0074 H   0  0  0  0  0  0  0  0  0  0  0  0
   -0.5751    2.1501    0.0082 H   0  0  0  0  0  0  0  0  0  0  0  0
   -0.3042   -1.8656    0.8558 H   0  0  0  0  0  0  0  0  0  0  0  0
   -0.3306   -1.8649   -0.8842 H   0  0  0  0  0  0  0  0  0  0  0  0
    3.0709    0.0699   -0.0404 H   0  0  0  0  0  0  0  0  0  0  0  0
    2.0229    2.2935   -0.0078 O   0  0  0  0  0  0  0  0  0  0  0  0
  7  1  1  0
  1 11  1  0
  2 10  2  0
  7  3  2  0
  8 16  2  0
  8  4  1  0
  9  4  2  0
  4 12  1  0
 10  5  1  0
  5  9  1  0
  5 13  1  0
  5 14  1  0
 10  6  1  0
  6  8  1  0
  6 15  1  0
  9  7  1  0
M  END
