
     RDKit          3D

 43 44  0  0  0  0  0  0  0  0999 V2000
   -7.9336   -0.0020    0.7482 C   0  0  0  0  0  0  0  0  0  0  0  0
   -4.2909   -0.1939    0.0284 C   0  0  0  0  0  0  0  0  0  0  0  0
   -3.3459    0.1517   -1.1113 C   0  0  0  0  0  0  0  0  0  0  0  0
   -1.0220    0.1927   -1.7840 C   0  0  0  0  0  0  0  0  0  0  0  0
    1.3311   -0.6780   -2.0736 C   0  0  0  0  0  0  0  0  0  0  0  0
    2.6348   -0.8266   -1.6253 C   0  0  0  0  0  0  0  0  0  0  0  0
    3.0534   -0.3055   -0.4026 C   0  0  0  0  0  0  0  0  0  0  0  0
    2.0944    0.3670    0.3565 C   0  0  0  0  0  0  0  0  0  0  0  0
    0.7894    0.5206   -0.0784 C   0  0  0  0  0  0  0  0  0  0  0  0
    4.4519   -0.4977    0.0390 C   0  0  0  0  0  0  0  0  0  0  0  0
    6.6011    0.3933    0.6858 C   0  0  0  0  0  0  0  0  0  0  0  0
    7.1064   -0.8945    0.8164 C   0  0  0  0  0  0  0  0  0  0  0  0
    6.2873   -1.9835    0.5522 C   0  0  0  0  0  0  0  0  0  0  0  0
    4.9692   -1.7857    0.1633 C   0  0  0  0  0  0  0  0  0  0  0  0
    2.5041    0.9973    1.9223 Cl  0  0  0  0  0  0  0  0  0  0  0  0
    5.2832    0.5908    0.3017 C   0  0  0  0  0  0  0  0  0  0  0  0
    0.3938    0.0047   -1.3087 C   0  0  0  0  0  0  0  0  0  0  0  0
   -1.9723   -0.1215   -0.7370 N   0  0  0  0  0  0  0  0  0  0  0  0
   -5.7343    0.1246   -0.3225 C   0  0  0  0  0  0  0  0  0  0  0  0
   -6.6126   -0.2282    0.7731 N   0  0  0  0  0  0  0  0  0  0  0  0
   -8.4923    0.5144   -0.2128 O   0  0  0  0  0  0  0  0  0  0  0  0
   -8.6926   -0.4152    1.9843 C   0  0  0  0  0  0  0  0  0  0  0  0
   -4.1985   -1.2588    0.2669 H   0  0  0  0  0  0  0  0  0  0  0  0
   -3.9926    0.3616    0.9220 H   0  0  0  0  0  0  0  0  0  0  0  0
   -3.6566   -0.3873   -2.0206 H   0  0  0  0  0  0  0  0  0  0  0  0
   -3.4301    1.2180   -1.3442 H   0  0  0  0  0  0  0  0  0  0  0  0
   -1.1677    1.2412   -2.0649 H   0  0  0  0  0  0  0  0  0  0  0  0
   -1.1768   -0.3911   -2.7036 H   0  0  0  0  0  0  0  0  0  0  0  0
    1.0448   -1.0986   -3.0297 H   0  0  0  0  0  0  0  0  0  0  0  0
    3.3526   -1.3581   -2.2375 H   0  0  0  0  0  0  0  0  0  0  0  0
    0.0683    1.0332    0.5445 H   0  0  0  0  0  0  0  0  0  0  0  0
    7.2360    1.2482    0.8798 H   0  0  0  0  0  0  0  0  0  0  0  0
    8.1339   -1.0480    1.1198 H   0  0  0  0  0  0  0  0  0  0  0  0
    6.6718   -2.9902    0.6517 H   0  0  0  0  0  0  0  0  0  0  0  0
    4.3335   -2.6404   -0.0337 H   0  0  0  0  0  0  0  0  0  0  0  0
    4.9039    1.5984    0.1903 H   0  0  0  0  0  0  0  0  0  0  0  0
   -1.8819   -1.1019   -0.4961 H   0  0  0  0  0  0  0  0  0  0  0  0
   -5.8341    1.1897   -0.5497 H   0  0  0  0  0  0  0  0  0  0  0  0
   -6.0287   -0.4192   -1.2251 H   0  0  0  0  0  0  0  0  0  0  0  0
   -6.2048   -0.6462    1.5930 H   0  0  0  0  0  0  0  0  0  0  0  0
   -8.0813   -0.9344    2.7199 H   0  0  0  0  0  0  0  0  0  0  0  0
   -9.1208    0.4686    2.4576 H   0  0  0  0  0  0  0  0  0  0  0  0
   -9.5211   -1.0644    1.7025 H   0  0  0  0  0  0  0  0  0  0  0  0
 13 14  2  0
 13 12  1  0
 14 10  1  0
 12 11  2  0
  6  5  2  0
  6  7  1  0
 10  7  1  0
 10 16  2  0
  5 17  1  0
 11 16  1  0
  7  8  2  0
 17  4  1  0
 17  9  2  0
  8  9  1  0
  8 15  1  0
  4 18  1  0
  3 18  1  0
  3  2  1  0
 19  2  1  0
 19 20  1  0
 20  1  1  0
 21  1  2  0
  1 22  1  0
  2 23  1  0
  2 24  1  0
  3 25  1  0
  3 26  1  0
  4 27  1  0
  4 28  1  0
  5 29  1  0
  6 30  1  0
  9 31  1  0
 11 32  1  0
 12 33  1  0
 13 34  1  0
 14 35  1  0
 16 36  1  0
 18 37  1  0
 19 38  1  0
 19 39  1  0
 20 40  1  0
 22 41  1  0
 22 42  1  0
 22 43  1  0
M  END
