
     RDKit          3D

 77 80  0  0  0  0  0  0  0  0999 V2000
   -2.8857    3.5853    1.5332 C   0  0  0  0  0  0  0  0  0  0  0  0
   -3.1503    2.6861    0.3322 C   0  0  0  0  0  0  0  0  0  0  0  0
   -3.2251    1.2240    0.7465 C   0  0  0  0  0  0  0  0  0  0  0  0
   -2.4693   -0.3804   -1.0386 C   0  0  0  0  0  0  0  0  0  0  0  0
   -4.2799   -0.8280   -2.0472 C   0  0  0  0  0  0  0  0  0  0  0  0
   -6.8837    0.0098   -1.6347 C   0  0  0  0  0  0  0  0  0  0  0  0
   -4.6076    0.0625   -1.0128 C   0  0  0  0  0  0  0  0  0  0  0  0
   -1.2507   -3.5486   -0.3534 C   0  0  1  0  0  0  0  0  0  0  0  0
    0.1162   -4.1411   -0.6732 C   0  0  0  0  0  0  0  0  0  0  0  0
   -2.1355   -4.5739    0.3492 C   0  0  0  0  0  0  0  0  0  0  0  0
    3.4036   -0.8338   -0.2413 C   0  0  1  0  0  0  0  0  0  0  0  0
   -2.5173    7.2050    1.9661 C   0  0  0  0  0  0  0  0  0  0  0  0
   -2.8409    5.0459    1.1310 C   0  0  0  0  0  0  0  0  0  0  0  0
   -3.4206    0.3307   -0.3782 N   0  0  0  0  0  0  0  0  0  0  0  0
   -2.9288   -1.0839   -2.0332 N   0  0  0  0  0  0  0  0  0  0  0  0
   -5.2773   -1.3090   -2.8950 C   0  0  0  0  0  0  0  0  0  0  0  0
   -6.5732   -0.8794   -2.6758 C   0  0  0  0  0  0  0  0  0  0  0  0
   -5.9087    0.4971   -0.7824 C   0  0  0  0  0  0  0  0  0  0  0  0
   -0.4875    0.8352   -1.0991 O   0  0  0  0  0  0  0  0  0  0  0  0
   -0.4060   -1.1848   -0.0390 N   0  0  0  0  0  0  0  0  0  0  0  0
   -1.1695   -2.2996    0.5233 C   0  0  0  0  0  0  0  0  0  0  0  0
    1.0041   -1.0810    0.3577 C   0  0  2  0  0  0  0  0  0  0  0  0
    1.1980   -0.0576    1.4777 C   0  0  0  0  0  0  0  0  0  0  0  0
    2.5731   -0.1300    1.9334 N   0  0  0  0  0  0  0  0  0  0  0  0
    3.5138    0.2039    0.8829 C   0  0  0  0  0  0  0  0  0  0  0  0
    1.9779   -0.8277   -0.7919 C   0  0  0  0  0  0  0  0  0  0  0  0
    4.4127   -0.5283   -1.3376 C   0  0  0  0  0  0  0  0  0  0  0  0
    4.0707    0.0589   -2.3563 O   0  0  0  0  0  0  0  0  0  0  0  0
    5.6972   -0.8973   -1.1308 N   0  0  0  0  0  0  0  0  0  0  0  0
    6.7229   -0.6114   -2.1204 C   0  0  0  0  0  0  0  0  0  0  0  0
    7.8884    0.1011   -1.4589 C   0  0  0  0  0  0  0  0  0  0  0  0
    8.4073   -0.6459   -0.3804 O   0  0  0  0  0  0  0  0  0  0  0  0
    7.4174   -0.8939    0.5904 C   0  0  0  0  0  0  0  0  0  0  0  0
    6.2234   -1.6323    0.0066 C   0  0  0  0  0  0  0  0  0  0  0  0
   -3.6653    3.4376    2.2863 H   0  0  0  0  0  0  0  0  0  0  0  0
   -1.9342    3.3071    1.9964 H   0  0  0  0  0  0  0  0  0  0  0  0
   -4.0878    2.9759   -0.1505 H   0  0  0  0  0  0  0  0  0  0  0  0
   -2.3579    2.8069   -0.4098 H   0  0  0  0  0  0  0  0  0  0  0  0
   -2.3117    0.9229    1.2613 H   0  0  0  0  0  0  0  0  0  0  0  0
   -4.0405    1.0622    1.4533 H   0  0  0  0  0  0  0  0  0  0  0  0
   -7.9101    0.3236   -1.4974 H   0  0  0  0  0  0  0  0  0  0  0  0
   -1.7332   -3.2622   -1.2922 H   0  0  0  0  0  0  0  0  0  0  0  0
    0.6555   -4.4152    0.2371 H   0  0  0  0  0  0  0  0  0  0  0  0
    0.0065   -5.0456   -1.2734 H   0  0  0  0  0  0  0  0  0  0  0  0
    0.7410   -3.4534   -1.2435 H   0  0  0  0  0  0  0  0  0  0  0  0
   -3.1312   -4.1746    0.5509 H   0  0  0  0  0  0  0  0  0  0  0  0
   -2.2541   -5.4693   -0.2616 H   0  0  0  0  0  0  0  0  0  0  0  0
   -1.6992   -4.8793    1.3032 H   0  0  0  0  0  0  0  0  0  0  0  0
    3.6041   -1.8209    0.1864 H   0  0  0  0  0  0  0  0  0  0  0  0
   -1.7446    7.4385    1.2232 H   0  0  0  0  0  0  0  0  0  0  0  0
   -3.4741    7.5786    1.5816 H   0  0  0  0  0  0  0  0  0  0  0  0
   -2.2831    7.7425    2.8846 H   0  0  0  0  0  0  0  0  0  0  0  0
   -2.0715    5.1972    0.3591 H   0  0  0  0  0  0  0  0  0  0  0  0
   -3.8010    5.3374    0.6797 H   0  0  0  0  0  0  0  0  0  0  0  0
   -5.0416   -1.9946   -3.6988 H   0  0  0  0  0  0  0  0  0  0  0  0
   -7.3677   -1.2321   -3.3204 H   0  0  0  0  0  0  0  0  0  0  0  0
   -6.1549    1.1834    0.0178 H   0  0  0  0  0  0  0  0  0  0  0  0
   -2.1797   -1.9615    0.7623 H   0  0  0  0  0  0  0  0  0  0  0  0
   -0.7131   -2.5525    1.4841 H   0  0  0  0  0  0  0  0  0  0  0  0
    1.2554   -2.0572    0.7784 H   0  0  0  0  0  0  0  0  0  0  0  0
    0.9221    0.9424    1.1142 H   0  0  0  0  0  0  0  0  0  0  0  0
    0.5377   -0.3017    2.3132 H   0  0  0  0  0  0  0  0  0  0  0  0
    2.7036    0.4972    2.7159 H   0  0  0  0  0  0  0  0  0  0  0  0
    4.5180    0.2161    1.3117 H   0  0  0  0  0  0  0  0  0  0  0  0
    3.3387    1.2030    0.4505 H   0  0  0  0  0  0  0  0  0  0  0  0
    1.7753    0.1333   -1.2578 H   0  0  0  0  0  0  0  0  0  0  0  0
    1.8574   -1.5974   -1.5580 H   0  0  0  0  0  0  0  0  0  0  0  0
    7.0642   -1.5519   -2.5673 H   0  0  0  0  0  0  0  0  0  0  0  0
    6.3128    0.0064   -2.9147 H   0  0  0  0  0  0  0  0  0  0  0  0
    8.6958    0.2396   -2.1791 H   0  0  0  0  0  0  0  0  0  0  0  0
    7.5605    1.0935   -1.1188 H   0  0  0  0  0  0  0  0  0  0  0  0
    7.8712   -1.4979    1.3772 H   0  0  0  0  0  0  0  0  0  0  0  0
    7.0744    0.0491    1.0406 H   0  0  0  0  0  0  0  0  0  0  0  0
    5.4778   -1.7581    0.7865 H   0  0  0  0  0  0  0  0  0  0  0  0
    6.5267   -2.6323   -0.3210 H   0  0  0  0  0  0  0  0  0  0  0  0
   -1.0122   -0.2011   -0.7183 C   0  0  0  0  0  0  0  0  0  0  0  0
   -2.5666    5.8338    2.2629 O   0  0  0  0  0  0  0  0  0  0  0  0
 17 16  1  0
 17  6  2  0
 16  5  2  0
  6 18  1  0
 10  8  1  0
  5 15  1  0
  5  7  1  0
 18  7  2  0
 15  4  2  0
  7 14  1  0
  8 21  1  0
  8  9  1  0
 21 20  1  0
  4 14  1  0
  4 76  1  0
 14  3  1  0
 20 76  1  0
 20 22  1  0
 76 19  2  0
 28 27  2  0
  2  3  1  0
  2  1  1  0
 26 22  1  0
 26 11  1  0
 22 23  1  0
 27 11  1  0
 27 29  1  0
 23 24  1  0
  1 13  1  0
 34 29  1  0
 34 33  1  0
 11 25  1  0
 13 77  1  0
 25 24  1  0
 29 30  1  0
 33 32  1  0
 77 12  1  0
 32 31  1  0
 30 31  1  0
  1 35  1  0
  1 36  1  0
  2 37  1  0
  2 38  1  0
  3 39  1  0
  3 40  1  0
  6 41  1  0
  8 42  1  6
  9 43  1  0
  9 44  1  0
  9 45  1  0
 10 46  1  0
 10 47  1  0
 10 48  1  0
 11 49  1  1
 12 50  1  0
 12 51  1  0
 12 52  1  0
 13 53  1  0
 13 54  1  0
 16 55  1  0
 17 56  1  0
 18 57  1  0
 21 58  1  0
 21 59  1  0
 22 60  1  1
 23 61  1  0
 23 62  1  0
 24 63  1  0
 25 64  1  0
 25 65  1  0
 26 66  1  0
 26 67  1  0
 30 68  1  0
 30 69  1  0
 31 70  1  0
 31 71  1  0
 33 72  1  0
 33 73  1  0
 34 74  1  0
 34 75  1  0
M  END
