
     RDKit          3D

 84 86  0  0  0  0  0  0  0  0999 V2000
    0.4586    1.9738    4.2018 N   0  0  0  0  0  0  0  0  0  0  0  0
   -0.7333    3.7747    3.1635 C   0  0  0  0  0  0  0  0  0  0  0  0
   -1.6837    2.9712    2.5453 C   0  0  0  0  0  0  0  0  0  0  0  0
    0.5507    3.2148    3.6907 C   0  0  0  0  0  0  0  0  0  0  0  0
   -4.6024    1.7083    3.4527 C   0  0  0  0  0  0  0  0  0  0  0  0
   -3.8343    0.5479    4.0707 C   0  0  0  0  0  0  0  0  0  0  0  0
    1.5753    1.2304    4.7408 C   0  0  1  0  0  0  0  0  0  0  0  0
    1.2036    0.6177    6.0958 C   0  0  0  0  0  0  0  0  0  0  0  0
    1.3907   -4.0689    1.4504 C   0  0  0  0  0  0  0  0  0  0  0  0
    2.6744   -4.4802    1.8130 C   0  0  0  0  0  0  0  0  0  0  0  0
    3.2504   -5.5658    1.1763 C   0  0  0  0  0  0  0  0  0  0  0  0
    1.2974   -5.8539   -0.1865 C   0  0  0  0  0  0  0  0  0  0  0  0
    1.0508    3.5975    8.3997 C   0  0  0  0  0  0  0  0  0  0  0  0
    0.6938    1.6589    7.0508 C   0  0  0  0  0  0  0  0  0  0  0  0
   -2.8655    3.5225    2.0687 C   0  0  0  0  0  0  0  0  0  0  0  0
   -3.0906    4.8837    2.1993 C   0  0  0  0  0  0  0  0  0  0  0  0
   -2.1407    5.7011    2.8037 C   0  0  0  0  0  0  0  0  0  0  0  0
   -0.9589    5.1416    3.2756 C   0  0  0  0  0  0  0  0  0  0  0  0
   -3.9465    2.8332    0.0987 O   0  0  0  0  0  0  0  0  0  0  0  0
   -4.5380    1.7582    1.9998 N   0  0  0  0  0  0  0  0  0  0  0  0
   -5.4543    0.8869    1.2783 C   0  0  0  0  0  0  0  0  0  0  0  0
   -6.8236    1.5142    1.0426 C   0  0  0  0  0  0  0  0  0  0  0  0
   -7.7549    0.5594    0.3099 C   0  0  0  0  0  0  0  0  0  0  0  0
   -4.0355    0.4847    5.5779 C   0  0  0  0  0  0  0  0  0  0  0  0
    1.5799    3.8684    3.6635 O   0  0  0  0  0  0  0  0  0  0  0  0
    2.1017    0.1901    3.7390 C   0  0  1  0  0  0  0  0  0  0  0  0
    1.0576   -0.8327    3.3196 C   0  0  0  0  0  0  0  0  0  0  0  0
    1.6592   -1.8873    2.5324 N   0  0  0  0  0  0  0  0  0  0  0  0
    0.7177   -2.9190    2.1562 C   0  0  0  0  0  0  0  0  0  0  0  0
    2.5773   -6.2630    0.1781 C   0  0  0  0  0  0  0  0  0  0  0  0
    0.7168   -4.7548    0.4516 C   0  0  0  0  0  0  0  0  0  0  0  0
    0.5520   -6.4469   -1.1390 O   0  0  0  0  0  0  0  0  0  0  0  0
    1.5595    2.6158    7.5729 C   0  0  0  0  0  0  0  0  0  0  0  0
   -0.6576    1.7025    7.3756 C   0  0  0  0  0  0  0  0  0  0  0  0
   -1.1166    2.7087    8.2040 C   0  0  0  0  0  0  0  0  0  0  0  0
   -0.2893    3.6763    8.7364 C   0  0  0  0  0  0  0  0  0  0  0  0
    2.5528    0.8147    2.5630 O   0  0  0  0  0  0  0  0  0  0  0  0
    1.0970   -7.5585   -1.8257 C   0  0  0  0  0  0  0  0  0  0  0  0
   -1.4274    7.9767    3.1624 N   0  0  0  0  0  0  0  0  0  0  0  0
   -3.6156    7.5529    2.8279 O   0  0  0  0  0  0  0  0  0  0  0  0
   -2.4227    2.7492    8.5043 F   0  0  0  0  0  0  0  0  0  0  0  0
   -0.4587    1.5709    4.2993 H   0  0  0  0  0  0  0  0  0  0  0  0
   -1.4938    1.9161    2.3877 H   0  0  0  0  0  0  0  0  0  0  0  0
   -5.6567    1.6334    3.7363 H   0  0  0  0  0  0  0  0  0  0  0  0
   -4.2502    2.6512    3.8708 H   0  0  0  0  0  0  0  0  0  0  0  0
   -4.1510   -0.3946    3.6176 H   0  0  0  0  0  0  0  0  0  0  0  0
   -2.7699    0.6475    3.8406 H   0  0  0  0  0  0  0  0  0  0  0  0
    2.3786    1.9514    4.9123 H   0  0  0  0  0  0  0  0  0  0  0  0
    0.4483   -0.1622    5.9757 H   0  0  0  0  0  0  0  0  0  0  0  0
    2.0911    0.1273    6.5018 H   0  0  0  0  0  0  0  0  0  0  0  0
    3.2146   -3.9440    2.5817 H   0  0  0  0  0  0  0  0  0  0  0  0
    4.2471   -5.8844    1.4546 H   0  0  0  0  0  0  0  0  0  0  0  0
   -4.0104    5.3175    1.8295 H   0  0  0  0  0  0  0  0  0  0  0  0
   -0.2066    5.7512    3.7613 H   0  0  0  0  0  0  0  0  0  0  0  0
   -5.5635   -0.0323    1.8582 H   0  0  0  0  0  0  0  0  0  0  0  0
   -5.0019    0.6042    0.3276 H   0  0  0  0  0  0  0  0  0  0  0  0
   -7.2664    1.7995    2.0011 H   0  0  0  0  0  0  0  0  0  0  0  0
   -6.7052    2.4332    0.4651 H   0  0  0  0  0  0  0  0  0  0  0  0
   -7.9188   -0.3564    0.8806 H   0  0  0  0  0  0  0  0  0  0  0  0
   -8.7280    1.0172    0.1336 H   0  0  0  0  0  0  0  0  0  0  0  0
   -7.3436    0.2743   -0.6600 H   0  0  0  0  0  0  0  0  0  0  0  0
   -5.0839    0.3174    5.8290 H   0  0  0  0  0  0  0  0  0  0  0  0
   -3.4592   -0.3306    6.0148 H   0  0  0  0  0  0  0  0  0  0  0  0
   -3.7259    1.4115    6.0652 H   0  0  0  0  0  0  0  0  0  0  0  0
    2.9180   -0.3530    4.2384 H   0  0  0  0  0  0  0  0  0  0  0  0
    0.2366   -0.3210    2.7896 H   0  0  0  0  0  0  0  0  0  0  0  0
    0.6168   -1.2904    4.2090 H   0  0  0  0  0  0  0  0  0  0  0  0
    2.0707   -1.4896    1.6971 H   0  0  0  0  0  0  0  0  0  0  0  0
   -0.1122   -2.5463    1.5360 H   0  0  0  0  0  0  0  0  0  0  0  0
    0.2532   -3.2985    3.0734 H   0  0  0  0  0  0  0  0  0  0  0  0
    3.0619   -7.1047   -0.2975 H   0  0  0  0  0  0  0  0  0  0  0  0
   -0.2778   -4.4412    0.1534 H   0  0  0  0  0  0  0  0  0  0  0  0
    2.6155    2.6016    7.3326 H   0  0  0  0  0  0  0  0  0  0  0  0
   -1.3449    0.9575    6.9937 H   0  0  0  0  0  0  0  0  0  0  0  0
   -0.6685    4.4566    9.3829 H   0  0  0  0  0  0  0  0  0  0  0  0
    3.3038    1.3817    2.7691 H   0  0  0  0  0  0  0  0  0  0  0  0
    2.0090   -7.2942   -2.3667 H   0  0  0  0  0  0  0  0  0  0  0  0
    0.3439   -7.8785   -2.5418 H   0  0  0  0  0  0  0  0  0  0  0  0
    1.3155   -8.3875   -1.1475 H   0  0  0  0  0  0  0  0  0  0  0  0
   -0.4738    7.6614    3.1280 H   0  0  0  0  0  0  0  0  0  0  0  0
   -1.5823    8.9702    3.2267 H   0  0  0  0  0  0  0  0  0  0  0  0
    1.8829    4.5146    8.8987 F   0  0  0  0  0  0  0  0  0  0  0  0
   -3.8405    2.6759    1.3068 C   0  0  0  0  0  0  0  0  0  0  0  0
   -2.4609    7.1622    2.9322 C   0  0  0  0  0  0  0  0  0  0  0  0
  1  7  1  0
  1  4  1  0
  1 42  1  0
  2  4  1  0
  2 18  1  0
  2  3  2  0
  3 15  1  0
  3 43  1  0
 83 15  1  0
 83 20  1  0
 83 19  2  0
 84 40  2  0
 84 17  1  0
 84 39  1  0
  4 25  2  0
  5  6  1  0
  5 20  1  0
  5 44  1  0
  5 45  1  0
  6 24  1  0
  6 46  1  0
  6 47  1  0
  7 26  1  0
  7  8  1  0
  7 48  1  1
  8 14  1  0
  8 49  1  0
  8 50  1  0
  9 31  1  0
  9 10  2  0
  9 29  1  0
 10 11  1  0
 10 51  1  0
 11 30  2  0
 11 52  1  0
 12 32  1  0
 12 30  1  0
 12 31  2  0
 13 82  1  0
 13 33  2  0
 13 36  1  0
 14 33  1  0
 14 34  2  0
 15 16  2  0
 16 17  1  0
 16 53  1  0
 17 18  2  0
 18 54  1  0
 20 21  1  0
 21 22  1  0
 21 55  1  0
 21 56  1  0
 22 23  1  0
 22 57  1  0
 22 58  1  0
 23 59  1  0
 23 60  1  0
 23 61  1  0
 24 62  1  0
 24 63  1  0
 24 64  1  0
 26 27  1  0
 26 37  1  0
 26 65  1  1
 27 28  1  0
 27 66  1  0
 27 67  1  0
 28 29  1  0
 28 68  1  0
 29 69  1  0
 29 70  1  0
 30 71  1  0
 31 72  1  0
 32 38  1  0
 33 73  1  0
 34 35  1  0
 34 74  1  0
 35 36  2  0
 35 41  1  0
 36 75  1  0
 37 76  1  0
 38 77  1  0
 38 78  1  0
 38 79  1  0
 39 80  1  0
 39 81  1  0
M  END
