
     RDKit          3D

 42 42  0  0  0  0  0  0  0  0999 V2000
    2.9919    0.8747    1.0625 O   0  0  0  0  0  0  0  0  0  0  0  0
    2.3145    0.7639    0.0714 C   0  0  0  0  0  0  0  0  0  0  0  0
    2.7309    1.0896   -1.1446 O   0  0  0  0  0  0  0  0  0  0  0  0
    0.9112    0.2505    0.0601 C   0  0  0  0  0  0  0  0  0  0  0  0
   -0.1488    1.1628    0.1131 C   0  0  0  0  0  0  0  0  0  0  0  0
    0.0783    2.6618    0.1168 C   0  0  1  0  0  0  0  0  0  0  0  0
   -0.2555    3.2466   -1.2564 C   0  0  0  0  0  0  0  0  0  0  0  0
   -0.7054    3.3660    1.2231 C   0  0  0  0  0  0  0  0  0  0  0  0
   -1.4446    0.6642    0.1171 C   0  0  0  0  0  0  0  0  0  0  0  0
   -1.7083   -0.7013    0.0732 C   0  0  0  0  0  0  0  0  0  0  0  0
   -3.1270   -1.2202    0.0504 C   0  0  1  0  0  0  0  0  0  0  0  0
   -3.9409   -0.7166    1.2412 C   0  0  0  0  0  0  0  0  0  0  0  0
   -3.8140   -0.8711   -1.2707 C   0  0  0  0  0  0  0  0  0  0  0  0
   -0.6323   -1.5761    0.0258 C   0  0  0  0  0  0  0  0  0  0  0  0
    0.6851   -1.1260    0.0165 C   0  0  0  0  0  0  0  0  0  0  0  0
    1.8135   -2.1351   -0.0477 C   0  0  1  0  0  0  0  0  0  0  0  0
    1.8220   -3.0297    1.1923 C   0  0  0  0  0  0  0  0  0  0  0  0
    1.7373   -2.9712   -1.3258 C   0  0  0  0  0  0  0  0  0  0  0  0
    3.6383    1.4323   -1.1083 H   0  0  0  0  0  0  0  0  0  0  0  0
    1.1343    2.8658    0.3118 H   0  0  0  0  0  0  0  0  0  0  0  0
   -1.3115    3.1074   -1.4962 H   0  0  0  0  0  0  0  0  0  0  0  0
   -0.0462    4.3172   -1.2815 H   0  0  0  0  0  0  0  0  0  0  0  0
    0.3320    2.7698   -2.0417 H   0  0  0  0  0  0  0  0  0  0  0  0
   -0.4486    2.9710    2.2064 H   0  0  0  0  0  0  0  0  0  0  0  0
   -0.4789    4.4331    1.2210 H   0  0  0  0  0  0  0  0  0  0  0  0
   -1.7835    3.2641    1.0915 H   0  0  0  0  0  0  0  0  0  0  0  0
   -2.2730    1.3623    0.1505 H   0  0  0  0  0  0  0  0  0  0  0  0
   -3.0777   -2.3114    0.1192 H   0  0  0  0  0  0  0  0  0  0  0  0
   -4.9408   -1.1527    1.2297 H   0  0  0  0  0  0  0  0  0  0  0  0
   -3.4707   -0.9845    2.1881 H   0  0  0  0  0  0  0  0  0  0  0  0
   -4.0580    0.3683    1.2187 H   0  0  0  0  0  0  0  0  0  0  0  0
   -3.2608   -1.2678   -2.1229 H   0  0  0  0  0  0  0  0  0  0  0  0
   -4.8215   -1.2890   -1.3023 H   0  0  0  0  0  0  0  0  0  0  0  0
   -3.9004    0.2096   -1.4014 H   0  0  0  0  0  0  0  0  0  0  0  0
   -0.8264   -2.6424   -0.0078 H   0  0  0  0  0  0  0  0  0  0  0  0
    2.7705   -1.6080   -0.0679 H   0  0  0  0  0  0  0  0  0  0  0  0
    2.6720   -3.7128    1.1614 H   0  0  0  0  0  0  0  0  0  0  0  0
    1.8953   -2.4411    2.1073 H   0  0  0  0  0  0  0  0  0  0  0  0
    0.9142   -3.6328    1.2528 H   0  0  0  0  0  0  0  0  0  0  0  0
    1.7451   -2.3415   -2.2161 H   0  0  0  0  0  0  0  0  0  0  0  0
    2.5900   -3.6494   -1.3863 H   0  0  0  0  0  0  0  0  0  0  0  0
    0.8305   -3.5781   -1.3521 H   0  0  0  0  0  0  0  0  0  0  0  0
 12 11  1  0
 13 11  1  0
 11 10  1  0
 10 14  2  0
 10  9  1  0
 14 15  1  0
  9  5  2  0
 17 16  1  0
 15 16  1  0
 15  4  2  0
 18 16  1  0
  5  4  1  0
  5  6  1  0
  4  2  1  0
  7  6  1  0
  6  8  1  0
  2  1  2  0
  2  3  1  0
  3 19  1  0
  6 20  1  1
  7 21  1  0
  7 22  1  0
  7 23  1  0
  8 24  1  0
  8 25  1  0
  8 26  1  0
  9 27  1  0
 11 28  1  1
 12 29  1  0
 12 30  1  0
 12 31  1  0
 13 32  1  0
 13 33  1  0
 13 34  1  0
 14 35  1  0
 16 36  1  6
 17 37  1  0
 17 38  1  0
 17 39  1  0
 18 40  1  0
 18 41  1  0
 18 42  1  0
M  END
