
     RDKit          3D

 63 64  0  0  0  0  0  0  0  0999 V2000
   10.6337   -2.9243   -1.3895 C   0  0  0  0  0  0  0  0  0  0  0  0
    9.3309   -2.5738   -0.8462 C   0  0  0  0  0  0  0  0  0  0  0  0
    8.2541   -2.2895   -0.3923 C   0  0  0  0  0  0  0  0  0  0  0  0
    6.9544   -1.9394    0.1648 C   0  0  0  0  0  0  0  0  0  0  0  0
    6.3851   -0.8096   -0.5353 N   0  0  0  0  0  0  0  0  0  0  0  0
    5.2015   -0.2519   -0.2008 C   0  0  0  0  0  0  0  0  0  0  0  0
    4.7581    0.9075   -0.8702 C   0  0  0  0  0  0  0  0  0  0  0  0
    3.5530    1.4886   -0.5543 C   0  0  0  0  0  0  0  0  0  0  0  0
    2.7532    0.9336    0.4450 C   0  0  0  0  0  0  0  0  0  0  0  0
    3.1733   -0.2085    1.1185 C   0  0  0  0  0  0  0  0  0  0  0  0
    4.3796   -0.7991    0.8028 C   0  0  0  0  0  0  0  0  0  0  0  0
    1.2215    1.6762    0.8646 S   0  0  1  0  0  0  0  0  0  0  0  0
    0.9572    1.4294    2.2818 O   0  0  0  0  0  0  0  0  0  0  0  0
    1.2325    3.0615    0.3877 O   0  0  0  0  0  0  0  0  0  0  0  0
    0.0313    0.7553   -0.1267 C   0  0  0  0  0  0  0  0  0  0  0  0
   -1.4504    1.1390    0.0525 C   0  0  2  0  0  0  0  0  0  0  0  0
   -2.0013    0.6189    1.3871 C   0  0  0  0  0  0  0  0  0  0  0  0
   -3.5191    0.7095    1.4845 C   0  0  0  0  0  0  0  0  0  0  0  0
   -4.1601    0.0681    0.3536 N   0  0  0  0  0  0  0  0  0  0  0  0
   -3.7299    0.5787   -0.9326 C   0  0  0  0  0  0  0  0  0  0  0  0
   -2.2228    0.4362   -1.0828 C   0  0  0  0  0  0  0  0  0  0  0  0
   -5.0549   -0.9292    0.5447 C   0  0  0  0  0  0  0  0  0  0  0  0
   -5.3892   -1.3315    1.6441 O   0  0  0  0  0  0  0  0  0  0  0  0
   -5.5187   -1.4043   -0.6087 O   0  0  0  0  0  0  0  0  0  0  0  0
   -6.5260   -2.4471   -0.6823 C   0  0  1  0  0  0  0  0  0  0  0  0
   -6.0180   -3.7508   -0.0774 C   0  0  0  0  0  0  0  0  0  0  0  0
   -7.8339   -1.9917   -0.0450 C   0  0  0  0  0  0  0  0  0  0  0  0
   -6.7230   -2.6241   -2.1836 C   0  0  0  0  0  0  0  0  0  0  0  0
   -1.5988    2.6680   -0.0155 C   0  0  0  0  0  0  0  0  0  0  0  0
   -1.8875    3.3486    0.9481 O   0  0  0  0  0  0  0  0  0  0  0  0
   -1.3784    3.1972   -1.2369 N   0  0  0  0  0  0  0  0  0  0  0  0
   -1.2798    4.5483   -1.3721 O   0  0  0  0  0  0  0  0  0  0  0  0
   11.0214   -3.8229   -0.9094 H   0  0  0  0  0  0  0  0  0  0  0  0
   10.5747   -3.1160   -2.4608 H   0  0  0  0  0  0  0  0  0  0  0  0
   11.3550   -2.1230   -1.2294 H   0  0  0  0  0  0  0  0  0  0  0  0
    6.2870   -2.8051    0.0942 H   0  0  0  0  0  0  0  0  0  0  0  0
    7.0661   -1.7235    1.2346 H   0  0  0  0  0  0  0  0  0  0  0  0
    6.9740   -0.3206   -1.1882 H   0  0  0  0  0  0  0  0  0  0  0  0
    5.3797    1.3482   -1.6397 H   0  0  0  0  0  0  0  0  0  0  0  0
    3.2418    2.3812   -1.0804 H   0  0  0  0  0  0  0  0  0  0  0  0
    2.5641   -0.6454    1.8991 H   0  0  0  0  0  0  0  0  0  0  0  0
    4.6822   -1.6851    1.3435 H   0  0  0  0  0  0  0  0  0  0  0  0
    0.3598    0.8839   -1.1614 H   0  0  0  0  0  0  0  0  0  0  0  0
    0.1679   -0.2980    0.1272 H   0  0  0  0  0  0  0  0  0  0  0  0
   -1.7070   -0.4299    1.4840 H   0  0  0  0  0  0  0  0  0  0  0  0
   -1.5607    1.1486    2.2285 H   0  0  0  0  0  0  0  0  0  0  0  0
   -3.8493    0.2346    2.4037 H   0  0  0  0  0  0  0  0  0  0  0  0
   -3.8379    1.7540    1.5322 H   0  0  0  0  0  0  0  0  0  0  0  0
   -4.2245    0.0527   -1.7422 H   0  0  0  0  0  0  0  0  0  0  0  0
   -4.0207    1.6327   -1.0173 H   0  0  0  0  0  0  0  0  0  0  0  0
   -1.9258    0.8031   -2.0668 H   0  0  0  0  0  0  0  0  0  0  0  0
   -1.9664   -0.6266   -1.0636 H   0  0  0  0  0  0  0  0  0  0  0  0
   -5.9040   -3.6950    1.0022 H   0  0  0  0  0  0  0  0  0  0  0  0
   -6.7324   -4.5456   -0.2969 H   0  0  0  0  0  0  0  0  0  0  0  0
   -5.0617   -4.0368   -0.5179 H   0  0  0  0  0  0  0  0  0  0  0  0
   -8.1609   -1.0394   -0.4657 H   0  0  0  0  0  0  0  0  0  0  0  0
   -8.6091   -2.7289   -0.2579 H   0  0  0  0  0  0  0  0  0  0  0  0
   -7.7596   -1.8902    1.0349 H   0  0  0  0  0  0  0  0  0  0  0  0
   -5.7980   -2.9343   -2.6721 H   0  0  0  0  0  0  0  0  0  0  0  0
   -7.4739   -3.3918   -2.3699 H   0  0  0  0  0  0  0  0  0  0  0  0
   -7.0657   -1.7001   -2.6521 H   0  0  0  0  0  0  0  0  0  0  0  0
   -0.9397    2.6744   -1.9812 H   0  0  0  0  0  0  0  0  0  0  0  0
   -0.4233    4.8005   -0.9953 H   0  0  0  0  0  0  0  0  0  0  0  0
  1  2  1  0
  1 33  1  0
  1 34  1  0
  1 35  1  0
  2  3  3  0
  3  4  1  0
  4  5  1  0
  4 36  1  0
  4 37  1  0
  5  6  1  0
  5 38  1  0
  6  7  2  0
  6 11  1  0
  7  8  1  0
  7 39  1  0
  8  9  2  0
  8 40  1  0
  9 12  1  0
  9 10  1  0
 10 11  2  0
 10 41  1  0
 11 42  1  0
 12 13  2  0
 12 14  2  0
 12 15  1  6
 15 16  1  0
 15 43  1  0
 15 44  1  0
 16 17  1  0
 16 29  1  1
 16 21  1  0
 17 18  1  0
 17 45  1  0
 17 46  1  0
 18 19  1  0
 18 47  1  0
 18 48  1  0
 19 22  1  0
 19 20  1  0
 20 21  1  0
 20 49  1  0
 20 50  1  0
 21 51  1  0
 21 52  1  0
 22 23  2  0
 22 24  1  0
 25 24  1  6
 25 27  1  0
 25 26  1  0
 25 28  1  0
 26 53  1  0
 26 54  1  0
 26 55  1  0
 27 56  1  0
 27 57  1  0
 27 58  1  0
 28 59  1  0
 28 60  1  0
 28 61  1  0
 29 31  1  0
 29 30  2  0
 31 32  1  0
 31 62  1  0
 32 63  1  0
M  END
