
     RDKit          3D

 60 62  0  0  0  0  0  0  0  0999 V2000
    8.1438    2.5481   -0.6949 C   0  0  0  0  0  0  0  0  0  0  0  0
    8.1195    1.4500    0.3708 C   0  0  1  0  0  0  0  0  0  0  0  0
    8.9601    0.2594   -0.0932 C   0  0  0  0  0  0  0  0  0  0  0  0
    8.7150    2.0096    1.6642 C   0  0  0  0  0  0  0  0  0  0  0  0
    6.6762    1.0137    0.6726 C   0  0  0  0  0  0  0  0  0  0  0  0
    5.9374    0.3526   -0.4831 C   0  0  0  0  0  0  0  0  0  0  0  0
    4.5647    0.0795   -0.1096 N   0  0  0  0  0  0  0  0  0  0  0  0
    3.8341   -0.9310   -0.6018 C   0  0  0  0  0  0  0  0  0  0  0  0
    4.2694   -1.7445   -1.4077 O   0  0  0  0  0  0  0  0  0  0  0  0
    2.4202   -1.0225   -0.0640 C   0  0  0  0  0  0  0  0  0  0  0  0
    1.4140   -1.3881   -1.1578 C   0  0  0  0  0  0  0  0  0  0  0  0
    0.0294   -1.5683   -0.6092 C   0  0  0  0  0  0  0  0  0  0  0  0
   -0.3495   -2.7655    0.0960 C   0  0  0  0  0  0  0  0  0  0  0  0
   -1.5383   -2.9422    0.6221 N   0  0  0  0  0  0  0  0  0  0  0  0
    0.5649   -3.7566    0.2737 N   0  0  0  0  0  0  0  0  0  0  0  0
   -0.9117   -0.5923   -0.7212 C   0  0  0  0  0  0  0  0  0  0  0  0
   -2.2024   -0.7477   -0.1575 C   0  0  0  0  0  0  0  0  0  0  0  0
   -3.2010    0.2399   -0.2426 C   0  0  0  0  0  0  0  0  0  0  0  0
   -2.4626   -1.9620    0.5146 C   0  0  0  0  0  0  0  0  0  0  0  0
   -3.7404   -2.1468    1.0861 C   0  0  0  0  0  0  0  0  0  0  0  0
   -4.6982   -1.1722    0.9850 C   0  0  0  0  0  0  0  0  0  0  0  0
   -4.4450    0.0469    0.3149 C   0  0  0  0  0  0  0  0  0  0  0  0
   -5.4743    1.1098    0.2474 C   0  0  0  0  0  0  0  0  0  0  0  0
   -5.1588    2.3795    0.7339 C   0  0  0  0  0  0  0  0  0  0  0  0
   -6.0776    3.4170    0.6957 C   0  0  0  0  0  0  0  0  0  0  0  0
   -7.3370    3.1913    0.1601 C   0  0  0  0  0  0  0  0  0  0  0  0
   -7.6560    1.9352   -0.3350 C   0  0  0  0  0  0  0  0  0  0  0  0
   -6.7454    0.8806   -0.3024 C   0  0  0  0  0  0  0  0  0  0  0  0
   -7.1448   -0.4515   -0.8730 C   0  0  0  0  0  0  0  0  0  0  0  0
    7.7532    2.2054   -1.6544 H   0  0  0  0  0  0  0  0  0  0  0  0
    7.5509    3.4110   -0.3826 H   0  0  0  0  0  0  0  0  0  0  0  0
    9.1643    2.8956   -0.8681 H   0  0  0  0  0  0  0  0  0  0  0  0
   10.0044    0.5521   -0.2209 H   0  0  0  0  0  0  0  0  0  0  0  0
    8.9318   -0.5545    0.6353 H   0  0  0  0  0  0  0  0  0  0  0  0
    8.6182   -0.1397   -1.0504 H   0  0  0  0  0  0  0  0  0  0  0  0
    8.1376    2.8644    2.0238 H   0  0  0  0  0  0  0  0  0  0  0  0
    8.7260    1.2573    2.4560 H   0  0  0  0  0  0  0  0  0  0  0  0
    9.7430    2.3452    1.5115 H   0  0  0  0  0  0  0  0  0  0  0  0
    6.6857    0.3190    1.5189 H   0  0  0  0  0  0  0  0  0  0  0  0
    6.1112    1.8939    1.0022 H   0  0  0  0  0  0  0  0  0  0  0  0
    5.9587    0.9888   -1.3732 H   0  0  0  0  0  0  0  0  0  0  0  0
    6.4135   -0.5894   -0.7529 H   0  0  0  0  0  0  0  0  0  0  0  0
    4.1074    0.7491    0.4883 H   0  0  0  0  0  0  0  0  0  0  0  0
    2.4178   -1.7827    0.7236 H   0  0  0  0  0  0  0  0  0  0  0  0
    2.1181   -0.0871    0.4109 H   0  0  0  0  0  0  0  0  0  0  0  0
    1.3953   -0.5958   -1.9084 H   0  0  0  0  0  0  0  0  0  0  0  0
    1.7482   -2.2867   -1.6817 H   0  0  0  0  0  0  0  0  0  0  0  0
    0.2060   -4.6412    0.5948 H   0  0  0  0  0  0  0  0  0  0  0  0
    1.3402   -3.8326   -0.3623 H   0  0  0  0  0  0  0  0  0  0  0  0
   -0.6725    0.3258   -1.2473 H   0  0  0  0  0  0  0  0  0  0  0  0
   -2.9775    1.1621   -0.7681 H   0  0  0  0  0  0  0  0  0  0  0  0
   -3.9480   -3.0707    1.6114 H   0  0  0  0  0  0  0  0  0  0  0  0
   -5.6656   -1.3334    1.4443 H   0  0  0  0  0  0  0  0  0  0  0  0
   -4.1780    2.5499    1.1616 H   0  0  0  0  0  0  0  0  0  0  0  0
   -5.8103    4.3911    1.0842 H   0  0  0  0  0  0  0  0  0  0  0  0
   -8.0670    3.9893    0.1201 H   0  0  0  0  0  0  0  0  0  0  0  0
   -8.6352    1.7690   -0.7690 H   0  0  0  0  0  0  0  0  0  0  0  0
   -7.4796   -1.1380   -0.0929 H   0  0  0  0  0  0  0  0  0  0  0  0
   -7.9688   -0.3374   -1.5762 H   0  0  0  0  0  0  0  0  0  0  0  0
   -6.3213   -0.9380   -1.3950 H   0  0  0  0  0  0  0  0  0  0  0  0
 15 13  1  0
 13 14  1  0
 13 12  2  0
 14 19  2  0
 11 10  1  0
 11 12  1  0
 10  8  1  0
 12 16  1  0
 19 20  1  0
 19 17  1  0
 20 21  2  0
 16 17  2  0
  8  7  1  0
  8  9  2  0
  7  6  1  0
 17 18  1  0
 21 22  1  0
  2  1  1  6
 18 22  2  0
  6  5  1  0
 22 23  1  0
  5  2  1  0
  2  3  1  0
  2  4  1  0
 29 28  1  0
 23 28  1  0
 23 24  2  0
 28 27  2  0
 24 25  1  0
 27 26  1  0
 25 26  2  0
  1 30  1  0
  1 31  1  0
  1 32  1  0
  3 33  1  0
  3 34  1  0
  3 35  1  0
  4 36  1  0
  4 37  1  0
  4 38  1  0
  5 39  1  0
  5 40  1  0
  6 41  1  0
  6 42  1  0
  7 43  1  0
 10 44  1  0
 10 45  1  0
 11 46  1  0
 11 47  1  0
 15 48  1  0
 15 49  1  0
 16 50  1  0
 18 51  1  0
 20 52  1  0
 21 53  1  0
 24 54  1  0
 25 55  1  0
 26 56  1  0
 27 57  1  0
 29 58  1  0
 29 59  1  0
 29 60  1  0
M  END
