
     RDKit          3D

  9  8  0  0  0  0  0  0  0  0999 V2000
    0.0517    1.9779    0.3358 C   0  0  0  0  0  0  0  0  0  0  0  0
    0.0422    0.2132   -0.4785 As  0  0  0  0  0  0  0  0  0  0  0  0
    0.9519    2.5169    0.0381 H   0  0  0  0  0  0  0  0  0  0  0  0
   -0.8132    2.5466   -0.0079 H   0  0  0  0  0  0  0  0  0  0  0  0
    0.0220    1.9130    1.4248 H   0  0  0  0  0  0  0  0  0  0  0  0
    1.3804   -0.4087    0.5251 O   0  0  0  0  0  0  0  0  0  0  0  0
   -1.3551   -0.3668    0.4677 O   0  0  0  0  0  0  0  0  0  0  0  0
    1.7752   -1.1828    0.1072 H   0  0  0  0  0  0  0  0  0  0  0  0
   -1.7611   -1.1240    0.0301 H   0  0  0  0  0  0  0  0  0  0  0  0
  1  2  1  0
  1  3  1  0
  1  4  1  0
  1  5  1  0
  2  6  1  0
  2  7  1  0
  6  8  1  0
  7  9  1  0
M  END
