
     RDKit          3D

 58 61  0  0  0  0  0  0  0  0999 V2000
   -5.1823    3.7146    0.0612 N   0  0  0  0  0  0  0  0  0  0  0  0
   -4.8316    2.6369    0.8483 C   0  0  0  0  0  0  0  0  0  0  0  0
   -3.8784    1.7067    0.3887 C   0  0  0  0  0  0  0  0  0  0  0  0
   -3.2280    1.9283   -0.9463 C   0  0  0  0  0  0  0  0  0  0  0  0
   -3.5834    0.6072    1.1909 C   0  0  0  0  0  0  0  0  0  0  0  0
   -2.5276   -0.3739    0.7805 C   0  0  0  0  0  0  0  0  0  0  0  0
   -2.9280   -1.3959    0.0126 N   0  0  0  0  0  0  0  0  0  0  0  0
   -1.9821   -2.4125   -0.4078 C   0  0  2  0  0  0  0  0  0  0  0  0
   -0.9333   -1.8208   -1.3466 C   0  0  0  0  0  0  0  0  0  0  0  0
    0.2685   -2.4125   -1.2660 N   0  0  0  0  0  0  0  0  0  0  0  0
    1.4046   -2.0420   -2.0671 C   0  0  0  0  0  0  0  0  0  0  0  0
    2.3967   -1.1533   -1.3536 C   0  0  0  0  0  0  0  0  0  0  0  0
    3.6969   -1.0581   -1.8447 C   0  0  0  0  0  0  0  0  0  0  0  0
    4.6295   -0.2336   -1.2404 C   0  0  0  0  0  0  0  0  0  0  0  0
    4.2907    0.5196   -0.1136 C   0  0  0  0  0  0  0  0  0  0  0  0
    5.2732    1.3886    0.5356 C   0  0  0  0  0  0  0  0  0  0  0  0
    5.1344    2.6645    1.0155 C   0  0  0  0  0  0  0  0  0  0  0  0
    3.9024    3.5042    0.9547 C   0  0  0  0  0  0  0  0  0  0  0  0
    6.2669    3.1918    1.5753 N   0  0  0  0  0  0  0  0  0  0  0  0
    7.2543    2.3595    1.5321 C   0  0  0  0  0  0  0  0  0  0  0  0
    6.8925    0.8519    0.8056 S   0  0  0  0  0  0  0  0  0  0  0  0
    2.9935    0.4104    0.3854 C   0  0  0  0  0  0  0  0  0  0  0  0
    2.0574   -0.4079   -0.2307 C   0  0  0  0  0  0  0  0  0  0  0  0
   -1.2033   -0.9288   -2.1339 O   0  0  0  0  0  0  0  0  0  0  0  0
   -2.8638   -3.4349   -1.1344 C   0  0  0  0  0  0  0  0  0  0  0  0
   -4.0294   -2.6047   -1.6536 C   0  0  1  0  0  0  0  0  0  0  0  0
   -5.1322   -3.4205   -1.9376 O   0  0  0  0  0  0  0  0  0  0  0  0
   -4.2663   -1.6126   -0.5113 C   0  0  0  0  0  0  0  0  0  0  0  0
   -1.3694   -0.2586    1.1618 O   0  0  0  0  0  0  0  0  0  0  0  0
   -4.2128    0.4018    2.4155 C   0  0  0  0  0  0  0  0  0  0  0  0
   -5.1580    1.3181    2.8488 C   0  0  0  0  0  0  0  0  0  0  0  0
   -5.4619    2.4269    2.0780 C   0  0  0  0  0  0  0  0  0  0  0  0
   -4.4639    4.0849   -0.5400 H   0  0  0  0  0  0  0  0  0  0  0  0
   -5.6754    4.4523    0.5388 H   0  0  0  0  0  0  0  0  0  0  0  0
   -6.1938    3.1451    2.4293 H   0  0  0  0  0  0  0  0  0  0  0  0
   -2.5726    2.8037   -0.9335 H   0  0  0  0  0  0  0  0  0  0  0  0
   -2.6269    1.0814   -1.2716 H   0  0  0  0  0  0  0  0  0  0  0  0
   -3.9805    2.1054   -1.7184 H   0  0  0  0  0  0  0  0  0  0  0  0
   -3.9685   -0.4617    3.0209 H   0  0  0  0  0  0  0  0  0  0  0  0
   -1.4930   -2.8623    0.4598 H   0  0  0  0  0  0  0  0  0  0  0  0
   -4.9200   -2.0613    0.2432 H   0  0  0  0  0  0  0  0  0  0  0  0
   -4.7213   -0.6826   -0.8499 H   0  0  0  0  0  0  0  0  0  0  0  0
   -2.3313   -3.9750   -1.9175 H   0  0  0  0  0  0  0  0  0  0  0  0
   -3.2340   -4.1689   -0.4147 H   0  0  0  0  0  0  0  0  0  0  0  0
    0.4137   -3.1116   -0.5550 H   0  0  0  0  0  0  0  0  0  0  0  0
    1.9074   -2.9509   -2.4020 H   0  0  0  0  0  0  0  0  0  0  0  0
    1.0458   -1.5389   -2.9660 H   0  0  0  0  0  0  0  0  0  0  0  0
    3.9867   -1.6336   -2.7163 H   0  0  0  0  0  0  0  0  0  0  0  0
    1.0610   -0.4715    0.1880 H   0  0  0  0  0  0  0  0  0  0  0  0
    5.6284   -0.1706   -1.6550 H   0  0  0  0  0  0  0  0  0  0  0  0
    2.7120    0.9530    1.2789 H   0  0  0  0  0  0  0  0  0  0  0  0
    3.3922    3.5305    1.9197 H   0  0  0  0  0  0  0  0  0  0  0  0
    4.1592    4.5312    0.6961 H   0  0  0  0  0  0  0  0  0  0  0  0
    3.1940    3.1320    0.2173 H   0  0  0  0  0  0  0  0  0  0  0  0
    8.2426    2.5702    1.9169 H   0  0  0  0  0  0  0  0  0  0  0  0
   -3.7102   -2.0479   -2.5421 H   0  0  0  0  0  0  0  0  0  0  0  0
   -5.7777   -2.9022   -2.4276 H   0  0  0  0  0  0  0  0  0  0  0  0
   -5.6570    1.1740    3.7985 H   0  0  0  0  0  0  0  0  0  0  0  0
  1  2  1  0
  2  3  2  0
  2 32  1  0
  3  4  1  0
  3  5  1  0
  5  6  1  0
  5 30  2  0
  6  7  1  0
  6 29  2  0
  7  8  1  0
  7 28  1  0
  8  9  1  0
  8 25  1  0
  9 10  1  0
  9 24  2  0
 10 11  1  0
 11 12  1  0
 12 13  2  0
 12 23  1  0
 13 14  1  0
 14 15  2  0
 15 16  1  0
 15 22  1  0
 16 17  2  0
 16 21  1  0
 17 18  1  0
 17 19  1  0
 19 20  2  0
 20 21  1  0
 22 23  2  0
 25 26  1  0
 26 27  1  0
 26 28  1  0
 30 31  1  0
 31 32  2  0
  1 33  1  0
  1 34  1  0
 32 35  1  0
  4 36  1  0
  4 37  1  0
  4 38  1  0
 30 39  1  0
  8 40  1  1
 28 41  1  0
 28 42  1  0
 25 43  1  0
 25 44  1  0
 10 45  1  0
 11 46  1  0
 11 47  1  0
 13 48  1  0
 23 49  1  0
 14 50  1  0
 22 51  1  0
 18 52  1  0
 18 53  1  0
 18 54  1  0
 20 55  1  0
 26 56  1  6
 27 57  1  0
 31 58  1  0
M  END
