
     RDKit          3D

 38 39  0  0  0  0  0  0  0  0999 V2000
    6.3054   -0.6175    0.1381 C   0  0  0  0  0  0  0  0  0  0  0  0
   -3.9432    3.1456   -0.2442 C   0  0  0  0  0  0  0  0  0  0  0  0
   -4.9629    2.3947    0.3294 C   0  0  0  0  0  0  0  0  0  0  0  0
   -4.7577    1.0610    0.6345 C   0  0  0  0  0  0  0  0  0  0  0  0
   -3.5222    0.4713    0.3868 C   0  0  0  0  0  0  0  0  0  0  0  0
   -2.4876    1.2265   -0.1713 C   0  0  0  0  0  0  0  0  0  0  0  0
   -2.7162    2.5591   -0.5036 C   0  0  0  0  0  0  0  0  0  0  0  0
   -1.2728    0.5563   -0.4407 N   0  0  0  0  0  0  0  0  0  0  0  0
   -1.4766   -0.8417   -0.7630 C   0  0  0  0  0  0  0  0  0  0  0  0
   -2.1875   -1.5006    0.4126 C   0  0  1  0  0  0  0  0  0  0  0  0
   -3.3940   -0.8349    0.7078 O   0  0  0  0  0  0  0  0  0  0  0  0
   -2.5442   -2.9441    0.0636 C   0  0  0  0  0  0  0  0  0  0  0  0
   -3.5781   -3.2151   -0.5179 O   0  0  0  0  0  0  0  0  0  0  0  0
   -1.5993   -3.8297    0.3938 N   0  0  0  0  0  0  0  0  0  0  0  0
   -0.0660    1.0950   -0.1014 C   0  0  0  0  0  0  0  0  0  0  0  0
    0.0458    2.2221    0.3376 O   0  0  0  0  0  0  0  0  0  0  0  0
    1.1517    0.2201   -0.3083 C   0  0  0  0  0  0  0  0  0  0  0  0
    2.6225    1.1804    0.1172 S   0  0  0  0  0  0  0  0  0  0  0  0
    3.8531   -0.1342   -0.1180 C   0  0  0  0  0  0  0  0  0  0  0  0
    5.2114    0.4045    0.2916 C   0  0  0  0  0  0  0  0  0  0  0  0
    6.1438   -1.7552   -0.2248 O   0  0  0  0  0  0  0  0  0  0  0  0
    7.4915   -0.1131    0.4568 O   0  0  0  0  0  0  0  0  0  0  0  0
   -5.9258    2.8449    0.5318 H   0  0  0  0  0  0  0  0  0  0  0  0
   -5.5496    0.4639    1.0688 H   0  0  0  0  0  0  0  0  0  0  0  0
   -1.9355    3.1366   -0.9758 H   0  0  0  0  0  0  0  0  0  0  0  0
   -2.0848   -0.9142   -1.6676 H   0  0  0  0  0  0  0  0  0  0  0  0
   -0.5380   -1.3477   -0.9668 H   0  0  0  0  0  0  0  0  0  0  0  0
   -1.5285   -1.4685    1.2889 H   0  0  0  0  0  0  0  0  0  0  0  0
   -0.7939   -3.5773    0.9413 H   0  0  0  0  0  0  0  0  0  0  0  0
   -1.7047   -4.8030    0.1558 H   0  0  0  0  0  0  0  0  0  0  0  0
    1.1016   -0.6657    0.3314 H   0  0  0  0  0  0  0  0  0  0  0  0
    1.2129   -0.1275   -1.3425 H   0  0  0  0  0  0  0  0  0  0  0  0
    3.5773   -0.9934    0.4950 H   0  0  0  0  0  0  0  0  0  0  0  0
    3.8592   -0.4495   -1.1617 H   0  0  0  0  0  0  0  0  0  0  0  0
    5.1969    0.7356    1.3342 H   0  0  0  0  0  0  0  0  0  0  0  0
    5.4780    1.2853   -0.2994 H   0  0  0  0  0  0  0  0  0  0  0  0
    8.1795   -0.7871    0.3507 H   0  0  0  0  0  0  0  0  0  0  0  0
   -4.1064    4.1831   -0.5020 H   0  0  0  0  0  0  0  0  0  0  0  0
  3  2  2  0
  3  4  1  0
  2  7  1  0
  4  5  2  0
  7  6  2  0
  5  6  1  0
  5 11  1  0
  6  8  1  0
 16 15  2  0
 11 10  1  0
  8 15  1  0
  8  9  1  0
 15 17  1  0
 10  9  1  0
 10 12  1  0
 13 12  2  0
 17 18  1  0
 12 14  1  0
 19 18  1  0
 19 20  1  0
 20  1  1  0
  1 21  2  0
  1 22  1  0
  2 38  1  0
  3 23  1  0
  4 24  1  0
  7 25  1  0
  9 26  1  0
  9 27  1  0
 10 28  1  1
 14 29  1  0
 14 30  1  0
 17 31  1  0
 17 32  1  0
 19 33  1  0
 19 34  1  0
 20 35  1  0
 20 36  1  0
 22 37  1  0
M  END
