
     RDKit          3D

 62 67  0  0  0  0  0  0  0  0999 V2000
   -3.8668    1.1022    0.2586 C   0  0  0  0  0  0  0  0  0  0  0  0
   -2.9545    2.1545    0.5677 C   0  0  0  0  0  0  0  0  0  0  0  0
   -3.2506    3.4480    0.2659 C   0  0  0  0  0  0  0  0  0  0  0  0
   -4.4798    3.7833   -0.3614 C   0  0  0  0  0  0  0  0  0  0  0  0
   -5.3777    2.8098   -0.6697 C   0  0  0  0  0  0  0  0  0  0  0  0
   -5.1040    1.4430   -0.3752 C   0  0  0  0  0  0  0  0  0  0  0  0
   -6.0122    0.4380   -0.6908 C   0  0  0  0  0  0  0  0  0  0  0  0
   -5.7420   -0.8971   -0.4094 C   0  0  0  0  0  0  0  0  0  0  0  0
   -6.6706   -1.9265   -0.7383 C   0  0  0  0  0  0  0  0  0  0  0  0
   -6.3913   -3.2295   -0.4680 C   0  0  0  0  0  0  0  0  0  0  0  0
   -5.1612   -3.5817    0.1486 C   0  0  0  0  0  0  0  0  0  0  0  0
   -4.2498   -2.6276    0.4811 C   0  0  0  0  0  0  0  0  0  0  0  0
   -4.5050   -1.2487    0.2193 C   0  0  0  0  0  0  0  0  0  0  0  0
   -3.5894   -0.2403    0.5359 C   0  0  0  0  0  0  0  0  0  0  0  0
   -2.3321   -0.5884    1.2824 C   0  0  0  0  0  0  0  0  0  0  0  0
   -2.3480   -0.5842    2.5072 O   0  0  0  0  0  0  0  0  0  0  0  0
   -1.2505   -0.8942    0.5488 N   0  0  0  0  0  0  0  0  0  0  0  0
   -1.1873   -0.8274   -0.9018 C   0  0  0  0  0  0  0  0  0  0  0  0
   -0.1954    0.2388   -1.3466 C   0  0  0  0  0  0  0  0  0  0  0  0
    0.0321   -1.1694    1.1758 C   0  0  0  0  0  0  0  0  0  0  0  0
    1.0555   -0.1089    0.7911 C   0  0  0  0  0  0  0  0  0  0  0  0
    1.1836    0.0262   -0.7249 C   0  0  2  0  0  0  0  0  0  0  0  0
    2.1353    1.1554   -1.1387 C   0  0  0  0  0  0  0  0  0  0  0  0
    3.5395    0.9655   -0.6399 C   0  0  0  0  0  0  0  0  0  0  0  0
    4.4335    0.1759   -1.3205 C   0  0  0  0  0  0  0  0  0  0  0  0
    5.7412   -0.0345   -0.8364 C   0  0  0  0  0  0  0  0  0  0  0  0
    6.6936   -0.8371   -1.5059 C   0  0  0  0  0  0  0  0  0  0  0  0
    7.9354   -0.9901   -0.9669 C   0  0  0  0  0  0  0  0  0  0  0  0
    8.2534   -0.3400    0.2553 C   0  0  0  0  0  0  0  0  0  0  0  0
    9.6232   -0.5012    0.8390 C   0  0  0  0  0  0  0  0  0  0  0  0
    7.3916    0.4095    0.8924 N   0  0  0  0  0  0  0  0  0  0  0  0
    6.1493    0.5746    0.3734 C   0  0  0  0  0  0  0  0  0  0  0  0
    5.2236    1.3876    1.0621 C   0  0  0  0  0  0  0  0  0  0  0  0
    3.9620    1.5748    0.5650 C   0  0  0  0  0  0  0  0  0  0  0  0
   -2.0142    1.9263    1.0540 H   0  0  0  0  0  0  0  0  0  0  0  0
   -2.5455    4.2324    0.5074 H   0  0  0  0  0  0  0  0  0  0  0  0
   -4.6976    4.8182   -0.5891 H   0  0  0  0  0  0  0  0  0  0  0  0
   -6.3176    3.0596   -1.1461 H   0  0  0  0  0  0  0  0  0  0  0  0
   -6.9492    0.7020   -1.1684 H   0  0  0  0  0  0  0  0  0  0  0  0
   -7.6045   -1.6481   -1.2114 H   0  0  0  0  0  0  0  0  0  0  0  0
   -7.1015   -4.0052   -0.7223 H   0  0  0  0  0  0  0  0  0  0  0  0
   -4.9488   -4.6225    0.3542 H   0  0  0  0  0  0  0  0  0  0  0  0
   -3.3203   -2.9264    0.9485 H   0  0  0  0  0  0  0  0  0  0  0  0
   -0.8787   -1.8072   -1.2802 H   0  0  0  0  0  0  0  0  0  0  0  0
   -2.1740   -0.6243   -1.3108 H   0  0  0  0  0  0  0  0  0  0  0  0
   -0.1252    0.2237   -2.4368 H   0  0  0  0  0  0  0  0  0  0  0  0
   -0.5802    1.2253   -1.0648 H   0  0  0  0  0  0  0  0  0  0  0  0
   -0.0954   -1.2142    2.2538 H   0  0  0  0  0  0  0  0  0  0  0  0
    0.3731   -2.1559    0.8449 H   0  0  0  0  0  0  0  0  0  0  0  0
    0.7637    0.8536    1.2267 H   0  0  0  0  0  0  0  0  0  0  0  0
    2.0155   -0.3780    1.2375 H   0  0  0  0  0  0  0  0  0  0  0  0
    1.5895   -0.9172   -1.1149 H   0  0  0  0  0  0  0  0  0  0  0  0
    2.1386    1.2199   -2.2301 H   0  0  0  0  0  0  0  0  0  0  0  0
    1.7386    2.1075   -0.7727 H   0  0  0  0  0  0  0  0  0  0  0  0
    4.1416   -0.2975   -2.2520 H   0  0  0  0  0  0  0  0  0  0  0  0
    6.4276   -1.3222   -2.4374 H   0  0  0  0  0  0  0  0  0  0  0  0
    8.6815   -1.6020   -1.4566 H   0  0  0  0  0  0  0  0  0  0  0  0
   10.3655    0.0157    0.2271 H   0  0  0  0  0  0  0  0  0  0  0  0
    9.6682   -0.0914    1.8457 H   0  0  0  0  0  0  0  0  0  0  0  0
    9.9150   -1.5515    0.8744 H   0  0  0  0  0  0  0  0  0  0  0  0
    5.5328    1.8602    1.9858 H   0  0  0  0  0  0  0  0  0  0  0  0
    3.2658    2.2064    1.1041 H   0  0  0  0  0  0  0  0  0  0  0  0
  6  1  1  0
  2  1  2  0
  1 14  1  0
  3  2  1  0
  2 35  1  0
  4  3  2  0
  3 36  1  0
  4  5  1  0
  4 37  1  0
  5  6  2  0
  5 38  1  0
  6  7  1  0
  7  8  2  0
  7 39  1  0
  8  9  1  0
  8 13  1  0
  9 10  2  0
  9 40  1  0
 10 11  1  0
 10 41  1  0
 12 11  2  0
 11 42  1  0
 13 12  1  0
 12 43  1  0
 14 13  2  0
 14 15  1  0
 16 15  2  0
 15 17  1  0
 17 20  1  0
 17 18  1  0
 18 19  1  0
 18 44  1  0
 18 45  1  0
 19 22  1  0
 19 46  1  0
 19 47  1  0
 20 21  1  0
 20 48  1  0
 20 49  1  0
 21 22  1  0
 21 50  1  0
 21 51  1  0
 22 23  1  0
 22 52  1  6
 23 24  1  0
 23 53  1  0
 23 54  1  0
 24 25  2  0
 24 34  1  0
 25 26  1  0
 25 55  1  0
 26 27  2  0
 26 32  1  0
 27 28  1  0
 27 56  1  0
 28 29  2  0
 28 57  1  0
 31 29  1  0
 29 30  1  0
 30 58  1  0
 30 59  1  0
 30 60  1  0
 32 31  2  0
 33 32  1  0
 34 33  2  0
 33 61  1  0
 34 62  1  0
M  END
