
     RDKit          3D

 53 56  0  0  0  0  0  0  0  0999 V2000
    3.8592   -6.2450   -1.9244 C   0  0  0  0  0  0  0  0  0  0  0  0
    5.2178   -6.5246   -1.8833 C   0  0  0  0  0  0  0  0  0  0  0  0
    5.9640   -6.0207   -0.8293 C   0  0  0  0  0  0  0  0  0  0  0  0
    5.3587   -5.2577    0.1568 C   0  0  0  0  0  0  0  0  0  0  0  0
    3.3711   -4.1564    1.1743 C   0  0  0  0  0  0  0  0  0  0  0  0
   -0.7371   -0.6663    0.4247 C   0  0  0  0  0  0  0  0  0  0  0  0
   -1.6843    1.5414    1.2160 C   0  0  0  0  0  0  0  0  0  0  0  0
   -2.2961    4.1996    0.5901 C   0  0  0  0  0  0  0  0  0  0  0  0
   -2.8915    2.1249    1.5670 C   0  0  0  0  0  0  0  0  0  0  0  0
   -0.4137    0.0764    2.7998 C   0  0  1  0  0  0  0  0  0  0  0  0
   -0.0690   -1.3790    3.1366 C   0  0  0  0  0  0  0  0  0  0  0  0
   -3.8049    1.4001    2.2302 F   0  0  0  0  0  0  0  0  0  0  0  0
   -3.2208    3.4337    1.2659 C   0  0  0  0  0  0  0  0  0  0  0  0
   -2.5739    5.4678    0.2793 F   0  0  0  0  0  0  0  0  0  0  0  0
   -1.0756    3.6588    0.2292 C   0  0  0  0  0  0  0  0  0  0  0  0
   -0.1913    4.4201   -0.4259 F   0  0  0  0  0  0  0  0  0  0  0  0
   -0.7742    2.3499    0.5377 C   0  0  0  0  0  0  0  0  0  0  0  0
   -1.3495    0.1201    1.5840 C   0  0  2  0  0  0  0  0  0  0  0  0
   -0.4082   -2.0903    0.8489 C   0  0  0  0  0  0  0  0  0  0  0  0
   -1.0140    0.7757    3.9170 N   0  0  0  0  0  0  0  0  0  0  0  0
    0.4798   -2.0885    1.9960 N   0  0  0  0  0  0  0  0  0  0  0  0
    1.6481   -2.7570    2.0583 C   0  0  0  0  0  0  0  0  0  0  0  0
    2.1829   -3.4895    0.9740 C   0  0  0  0  0  0  0  0  0  0  0  0
    2.3271   -2.7145    3.2135 N   0  0  0  0  0  0  0  0  0  0  0  0
    3.4678   -3.3715    3.2796 C   0  0  0  0  0  0  0  0  0  0  0  0
    4.0354   -4.0993    2.3384 N   0  0  0  0  0  0  0  0  0  0  0  0
    3.9939   -4.9720    0.1074 C   0  0  0  0  0  0  0  0  0  0  0  0
    3.2407   -5.4834   -0.9458 C   0  0  0  0  0  0  0  0  0  0  0  0
    2.8798   -6.8849   -3.2616 S   0  0  1  0  0  0  0  0  0  0  0  0
    3.5372   -8.0818   -3.7809 O   0  0  0  0  0  0  0  0  0  0  0  0
    1.4943   -6.9826   -2.8073 O   0  0  0  0  0  0  0  0  0  0  0  0
    2.9753   -5.6131   -4.4999 C   0  0  0  0  0  0  0  0  0  0  0  0
    5.6900   -7.1263   -2.6479 H   0  0  0  0  0  0  0  0  0  0  0  0
    7.0236   -6.2293   -0.7745 H   0  0  0  0  0  0  0  0  0  0  0  0
    5.9495   -4.8738    0.9769 H   0  0  0  0  0  0  0  0  0  0  0  0
    0.1773   -0.1851    0.0684 H   0  0  0  0  0  0  0  0  0  0  0  0
   -1.4338   -0.6980   -0.4150 H   0  0  0  0  0  0  0  0  0  0  0  0
    0.5154    0.5948    2.5356 H   0  0  0  0  0  0  0  0  0  0  0  0
    0.6412   -1.4077    3.9574 H   0  0  0  0  0  0  0  0  0  0  0  0
   -0.9825   -1.8912    3.4674 H   0  0  0  0  0  0  0  0  0  0  0  0
   -4.1766    3.8496    1.5568 H   0  0  0  0  0  0  0  0  0  0  0  0
    0.1928    1.9619    0.2422 H   0  0  0  0  0  0  0  0  0  0  0  0
   -2.2737   -0.3955    1.8686 H   0  0  0  0  0  0  0  0  0  0  0  0
   -1.3295   -2.6190    1.1190 H   0  0  0  0  0  0  0  0  0  0  0  0
    0.0291   -2.6253    0.0123 H   0  0  0  0  0  0  0  0  0  0  0  0
   -0.3722    0.7962    4.7000 H   0  0  0  0  0  0  0  0  0  0  0  0
   -1.8357    0.2747    4.2356 H   0  0  0  0  0  0  0  0  0  0  0  0
    1.6970   -3.5193    0.0117 H   0  0  0  0  0  0  0  0  0  0  0  0
    3.9963   -3.3093    4.2262 H   0  0  0  0  0  0  0  0  0  0  0  0
    2.1736   -5.3112   -0.9927 H   0  0  0  0  0  0  0  0  0  0  0  0
    4.0144   -5.4609   -4.7823 H   0  0  0  0  0  0  0  0  0  0  0  0
    2.4005   -5.9554   -5.3602 H   0  0  0  0  0  0  0  0  0  0  0  0
    2.5489   -4.6928   -4.1078 H   0  0  0  0  0  0  0  0  0  0  0  0
  1 29  1  0
  1 28  2  0
  1  2  1  0
  2  3  2  0
  2 33  1  0
  3  4  1  0
  3 34  1  0
  4 27  2  0
  4 35  1  0
  5 26  1  0
  5 27  1  0
  5 23  2  0
  6 19  1  0
  6 18  1  0
  6 36  1  0
  6 37  1  0
  7 18  1  0
  7 17  2  0
  7  9  1  0
  8 15  2  0
  8 13  1  0
  8 14  1  0
  9 12  1  0
  9 13  2  0
 10 11  1  0
 10 18  1  0
 10 20  1  0
 10 38  1  6
 11 21  1  0
 11 39  1  0
 11 40  1  0
 13 41  1  0
 15 17  1  0
 15 16  1  0
 17 42  1  0
 18 43  1  1
 19 21  1  0
 19 44  1  0
 19 45  1  0
 20 46  1  0
 20 47  1  0
 21 22  1  0
 22 24  2  0
 22 23  1  0
 23 48  1  0
 24 25  1  0
 25 26  2  0
 25 49  1  0
 27 28  1  0
 28 50  1  0
 29 32  1  6
 29 31  2  0
 29 30  2  0
 32 51  1  0
 32 52  1  0
 32 53  1  0
M  END
