
     RDKit          3D

 47 50  0  0  0  0  0  0  0  0999 V2000
   -6.7668    1.5397   -0.0119 N   0  0  0  0  0  0  0  0  0  0  0  0
   -5.8321    0.6659    0.4562 C   0  0  0  0  0  0  0  0  0  0  0  0
   -6.1825   -0.4202    1.0305 N   0  0  0  0  0  0  0  0  0  0  0  0
   -4.4200    1.1132    0.2834 C   0  0  0  0  0  0  0  0  0  0  0  0
   -4.0743    2.4771    0.4150 C   0  0  0  0  0  0  0  0  0  0  0  0
   -2.7702    2.8677    0.3129 C   0  0  0  0  0  0  0  0  0  0  0  0
   -1.7453    1.9310    0.0464 C   0  0  0  0  0  0  0  0  0  0  0  0
   -0.3972    2.3349   -0.0254 C   0  0  0  0  0  0  0  0  0  0  0  0
    0.5845    1.4094   -0.2629 C   0  0  0  0  0  0  0  0  0  0  0  0
    0.2490    0.0601   -0.4988 C   0  0  0  0  0  0  0  0  0  0  0  0
   -1.0542   -0.3689   -0.4381 C   0  0  0  0  0  0  0  0  0  0  0  0
   -1.4160   -1.6837   -0.7079 N   0  0  0  0  0  0  0  0  0  0  0  0
   -0.7131   -2.8314   -0.4747 C   0  0  0  0  0  0  0  0  0  0  0  0
   -1.2964   -3.9408   -0.9360 N   0  0  0  0  0  0  0  0  0  0  0  0
   -0.6598   -5.0770   -0.7131 C   0  0  0  0  0  0  0  0  0  0  0  0
    0.5519   -5.1378   -0.0401 C   0  0  0  0  0  0  0  0  0  0  0  0
    1.0582   -3.9257    0.3929 C   0  0  0  0  0  0  0  0  0  0  0  0
    0.4386   -2.7725    0.1833 N   0  0  0  0  0  0  0  0  0  0  0  0
   -2.0905    0.5653   -0.1278 C   0  0  0  0  0  0  0  0  0  0  0  0
   -3.4417    0.1862    0.0194 C   0  0  0  0  0  0  0  0  0  0  0  0
    2.0038    1.8764   -0.3019 C   0  0  0  0  0  0  0  0  0  0  0  0
    2.2884    3.0140   -0.6330 O   0  0  0  0  0  0  0  0  0  0  0  0
    2.9123    0.9442    0.0810 N   0  0  0  0  0  0  0  0  0  0  0  0
    4.3075    1.0342    0.1320 C   0  0  0  0  0  0  0  0  0  0  0  0
    5.0467    2.1318   -0.3118 C   0  0  0  0  0  0  0  0  0  0  0  0
    6.4329    2.1042   -0.2239 C   0  0  0  0  0  0  0  0  0  0  0  0
    7.1025    1.0079    0.2979 C   0  0  0  0  0  0  0  0  0  0  0  0
    6.3641   -0.0832    0.7383 C   0  0  0  0  0  0  0  0  0  0  0  0
    4.9829   -0.0716    0.6565 C   0  0  0  0  0  0  0  0  0  0  0  0
   -7.7182    1.2069   -0.0233 H   0  0  0  0  0  0  0  0  0  0  0  0
   -6.5259    2.1235   -0.7958 H   0  0  0  0  0  0  0  0  0  0  0  0
   -5.3770   -0.9001    1.4143 H   0  0  0  0  0  0  0  0  0  0  0  0
   -4.8405    3.2105    0.6282 H   0  0  0  0  0  0  0  0  0  0  0  0
   -2.5045    3.9091    0.4437 H   0  0  0  0  0  0  0  0  0  0  0  0
   -0.1500    3.3769    0.1325 H   0  0  0  0  0  0  0  0  0  0  0  0
    1.0156   -0.6467   -0.7761 H   0  0  0  0  0  0  0  0  0  0  0  0
   -2.3000   -1.8389   -1.1674 H   0  0  0  0  0  0  0  0  0  0  0  0
   -1.1345   -5.9780   -1.0857 H   0  0  0  0  0  0  0  0  0  0  0  0
    1.0658   -6.0708    0.1333 H   0  0  0  0  0  0  0  0  0  0  0  0
    1.9978   -3.8753    0.9316 H   0  0  0  0  0  0  0  0  0  0  0  0
   -3.7272   -0.8539   -0.0725 H   0  0  0  0  0  0  0  0  0  0  0  0
    2.5403    0.0792    0.4432 H   0  0  0  0  0  0  0  0  0  0  0  0
    4.5609    3.0010   -0.7216 H   0  0  0  0  0  0  0  0  0  0  0  0
    6.9918    2.9629   -0.5733 H   0  0  0  0  0  0  0  0  0  0  0  0
    8.1824    1.0019    0.3610 H   0  0  0  0  0  0  0  0  0  0  0  0
    6.8620   -0.9511    1.1501 H   0  0  0  0  0  0  0  0  0  0  0  0
    4.4210   -0.9318    1.0022 H   0  0  0  0  0  0  0  0  0  0  0  0
  2  1  1  0
  1 30  1  0
  1 31  1  0
  4  2  1  0
  2  3  2  0
  3 32  1  0
 20  4  2  0
  4  5  1  0
  6  5  2  0
  5 33  1  0
  7  6  1  0
  6 34  1  0
  8  7  1  0
 19  7  2  0
  9  8  2  0
  8 35  1  0
 21  9  1  0
 10  9  1  0
 10 11  2  0
 10 36  1  0
 12 11  1  0
 11 19  1  0
 13 12  1  0
 12 37  1  0
 18 13  1  0
 13 14  2  0
 15 14  1  0
 16 15  2  0
 15 38  1  0
 17 16  1  0
 16 39  1  0
 17 18  2  0
 17 40  1  0
 19 20  1  0
 20 41  1  0
 22 21  2  0
 21 23  1  0
 24 23  1  0
 23 42  1  0
 29 24  1  0
 25 24  2  0
 26 25  1  0
 25 43  1  0
 27 26  2  0
 26 44  1  0
 27 28  1  0
 27 45  1  0
 28 29  2  0
 28 46  1  0
 29 47  1  0
M  END
