
     RDKit          3D

 21 20  0  0  0  0  0  0  0  0999 V2000
    0.7078    0.4714   -1.3051 C   0  0  0  0  0  0  0  0  0  0  0  0
    0.3119    0.0671   -2.6453 N   0  0  0  0  0  0  0  0  0  0  0  0
   -0.2323   -0.0786   -0.2211 C   0  0  2  0  0  0  0  0  0  0  0  0
   -0.2655   -1.6010   -0.2477 C   0  0  0  0  0  0  0  0  0  0  0  0
   -1.5614    0.3509   -0.4577 O   0  0  0  0  0  0  0  0  0  0  0  0
    0.2267    0.4592    1.1600 C   0  0  1  0  0  0  0  0  0  0  0  0
   -0.7003    0.0807    2.3056 C   0  0  0  0  0  0  0  0  0  0  0  0
    1.5640    0.0983    1.4515 O   0  0  0  0  0  0  0  0  0  0  0  0
    1.7381    0.1960   -1.0544 H   0  0  0  0  0  0  0  0  0  0  0  0
    0.6678    1.5660   -1.2588 H   0  0  0  0  0  0  0  0  0  0  0  0
    0.8094    0.6346   -3.3187 H   0  0  0  0  0  0  0  0  0  0  0  0
    0.6155   -0.8819   -2.8214 H   0  0  0  0  0  0  0  0  0  0  0  0
    0.7198   -2.0250   -0.0487 H   0  0  0  0  0  0  0  0  0  0  0  0
   -0.9594   -2.0019    0.4922 H   0  0  0  0  0  0  0  0  0  0  0  0
   -0.5872   -1.9680   -1.2230 H   0  0  0  0  0  0  0  0  0  0  0  0
   -1.5526    1.3016   -0.6117 H   0  0  0  0  0  0  0  0  0  0  0  0
    0.2402    1.5537    1.0800 H   0  0  0  0  0  0  0  0  0  0  0  0
   -0.3773    0.5724    3.2239 H   0  0  0  0  0  0  0  0  0  0  0  0
   -1.7278    0.3800    2.1097 H   0  0  0  0  0  0  0  0  0  0  0  0
   -0.6966   -0.9964    2.4897 H   0  0  0  0  0  0  0  0  0  0  0  0
    1.5780   -0.8307    1.7037 H   0  0  0  0  0  0  0  0  0  0  0  0
  1  2  1  0
  1  3  1  0
  1  9  1  0
  1 10  1  0
  2 11  1  0
  2 12  1  0
  3  4  1  0
  3  5  1  6
  3  6  1  0
  4 13  1  0
  4 14  1  0
  4 15  1  0
  5 16  1  0
  6  7  1  0
  6  8  1  0
  6 17  1  6
  7 18  1  0
  7 19  1  0
  7 20  1  0
  8 21  1  0
M  END
