
     RDKit          3D

 45 48  0  0  0  0  0  0  0  0999 V2000
    5.9104    2.5827   -0.0288 C   0  0  0  0  0  0  0  0  0  0  0  0
    5.9090    0.2237   -0.2905 O   0  0  0  0  0  0  0  0  0  0  0  0
    1.6199    2.1832    0.3090 C   0  0  0  0  0  0  0  0  0  0  0  0
    2.9931    2.3061    0.1874 C   0  0  0  0  0  0  0  0  0  0  0  0
    1.0090    0.9392    0.2623 C   0  0  0  0  0  0  0  0  0  0  0  0
   -2.5591   -3.0317    0.0074 C   0  0  0  0  0  0  0  0  0  0  0  0
   -1.4865   -3.8513   -0.0768 C   0  0  0  0  0  0  0  0  0  0  0  0
    1.8608   -2.7909   -0.0762 C   0  0  0  0  0  0  0  0  0  0  0  0
    3.1544   -0.0835   -0.0347 C   0  0  0  0  0  0  0  0  0  0  0  0
   -4.5124    2.7561    0.8470 C   0  0  0  0  0  0  0  0  0  0  0  0
   -3.0788    2.7745   -1.0007 C   0  0  0  0  0  0  0  0  0  0  0  0
   -4.5925    1.2367    0.8706 C   0  0  0  0  0  0  0  0  0  0  0  0
   -3.0642    1.2568   -1.0959 C   0  0  0  0  0  0  0  0  0  0  0  0
    1.0043   -3.8229   -0.1265 N   0  0  0  0  0  0  0  0  0  0  0  0
   -1.1550   -1.0706    0.1230 N   0  0  0  0  0  0  0  0  0  0  0  0
   -4.2839    3.2587   -0.4507 O   0  0  0  0  0  0  0  0  0  0  0  0
    5.2565    1.2320   -0.1169 C   0  0  0  0  0  0  0  0  0  0  0  0
    3.7715    1.1611    0.0160 C   0  0  0  0  0  0  0  0  0  0  0  0
    1.7696   -0.2243    0.0874 C   0  0  0  0  0  0  0  0  0  0  0  0
   -2.3453   -1.6151    0.1184 C   0  0  0  0  0  0  0  0  0  0  0  0
    1.2084   -1.5687    0.0260 C   0  0  0  0  0  0  0  0  0  0  0  0
   -0.1990   -3.2755   -0.0564 C   0  0  0  0  0  0  0  0  0  0  0  0
   -3.3205    0.6410    0.2806 C   0  0  2  0  0  0  0  0  0  0  0  0
   -0.1176   -1.9119    0.0425 N   0  0  0  0  0  0  0  0  0  0  0  0
    6.9910    2.4861   -0.0990 H   0  0  0  0  0  0  0  0  0  0  0  0
    5.5625    3.2312   -0.8346 H   0  0  0  0  0  0  0  0  0  0  0  0
    5.6580    3.0776    0.9101 H   0  0  0  0  0  0  0  0  0  0  0  0
    1.0100    3.0667    0.4454 H   0  0  0  0  0  0  0  0  0  0  0  0
    3.4433    3.2888    0.2270 H   0  0  0  0  0  0  0  0  0  0  0  0
   -0.0624    0.8724    0.3632 H   0  0  0  0  0  0  0  0  0  0  0  0
   -3.5681   -3.4208    0.0013 H   0  0  0  0  0  0  0  0  0  0  0  0
   -1.5882   -4.9244   -0.1575 H   0  0  0  0  0  0  0  0  0  0  0  0
    2.9283   -2.9490   -0.1122 H   0  0  0  0  0  0  0  0  0  0  0  0
    3.7759   -0.9582   -0.1723 H   0  0  0  0  0  0  0  0  0  0  0  0
   -3.7159    3.0869    1.5306 H   0  0  0  0  0  0  0  0  0  0  0  0
   -2.2205    3.1139   -0.4001 H   0  0  0  0  0  0  0  0  0  0  0  0
   -2.9757    3.2214   -1.9909 H   0  0  0  0  0  0  0  0  0  0  0  0
   -4.7317    0.9016    1.9011 H   0  0  0  0  0  0  0  0  0  0  0  0
   -5.4639    0.9021    0.2974 H   0  0  0  0  0  0  0  0  0  0  0  0
   -3.8376    0.9202   -1.7928 H   0  0  0  0  0  0  0  0  0  0  0  0
   -2.1005    0.9319   -1.4945 H   0  0  0  0  0  0  0  0  0  0  0  0
   -2.4865    0.9027    0.9406 H   0  0  0  0  0  0  0  0  0  0  0  0
   -3.4157   -0.8018    0.2551 N   0  0  0  0  0  0  0  0  0  0  0  0
   -5.4474    3.1929    1.2002 H   0  0  0  0  0  0  0  0  0  0  0  0
   -4.3181   -1.2006    0.0511 H   0  0  0  0  0  0  0  0  0  0  0  0
  1 17  1  0
  2 17  2  0
  3  4  2  0
  3  5  1  0
  4 18  1  0
  5 19  2  0
  6  7  2  0
  6 20  1  0
  7 22  1  0
  8 14  1  0
  8 21  2  0
  9 18  2  0
  9 19  1  0
 10 12  1  0
 10 16  1  0
 11 13  1  0
 11 16  1  0
 12 23  1  0
 13 23  1  0
 14 22  2  0
 15 20  2  0
 15 24  1  0
 43 20  1  0
 43 23  1  0
 17 18  1  0
 19 21  1  0
 21 24  1  0
 22 24  1  0
  1 25  1  0
  1 26  1  0
  1 27  1  0
  3 28  1  0
  4 29  1  0
  5 30  1  0
  6 31  1  0
  7 32  1  0
  8 33  1  0
  9 34  1  0
 10 44  1  0
 10 35  1  0
 11 36  1  0
 11 37  1  0
 12 38  1  0
 12 39  1  0
 13 40  1  0
 13 41  1  0
 43 45  1  0
 23 42  1  1
M  END
