
     RDKit          3D

 48 49  0  0  0  0  0  0  0  0999 V2000
   -4.0745   -2.9050   -2.0279 O   0  0  0  0  0  0  0  0  0  0  0  0
   -2.9001   -2.0238   -1.3676 P   0  0  1  0  0  0  0  0  0  0  0  0
   -1.8331   -1.5687   -2.2888 O   0  0  0  0  0  0  0  0  0  0  0  0
   -3.6125   -0.7475   -0.6952 O   0  0  0  0  0  0  0  0  0  0  0  0
   -2.3924   -3.1701   -0.0397 C   0  0  0  0  0  0  0  0  0  0  0  0
   -1.3195   -2.6444    0.6856 O   0  0  0  0  0  0  0  0  0  0  0  0
   -1.6541   -1.9347    1.8611 C   0  0  0  0  0  0  0  0  0  0  0  0
   -0.5428   -0.9503    2.1562 C   0  0  0  0  0  0  0  0  0  0  0  0
   -0.4796    0.1015    1.1577 N   0  0  0  0  0  0  0  0  0  0  0  0
   -1.2376    1.2794    1.5180 C   0  0  0  0  0  0  0  0  0  0  0  0
   -1.6812    2.0671    0.2867 C   0  0  0  0  0  0  0  0  0  0  0  0
   -2.7514    3.4479    0.7144 P   0  0  1  0  0  0  0  0  0  0  0  0
   -2.9772    4.1207   -0.7289 O   0  0  0  0  0  0  0  0  0  0  0  0
   -3.9811    3.1211    1.4769 O   0  0  0  0  0  0  0  0  0  0  0  0
   -1.8682    4.4830    1.5784 O   0  0  0  0  0  0  0  0  0  0  0  0
    0.8428    0.3495    0.6369 C   0  0  0  0  0  0  0  0  0  0  0  0
    1.1998   -0.7124   -0.3994 C   0  0  0  0  0  0  0  0  0  0  0  0
    2.5342   -0.5091   -0.9294 N   0  0  0  0  0  0  0  0  0  0  0  0
    3.7002   -0.8595   -0.3320 C   0  0  0  0  0  0  0  0  0  0  0  0
    3.8384   -1.5058    0.8444 N   0  0  0  0  0  0  0  0  0  0  0  0
    5.0765   -1.7087    1.1549 C   0  0  0  0  0  0  0  0  0  0  0  0
    6.1327   -1.3267    0.4007 N   0  0  0  0  0  0  0  0  0  0  0  0
    6.0681   -0.6587   -0.8268 C   0  0  0  0  0  0  0  0  0  0  0  0
    7.0768   -0.3574   -1.4403 O   0  0  0  0  0  0  0  0  0  0  0  0
    4.7017   -0.4242   -1.1808 C   0  0  0  0  0  0  0  0  0  0  0  0
    4.1661    0.1868   -2.2776 N   0  0  0  0  0  0  0  0  0  0  0  0
    2.8781    0.1193   -2.0885 C   0  0  0  0  0  0  0  0  0  0  0  0
   -4.3798   -2.5843   -2.8878 H   0  0  0  0  0  0  0  0  0  0  0  0
   -4.3788   -0.9391   -0.1396 H   0  0  0  0  0  0  0  0  0  0  0  0
   -3.2532   -3.4370    0.5862 H   0  0  0  0  0  0  0  0  0  0  0  0
   -2.0622   -4.0932   -0.5251 H   0  0  0  0  0  0  0  0  0  0  0  0
   -2.6008   -1.3944    1.7531 H   0  0  0  0  0  0  0  0  0  0  0  0
   -1.7737   -2.6290    2.7026 H   0  0  0  0  0  0  0  0  0  0  0  0
   -0.6880   -0.5485    3.1677 H   0  0  0  0  0  0  0  0  0  0  0  0
    0.4086   -1.4885    2.1893 H   0  0  0  0  0  0  0  0  0  0  0  0
   -2.1311    0.9473    2.0510 H   0  0  0  0  0  0  0  0  0  0  0  0
   -0.6888    1.9347    2.2125 H   0  0  0  0  0  0  0  0  0  0  0  0
   -0.8261    2.4560   -0.2711 H   0  0  0  0  0  0  0  0  0  0  0  0
   -2.2272    1.3996   -0.3816 H   0  0  0  0  0  0  0  0  0  0  0  0
   -3.6198    4.8435   -0.7319 H   0  0  0  0  0  0  0  0  0  0  0  0
   -1.0488    4.7788    1.1611 H   0  0  0  0  0  0  0  0  0  0  0  0
    0.8674    1.3244    0.1459 H   0  0  0  0  0  0  0  0  0  0  0  0
    1.6111    0.3841    1.4248 H   0  0  0  0  0  0  0  0  0  0  0  0
    1.1559   -1.7124    0.0287 H   0  0  0  0  0  0  0  0  0  0  0  0
    0.4846   -0.6863   -1.2201 H   0  0  0  0  0  0  0  0  0  0  0  0
    5.3260   -2.2178    2.0764 H   0  0  0  0  0  0  0  0  0  0  0  0
    7.0565   -1.5399    0.7543 H   0  0  0  0  0  0  0  0  0  0  0  0
    2.1248    0.5008   -2.7620 H   0  0  0  0  0  0  0  0  0  0  0  0
 24 23  2  0
 23 25  1  0
 23 22  1  0
 26 25  1  0
 26 27  2  0
 25 19  2  0
 22 21  1  0
 27 18  1  0
 14 12  2  0
 19 18  1  0
 19 20  1  0
 12 15  1  1
 21 20  2  0
 18 17  1  0
 12 11  1  0
 12 13  1  0
 11 10  1  0
 17 16  1  0
 16  9  1  0
 10  9  1  0
  9  8  1  0
  8  7  1  0
  7  6  1  0
  6  5  1  0
  3  2  2  0
  2  4  1  1
  5  2  1  0
  2  1  1  0
  1 28  1  0
  4 29  1  0
  5 30  1  0
  5 31  1  0
  7 32  1  0
  7 33  1  0
  8 34  1  0
  8 35  1  0
 10 36  1  0
 10 37  1  0
 11 38  1  0
 11 39  1  0
 13 40  1  0
 15 41  1  0
 16 42  1  0
 16 43  1  0
 17 44  1  0
 17 45  1  0
 21 46  1  0
 22 47  1  0
 27 48  1  0
M  END
