
     RDKit          3D

 40 42  0  0  0  0  0  0  0  0999 V2000
   -3.1228   -0.0029   -1.1805 C   0  0  2  0  0  0  0  0  0  0  0  0
   -3.5500    1.1277   -0.2295 C   0  0  0  0  0  0  0  0  0  0  0  0
   -3.9060    0.6169    1.1609 C   0  0  0  0  0  0  0  0  0  0  0  0
   -5.0132   -0.4285    1.1043 C   0  0  1  0  0  0  0  0  0  0  0  0
   -4.6051   -1.5743    0.1779 C   0  0  0  0  0  0  0  0  0  0  0  0
   -4.1992   -1.0867   -1.2114 C   0  0  0  0  0  0  0  0  0  0  0  0
    3.3377    0.0929    0.0058 C   0  0  0  0  0  0  0  0  0  0  0  0
    2.6167   -1.0746   -0.2924 C   0  0  0  0  0  0  0  0  0  0  0  0
    3.3024   -2.3323   -0.2955 C   0  0  0  0  0  0  0  0  0  0  0  0
    4.6167   -2.3565   -0.0088 C   0  0  0  0  0  0  0  0  0  0  0  0
    5.3054   -1.2139    0.2828 N   0  0  0  0  0  0  0  0  0  0  0  0
    4.7653    0.0438    0.3153 C   0  0  0  0  0  0  0  0  0  0  0  0
    2.6813    1.3249    0.0035 C   0  0  0  0  0  0  0  0  0  0  0  0
    1.3429    1.3892   -0.2829 C   0  0  0  0  0  0  0  0  0  0  0  0
    0.5904    0.2294   -0.5864 C   0  0  0  0  0  0  0  0  0  0  0  0
    1.2504   -0.9883   -0.5876 C   0  0  0  0  0  0  0  0  0  0  0  0
    0.5571    2.9355   -0.2564 Cl  0  0  0  0  0  0  0  0  0  0  0  0
   -0.7556    0.3782   -0.8825 N   0  0  0  0  0  0  0  0  0  0  0  0
   -1.7493   -0.5644   -0.8428 C   0  0  0  0  0  0  0  0  0  0  0  0
   -1.5388   -1.7310   -0.5831 O   0  0  0  0  0  0  0  0  0  0  0  0
   -5.3708   -0.8484    2.4528 N   0  0  0  0  0  0  0  0  0  0  0  0
   -3.0306    0.4253   -2.1862 H   0  0  0  0  0  0  0  0  0  0  0  0
   -2.7922    1.9112   -0.1558 H   0  0  0  0  0  0  0  0  0  0  0  0
   -4.4258    1.6122   -0.6700 H   0  0  0  0  0  0  0  0  0  0  0  0
   -3.0195    0.1836    1.6417 H   0  0  0  0  0  0  0  0  0  0  0  0
   -4.2212    1.4534    1.7894 H   0  0  0  0  0  0  0  0  0  0  0  0
   -5.9010    0.0540    0.6758 H   0  0  0  0  0  0  0  0  0  0  0  0
   -3.7800   -2.1232    0.6412 H   0  0  0  0  0  0  0  0  0  0  0  0
   -5.4348   -2.2815    0.0846 H   0  0  0  0  0  0  0  0  0  0  0  0
   -5.0759   -0.6576   -1.7069 H   0  0  0  0  0  0  0  0  0  0  0  0
   -3.8818   -1.9259   -1.8326 H   0  0  0  0  0  0  0  0  0  0  0  0
    2.7774   -3.2475   -0.5259 H   0  0  0  0  0  0  0  0  0  0  0  0
    5.1992   -3.2654    0.0088 H   0  0  0  0  0  0  0  0  0  0  0  0
    6.2920   -1.2894    0.4872 H   0  0  0  0  0  0  0  0  0  0  0  0
    3.2284    2.2290    0.2333 H   0  0  0  0  0  0  0  0  0  0  0  0
    0.7162   -1.8937   -0.8258 H   0  0  0  0  0  0  0  0  0  0  0  0
   -1.0468    1.3150   -1.1169 H   0  0  0  0  0  0  0  0  0  0  0  0
   -6.1149   -1.5349    2.4033 H   0  0  0  0  0  0  0  0  0  0  0  0
   -4.5843   -1.3350    2.8697 H   0  0  0  0  0  0  0  0  0  0  0  0
    5.4487    1.0231    0.5840 O   0  0  0  0  0  0  0  0  0  0  0  0
 19  1  1  0
  2  1  1  0
  1  6  1  0
  1 22  1  6
  2  3  1  0
  2 23  1  0
  2 24  1  0
  3  4  1  0
  3 25  1  0
  3 26  1  0
 21  4  1  0
  4  5  1  0
  4 27  1  6
  6  5  1  0
  5 28  1  0
  5 29  1  0
  6 30  1  0
  6 31  1  0
 12  7  1  0
  8  7  2  0
  7 13  1  0
  9  8  1  0
  8 16  1  0
 10  9  2  0
  9 32  1  0
 10 11  1  0
 10 33  1  0
 11 12  1  0
 11 34  1  0
 40 12  2  0
 13 14  2  0
 13 35  1  0
 15 14  1  0
 14 17  1  0
 16 15  2  0
 15 18  1  0
 16 36  1  0
 19 18  1  0
 18 37  1  0
 20 19  2  0
 21 38  1  0
 21 39  1  0
M  END
