
     RDKit          3D

 38 40  0  0  0  0  0  0  0  0999 V2000
   -3.3292   -0.4217   -0.0709 C   0  0  0  0  0  0  0  0  0  0  0  0
   -3.6632    0.9184    0.0307 C   0  0  0  0  0  0  0  0  0  0  0  0
   -4.9367    1.3446    0.4023 C   0  0  0  0  0  0  0  0  0  0  0  0
   -4.3203   -1.3666    0.2056 C   0  0  0  0  0  0  0  0  0  0  0  0
   -5.9016    0.3855    0.6820 C   0  0  0  0  0  0  0  0  0  0  0  0
    0.5750   -1.6242   -1.0726 C   0  0  0  0  0  0  0  0  0  0  0  0
   -0.4863   -2.2282   -1.7065 C   0  0  0  0  0  0  0  0  0  0  0  0
    0.2954   -0.6091   -0.1348 C   0  0  0  0  0  0  0  0  0  0  0  0
    2.6448   -0.1115    0.2195 C   0  0  0  0  0  0  0  0  0  0  0  0
    3.1232    0.2963   -1.0215 C   0  0  0  0  0  0  0  0  0  0  0  0
    4.4691    0.1454   -1.3224 C   0  0  0  0  0  0  0  0  0  0  0  0
    5.3185   -0.3863   -0.3786 C   0  0  0  0  0  0  0  0  0  0  0  0
    6.6302   -0.5277   -0.6541 F   0  0  0  0  0  0  0  0  0  0  0  0
    4.8703   -0.7880    0.8763 C   0  0  0  0  0  0  0  0  0  0  0  0
    5.6821   -1.3067    1.8127 O   0  0  0  0  0  0  0  0  0  0  0  0
    3.5163   -0.6550    1.1578 C   0  0  0  0  0  0  0  0  0  0  0  0
    1.2817    0.0455    0.5526 N   0  0  0  0  0  0  0  0  0  0  0  0
    0.9191    0.9828    1.6006 C   0  0  0  0  0  0  0  0  0  0  0  0
   -1.7925   -1.8423   -1.4135 C   0  0  0  0  0  0  0  0  0  0  0  0
   -1.9675   -0.8527   -0.4600 C   0  0  0  0  0  0  0  0  0  0  0  0
   -0.9509   -0.2560    0.1589 N   0  0  0  0  0  0  0  0  0  0  0  0
   -5.5902   -0.9638    0.5800 C   0  0  0  0  0  0  0  0  0  0  0  0
   -2.7642    1.8652   -0.2698 F   0  0  0  0  0  0  0  0  0  0  0  0
   -5.1510    2.6704    0.4590 O   0  0  0  0  0  0  0  0  0  0  0  0
   -4.0802   -2.4198    0.1440 H   0  0  0  0  0  0  0  0  0  0  0  0
   -6.8970    0.6961    0.9770 H   0  0  0  0  0  0  0  0  0  0  0  0
    1.5875   -1.9314   -1.2889 H   0  0  0  0  0  0  0  0  0  0  0  0
   -0.3027   -3.0079   -2.4344 H   0  0  0  0  0  0  0  0  0  0  0  0
    2.4534    0.7328   -1.7502 H   0  0  0  0  0  0  0  0  0  0  0  0
    4.8603    0.4571   -2.2821 H   0  0  0  0  0  0  0  0  0  0  0  0
    6.5895   -1.3689    1.4926 H   0  0  0  0  0  0  0  0  0  0  0  0
    3.1448   -0.9820    2.1214 H   0  0  0  0  0  0  0  0  0  0  0  0
    0.3345    0.5034    2.3860 H   0  0  0  0  0  0  0  0  0  0  0  0
    1.8300    1.3783    2.0416 H   0  0  0  0  0  0  0  0  0  0  0  0
    0.3349    1.8172    1.2094 H   0  0  0  0  0  0  0  0  0  0  0  0
   -2.6364   -2.2929   -1.9164 H   0  0  0  0  0  0  0  0  0  0  0  0
   -6.3482   -1.7024    0.8034 H   0  0  0  0  0  0  0  0  0  0  0  0
   -6.0625    2.8502    0.7154 H   0  0  0  0  0  0  0  0  0  0  0  0
 23  2  1  0
 24  3  1  0
  2  3  2  0
  2  1  1  0
 18 17  1  0
  3  5  1  0
  6  7  2  0
  6  8  1  0
  7 19  1  0
 17  8  1  0
 17  9  1  0
  8 21  2  0
 19 20  2  0
 21 20  1  0
 20  1  1  0
  1  4  2  0
 16  9  1  0
 16 14  2  0
  5 22  2  0
  9 10  2  0
 15 14  1  0
 14 12  1  0
  4 22  1  0
 10 11  1  0
 12 11  2  0
 12 13  1  0
  4 25  1  0
  5 26  1  0
  6 27  1  0
  7 28  1  0
 10 29  1  0
 11 30  1  0
 15 31  1  0
 16 32  1  0
 18 33  1  0
 18 34  1  0
 18 35  1  0
 19 36  1  0
 22 37  1  0
 24 38  1  0
M  END
