
     RDKit          3D

 31 33  0  0  0  0  0  0  0  0999 V2000
   -4.6593   -0.3706   -0.2144 C   0  0  0  0  0  0  0  0  0  0  0  0
   -3.9768    0.6978    0.3604 C   0  0  0  0  0  0  0  0  0  0  0  0
   -2.6045    0.7529    0.4256 C   0  0  0  0  0  0  0  0  0  0  0  0
   -1.8408   -0.2889   -0.1027 C   0  0  0  0  0  0  0  0  0  0  0  0
   -2.5122   -1.3652   -0.6822 C   0  0  0  0  0  0  0  0  0  0  0  0
   -3.8954   -1.4074   -0.7379 C   0  0  0  0  0  0  0  0  0  0  0  0
   -5.9983   -0.4403   -0.2808 O   0  0  0  0  0  0  0  0  0  0  0  0
   -4.7061    1.7035    0.8814 F   0  0  0  0  0  0  0  0  0  0  0  0
   -0.3686   -0.2430   -0.0489 C   0  0  0  0  0  0  0  0  0  0  0  0
    0.3233    0.9437   -0.1585 C   0  0  0  0  0  0  0  0  0  0  0  0
    1.7277    0.9989   -0.1006 C   0  0  0  0  0  0  0  0  0  0  0  0
    2.4811   -0.1892    0.0686 C   0  0  0  0  0  0  0  0  0  0  0  0
    1.7495   -1.4052    0.1750 C   0  0  0  0  0  0  0  0  0  0  0  0
    0.3747   -1.4277    0.1199 C   0  0  0  0  0  0  0  0  0  0  0  0
    2.4225    2.2277   -0.2168 C   0  0  0  0  0  0  0  0  0  0  0  0
    3.7826    2.2759   -0.1602 C   0  0  0  0  0  0  0  0  0  0  0  0
    4.5276    1.0843    0.0145 C   0  0  0  0  0  0  0  0  0  0  0  0
    3.8865   -0.1268    0.1249 C   0  0  0  0  0  0  0  0  0  0  0  0
    2.4472   -2.6344    0.3558 C   0  0  0  0  0  0  0  0  0  0  0  0
    3.0170   -3.6263    0.5001 N   0  0  0  0  0  0  0  0  0  0  0  0
    5.8601    1.2192    0.0610 O   0  0  0  0  0  0  0  0  0  0  0  0
   -2.1384    1.6020    0.9095 H   0  0  0  0  0  0  0  0  0  0  0  0
   -1.9540   -2.1822   -1.1202 H   0  0  0  0  0  0  0  0  0  0  0  0
   -4.3957   -2.2491   -1.1993 H   0  0  0  0  0  0  0  0  0  0  0  0
   -6.4111    0.3433    0.1007 H   0  0  0  0  0  0  0  0  0  0  0  0
   -0.2157    1.8712   -0.3138 H   0  0  0  0  0  0  0  0  0  0  0  0
   -0.1392   -2.3741    0.2283 H   0  0  0  0  0  0  0  0  0  0  0  0
    1.8543    3.1394   -0.3526 H   0  0  0  0  0  0  0  0  0  0  0  0
    4.3066    3.2191   -0.2480 H   0  0  0  0  0  0  0  0  0  0  0  0
    4.4662   -1.0341    0.2555 H   0  0  0  0  0  0  0  0  0  0  0  0
    6.2866    0.3658    0.2026 H   0  0  0  0  0  0  0  0  0  0  0  0
  1  2  2  0
  1  6  1  0
  1  7  1  0
  2  3  1  0
  2  8  1  0
  3  4  2  0
  3 22  1  0
  4  5  1  0
  4  9  1  0
  5  6  2  0
  5 23  1  0
  6 24  1  0
  7 25  1  0
  9 10  2  0
  9 14  1  0
 10 11  1  0
 10 26  1  0
 11 12  2  0
 11 15  1  0
 12 13  1  0
 12 18  1  0
 13 14  2  0
 13 19  1  0
 14 27  1  0
 15 16  2  0
 15 28  1  0
 16 17  1  0
 16 29  1  0
 17 18  2  0
 17 21  1  0
 18 30  1  0
 19 20  3  0
 21 31  1  0
M  END
