
     RDKit          3D

116117  0  0  0  0  0  0  0  0999 V2000
    4.0518   -0.8235    0.6533 C   0  0  0  0  0  0  0  0  0  0  0  0
   -4.9505   -1.2404    1.2185 O   0  0  0  0  0  0  0  0  0  0  0  0
    0.0719    0.1297    1.6483 O   0  0  0  0  0  0  0  0  0  0  0  0
    5.0739   -1.7491    1.2904 C   0  0  0  0  0  0  0  0  0  0  0  0
    5.8186   -2.5682    0.2442 C   0  0  0  0  0  0  0  0  0  0  0  0
    0.1904    3.7722    1.4018 O   0  0  0  0  0  0  0  0  0  0  0  0
    6.8189   -3.5473    0.8444 C   0  0  0  0  0  0  0  0  0  0  0  0
    7.5869   -4.3349   -0.2092 C   0  0  0  0  0  0  0  0  0  0  0  0
    8.5814   -5.3271    0.3801 C   0  0  0  0  0  0  0  0  0  0  0  0
    9.3526   -6.1046   -0.6787 C   0  0  0  0  0  0  0  0  0  0  0  0
  -15.8420   -0.6480    0.2743 C   0  0  0  0  0  0  0  0  0  0  0  0
  -16.9858   -1.3942    0.5280 C   0  0  0  0  0  0  0  0  0  0  0  0
  -17.3094   -2.4730   -0.2846 C   0  0  0  0  0  0  0  0  0  0  0  0
  -16.4813   -2.7974   -1.3517 C   0  0  0  0  0  0  0  0  0  0  0  0
  -15.3392   -2.0477   -1.6005 C   0  0  0  0  0  0  0  0  0  0  0  0
  -15.0028   -0.9630   -0.7924 C   0  0  0  0  0  0  0  0  0  0  0  0
  -13.7410   -0.1853   -1.0397 C   0  0  0  0  0  0  0  0  0  0  0  0
  -12.5337   -0.8014   -0.3308 C   0  0  0  0  0  0  0  0  0  0  0  0
  -11.2475   -0.0245   -0.5783 C   0  0  0  0  0  0  0  0  0  0  0  0
  -10.0404   -0.6348    0.1220 C   0  0  0  0  0  0  0  0  0  0  0  0
   -8.7531    0.1359   -0.1388 C   0  0  0  0  0  0  0  0  0  0  0  0
   -5.1256   -0.1896    0.6126 C   0  0  0  0  0  0  0  0  0  0  0  0
   -6.3480    0.2473    0.2767 N   0  0  0  0  0  0  0  0  0  0  0  0
   -7.5600   -0.4930    0.5617 C   0  0  0  0  0  0  0  0  0  0  0  0
   -3.9754    0.6868    0.1620 C   0  0  0  0  0  0  0  0  0  0  0  0
   -2.8098    0.6904    1.1416 C   0  0  0  0  0  0  0  0  0  0  0  0
   -0.4146    1.4477    1.5407 C   0  0  1  0  0  0  0  0  0  0  0  0
    0.6550    2.4756    1.1123 C   0  0  2  0  0  0  0  0  0  0  0  0
    2.0381    2.2015    1.7374 C   0  0  2  0  0  0  0  0  0  0  0  0
    2.9577    3.4154    1.7385 C   0  0  0  0  0  0  0  0  0  0  0  0
    3.1672    3.8259    0.4025 O   0  0  0  0  0  0  0  0  0  0  0  0
    4.3028    4.5983    0.1970 C   0  0  2  0  0  0  0  0  0  0  0  0
    4.2254    5.2202   -1.2005 C   0  0  2  0  0  0  0  0  0  0  0  0
    3.0270    5.9224   -1.4151 O   0  0  0  0  0  0  0  0  0  0  0  0
    4.3326    4.1319   -2.2618 C   0  0  1  0  0  0  0  0  0  0  0  0
    4.3862    4.6709   -3.5616 O   0  0  0  0  0  0  0  0  0  0  0  0
    5.6069    3.3187   -2.0438 C   0  0  1  0  0  0  0  0  0  0  0  0
    6.7626    4.0886   -2.2693 O   0  0  0  0  0  0  0  0  0  0  0  0
    5.6224    2.8006   -0.6132 C   0  0  1  0  0  0  0  0  0  0  0  0
    6.8823    2.0321   -0.2800 C   0  0  0  0  0  0  0  0  0  0  0  0
    6.7037    1.4092    0.9708 O   0  0  0  0  0  0  0  0  0  0  0  0
    5.4859    3.8564    0.3239 O   0  0  0  0  0  0  0  0  0  0  0  0
    2.6796    1.1137    1.0317 N   0  0  0  0  0  0  0  0  0  0  0  0
    3.3936    0.1352    1.6232 C   0  0  0  0  0  0  0  0  0  0  0  0
    3.4864    0.0207    2.8359 O   0  0  0  0  0  0  0  0  0  0  0  0
   10.3454   -7.1010   -0.0931 C   0  0  0  0  0  0  0  0  0  0  0  0
   11.1180   -7.8761   -1.1525 C   0  0  0  0  0  0  0  0  0  0  0  0
   12.1098   -8.8737   -0.5667 C   0  0  0  0  0  0  0  0  0  0  0  0
   12.8777   -9.6434   -1.6322 C   0  0  0  0  0  0  0  0  0  0  0  0
    4.5269   -0.2447   -0.1443 H   0  0  0  0  0  0  0  0  0  0  0  0
    3.2667   -1.4100    0.1631 H   0  0  0  0  0  0  0  0  0  0  0  0
    0.3823   -0.1577    0.7835 H   0  0  0  0  0  0  0  0  0  0  0  0
    5.7933   -1.1612    1.8648 H   0  0  0  0  0  0  0  0  0  0  0  0
    4.5811   -2.4189    1.9997 H   0  0  0  0  0  0  0  0  0  0  0  0
    5.1000   -3.1186   -0.3734 H   0  0  0  0  0  0  0  0  0  0  0  0
    6.3423   -1.8866   -0.4359 H   0  0  0  0  0  0  0  0  0  0  0  0
   -0.0105    3.8262    2.3430 H   0  0  0  0  0  0  0  0  0  0  0  0
    7.5278   -3.0026    1.4778 H   0  0  0  0  0  0  0  0  0  0  0  0
    6.2934   -4.2434    1.5074 H   0  0  0  0  0  0  0  0  0  0  0  0
    6.8769   -4.8704   -0.8494 H   0  0  0  0  0  0  0  0  0  0  0  0
    8.1174   -3.6361   -0.8657 H   0  0  0  0  0  0  0  0  0  0  0  0
    9.2890   -4.7936    1.0247 H   0  0  0  0  0  0  0  0  0  0  0  0
    8.0505   -6.0304    1.0313 H   0  0  0  0  0  0  0  0  0  0  0  0
    8.6447   -6.6352   -1.3253 H   0  0  0  0  0  0  0  0  0  0  0  0
    9.8851   -5.4006   -1.3279 H   0  0  0  0  0  0  0  0  0  0  0  0
  -17.6277   -1.1289    1.3587 H   0  0  0  0  0  0  0  0  0  0  0  0
  -18.2023   -3.0535   -0.0907 H   0  0  0  0  0  0  0  0  0  0  0  0
  -16.7269   -3.6336   -1.9942 H   0  0  0  0  0  0  0  0  0  0  0  0
  -14.7011   -2.3067   -2.4381 H   0  0  0  0  0  0  0  0  0  0  0  0
  -13.5414   -0.1404   -2.1141 H   0  0  0  0  0  0  0  0  0  0  0  0
  -13.8695    0.8467   -0.7018 H   0  0  0  0  0  0  0  0  0  0  0  0
  -12.7326   -0.8496    0.7446 H   0  0  0  0  0  0  0  0  0  0  0  0
  -12.4074   -1.8362   -0.6657 H   0  0  0  0  0  0  0  0  0  0  0  0
  -11.0567    0.0243   -1.6558 H   0  0  0  0  0  0  0  0  0  0  0  0
  -11.3782    1.0108   -0.2453 H   0  0  0  0  0  0  0  0  0  0  0  0
  -10.2271   -0.6764    1.2002 H   0  0  0  0  0  0  0  0  0  0  0  0
   -9.9154   -1.6720   -0.2064 H   0  0  0  0  0  0  0  0  0  0  0  0
   -8.5614    0.1748   -1.2158 H   0  0  0  0  0  0  0  0  0  0  0  0
   -8.8728    1.1714    0.1966 H   0  0  0  0  0  0  0  0  0  0  0  0
   -6.4328    1.1309   -0.1990 H   0  0  0  0  0  0  0  0  0  0  0  0
   -7.7377   -0.5255    1.6415 H   0  0  0  0  0  0  0  0  0  0  0  0
   -7.4410   -1.5282    0.2312 H   0  0  0  0  0  0  0  0  0  0  0  0
   -3.6349    0.3015   -0.8058 H   0  0  0  0  0  0  0  0  0  0  0  0
   -4.3221    1.7064   -0.0258 H   0  0  0  0  0  0  0  0  0  0  0  0
   -3.1394    1.0868    2.1070 H   0  0  0  0  0  0  0  0  0  0  0  0
   -2.4838   -0.3349    1.3198 H   0  0  0  0  0  0  0  0  0  0  0  0
   -1.3519    1.1803   -0.3724 H   0  0  0  0  0  0  0  0  0  0  0  0
   -1.9451    2.5635    0.5226 H   0  0  0  0  0  0  0  0  0  0  0  0
   -0.7184    1.7135    2.5625 H   0  0  0  0  0  0  0  0  0  0  0  0
    0.7643    2.4463    0.0211 H   0  0  0  0  0  0  0  0  0  0  0  0
    1.9114    1.8953    2.7790 H   0  0  0  0  0  0  0  0  0  0  0  0
    2.5361    4.2337    2.3322 H   0  0  0  0  0  0  0  0  0  0  0  0
    3.8977    3.1151    2.2135 H   0  0  0  0  0  0  0  0  0  0  0  0
    4.3798    5.3890    0.9567 H   0  0  0  0  0  0  0  0  0  0  0  0
    5.0928    5.8851   -1.2987 H   0  0  0  0  0  0  0  0  0  0  0  0
    3.1016    6.7941   -1.0162 H   0  0  0  0  0  0  0  0  0  0  0  0
    3.4753    3.4513   -2.1589 H   0  0  0  0  0  0  0  0  0  0  0  0
    3.6793    5.3194   -3.6506 H   0  0  0  0  0  0  0  0  0  0  0  0
    5.5802    2.4449   -2.7129 H   0  0  0  0  0  0  0  0  0  0  0  0
    6.6651    4.5245   -3.1230 H   0  0  0  0  0  0  0  0  0  0  0  0
    4.7829    2.1008   -0.5217 H   0  0  0  0  0  0  0  0  0  0  0  0
    7.0445    1.2972   -1.0791 H   0  0  0  0  0  0  0  0  0  0  0  0
    7.7479    2.7048   -0.2772 H   0  0  0  0  0  0  0  0  0  0  0  0
    7.4673    0.8493    1.1345 H   0  0  0  0  0  0  0  0  0  0  0  0
    2.7256    1.1877    0.0276 H   0  0  0  0  0  0  0  0  0  0  0  0
   11.0524   -6.5709    0.5549 H   0  0  0  0  0  0  0  0  0  0  0  0
    9.8125   -7.8061    0.5546 H   0  0  0  0  0  0  0  0  0  0  0  0
   10.4117   -8.4061   -1.8015 H   0  0  0  0  0  0  0  0  0  0  0  0
   11.6524   -7.1716   -1.7999 H   0  0  0  0  0  0  0  0  0  0  0  0
   12.8145   -8.3436    0.0818 H   0  0  0  0  0  0  0  0  0  0  0  0
   11.5751   -9.5771    0.0795 H   0  0  0  0  0  0  0  0  0  0  0  0
   13.4480   -8.9673   -2.2718 H   0  0  0  0  0  0  0  0  0  0  0  0
   13.5801  -10.3505   -1.1890 H   0  0  0  0  0  0  0  0  0  0  0  0
   12.2001  -10.2084   -2.2747 H   0  0  0  0  0  0  0  0  0  0  0  0
   -1.6387    1.5201    0.6310 C   0  0  0  0  0  0  0  0  0  0  0  0
  -15.6020    0.1956    0.9117 H   0  0  0  0  0  0  0  0  0  0  0  0
 32 42  1  0
 32 33  1  0
 32 31  1  0
 42 39  1  0
 34 33  1  0
 33 35  1  0
 41 40  1  0
  6 28  1  0
 30 31  1  0
 30 29  1  0
 38 37  1  0
 39 40  1  0
 39 37  1  0
 35 37  1  0
 35 36  1  0
 28 29  1  0
 28 27  1  0
 29 43  1  0
  3 27  1  0
115 27  1  0
115 26  1  0
 43 44  1  0
 45 44  2  0
 44  1  1  0
 26 25  1  0
 25 22  1  0
 12 13  1  0
 12 11  2  0
  1  4  1  0
 13 14  2  0
 11 16  1  0
  4  5  1  0
 22 23  1  0
 22  2  2  0
 23 24  1  0
 14 15  1  0
  5  7  1  0
 16 15  2  0
 16 17  1  0
 18 17  1  0
 18 19  1  0
 24 21  1  0
 20 19  1  0
 20 21  1  0
  7  8  1  0
  8  9  1  0
  9 10  1  0
 10 46  1  0
 47 46  1  0
 47 48  1  0
 48 49  1  0
  1 50  1  0
  1 51  1  0
  3 52  1  0
  4 53  1  0
  4 54  1  0
  5 55  1  0
  5 56  1  0
  6 57  1  0
  7 58  1  0
  7 59  1  0
  8 60  1  0
  8 61  1  0
  9 62  1  0
  9 63  1  0
 10 64  1  0
 10 65  1  0
 11116  1  0
 12 66  1  0
 13 67  1  0
 14 68  1  0
 15 69  1  0
 17 70  1  0
 17 71  1  0
 18 72  1  0
 18 73  1  0
 19 74  1  0
 19 75  1  0
 20 76  1  0
 20 77  1  0
 21 78  1  0
 21 79  1  0
 23 80  1  0
 24 81  1  0
 24 82  1  0
 25 83  1  0
 25 84  1  0
 26 85  1  0
 26 86  1  0
115 87  1  0
115 88  1  0
 27 89  1  1
 28 90  1  6
 29 91  1  1
 30 92  1  0
 30 93  1  0
 32 94  1  1
 33 95  1  6
 34 96  1  0
 35 97  1  6
 36 98  1  0
 37 99  1  6
 38100  1  0
 39101  1  6
 40102  1  0
 40103  1  0
 41104  1  0
 43105  1  0
 46106  1  0
 46107  1  0
 47108  1  0
 47109  1  0
 48110  1  0
 48111  1  0
 49112  1  0
 49113  1  0
 49114  1  0
M  END
