
     RDKit          3D

 71 71  0  0  0  0  0  0  0  0999 V2000
   15.7981    0.6273    0.2949 C   0  0  0  0  0  0  0  0  0  0  0  0
   14.5513   -0.2264    0.1099 C   0  0  0  0  0  0  0  0  0  0  0  0
   13.2615    0.5777    0.2182 C   0  0  0  0  0  0  0  0  0  0  0  0
   12.0069   -0.2671    0.0376 C   0  0  0  0  0  0  0  0  0  0  0  0
   10.7163    0.5342    0.1531 C   0  0  0  0  0  0  0  0  0  0  0  0
    9.4651   -0.3131   -0.0403 C   0  0  0  0  0  0  0  0  0  0  0  0
    8.1701    0.4805    0.0775 C   0  0  0  0  0  0  0  0  0  0  0  0
    6.9249   -0.3742   -0.1212 C   0  0  0  0  0  0  0  0  0  0  0  0
    5.6237    0.4096   -0.0061 C   0  0  0  0  0  0  0  0  0  0  0  0
    4.3867   -0.4554   -0.2120 C   0  0  0  0  0  0  0  0  0  0  0  0
    3.0774    0.3156   -0.1023 C   0  0  0  0  0  0  0  0  0  0  0  0
    1.8525   -0.5625   -0.3233 C   0  0  0  0  0  0  0  0  0  0  0  0
    0.5327    0.1888   -0.2046 C   0  0  0  0  0  0  0  0  0  0  0  0
   -0.6709   -0.7094   -0.4585 C   0  0  0  0  0  0  0  0  0  0  0  0
   -1.9908    0.0333   -0.3151 C   0  0  0  0  0  0  0  0  0  0  0  0
   -3.1902   -0.8283   -0.6039 C   0  0  0  0  0  0  0  0  0  0  0  0
   -3.1634   -1.8739   -1.2042 O   0  0  0  0  0  0  0  0  0  0  0  0
   -4.3103   -0.2915   -0.1322 O   0  0  0  0  0  0  0  0  0  0  0  0
   -5.5325   -0.9917   -0.3737 C   0  0  0  0  0  0  0  0  0  0  0  0
   -6.6403   -0.2282    0.3159 C   0  0  1  0  0  0  0  0  0  0  0  0
   -6.7162    1.0435   -0.2977 O   0  0  0  0  0  0  0  0  0  0  0  0
   -7.7062    1.9017    0.2030 C   0  0  2  0  0  0  0  0  0  0  0  0
   -7.5109    2.2265    1.5420 O   0  0  0  0  0  0  0  0  0  0  0  0
   -9.0939    1.2670    0.0725 C   0  0  1  0  0  0  0  0  0  0  0  0
   -9.4230    1.0831   -1.2811 O   0  0  0  0  0  0  0  0  0  0  0  0
   -9.0911   -0.0993    0.7538 C   0  0  1  0  0  0  0  0  0  0  0  0
  -10.3009   -0.7959    0.5729 O   0  0  0  0  0  0  0  0  0  0  0  0
   -7.9721   -0.9724    0.1964 C   0  0  2  0  0  0  0  0  0  0  0  0
   -7.8483   -2.1732    0.9198 O   0  0  0  0  0  0  0  0  0  0  0  0
   15.8578    1.4100   -0.4639 H   0  0  0  0  0  0  0  0  0  0  0  0
   15.7975    1.1169    1.2708 H   0  0  0  0  0  0  0  0  0  0  0  0
   16.7087    0.0309    0.2265 H   0  0  0  0  0  0  0  0  0  0  0  0
   14.5865   -0.7241   -0.8644 H   0  0  0  0  0  0  0  0  0  0  0  0
   14.5418   -1.0262    0.8570 H   0  0  0  0  0  0  0  0  0  0  0  0
   13.2277    1.0754    1.1941 H   0  0  0  0  0  0  0  0  0  0  0  0
   13.2713    1.3798   -0.5286 H   0  0  0  0  0  0  0  0  0  0  0  0
   12.0393   -0.7623   -0.9395 H   0  0  0  0  0  0  0  0  0  0  0  0
   12.0013   -1.0707    0.7827 H   0  0  0  0  0  0  0  0  0  0  0  0
   10.6785    1.0200    1.1347 H   0  0  0  0  0  0  0  0  0  0  0  0
   10.7244    1.3444   -0.5849 H   0  0  0  0  0  0  0  0  0  0  0  0
    9.5032   -0.7977   -1.0226 H   0  0  0  0  0  0  0  0  0  0  0  0
    9.4602   -1.1250    0.6958 H   0  0  0  0  0  0  0  0  0  0  0  0
    8.1283    0.9633    1.0605 H   0  0  0  0  0  0  0  0  0  0  0  0
    8.1745    1.2929   -0.6580 H   0  0  0  0  0  0  0  0  0  0  0  0
    6.9694   -0.8564   -1.1044 H   0  0  0  0  0  0  0  0  0  0  0  0
    6.9232   -1.1878    0.6131 H   0  0  0  0  0  0  0  0  0  0  0  0
    5.5743    0.8894    0.9779 H   0  0  0  0  0  0  0  0  0  0  0  0
    5.6245    1.2240   -0.7395 H   0  0  0  0  0  0  0  0  0  0  0  0
    4.4404   -0.9358   -1.1955 H   0  0  0  0  0  0  0  0  0  0  0  0
    4.3888   -1.2700    0.5211 H   0  0  0  0  0  0  0  0  0  0  0  0
    3.0156    0.7891    0.8840 H   0  0  0  0  0  0  0  0  0  0  0  0
    3.0751    1.1335   -0.8315 H   0  0  0  0  0  0  0  0  0  0  0  0
    1.9145   -1.0266   -1.3140 H   0  0  0  0  0  0  0  0  0  0  0  0
    1.8632   -1.3877    0.3974 H   0  0  0  0  0  0  0  0  0  0  0  0
    0.4575    0.6379    0.7917 H   0  0  0  0  0  0  0  0  0  0  0  0
    0.5225    1.0224   -0.9156 H   0  0  0  0  0  0  0  0  0  0  0  0
   -0.5956   -1.1378   -1.4609 H   0  0  0  0  0  0  0  0  0  0  0  0
   -0.6496   -1.5512    0.2399 H   0  0  0  0  0  0  0  0  0  0  0  0
   -2.0884    0.4647    0.6843 H   0  0  0  0  0  0  0  0  0  0  0  0
   -2.0244    0.8817   -1.0085 H   0  0  0  0  0  0  0  0  0  0  0  0
   -5.7246   -1.0583   -1.4486 H   0  0  0  0  0  0  0  0  0  0  0  0
   -5.4735   -2.0043    0.0269 H   0  0  0  0  0  0  0  0  0  0  0  0
   -6.3948   -0.1316    1.3829 H   0  0  0  0  0  0  0  0  0  0  0  0
   -7.6446    2.7920   -0.4358 H   0  0  0  0  0  0  0  0  0  0  0  0
   -6.7159    2.7644    1.6241 H   0  0  0  0  0  0  0  0  0  0  0  0
   -9.8210    1.9215    0.5736 H   0  0  0  0  0  0  0  0  0  0  0  0
   -9.5615    1.9464   -1.6826 H   0  0  0  0  0  0  0  0  0  0  0  0
   -8.8907    0.0589    1.8223 H   0  0  0  0  0  0  0  0  0  0  0  0
  -10.9598   -0.4314    1.1714 H   0  0  0  0  0  0  0  0  0  0  0  0
   -8.1718   -1.1729   -0.8665 H   0  0  0  0  0  0  0  0  0  0  0  0
   -8.6801   -2.6523    0.8477 H   0  0  0  0  0  0  0  0  0  0  0  0
  1  2  1  0
  2  3  1  0
  3  4  1  0
  4  5  1  0
  5  6  1  0
  6  7  1  0
  7  8  1  0
  8  9  1  0
  9 10  1  0
 10 11  1  0
 11 12  1  0
 12 13  1  0
 13 14  1  0
 14 15  1  0
 15 16  1  0
 16 17  2  0
 16 18  1  0
 25 24  1  0
 21 22  1  0
 21 20  1  0
 22 23  1  0
 22 24  1  0
 18 19  1  0
 24 26  1  0
 19 20  1  0
 20 28  1  0
 28 26  1  0
 28 29  1  0
 26 27  1  0
  1 30  1  0
  1 31  1  0
  1 32  1  0
  2 33  1  0
  2 34  1  0
  3 35  1  0
  3 36  1  0
  4 37  1  0
  4 38  1  0
  5 39  1  0
  5 40  1  0
  6 41  1  0
  6 42  1  0
  7 43  1  0
  7 44  1  0
  8 45  1  0
  8 46  1  0
  9 47  1  0
  9 48  1  0
 10 49  1  0
 10 50  1  0
 11 51  1  0
 11 52  1  0
 12 53  1  0
 12 54  1  0
 13 55  1  0
 13 56  1  0
 14 57  1  0
 14 58  1  0
 15 59  1  0
 15 60  1  0
 19 61  1  0
 19 62  1  0
 20 63  1  1
 22 64  1  6
 23 65  1  0
 24 66  1  1
 25 67  1  0
 26 68  1  1
 27 69  1  0
 28 70  1  6
 29 71  1  0
M  END
