
     RDKit          3D

 27 27  0  0  0  0  0  0  0  0999 V2000
    1.1663   -1.2035   -0.3394 C   0  0  1  0  0  0  0  0  0  0  0  0
   -0.3043   -1.2297    0.0746 C   0  0  0  0  0  0  0  0  0  0  0  0
   -1.0400    0.0759   -0.2465 C   0  0  2  0  0  0  0  0  0  0  0  0
   -2.4386   -0.0067    0.3716 C   0  0  0  0  0  0  0  0  0  0  0  0
   -2.6281   -0.0875    1.5606 O   0  0  0  0  0  0  0  0  0  0  0  0
   -3.4121    0.0144   -0.5225 O   0  0  0  0  0  0  0  0  0  0  0  0
   -1.0880    0.1889   -1.6443 O   0  0  0  0  0  0  0  0  0  0  0  0
   -0.2958    1.2579    0.3870 C   0  0  0  0  0  0  0  0  0  0  0  0
    1.1673    1.2898   -0.0410 C   0  0  1  0  0  0  0  0  0  0  0  0
    1.8655    2.3293    0.6177 O   0  0  0  0  0  0  0  0  0  0  0  0
    1.8665   -0.0170    0.3153 C   0  0  2  0  0  0  0  0  0  0  0  0
    3.2120   -0.0014   -0.1007 O   0  0  0  0  0  0  0  0  0  0  0  0
    1.8277   -2.5285    0.0224 C   0  0  0  0  0  0  0  0  0  0  0  0
    1.2241   -1.0754   -1.4261 H   0  0  0  0  0  0  0  0  0  0  0  0
   -0.8085   -2.0651   -0.4200 H   0  0  0  0  0  0  0  0  0  0  0  0
   -0.3726   -1.4175    1.1493 H   0  0  0  0  0  0  0  0  0  0  0  0
   -4.2692   -0.0325   -0.0715 H   0  0  0  0  0  0  0  0  0  0  0  0
   -1.3888    1.0720   -1.8855 H   0  0  0  0  0  0  0  0  0  0  0  0
   -0.7845    2.1982    0.1061 H   0  0  0  0  0  0  0  0  0  0  0  0
   -0.3501    1.1865    1.4754 H   0  0  0  0  0  0  0  0  0  0  0  0
    1.2291    1.4227   -1.1292 H   0  0  0  0  0  0  0  0  0  0  0  0
    1.6291    3.1664    0.2073 H   0  0  0  0  0  0  0  0  0  0  0  0
    1.7998   -0.1448    1.4110 H   0  0  0  0  0  0  0  0  0  0  0  0
    3.6246    0.7868    0.2682 H   0  0  0  0  0  0  0  0  0  0  0  0
    1.8130   -2.6925    1.1025 H   0  0  0  0  0  0  0  0  0  0  0  0
    1.2991   -3.3605   -0.4454 H   0  0  0  0  0  0  0  0  0  0  0  0
    2.8644   -2.5692   -0.3082 H   0  0  0  0  0  0  0  0  0  0  0  0
  5  4  2  0
  6  4  1  0
  4  3  1  0
  3  7  1  6
  3  2  1  0
  3  8  1  0
  2  1  1  0
  8  9  1  0
  1 13  1  0
  1 11  1  0
  9 11  1  0
  9 10  1  0
 11 12  1  0
  1 14  1  6
  2 15  1  0
  2 16  1  0
  6 17  1  0
  7 18  1  0
  8 19  1  0
  8 20  1  0
  9 21  1  6
 10 22  1  0
 11 23  1  1
 12 24  1  0
 13 25  1  0
 13 26  1  0
 13 27  1  0
M  END
