
     RDKit          3D

 62 64  0  0  0  0  0  0  0  0999 V2000
   -0.9400   -2.6873    0.2977 C   0  0  0  0  0  0  0  0  0  0  0  0
   -0.9375   -3.4998   -0.8339 C   0  0  0  0  0  0  0  0  0  0  0  0
    0.2733   -2.2345    0.7926 C   0  0  0  0  0  0  0  0  0  0  0  0
    0.2525   -3.8464   -1.4559 C   0  0  0  0  0  0  0  0  0  0  0  0
    1.4717   -2.5631    0.1606 C   0  0  0  0  0  0  0  0  0  0  0  0
    1.4620   -3.3768   -0.9695 C   0  0  0  0  0  0  0  0  0  0  0  0
    2.7038   -2.0163    0.6954 C   0  0  0  0  0  0  0  0  0  0  0  0
    7.1051   -1.2099    1.3161 N   0  0  0  0  0  0  0  0  0  0  0  0
   -2.8008   -1.0154    0.2227 C   0  0  1  0  0  0  0  0  0  0  0  0
   -0.5611    1.8525   -0.6051 C   0  0  0  0  0  0  0  0  0  0  0  0
   -6.5267   -0.3388    0.5838 C   0  0  0  0  0  0  0  0  0  0  0  0
   -6.8500    1.0939    0.2705 C   0  0  0  0  0  0  0  0  0  0  0  0
    3.0276    2.7803    1.6201 C   0  0  0  0  0  0  0  0  0  0  0  0
    3.2609    4.4565   -0.2201 C   0  0  0  0  0  0  0  0  0  0  0  0
    3.7569    2.0505   -0.6587 C   0  0  0  0  0  0  0  0  0  0  0  0
   -7.9228    1.4071   -0.3145 N   0  0  0  0  0  0  0  0  0  0  0  0
   -4.1060   -0.5895    0.8926 C   0  0  0  0  0  0  0  0  0  0  0  0
   -4.1137   -0.2041    2.0510 O   0  0  0  0  0  0  0  0  0  0  0  0
   -1.8490    0.0644    0.2643 N   0  0  0  0  0  0  0  0  0  0  0  0
    0.6588    1.6139   -0.0048 C   0  0  0  0  0  0  0  0  0  0  0  0
    1.4252    2.7607   -0.2713 C   0  0  0  0  0  0  0  0  0  0  0  0
    0.7126    3.6256   -0.9759 N   0  0  0  0  0  0  0  0  0  0  0  0
   -0.4754    3.0711   -1.1776 N   0  0  0  0  0  0  0  0  0  0  0  0
   -2.2295   -2.2514    0.9317 C   0  0  0  0  0  0  0  0  0  0  0  0
    3.8911   -2.4020    0.2139 O   0  0  0  0  0  0  0  0  0  0  0  0
    4.7676   -1.6847    0.9347 C   0  0  0  0  0  0  0  0  0  0  0  0
    4.1729   -0.9241    1.7852 N   0  0  0  0  0  0  0  0  0  0  0  0
    2.8407   -1.1323    1.6317 N   0  0  0  0  0  0  0  0  0  0  0  0
   -1.8740   -3.8702   -1.2331 H   0  0  0  0  0  0  0  0  0  0  0  0
    0.2995   -1.6287    1.6909 H   0  0  0  0  0  0  0  0  0  0  0  0
    0.2389   -4.4834   -2.3293 H   0  0  0  0  0  0  0  0  0  0  0  0
    2.3810   -3.6437   -1.4733 H   0  0  0  0  0  0  0  0  0  0  0  0
    6.4809   -2.5240   -0.1010 H   0  0  0  0  0  0  0  0  0  0  0  0
    6.7157   -0.5937    2.0277 H   0  0  0  0  0  0  0  0  0  0  0  0
   -2.9718   -1.2670   -0.8262 H   0  0  0  0  0  0  0  0  0  0  0  0
   -5.0939   -0.9195   -0.8454 H   0  0  0  0  0  0  0  0  0  0  0  0
   -7.2587   -0.9925    0.1117 H   0  0  0  0  0  0  0  0  0  0  0  0
   -6.5848   -0.4977    1.6617 H   0  0  0  0  0  0  0  0  0  0  0  0
   -6.0988    1.8208    0.5913 H   0  0  0  0  0  0  0  0  0  0  0  0
   -2.4105    3.8585   -1.3659 H   0  0  0  0  0  0  0  0  0  0  0  0
   -1.0986    4.7971   -2.0939 H   0  0  0  0  0  0  0  0  0  0  0  0
   -1.6793    3.3174   -2.8815 H   0  0  0  0  0  0  0  0  0  0  0  0
    4.0620    2.9607    1.9191 H   0  0  0  0  0  0  0  0  0  0  0  0
    2.3894    3.4455    2.2038 H   0  0  0  0  0  0  0  0  0  0  0  0
    2.7853    1.7530    1.8957 H   0  0  0  0  0  0  0  0  0  0  0  0
    3.1767    4.6601   -1.2878 H   0  0  0  0  0  0  0  0  0  0  0  0
    2.6461    5.1861    0.3083 H   0  0  0  0  0  0  0  0  0  0  0  0
    4.2993    4.6231    0.0699 H   0  0  0  0  0  0  0  0  0  0  0  0
    3.5109    1.0129   -0.4314 H   0  0  0  0  0  0  0  0  0  0  0  0
    3.6545    2.1895   -1.7362 H   0  0  0  0  0  0  0  0  0  0  0  0
    4.8052    2.2056   -0.3969 H   0  0  0  0  0  0  0  0  0  0  0  0
   -7.9846    2.4146   -0.4300 H   0  0  0  0  0  0  0  0  0  0  0  0
   -1.2728    0.1656    1.0840 H   0  0  0  0  0  0  0  0  0  0  0  0
    0.9709    0.7232    0.5187 H   0  0  0  0  0  0  0  0  0  0  0  0
   -2.9721   -3.0496    0.8791 H   0  0  0  0  0  0  0  0  0  0  0  0
   -2.0788   -2.0280    1.9902 H   0  0  0  0  0  0  0  0  0  0  0  0
    6.2019   -1.8286    0.6882 C   0  0  0  0  0  0  0  0  0  0  0  0
   -1.7435    0.9762   -0.7240 C   0  0  0  0  0  0  0  0  0  0  0  0
   -5.2027   -0.6985    0.1309 N   0  0  0  0  0  0  0  0  0  0  0  0
   -1.4806    3.7953   -1.9257 C   0  0  0  0  0  0  0  0  0  0  0  0
    2.8573    3.0219    0.1164 C   0  0  1  0  0  0  0  0  0  0  0  0
   -2.5287    1.0475   -1.6537 O   0  0  0  0  0  0  0  0  0  0  0  0
  2  1  2  0
  1 24  1  0
  1  3  1  0
  4  2  1  0
  2 29  1  0
  5  3  2  0
  3 30  1  0
  4  6  2  0
  4 31  1  0
  6  5  1  0
  5  7  1  0
  6 32  1  0
 25  7  1  0
  7 28  2  0
 57  8  2  0
 57 26  1  0
 57 33  1  0
  8 34  1  0
  9 19  1  0
  9 24  1  0
  9 17  1  0
  9 35  1  6
 62 58  2  0
 58 10  1  0
 58 19  1  0
 23 10  1  0
 10 20  2  0
 59 17  1  0
 59 11  1  0
 59 36  1  0
 11 12  1  0
 11 37  1  0
 11 38  1  0
 12 16  2  0
 12 39  1  0
 60 23  1  0
 60 40  1  0
 60 41  1  0
 60 42  1  0
 21 61  1  0
 61 14  1  1
 61 15  1  0
 61 13  1  0
 13 43  1  0
 13 44  1  0
 13 45  1  0
 14 46  1  0
 14 47  1  0
 14 48  1  0
 15 49  1  0
 15 50  1  0
 15 51  1  0
 16 52  1  0
 17 18  2  0
 19 53  1  0
 21 20  1  0
 20 54  1  0
 22 21  2  0
 23 22  1  0
 24 55  1  0
 24 56  1  0
 25 26  1  0
 26 27  2  0
 28 27  1  0
M  END
