
     RDKit          3D

 14 14  0  0  0  0  0  0  0  0999 V2000
    1.4317    0.7991    0.0091 C   0  0  0  0  0  0  0  0  0  0  0  0
    1.4504   -0.5869   -0.0242 C   0  0  0  0  0  0  0  0  0  0  0  0
    0.3743   -1.3335   -0.0369 N   0  0  0  0  0  0  0  0  0  0  0  0
   -0.7882   -0.6864   -0.0170 C   0  0  0  0  0  0  0  0  0  0  0  0
   -0.9434    0.6279    0.0141 N   0  0  0  0  0  0  0  0  0  0  0  0
    0.1604    1.3412    0.0270 C   0  0  0  0  0  0  0  0  0  0  0  0
   -2.1825   -1.7285   -0.0359 S   0  0  0  0  0  0  0  0  0  0  0  0
   -3.5454   -0.5494   -0.0099 C   0  0  0  0  0  0  0  0  0  0  0  0
   -0.0247    3.0489    0.0694 Cl  0  0  0  0  0  0  0  0  0  0  0  0
    2.9630   -1.4018   -0.0507 Cl  0  0  0  0  0  0  0  0  0  0  0  0
    2.3274    1.3999    0.0211 H   0  0  0  0  0  0  0  0  0  0  0  0
   -3.5280    0.0515    0.8953 H   0  0  0  0  0  0  0  0  0  0  0  0
   -3.5263    0.0917   -0.8870 H   0  0  0  0  0  0  0  0  0  0  0  0
   -4.4532   -1.1490   -0.0241 H   0  0  0  0  0  0  0  0  0  0  0  0
  9  6  1  0
  5  6  1  0
  5  4  2  0
  6  1  2  0
  7  4  1  0
  7  8  1  0
  4  3  1  0
  1  2  1  0
  3  2  2  0
  2 10  1  0
  1 11  1  0
  8 12  1  0
  8 13  1  0
  8 14  1  0
M  END
