
     RDKit          3D

 25 26  0  0  0  0  0  0  0  0999 V2000
    2.9244    2.1361    0.3889 C   0  0  0  0  0  0  0  0  0  0  0  0
    1.1879    0.7976    0.3500 C   0  0  0  0  0  0  0  0  0  0  0  0
    1.9429   -0.2669   -0.1126 C   0  0  0  0  0  0  0  0  0  0  0  0
    3.3136   -0.0204   -0.3168 C   0  0  0  0  0  0  0  0  0  0  0  0
   -0.0188   -0.9839    0.0721 C   0  0  0  0  0  0  0  0  0  0  0  0
   -3.1481    2.5396    0.1283 C   0  0  0  0  0  0  0  0  0  0  0  0
   -1.9636    1.7084   -0.3255 C   0  0  0  0  0  0  0  0  0  0  0  0
    3.7702    1.2085   -0.0512 N   0  0  0  0  0  0  0  0  0  0  0  0
    1.6269    2.0239    0.6169 N   0  0  0  0  0  0  0  0  0  0  0  0
    4.1577   -0.9504   -0.7618 N   0  0  0  0  0  0  0  0  0  0  0  0
    1.1612   -1.3807   -0.2804 N   0  0  0  0  0  0  0  0  0  0  0  0
   -0.0863    0.3196    0.4755 N   0  0  0  0  0  0  0  0  0  0  0  0
   -3.7826    3.0757   -1.0104 O   0  0  0  0  0  0  0  0  0  0  0  0
   -1.5162   -2.0767    0.0551 Br  0  0  0  0  0  0  0  0  0  0  0  0
    3.3607    3.1099    0.5839 H   0  0  0  0  0  0  0  0  0  0  0  0
   -3.8323    1.9082    0.7104 H   0  0  0  0  0  0  0  0  0  0  0  0
   -2.7982    3.3317    0.8039 H   0  0  0  0  0  0  0  0  0  0  0  0
   -2.3092    0.9123   -0.9899 H   0  0  0  0  0  0  0  0  0  0  0  0
   -1.2670    2.3304   -0.8936 H   0  0  0  0  0  0  0  0  0  0  0  0
   -0.8734    1.8887    1.5322 H   0  0  0  0  0  0  0  0  0  0  0  0
   -1.9074    0.4759    1.4610 H   0  0  0  0  0  0  0  0  0  0  0  0
    5.1342   -0.7373   -0.8720 H   0  0  0  0  0  0  0  0  0  0  0  0
    3.8507   -1.8889   -0.9469 H   0  0  0  0  0  0  0  0  0  0  0  0
   -4.5619    3.5571   -0.7191 H   0  0  0  0  0  0  0  0  0  0  0  0
   -1.2407    1.1045    0.8707 C   0  0  0  0  0  0  0  0  0  0  0  0
 10  4  1  0
  4  8  1  0
  4  3  2  0
  8  1  2  0
 11  3  1  0
 11  5  2  0
  3  2  1  0
  1  9  1  0
  5 14  1  0
  5 12  1  0
  2  9  2  0
  2 12  1  0
  7  6  1  0
  7 25  1  0
 12 25  1  0
  6 13  1  0
  1 15  1  0
  6 16  1  0
  6 17  1  0
  7 18  1  0
  7 19  1  0
 25 20  1  0
 25 21  1  0
 10 22  1  0
 10 23  1  0
 13 24  1  0
M  END
