
     RDKit          3D

 44 48  0  0  0  0  0  0  0  0999 V2000
   -2.0556   -0.1869    1.0109 C   0  0  0  0  0  0  0  0  0  0  0  0
   -2.7161    0.1385    2.1691 C   0  0  0  0  0  0  0  0  0  0  0  0
   -3.8349    0.9988    2.1341 C   0  0  0  0  0  0  0  0  0  0  0  0
   -1.0051   -1.0173    0.9325 O   0  0  0  0  0  0  0  0  0  0  0  0
   -3.6059    1.2217   -0.2423 C   0  0  0  0  0  0  0  0  0  0  0  0
   -4.0034    1.7556   -1.4912 C   0  0  0  0  0  0  0  0  0  0  0  0
   -2.3006    0.7210   -2.5907 C   0  0  0  0  0  0  0  0  0  0  0  0
   -1.8184    0.1342   -1.4538 C   0  0  0  0  0  0  0  0  0  0  0  0
    0.9794   -2.0795    1.6363 C   0  0  1  0  0  0  0  0  0  0  0  0
    0.6406   -3.5109    1.2107 C   0  0  0  0  0  0  0  0  0  0  0  0
    1.6192   -3.8015    0.0847 C   0  0  0  0  0  0  0  0  0  0  0  0
    1.6761   -2.4777   -0.6592 C   0  0  0  0  0  0  0  0  0  0  0  0
    2.8593    1.7812    1.4403 C   0  0  0  0  0  0  0  0  0  0  0  0
    2.3812    0.4818    1.5681 C   0  0  0  0  0  0  0  0  0  0  0  0
    2.7025    1.7308   -0.7843 C   0  0  0  0  0  0  0  0  0  0  0  0
    2.2303    0.4324   -0.7394 N   0  0  0  0  0  0  0  0  0  0  0  0
    2.7201    2.1249   -2.0473 N   0  0  0  0  0  0  0  0  0  0  0  0
   -4.2846    1.5288    0.9585 C   0  0  0  0  0  0  0  0  0  0  0  0
   -2.4794    0.3701   -0.2292 C   0  0  0  0  0  0  0  0  0  0  0  0
   -3.3888    1.5213   -2.6186 N   0  0  0  0  0  0  0  0  0  0  0  0
    1.5924   -1.5029    0.4339 N   0  0  0  0  0  0  0  0  0  0  0  0
   -0.2414   -1.2887    2.0888 C   0  0  0  0  0  0  0  0  0  0  0  0
    2.0533   -0.2531    0.4288 C   0  0  0  0  0  0  0  0  0  0  0  0
    3.0335    2.4229    0.3007 N   0  0  0  0  0  0  0  0  0  0  0  0
    1.9249    0.0163   -1.9833 N   0  0  0  0  0  0  0  0  0  0  0  0
    2.2436    1.0617   -2.7102 C   0  0  0  0  0  0  0  0  0  0  0  0
   -2.4015   -0.2657    3.1222 H   0  0  0  0  0  0  0  0  0  0  0  0
   -4.3387    1.2281    3.0636 H   0  0  0  0  0  0  0  0  0  0  0  0
   -4.8734    2.4057   -1.5261 H   0  0  0  0  0  0  0  0  0  0  0  0
   -1.8061    0.5579   -3.5408 H   0  0  0  0  0  0  0  0  0  0  0  0
   -0.9351   -0.4864   -1.5050 H   0  0  0  0  0  0  0  0  0  0  0  0
    1.6976   -2.1017    2.4627 H   0  0  0  0  0  0  0  0  0  0  0  0
    0.7247   -4.1984    2.0505 H   0  0  0  0  0  0  0  0  0  0  0  0
   -0.3845   -3.5647    0.8379 H   0  0  0  0  0  0  0  0  0  0  0  0
    2.6046   -4.0523    0.4823 H   0  0  0  0  0  0  0  0  0  0  0  0
    1.2972   -4.6165   -0.5619 H   0  0  0  0  0  0  0  0  0  0  0  0
    2.5944   -2.3523   -1.2267 H   0  0  0  0  0  0  0  0  0  0  0  0
    0.8337   -2.3728   -1.3443 H   0  0  0  0  0  0  0  0  0  0  0  0
    2.3081    0.0391    2.5486 H   0  0  0  0  0  0  0  0  0  0  0  0
   -5.1458    2.1843    0.9353 H   0  0  0  0  0  0  0  0  0  0  0  0
    0.0361   -0.3511    2.5812 H   0  0  0  0  0  0  0  0  0  0  0  0
   -0.7963   -1.8925    2.8149 H   0  0  0  0  0  0  0  0  0  0  0  0
    2.1169    1.0464   -3.7827 H   0  0  0  0  0  0  0  0  0  0  0  0
    3.1245    2.3209    2.3424 H   0  0  0  0  0  0  0  0  0  0  0  0
 10  9  1  0
 10 11  1  0
  7  8  1  0
  7 20  2  0
 13 24  2  0
 13 14  1  0
  9 21  1  0
  9 22  1  0
 24 15  1  0
 14 23  2  0
 11 12  1  0
 15 17  2  0
 15 16  1  0
 23 21  1  0
 23 16  1  0
 21 12  1  0
 17 26  1  0
 16 25  1  0
  8 19  2  0
 26 25  2  0
 20  6  1  0
  4 22  1  0
  4  1  1  0
 19  1  1  0
 19  5  1  0
  1  2  2  0
  6  5  2  0
  5 18  1  0
  2  3  1  0
 18  3  2  0
  2 27  1  0
  3 28  1  0
  6 29  1  0
  7 30  1  0
  8 31  1  0
  9 32  1  1
 10 33  1  0
 10 34  1  0
 11 35  1  0
 11 36  1  0
 12 37  1  0
 12 38  1  0
 13 44  1  0
 14 39  1  0
 18 40  1  0
 22 41  1  0
 22 42  1  0
 26 43  1  0
M  END
