
     RDKit          3D

 62 61  0  0  0  0  0  0  0  0999 V2000
  -11.9374   -0.7141   -0.0057 O   0  0  0  0  0  0  0  0  0  0  0  0
  -10.8914    0.1090   -0.0048 C   0  0  0  0  0  0  0  0  0  0  0  0
  -11.0043    1.3097    0.0060 O   0  0  0  0  0  0  0  0  0  0  0  0
   -9.5900   -0.6430   -0.0189 C   0  0  0  0  0  0  0  0  0  0  0  0
   -8.3591    0.2487   -0.0091 C   0  0  0  0  0  0  0  0  0  0  0  0
   -7.0722   -0.5671   -0.0205 C   0  0  0  0  0  0  0  0  0  0  0  0
   -5.8194    0.2995   -0.0125 C   0  0  0  0  0  0  0  0  0  0  0  0
   -4.5310   -0.5135   -0.0177 C   0  0  0  0  0  0  0  0  0  0  0  0
   -3.2743    0.3480   -0.0079 C   0  0  0  0  0  0  0  0  0  0  0  0
   -1.9876   -0.4681   -0.0188 C   0  0  0  0  0  0  0  0  0  0  0  0
   -0.7283    0.3898   -0.0061 C   0  0  0  0  0  0  0  0  0  0  0  0
    0.5561   -0.4299   -0.0139 C   0  0  0  0  0  0  0  0  0  0  0  0
    1.8180    0.4240   -0.0011 C   0  0  0  0  0  0  0  0  0  0  0  0
    3.1002   -0.3991   -0.0176 C   0  0  0  0  0  0  0  0  0  0  0  0
    4.3644    0.4517   -0.0032 C   0  0  0  0  0  0  0  0  0  0  0  0
    5.6441   -0.3751   -0.0167 C   0  0  0  0  0  0  0  0  0  0  0  0
    6.9110    0.4716   -0.0028 C   0  0  0  0  0  0  0  0  0  0  0  0
    8.1881   -0.3595   -0.0172 C   0  0  0  0  0  0  0  0  0  0  0  0
    9.4579    0.4828   -0.0044 C   0  0  0  0  0  0  0  0  0  0  0  0
   10.7317   -0.3531   -0.0180 C   0  0  0  0  0  0  0  0  0  0  0  0
   12.0059    0.4828   -0.0059 C   0  0  0  0  0  0  0  0  0  0  0  0
   13.2676   -0.3696   -0.0199 C   0  0  0  0  0  0  0  0  0  0  0  0
  -12.7601   -0.2027    0.0045 H   0  0  0  0  0  0  0  0  0  0  0  0
   -9.5798   -1.3197    0.8419 H   0  0  0  0  0  0  0  0  0  0  0  0
   -9.5844   -1.2941   -0.8993 H   0  0  0  0  0  0  0  0  0  0  0  0
   -8.3751    0.9144   -0.8764 H   0  0  0  0  0  0  0  0  0  0  0  0
   -8.3732    0.8916    0.8754 H   0  0  0  0  0  0  0  0  0  0  0  0
   -7.0560   -1.2353    0.8476 H   0  0  0  0  0  0  0  0  0  0  0  0
   -7.0586   -1.2165   -0.9030 H   0  0  0  0  0  0  0  0  0  0  0  0
   -5.8329    0.9652   -0.8828 H   0  0  0  0  0  0  0  0  0  0  0  0
   -5.8343    0.9517    0.8680 H   0  0  0  0  0  0  0  0  0  0  0  0
   -4.5196   -1.1804    0.8518 H   0  0  0  0  0  0  0  0  0  0  0  0
   -4.5170   -1.1656   -0.8984 H   0  0  0  0  0  0  0  0  0  0  0  0
   -3.2867    1.0183   -0.8748 H   0  0  0  0  0  0  0  0  0  0  0  0
   -3.2858    0.9960    0.8759 H   0  0  0  0  0  0  0  0  0  0  0  0
   -1.9770   -1.1395    0.8474 H   0  0  0  0  0  0  0  0  0  0  0  0
   -1.9763   -1.1156   -0.9030 H   0  0  0  0  0  0  0  0  0  0  0  0
   -0.7369    1.0600   -0.8732 H   0  0  0  0  0  0  0  0  0  0  0  0
   -0.7398    1.0382    0.8774 H   0  0  0  0  0  0  0  0  0  0  0  0
    0.5634   -1.0995    0.8538 H   0  0  0  0  0  0  0  0  0  0  0  0
    0.5666   -1.0795   -0.8966 H   0  0  0  0  0  0  0  0  0  0  0  0
    1.8084    1.0992   -0.8643 H   0  0  0  0  0  0  0  0  0  0  0  0
    1.8114    1.0676    0.8860 H   0  0  0  0  0  0  0  0  0  0  0  0
    3.1084   -1.0740    0.8459 H   0  0  0  0  0  0  0  0  0  0  0  0
    3.1065   -1.0429   -0.9045 H   0  0  0  0  0  0  0  0  0  0  0  0
    4.3583    1.1255   -0.8675 H   0  0  0  0  0  0  0  0  0  0  0  0
    4.3579    1.0966    0.8830 H   0  0  0  0  0  0  0  0  0  0  0  0
    5.6494   -1.0491    0.8474 H   0  0  0  0  0  0  0  0  0  0  0  0
    5.6494   -1.0200   -0.9029 H   0  0  0  0  0  0  0  0  0  0  0  0
    6.9066    1.1454   -0.8670 H   0  0  0  0  0  0  0  0  0  0  0  0
    6.9072    1.1164    0.8834 H   0  0  0  0  0  0  0  0  0  0  0  0
    8.1916   -1.0332    0.8472 H   0  0  0  0  0  0  0  0  0  0  0  0
    8.1905   -1.0047   -0.9032 H   0  0  0  0  0  0  0  0  0  0  0  0
    9.4560    1.1559   -0.8692 H   0  0  0  0  0  0  0  0  0  0  0  0
    9.4564    1.1284    0.8812 H   0  0  0  0  0  0  0  0  0  0  0  0
   10.7332   -1.0266    0.8468 H   0  0  0  0  0  0  0  0  0  0  0  0
   10.7321   -0.9996   -0.9031 H   0  0  0  0  0  0  0  0  0  0  0  0
   12.0062    1.1547   -0.8700 H   0  0  0  0  0  0  0  0  0  0  0  0
   12.0072    1.1272    0.8789 H   0  0  0  0  0  0  0  0  0  0  0  0
   14.1701    0.2428   -0.0086 H   0  0  0  0  0  0  0  0  0  0  0  0
   13.3050   -1.0295    0.8491 H   0  0  0  0  0  0  0  0  0  0  0  0
   13.3064   -0.9984   -0.9117 H   0  0  0  0  0  0  0  0  0  0  0  0
  2  1  1  0
  1 23  1  0
  4  2  1  0
  3  2  2  0
  5  4  1  0
  4 24  1  0
  4 25  1  0
  6  5  1  0
  5 26  1  0
  5 27  1  0
  6  7  1  0
  6 28  1  0
  6 29  1  0
  8  7  1  0
  7 30  1  0
  7 31  1  0
  8  9  1  0
  8 32  1  0
  8 33  1  0
 10  9  1  0
  9 34  1  0
  9 35  1  0
 11 10  1  0
 10 36  1  0
 10 37  1  0
 12 11  1  0
 11 38  1  0
 11 39  1  0
 13 12  1  0
 12 40  1  0
 12 41  1  0
 14 13  1  0
 13 42  1  0
 13 43  1  0
 15 14  1  0
 14 44  1  0
 14 45  1  0
 16 15  1  0
 15 46  1  0
 15 47  1  0
 17 16  1  0
 16 48  1  0
 16 49  1  0
 17 18  1  0
 17 50  1  0
 17 51  1  0
 18 19  1  0
 18 52  1  0
 18 53  1  0
 20 19  1  0
 19 54  1  0
 19 55  1  0
 20 21  1  0
 20 56  1  0
 20 57  1  0
 22 21  1  0
 21 58  1  0
 21 59  1  0
 22 60  1  0
 22 61  1  0
 22 62  1  0
M  END
