
     RDKit          3D

 60 62  0  0  0  0  0  0  0  0999 V2000
    5.6583    2.3445   -0.2204 C   0  0  0  0  0  0  0  0  0  0  0  0
    5.2150    1.3751    0.8578 C   0  0  0  0  0  0  0  0  0  0  0  0
    1.4424   -1.2370    0.0640 C   0  0  0  0  0  0  0  0  0  0  0  0
    0.7448   -0.0593   -0.2218 C   0  0  0  0  0  0  0  0  0  0  0  0
   -0.6277   -0.0620   -0.3177 C   0  0  0  0  0  0  0  0  0  0  0  0
   -1.3576   -1.2356   -0.1329 C   0  0  0  0  0  0  0  0  0  0  0  0
   -0.6796   -2.4280    0.1817 C   0  0  0  0  0  0  0  0  0  0  0  0
    0.7165   -2.4017    0.2664 C   0  0  0  0  0  0  0  0  0  0  0  0
   -2.8344   -1.2827   -0.2324 C   0  0  0  0  0  0  0  0  0  0  0  0
   -4.9084   -0.1637   -0.8075 C   0  0  2  0  0  0  0  0  0  0  0  0
   -5.4017   -1.0178   -1.9670 C   0  0  0  0  0  0  0  0  0  0  0  0
   -5.3641    1.2961   -0.9726 C   0  0  0  0  0  0  0  0  0  0  0  0
   -4.9130    2.1439    0.1855 C   0  0  0  0  0  0  0  0  0  0  0  0
   -5.5501    2.0375    1.4200 C   0  0  0  0  0  0  0  0  0  0  0  0
   -5.1218    2.7871    2.5056 C   0  0  0  0  0  0  0  0  0  0  0  0
    7.0295    2.0875   -0.6090 N   0  0  0  0  0  0  0  0  0  0  0  0
    5.3527    0.0097    0.3921 N   0  0  0  0  0  0  0  0  0  0  0  0
    6.7335   -0.2489    0.0350 C   0  0  0  0  0  0  0  0  0  0  0  0
    7.1867    0.7154   -1.0449 C   0  0  0  0  0  0  0  0  0  0  0  0
    4.8350   -0.9699    1.3200 C   0  0  0  0  0  0  0  0  0  0  0  0
    3.3278   -0.9630    1.4265 C   0  0  0  0  0  0  0  0  0  0  0  0
    2.7795   -1.2469    0.1306 O   0  0  0  0  0  0  0  0  0  0  0  0
    7.4896    3.0257   -1.6053 C   0  0  0  0  0  0  0  0  0  0  0  0
    1.5509   -3.8619    0.6208 Cl  0  0  0  0  0  0  0  0  0  0  0  0
    1.6310    1.3984   -0.4834 Cl  0  0  0  0  0  0  0  0  0  0  0  0
   -1.2978   -3.5753    0.4021 O   0  0  0  0  0  0  0  0  0  0  0  0
   -3.4568   -2.2859    0.1380 O   0  0  0  0  0  0  0  0  0  0  0  0
   -3.4748   -0.2130   -0.7137 N   0  0  0  0  0  0  0  0  0  0  0  0
   -6.7104   -1.2005   -1.8975 O   0  0  0  0  0  0  0  0  0  0  0  0
   -4.6985   -1.4502   -2.8406 O   0  0  0  0  0  0  0  0  0  0  0  0
   -4.0461    3.6570    2.3710 C   0  0  0  0  0  0  0  0  0  0  0  0
   -3.4060    3.7719    1.1452 C   0  0  0  0  0  0  0  0  0  0  0  0
   -3.8389    3.0196    0.0601 C   0  0  0  0  0  0  0  0  0  0  0  0
    4.9674    2.2654   -1.0782 H   0  0  0  0  0  0  0  0  0  0  0  0
    5.5810    3.3660    0.1607 H   0  0  0  0  0  0  0  0  0  0  0  0
    5.8048    1.5546    1.7739 H   0  0  0  0  0  0  0  0  0  0  0  0
    4.1736    1.5839    1.1035 H   0  0  0  0  0  0  0  0  0  0  0  0
   -1.1239    0.8773   -0.5189 H   0  0  0  0  0  0  0  0  0  0  0  0
   -5.3409   -0.5601    0.1151 H   0  0  0  0  0  0  0  0  0  0  0  0
   -4.9739    1.6959   -1.9123 H   0  0  0  0  0  0  0  0  0  0  0  0
   -6.4516    1.3139   -1.0513 H   0  0  0  0  0  0  0  0  0  0  0  0
   -6.3902    1.3612    1.5313 H   0  0  0  0  0  0  0  0  0  0  0  0
   -5.6297    2.6951    3.4570 H   0  0  0  0  0  0  0  0  0  0  0  0
    7.4062   -0.1640    0.9059 H   0  0  0  0  0  0  0  0  0  0  0  0
    6.8232   -1.2705   -0.3418 H   0  0  0  0  0  0  0  0  0  0  0  0
    6.6183    0.5075   -1.9688 H   0  0  0  0  0  0  0  0  0  0  0  0
    8.2403    0.5321   -1.2709 H   0  0  0  0  0  0  0  0  0  0  0  0
    5.1547   -1.9619    0.9903 H   0  0  0  0  0  0  0  0  0  0  0  0
    5.2295   -0.8423    2.3425 H   0  0  0  0  0  0  0  0  0  0  0  0
    3.0187   -1.7292    2.1431 H   0  0  0  0  0  0  0  0  0  0  0  0
    2.9500   -0.0023    1.7872 H   0  0  0  0  0  0  0  0  0  0  0  0
    7.4227    4.0445   -1.2197 H   0  0  0  0  0  0  0  0  0  0  0  0
    8.5347    2.8293   -1.8509 H   0  0  0  0  0  0  0  0  0  0  0  0
    6.9114    2.9855   -2.5423 H   0  0  0  0  0  0  0  0  0  0  0  0
   -2.2708   -3.3831    0.3731 H   0  0  0  0  0  0  0  0  0  0  0  0
   -2.9564    0.5056   -1.1917 H   0  0  0  0  0  0  0  0  0  0  0  0
   -7.0223   -1.7128   -2.6590 H   0  0  0  0  0  0  0  0  0  0  0  0
   -3.7121    4.2445    3.2164 H   0  0  0  0  0  0  0  0  0  0  0  0
   -2.5689    4.4485    1.0316 H   0  0  0  0  0  0  0  0  0  0  0  0
   -3.3391    3.1247   -0.8966 H   0  0  0  0  0  0  0  0  0  0  0  0
  1  2  1  0
  1 16  1  0
  2 17  1  0
 20 21  1  0
 20 17  1  0
 21 22  1  0
 17 18  1  0
 23 16  1  0
 16 19  1  0
 22  3  1  0
 18 19  1  0
 25  4  1  0
 30 11  2  0
  3  4  2  0
  3  8  1  0
  4  5  1  0
 24  8  1  0
 29 11  1  0
  8  7  2  0
 11 10  1  0
  5  6  2  0
  7  6  1  0
  7 26  1  0
  6  9  1  0
 28  9  1  0
 28 10  1  0
  9 27  2  0
 10 12  1  0
 12 13  1  0
 14 13  2  0
 14 15  1  0
 13 33  1  0
 15 31  2  0
 33 32  2  0
 31 32  1  0
  1 34  1  0
  1 35  1  0
  2 36  1  0
  2 37  1  0
  5 38  1  0
 10 39  1  1
 12 40  1  0
 12 41  1  0
 14 42  1  0
 15 43  1  0
 18 44  1  0
 18 45  1  0
 19 46  1  0
 19 47  1  0
 20 48  1  0
 20 49  1  0
 21 50  1  0
 21 51  1  0
 23 52  1  0
 23 53  1  0
 23 54  1  0
 26 55  1  0
 28 56  1  0
 29 57  1  0
 31 58  1  0
 32 59  1  0
 33 60  1  0
M  END
