
     RDKit          3D

 50 54  0  0  0  0  0  0  0  0999 V2000
   -8.7458   -0.3581    0.1367 C   0  0  0  0  0  0  0  0  0  0  0  0
  -10.0007    0.5130    0.1047 C   0  0  0  0  0  0  0  0  0  0  0  0
   -9.9814    1.5436   -0.9204 N   0  0  0  0  0  0  0  0  0  0  0  0
   -8.7869    2.3679   -0.8276 C   0  0  0  0  0  0  0  0  0  0  0  0
   -7.4832    1.5726   -0.8259 C   0  0  0  0  0  0  0  0  0  0  0  0
   -7.4922    0.5047    0.2671 C   0  0  2  0  0  0  0  0  0  0  0  0
   -6.2376   -0.3583    0.2438 C   0  0  0  0  0  0  0  0  0  0  0  0
   -5.0695    0.4298    0.5673 N   0  0  0  0  0  0  0  0  0  0  0  0
   -3.8018   -0.0440    0.5300 C   0  0  0  0  0  0  0  0  0  0  0  0
   -2.7687    0.6995    1.1307 C   0  0  0  0  0  0  0  0  0  0  0  0
   -1.4642    0.2646    1.0839 C   0  0  0  0  0  0  0  0  0  0  0  0
   -0.2881    1.2206    1.9203 Cl  0  0  0  0  0  0  0  0  0  0  0  0
   -3.4596   -1.2531   -0.0972 C   0  0  0  0  0  0  0  0  0  0  0  0
   -2.1448   -1.6675   -0.1282 C   0  0  0  0  0  0  0  0  0  0  0  0
   -1.1065   -0.9307    0.4473 C   0  0  0  0  0  0  0  0  0  0  0  0
    0.2748   -1.4158    0.3551 C   0  0  0  0  0  0  0  0  0  0  0  0
    1.2448   -0.6159    0.0375 N   0  0  0  0  0  0  0  0  0  0  0  0
    2.4643   -1.1930   -0.0260 C   0  0  0  0  0  0  0  0  0  0  0  0
    3.7485   -0.6126   -0.3086 C   0  0  0  0  0  0  0  0  0  0  0  0
    4.1993    0.6753   -0.5856 C   0  0  0  0  0  0  0  0  0  0  0  0
    5.5553    0.8322   -0.7924 C   0  0  0  0  0  0  0  0  0  0  0  0
    6.2371    2.5527   -1.1668 Br  0  0  0  0  0  0  0  0  0  0  0  0
    6.4512   -0.2443   -0.7315 C   0  0  0  0  0  0  0  0  0  0  0  0
    6.0054   -1.5251   -0.4581 C   0  0  0  0  0  0  0  0  0  0  0  0
    4.6466   -1.6806   -0.2489 C   0  0  0  0  0  0  0  0  0  0  0  0
    4.0152   -2.8429    0.0400 O   0  0  0  0  0  0  0  0  0  0  0  0
    2.7075   -2.5250    0.1722 C   0  0  0  0  0  0  0  0  0  0  0  0
    1.6676   -3.4415    0.5101 C   0  0  0  0  0  0  0  0  0  0  0  0
    1.7502   -4.6370    0.7221 O   0  0  0  0  0  0  0  0  0  0  0  0
    0.4644   -2.7471    0.5953 N   0  0  0  0  0  0  0  0  0  0  0  0
   -8.8088   -1.0667    0.9677 H   0  0  0  0  0  0  0  0  0  0  0  0
   -8.6902   -0.9532   -0.7827 H   0  0  0  0  0  0  0  0  0  0  0  0
  -10.8880   -0.1079   -0.0363 H   0  0  0  0  0  0  0  0  0  0  0  0
  -10.1158    1.0051    1.0770 H   0  0  0  0  0  0  0  0  0  0  0  0
   -7.5388    1.0080    1.2439 H   0  0  0  0  0  0  0  0  0  0  0  0
   -9.9984    1.0976   -1.8311 H   0  0  0  0  0  0  0  0  0  0  0  0
   -8.7894    3.0822   -1.6533 H   0  0  0  0  0  0  0  0  0  0  0  0
   -8.8505    2.9578    0.0937 H   0  0  0  0  0  0  0  0  0  0  0  0
   -7.3570    1.0854   -1.8003 H   0  0  0  0  0  0  0  0  0  0  0  0
   -6.6364    2.2523   -0.7019 H   0  0  0  0  0  0  0  0  0  0  0  0
   -6.3490   -1.1968    0.9443 H   0  0  0  0  0  0  0  0  0  0  0  0
   -6.1258   -0.7917   -0.7548 H   0  0  0  0  0  0  0  0  0  0  0  0
   -5.2283    1.2100    1.1859 H   0  0  0  0  0  0  0  0  0  0  0  0
   -3.0082    1.6219    1.6446 H   0  0  0  0  0  0  0  0  0  0  0  0
   -4.2131   -1.8658   -0.5715 H   0  0  0  0  0  0  0  0  0  0  0  0
   -1.9150   -2.5916   -0.6445 H   0  0  0  0  0  0  0  0  0  0  0  0
   -0.3336   -3.2944    0.8955 H   0  0  0  0  0  0  0  0  0  0  0  0
    3.5077    1.5057   -0.6311 H   0  0  0  0  0  0  0  0  0  0  0  0
    7.5075   -0.0824   -0.8966 H   0  0  0  0  0  0  0  0  0  0  0  0
    6.6954   -2.3559   -0.4091 H   0  0  0  0  0  0  0  0  0  0  0  0
  1  2  1  0
  1  6  1  0
  2  3  1  0
  3  4  1  0
  4  5  1  0
  5  6  1  0
  6  7  1  0
  7  8  1  0
  8  9  1  0
  9 10  2  0
  9 13  1  0
 10 11  1  0
 11 12  1  0
 11 15  2  0
 13 14  2  0
 14 15  1  0
 15 16  1  0
 16 17  2  0
 16 30  1  0
 17 18  1  0
 18 19  1  0
 18 27  2  0
 19 20  2  0
 19 25  1  0
 20 21  1  0
 21 22  1  0
 21 23  2  0
 23 24  1  0
 24 25  2  0
 25 26  1  0
 26 27  1  0
 27 28  1  0
 28 29  2  0
 28 30  1  0
  1 31  1  0
  1 32  1  0
  2 33  1  0
  2 34  1  0
  6 35  1  1
  3 36  1  0
  4 37  1  0
  4 38  1  0
  5 39  1  0
  5 40  1  0
  7 41  1  0
  7 42  1  0
  8 43  1  0
 10 44  1  0
 13 45  1  0
 14 46  1  0
 30 47  1  0
 20 48  1  0
 23 49  1  0
 24 50  1  0
M  END
