
     RDKit          3D

 50 52  0  0  0  0  0  0  0  0999 V2000
   -3.7816    2.8028    1.5726 C   0  0  1  0  0  0  0  0  0  0  0  0
   -3.0471    1.5339    1.9997 C   0  0  2  0  0  0  0  0  0  0  0  0
   -3.0155    0.7325    0.6784 C   0  0  1  0  0  0  0  0  0  0  0  0
   -3.2335    1.6425   -0.3622 O   0  0  0  0  0  0  0  0  0  0  0  0
   -3.2306    2.9681    0.1624 C   0  0  2  0  0  0  0  0  0  0  0  0
   -1.8457    3.5569    0.1731 C   0  0  0  0  0  0  0  0  0  0  0  0
   -1.4090   -0.1311    0.6049 S   0  0  0  0  0  0  0  0  0  0  0  0
   -5.1658    2.6023    1.4822 O   0  0  0  0  0  0  0  0  0  0  0  0
   -3.7083    0.8882    3.0427 O   0  0  0  0  0  0  0  0  0  0  0  0
   -0.8592    3.1159   -0.5955 C   0  0  0  0  0  0  0  0  0  0  0  0
   -1.6641   -1.4174   -0.5576 C   0  0  0  0  0  0  0  0  0  0  0  0
    0.5662    3.5654   -0.5121 C   0  0  0  0  0  0  0  0  0  0  0  0
    1.4046    2.4073   -0.2535 N   0  0  0  0  0  0  0  0  0  0  0  0
    1.8660    1.6268   -1.2493 C   0  0  0  0  0  0  0  0  0  0  0  0
    2.4814    0.3397   -0.7946 C   0  0  0  0  0  0  0  0  0  0  0  0
    2.1536   -0.8487   -1.4481 C   0  0  0  0  0  0  0  0  0  0  0  0
    2.7550   -2.0543   -1.0364 C   0  0  0  0  0  0  0  0  0  0  0  0
    3.6615   -2.0650   -0.0012 C   0  0  0  0  0  0  0  0  0  0  0  0
    3.9749   -0.8655    0.6326 C   0  0  0  0  0  0  0  0  0  0  0  0
    3.3942    0.3293    0.2523 C   0  0  0  0  0  0  0  0  0  0  0  0
    4.9336   -0.8761    1.7145 N   0  0  0  0  0  0  0  0  0  0  0  0
    1.2627   -0.8394   -2.4339 O   0  0  0  0  0  0  0  0  0  0  0  0
    2.3743   -3.1456   -1.7230 O   0  0  0  0  0  0  0  0  0  0  0  0
    1.8137    1.9311   -2.4287 O   0  0  0  0  0  0  0  0  0  0  0  0
    5.4145   -1.9380    2.0397 O   0  0  0  0  0  0  0  0  0  0  0  0
    5.2092    0.1756    2.2458 O   0  0  0  0  0  0  0  0  0  0  0  0
   -0.8251   -2.5281   -0.4870 C   0  0  0  0  0  0  0  0  0  0  0  0
   -0.9812   -3.5411   -1.4166 C   0  0  0  0  0  0  0  0  0  0  0  0
   -1.8974   -3.5263   -2.3797 N   0  0  0  0  0  0  0  0  0  0  0  0
   -2.6940   -2.4661   -2.4374 C   0  0  0  0  0  0  0  0  0  0  0  0
   -2.6202   -1.3881   -1.5684 C   0  0  0  0  0  0  0  0  0  0  0  0
   -3.5292    3.6534    2.2177 H   0  0  0  0  0  0  0  0  0  0  0  0
   -2.0260    1.8192    2.2876 H   0  0  0  0  0  0  0  0  0  0  0  0
   -3.7951   -0.0338    0.6634 H   0  0  0  0  0  0  0  0  0  0  0  0
   -3.9044    3.5739   -0.4518 H   0  0  0  0  0  0  0  0  0  0  0  0
   -1.6752    4.3699    0.8740 H   0  0  0  0  0  0  0  0  0  0  0  0
   -5.4880    2.2880    2.3337 H   0  0  0  0  0  0  0  0  0  0  0  0
   -3.1354    0.2070    3.4085 H   0  0  0  0  0  0  0  0  0  0  0  0
   -1.0442    2.3094   -1.2976 H   0  0  0  0  0  0  0  0  0  0  0  0
    0.8966    4.0283   -1.4415 H   0  0  0  0  0  0  0  0  0  0  0  0
    0.7102    4.2919    0.2876 H   0  0  0  0  0  0  0  0  0  0  0  0
    1.3141    1.9934    0.6616 H   0  0  0  0  0  0  0  0  0  0  0  0
    4.1199   -2.9961    0.3046 H   0  0  0  0  0  0  0  0  0  0  0  0
    3.6548    1.2541    0.7468 H   0  0  0  0  0  0  0  0  0  0  0  0
    1.0948   -1.7364   -2.7521 H   0  0  0  0  0  0  0  0  0  0  0  0
    2.7802   -3.9482   -1.3748 H   0  0  0  0  0  0  0  0  0  0  0  0
   -0.0716   -2.6146    0.2852 H   0  0  0  0  0  0  0  0  0  0  0  0
   -0.3358   -4.4107   -1.3721 H   0  0  0  0  0  0  0  0  0  0  0  0
   -3.4369   -2.4589   -3.2271 H   0  0  0  0  0  0  0  0  0  0  0  0
   -3.2908   -0.5521   -1.7059 H   0  0  0  0  0  0  0  0  0  0  0  0
  1  2  1  0
  1  5  1  0
  1  8  1  0
  2  3  1  0
  2  9  1  0
  3  4  1  0
  3  7  1  0
  4  5  1  0
  5  6  1  0
  6 10  2  0
  7 11  1  0
 10 12  1  0
 11 27  2  0
 11 31  1  0
 12 13  1  0
 13 14  1  0
 14 15  1  0
 14 24  2  0
 15 16  2  0
 15 20  1  0
 16 17  1  0
 16 22  1  0
 17 18  2  0
 17 23  1  0
 18 19  1  0
 19 20  2  0
 19 21  1  0
 21 25  2  0
 21 26  1  0
 27 28  1  0
 28 29  2  0
 29 30  1  0
 30 31  2  0
  1 32  1  1
  2 33  1  1
  3 34  1  1
  5 35  1  6
  6 36  1  0
  8 37  1  0
  9 38  1  0
 10 39  1  0
 12 40  1  0
 12 41  1  0
 13 42  1  0
 18 43  1  0
 20 44  1  0
 22 45  1  0
 23 46  1  0
 27 47  1  0
 28 48  1  0
 30 49  1  0
 31 50  1  0
M  CHG  2  21   1  26  -1
M  END
