
     RDKit          3D

 29 30  0  0  0  0  0  0  0  0999 V2000
   -3.2628    1.2628    0.0561 C   0  0  0  0  0  0  0  0  0  0  0  0
   -3.4777   -1.0958    0.4061 C   0  0  0  0  0  0  0  0  0  0  0  0
   -2.6730    0.0411    0.3742 C   0  0  0  0  0  0  0  0  0  0  0  0
    1.7727    0.8881   -0.2095 C   0  0  0  0  0  0  0  0  0  0  0  0
    1.7834   -1.4795   -0.4245 C   0  0  0  0  0  0  0  0  0  0  0  0
    3.1109    0.8928    0.0234 C   0  0  0  0  0  0  0  0  0  0  0  0
   -0.4124   -0.3151   -0.6677 C   0  0  0  0  0  0  0  0  0  0  0  0
   -5.4127    0.2087   -0.1852 C   0  0  0  0  0  0  0  0  0  0  0  0
   -4.6207    1.3493   -0.2207 C   0  0  0  0  0  0  0  0  0  0  0  0
   -4.8363   -1.0152    0.1293 C   0  0  0  0  0  0  0  0  0  0  0  0
    1.0705   -0.3285   -0.4438 C   0  0  0  0  0  0  0  0  0  0  0  0
    3.8696   -0.3446    0.0440 C   0  0  0  0  0  0  0  0  0  0  0  0
   -1.1947   -0.0529    0.6274 C   0  0  0  0  0  0  0  0  0  0  0  0
    3.1275   -1.4603   -0.1874 N   0  0  0  0  0  0  0  0  0  0  0  0
    5.0861   -0.3721    0.2507 O   0  0  0  0  0  0  0  0  0  0  0  0
   -2.6519    2.1584    0.0306 H   0  0  0  0  0  0  0  0  0  0  0  0
   -3.0381   -2.0545    0.6565 H   0  0  0  0  0  0  0  0  0  0  0  0
    1.2306    1.8276   -0.2260 H   0  0  0  0  0  0  0  0  0  0  0  0
    1.3516   -2.4550   -0.5925 H   0  0  0  0  0  0  0  0  0  0  0  0
   -0.6647    0.4542   -1.4033 H   0  0  0  0  0  0  0  0  0  0  0  0
   -0.7330   -1.2687   -1.0936 H   0  0  0  0  0  0  0  0  0  0  0  0
   -6.4722    0.2739   -0.3965 H   0  0  0  0  0  0  0  0  0  0  0  0
   -5.0609    2.3084   -0.4618 H   0  0  0  0  0  0  0  0  0  0  0  0
   -5.4469   -1.9086    0.1619 H   0  0  0  0  0  0  0  0  0  0  0  0
   -0.8391    0.8739    1.0858 H   0  0  0  0  0  0  0  0  0  0  0  0
   -0.9837   -0.8569    1.3362 H   0  0  0  0  0  0  0  0  0  0  0  0
    4.7281    1.8057    0.3614 H   0  0  0  0  0  0  0  0  0  0  0  0
    3.6232   -2.3417   -0.1811 H   0  0  0  0  0  0  0  0  0  0  0  0
    3.7924    2.0242    0.2394 O   0  0  0  0  0  0  0  0  0  0  0  0
  5 14  1  0
  5 11  2  0
 14 12  1  0
  7 11  1  0
  7 13  1  0
 11  4  1  0
  2 10  2  0
  2  3  1  0
 12 15  2  0
 12  6  1  0
 10  8  1  0
 13  3  1  0
  4  6  2  0
  3  1  2  0
  6 29  1  0
  8  9  2  0
  1  9  1  0
  1 16  1  0
  2 17  1  0
  4 18  1  0
  5 19  1  0
  7 20  1  0
  7 21  1  0
  8 22  1  0
  9 23  1  0
 10 24  1  0
 13 25  1  0
 13 26  1  0
 29 27  1  0
 14 28  1  0
M  END
