
     RDKit          3D

 27 26  0  0  0  0  0  0  0  0999 V2000
    0.3167    0.0819    4.8636 C   0  0  0  0  0  0  0  0  0  0  0  0
    0.7338   -0.2015    3.4273 C   0  0  0  0  0  0  0  0  0  0  0  0
   -0.3826    0.0579    2.4227 C   0  0  0  0  0  0  0  0  0  0  0  0
    0.0364   -0.2119    0.9832 C   0  0  0  0  0  0  0  0  0  0  0  0
   -1.0850    0.0367   -0.0180 C   0  0  0  0  0  0  0  0  0  0  0  0
   -0.6878   -0.2199   -1.4685 C   0  0  1  0  0  0  0  0  0  0  0  0
   -1.8785   -0.1148   -2.4150 C   0  0  0  0  0  0  0  0  0  0  0  0
    0.3675    0.7031   -1.8565 N   0  0  0  0  0  0  0  0  0  0  0  0
    1.3438    0.4234   -2.7231 C   0  0  0  0  0  0  0  0  0  0  0  0
    1.5163   -0.6482   -3.2825 O   0  0  0  0  0  0  0  0  0  0  0  0
    1.1286   -0.1180    5.5638 H   0  0  0  0  0  0  0  0  0  0  0  0
    0.0199    1.1248    4.9905 H   0  0  0  0  0  0  0  0  0  0  0  0
   -0.5320   -0.5384    5.1581 H   0  0  0  0  0  0  0  0  0  0  0  0
    1.6009    0.4137    3.1676 H   0  0  0  0  0  0  0  0  0  0  0  0
    1.0636   -1.2411    3.3397 H   0  0  0  0  0  0  0  0  0  0  0  0
   -1.2488   -0.5628    2.6774 H   0  0  0  0  0  0  0  0  0  0  0  0
   -0.7173    1.0970    2.5156 H   0  0  0  0  0  0  0  0  0  0  0  0
    0.8994    0.4140    0.7358 H   0  0  0  0  0  0  0  0  0  0  0  0
    0.3764   -1.2491    0.8907 H   0  0  0  0  0  0  0  0  0  0  0  0
   -1.9337   -0.6105    0.2205 H   0  0  0  0  0  0  0  0  0  0  0  0
   -1.4527    1.0652    0.0804 H   0  0  0  0  0  0  0  0  0  0  0  0
   -0.2729   -1.2285   -1.5393 H   0  0  0  0  0  0  0  0  0  0  0  0
   -2.3199    0.8829   -2.3787 H   0  0  0  0  0  0  0  0  0  0  0  0
   -1.5790   -0.3177   -3.4434 H   0  0  0  0  0  0  0  0  0  0  0  0
   -2.6512   -0.8341   -2.1409 H   0  0  0  0  0  0  0  0  0  0  0  0
    0.3164    1.6491   -1.5100 H   0  0  0  0  0  0  0  0  0  0  0  0
    2.0086    1.2860   -2.8845 H   0  0  0  0  0  0  0  0  0  0  0  0
  1  2  1  0
  1 11  1  0
  1 12  1  0
  1 13  1  0
  2  3  1  0
  2 14  1  0
  2 15  1  0
  3  4  1  0
  3 16  1  0
  3 17  1  0
  4  5  1  0
  4 18  1  0
  4 19  1  0
  5  6  1  0
  5 20  1  0
  5 21  1  0
  6  7  1  0
  6  8  1  0
  6 22  1  1
  7 23  1  0
  7 24  1  0
  7 25  1  0
  8  9  1  0
  8 26  1  0
  9 10  2  0
  9 27  1  0
M  END
