
     RDKit          3D

 48 48  0  0  0  0  0  0  0  0999 V2000
   11.7618   -0.4185   -0.0602 C   0  0  0  0  0  0  0  0  0  0  0  0
   10.5025    0.4371   -0.0418 C   0  0  0  0  0  0  0  0  0  0  0  0
    9.2259   -0.3953   -0.0298 C   0  0  0  0  0  0  0  0  0  0  0  0
    7.9548    0.4445   -0.0100 C   0  0  0  0  0  0  0  0  0  0  0  0
    6.6823   -0.3938   -0.0132 C   0  0  0  0  0  0  0  0  0  0  0  0
    5.4082    0.4416    0.0072 C   0  0  0  0  0  0  0  0  0  0  0  0
    4.1388   -0.4012    0.0084 C   0  0  0  0  0  0  0  0  0  0  0  0
    2.8626    0.4311    0.0242 C   0  0  0  0  0  0  0  0  0  0  0  0
    1.5967   -0.4168    0.0277 C   0  0  0  0  0  0  0  0  0  0  0  0
    0.3209    0.4161    0.0355 C   0  0  0  0  0  0  0  0  0  0  0  0
   -0.9374   -0.4452    0.0387 C   0  0  0  0  0  0  0  0  0  0  0  0
   -2.1950    0.4130    0.0304 C   0  0  0  0  0  0  0  0  0  0  0  0
   -3.6372   -0.6990    0.0319 S   0  0  0  0  0  0  0  0  0  0  0  0
   -4.9472    0.4213   -0.0162 C   0  0  0  0  0  0  0  0  0  0  0  0
   -4.8809    1.7572   -0.0373 N   0  0  0  0  0  0  0  0  0  0  0  0
   -6.0944    2.3136   -0.0763 N   0  0  0  0  0  0  0  0  0  0  0  0
   -6.9531    1.3719   -0.0824 N   0  0  0  0  0  0  0  0  0  0  0  0
   -6.3110    0.1816   -0.0469 C   0  0  0  0  0  0  0  0  0  0  0  0
   -6.9378   -1.1302   -0.0421 C   0  0  0  0  0  0  0  0  0  0  0  0
   -6.2895   -2.1513    0.0016 O   0  0  0  0  0  0  0  0  0  0  0  0
   -8.2581   -1.0803   -0.0882 O   0  0  0  0  0  0  0  0  0  0  0  0
   12.6658    0.1918   -0.0649 H   0  0  0  0  0  0  0  0  0  0  0  0
   11.8072   -1.0690    0.8156 H   0  0  0  0  0  0  0  0  0  0  0  0
   11.7897   -1.0569   -0.9454 H   0  0  0  0  0  0  0  0  0  0  0  0
   10.5152    1.0919    0.8352 H   0  0  0  0  0  0  0  0  0  0  0  0
   10.4948    1.0990   -0.9135 H   0  0  0  0  0  0  0  0  0  0  0  0
    9.2140   -1.0520   -0.9073 H   0  0  0  0  0  0  0  0  0  0  0  0
    9.2361   -1.0585    0.8428 H   0  0  0  0  0  0  0  0  0  0  0  0
    7.9609    1.0910    0.8749 H   0  0  0  0  0  0  0  0  0  0  0  0
    7.9495    1.1166   -0.8756 H   0  0  0  0  0  0  0  0  0  0  0  0
    6.6770   -1.0416   -0.8972 H   0  0  0  0  0  0  0  0  0  0  0  0
    6.6892   -1.0654    0.8529 H   0  0  0  0  0  0  0  0  0  0  0  0
    5.4137    1.0908    0.8901 H   0  0  0  0  0  0  0  0  0  0  0  0
    5.3989    1.1110   -0.8604 H   0  0  0  0  0  0  0  0  0  0  0  0
    4.1354   -1.0531   -0.8726 H   0  0  0  0  0  0  0  0  0  0  0  0
    4.1476   -1.0683    0.8778 H   0  0  0  0  0  0  0  0  0  0  0  0
    2.8652    1.0840    0.9042 H   0  0  0  0  0  0  0  0  0  0  0  0
    2.8518    1.0960   -0.8467 H   0  0  0  0  0  0  0  0  0  0  0  0
    1.5962   -1.0723   -0.8501 H   0  0  0  0  0  0  0  0  0  0  0  0
    1.6046   -1.0779    0.9012 H   0  0  0  0  0  0  0  0  0  0  0  0
    0.3164    1.0709    0.9131 H   0  0  0  0  0  0  0  0  0  0  0  0
    0.3094    1.0740   -0.8398 H   0  0  0  0  0  0  0  0  0  0  0  0
   -0.9341   -1.1014   -0.8362 H   0  0  0  0  0  0  0  0  0  0  0  0
   -0.9367   -1.0913    0.9212 H   0  0  0  0  0  0  0  0  0  0  0  0
   -2.2266    1.0512    0.9151 H   0  0  0  0  0  0  0  0  0  0  0  0
   -2.2198    1.0382   -0.8637 H   0  0  0  0  0  0  0  0  0  0  0  0
   -4.0643    2.3520   -0.0270 H   0  0  0  0  0  0  0  0  0  0  0  0
   -8.6213   -1.9787   -0.0846 H   0  0  0  0  0  0  0  0  0  0  0  0
  1  2  1  0
  2  3  1  0
  3  4  1  0
  4  5  1  0
  6  5  1  0
  6  7  1  0
  7  8  1  0
  9  8  1  0
  9 10  1  0
 11 10  1  0
 11 12  1  0
 12 13  1  0
 13 14  1  0
 20 19  2  0
 19 18  1  0
 19 21  1  0
 14 18  2  0
 14 15  1  0
 18 17  1  0
 15 16  1  0
 17 16  2  0
  1 22  1  0
  1 23  1  0
  1 24  1  0
  2 25  1  0
  2 26  1  0
  3 27  1  0
  3 28  1  0
  4 29  1  0
  4 30  1  0
  5 31  1  0
  5 32  1  0
  6 33  1  0
  6 34  1  0
  7 35  1  0
  7 36  1  0
  8 37  1  0
  8 38  1  0
  9 39  1  0
  9 40  1  0
 10 41  1  0
 10 42  1  0
 11 43  1  0
 11 44  1  0
 12 45  1  0
 12 46  1  0
 15 47  1  0
 21 48  1  0
M  END
