
     RDKit          3D

 34 35  0  0  0  0  0  0  0  0999 V2000
    3.8748    2.5908   -0.0900 C   0  0  0  0  0  0  0  0  0  0  0  0
    3.2795    1.2867   -0.2608 N   0  0  0  0  0  0  0  0  0  0  0  0
    2.3022    0.8329    0.5358 C   0  0  0  0  0  0  0  0  0  0  0  0
    1.8597   -0.5678    0.2434 C   0  0  0  0  0  0  0  0  0  0  0  0
    2.7787   -1.6079    0.2942 C   0  0  0  0  0  0  0  0  0  0  0  0
    2.3832   -2.9240    0.0972 C   0  0  0  0  0  0  0  0  0  0  0  0
    1.0507   -3.1901   -0.1703 C   0  0  0  0  0  0  0  0  0  0  0  0
    0.1173   -2.1635   -0.2409 C   0  0  0  0  0  0  0  0  0  0  0  0
    0.5123   -0.8434   -0.0320 C   0  0  0  0  0  0  0  0  0  0  0  0
   -0.3008    0.2216   -0.1179 O   0  0  0  0  0  0  0  0  0  0  0  0
   -1.6998    0.0591   -0.3181 C   0  0  1  0  0  0  0  0  0  0  0  0
   -2.4193   -0.3745    0.9523 C   0  0  0  0  0  0  0  0  0  0  0  0
   -3.9233   -0.3666    0.7079 C   0  0  0  0  0  0  0  0  0  0  0  0
   -4.3816    0.8954    0.2786 O   0  0  0  0  0  0  0  0  0  0  0  0
   -3.7619    1.3032   -0.9209 C   0  0  0  0  0  0  0  0  0  0  0  0
   -2.2487    1.3984   -0.7775 C   0  0  0  0  0  0  0  0  0  0  0  0
    1.8275    1.4929    1.4484 O   0  0  0  0  0  0  0  0  0  0  0  0
    3.1381    3.3871   -0.2008 H   0  0  0  0  0  0  0  0  0  0  0  0
    4.3445    2.6925    0.8888 H   0  0  0  0  0  0  0  0  0  0  0  0
    4.6381    2.7222   -0.8514 H   0  0  0  0  0  0  0  0  0  0  0  0
    3.6023    0.7076   -1.0176 H   0  0  0  0  0  0  0  0  0  0  0  0
    3.8174   -1.3876    0.5084 H   0  0  0  0  0  0  0  0  0  0  0  0
    3.1066   -3.7257    0.1531 H   0  0  0  0  0  0  0  0  0  0  0  0
    0.7203   -4.2081   -0.3305 H   0  0  0  0  0  0  0  0  0  0  0  0
   -0.9095   -2.4147   -0.4661 H   0  0  0  0  0  0  0  0  0  0  0  0
   -1.8808   -0.6752   -1.1137 H   0  0  0  0  0  0  0  0  0  0  0  0
   -2.1217   -1.3759    1.2712 H   0  0  0  0  0  0  0  0  0  0  0  0
   -2.1697    0.3169    1.7624 H   0  0  0  0  0  0  0  0  0  0  0  0
   -4.1782   -1.1394   -0.0327 H   0  0  0  0  0  0  0  0  0  0  0  0
   -4.4576   -0.6079    1.6277 H   0  0  0  0  0  0  0  0  0  0  0  0
   -4.0100    0.6068   -1.7354 H   0  0  0  0  0  0  0  0  0  0  0  0
   -4.1792    2.2756   -1.1845 H   0  0  0  0  0  0  0  0  0  0  0  0
   -1.9932    2.1728   -0.0484 H   0  0  0  0  0  0  0  0  0  0  0  0
   -1.8131    1.6851   -1.7373 H   0  0  0  0  0  0  0  0  0  0  0  0
 13 12  1  0
 13 14  1  0
 12 11  1  0
 11 10  1  0
 11 16  1  0
 14 15  1  0
 10  9  1  0
  1  2  1  0
  2  3  1  0
  9  8  1  0
  9  4  2  0
  8  7  2  0
  3  4  1  0
  3 17  2  0
  4  5  1  0
 15 16  1  0
  7  6  1  0
  5  6  2  0
  1 18  1  0
  1 19  1  0
  1 20  1  0
  2 21  1  0
  5 22  1  0
  6 23  1  0
  7 24  1  0
  8 25  1  0
 11 26  1  6
 12 27  1  0
 12 28  1  0
 13 29  1  0
 13 30  1  0
 15 31  1  0
 15 32  1  0
 16 33  1  0
 16 34  1  0
M  END
