
     RDKit          3D

 32 33  0  0  0  0  0  0  0  0999 V2000
    2.6848   -2.5727    1.1419 C   0  0  0  0  0  0  0  0  0  0  0  0
    2.1728   -1.6260    0.0861 C   0  0  0  0  0  0  0  0  0  0  0  0
    1.2223   -1.9208   -0.6036 O   0  0  0  0  0  0  0  0  0  0  0  0
    2.9002   -0.3384   -0.1044 C   0  0  0  0  0  0  0  0  0  0  0  0
    4.2694   -0.3036    0.1714 C   0  0  0  0  0  0  0  0  0  0  0  0
    5.0581    0.7805   -0.1667 C   0  0  0  0  0  0  0  0  0  0  0  0
    4.4681    1.8751   -0.7830 C   0  0  0  0  0  0  0  0  0  0  0  0
    3.1053    1.8905   -1.0141 C   0  0  0  0  0  0  0  0  0  0  0  0
    2.2998    0.8008   -0.6782 C   0  0  0  0  0  0  0  0  0  0  0  0
    0.9407    0.8970   -0.9381 N   0  0  0  0  0  0  0  0  0  0  0  0
   -0.0951    0.5567   -0.0849 C   0  0  0  0  0  0  0  0  0  0  0  0
    0.0902    0.3627    1.2863 C   0  0  0  0  0  0  0  0  0  0  0  0
   -0.9823    0.0387    2.0943 C   0  0  0  0  0  0  0  0  0  0  0  0
   -2.2650   -0.0799    1.5755 C   0  0  0  0  0  0  0  0  0  0  0  0
   -2.4531    0.1329    0.2186 C   0  0  0  0  0  0  0  0  0  0  0  0
   -3.8090    0.0217   -0.4042 C   0  0  1  0  0  0  0  0  0  0  0  0
   -4.1637    1.1543   -1.0274 F   0  0  0  0  0  0  0  0  0  0  0  0
   -3.8515   -0.9476   -1.3325 F   0  0  0  0  0  0  0  0  0  0  0  0
   -4.7664   -0.2525    0.4862 F   0  0  0  0  0  0  0  0  0  0  0  0
   -1.3796    0.4379   -0.6079 C   0  0  0  0  0  0  0  0  0  0  0  0
    2.9531   -2.0566    2.0632 H   0  0  0  0  0  0  0  0  0  0  0  0
    1.9314   -3.3263    1.3579 H   0  0  0  0  0  0  0  0  0  0  0  0
    3.5784   -3.0920    0.7905 H   0  0  0  0  0  0  0  0  0  0  0  0
    4.7435   -1.1617    0.6278 H   0  0  0  0  0  0  0  0  0  0  0  0
    6.1184    0.7683    0.0411 H   0  0  0  0  0  0  0  0  0  0  0  0
    5.0644    2.7330   -1.0625 H   0  0  0  0  0  0  0  0  0  0  0  0
    2.6490    2.7718   -1.4475 H   0  0  0  0  0  0  0  0  0  0  0  0
    0.6938    1.5167   -1.6910 H   0  0  0  0  0  0  0  0  0  0  0  0
    1.0696    0.4817    1.7307 H   0  0  0  0  0  0  0  0  0  0  0  0
   -0.8210   -0.1066    3.1535 H   0  0  0  0  0  0  0  0  0  0  0  0
   -3.0876   -0.3243    2.2312 H   0  0  0  0  0  0  0  0  0  0  0  0
   -1.5263    0.5789   -1.6725 H   0  0  0  0  0  0  0  0  0  0  0  0
 16 17  1  6
  1  2  1  0
 16 18  1  0
 16 19  1  0
 16 15  1  0
  3  2  2  0
  2  4  1  0
 15 20  2  0
 15 14  1  0
 20 11  1  0
 14 13  2  0
 11 10  1  0
 11 12  2  0
 10  9  1  0
  4  5  2  0
  4  9  1  0
 13 12  1  0
  5  6  1  0
  9  8  2  0
  6  7  2  0
  8  7  1  0
  1 21  1  0
  1 22  1  0
  1 23  1  0
  5 24  1  0
  6 25  1  0
  7 26  1  0
  8 27  1  0
 10 28  1  0
 12 29  1  0
 13 30  1  0
 14 31  1  0
 20 32  1  0
M  END
