
     RDKit          3D

 19 20  0  0  0  0  0  0  0  0999 V2000
    2.9853   -1.4229    0.0202 C   0  0  0  0  0  0  0  0  0  0  0  0
    2.4635   -0.0696    0.0171 C   0  0  0  0  0  0  0  0  0  0  0  0
    3.1932    1.0988    0.0139 C   0  0  0  0  0  0  0  0  0  0  0  0
    1.0572    1.7202    0.0131 C   0  0  0  0  0  0  0  0  0  0  0  0
   -0.1274    2.4476    0.0119 C   0  0  0  0  0  0  0  0  0  0  0  0
   -1.3142    1.7425    0.0146 C   0  0  0  0  0  0  0  0  0  0  0  0
   -1.2966    0.3408    0.0184 C   0  0  0  0  0  0  0  0  0  0  0  0
    4.3167   -1.4652    0.0207 O   0  0  0  0  0  0  0  0  0  0  0  0
   -2.9528   -0.5772    0.0223 Br  0  0  0  0  0  0  0  0  0  0  0  0
   -0.1277   -0.3921    0.0192 C   0  0  0  0  0  0  0  0  0  0  0  0
    1.0801    0.3124    0.0165 C   0  0  0  0  0  0  0  0  0  0  0  0
    2.3572    2.1539    0.0114 N   0  0  0  0  0  0  0  0  0  0  0  0
    2.2947   -2.4190    0.0223 O   0  0  0  0  0  0  0  0  0  0  0  0
    4.2612    1.2453    0.0132 H   0  0  0  0  0  0  0  0  0  0  0  0
   -0.1297    3.5294    0.0089 H   0  0  0  0  0  0  0  0  0  0  0  0
   -2.2520    2.2811    0.0137 H   0  0  0  0  0  0  0  0  0  0  0  0
    4.6135   -2.3868    0.0260 H   0  0  0  0  0  0  0  0  0  0  0  0
   -0.1373   -1.4724    0.0219 H   0  0  0  0  0  0  0  0  0  0  0  0
    2.6513    3.1179    0.0089 H   0  0  0  0  0  0  0  0  0  0  0  0
  6  5  2  0
  6  7  1  0
  5  4  1  0
  9  7  1  0
  7 10  2  0
  4 12  1  0
  4 11  2  0
 12  3  1  0
 10 11  1  0
 11  2  1  0
  3  2  2  0
  2  1  1  0
  1 13  2  0
  1  8  1  0
  3 14  1  0
  5 15  1  0
  6 16  1  0
  8 17  1  0
 10 18  1  0
 12 19  1  0
M  END
