
     RDKit          3D

 29 29  0  0  0  0  0  0  0  0999 V2000
   -3.9925    1.1356    1.3759 S   0  0  0  0  0  0  0  0  0  0  0  0
   -2.2594    0.5900    1.3117 C   0  0  0  0  0  0  0  0  0  0  0  0
   -1.8411    0.1013   -0.0740 C   0  0  2  0  0  0  0  0  0  0  0  0
   -0.4092   -0.3903   -0.0399 C   0  0  0  0  0  0  0  0  0  0  0  0
    0.6548    0.4790   -0.2481 C   0  0  0  0  0  0  0  0  0  0  0  0
    1.9847    0.0580   -0.1961 C   0  0  0  0  0  0  0  0  0  0  0  0
   -0.1098   -1.7155    0.2730 C   0  0  0  0  0  0  0  0  0  0  0  0
    1.2028   -2.1541    0.3296 C   0  0  0  0  0  0  0  0  0  0  0  0
    2.2486   -1.2841    0.0804 C   0  0  0  0  0  0  0  0  0  0  0  0
    2.9726    0.9910   -0.4857 N   0  0  0  0  0  0  0  0  0  0  0  0
    4.2895    1.0515   -0.0633 C   0  0  0  0  0  0  0  0  0  0  0  0
    5.1652    1.8156   -0.5965 N   0  0  0  0  0  0  0  0  0  0  0  0
    4.6285    0.2201    0.9684 N   0  0  0  0  0  0  0  0  0  0  0  0
   -2.0452    1.1235   -1.1765 C   0  0  0  0  0  0  0  0  0  0  0  0
   -2.2898    0.8198   -2.3161 O   0  0  0  0  0  0  0  0  0  0  0  0
   -1.9046    2.3738   -0.7646 O   0  0  0  0  0  0  0  0  0  0  0  0
   -1.3720   -2.8579    0.6158 Cl  0  0  0  0  0  0  0  0  0  0  0  0
   -4.5500   -0.0808    1.3923 H   0  0  0  0  0  0  0  0  0  0  0  0
   -2.1115   -0.2045    2.0419 H   0  0  0  0  0  0  0  0  0  0  0  0
   -1.6551    1.4370    1.6346 H   0  0  0  0  0  0  0  0  0  0  0  0
   -2.4831   -0.7375   -0.3487 H   0  0  0  0  0  0  0  0  0  0  0  0
    0.4594    1.5242   -0.4547 H   0  0  0  0  0  0  0  0  0  0  0  0
    1.4169   -3.1902    0.5541 H   0  0  0  0  0  0  0  0  0  0  0  0
    3.2602   -1.6609    0.0989 H   0  0  0  0  0  0  0  0  0  0  0  0
    2.6748    1.7860   -1.0290 H   0  0  0  0  0  0  0  0  0  0  0  0
    4.7979    2.2758   -1.4212 H   0  0  0  0  0  0  0  0  0  0  0  0
    5.5495    0.3942    1.3374 H   0  0  0  0  0  0  0  0  0  0  0  0
    3.9405    0.0609    1.6881 H   0  0  0  0  0  0  0  0  0  0  0  0
   -2.0342    2.9883   -1.5037 H   0  0  0  0  0  0  0  0  0  0  0  0
  1  2  1  0
  1 18  1  0
  2  3  1  0
  2 19  1  0
  2 20  1  0
  3  4  1  0
  3 14  1  0
  3 21  1  6
  4  5  2  0
  4  7  1  0
  5  6  1  0
  5 22  1  0
  6  9  2  0
  6 10  1  0
  7  8  2  0
  7 17  1  0
  8  9  1  0
  8 23  1  0
  9 24  1  0
 10 11  1  0
 10 25  1  0
 11 12  2  0
 11 13  1  0
 12 26  1  0
 13 27  1  0
 13 28  1  0
 14 15  2  0
 14 16  1  0
 16 29  1  0
M  END
