
     RDKit          3D

 36 38  0  0  0  0  0  0  0  0999 V2000
    3.6228   -0.1251    0.0850 C   0  0  0  0  0  0  0  0  0  0  0  0
   -0.8784    0.3176    0.0213 N   0  0  0  0  0  0  0  0  0  0  0  0
    4.9855    0.0898    0.1625 C   0  0  0  0  0  0  0  0  0  0  0  0
   -0.9989    3.0323   -0.0780 N   0  0  0  0  0  0  0  0  0  0  0  0
   -4.3928    0.4862    0.0641 O   0  0  0  0  0  0  0  0  0  0  0  0
    5.7854   -1.0436    0.1446 C   0  0  0  0  0  0  0  0  0  0  0  0
   -3.2706    3.0064   -0.0672 N   0  0  0  0  0  0  0  0  0  0  0  0
    5.2294   -2.3261    0.0518 C   0  0  0  0  0  0  0  0  0  0  0  0
    3.8605   -2.5157   -0.0254 C   0  0  0  0  0  0  0  0  0  0  0  0
    3.0352   -1.3888   -0.0080 C   0  0  0  0  0  0  0  0  0  0  0  0
    1.6244   -1.1559   -0.0660 C   0  0  0  0  0  0  0  0  0  0  0  0
    1.4582    0.1905   -0.0043 C   0  0  0  0  0  0  0  0  0  0  0  0
    0.2475    0.9916   -0.0125 C   0  0  0  0  0  0  0  0  0  0  0  0
   -2.0618    0.9030    0.0081 C   0  0  0  0  0  0  0  0  0  0  0  0
   -2.1254    2.3249   -0.0460 C   0  0  0  0  0  0  0  0  0  0  0  0
    0.1792    2.4248   -0.0636 C   0  0  0  0  0  0  0  0  0  0  0  0
   -3.2581    0.0358    0.0703 C   0  0  0  0  0  0  0  0  0  0  0  0
   -3.8144   -2.3742    0.2823 C   0  0  0  0  0  0  0  0  0  0  0  0
   -2.9515   -1.2915    0.1239 N   0  0  0  0  0  0  0  0  0  0  0  0
   -5.0014   -2.2256    0.7129 N   0  0  0  0  0  0  0  0  0  0  0  0
   -3.1743   -3.5558   -0.0004 N   0  0  0  0  0  0  0  0  0  0  0  0
    1.2555    3.2132   -0.1063 N   0  0  0  0  0  0  0  0  0  0  0  0
    2.6597    0.8265    0.0872 O   0  0  0  0  0  0  0  0  0  0  0  0
    5.4069    1.0838    0.2341 H   0  0  0  0  0  0  0  0  0  0  0  0
    6.8600   -0.9334    0.2020 H   0  0  0  0  0  0  0  0  0  0  0  0
   -3.2458    4.0114   -0.0852 H   0  0  0  0  0  0  0  0  0  0  0  0
   -4.1527    2.5248   -0.0278 H   0  0  0  0  0  0  0  0  0  0  0  0
    5.8886   -3.1841    0.0408 H   0  0  0  0  0  0  0  0  0  0  0  0
    3.4416   -3.5111   -0.0977 H   0  0  0  0  0  0  0  0  0  0  0  0
    0.8412   -1.8913   -0.1451 H   0  0  0  0  0  0  0  0  0  0  0  0
   -1.9593   -1.4878    0.0918 H   0  0  0  0  0  0  0  0  0  0  0  0
   -5.4805   -3.1194    0.7320 H   0  0  0  0  0  0  0  0  0  0  0  0
   -2.4942   -3.5484   -0.7449 H   0  0  0  0  0  0  0  0  0  0  0  0
   -3.7597   -4.3755   -0.0222 H   0  0  0  0  0  0  0  0  0  0  0  0
    2.1941    2.8606   -0.0709 H   0  0  0  0  0  0  0  0  0  0  0  0
    1.1221    4.2099   -0.1225 H   0  0  0  0  0  0  0  0  0  0  0  0
  8  6  1  0
  8  9  2  0
  6  3  2  0
  9 10  1  0
  3  1  1  0
 10  1  2  0
 10 11  1  0
  1 23  1  0
 11 12  2  0
 23 12  1  0
 12 13  1  0
 13  2  2  0
 13 16  1  0
 20 18  2  0
  2 14  1  0
 22 16  1  0
 16  4  2  0
 19 18  1  0
 19 17  1  0
 18 21  1  0
 14 17  1  0
 14 15  2  0
 17  5  2  0
  4 15  1  0
 15  7  1  0
  3 24  1  0
  6 25  1  0
  7 26  1  0
  7 27  1  0
  8 28  1  0
  9 29  1  0
 11 30  1  0
 19 31  1  0
 20 32  1  0
 21 33  1  0
 21 34  1  0
 22 35  1  0
 22 36  1  0
M  END
