
     RDKit          3D

 17 17  0  0  0  0  0  0  0  0999 V2000
    1.8140   -0.4983   -0.0264 C   0  0  0  0  0  0  0  0  0  0  0  0
    0.4711   -0.8563   -0.0257 C   0  0  0  0  0  0  0  0  0  0  0  0
   -0.5033    0.1309   -0.0018 C   0  0  0  0  0  0  0  0  0  0  0  0
   -0.1851    1.4805    0.0192 C   0  0  0  0  0  0  0  0  0  0  0  0
    1.1538    1.8335    0.0155 C   0  0  0  0  0  0  0  0  0  0  0  0
    2.1394    0.8571   -0.0086 C   0  0  0  0  0  0  0  0  0  0  0  0
    2.8838   -1.5494   -0.0245 C   0  0  0  0  0  0  0  0  0  0  0  0
   -1.9049   -0.2642   -0.0046 N   0  0  0  0  0  0  0  0  0  0  0  0
   -2.7420    0.6075    0.0093 O   0  0  0  0  0  0  0  0  0  0  0  0
   -2.1651   -1.4445   -0.0201 O   0  0  0  0  0  0  0  0  0  0  0  0
    0.1960   -1.9019   -0.0460 H   0  0  0  0  0  0  0  0  0  0  0  0
   -0.9505    2.2420    0.0344 H   0  0  0  0  0  0  0  0  0  0  0  0
    1.4281    2.8795    0.0269 H   0  0  0  0  0  0  0  0  0  0  0  0
    3.1814    1.1531   -0.0171 H   0  0  0  0  0  0  0  0  0  0  0  0
    3.1732   -1.8031    0.9969 H   0  0  0  0  0  0  0  0  0  0  0  0
    2.5452   -2.4658   -0.5056 H   0  0  0  0  0  0  0  0  0  0  0  0
    3.7793   -1.2056   -0.5404 H   0  0  0  0  0  0  0  0  0  0  0  0
  1  2  2  0
  1  6  1  0
  1  7  1  0
  2  3  1  0
  2 11  1  0
  3  4  2  0
  3  8  1  0
  4  5  1  0
  4 12  1  0
  5  6  2  0
  5 13  1  0
  6 14  1  0
  7 15  1  0
  7 16  1  0
  7 17  1  0
  8  9  2  0
  8 10  1  0
M  CHG  2   8   1  10  -1
M  END
