
     RDKit          3D

 23 23  0  0  0  0  0  0  0  0999 V2000
   -2.3468   -0.6644   -0.7099 C   0  0  0  0  0  0  0  0  0  0  0  0
   -1.6672   -0.3647    0.6313 C   0  0  2  0  0  0  0  0  0  0  0  0
   -2.2815    0.7139    1.2795 O   0  0  0  0  0  0  0  0  0  0  0  0
   -0.1793   -0.1949    0.4193 C   0  0  0  0  0  0  0  0  0  0  0  0
   -3.7468   -1.0353   -0.5267 N   0  0  0  0  0  0  0  0  0  0  0  0
   -4.5409   -0.1311   -0.3401 N   0  0  0  0  0  0  0  0  0  0  0  0
   -5.3638    0.6170   -0.1777 N   0  0  0  0  0  0  0  0  0  0  0  0
    0.5821   -1.3062    0.0578 C   0  0  0  0  0  0  0  0  0  0  0  0
    1.9401   -1.1997   -0.1703 C   0  0  0  0  0  0  0  0  0  0  0  0
    2.5437    0.0433   -0.0332 C   0  0  0  0  0  0  0  0  0  0  0  0
    1.8148    1.1629    0.3337 C   0  0  0  0  0  0  0  0  0  0  0  0
    0.4545    1.0345    0.5623 C   0  0  0  0  0  0  0  0  0  0  0  0
    3.9716    0.1715   -0.2716 N   0  0  0  0  0  0  0  0  0  0  0  0
    4.5911   -0.8247   -0.5628 O   0  0  0  0  0  0  0  0  0  0  0  0
    4.4699    1.2678   -0.1677 O   0  0  0  0  0  0  0  0  0  0  0  0
   -2.2411    0.1918   -1.3856 H   0  0  0  0  0  0  0  0  0  0  0  0
   -1.8727   -1.5182   -1.1895 H   0  0  0  0  0  0  0  0  0  0  0  0
   -1.8175   -1.2288    1.2855 H   0  0  0  0  0  0  0  0  0  0  0  0
   -2.2362    1.4997    0.7224 H   0  0  0  0  0  0  0  0  0  0  0  0
    0.1121   -2.2773   -0.0380 H   0  0  0  0  0  0  0  0  0  0  0  0
    2.5089   -2.0757   -0.4456 H   0  0  0  0  0  0  0  0  0  0  0  0
    2.2872    2.1275    0.4490 H   0  0  0  0  0  0  0  0  0  0  0  0
   -0.0959    1.9154    0.8619 H   0  0  0  0  0  0  0  0  0  0  0  0
  1  2  1  0
  1  5  1  0
  1 16  1  0
  1 17  1  0
  2  3  1  0
  2  4  1  0
  2 18  1  1
  3 19  1  0
  4  8  2  0
  4 12  1  0
  5  6  2  0
  6  7  2  0
  8  9  1  0
  8 20  1  0
  9 10  2  0
  9 21  1  0
 10 11  1  0
 10 13  1  0
 11 12  2  0
 11 22  1  0
 12 23  1  0
 13 14  1  0
 13 15  2  0
M  CHG  4   6   1   7  -1  13   1  14  -1
M  END
