
     RDKit          3D

 23 23  0  0  0  0  0  0  0  0999 V2000
    0.2698   -0.2816   -0.0666 C   0  0  0  0  0  0  0  0  0  0  0  0
    1.1774   -1.3403   -0.1200 C   0  0  0  0  0  0  0  0  0  0  0  0
    2.5424   -1.1210   -0.1257 C   0  0  0  0  0  0  0  0  0  0  0  0
   -3.4872   -0.5703    0.1479 C   0  0  0  0  0  0  0  0  0  0  0  0
   -1.0966   -0.6057   -0.0783 N   0  0  0  0  0  0  0  0  0  0  0  0
   -4.6133    0.3331    0.0823 N   0  0  0  0  0  0  0  0  0  0  0  0
    0.7794    1.0151   -0.0161 C   0  0  0  0  0  0  0  0  0  0  0  0
    2.1498    1.2312   -0.0176 C   0  0  0  0  0  0  0  0  0  0  0  0
    3.0625    0.1760   -0.0741 C   0  0  0  0  0  0  0  0  0  0  0  0
   -2.1113    1.3939    0.3109 O   0  0  0  0  0  0  0  0  0  0  0  0
    0.8119   -2.3606   -0.1560 H   0  0  0  0  0  0  0  0  0  0  0  0
    3.2139   -1.9703   -0.1695 H   0  0  0  0  0  0  0  0  0  0  0  0
   -3.5206   -1.2449   -0.7114 H   0  0  0  0  0  0  0  0  0  0  0  0
   -3.4704   -1.2180    1.0376 H   0  0  0  0  0  0  0  0  0  0  0  0
   -1.2924   -1.5861   -0.2155 H   0  0  0  0  0  0  0  0  0  0  0  0
   -5.4640   -0.2129    0.0537 H   0  0  0  0  0  0  0  0  0  0  0  0
   -4.6627    0.8782    0.9330 H   0  0  0  0  0  0  0  0  0  0  0  0
    0.1204    1.8668    0.0242 H   0  0  0  0  0  0  0  0  0  0  0  0
    5.0005   -0.3568    0.1910 H   0  0  0  0  0  0  0  0  0  0  0  0
    4.7298    1.2794    0.2609 H   0  0  0  0  0  0  0  0  0  0  0  0
    2.5145    2.2512    0.0234 H   0  0  0  0  0  0  0  0  0  0  0  0
    4.4263    0.4043   -0.1361 N   0  0  0  0  0  0  0  0  0  0  0  0
   -2.1712    0.1910    0.1267 C   0  0  0  0  0  0  0  0  0  0  0  0
  6  4  1  0
 10 23  2  0
  4 23  1  0
 23  5  1  0
  5  1  1  0
  1  2  2  0
  1  7  1  0
  2  3  1  0
  7  8  2  0
  3  9  2  0
  8  9  1  0
  9 22  1  0
  2 11  1  0
  3 12  1  0
  4 13  1  0
  4 14  1  0
  5 15  1  0
  6 16  1  0
  6 17  1  0
  7 18  1  0
 22 19  1  0
 22 20  1  0
  8 21  1  0
M  END
