
     RDKit          3D

 46 49  0  0  0  0  0  0  0  0999 V2000
   -1.1597    2.1391   -0.5722 C   0  0  0  0  0  0  0  0  0  0  0  0
   -1.8679    2.0677   -1.7392 C   0  0  0  0  0  0  0  0  0  0  0  0
   -2.5425    3.1867   -2.2757 C   0  0  0  0  0  0  0  0  0  0  0  0
   -2.4695    4.3560   -1.5933 C   0  0  0  0  0  0  0  0  0  0  0  0
   -1.7743    4.4286   -0.4366 N   0  0  0  0  0  0  0  0  0  0  0  0
   -1.0914    3.3903    0.1598 C   0  0  0  0  0  0  0  0  0  0  0  0
    3.2882   -0.9571    0.3333 C   0  0  0  0  0  0  0  0  0  0  0  0
    4.6221   -0.8448    0.6615 C   0  0  0  0  0  0  0  0  0  0  0  0
    5.5848   -0.8973   -0.3613 C   0  0  0  0  0  0  0  0  0  0  0  0
    5.2478   -1.0397   -1.6419 N   0  0  0  0  0  0  0  0  0  0  0  0
    3.9571   -1.1371   -1.9398 C   0  0  0  0  0  0  0  0  0  0  0  0
    2.9366   -1.1065   -1.0099 C   0  0  0  0  0  0  0  0  0  0  0  0
   -2.7007   -2.0939    0.3509 C   0  0  0  0  0  0  0  0  0  0  0  0
   -1.7239   -2.9162    0.9429 C   0  0  0  0  0  0  0  0  0  0  0  0
   -0.4542   -2.4486    1.1969 C   0  0  0  0  0  0  0  0  0  0  0  0
   -2.4144   -0.7879    0.0058 C   0  0  0  0  0  0  0  0  0  0  0  0
   -1.1297   -0.3000    0.2415 C   0  0  0  0  0  0  0  0  0  0  0  0
   -0.1643   -1.1280    0.8490 C   0  0  0  0  0  0  0  0  0  0  0  0
    0.9825   -0.4047    1.0017 N   0  0  0  0  0  0  0  0  0  0  0  0
    0.7716    0.8540    0.4764 C   0  0  0  0  0  0  0  0  0  0  0  0
   -0.5092    0.9632   -0.0007 C   0  0  0  0  0  0  0  0  0  0  0  0
    1.8513    2.6946   -0.5158 O   0  0  0  0  0  0  0  0  0  0  0  0
    2.2517   -0.9591    1.4262 C   0  0  0  0  0  0  0  0  0  0  0  0
   -4.0865   -2.6086    0.1338 C   0  0  1  0  0  0  0  0  0  0  0  0
    2.6302    1.9024    1.4245 O   0  0  0  0  0  0  0  0  0  0  0  0
   -4.1459   -3.9451    0.1344 F   0  0  0  0  0  0  0  0  0  0  0  0
   -4.9344   -2.1872    1.0876 F   0  0  0  0  0  0  0  0  0  0  0  0
   -4.6019   -2.1959   -1.0332 F   0  0  0  0  0  0  0  0  0  0  0  0
   -0.5014    3.5632    1.2217 O   0  0  0  0  0  0  0  0  0  0  0  0
    6.9104   -0.7515   -0.0804 N   0  0  0  0  0  0  0  0  0  0  0  0
   -1.9043    1.1289   -2.2794 H   0  0  0  0  0  0  0  0  0  0  0  0
   -3.0949    3.1217   -3.2001 H   0  0  0  0  0  0  0  0  0  0  0  0
   -2.9452    5.2698   -1.9171 H   0  0  0  0  0  0  0  0  0  0  0  0
   -1.7415    5.3167    0.0462 H   0  0  0  0  0  0  0  0  0  0  0  0
    4.9312   -0.7086    1.6911 H   0  0  0  0  0  0  0  0  0  0  0  0
    3.7217   -1.2500   -2.9927 H   0  0  0  0  0  0  0  0  0  0  0  0
    1.9079   -1.2036   -1.3296 H   0  0  0  0  0  0  0  0  0  0  0  0
   -1.9582   -3.9364    1.2126 H   0  0  0  0  0  0  0  0  0  0  0  0
    0.2764   -3.0980    1.6597 H   0  0  0  0  0  0  0  0  0  0  0  0
   -3.1624   -0.1460   -0.4429 H   0  0  0  0  0  0  0  0  0  0  0  0
    2.0707   -1.9887    1.7339 H   0  0  0  0  0  0  0  0  0  0  0  0
    2.6169   -0.4359    2.3081 H   0  0  0  0  0  0  0  0  0  0  0  0
    3.3118    2.5823    1.3082 H   0  0  0  0  0  0  0  0  0  0  0  0
    7.2165   -0.9483    0.8576 H   0  0  0  0  0  0  0  0  0  0  0  0
    7.5518   -1.0526   -0.7958 H   0  0  0  0  0  0  0  0  0  0  0  0
    1.7973    1.9096    0.3962 C   0  0  0  0  0  0  0  0  0  0  0  0
  1  2  2  0
  6  1  1  0
 21  1  1  0
  2  3  1  0
  2 31  1  0
  3  4  2  0
  3 32  1  0
  5  4  1  0
  4 33  1  0
  6  5  1  0
  5 34  1  0
 29  6  2  0
 12  7  1  0
  7 23  1  0
  7  8  2  0
  9  8  1  0
  8 35  1  0
 10  9  2  0
  9 30  1  0
 11 10  1  0
 11 12  2  0
 11 36  1  0
 12 37  1  0
 14 13  2  0
 16 13  1  0
 13 24  1  0
 15 14  1  0
 14 38  1  0
 18 15  2  0
 15 39  1  0
 17 16  2  0
 16 40  1  0
 21 17  1  0
 18 17  1  0
 19 18  1  0
 23 19  1  0
 20 19  1  0
 46 20  1  0
 20 21  2  0
 22 46  2  0
 46 25  1  0
 23 41  1  0
 23 42  1  0
 24 26  1  6
 24 27  1  0
 24 28  1  0
 25 43  1  0
 30 44  1  0
 30 45  1  0
M  END
