
     RDKit          3D

 39 40  0  0  0  0  0  0  0  0999 V2000
    2.0928   -0.0834   -0.1095 B   0  0  0  0  0  0  0  0  0  0  0  0
   -2.2324   -0.5138    0.3125 C   0  0  0  0  0  0  0  0  0  0  0  0
   -4.5017    1.3374   -1.0597 N   0  0  0  0  0  0  0  0  0  0  0  0
   -6.0032   -0.2497    0.1371 O   0  0  0  0  0  0  0  0  0  0  0  0
   -4.7622    0.4730    0.3038 S   0  0  1  0  0  0  0  0  0  0  0  0
   -1.4599   -1.5622   -0.1911 C   0  0  0  0  0  0  0  0  0  0  0  0
   -3.6110   -0.7241    0.4382 N   0  0  0  0  0  0  0  0  0  0  0  0
   -4.5812    1.3922    1.4068 O   0  0  0  0  0  0  0  0  0  0  0  0
   -0.0902   -1.4253   -0.3097 C   0  0  0  0  0  0  0  0  0  0  0  0
    2.7695    1.0595    0.1962 O   0  0  0  0  0  0  0  0  0  0  0  0
    0.5600   -0.2401    0.0463 C   0  0  0  0  0  0  0  0  0  0  0  0
    2.9069   -1.0731   -0.5734 O   0  0  0  0  0  0  0  0  0  0  0  0
   -0.2310    0.7959    0.5440 C   0  0  0  0  0  0  0  0  0  0  0  0
   -1.6036    0.6721    0.6918 C   0  0  0  0  0  0  0  0  0  0  0  0
    4.1165    0.9089   -0.2958 C   0  0  2  0  0  0  0  0  0  0  0  0
    4.2684   -0.6447   -0.3710 C   0  0  2  0  0  0  0  0  0  0  0  0
    5.0818    1.5917    0.6556 C   0  0  0  0  0  0  0  0  0  0  0  0
    4.1815    1.5844   -1.6617 C   0  0  0  0  0  0  0  0  0  0  0  0
    5.1285   -1.1435   -1.5184 C   0  0  0  0  0  0  0  0  0  0  0  0
    4.7550   -1.2635    0.9361 C   0  0  0  0  0  0  0  0  0  0  0  0
   -3.7060    1.9635   -1.0255 H   0  0  0  0  0  0  0  0  0  0  0  0
   -4.5175    0.7883   -1.9117 H   0  0  0  0  0  0  0  0  0  0  0  0
   -1.9390   -2.4855   -0.4939 H   0  0  0  0  0  0  0  0  0  0  0  0
   -3.9423   -1.6038    0.0594 H   0  0  0  0  0  0  0  0  0  0  0  0
    0.4760   -2.2622   -0.6992 H   0  0  0  0  0  0  0  0  0  0  0  0
    0.2269    1.7312    0.8414 H   0  0  0  0  0  0  0  0  0  0  0  0
   -2.1580    1.4948    1.1196 H   0  0  0  0  0  0  0  0  0  0  0  0
    4.9531    1.2629    1.6856 H   0  0  0  0  0  0  0  0  0  0  0  0
    6.1121    1.3890    0.3610 H   0  0  0  0  0  0  0  0  0  0  0  0
    4.9396    2.6726    0.6266 H   0  0  0  0  0  0  0  0  0  0  0  0
    3.8776    2.6275   -1.5676 H   0  0  0  0  0  0  0  0  0  0  0  0
    5.1971    1.5731   -2.0575 H   0  0  0  0  0  0  0  0  0  0  0  0
    3.5268    1.1089   -2.3938 H   0  0  0  0  0  0  0  0  0  0  0  0
    4.7580   -0.8231   -2.4909 H   0  0  0  0  0  0  0  0  0  0  0  0
    6.1531   -0.7847   -1.4116 H   0  0  0  0  0  0  0  0  0  0  0  0
    5.1630   -2.2337   -1.5136 H   0  0  0  0  0  0  0  0  0  0  0  0
    4.6726   -2.3495    0.8801 H   0  0  0  0  0  0  0  0  0  0  0  0
    5.8017   -1.0206    1.1192 H   0  0  0  0  0  0  0  0  0  0  0  0
    4.1762   -0.9290    1.7986 H   0  0  0  0  0  0  0  0  0  0  0  0
 12  1  1  0
 10  1  1  0
  1 11  1  0
 14  2  2  0
  6  2  1  0
  2  7  1  0
  5  3  1  6
  3 21  1  0
  3 22  1  0
  4  5  2  0
  7  5  1  0
  5  8  2  0
  9  6  2  0
  6 23  1  0
  7 24  1  0
 11  9  1  0
  9 25  1  0
 15 10  1  0
 11 13  2  0
 16 12  1  0
 13 14  1  0
 13 26  1  0
 14 27  1  0
 15 17  1  1
 16 15  1  0
 15 18  1  0
 16 20  1  1
 16 19  1  0
 17 28  1  0
 17 29  1  0
 17 30  1  0
 18 31  1  0
 18 32  1  0
 18 33  1  0
 19 34  1  0
 19 35  1  0
 19 36  1  0
 20 37  1  0
 20 38  1  0
 20 39  1  0
M  END
