
     RDKit          3D

 37 39  0  0  0  0  0  0  0  0999 V2000
    7.6721    0.4185    0.0237 C   0  0  0  0  0  0  0  0  0  0  0  0
    6.9799   -0.7083   -0.3920 C   0  0  0  0  0  0  0  0  0  0  0  0
    6.9543    1.5406    0.4159 C   0  0  0  0  0  0  0  0  0  0  0  0
    5.5912   -0.7341   -0.4186 C   0  0  0  0  0  0  0  0  0  0  0  0
    5.5707    1.5334    0.3927 C   0  0  0  0  0  0  0  0  0  0  0  0
    4.8742    0.3947   -0.0206 C   0  0  0  0  0  0  0  0  0  0  0  0
   -3.0606    0.7563   -0.1413 C   0  0  0  0  0  0  0  0  0  0  0  0
   -3.6429   -0.4907   -0.0219 C   0  0  0  0  0  0  0  0  0  0  0  0
   -1.4734   -0.6309   -0.2175 C   0  0  0  0  0  0  0  0  0  0  0  0
   -3.8984    1.9064   -0.1225 C   0  0  0  0  0  0  0  0  0  0  0  0
   -5.7164    0.2577    0.1363 C   0  0  0  0  0  0  0  0  0  0  0  0
    2.5619   -0.4874   -0.2611 C   0  0  0  0  0  0  0  0  0  0  0  0
    1.1325    0.0044   -0.1641 C   0  0  0  0  0  0  0  0  0  0  0  0
   -1.6973    0.6470   -0.2634 N   0  0  0  0  0  0  0  0  0  0  0  0
   -4.9396   -0.7948    0.1207 N   0  0  0  0  0  0  0  0  0  0  0  0
   -2.6142   -1.3800   -0.0702 N   0  0  0  0  0  0  0  0  0  0  0  0
   -5.2427    1.5322    0.0215 N   0  0  0  0  0  0  0  0  0  0  0  0
   -7.0491    0.1077    0.2308 N   0  0  0  0  0  0  0  0  0  0  0  0
    3.4752    0.4760   -0.0099 N   0  0  0  0  0  0  0  0  0  0  0  0
   -3.5905    3.0838   -0.2066 O   0  0  0  0  0  0  0  0  0  0  0  0
    2.8159   -1.6448   -0.5356 O   0  0  0  0  0  0  0  0  0  0  0  0
    0.0657   -1.4423   -0.3413 S   0  0  0  0  0  0  0  0  0  0  0  0
    8.7537    0.4246    0.0412 H   0  0  0  0  0  0  0  0  0  0  0  0
    7.5216   -1.5918   -0.7046 H   0  0  0  0  0  0  0  0  0  0  0  0
    7.4715    2.4330    0.7438 H   0  0  0  0  0  0  0  0  0  0  0  0
    5.0874   -1.6264   -0.7493 H   0  0  0  0  0  0  0  0  0  0  0  0
    5.0243    2.4158    0.7049 H   0  0  0  0  0  0  0  0  0  0  0  0
   -2.4532   -3.2968   -0.9139 H   0  0  0  0  0  0  0  0  0  0  0  0
   -2.0359   -3.1841    0.8101 H   0  0  0  0  0  0  0  0  0  0  0  0
   -3.7235   -3.0822    0.2968 H   0  0  0  0  0  0  0  0  0  0  0  0
    0.9452    0.4982    0.7910 H   0  0  0  0  0  0  0  0  0  0  0  0
    0.9277    0.7282   -0.9553 H   0  0  0  0  0  0  0  0  0  0  0  0
   -5.9083    2.2946    0.0325 H   0  0  0  0  0  0  0  0  0  0  0  0
   -7.6339    0.8845    0.4890 H   0  0  0  0  0  0  0  0  0  0  0  0
   -7.3902   -0.8051    0.4813 H   0  0  0  0  0  0  0  0  0  0  0  0
    3.1075    1.3828    0.2399 H   0  0  0  0  0  0  0  0  0  0  0  0
   -2.7040   -2.8182    0.0320 C   0  0  0  0  0  0  0  0  0  0  0  0
 37 16  1  0
 18 11  1  0
 15 11  2  0
 15  8  1  0
 16  8  1  0
 16  9  1  0
 11 17  1  0
  8  7  2  0
 22  9  1  0
 22 13  1  0
  9 14  2  0
 17 10  1  0
  7 14  1  0
  7 10  1  0
 10 20  2  0
 13 12  1  0
 12 21  2  0
 12 19  1  0
 19  6  1  0
  4  6  2  0
  4  2  1  0
  6  5  1  0
  2  1  2  0
  5  3  2  0
  1  3  1  0
  1 23  1  0
  2 24  1  0
  3 25  1  0
  4 26  1  0
  5 27  1  0
 37 28  1  0
 37 29  1  0
 37 30  1  0
 13 31  1  0
 13 32  1  0
 17 33  1  0
 18 34  1  0
 18 35  1  0
 19 36  1  0
M  END
