
     RDKit          3D

 39 41  0  0  0  0  0  0  0  0999 V2000
   -2.4296   -0.8606   -0.0929 C   0  0  0  0  0  0  0  0  0  0  0  0
    4.1839   -1.0969   -0.0975 C   0  0  0  0  0  0  0  0  0  0  0  0
   -2.3023    0.5355    0.1014 C   0  0  0  0  0  0  0  0  0  0  0  0
   -4.8168   -0.7116   -0.1984 C   0  0  0  0  0  0  0  0  0  0  0  0
    3.4534    1.5153    0.2700 C   0  0  0  0  0  0  0  0  0  0  0  0
   -4.6025    0.7732   -0.4931 C   0  0  1  0  0  0  0  0  0  0  0  0
   -5.8614    1.5601   -0.1763 C   0  0  0  0  0  0  0  0  0  0  0  0
    4.7773    1.1469    0.2212 C   0  0  0  0  0  0  0  0  0  0  0  0
    5.2004   -0.1641    0.0416 C   0  0  0  0  0  0  0  0  0  0  0  0
   -0.0511   -0.9840   -0.1606 N   0  0  0  0  0  0  0  0  0  0  0  0
   -1.2573   -1.5590   -0.2287 C   0  0  0  0  0  0  0  0  0  0  0  0
   -1.1135    1.1000    0.1862 N   0  0  0  0  0  0  0  0  0  0  0  0
    2.4566    0.5452    0.1191 C   0  0  0  0  0  0  0  0  0  0  0  0
   -0.0394    0.3153    0.0627 C   0  0  0  0  0  0  0  0  0  0  0  0
   -3.6932   -1.4542   -0.0448 N   0  0  0  0  0  0  0  0  0  0  0  0
   -3.4276    1.2771    0.2218 N   0  0  0  0  0  0  0  0  0  0  0  0
   -5.9329   -1.1941   -0.1564 O   0  0  0  0  0  0  0  0  0  0  0  0
    2.8404   -0.7833   -0.0718 C   0  0  0  0  0  0  0  0  0  0  0  0
    6.4887   -0.5550   -0.0323 O   0  0  0  0  0  0  0  0  0  0  0  0
    5.7235    2.0896    0.3638 F   0  0  0  0  0  0  0  0  0  0  0  0
    3.2017    2.5577    0.4219 H   0  0  0  0  0  0  0  0  0  0  0  0
   -4.4233    0.8484   -1.5780 H   0  0  0  0  0  0  0  0  0  0  0  0
   -6.0741    1.5684    0.8928 H   0  0  0  0  0  0  0  0  0  0  0  0
   -5.7787    2.5868   -0.5255 H   0  0  0  0  0  0  0  0  0  0  0  0
   -6.7077    1.1138   -0.6911 H   0  0  0  0  0  0  0  0  0  0  0  0
   -1.2588   -2.6310   -0.3852 H   0  0  0  0  0  0  0  0  0  0  0  0
    2.1080   -1.5651   -0.1906 H   0  0  0  0  0  0  0  0  0  0  0  0
    7.0657    0.0850    0.3995 H   0  0  0  0  0  0  0  0  0  0  0  0
   -3.7784   -2.8895    0.1500 C   0  0  0  0  0  0  0  0  0  0  0  0
   -3.2980    2.7083    0.4146 C   0  0  0  0  0  0  0  0  0  0  0  0
    1.1458    0.9884    0.1756 N   0  0  0  0  0  0  0  0  0  0  0  0
    4.5401   -2.3766   -0.2750 F   0  0  0  0  0  0  0  0  0  0  0  0
   -3.1556   -3.1884    0.9927 H   0  0  0  0  0  0  0  0  0  0  0  0
   -4.8052   -3.1656    0.3599 H   0  0  0  0  0  0  0  0  0  0  0  0
   -3.4486   -3.4276   -0.7393 H   0  0  0  0  0  0  0  0  0  0  0  0
   -3.1569    3.2428   -0.5293 H   0  0  0  0  0  0  0  0  0  0  0  0
   -4.1831    3.0989    0.9080 H   0  0  0  0  0  0  0  0  0  0  0  0
   -2.4437    2.9103    1.0526 H   0  0  0  0  0  0  0  0  0  0  0  0
    1.0280    1.9792    0.3213 H   0  0  0  0  0  0  0  0  0  0  0  0
 20  8  1  0
 10 11  2  0
 10 14  1  0
  5  8  2  0
  5 13  1  0
 31 14  1  0
 31 13  1  0
 11  1  1  0
  8  9  1  0
 14 12  2  0
 13 18  2  0
 29 15  1  0
  1 15  1  0
  1  3  2  0
  9 19  1  0
  9  2  2  0
 12  3  1  0
 15  4  1  0
 18  2  1  0
  3 16  1  0
  2 32  1  0
  4 17  2  0
  4  6  1  0
 16  6  1  0
 16 30  1  0
  6  7  1  0
  5 21  1  0
  6 22  1  6
 29 33  1  0
 29 34  1  0
 29 35  1  0
 30 36  1  0
 30 37  1  0
 30 38  1  0
  7 23  1  0
  7 24  1  0
  7 25  1  0
 31 39  1  0
 11 26  1  0
 18 27  1  0
 19 28  1  0
M  END
