
     RDKit          3D

 55 58  0  0  0  0  0  0  0  0999 V2000
   -1.7923    0.6651   -0.5488 N   0  0  0  0  0  0  0  0  0  0  0  0
    0.4523    0.6470   -0.7834 N   0  0  0  0  0  0  0  0  0  0  0  0
   -3.0976    0.4410   -0.1290 C   0  0  0  0  0  0  0  0  0  0  0  0
   -0.5993    0.1523   -0.1273 C   0  0  0  0  0  0  0  0  0  0  0  0
    0.6517   -1.1824    1.1743 C   0  0  0  0  0  0  0  0  0  0  0  0
    1.8091   -0.7561    0.5802 C   0  0  0  0  0  0  0  0  0  0  0  0
    1.6585    0.2119   -0.4401 C   0  0  0  0  0  0  0  0  0  0  0  0
    4.0421    0.4284   -0.7288 C   0  0  0  0  0  0  0  0  0  0  0  0
    6.6452   -0.0570    0.0826 C   0  0  0  0  0  0  0  0  0  0  0  0
    4.8397   -0.3299   -1.5580 C   0  0  0  0  0  0  0  0  0  0  0  0
   -5.7876    0.1404    0.5787 C   0  0  0  0  0  0  0  0  0  0  0  0
   -5.4229    1.0049   -0.4573 C   0  0  0  0  0  0  0  0  0  0  0  0
   -4.0874    1.1592   -0.8076 C   0  0  0  0  0  0  0  0  0  0  0  0
   -0.5674   -0.7449    0.8466 N   0  0  0  0  0  0  0  0  0  0  0  0
    2.7111    0.7201   -1.1224 N   0  0  0  0  0  0  0  0  0  0  0  0
    2.4888    1.6540   -2.2146 C   0  0  0  0  0  0  0  0  0  0  0  0
    4.5239    0.9490    0.4939 C   0  0  0  0  0  0  0  0  0  0  0  0
    5.8119    0.7060    0.9090 C   0  0  0  0  0  0  0  0  0  0  0  0
    7.9952   -0.5127    0.1407 C   0  0  0  0  0  0  0  0  0  0  0  0
    8.2774   -1.2105   -0.9315 N   0  0  0  0  0  0  0  0  0  0  0  0
    7.1770   -1.2359   -1.6939 N   0  0  0  0  0  0  0  0  0  0  0  0
    6.1532   -0.5550   -1.1349 C   0  0  0  0  0  0  0  0  0  0  0  0
   -3.4480   -0.4304    0.9000 C   0  0  0  0  0  0  0  0  0  0  0  0
   -4.7918   -0.5765    1.2410 C   0  0  0  0  0  0  0  0  0  0  0  0
   -5.2212   -1.3955    2.2179 O   0  0  0  0  0  0  0  0  0  0  0  0
   -7.0947    0.0141    0.9384 O   0  0  0  0  0  0  0  0  0  0  0  0
   -1.6897    1.3319   -1.2985 H   0  0  0  0  0  0  0  0  0  0  0  0
    0.6925   -1.9257    1.9626 H   0  0  0  0  0  0  0  0  0  0  0  0
    2.7669   -1.1523    0.8779 H   0  0  0  0  0  0  0  0  0  0  0  0
    8.6488   -0.6960    2.1686 H   0  0  0  0  0  0  0  0  0  0  0  0
    9.9477   -0.7238    0.9739 H   0  0  0  0  0  0  0  0  0  0  0  0
    9.1458    0.7937    1.3832 H   0  0  0  0  0  0  0  0  0  0  0  0
    4.4599   -0.7310   -2.4888 H   0  0  0  0  0  0  0  0  0  0  0  0
   -4.8224   -2.7219    3.6772 H   0  0  0  0  0  0  0  0  0  0  0  0
   -3.7148   -2.8363    2.2998 H   0  0  0  0  0  0  0  0  0  0  0  0
   -3.5528   -1.5035    3.4642 H   0  0  0  0  0  0  0  0  0  0  0  0
   -8.8250   -0.9871    0.5837 H   0  0  0  0  0  0  0  0  0  0  0  0
   -7.7548   -0.8927   -0.8246 H   0  0  0  0  0  0  0  0  0  0  0  0
   -7.3802   -2.0095    0.5046 H   0  0  0  0  0  0  0  0  0  0  0  0
   -5.4979    3.3769   -1.7581 H   0  0  0  0  0  0  0  0  0  0  0  0
   -5.6572    2.0643   -2.9462 H   0  0  0  0  0  0  0  0  0  0  0  0
   -7.0877    2.9723   -2.4280 H   0  0  0  0  0  0  0  0  0  0  0  0
   -3.7986    1.8289   -1.6075 H   0  0  0  0  0  0  0  0  0  0  0  0
    2.0055    2.5685   -1.8683 H   0  0  0  0  0  0  0  0  0  0  0  0
    3.4510    1.9154   -2.6450 H   0  0  0  0  0  0  0  0  0  0  0  0
    1.8679    1.2141   -2.9944 H   0  0  0  0  0  0  0  0  0  0  0  0
    3.8592    1.5489    1.1019 H   0  0  0  0  0  0  0  0  0  0  0  0
    6.1715    1.1063    1.8483 H   0  0  0  0  0  0  0  0  0  0  0  0
    7.1891   -1.7311   -2.5701 H   0  0  0  0  0  0  0  0  0  0  0  0
   -2.6743   -0.9776    1.4114 H   0  0  0  0  0  0  0  0  0  0  0  0
   -6.4369    1.6525   -1.0560 O   0  0  0  0  0  0  0  0  0  0  0  0
    8.9882   -0.2736    1.2217 C   0  0  0  0  0  0  0  0  0  0  0  0
   -4.2667   -2.1453    2.9420 C   0  0  0  0  0  0  0  0  0  0  0  0
   -7.7859   -1.0246    0.2599 C   0  0  0  0  0  0  0  0  0  0  0  0
   -6.1380    2.5587   -2.0983 C   0  0  0  0  0  0  0  0  0  0  0  0
  1  3  1  0
  1  4  1  0
  2  4  2  0
  2  7  1  0
  3 13  2  0
  3 23  1  0
  4 14  1  0
  5  6  1  0
  5 14  2  0
  6  7  2  0
  7 15  1  0
  8 10  2  0
  8 15  1  0
  8 17  1  0
  9 18  1  0
  9 19  1  0
  9 22  2  0
 52 19  1  0
 10 22  1  0
 53 25  1  0
 11 12  2  0
 11 24  1  0
 11 26  1  0
 54 26  1  0
 55 51  1  0
 51 12  1  0
 12 13  1  0
 15 16  1  0
 17 18  2  0
 19 20  2  0
 20 21  1  0
 21 22  1  0
 23 24  2  0
 24 25  1  0
  1 27  1  0
  5 28  1  0
  6 29  1  0
 52 30  1  0
 52 31  1  0
 52 32  1  0
 10 33  1  0
 53 34  1  0
 53 35  1  0
 53 36  1  0
 54 37  1  0
 54 38  1  0
 54 39  1  0
 55 40  1  0
 55 41  1  0
 55 42  1  0
 13 43  1  0
 16 44  1  0
 16 45  1  0
 16 46  1  0
 17 47  1  0
 18 48  1  0
 21 49  1  0
 23 50  1  0
M  END
