
     RDKit          3D

 45 45  0  0  0  0  0  0  0  0999 V2000
    1.4105   -0.3233   -0.2040 C   0  0  0  0  0  0  0  0  0  0  0  0
    1.2257   -1.1260    0.7320 O   0  0  0  0  0  0  0  0  0  0  0  0
    2.4551   -0.5905   -1.2588 C   0  0  0  0  0  0  0  0  0  0  0  0
    4.0940    0.6556   -1.1388 I   0  0  0  0  0  0  0  0  0  0  0  0
    0.6669    0.8340   -0.3220 N   0  0  0  0  0  0  0  0  0  0  0  0
   -0.4148    1.1528    0.5691 C   0  0  2  0  0  0  0  0  0  0  0  0
   -1.7566    1.2094   -0.2105 C   0  0  0  0  0  0  0  0  0  0  0  0
   -1.8260    1.7070   -1.3556 O   0  0  0  0  0  0  0  0  0  0  0  0
   -0.2550    2.5061    1.3039 C   0  0  1  0  0  0  0  0  0  0  0  0
    0.7789    2.3866    2.4024 C   0  0  0  0  0  0  0  0  0  0  0  0
    0.0894    3.6399    0.3640 C   0  0  0  0  0  0  0  0  0  0  0  0
   -2.8720    0.7212    0.4269 N   0  0  0  0  0  0  0  0  0  0  0  0
   -4.1643    0.6595   -0.2106 C   0  0  2  0  0  0  0  0  0  0  0  0
   -4.9233    2.0071   -0.0919 C   0  0  0  0  0  0  0  0  0  0  0  0
   -5.9554    2.1136    0.6002 O   0  0  0  0  0  0  0  0  0  0  0  0
   -5.0652   -0.4434    0.3711 C   0  0  0  0  0  0  0  0  0  0  0  0
   -4.4512   -1.7902    0.2384 C   0  0  0  0  0  0  0  0  0  0  0  0
   -3.8234   -2.3934    1.3343 C   0  0  0  0  0  0  0  0  0  0  0  0
   -4.5058   -2.4736   -0.9824 C   0  0  0  0  0  0  0  0  0  0  0  0
   -3.2554   -3.6604    1.2096 C   0  0  0  0  0  0  0  0  0  0  0  0
   -3.9381   -3.7404   -1.1045 C   0  0  0  0  0  0  0  0  0  0  0  0
   -3.3112   -4.3353   -0.0095 C   0  0  0  0  0  0  0  0  0  0  0  0
   -4.4241    3.0686   -0.7917 N   0  0  0  0  0  0  0  0  0  0  0  0
    2.8227   -1.6364   -1.1247 H   0  0  0  0  0  0  0  0  0  0  0  0
    2.0257   -0.4877   -2.2821 H   0  0  0  0  0  0  0  0  0  0  0  0
    0.7919    1.4368   -1.1020 H   0  0  0  0  0  0  0  0  0  0  0  0
   -0.4627    0.3365    1.3553 H   0  0  0  0  0  0  0  0  0  0  0  0
   -1.2540    2.7261    1.7790 H   0  0  0  0  0  0  0  0  0  0  0  0
    1.7814    2.1352    1.9803 H   0  0  0  0  0  0  0  0  0  0  0  0
    0.8604    3.3558    2.9516 H   0  0  0  0  0  0  0  0  0  0  0  0
    0.4918    1.5888    3.1292 H   0  0  0  0  0  0  0  0  0  0  0  0
    1.1562    3.5817    0.0387 H   0  0  0  0  0  0  0  0  0  0  0  0
   -0.5638    3.6087   -0.5429 H   0  0  0  0  0  0  0  0  0  0  0  0
   -0.0611    4.6187    0.8806 H   0  0  0  0  0  0  0  0  0  0  0  0
   -2.7852    0.2857    1.3152 H   0  0  0  0  0  0  0  0  0  0  0  0
   -4.0060    0.4501   -1.3142 H   0  0  0  0  0  0  0  0  0  0  0  0
   -5.2960   -0.2127    1.4457 H   0  0  0  0  0  0  0  0  0  0  0  0
   -6.0401   -0.4028   -0.1859 H   0  0  0  0  0  0  0  0  0  0  0  0
   -3.7850   -1.8688    2.3006 H   0  0  0  0  0  0  0  0  0  0  0  0
   -5.0015   -2.0066   -1.8465 H   0  0  0  0  0  0  0  0  0  0  0  0
   -2.7616   -4.1269    2.0748 H   0  0  0  0  0  0  0  0  0  0  0  0
   -3.9859   -4.2715   -2.0665 H   0  0  0  0  0  0  0  0  0  0  0  0
   -2.8623   -5.3345   -0.1071 H   0  0  0  0  0  0  0  0  0  0  0  0
   -3.5994    2.9797   -1.3347 H   0  0  0  0  0  0  0  0  0  0  0  0
   -4.8844    3.9433   -0.7498 H   0  0  0  0  0  0  0  0  0  0  0  0
 11  9  1  0
  3  1  1  0
  9 10  1  0
  9  6  1  0
  5  1  1  0
  5  6  1  0
  1  2  2  0
  6  7  1  0
  7  8  2  0
  7 12  1  0
 12 13  1  0
 15 14  2  0
 13 14  1  0
 13 16  1  0
 19 21  1  0
 19 17  2  0
 21 22  2  0
 14 23  1  0
 16 17  1  0
 17 18  1  0
 22 20  1  0
 20 18  2  0
  3 24  1  0
  3 25  1  0
  5 26  1  0
  6 27  1  1
  9 28  1  1
 10 29  1  0
 10 30  1  0
 10 31  1  0
 11 32  1  0
 11 33  1  0
 11 34  1  0
 12 35  1  0
 13 36  1  6
 16 37  1  0
 16 38  1  0
 18 39  1  0
 19 40  1  0
 20 41  1  0
 21 42  1  0
 22 43  1  0
 23 44  1  0
 23 45  1  0
  3  4  1  0
M  END
