
     RDKit          3D

 12 12  0  0  0  0  0  0  0  0999 V2000
   -1.3912   -0.2136    0.2494 N   0  0  0  0  0  0  0  0  0  0  0  0
   -0.2790   -0.0290    0.8326 C   0  0  0  0  0  0  0  0  0  0  0  0
    1.1197    0.4070   -0.1892 S   0  0  0  0  0  0  0  0  0  0  0  0
    0.1372   -0.0445   -1.6473 C   0  0  0  0  0  0  0  0  0  0  0  0
   -1.3177    0.0661   -1.1659 C   0  0  0  0  0  0  0  0  0  0  0  0
   -0.0561   -0.1679    2.1584 N   0  0  0  0  0  0  0  0  0  0  0  0
    0.3914   -1.0606   -1.9480 H   0  0  0  0  0  0  0  0  0  0  0  0
    0.3572    0.6325   -2.4700 H   0  0  0  0  0  0  0  0  0  0  0  0
   -1.9459   -0.6253   -1.7299 H   0  0  0  0  0  0  0  0  0  0  0  0
   -1.6998    1.0740   -1.3626 H   0  0  0  0  0  0  0  0  0  0  0  0
    0.7918    0.1973    2.5566 H   0  0  0  0  0  0  0  0  0  0  0  0
   -0.8607   -0.1244    2.7628 H   0  0  0  0  0  0  0  0  0  0  0  0
  1  2  2  0
  1  5  1  0
  2  3  1  0
  2  6  1  0
  3  4  1  0
  4  5  1  0
  4  7  1  0
  4  8  1  0
  5  9  1  0
  5 10  1  0
  6 11  1  0
  6 12  1  0
M  END
