
     RDKit          3D

 44 48  0  0  0  0  0  0  0  0999 V2000
    2.4421   -1.0103   -0.0067 C   0  0  0  0  0  0  0  0  0  0  0  0
    2.7539   -1.0316   -1.3690 C   0  0  0  0  0  0  0  0  0  0  0  0
    3.6488   -1.9749   -1.8342 C   0  0  0  0  0  0  0  0  0  0  0  0
    4.2436   -2.9020   -0.9615 C   0  0  0  0  0  0  0  0  0  0  0  0
    3.9522   -2.9051    0.3890 C   0  0  0  0  0  0  0  0  0  0  0  0
    3.0472   -1.9511    0.8527 C   0  0  0  0  0  0  0  0  0  0  0  0
    2.5689   -1.7181    2.1103 N   0  0  0  0  0  0  0  0  0  0  0  0
    1.6868   -0.6794    2.0754 C   0  0  0  0  0  0  0  0  0  0  0  0
    1.5730   -0.2026    0.7982 C   0  0  0  0  0  0  0  0  0  0  0  0
    0.7061    0.8679    0.3221 C   0  0  0  0  0  0  0  0  0  0  0  0
    1.1036    2.0405   -0.3133 C   0  0  0  0  0  0  0  0  0  0  0  0
    2.4512    2.5599   -0.5379 C   0  0  0  0  0  0  0  0  0  0  0  0
    3.4598    2.0207   -0.1558 O   0  0  0  0  0  0  0  0  0  0  0  0
    2.4309    3.7099   -1.2064 O   0  0  0  0  0  0  0  0  0  0  0  0
   -0.0046    2.7226   -0.6851 N   0  0  0  0  0  0  0  0  0  0  0  0
   -1.1111    2.0406   -0.3080 C   0  0  0  0  0  0  0  0  0  0  0  0
   -2.4596    2.5598   -0.5282 C   0  0  0  0  0  0  0  0  0  0  0  0
   -3.4674    2.0168   -0.1495 O   0  0  0  0  0  0  0  0  0  0  0  0
   -2.4406    3.7135   -1.1902 O   0  0  0  0  0  0  0  0  0  0  0  0
   -0.7106    0.8683    0.3260 C   0  0  0  0  0  0  0  0  0  0  0  0
   -1.5754   -0.2009    0.8090 C   0  0  0  0  0  0  0  0  0  0  0  0
   -2.4460   -1.0127    0.0100 C   0  0  0  0  0  0  0  0  0  0  0  0
   -2.7612   -1.0405   -1.3514 C   0  0  0  0  0  0  0  0  0  0  0  0
   -3.6567   -1.9864   -1.8101 C   0  0  0  0  0  0  0  0  0  0  0  0
   -4.2492   -2.9095   -0.9315 C   0  0  0  0  0  0  0  0  0  0  0  0
   -3.9550   -2.9057    0.4185 C   0  0  0  0  0  0  0  0  0  0  0  0
   -3.0489   -1.9495    0.8753 C   0  0  0  0  0  0  0  0  0  0  0  0
   -2.5689   -1.7094    2.1308 N   0  0  0  0  0  0  0  0  0  0  0  0
   -1.6860   -0.6716    2.0887 C   0  0  0  0  0  0  0  0  0  0  0  0
    2.2968   -0.3227   -2.0488 H   0  0  0  0  0  0  0  0  0  0  0  0
    3.9006   -2.0034   -2.8866 H   0  0  0  0  0  0  0  0  0  0  0  0
    4.9422   -3.6289   -1.3560 H   0  0  0  0  0  0  0  0  0  0  0  0
    4.4092   -3.6219    1.0594 H   0  0  0  0  0  0  0  0  0  0  0  0
    2.8185   -2.2310    2.9391 H   0  0  0  0  0  0  0  0  0  0  0  0
    1.2167   -0.3328    2.9812 H   0  0  0  0  0  0  0  0  0  0  0  0
    3.3323    4.0453   -1.3221 H   0  0  0  0  0  0  0  0  0  0  0  0
   -0.0055    3.6188   -1.1492 H   0  0  0  0  0  0  0  0  0  0  0  0
   -3.3422    4.0480   -1.3066 H   0  0  0  0  0  0  0  0  0  0  0  0
   -2.3065   -0.3342   -2.0356 H   0  0  0  0  0  0  0  0  0  0  0  0
   -3.9109   -2.0202   -2.8617 H   0  0  0  0  0  0  0  0  0  0  0  0
   -4.9484   -3.6386   -1.3206 H   0  0  0  0  0  0  0  0  0  0  0  0
   -4.4112   -3.6187    1.0935 H   0  0  0  0  0  0  0  0  0  0  0  0
   -2.8119   -2.2225    2.9614 H   0  0  0  0  0  0  0  0  0  0  0  0
   -1.2136   -0.3212    2.9918 H   0  0  0  0  0  0  0  0  0  0  0  0
  1  6  1  0
  1  2  2  0
  1  9  1  0
  2  3  1  0
  2 30  1  0
  3  4  2  0
  3 31  1  0
  4  5  1  0
  4 32  1  0
  5  6  2  0
  5 33  1  0
  6  7  1  0
  7  8  1  0
  7 34  1  0
  8  9  2  0
  8 35  1  0
  9 10  1  0
 10 11  2  0
 10 20  1  0
 11 12  1  0
 11 15  1  0
 12 13  2  0
 12 14  1  0
 14 36  1  0
 15 16  1  0
 15 37  1  0
 16 20  2  0
 16 17  1  0
 17 18  2  0
 17 19  1  0
 19 38  1  0
 20 21  1  0
 21 22  1  0
 21 29  2  0
 22 23  2  0
 22 27  1  0
 23 24  1  0
 23 39  1  0
 24 25  2  0
 24 40  1  0
 25 26  1  0
 25 41  1  0
 26 27  2  0
 26 42  1  0
 27 28  1  0
 28 29  1  0
 28 43  1  0
 29 44  1  0
M  END
