
     RDKit          3D

 33 34  0  0  0  0  0  0  0  0999 V2000
    0.0847    1.3582    2.7765 C   0  0  0  0  0  0  0  0  0  0  0  0
   -0.0229   -1.1159    2.8633 C   0  0  0  0  0  0  0  0  0  0  0  0
    4.4600   -0.7089   -1.5377 O   0  0  0  0  0  0  0  0  0  0  0  0
   -4.8486   -1.5046    0.6827 Cl  0  0  0  0  0  0  0  0  0  0  0  0
   -2.4618    2.4922   -1.9843 Cl  0  0  0  0  0  0  0  0  0  0  0  0
    4.7920    1.6044    0.3396 Cl  0  0  0  0  0  0  0  0  0  0  0  0
    2.3020   -2.5726   -1.9257 Cl  0  0  0  0  0  0  0  0  0  0  0  0
   -2.3511   -0.6279    1.2326 C   0  0  0  0  0  0  0  0  0  0  0  0
   -1.2975    1.1487    0.0433 C   0  0  0  0  0  0  0  0  0  0  0  0
    2.3297    0.7614    1.0709 C   0  0  0  0  0  0  0  0  0  0  0  0
    1.2286   -1.0936    0.0575 C   0  0  0  0  0  0  0  0  0  0  0  0
   -3.5473    0.4827   -0.5710 C   0  0  0  0  0  0  0  0  0  0  0  0
    3.4431   -0.4682   -0.7085 C   0  0  0  0  0  0  0  0  0  0  0  0
   -3.4753   -0.4754    0.4345 C   0  0  0  0  0  0  0  0  0  0  0  0
   -2.4215    1.2913   -0.7432 C   0  0  0  0  0  0  0  0  0  0  0  0
    3.4143    0.5567    0.2310 C   0  0  0  0  0  0  0  0  0  0  0  0
    2.3144   -1.2887   -0.7703 C   0  0  0  0  0  0  0  0  0  0  0  0
   -1.2436    0.1849    1.0498 C   0  0  0  0  0  0  0  0  0  0  0  0
    1.2184   -0.0636    0.9980 C   0  0  0  0  0  0  0  0  0  0  0  0
    0.0090    0.0904    1.9157 C   0  0  1  0  0  0  0  0  0  0  0  0
    0.9465    1.3326    3.4450 H   0  0  0  0  0  0  0  0  0  0  0  0
    0.1442    2.2671    2.1767 H   0  0  0  0  0  0  0  0  0  0  0  0
   -0.8094    1.4295    3.3963 H   0  0  0  0  0  0  0  0  0  0  0  0
   -0.8524   -1.0436    3.5681 H   0  0  0  0  0  0  0  0  0  0  0  0
   -0.1083   -2.0633    2.3301 H   0  0  0  0  0  0  0  0  0  0  0  0
    0.8994   -1.1446    3.4437 H   0  0  0  0  0  0  0  0  0  0  0  0
   -5.3160    0.0578   -1.1474 H   0  0  0  0  0  0  0  0  0  0  0  0
    5.1821   -0.0837   -1.3903 H   0  0  0  0  0  0  0  0  0  0  0  0
   -2.3642   -1.3941    1.9942 H   0  0  0  0  0  0  0  0  0  0  0  0
   -0.4491    1.7967   -0.1399 H   0  0  0  0  0  0  0  0  0  0  0  0
    2.3768    1.5773    1.7776 H   0  0  0  0  0  0  0  0  0  0  0  0
    0.3753   -1.7534   -0.0394 H   0  0  0  0  0  0  0  0  0  0  0  0
   -4.6024    0.6721   -1.3649 O   0  0  0  0  0  0  0  0  0  0  0  0
 20  1  1  1
  1 21  1  0
  1 22  1  0
  1 23  1  0
  2 20  1  0
  2 24  1  0
  2 25  1  0
  2 26  1  0
 12 33  1  0
 33 27  1  0
  3 13  1  0
  3 28  1  0
 14  4  1  0
 15  5  1  0
  6 16  1  0
  7 17  1  0
 18  8  2  0
  8 14  1  0
  8 29  1  0
 18  9  1  0
  9 15  2  0
  9 30  1  0
 16 10  2  0
 10 19  1  0
 10 31  1  0
 17 11  1  0
 11 19  2  0
 11 32  1  0
 15 12  1  0
 14 12  2  0
 13 17  2  0
 13 16  1  0
 20 18  1  0
 19 20  1  0
M  END
