
     RDKit          3D

 50 53  0  0  0  0  0  0  0  0999 V2000
    3.7653   -1.7193    1.4445 O   0  0  0  0  0  0  0  0  0  0  0  0
    3.5898   -0.9180    0.5564 C   0  0  0  0  0  0  0  0  0  0  0  0
    4.5935    0.1113    0.1754 C   0  0  0  0  0  0  0  0  0  0  0  0
    4.3578    1.0446   -0.8335 C   0  0  0  0  0  0  0  0  0  0  0  0
    5.3267    1.9849   -1.1496 C   0  0  0  0  0  0  0  0  0  0  0  0
    6.5357    1.9989   -0.4663 C   0  0  0  0  0  0  0  0  0  0  0  0
    6.7748    1.0710    0.5396 C   0  0  0  0  0  0  0  0  0  0  0  0
    5.8075    0.1323    0.8603 C   0  0  0  0  0  0  0  0  0  0  0  0
    2.4992   -0.8573   -0.1853 O   0  0  0  0  0  0  0  0  0  0  0  0
    1.4183   -1.7827    0.0655 C   0  0  1  0  0  0  0  0  0  0  0  0
    0.5532   -1.3096    1.2334 C   0  0  0  0  0  0  0  0  0  0  0  0
   -0.4985   -0.2826    0.8205 C   0  0  1  0  0  0  0  0  0  0  0  0
    0.0991    0.9812    0.1601 C   0  0  0  0  0  0  0  0  0  0  0  0
    0.1290    0.6269   -1.3398 C   0  0  0  0  0  0  0  0  0  0  0  0
   -0.4467   -0.8056   -1.3808 C   0  0  1  0  0  0  0  0  0  0  0  0
    0.6152   -1.8934   -1.2274 C   0  0  0  0  0  0  0  0  0  0  0  0
   -1.3305   -0.8937   -0.2182 N   0  0  0  0  0  0  0  0  0  0  0  0
   -2.6137   -0.2373   -0.3996 C   0  0  0  0  0  0  0  0  0  0  0  0
   -3.6325   -0.7059    0.6403 C   0  0  0  0  0  0  0  0  0  0  0  0
   -4.9656   -0.0435    0.4357 C   0  0  0  0  0  0  0  0  0  0  0  0
   -5.2691    1.1634    1.0619 C   0  0  0  0  0  0  0  0  0  0  0  0
   -6.4847    1.7974    0.8394 C   0  0  0  0  0  0  0  0  0  0  0  0
   -7.4196    1.2315   -0.0177 C   0  0  0  0  0  0  0  0  0  0  0  0
   -7.1284    0.0292   -0.6495 C   0  0  0  0  0  0  0  0  0  0  0  0
   -5.9113   -0.5997   -0.4236 C   0  0  0  0  0  0  0  0  0  0  0  0
    3.4233    1.0459   -1.3774 H   0  0  0  0  0  0  0  0  0  0  0  0
    5.9951   -0.5886    1.6446 H   0  0  0  0  0  0  0  0  0  0  0  0
    5.1386    2.7074   -1.9326 H   0  0  0  0  0  0  0  0  0  0  0  0
    7.2915    2.7315   -0.7180 H   0  0  0  0  0  0  0  0  0  0  0  0
    7.7154    1.0784    1.0739 H   0  0  0  0  0  0  0  0  0  0  0  0
    1.8557   -2.7544    0.3021 H   0  0  0  0  0  0  0  0  0  0  0  0
    0.0321   -2.1824    1.6337 H   0  0  0  0  0  0  0  0  0  0  0  0
    1.1734   -0.9202    2.0429 H   0  0  0  0  0  0  0  0  0  0  0  0
    1.2912   -1.9042   -2.0855 H   0  0  0  0  0  0  0  0  0  0  0  0
    0.1057   -2.8600   -1.2170 H   0  0  0  0  0  0  0  0  0  0  0  0
   -1.0980   -0.0351    1.6986 H   0  0  0  0  0  0  0  0  0  0  0  0
   -0.5505    1.8392    0.3400 H   0  0  0  0  0  0  0  0  0  0  0  0
    1.0775    1.2401    0.5632 H   0  0  0  0  0  0  0  0  0  0  0  0
   -0.5117    1.3024   -1.9091 H   0  0  0  0  0  0  0  0  0  0  0  0
    1.1234    0.6945   -1.7799 H   0  0  0  0  0  0  0  0  0  0  0  0
   -1.0104   -0.9958   -2.2968 H   0  0  0  0  0  0  0  0  0  0  0  0
   -2.5524    0.8620   -0.3726 H   0  0  0  0  0  0  0  0  0  0  0  0
   -2.9893   -0.4979   -1.3931 H   0  0  0  0  0  0  0  0  0  0  0  0
   -3.7330   -1.7910    0.5655 H   0  0  0  0  0  0  0  0  0  0  0  0
   -3.2664   -0.4881    1.6472 H   0  0  0  0  0  0  0  0  0  0  0  0
   -4.5489    1.6114    1.7371 H   0  0  0  0  0  0  0  0  0  0  0  0
   -5.6938   -1.5401   -0.9172 H   0  0  0  0  0  0  0  0  0  0  0  0
   -6.7029    2.7334    1.3376 H   0  0  0  0  0  0  0  0  0  0  0  0
   -8.3694    1.7215   -0.1897 H   0  0  0  0  0  0  0  0  0  0  0  0
   -7.8507   -0.4218   -1.3180 H   0  0  0  0  0  0  0  0  0  0  0  0
 17 15  1  0
 17 12  1  0
 17 18  1  0
  2  9  1  0
  2  3  1  0
  2  1  2  0
  9 10  1  0
  3  8  1  0
  3  4  2  0
  8  7  2  0
  7  6  1  0
  6  5  2  0
  5  4  1  0
 10 16  1  0
 10 11  1  0
 16 15  1  0
 15 14  1  0
 12 11  1  0
 12 13  1  0
 13 14  1  0
 18 19  1  0
 19 20  1  0
 20 25  1  0
 20 21  2  0
 25 24  2  0
 24 23  1  0
 23 22  2  0
 22 21  1  0
  4 26  1  0
  8 27  1  0
  5 28  1  0
  6 29  1  0
  7 30  1  0
 10 31  1  1
 11 32  1  0
 11 33  1  0
 16 34  1  0
 16 35  1  0
 12 36  1  1
 13 37  1  0
 13 38  1  0
 14 39  1  0
 14 40  1  0
 15 41  1  6
 18 42  1  0
 18 43  1  0
 19 44  1  0
 19 45  1  0
 21 46  1  0
 25 47  1  0
 22 48  1  0
 23 49  1  0
 24 50  1  0
M  END
