
     RDKit          3D

 61 65  0  0  0  0  0  0  0  0999 V2000
   -4.6924    0.7256    0.4716 C   0  0  0  0  0  0  0  0  0  0  0  0
   -4.6294    2.0406    0.9268 C   0  0  0  0  0  0  0  0  0  0  0  0
   -5.7089    2.6354    1.5627 C   0  0  0  0  0  0  0  0  0  0  0  0
   -6.8864    1.9244    1.7397 C   0  0  0  0  0  0  0  0  0  0  0  0
   -6.9701    0.6170    1.2890 C   0  0  0  0  0  0  0  0  0  0  0  0
   -5.8789    0.0065    0.6717 C   0  0  0  0  0  0  0  0  0  0  0  0
    3.0425   -0.4395    0.4086 C   0  0  0  0  0  0  0  0  0  0  0  0
    2.2779   -1.5934    0.1560 C   0  0  0  0  0  0  0  0  0  0  0  0
    0.9244   -1.5258   -0.0417 N   0  0  0  0  0  0  0  0  0  0  0  0
    0.1789   -0.3378    0.3043 C   0  0  1  0  0  0  0  0  0  0  0  0
    0.9835    0.8816   -0.1354 C   0  0  0  0  0  0  0  0  0  0  0  0
    2.3593    0.9074    0.5358 C   0  0  2  0  0  0  0  0  0  0  0  0
    5.0655   -1.7961    0.5176 C   0  0  0  0  0  0  0  0  0  0  0  0
    4.2948   -2.9302    0.2574 C   0  0  0  0  0  0  0  0  0  0  0  0
    2.9300   -2.8318    0.0790 C   0  0  0  0  0  0  0  0  0  0  0  0
    4.4106   -0.5676    0.5768 C   0  0  0  0  0  0  0  0  0  0  0  0
    6.5354   -1.8529    0.7040 C   0  0  0  0  0  0  0  0  0  0  0  0
    7.0478   -3.0917    0.9839 N   0  0  0  0  0  0  0  0  0  0  0  0
    7.2259   -0.7861    0.5503 N   0  0  0  0  0  0  0  0  0  0  0  0
    3.1920    2.0436   -0.0070 C   0  0  0  0  0  0  0  0  0  0  0  0
   -1.1794   -0.3457   -0.3540 C   0  0  0  0  0  0  0  0  0  0  0  0
   -2.2777    0.1404    0.3463 C   0  0  0  0  0  0  0  0  0  0  0  0
   -3.5291    0.1754   -0.2614 C   0  0  0  0  0  0  0  0  0  0  0  0
   -3.6762   -0.2587   -1.5716 C   0  0  0  0  0  0  0  0  0  0  0  0
   -2.5806   -0.7479   -2.2887 C   0  0  0  0  0  0  0  0  0  0  0  0
   -1.3313   -0.7887   -1.6596 C   0  0  0  0  0  0  0  0  0  0  0  0
    3.5240    3.1271    0.7984 C   0  0  0  0  0  0  0  0  0  0  0  0
    4.2723    4.1870    0.2975 C   0  0  0  0  0  0  0  0  0  0  0  0
    4.6972    4.1745   -1.0223 C   0  0  0  0  0  0  0  0  0  0  0  0
    4.3706    3.0955   -1.8369 C   0  0  0  0  0  0  0  0  0  0  0  0
    3.6262    2.0407   -1.3325 C   0  0  0  0  0  0  0  0  0  0  0  0
   -2.7145   -1.1262   -3.6074 N   0  0  0  0  0  0  0  0  0  0  0  0
   -5.9584   -1.4425    0.3426 C   0  0  0  0  0  0  0  0  0  0  0  0
   -7.1623   -1.7939   -0.0936 O   0  0  0  0  0  0  0  0  0  0  0  0
   -5.0505   -2.2211    0.4866 O   0  0  0  0  0  0  0  0  0  0  0  0
   -3.7247    2.6121    0.7622 H   0  0  0  0  0  0  0  0  0  0  0  0
   -5.6308    3.6575    1.9091 H   0  0  0  0  0  0  0  0  0  0  0  0
   -7.7354    2.3815    2.2298 H   0  0  0  0  0  0  0  0  0  0  0  0
   -7.8847    0.0618    1.4486 H   0  0  0  0  0  0  0  0  0  0  0  0
    0.0277   -0.2717    1.3917 H   0  0  0  0  0  0  0  0  0  0  0  0
    1.0925    0.8610   -1.2231 H   0  0  0  0  0  0  0  0  0  0  0  0
    0.4356    1.7895    0.1199 H   0  0  0  0  0  0  0  0  0  0  0  0
    2.1945    1.1014    1.6023 H   0  0  0  0  0  0  0  0  0  0  0  0
    4.7524   -3.9078    0.1684 H   0  0  0  0  0  0  0  0  0  0  0  0
    2.3504   -3.7230   -0.1320 H   0  0  0  0  0  0  0  0  0  0  0  0
    5.0011    0.3203    0.7656 H   0  0  0  0  0  0  0  0  0  0  0  0
    6.4685   -3.7424    1.4881 H   0  0  0  0  0  0  0  0  0  0  0  0
    8.2089   -0.9583    0.7434 H   0  0  0  0  0  0  0  0  0  0  0  0
   -2.1628    0.4686    1.3728 H   0  0  0  0  0  0  0  0  0  0  0  0
   -4.6484   -0.2154   -2.0508 H   0  0  0  0  0  0  0  0  0  0  0  0
   -0.4737   -1.1692   -2.2035 H   0  0  0  0  0  0  0  0  0  0  0  0
    3.1966    3.1442    1.8316 H   0  0  0  0  0  0  0  0  0  0  0  0
    4.5239    5.0190    0.9428 H   0  0  0  0  0  0  0  0  0  0  0  0
    5.2798    4.9972   -1.4160 H   0  0  0  0  0  0  0  0  0  0  0  0
    4.6996    3.0760   -2.8680 H   0  0  0  0  0  0  0  0  0  0  0  0
    3.3899    1.2011   -1.9767 H   0  0  0  0  0  0  0  0  0  0  0  0
   -3.6448   -1.3812   -3.8975 H   0  0  0  0  0  0  0  0  0  0  0  0
   -2.0261   -1.7790   -3.9458 H   0  0  0  0  0  0  0  0  0  0  0  0
   -7.1982   -2.7533   -0.2259 H   0  0  0  0  0  0  0  0  0  0  0  0
    8.0166   -3.1301    1.2585 H   0  0  0  0  0  0  0  0  0  0  0  0
    0.4256   -2.3962    0.0585 H   0  0  0  0  0  0  0  0  0  0  0  0
 35 33  2  0
 32 25  1  0
 33  6  1  0
 33 34  1  0
  5  4  2  0
  5  6  1  0
  4  3  1  0
 24 25  2  0
 24 23  1  0
  6  1  2  0
  3  2  2  0
 25 26  1  0
  1  2  1  0
  1 23  1  0
 23 22  2  0
 26 21  2  0
 22 21  1  0
 21 10  1  0
  9 10  1  0
  9  8  1  0
 10 11  1  0
 15  8  2  0
 15 14  1  0
  8  7  1  0
 11 12  1  0
 14 13  2  0
  7 12  1  0
  7 16  2  0
 12 20  1  0
 13 16  1  0
 13 17  1  0
 20 27  2  0
 20 31  1  0
 27 28  1  0
 18 17  1  0
 31 30  2  0
 17 19  2  0
 28 29  2  0
 30 29  1  0
  2 36  1  0
  3 37  1  0
  4 38  1  0
  5 39  1  0
  9 61  1  0
 10 40  1  1
 11 41  1  0
 11 42  1  0
 12 43  1  1
 14 44  1  0
 15 45  1  0
 16 46  1  0
 18 47  1  0
 19 48  1  0
 22 49  1  0
 24 50  1  0
 26 51  1  0
 27 52  1  0
 28 53  1  0
 29 54  1  0
 30 55  1  0
 31 56  1  0
 32 57  1  0
 32 58  1  0
 34 59  1  0
 18 60  1  0
M  END
