
     RDKit          3D

 61 63  0  0  0  0  0  0  0  0999 V2000
   -2.2190   -0.1642   -0.6473 C   0  0  0  0  0  0  0  0  0  0  0  0
   -2.0977   -1.5434   -0.7565 C   0  0  0  0  0  0  0  0  0  0  0  0
   -0.8449   -2.1113   -0.6249 C   0  0  0  0  0  0  0  0  0  0  0  0
    1.6348   -2.0225   -0.3034 C   0  0  2  0  0  0  0  0  0  0  0  0
    1.7995   -2.9240    0.9304 C   0  0  0  0  0  0  0  0  0  0  0  0
    0.1538    0.0467   -0.2595 C   0  0  0  0  0  0  0  0  0  0  0  0
    0.2946   -1.3422   -0.3859 C   0  0  0  0  0  0  0  0  0  0  0  0
    1.9688   -2.9627   -1.4655 C   0  0  0  0  0  0  0  0  0  0  0  0
    2.8686   -4.0106   -0.8467 C   0  0  0  0  0  0  0  0  0  0  0  0
    1.2932    0.9447    0.0414 C   0  0  0  0  0  0  0  0  0  0  0  0
    1.9985    0.8356    1.2267 C   0  0  0  0  0  0  0  0  0  0  0  0
    3.0418    1.7131    1.5137 C   0  0  0  0  0  0  0  0  0  0  0  0
    3.3895    2.7115    0.6196 C   0  0  0  0  0  0  0  0  0  0  0  0
    5.1373    3.5219    1.9914 C   0  0  0  0  0  0  0  0  0  0  0  0
    2.6729    2.8332   -0.5901 C   0  0  0  0  0  0  0  0  0  0  0  0
    2.3871    4.0056   -2.6264 C   0  0  0  0  0  0  0  0  0  0  0  0
    1.6373    1.9562   -0.8626 C   0  0  0  0  0  0  0  0  0  0  0  0
   -1.1064    0.6238   -0.4113 C   0  0  0  0  0  0  0  0  0  0  0  0
   -4.1150    1.4468    1.8036 C   0  0  0  0  0  0  0  0  0  0  0  0
   -2.9672    0.9896    2.6910 C   0  0  0  0  0  0  0  0  0  0  0  0
   -5.1843   -0.7218    1.1648 C   0  0  0  0  0  0  0  0  0  0  0  0
   -6.6905   -0.5968    1.0281 C   0  0  0  0  0  0  0  0  0  0  0  0
    2.7490   -3.9208    0.4910 N   0  0  0  0  0  0  0  0  0  0  0  0
   -4.4881    0.4995    0.7546 N   0  0  0  0  0  0  0  0  0  0  0  0
   -3.6221    1.9945   -1.0491 O   0  0  0  0  0  0  0  0  0  0  0  0
    3.5594   -4.8145   -1.4519 O   0  0  0  0  0  0  0  0  0  0  0  0
    4.3766    3.6055    0.8031 O   0  0  0  0  0  0  0  0  0  0  0  0
    3.0767    3.8228   -1.4063 O   0  0  0  0  0  0  0  0  0  0  0  0
   -4.6385   -0.2371   -1.6122 O   0  0  0  0  0  0  0  0  0  0  0  0
   -3.8237    0.5883   -0.7338 S   0  0  1  0  0  0  0  0  0  0  0  0
   -2.9542   -2.1725   -0.9567 H   0  0  0  0  0  0  0  0  0  0  0  0
   -0.7545   -3.1856   -0.7276 H   0  0  0  0  0  0  0  0  0  0  0  0
    2.4187   -1.2662   -0.2621 H   0  0  0  0  0  0  0  0  0  0  0  0
    2.5910   -5.4117    1.9525 H   0  0  0  0  0  0  0  0  0  0  0  0
    4.0146   -5.5120    0.9064 H   0  0  0  0  0  0  0  0  0  0  0  0
    3.9313   -4.2800    2.1739 H   0  0  0  0  0  0  0  0  0  0  0  0
    2.1864   -2.3731    1.7900 H   0  0  0  0  0  0  0  0  0  0  0  0
    0.8564   -3.3913    1.2352 H   0  0  0  0  0  0  0  0  0  0  0  0
    1.0876   -3.4697   -1.8682 H   0  0  0  0  0  0  0  0  0  0  0  0
    2.4582   -2.4559   -2.2964 H   0  0  0  0  0  0  0  0  0  0  0  0
    1.7363    0.0791    1.9556 H   0  0  0  0  0  0  0  0  0  0  0  0
    3.5685    1.6042    2.4520 H   0  0  0  0  0  0  0  0  0  0  0  0
    4.5203    3.6596    2.8832 H   0  0  0  0  0  0  0  0  0  0  0  0
    5.6633    2.5669    2.0723 H   0  0  0  0  0  0  0  0  0  0  0  0
    5.8699    4.3235    1.9458 H   0  0  0  0  0  0  0  0  0  0  0  0
    1.3339    4.2518   -2.4673 H   0  0  0  0  0  0  0  0  0  0  0  0
    2.8696    4.8381   -3.1320 H   0  0  0  0  0  0  0  0  0  0  0  0
    2.4471    3.1215   -3.2664 H   0  0  0  0  0  0  0  0  0  0  0  0
    1.0850    2.0320   -1.7904 H   0  0  0  0  0  0  0  0  0  0  0  0
   -1.2031    1.6983   -0.3228 H   0  0  0  0  0  0  0  0  0  0  0  0
   -5.0105    1.6052    2.4082 H   0  0  0  0  0  0  0  0  0  0  0  0
   -3.8876    2.4097    1.3507 H   0  0  0  0  0  0  0  0  0  0  0  0
   -2.8169    1.7127    3.4926 H   0  0  0  0  0  0  0  0  0  0  0  0
   -3.1733    0.0233    3.1523 H   0  0  0  0  0  0  0  0  0  0  0  0
   -2.0328    0.9045    2.1380 H   0  0  0  0  0  0  0  0  0  0  0  0
   -4.9134   -0.9186    2.2030 H   0  0  0  0  0  0  0  0  0  0  0  0
   -4.8218   -1.5826    0.6028 H   0  0  0  0  0  0  0  0  0  0  0  0
   -7.0692    0.2465    1.6066 H   0  0  0  0  0  0  0  0  0  0  0  0
   -6.9789   -0.4553   -0.0126 H   0  0  0  0  0  0  0  0  0  0  0  0
   -7.1785   -1.4998    1.3962 H   0  0  0  0  0  0  0  0  0  0  0  0
    3.3517   -4.8282    1.4298 C   0  0  0  0  0  0  0  0  0  0  0  0
 20 19  1  0
 25 30  2  0
 19 24  1  0
 14 27  1  0
 30 24  1  1
 24 21  1  0
 30 29  2  0
 30  1  1  0
 21 22  1  0
 27 13  1  0
 12 13  1  0
 12 11  2  0
 13 15  2  0
 18  1  2  0
 18  6  1  0
 11 10  1  0
  1  2  1  0
 15 28  1  0
 15 17  1  0
 28 16  1  0
 10 17  2  0
 10  6  1  0
  6  7  2  0
  2  3  2  0
  7  3  1  0
  7  4  1  0
  4  5  1  0
  4  8  1  0
  5 23  1  0
  8  9  1  0
 23  9  1  0
 23 61  1  0
  9 26  2  0
  2 31  1  0
  3 32  1  0
  4 33  1  1
 61 34  1  0
 61 35  1  0
 61 36  1  0
  5 37  1  0
  5 38  1  0
  8 39  1  0
  8 40  1  0
 11 41  1  0
 12 42  1  0
 14 43  1  0
 14 44  1  0
 14 45  1  0
 16 46  1  0
 16 47  1  0
 16 48  1  0
 17 49  1  0
 18 50  1  0
 19 51  1  0
 19 52  1  0
 20 53  1  0
 20 54  1  0
 20 55  1  0
 21 56  1  0
 21 57  1  0
 22 58  1  0
 22 59  1  0
 22 60  1  0
M  END
