
     RDKit          3D

 65 69  0  0  0  0  0  0  0  0999 V2000
   -0.6531    3.9534    0.5944 C   0  0  0  0  0  0  0  0  0  0  0  0
   -0.8174    2.9254   -0.4153 N   0  0  0  0  0  0  0  0  0  0  0  0
   -1.4477    1.7251    0.0935 C   0  0  0  0  0  0  0  0  0  0  0  0
   -1.5995    0.6839   -1.0139 C   0  0  0  0  0  0  0  0  0  0  0  0
   -2.2182   -0.5846   -0.5081 C   0  0  0  0  0  0  0  0  0  0  0  0
   -3.6117   -0.7345   -0.3667 C   0  0  0  0  0  0  0  0  0  0  0  0
   -4.4126    0.3219   -0.7481 N   0  0  0  0  0  0  0  0  0  0  0  0
   -5.6773    0.1872   -0.6212 C   0  0  0  0  0  0  0  0  0  0  0  0
   -6.2872   -0.9255   -0.1350 N   0  0  0  0  0  0  0  0  0  0  0  0
   -5.6085   -2.0474    0.2797 C   0  0  0  0  0  0  0  0  0  0  0  0
   -4.1617   -1.9335    0.1472 C   0  0  0  0  0  0  0  0  0  0  0  0
   -3.3574   -3.0090    0.5338 C   0  0  0  0  0  0  0  0  0  0  0  0
   -1.9923   -2.8754    0.3992 C   0  0  0  0  0  0  0  0  0  0  0  0
   -1.4607   -1.6673   -0.1153 C   0  0  0  0  0  0  0  0  0  0  0  0
   -0.1019   -1.8685   -0.1178 N   0  0  0  0  0  0  0  0  0  0  0  0
    0.1216   -3.1299    0.3614 C   0  0  0  0  0  0  0  0  0  0  0  0
   -0.9837   -3.7590    0.6868 N   0  0  0  0  0  0  0  0  0  0  0  0
    1.3524   -3.6544    0.4531 N   0  0  0  0  0  0  0  0  0  0  0  0
    2.5745   -2.9014    0.2680 C   0  0  0  0  0  0  0  0  0  0  0  0
   -6.2048   -3.0217    0.7112 O   0  0  0  0  0  0  0  0  0  0  0  0
   -1.6128    4.2420    1.0557 H   0  0  0  0  0  0  0  0  0  0  0  0
   -0.0367    3.5455    1.4042 H   0  0  0  0  0  0  0  0  0  0  0  0
   -1.3906    3.2996   -1.1641 H   0  0  0  0  0  0  0  0  0  0  0  0
   -0.8194    1.3173    0.8915 H   0  0  0  0  0  0  0  0  0  0  0  0
   -2.4351    1.9140    0.5419 H   0  0  0  0  0  0  0  0  0  0  0  0
   -2.2147    1.0973   -1.8156 H   0  0  0  0  0  0  0  0  0  0  0  0
   -0.6178    0.4823   -1.4507 H   0  0  0  0  0  0  0  0  0  0  0  0
   -6.3446    0.9900   -0.9089 H   0  0  0  0  0  0  0  0  0  0  0  0
   -7.2962   -0.9344   -0.0709 H   0  0  0  0  0  0  0  0  0  0  0  0
   -3.7975   -3.9165    0.9247 H   0  0  0  0  0  0  0  0  0  0  0  0
    0.5980   -1.2100   -0.4194 H   0  0  0  0  0  0  0  0  0  0  0  0
    1.4083   -4.5131    0.9787 H   0  0  0  0  0  0  0  0  0  0  0  0
    2.5192   -2.3365   -0.6662 H   0  0  0  0  0  0  0  0  0  0  0  0
    2.7293   -2.1795    1.0781 H   0  0  0  0  0  0  0  0  0  0  0  0
    0.0257    5.2002    0.0394 C   0  0  1  0  0  0  0  0  0  0  0  0
    0.0529    6.3092    1.0909 C   0  0  0  0  0  0  0  0  0  0  0  0
    0.7355    7.5711    0.5720 C   0  0  0  0  0  0  0  0  0  0  0  0
    2.1435    7.2691    0.0690 C   0  0  0  0  0  0  0  0  0  0  0  0
    2.1236    6.1693   -0.9875 C   0  0  0  0  0  0  0  0  0  0  0  0
    1.4385    4.9100   -0.4656 C   0  0  0  0  0  0  0  0  0  0  0  0
    3.7627   -3.8547    0.1915 C   0  0  0  0  0  0  0  0  0  0  0  0
    5.0500   -3.1019    0.0038 C   0  0  0  0  0  0  0  0  0  0  0  0
    5.7734   -2.6474    1.1038 C   0  0  0  0  0  0  0  0  0  0  0  0
    6.9477   -1.9260    0.9343 C   0  0  0  0  0  0  0  0  0  0  0  0
    7.4147   -1.6461   -0.3434 C   0  0  0  0  0  0  0  0  0  0  0  0
    6.7002   -2.0927   -1.4475 C   0  0  0  0  0  0  0  0  0  0  0  0
    5.5265   -2.8140   -1.2731 C   0  0  0  0  0  0  0  0  0  0  0  0
   -0.5725    5.5631   -0.8099 H   0  0  0  0  0  0  0  0  0  0  0  0
   -0.9656    6.5400    1.4162 H   0  0  0  0  0  0  0  0  0  0  0  0
    0.5881    5.9492    1.9783 H   0  0  0  0  0  0  0  0  0  0  0  0
    0.1408    7.9939   -0.2452 H   0  0  0  0  0  0  0  0  0  0  0  0
    0.7670    8.3306    1.3571 H   0  0  0  0  0  0  0  0  0  0  0  0
    2.6077    8.1746   -0.3297 H   0  0  0  0  0  0  0  0  0  0  0  0
    2.7648    6.9469    0.9125 H   0  0  0  0  0  0  0  0  0  0  0  0
    1.5895    6.5274   -1.8747 H   0  0  0  0  0  0  0  0  0  0  0  0
    3.1406    5.9363   -1.3129 H   0  0  0  0  0  0  0  0  0  0  0  0
    2.0279    4.4910    0.3600 H   0  0  0  0  0  0  0  0  0  0  0  0
    1.4057    4.1439   -1.2425 H   0  0  0  0  0  0  0  0  0  0  0  0
    3.8080   -4.4475    1.1093 H   0  0  0  0  0  0  0  0  0  0  0  0
    3.6072   -4.5523   -0.6342 H   0  0  0  0  0  0  0  0  0  0  0  0
    5.4174   -2.8658    2.1040 H   0  0  0  0  0  0  0  0  0  0  0  0
    7.5004   -1.5870    1.8013 H   0  0  0  0  0  0  0  0  0  0  0  0
    8.3314   -1.0866   -0.4782 H   0  0  0  0  0  0  0  0  0  0  0  0
    7.0597   -1.8844   -2.4471 H   0  0  0  0  0  0  0  0  0  0  0  0
    4.9784   -3.1630   -2.1407 H   0  0  0  0  0  0  0  0  0  0  0  0
 19 18  1  0
 18 16  1  0
 16 15  1  0
 16 17  2  0
  2  1  1  0
  2  3  1  0
 15 14  1  0
 17 13  1  0
  3  4  1  0
 14 13  2  0
 14  5  1  0
  4  5  1  0
 13 12  1  0
  5  6  2  0
 12 11  2  0
  6 11  1  0
  6  7  1  0
 11 10  1  0
  7  8  2  0
 10 20  2  0
 10  9  1  0
  8  9  1  0
  1 21  1  0
  1 22  1  0
  2 23  1  0
  3 24  1  0
  3 25  1  0
  4 26  1  0
  4 27  1  0
  8 28  1  0
  9 29  1  0
 12 30  1  0
 15 31  1  0
 18 32  1  0
 19 33  1  0
 19 34  1  0
  1 35  1  0
 35 36  1  0
 36 37  1  0
 37 38  1  0
 38 39  1  0
 39 40  1  0
 40 35  1  0
 19 41  1  0
 41 42  1  0
 42 43  2  0
 43 44  1  0
 44 45  2  0
 45 46  1  0
 46 47  2  0
 47 42  1  0
 35 48  1  6
 36 49  1  0
 36 50  1  0
 37 51  1  0
 37 52  1  0
 38 53  1  0
 38 54  1  0
 39 55  1  0
 39 56  1  0
 40 57  1  0
 40 58  1  0
 41 59  1  0
 41 60  1  0
 43 61  1  0
 44 62  1  0
 45 63  1  0
 46 64  1  0
 47 65  1  0
M  END
