
     RDKit          3D

 64 67  0  0  0  0  0  0  0  0999 V2000
   -0.6885   -3.9327   -2.7811 O   0  0  0  0  0  0  0  0  0  0  0  0
   -0.3633   -2.9716   -1.9326 C   0  0  0  0  0  0  0  0  0  0  0  0
   -0.2795   -3.4399   -0.5263 C   0  0  0  0  0  0  0  0  0  0  0  0
   -0.0771   -2.5044    0.4941 C   0  0  0  0  0  0  0  0  0  0  0  0
    0.0248   -2.9352    1.8113 C   0  0  0  0  0  0  0  0  0  0  0  0
   -0.0715   -4.2841    2.1202 C   0  0  0  0  0  0  0  0  0  0  0  0
   -0.2730   -5.2134    1.1112 C   0  0  0  0  0  0  0  0  0  0  0  0
   -0.3775   -4.7925   -0.2043 C   0  0  0  0  0  0  0  0  0  0  0  0
    0.0077   -1.0434    0.2597 C   0  0  0  0  0  0  0  0  0  0  0  0
   -1.1533   -0.2677    0.2438 C   0  0  0  0  0  0  0  0  0  0  0  0
   -2.4642   -0.7886    0.3584 C   0  0  0  0  0  0  0  0  0  0  0  0
   -3.5587    0.0151    0.3351 C   0  0  0  0  0  0  0  0  0  0  0  0
   -3.4354    1.4358    0.1916 C   0  0  0  0  0  0  0  0  0  0  0  0
   -4.5185    2.2241    0.1769 N   0  0  0  0  0  0  0  0  0  0  0  0
   -4.4145    3.6755    0.1061 C   0  0  0  0  0  0  0  0  0  0  0  0
   -4.2996    4.1909   -1.3208 C   0  0  0  0  0  0  0  0  0  0  0  0
   -5.8734    1.6872    0.2238 C   0  0  0  0  0  0  0  0  0  0  0  0
   -6.3647    1.4452    1.6424 C   0  0  0  0  0  0  0  0  0  0  0  0
   -2.1331    1.9683    0.0753 C   0  0  0  0  0  0  0  0  0  0  0  0
   -1.0438    1.1341    0.1035 C   0  0  0  0  0  0  0  0  0  0  0  0
    0.1648    1.7093   -0.0117 O   0  0  0  0  0  0  0  0  0  0  0  0
    1.3003    0.9931    0.0365 C   0  0  0  0  0  0  0  0  0  0  0  0
    1.2499   -0.4122    0.1781 C   0  0  0  0  0  0  0  0  0  0  0  0
    2.4788    1.6912   -0.0464 C   0  0  0  0  0  0  0  0  0  0  0  0
    3.7128    1.0077    0.0180 C   0  0  0  0  0  0  0  0  0  0  0  0
    3.6738   -0.4195    0.1400 C   0  0  0  0  0  0  0  0  0  0  0  0
    2.4933   -1.0873    0.2134 C   0  0  0  0  0  0  0  0  0  0  0  0
    4.8786    1.6657   -0.0348 N   0  0  0  0  0  0  0  0  0  0  0  0
    4.9381    3.1032   -0.2610 C   0  0  0  0  0  0  0  0  0  0  0  0
    4.7758    3.9163    1.0146 C   0  0  0  0  0  0  0  0  0  0  0  0
    6.1620    0.9974    0.1394 C   0  0  0  0  0  0  0  0  0  0  0  0
    6.7448    0.4850   -1.1685 C   0  0  0  0  0  0  0  0  0  0  0  0
   -0.1539   -1.8303   -2.2648 O   0  0  0  0  0  0  0  0  0  0  0  0
    0.1737   -2.2104    2.6011 H   0  0  0  0  0  0  0  0  0  0  0  0
    0.0103   -4.6040    3.1503 H   0  0  0  0  0  0  0  0  0  0  0  0
   -0.3482   -6.2665    1.3450 H   0  0  0  0  0  0  0  0  0  0  0  0
   -0.5289   -5.5281   -0.9814 H   0  0  0  0  0  0  0  0  0  0  0  0
   -2.5991   -1.8553    0.4782 H   0  0  0  0  0  0  0  0  0  0  0  0
   -4.5296   -0.4424    0.4452 H   0  0  0  0  0  0  0  0  0  0  0  0
   -5.3079    4.0860    0.5767 H   0  0  0  0  0  0  0  0  0  0  0  0
   -3.5770    4.0188    0.7136 H   0  0  0  0  0  0  0  0  0  0  0  0
   -4.2584    5.2799   -1.3200 H   0  0  0  0  0  0  0  0  0  0  0  0
   -3.4006    3.8219   -1.8154 H   0  0  0  0  0  0  0  0  0  0  0  0
   -5.1611    3.8878   -1.9162 H   0  0  0  0  0  0  0  0  0  0  0  0
   -6.5210    2.4071   -0.2764 H   0  0  0  0  0  0  0  0  0  0  0  0
   -5.9323    0.7764   -0.3712 H   0  0  0  0  0  0  0  0  0  0  0  0
   -6.3430    2.3646    2.2281 H   0  0  0  0  0  0  0  0  0  0  0  0
   -7.3924    1.0834    1.6229 H   0  0  0  0  0  0  0  0  0  0  0  0
   -5.7555    0.7026    2.1575 H   0  0  0  0  0  0  0  0  0  0  0  0
   -1.9614    3.0273   -0.0468 H   0  0  0  0  0  0  0  0  0  0  0  0
    2.4278    2.7666   -0.1340 H   0  0  0  0  0  0  0  0  0  0  0  0
    4.5849   -0.9974    0.1619 H   0  0  0  0  0  0  0  0  0  0  0  0
    5.9062    3.3187   -0.7134 H   0  0  0  0  0  0  0  0  0  0  0  0
    4.1942    3.3896   -1.0050 H   0  0  0  0  0  0  0  0  0  0  0  0
    3.8097    3.7421    1.4877 H   0  0  0  0  0  0  0  0  0  0  0  0
    5.5549    3.6751    1.7380 H   0  0  0  0  0  0  0  0  0  0  0  0
    4.8505    4.9793    0.7857 H   0  0  0  0  0  0  0  0  0  0  0  0
    6.8416    1.7195    0.5926 H   0  0  0  0  0  0  0  0  0  0  0  0
    6.0632    0.1912    0.8650 H   0  0  0  0  0  0  0  0  0  0  0  0
    6.8910    1.2977   -1.8812 H   0  0  0  0  0  0  0  0  0  0  0  0
    7.7145    0.0217   -0.9875 H   0  0  0  0  0  0  0  0  0  0  0  0
    6.0971   -0.2588   -1.6323 H   0  0  0  0  0  0  0  0  0  0  0  0
   -0.7150   -3.5829   -3.6845 H   0  0  0  0  0  0  0  0  0  0  0  0
    2.5063   -2.1658    0.2961 H   0  0  0  0  0  0  0  0  0  0  0  0
  1 63  1  0
  2 33  2  0
  2  1  1  0
  3  2  1  0
  4  3  2  0
  4  9  1  0
  5  4  1  0
  5 34  1  0
  6  7  1  0
  6  5  2  0
  6 35  1  0
  7  8  2  0
  7 36  1  0
  8  3  1  0
  8 37  1  0
  9 23  2  0
 10  9  1  0
 10 20  1  0
 11 10  2  0
 11 38  1  0
 12 11  1  0
 12 13  2  0
 12 39  1  0
 13 19  1  0
 14 13  1  0
 14 17  1  0
 15 14  1  0
 15 40  1  0
 15 41  1  0
 16 15  1  0
 16 42  1  0
 16 43  1  0
 16 44  1  0
 17 18  1  0
 17 45  1  0
 17 46  1  0
 18 47  1  0
 18 48  1  0
 18 49  1  0
 19 20  2  0
 19 50  1  0
 20 21  1  0
 21 22  1  0
 22 24  2  0
 23 27  1  0
 23 22  1  0
 24 25  1  0
 24 51  1  0
 25 28  2  0
 26 25  1  0
 26 52  1  0
 27 26  2  0
 27 64  1  0
 28 31  1  0
 28 29  1  0
 29 30  1  0
 29 53  1  0
 29 54  1  0
 30 55  1  0
 30 56  1  0
 30 57  1  0
 31 32  1  0
 31 58  1  0
 31 59  1  0
 32 60  1  0
 32 61  1  0
 32 62  1  0
M  CHG  1  28   1
M  END
