
     RDKit          3D

 39 41  0  0  0  0  0  0  0  0999 V2000
   -5.6697   -0.8898   -0.0716 C   0  0  0  0  0  0  0  0  0  0  0  0
   -3.4830   -1.6000    0.0499 C   0  0  0  0  0  0  0  0  0  0  0  0
   -3.4737   -0.1345    0.0376 C   0  0  0  0  0  0  0  0  0  0  0  0
   -2.3925    0.7550    0.0868 C   0  0  0  0  0  0  0  0  0  0  0  0
    0.0306    1.2085    0.2320 C   0  0  0  0  0  0  0  0  0  0  0  0
    1.3190    0.4041    0.1736 C   0  0  0  0  0  0  0  0  0  0  0  0
    2.5453    1.3125    0.2666 C   0  0  0  0  0  0  0  0  0  0  0  0
    3.8413    0.5547    0.2014 C   0  0  0  0  0  0  0  0  0  0  0  0
    4.5330    0.2102    1.3544 C   0  0  0  0  0  0  0  0  0  0  0  0
    5.7232   -0.5047    1.3322 C   0  0  0  0  0  0  0  0  0  0  0  0
    6.2515   -0.8946    0.1069 C   0  0  0  0  0  0  0  0  0  0  0  0
    5.5831   -0.5687   -1.0696 C   0  0  0  0  0  0  0  0  0  0  0  0
    4.3913    0.1446   -1.0198 C   0  0  0  0  0  0  0  0  0  0  0  0
   -2.7435    2.1287    0.0647 C   0  0  0  0  0  0  0  0  0  0  0  0
   -4.0595    2.5412   -0.0088 C   0  0  0  0  0  0  0  0  0  0  0  0
   -5.1285    1.6370   -0.0619 C   0  0  0  0  0  0  0  0  0  0  0  0
   -4.7895    0.3079   -0.0348 C   0  0  0  0  0  0  0  0  0  0  0  0
   -4.8176   -1.9718   -0.0180 N   0  0  0  0  0  0  0  0  0  0  0  0
   -1.1162    0.3341    0.1448 N   0  0  0  0  0  0  0  0  0  0  0  0
   -6.8736   -0.9335   -0.1339 O   0  0  0  0  0  0  0  0  0  0  0  0
    7.4044   -1.5853   -0.0067 O   0  0  0  0  0  0  0  0  0  0  0  0
    3.7206    0.4701   -2.1433 O   0  0  0  0  0  0  0  0  0  0  0  0
   -2.5486   -2.3690    0.1076 O   0  0  0  0  0  0  0  0  0  0  0  0
    0.0035    1.7928    1.1599 H   0  0  0  0  0  0  0  0  0  0  0  0
    0.0173    1.9269   -0.5942 H   0  0  0  0  0  0  0  0  0  0  0  0
    1.3412   -0.3180    0.9951 H   0  0  0  0  0  0  0  0  0  0  0  0
    1.3473   -0.1686   -0.7570 H   0  0  0  0  0  0  0  0  0  0  0  0
    2.4988    2.0627   -0.5271 H   0  0  0  0  0  0  0  0  0  0  0  0
    2.5071    1.8641    1.2100 H   0  0  0  0  0  0  0  0  0  0  0  0
    4.1286    0.5145    2.3128 H   0  0  0  0  0  0  0  0  0  0  0  0
    6.2307   -0.7459    2.2587 H   0  0  0  0  0  0  0  0  0  0  0  0
    6.0019   -0.8714   -2.0236 H   0  0  0  0  0  0  0  0  0  0  0  0
   -1.9692    2.8820    0.1056 H   0  0  0  0  0  0  0  0  0  0  0  0
   -4.2620    3.6043   -0.0235 H   0  0  0  0  0  0  0  0  0  0  0  0
   -6.1541    1.9740   -0.1189 H   0  0  0  0  0  0  0  0  0  0  0  0
   -5.1278   -2.9334   -0.0254 H   0  0  0  0  0  0  0  0  0  0  0  0
   -0.9562   -0.6584    0.2071 H   0  0  0  0  0  0  0  0  0  0  0  0
    7.7840   -1.7451    0.8642 H   0  0  0  0  0  0  0  0  0  0  0  0
    4.2014    0.1700   -2.9225 H   0  0  0  0  0  0  0  0  0  0  0  0
 21 11  1  0
 12 11  2  0
 12 13  1  0
 11 10  1  0
 22 13  1  0
 13  8  2  0
 10  9  2  0
  8  9  1  0
  8  7  1  0
  7  6  1  0
  6  5  1  0
  5 19  1  0
 19  4  1  0
 23  2  2  0
  4 14  1  0
  4  3  2  0
  2  3  1  0
  2 18  1  0
 14 15  2  0
  3 17  1  0
 18  1  1  0
 15 16  1  0
 17  1  1  0
 17 16  2  0
  1 20  2  0
  5 24  1  0
  5 25  1  0
  6 26  1  0
  6 27  1  0
  7 28  1  0
  7 29  1  0
  9 30  1  0
 10 31  1  0
 12 32  1  0
 14 33  1  0
 15 34  1  0
 16 35  1  0
 18 36  1  0
 19 37  1  0
 21 38  1  0
 22 39  1  0
M  END
