
     RDKit          3D

 37 40  0  0  0  0  0  0  0  0999 V2000
   -0.0443   -1.8002   -0.4438 N   0  0  0  0  0  0  0  0  0  0  0  0
    0.6113   -3.8309    0.0369 N   0  0  0  0  0  0  0  0  0  0  0  0
   -2.7165    0.5083    0.0809 C   0  0  0  0  0  0  0  0  0  0  0  0
   -2.5934    1.3774   -1.0051 C   0  0  0  0  0  0  0  0  0  0  0  0
   -3.3513    2.5349   -1.0659 C   0  0  0  0  0  0  0  0  0  0  0  0
   -1.8961   -0.7160    0.1470 C   0  0  0  0  0  0  0  0  0  0  0  0
   -2.3398   -1.8710    0.8793 C   0  0  0  0  0  0  0  0  0  0  0  0
   -0.3529   -2.9609    0.2173 C   0  0  0  0  0  0  0  0  0  0  0  0
    2.4411    0.1034   -0.9299 C   0  0  0  0  0  0  0  0  0  0  0  0
    4.0485    0.8634    0.7143 C   0  0  0  0  0  0  0  0  0  0  0  0
    2.3310    2.3585   -0.0586 C   0  0  0  0  0  0  0  0  0  0  0  0
    3.5487   -0.1246   -0.1167 C   0  0  0  0  0  0  0  0  0  0  0  0
    3.4361    2.1155    0.7516 C   0  0  0  0  0  0  0  0  0  0  0  0
    3.9507    3.0451    1.5822 O   0  0  0  0  0  0  0  0  0  0  0  0
    1.8432    1.3562   -0.8858 C   0  0  0  0  0  0  0  0  0  0  0  0
    1.1615   -2.0184   -1.0278 C   0  0  0  0  0  0  0  0  0  0  0  0
   -0.7706   -0.6895   -0.5022 N   0  0  0  0  0  0  0  0  0  0  0  0
    1.5427   -3.2348   -0.7354 N   0  0  0  0  0  0  0  0  0  0  0  0
   -1.5800   -2.9911    0.9174 C   0  0  0  0  0  0  0  0  0  0  0  0
   -3.6084    0.8269    1.1042 C   0  0  0  0  0  0  0  0  0  0  0  0
   -4.3619    1.9904    1.0438 C   0  0  0  0  0  0  0  0  0  0  0  0
   -4.2380    2.8457   -0.0417 C   0  0  0  0  0  0  0  0  0  0  0  0
   -1.9090    1.1400   -1.8087 H   0  0  0  0  0  0  0  0  0  0  0  0
   -3.2534    3.1955   -1.9173 H   0  0  0  0  0  0  0  0  0  0  0  0
   -3.2956   -1.8505    1.3812 H   0  0  0  0  0  0  0  0  0  0  0  0
    4.9132    0.6689    1.3365 H   0  0  0  0  0  0  0  0  0  0  0  0
    1.8461    3.3284   -0.0475 H   0  0  0  0  0  0  0  0  0  0  0  0
    4.0344   -1.0937   -0.1281 H   0  0  0  0  0  0  0  0  0  0  0  0
    3.4377    3.8592    1.5336 H   0  0  0  0  0  0  0  0  0  0  0  0
    0.9754    1.5584   -1.5011 H   0  0  0  0  0  0  0  0  0  0  0  0
    1.2467   -0.5784   -2.5795 H   0  0  0  0  0  0  0  0  0  0  0  0
    2.7135   -1.5086   -2.3289 H   0  0  0  0  0  0  0  0  0  0  0  0
   -1.8851   -3.8821    1.4473 H   0  0  0  0  0  0  0  0  0  0  0  0
   -3.7072    0.1836    1.9688 H   0  0  0  0  0  0  0  0  0  0  0  0
   -5.0437    2.2275    1.8497 H   0  0  0  0  0  0  0  0  0  0  0  0
   -4.8292    3.7506   -0.0906 H   0  0  0  0  0  0  0  0  0  0  0  0
    1.9004   -0.9976   -1.8118 C   0  0  0  0  0  0  0  0  0  0  0  0
  1  8  1  0
  1 16  1  0
  1 17  1  0
  2  8  2  0
  2 18  1  0
  3  4  2  0
  3  6  1  0
  3 20  1  0
  4  5  1  0
  5 22  2  0
  6  7  1  0
  6 17  2  0
  7 19  2  0
  8 19  1  0
  9 12  1  0
  9 15  2  0
  9 37  1  0
 10 12  2  0
 10 13  1  0
 11 13  2  0
 11 15  1  0
 13 14  1  0
 37 16  1  0
 16 18  2  0
 20 21  2  0
 21 22  1  0
  4 23  1  0
  5 24  1  0
  7 25  1  0
 10 26  1  0
 11 27  1  0
 12 28  1  0
 14 29  1  0
 15 30  1  0
 37 31  1  0
 37 32  1  0
 19 33  1  0
 20 34  1  0
 21 35  1  0
 22 36  1  0
M  END
