
     RDKit          3D

 14 13  0  0  0  0  0  0  0  0999 V2000
    0.3060    0.0456    2.4643 C   0  0  0  0  0  0  0  0  0  0  0  0
    1.4925    0.0678    2.6457 O   0  0  0  0  0  0  0  0  0  0  0  0
   -0.6307    0.0326    3.3783 O   0  0  0  0  0  0  0  0  0  0  0  0
   -0.2902    0.0268    1.0514 C   0  0  0  0  0  0  0  0  0  0  0  0
    0.7395    0.0410   -0.0447 C   0  0  0  0  0  0  0  0  0  0  0  0
   -1.4731    0.0007    0.8730 O   0  0  0  0  0  0  0  0  0  0  0  0
   -0.0483    0.0406   -1.6487 S   0  0  2  0  0  0  0  0  0  0  0  0
   -0.7369   -1.2133   -1.8688 O   0  0  0  0  0  0  0  0  0  0  0  0
    1.3061    0.0702   -2.4979 O   0  0  0  0  0  0  0  0  0  0  0  0
   -0.7743    1.2772   -1.8435 O   0  0  0  0  0  0  0  0  0  0  0  0
   -0.2431    0.0420    4.2682 H   0  0  0  0  0  0  0  0  0  0  0  0
    1.3726    0.9284    0.0327 H   0  0  0  0  0  0  0  0  0  0  0  0
    1.3855   -0.8377    0.0264 H   0  0  0  0  0  0  0  0  0  0  0  0
    1.1322   -0.0019   -3.4529 H   0  0  0  0  0  0  0  0  0  0  0  0
  1  2  2  0
  1  3  1  0
  1  4  1  0
  3 11  1  0
  4  5  1  0
  4  6  2  0
  5  7  1  0
  5 12  1  0
  5 13  1  0
  7  8  2  0
  7  9  1  6
  7 10  2  0
  9 14  1  0
M  END
