
     RDKit          3D

 39 42  0  0  0  0  0  0  0  0999 V2000
    4.0509    2.4844   -0.8585 C   0  0  0  0  0  0  0  0  0  0  0  0
    3.8785    1.5868    0.3582 C   0  0  1  0  0  0  0  0  0  0  0  0
    3.7783    2.3806    1.6524 C   0  0  0  0  0  0  0  0  0  0  0  0
    2.7176    0.7228    0.1927 N   0  0  0  0  0  0  0  0  0  0  0  0
    1.4862    1.2365    0.1195 N   0  0  0  0  0  0  0  0  0  0  0  0
    2.6969   -0.6173    0.0764 C   0  0  0  0  0  0  0  0  0  0  0  0
    3.7478   -1.4421    0.1065 N   0  0  0  0  0  0  0  0  0  0  0  0
    3.3965   -2.6997   -0.0585 C   0  0  0  0  0  0  0  0  0  0  0  0
    2.1811   -3.1983   -0.2784 N   0  0  0  0  0  0  0  0  0  0  0  0
    1.1387   -2.3659   -0.3287 C   0  0  0  0  0  0  0  0  0  0  0  0
   -0.0597   -2.8875   -0.5997 N   0  0  0  0  0  0  0  0  0  0  0  0
    1.3589   -0.9876   -0.0924 C   0  0  0  0  0  0  0  0  0  0  0  0
    0.6437    0.2415   -0.0409 C   0  0  0  0  0  0  0  0  0  0  0  0
   -0.7951    0.5074   -0.1188 C   0  0  0  0  0  0  0  0  0  0  0  0
   -1.7054   -0.3120    0.5037 C   0  0  0  0  0  0  0  0  0  0  0  0
   -3.0885   -0.0397    0.4388 C   0  0  0  0  0  0  0  0  0  0  0  0
   -4.0572   -0.8599    1.0575 C   0  0  0  0  0  0  0  0  0  0  0  0
   -5.3768   -0.5262    0.9482 C   0  0  0  0  0  0  0  0  0  0  0  0
   -5.7246    0.6311    0.2199 C   0  0  0  0  0  0  0  0  0  0  0  0
   -4.8574    1.4155   -0.3639 N   0  0  0  0  0  0  0  0  0  0  0  0
   -3.5449    1.1008   -0.2654 C   0  0  0  0  0  0  0  0  0  0  0  0
   -2.5913    1.9420   -0.8842 C   0  0  0  0  0  0  0  0  0  0  0  0
   -1.2587    1.6546   -0.8117 C   0  0  0  0  0  0  0  0  0  0  0  0
    4.9724    3.0583   -0.7638 H   0  0  0  0  0  0  0  0  0  0  0  0
    4.1096    1.9011   -1.7773 H   0  0  0  0  0  0  0  0  0  0  0  0
    3.2239    3.1897   -0.9490 H   0  0  0  0  0  0  0  0  0  0  0  0
    4.7274    0.9045    0.4214 H   0  0  0  0  0  0  0  0  0  0  0  0
    3.6713    1.7231    2.5151 H   0  0  0  0  0  0  0  0  0  0  0  0
    4.6837    2.9720    1.7885 H   0  0  0  0  0  0  0  0  0  0  0  0
    2.9294    3.0638    1.6286 H   0  0  0  0  0  0  0  0  0  0  0  0
    4.1979   -3.4302   -0.0244 H   0  0  0  0  0  0  0  0  0  0  0  0
   -0.1202   -3.8602   -0.8514 H   0  0  0  0  0  0  0  0  0  0  0  0
   -0.8455   -2.3043   -0.8282 H   0  0  0  0  0  0  0  0  0  0  0  0
   -1.3746   -1.1684    1.0807 H   0  0  0  0  0  0  0  0  0  0  0  0
   -3.7461   -1.7414    1.6048 H   0  0  0  0  0  0  0  0  0  0  0  0
   -6.1514   -1.1273    1.4034 H   0  0  0  0  0  0  0  0  0  0  0  0
   -6.7700    0.9055    0.1264 H   0  0  0  0  0  0  0  0  0  0  0  0
   -2.9408    2.8159   -1.4187 H   0  0  0  0  0  0  0  0  0  0  0  0
   -0.5407    2.3020   -1.2977 H   0  0  0  0  0  0  0  0  0  0  0  0
  1  2  1  0
  2  3  1  0
  2  4  1  0
  4  5  1  0
  4  6  1  0
  5 13  2  0
  6  7  2  0
  6 12  1  0
  7  8  1  0
  8  9  2  0
  9 10  1  0
 10 11  1  0
 10 12  2  0
 12 13  1  0
 13 14  1  0
 14 15  2  0
 14 23  1  0
 15 16  1  0
 16 17  2  0
 16 21  1  0
 17 18  1  0
 18 19  2  0
 19 20  1  0
 20 21  2  0
 21 22  1  0
 22 23  2  0
  1 24  1  0
  1 25  1  0
  1 26  1  0
  2 27  1  1
  3 28  1  0
  3 29  1  0
  3 30  1  0
  8 31  1  0
 11 32  1  0
 11 33  1  0
 15 34  1  0
 17 35  1  0
 18 36  1  0
 19 37  1  0
 22 38  1  0
 23 39  1  0
M  END
