
     RDKit          3D

 15 15  0  0  0  0  0  0  0  0999 V2000
    2.0741   -1.1942    0.5711 O   0  0  0  0  0  0  0  0  0  0  0  0
    1.5485   -0.2710    0.0018 N   0  0  0  0  0  0  0  0  0  0  0  0
    2.1571    0.5671   -0.6325 O   0  0  0  0  0  0  0  0  0  0  0  0
    0.1074   -0.2268   -0.0234 C   0  0  0  0  0  0  0  0  0  0  0  0
   -0.5656    1.0030   -0.0156 C   0  0  0  0  0  0  0  0  0  0  0  0
    0.0679    2.1940    0.0741 O   0  0  0  0  0  0  0  0  0  0  0  0
   -0.5701   -1.4406   -0.0496 C   0  0  0  0  0  0  0  0  0  0  0  0
   -1.9507   -1.4405   -0.0618 C   0  0  0  0  0  0  0  0  0  0  0  0
   -2.6370   -0.2317   -0.0312 C   0  0  0  0  0  0  0  0  0  0  0  0
   -1.9534    0.9722   -0.0083 C   0  0  0  0  0  0  0  0  0  0  0  0
   -0.0213   -2.3721   -0.0613 H   0  0  0  0  0  0  0  0  0  0  0  0
    0.8055    2.2343   -0.5459 H   0  0  0  0  0  0  0  0  0  0  0  0
   -2.4964    1.9082    0.0182 H   0  0  0  0  0  0  0  0  0  0  0  0
   -2.4936   -2.3738   -0.1122 H   0  0  0  0  0  0  0  0  0  0  0  0
   -3.7183   -0.2288   -0.0164 H   0  0  0  0  0  0  0  0  0  0  0  0
  1  2  1  0
  2  3  2  0
  2  4  1  0
  4  5  2  0
  4  7  1  0
  5  6  1  0
  5 10  1  0
  7  8  2  0
  8  9  1  0
  9 10  2  0
  7 11  1  0
  6 12  1  0
 10 13  1  0
  8 14  1  0
  9 15  1  0
M  CHG  2   1  -1   2   1
M  END
