
     RDKit          3D

 73 75  0  0  0  0  0  0  0  0999 V2000
    9.5940    2.0106   -0.9632 C   0  0  0  0  0  0  0  0  0  0  0  0
    9.5911    0.9372    0.1157 C   0  0  0  0  0  0  0  0  0  0  0  0
    8.3380    0.0585    0.1455 C   0  0  1  0  0  0  0  0  0  0  0  0
    8.5397   -1.1114    1.1099 C   0  0  0  0  0  0  0  0  0  0  0  0
    7.4696   -2.1927    1.0269 C   0  0  0  0  0  0  0  0  0  0  0  0
    7.1522    0.8193    0.5321 N   0  0  0  0  0  0  0  0  0  0  0  0
    6.3406    1.4264   -0.5073 C   0  0  2  0  0  0  0  0  0  0  0  0
    6.3048    2.8661   -0.3308 N   0  0  0  0  0  0  0  0  0  0  0  0
    4.9774    0.7455   -0.5624 C   0  0  0  0  0  0  0  0  0  0  0  0
    3.8112    1.3617   -0.1286 C   0  0  0  0  0  0  0  0  0  0  0  0
    2.5912    0.7006   -0.1597 C   0  0  0  0  0  0  0  0  0  0  0  0
    4.8851   -0.5638   -1.0406 C   0  0  0  0  0  0  0  0  0  0  0  0
    3.6762   -1.2294   -1.0810 C   0  0  0  0  0  0  0  0  0  0  0  0
    2.5030   -0.6068   -0.6374 C   0  0  0  0  0  0  0  0  0  0  0  0
    1.2369   -1.3139   -0.6896 C   0  0  0  0  0  0  0  0  0  0  0  0
    0.1215   -0.6225   -0.3715 O   0  0  0  0  0  0  0  0  0  0  0  0
    0.8919   -2.5951   -1.0057 C   0  0  0  0  0  0  0  0  0  0  0  0
   -0.5179   -2.6789   -0.8700 C   0  0  0  0  0  0  0  0  0  0  0  0
   -0.9447   -1.4436   -0.4796 C   0  0  0  0  0  0  0  0  0  0  0  0
   -2.2534   -0.8917   -0.1823 C   0  0  0  0  0  0  0  0  0  0  0  0
   -3.3920   -1.6982   -0.2670 C   0  0  0  0  0  0  0  0  0  0  0  0
   -4.6470   -1.1876    0.0097 C   0  0  0  0  0  0  0  0  0  0  0  0
   -2.4207    0.4420    0.1935 C   0  0  0  0  0  0  0  0  0  0  0  0
   -3.6819    0.9448    0.4758 C   0  0  0  0  0  0  0  0  0  0  0  0
   -4.8179    0.1450    0.3887 C   0  0  0  0  0  0  0  0  0  0  0  0
   -6.1963    0.6773    0.7463 C   0  0  1  0  0  0  0  0  0  0  0  0
   -6.1911    2.1306    0.7226 N   0  0  0  0  0  0  0  0  0  0  0  0
   -7.2001   -0.0027   -0.0461 N   0  0  0  0  0  0  0  0  0  0  0  0
   -8.5900    0.1401    0.3791 C   0  0  1  0  0  0  0  0  0  0  0  0
   -9.4792    0.6384   -0.7614 C   0  0  0  0  0  0  0  0  0  0  0  0
   -9.1307    2.0277   -1.2790 C   0  0  0  0  0  0  0  0  0  0  0  0
   -9.1250   -1.1842    0.9276 C   0  0  0  0  0  0  0  0  0  0  0  0
   -8.3366   -1.7311    2.1079 C   0  0  0  0  0  0  0  0  0  0  0  0
    9.5018    1.5659   -1.9570 H   0  0  0  0  0  0  0  0  0  0  0  0
   10.5268    2.5764   -0.9459 H   0  0  0  0  0  0  0  0  0  0  0  0
    8.7721    2.7140   -0.8335 H   0  0  0  0  0  0  0  0  0  0  0  0
   10.4599    0.2873   -0.0288 H   0  0  0  0  0  0  0  0  0  0  0  0
    9.7107    1.3969    1.1018 H   0  0  0  0  0  0  0  0  0  0  0  0
    8.2075   -0.3698   -0.8627 H   0  0  0  0  0  0  0  0  0  0  0  0
    8.6056   -0.7222    2.1317 H   0  0  0  0  0  0  0  0  0  0  0  0
    9.5120   -1.5598    0.8952 H   0  0  0  0  0  0  0  0  0  0  0  0
    6.4765   -1.8287    1.2954 H   0  0  0  0  0  0  0  0  0  0  0  0
    7.7003   -3.0177    1.7015 H   0  0  0  0  0  0  0  0  0  0  0  0
    7.4034   -2.6010    0.0166 H   0  0  0  0  0  0  0  0  0  0  0  0
    6.5702    0.2796    1.1555 H   0  0  0  0  0  0  0  0  0  0  0  0
    6.8182    1.2451   -1.4771 H   0  0  0  0  0  0  0  0  0  0  0  0
    5.6940    3.2923   -1.0182 H   0  0  0  0  0  0  0  0  0  0  0  0
    5.9257    3.0953    0.5805 H   0  0  0  0  0  0  0  0  0  0  0  0
    3.8374    2.3802    0.2382 H   0  0  0  0  0  0  0  0  0  0  0  0
    1.7083    1.2180    0.1917 H   0  0  0  0  0  0  0  0  0  0  0  0
    5.7762   -1.0696   -1.3953 H   0  0  0  0  0  0  0  0  0  0  0  0
    3.6426   -2.2392   -1.4704 H   0  0  0  0  0  0  0  0  0  0  0  0
    1.5581   -3.3915   -1.2951 H   0  0  0  0  0  0  0  0  0  0  0  0
   -1.1311   -3.5486   -1.0433 H   0  0  0  0  0  0  0  0  0  0  0  0
   -3.2992   -2.7383   -0.5537 H   0  0  0  0  0  0  0  0  0  0  0  0
   -5.5134   -1.8298   -0.0703 H   0  0  0  0  0  0  0  0  0  0  0  0
   -1.5681    1.1036    0.2707 H   0  0  0  0  0  0  0  0  0  0  0  0
   -3.7818    1.9801    0.7704 H   0  0  0  0  0  0  0  0  0  0  0  0
   -6.3857    0.3972    1.7884 H   0  0  0  0  0  0  0  0  0  0  0  0
   -6.1024    2.4651   -0.2302 H   0  0  0  0  0  0  0  0  0  0  0  0
   -7.0711    2.4877    1.0738 H   0  0  0  0  0  0  0  0  0  0  0  0
   -7.0853    0.2320   -1.0244 H   0  0  0  0  0  0  0  0  0  0  0  0
   -8.6550    0.8829    1.1895 H   0  0  0  0  0  0  0  0  0  0  0  0
  -10.5148    0.6358   -0.4118 H   0  0  0  0  0  0  0  0  0  0  0  0
   -9.4383   -0.0842   -1.5843 H   0  0  0  0  0  0  0  0  0  0  0  0
   -9.8365    2.3437   -2.0476 H   0  0  0  0  0  0  0  0  0  0  0  0
   -8.1354    2.0636   -1.7252 H   0  0  0  0  0  0  0  0  0  0  0  0
   -9.1600    2.7687   -0.4783 H   0  0  0  0  0  0  0  0  0  0  0  0
  -10.1696   -1.0442    1.2229 H   0  0  0  0  0  0  0  0  0  0  0  0
   -9.1280   -1.9207    0.1174 H   0  0  0  0  0  0  0  0  0  0  0  0
   -8.7746   -2.6606    2.4736 H   0  0  0  0  0  0  0  0  0  0  0  0
   -7.3036   -1.9410    1.8288 H   0  0  0  0  0  0  0  0  0  0  0  0
   -8.3221   -1.0243    2.9405 H   0  0  0  0  0  0  0  0  0  0  0  0
  1  2  1  0
  1 34  1  0
  1 35  1  0
  1 36  1  0
  2  3  1  0
  2 37  1  0
  2 38  1  0
  3  4  1  0
  3  6  1  0
  3 39  1  6
  4  5  1  0
  4 40  1  0
  4 41  1  0
  5 42  1  0
  5 43  1  0
  5 44  1  0
  6  7  1  0
  6 45  1  0
  7  8  1  0
  7  9  1  0
  7 46  1  6
  8 47  1  0
  8 48  1  0
  9 10  2  0
  9 12  1  0
 10 11  1  0
 10 49  1  0
 11 14  2  0
 11 50  1  0
 12 13  2  0
 12 51  1  0
 13 14  1  0
 13 52  1  0
 14 15  1  0
 15 16  1  0
 15 17  2  0
 16 19  1  0
 17 18  1  0
 17 53  1  0
 18 19  2  0
 18 54  1  0
 19 20  1  0
 20 21  2  0
 20 23  1  0
 21 22  1  0
 21 55  1  0
 22 25  2  0
 22 56  1  0
 23 24  2  0
 23 57  1  0
 24 25  1  0
 24 58  1  0
 25 26  1  0
 26 27  1  0
 26 28  1  0
 26 59  1  1
 27 60  1  0
 27 61  1  0
 28 29  1  0
 28 62  1  0
 29 30  1  0
 29 32  1  0
 29 63  1  1
 30 31  1  0
 30 64  1  0
 30 65  1  0
 31 66  1  0
 31 67  1  0
 31 68  1  0
 32 33  1  0
 32 69  1  0
 32 70  1  0
 33 71  1  0
 33 72  1  0
 33 73  1  0
M  END
