
     RDKit          3D

 22 22  0  0  0  0  0  0  0  0999 V2000
   -3.3561   -0.1498    0.0256 C   0  0  0  0  0  0  0  0  0  0  0  0
    4.9010   -0.7442    0.0186 C   0  0  0  0  0  0  0  0  0  0  0  0
    3.3936   -0.9342    0.0234 C   0  0  0  0  0  0  0  0  0  0  0  0
    0.8920    0.3607    0.0431 C   0  0  0  0  0  0  0  0  0  0  0  0
    0.0292    1.4628    0.0426 C   0  0  0  0  0  0  0  0  0  0  0  0
   -1.3374    1.2778    0.0377 C   0  0  0  0  0  0  0  0  0  0  0  0
   -1.8849   -0.0064    0.0330 C   0  0  0  0  0  0  0  0  0  0  0  0
   -1.0244   -1.1015    0.0340 C   0  0  0  0  0  0  0  0  0  0  0  0
    0.3493   -0.9237    0.0394 C   0  0  0  0  0  0  0  0  0  0  0  0
   -3.7573   -1.4147    0.0242 O   0  0  0  0  0  0  0  0  0  0  0  0
   -4.1243    0.7839    0.0211 O   0  0  0  0  0  0  0  0  0  0  0  0
    5.2422   -0.2174    0.9093 H   0  0  0  0  0  0  0  0  0  0  0  0
    5.3865   -1.7193    0.0005 H   0  0  0  0  0  0  0  0  0  0  0  0
    5.2330   -0.1890   -0.8584 H   0  0  0  0  0  0  0  0  0  0  0  0
    3.0707   -1.4730   -0.8677 H   0  0  0  0  0  0  0  0  0  0  0  0
    3.0805   -1.4988    0.9018 H   0  0  0  0  0  0  0  0  0  0  0  0
    0.4306    2.4688    0.0446 H   0  0  0  0  0  0  0  0  0  0  0  0
   -1.9868    2.1431    0.0368 H   0  0  0  0  0  0  0  0  0  0  0  0
   -1.4115   -2.1113    0.0310 H   0  0  0  0  0  0  0  0  0  0  0  0
    0.9856   -1.7971    0.0407 H   0  0  0  0  0  0  0  0  0  0  0  0
   -4.7251   -1.4527    0.0179 H   0  0  0  0  0  0  0  0  0  0  0  0
    2.6093    0.7019    0.0495 S   0  0  0  0  0  0  0  0  0  0  0  0
 11  1  2  0
  1 10  1  0
  1  7  1  0
  8  7  2  0
  8  9  1  0
  7  6  1  0
  9  4  2  0
  6  5  2  0
  4  5  1  0
  4 22  1  0
 22  3  1  0
  3  2  1  0
  2 12  1  0
  2 13  1  0
  2 14  1  0
  3 15  1  0
  3 16  1  0
  5 17  1  0
  6 18  1  0
  8 19  1  0
  9 20  1  0
 10 21  1  0
M  END
