
     RDKit          3D

 21 22  0  0  0  0  0  0  0  0999 V2000
   -1.1620   -0.3989   -0.0238 C   0  0  0  0  0  0  0  0  0  0  0  0
    1.7844   -0.2556    1.1981 C   0  0  0  0  0  0  0  0  0  0  0  0
   -1.1704    0.9871   -0.0008 C   0  0  0  0  0  0  0  0  0  0  0  0
    3.0446    0.3198    1.1660 C   0  0  0  0  0  0  0  0  0  0  0  0
   -2.4019    1.6271    0.0187 C   0  0  0  0  0  0  0  0  0  0  0  0
    3.6348    0.5671   -0.0652 C   0  0  0  0  0  0  0  0  0  0  0  0
   -3.5607    0.8699    0.0144 C   0  0  0  0  0  0  0  0  0  0  0  0
   -3.5465   -0.4594   -0.0070 N   0  0  0  0  0  0  0  0  0  0  0  0
   -2.3791   -1.0788   -0.0242 C   0  0  0  0  0  0  0  0  0  0  0  0
   -0.0424   -1.1693   -0.0522 O   0  0  0  0  0  0  0  0  0  0  0  0
    1.1830   -0.5594   -0.0114 C   0  0  0  0  0  0  0  0  0  0  0  0
    3.0531    0.2740   -1.2221 N   0  0  0  0  0  0  0  0  0  0  0  0
    1.8476   -0.2769   -1.1961 C   0  0  0  0  0  0  0  0  0  0  0  0
   -0.2591    1.5702    0.0011 H   0  0  0  0  0  0  0  0  0  0  0  0
    3.5617    0.5721    2.0811 H   0  0  0  0  0  0  0  0  0  0  0  0
   -2.4544    2.7068    0.0364 H   0  0  0  0  0  0  0  0  0  0  0  0
    4.6184    1.0192   -0.1174 H   0  0  0  0  0  0  0  0  0  0  0  0
   -4.5328    1.3485    0.0286 H   0  0  0  0  0  0  0  0  0  0  0  0
   -2.3883   -2.1640   -0.0415 H   0  0  0  0  0  0  0  0  0  0  0  0
    1.3862   -0.5152   -2.1492 H   0  0  0  0  0  0  0  0  0  0  0  0
    1.2879   -0.4691    2.1361 H   0  0  0  0  0  0  0  0  0  0  0  0
  4  6  1  0
  4  2  2  0
  6 12  2  0
  2 11  1  0
 12 13  1  0
 11 13  2  0
 11 10  1  0
  9  8  2  0
  9  1  1  0
  8  7  1  0
 10  1  1  0
  1  3  2  0
  7  5  2  0
  3  5  1  0
  2 21  1  0
  3 14  1  0
  4 15  1  0
  5 16  1  0
  6 17  1  0
  7 18  1  0
  9 19  1  0
 13 20  1  0
M  END
