
     RDKit          3D

 32 34  0  0  0  0  0  0  0  0999 V2000
   -2.8351    2.0614    0.9640 N   0  0  0  0  0  0  0  0  0  0  0  0
    4.1646    0.0404    0.4093 C   0  0  0  0  0  0  0  0  0  0  0  0
    1.1067   -2.9044   -0.2413 N   0  0  0  0  0  0  0  0  0  0  0  0
    0.8242   -1.6235   -0.0695 C   0  0  0  0  0  0  0  0  0  0  0  0
    1.8967   -0.6225   -0.1195 C   0  0  0  0  0  0  0  0  0  0  0  0
   -1.0918   -2.7135    0.0268 C   0  0  0  0  0  0  0  0  0  0  0  0
   -3.3043    1.1262    0.1411 C   0  0  0  0  0  0  0  0  0  0  0  0
   -0.5710   -1.4376    0.1122 C   0  0  0  0  0  0  0  0  0  0  0  0
    1.7135    0.5933   -0.7776 C   0  0  0  0  0  0  0  0  0  0  0  0
    2.7313    1.5321   -0.8417 C   0  0  0  0  0  0  0  0  0  0  0  0
    3.9412    1.2373   -0.2431 C   0  0  0  0  0  0  0  0  0  0  0  0
    3.1347   -0.8862    0.4661 C   0  0  0  0  0  0  0  0  0  0  0  0
   -0.0565   -3.5349   -0.1729 N   0  0  0  0  0  0  0  0  0  0  0  0
   -1.3319   -0.2223    0.3960 C   0  0  0  0  0  0  0  0  0  0  0  0
   -0.8528    0.7586    1.2615 C   0  0  0  0  0  0  0  0  0  0  0  0
   -1.6397    1.8711    1.5052 C   0  0  0  0  0  0  0  0  0  0  0  0
   -2.5900   -0.0218   -0.1713 C   0  0  0  0  0  0  0  0  0  0  0  0
   -4.6679    1.4103   -0.4257 C   0  0  0  0  0  0  0  0  0  0  0  0
   -5.0408    0.4067   -1.3310 O   0  0  0  0  0  0  0  0  0  0  0  0
    4.9306    2.1429   -0.2981 F   0  0  0  0  0  0  0  0  0  0  0  0
   -2.1019   -3.0768    0.1267 H   0  0  0  0  0  0  0  0  0  0  0  0
    0.7698    0.8136   -1.2593 H   0  0  0  0  0  0  0  0  0  0  0  0
    2.5863    2.4727   -1.3567 H   0  0  0  0  0  0  0  0  0  0  0  0
    3.2961   -1.8229    0.9833 H   0  0  0  0  0  0  0  0  0  0  0  0
   -0.0896   -4.5374   -0.2716 H   0  0  0  0  0  0  0  0  0  0  0  0
    0.1061    0.6589    1.7509 H   0  0  0  0  0  0  0  0  0  0  0  0
   -1.2848    2.6453    2.1770 H   0  0  0  0  0  0  0  0  0  0  0  0
   -2.9981   -0.7500   -0.8582 H   0  0  0  0  0  0  0  0  0  0  0  0
   -5.3728    1.4888    0.4125 H   0  0  0  0  0  0  0  0  0  0  0  0
   -4.6387    2.4014   -0.8973 H   0  0  0  0  0  0  0  0  0  0  0  0
   -5.9301    0.5975   -1.6415 H   0  0  0  0  0  0  0  0  0  0  0  0
    5.1214   -0.1646    0.8715 H   0  0  0  0  0  0  0  0  0  0  0  0
 13  6  1  0
 13  3  1  0
  6  8  2  0
  3  4  2  0
  8  4  1  0
  8 14  1  0
  4  5  1  0
  9  5  2  0
  9 10  1  0
 14 15  2  0
 14 17  1  0
 19 18  1  0
 15 16  1  0
  5 12  1  0
 17  7  2  0
 10 11  2  0
 16  1  2  0
  7  1  1  0
  7 18  1  0
 12  2  2  0
 11  2  1  0
 11 20  1  0
  2 32  1  0
  6 21  1  0
  9 22  1  0
 10 23  1  0
 12 24  1  0
 13 25  1  0
 15 26  1  0
 16 27  1  0
 17 28  1  0
 18 29  1  0
 18 30  1  0
 19 31  1  0
M  END
