
     RDKit          3D

 53 56  0  0  0  0  0  0  0  0999 V2000
   -3.4879   -1.7045    0.2485 C   0  0  0  0  0  0  0  0  0  0  0  0
   -4.6013    0.4069    0.2720 C   0  0  0  0  0  0  0  0  0  0  0  0
   -3.1799   -0.1594   -1.5923 C   0  0  0  0  0  0  0  0  0  0  0  0
    3.7300    0.7195    0.2867 C   0  0  0  0  0  0  0  0  0  0  0  0
    5.7007    0.3566    1.6377 C   0  0  0  0  0  0  0  0  0  0  0  0
    5.3951    2.5567    0.5011 C   0  0  1  0  0  0  0  0  0  0  0  0
    4.0274   -1.3712    1.4197 C   0  0  0  0  0  0  0  0  0  0  0  0
    3.2491   -0.5631    0.5836 C   0  0  0  0  0  0  0  0  0  0  0  0
    1.4749   -2.2347    0.5359 C   0  0  0  0  0  0  0  0  0  0  0  0
   -0.0164   -2.3021    0.2609 C   0  0  0  0  0  0  0  0  0  0  0  0
    0.2628   -0.7979   -1.6126 C   0  0  0  0  0  0  0  0  0  0  0  0
    1.7508   -0.7516   -1.3331 C   0  0  0  0  0  0  0  0  0  0  0  0
   -2.9132   -1.3816   -0.9738 C   0  0  0  0  0  0  0  0  0  0  0  0
   -4.3396   -0.8137    0.8874 C   0  0  0  0  0  0  0  0  0  0  0  0
   -4.0215    0.7249   -0.9588 C   0  0  0  0  0  0  0  0  0  0  0  0
   -4.4419    2.0937   -1.3966 C   0  0  0  0  0  0  0  0  0  0  0  0
   -5.4655    2.5144   -0.3334 C   0  0  0  0  0  0  0  0  0  0  0  0
   -6.9458    2.7533    2.0583 C   0  0  0  0  0  0  0  0  0  0  0  0
    4.9387    1.1618    0.7969 C   0  0  0  0  0  0  0  0  0  0  0  0
    5.2257   -0.9068    1.9421 C   0  0  0  0  0  0  0  0  0  0  0  0
    4.9363    3.0120   -0.6706 F   0  0  0  0  0  0  0  0  0  0  0  0
    4.9776    3.4227    1.4386 F   0  0  0  0  0  0  0  0  0  0  0  0
    6.7296    2.6535    0.4605 F   0  0  0  0  0  0  0  0  0  0  0  0
    2.0188   -0.9742    0.0791 N   0  0  0  0  0  0  0  0  0  0  0  0
   -0.2655   -2.0843   -1.1622 N   0  0  0  0  0  0  0  0  0  0  0  0
   -5.4132    1.4570    0.6907 N   0  0  0  0  0  0  0  0  0  0  0  0
   -2.0470   -3.8386   -1.2248 O   0  0  0  0  0  0  0  0  0  0  0  0
   -1.7645   -2.2570   -3.1552 O   0  0  0  0  0  0  0  0  0  0  0  0
   -6.0597    0.6278    2.6940 O   0  0  0  0  0  0  0  0  0  0  0  0
   -1.7724   -2.5004   -1.7219 S   0  0  1  0  0  0  0  0  0  0  0  0
   -3.2882   -2.6589    0.7158 H   0  0  0  0  0  0  0  0  0  0  0  0
   -2.7441    0.0935   -2.5501 H   0  0  0  0  0  0  0  0  0  0  0  0
    3.1389    1.3788   -0.3336 H   0  0  0  0  0  0  0  0  0  0  0  0
    6.6431    0.6933    2.0465 H   0  0  0  0  0  0  0  0  0  0  0  0
    3.7179   -2.3766    1.6672 H   0  0  0  0  0  0  0  0  0  0  0  0
    1.5991   -2.3221    1.6150 H   0  0  0  0  0  0  0  0  0  0  0  0
    1.9759   -3.0950    0.0698 H   0  0  0  0  0  0  0  0  0  0  0  0
   -0.3728   -3.2868    0.5557 H   0  0  0  0  0  0  0  0  0  0  0  0
   -0.5307   -1.5488    0.8709 H   0  0  0  0  0  0  0  0  0  0  0  0
   -0.2325    0.0366   -1.1001 H   0  0  0  0  0  0  0  0  0  0  0  0
    0.1098   -0.6857   -2.6836 H   0  0  0  0  0  0  0  0  0  0  0  0
    2.2612   -1.5036   -1.9503 H   0  0  0  0  0  0  0  0  0  0  0  0
    2.1127    0.2254   -1.6442 H   0  0  0  0  0  0  0  0  0  0  0  0
   -4.7785   -1.0834    1.8322 H   0  0  0  0  0  0  0  0  0  0  0  0
   -3.5885    2.7731   -1.4182 H   0  0  0  0  0  0  0  0  0  0  0  0
   -5.2162    3.4789    0.1054 H   0  0  0  0  0  0  0  0  0  0  0  0
   -6.3258    3.6506    2.0866 H   0  0  0  0  0  0  0  0  0  0  0  0
   -7.6658    2.8838    1.2491 H   0  0  0  0  0  0  0  0  0  0  0  0
   -7.4876    2.6775    2.9973 H   0  0  0  0  0  0  0  0  0  0  0  0
    5.8036   -1.5549    2.5874 H   0  0  0  0  0  0  0  0  0  0  0  0
   -4.8768    2.0903   -2.3957 H   0  0  0  0  0  0  0  0  0  0  0  0
   -6.4717    2.5806   -0.7482 H   0  0  0  0  0  0  0  0  0  0  0  0
   -6.1117    1.5168    1.8624 C   0  0  0  0  0  0  0  0  0  0  0  0
 28 30  2  0
 16 15  1  0
 16 17  1  0
  3 15  2  0
  3 13  1  0
 15  2  1  0
 30 27  2  0
 30 13  1  1
 30 25  1  0
 17 26  1  0
 13  1  2  0
  2 26  1  0
  2 14  2  0
 26 53  1  0
  1 14  1  0
 25 10  1  0
 25 11  1  0
 10  9  1  0
 18 53  1  0
 53 29  2  0
  9 24  1  0
 11 12  1  0
 12 24  1  0
 24  8  1  0
  4  8  2  0
  4 19  1  0
  8  7  1  0
  6 23  1  6
 21  6  1  0
  6 19  1  0
  6 22  1  0
 19  5  2  0
  7 20  2  0
  5 20  1  0
  1 31  1  0
  3 32  1  0
  4 33  1  0
  5 34  1  0
  7 35  1  0
  9 36  1  0
  9 37  1  0
 10 38  1  0
 10 39  1  0
 11 40  1  0
 11 41  1  0
 12 42  1  0
 12 43  1  0
 14 44  1  0
 16 45  1  0
 17 46  1  0
 18 47  1  0
 18 48  1  0
 18 49  1  0
 20 50  1  0
 16 51  1  0
 17 52  1  0
M  END
