
     RDKit          3D

 32 33  0  0  0  0  0  0  0  0999 V2000
    0.0713   -0.5428    0.6388 N   0  0  0  0  0  0  0  0  0  0  0  0
   -5.5022    1.0122   -0.2854 C   0  0  0  0  0  0  0  0  0  0  0  0
   -2.0580   -0.3378   -0.5676 C   0  0  0  0  0  0  0  0  0  0  0  0
   -5.7336   -0.2763   -0.0703 C   0  0  0  0  0  0  0  0  0  0  0  0
   -4.4352   -1.0073   -0.1499 C   0  0  0  0  0  0  0  0  0  0  0  0
   -4.2378   -2.1859   -0.0014 O   0  0  0  0  0  0  0  0  0  0  0  0
   -4.0396    1.1963   -0.5175 C   0  0  0  0  0  0  0  0  0  0  0  0
   -3.4472    2.2211   -0.7370 O   0  0  0  0  0  0  0  0  0  0  0  0
   -3.4695   -0.0605   -0.4340 N   0  0  0  0  0  0  0  0  0  0  0  0
   -1.3315   -0.2422    0.7746 C   0  0  0  0  0  0  0  0  0  0  0  0
    0.9913    0.3875    0.3187 C   0  0  0  0  0  0  0  0  0  0  0  0
    0.7100    1.5595    0.1225 O   0  0  0  0  0  0  0  0  0  0  0  0
    2.3949   -0.1222    0.2571 C   0  0  0  0  0  0  0  0  0  0  0  0
    2.8923   -0.9370    1.2778 C   0  0  0  0  0  0  0  0  0  0  0  0
    4.2050   -1.3676    1.2565 C   0  0  0  0  0  0  0  0  0  0  0  0
    5.0376   -1.0009    0.2049 C   0  0  0  0  0  0  0  0  0  0  0  0
    4.5553   -0.2014   -0.8157 C   0  0  0  0  0  0  0  0  0  0  0  0
    5.2873    0.1945   -1.8806 O   0  0  0  0  0  0  0  0  0  0  0  0
    3.2272    0.2523   -0.7946 C   0  0  0  0  0  0  0  0  0  0  0  0
    2.7465    1.0121   -1.7936 O   0  0  0  0  0  0  0  0  0  0  0  0
    0.3528   -1.5084    0.6941 H   0  0  0  0  0  0  0  0  0  0  0  0
   -6.2036    1.8320   -0.3010 H   0  0  0  0  0  0  0  0  0  0  0  0
   -1.9425   -1.3359   -0.9890 H   0  0  0  0  0  0  0  0  0  0  0  0
   -1.6336    0.3691   -1.2794 H   0  0  0  0  0  0  0  0  0  0  0  0
   -6.6708   -0.7705    0.1345 H   0  0  0  0  0  0  0  0  0  0  0  0
   -1.7648   -0.9473    1.4839 H   0  0  0  0  0  0  0  0  0  0  0  0
   -1.4483    0.7576    1.1916 H   0  0  0  0  0  0  0  0  0  0  0  0
    2.2504   -1.2142    2.1039 H   0  0  0  0  0  0  0  0  0  0  0  0
    4.5896   -1.9862    2.0555 H   0  0  0  0  0  0  0  0  0  0  0  0
    6.0664   -1.3417    0.1786 H   0  0  0  0  0  0  0  0  0  0  0  0
    6.1909   -0.1350   -1.8232 H   0  0  0  0  0  0  0  0  0  0  0  0
    3.4342    1.1724   -2.4515 H   0  0  0  0  0  0  0  0  0  0  0  0
 18 17  1  0
 17 16  2  0
 17 19  1  0
 20 19  1  0
 16 15  1  0
 19 13  2  0
 15 14  2  0
 13 14  1  0
 13 11  1  0
  1 10  1  0
  1 11  1  0
 10  3  1  0
 11 12  2  0
  8  7  2  0
  3  9  1  0
  7  2  1  0
  7  9  1  0
  2  4  2  0
  9  5  1  0
  5  4  1  0
  5  6  2  0
  1 21  1  0
  2 22  1  0
  3 23  1  0
  3 24  1  0
  4 25  1  0
 10 26  1  0
 10 27  1  0
 14 28  1  0
 15 29  1  0
 16 30  1  0
 18 31  1  0
 20 32  1  0
M  END
