
     RDKit          3D

 26 27  0  0  0  0  0  0  0  0999 V2000
    1.6389   -1.7872   -1.0932 F   0  0  0  0  0  0  0  0  0  0  0  0
    2.2599   -1.2854   -0.0154 C   0  0  2  0  0  0  0  0  0  0  0  0
    3.4891   -1.8119   -0.0108 F   0  0  0  0  0  0  0  0  0  0  0  0
    1.6324   -1.7815    1.0608 F   0  0  0  0  0  0  0  0  0  0  0  0
    2.2910    0.2146   -0.0193 C   0  0  0  0  0  0  0  0  0  0  0  0
    3.5138    0.8750   -0.0153 C   0  0  0  0  0  0  0  0  0  0  0  0
    3.5626    2.2600   -0.0177 C   0  0  0  0  0  0  0  0  0  0  0  0
    1.0957    0.9488   -0.0250 C   0  0  0  0  0  0  0  0  0  0  0  0
    1.1602    2.3433   -0.0286 C   0  0  0  0  0  0  0  0  0  0  0  0
    2.3819    2.9905   -0.0245 C   0  0  0  0  0  0  0  0  0  0  0  0
   -0.1058    0.2231   -0.0286 N   0  0  0  0  0  0  0  0  0  0  0  0
   -1.1389    0.9334   -0.0170 N   0  0  0  0  0  0  0  0  0  0  0  0
   -2.3119    0.2597   -0.0202 C   0  0  0  0  0  0  0  0  0  0  0  0
   -2.5817   -1.0910   -0.0344 C   0  0  0  0  0  0  0  0  0  0  0  0
   -1.8143   -2.1490   -0.0511 N   0  0  0  0  0  0  0  0  0  0  0  0
   -4.0045   -1.2889   -0.0283 N   0  0  0  0  0  0  0  0  0  0  0  0
   -4.5883   -0.1996   -0.0120 N   0  0  0  0  0  0  0  0  0  0  0  0
   -3.6173    0.8822   -0.0051 C   0  0  0  0  0  0  0  0  0  0  0  0
   -3.9478    2.0962    0.0105 N   0  0  0  0  0  0  0  0  0  0  0  0
    4.4402    0.3185   -0.0101 H   0  0  0  0  0  0  0  0  0  0  0  0
    4.5195    2.7638   -0.0143 H   0  0  0  0  0  0  0  0  0  0  0  0
    0.2447    2.9176   -0.0351 H   0  0  0  0  0  0  0  0  0  0  0  0
    2.4130    4.0719   -0.0273 H   0  0  0  0  0  0  0  0  0  0  0  0
   -0.8128   -2.0406   -0.0573 H   0  0  0  0  0  0  0  0  0  0  0  0
   -2.2104   -3.0768   -0.0594 H   0  0  0  0  0  0  0  0  0  0  0  0
   -4.9604    2.1965    0.0177 H   0  0  0  0  0  0  0  0  0  0  0  0
  2  1  1  6
  2  3  1  0
  2  4  1  0
  2  5  1  0
  5  6  2  0
  5  8  1  0
  6  7  1  0
  6 20  1  0
  7 10  2  0
  7 21  1  0
  8  9  2  0
  8 11  1  0
  9 10  1  0
  9 22  1  0
 10 23  1  0
 11 12  2  0
 12 13  1  0
 13 14  2  0
 13 18  1  0
 14 15  1  0
 14 16  1  0
 15 24  1  0
 15 25  1  0
 16 17  2  0
 17 18  1  0
 18 19  2  0
 19 26  1  0
M  END
