
     RDKit          3D

 62 64  0  0  0  0  0  0  0  0999 V2000
   -7.2020   -1.3873    0.8098 C   0  0  0  0  0  0  0  0  0  0  0  0
   -6.6875    0.8351    0.0800 C   0  0  0  0  0  0  0  0  0  0  0  0
    5.6190    3.5788    0.6560 C   0  0  0  0  0  0  0  0  0  0  0  0
    1.9499   -0.2391    0.3566 C   0  0  1  0  0  0  0  0  0  0  0  0
    3.1983   -1.0588    0.1215 C   0  0  0  0  0  0  0  0  0  0  0  0
    3.7986   -1.6847    1.2126 C   0  0  0  0  0  0  0  0  0  0  0  0
    4.8639   -2.0695   -1.3084 C   0  0  0  0  0  0  0  0  0  0  0  0
   -0.1699   -1.1046    1.4065 C   0  0  0  0  0  0  0  0  0  0  0  0
   -1.3346   -1.8608    1.3837 C   0  0  0  0  0  0  0  0  0  0  0  0
   -1.6436   -2.6289    0.2714 C   0  0  0  0  0  0  0  0  0  0  0  0
   -5.3214    0.3468   -0.3948 C   0  0  2  0  0  0  0  0  0  0  0  0
   -7.6949   -0.2144    0.1026 N   0  0  0  0  0  0  0  0  0  0  0  0
   -4.9086   -0.7668    0.3737 O   0  0  0  0  0  0  0  0  0  0  0  0
   -5.8338   -1.8297    0.3183 C   0  0  0  0  0  0  0  0  0  0  0  0
    0.5686    1.7709   -0.2524 C   0  0  0  0  0  0  0  0  0  0  0  0
    0.6148    2.5662    0.6707 O   0  0  0  0  0  0  0  0  0  0  0  0
    1.7936    0.9323   -0.6354 C   0  0  1  0  0  0  0  0  0  0  0  0
    2.9632    1.7633   -0.7684 N   0  0  0  0  0  0  0  0  0  0  0  0
    3.7425    2.2252    0.2311 C   0  0  0  0  0  0  0  0  0  0  0  0
    3.6643    1.9382    1.4049 O   0  0  0  0  0  0  0  0  0  0  0  0
    4.6718    3.0518   -0.2658 O   0  0  0  0  0  0  0  0  0  0  0  0
    0.7035   -1.1035    0.3234 C   0  0  0  0  0  0  0  0  0  0  0  0
    4.9039   -2.4977    1.0473 C   0  0  0  0  0  0  0  0  0  0  0  0
    5.4444   -2.6954   -0.2161 C   0  0  0  0  0  0  0  0  0  0  0  0
    3.7510   -1.2589   -1.1405 C   0  0  0  0  0  0  0  0  0  0  0  0
   -0.7756   -2.6414   -0.8127 C   0  0  0  0  0  0  0  0  0  0  0  0
    0.3877   -1.8868   -0.7847 C   0  0  0  0  0  0  0  0  0  0  0  0
   -0.5217    1.5490   -1.0006 N   0  0  0  0  0  0  0  0  0  0  0  0
   -1.8411    2.0580   -0.6899 C   0  0  0  0  0  0  0  0  0  0  0  0
   -4.2525    1.4191   -0.2953 C   0  0  0  0  0  0  0  0  0  0  0  0
   -7.1442   -1.1484    1.8767 H   0  0  0  0  0  0  0  0  0  0  0  0
   -7.9196   -2.2028    0.7025 H   0  0  0  0  0  0  0  0  0  0  0  0
   -6.5906    1.2416    1.0936 H   0  0  0  0  0  0  0  0  0  0  0  0
   -7.0343    1.6503   -0.5591 H   0  0  0  0  0  0  0  0  0  0  0  0
    5.1441    4.2013    1.4143 H   0  0  0  0  0  0  0  0  0  0  0  0
    6.1900    2.7905    1.1459 H   0  0  0  0  0  0  0  0  0  0  0  0
    6.2952    4.1930    0.0688 H   0  0  0  0  0  0  0  0  0  0  0  0
    2.0180    0.1848    1.3584 H   0  0  0  0  0  0  0  0  0  0  0  0
    3.3895   -1.5353    2.2048 H   0  0  0  0  0  0  0  0  0  0  0  0
    5.2783   -2.2089   -2.2982 H   0  0  0  0  0  0  0  0  0  0  0  0
    0.0578   -0.5014    2.2772 H   0  0  0  0  0  0  0  0  0  0  0  0
   -2.0049   -1.8411    2.2328 H   0  0  0  0  0  0  0  0  0  0  0  0
   -2.5526   -3.2148    0.2484 H   0  0  0  0  0  0  0  0  0  0  0  0
   -5.4203    0.0417   -1.4524 H   0  0  0  0  0  0  0  0  0  0  0  0
   -7.9247   -0.4748   -0.8498 H   0  0  0  0  0  0  0  0  0  0  0  0
   -5.4359   -2.6381    0.9357 H   0  0  0  0  0  0  0  0  0  0  0  0
   -5.9194   -2.2118   -0.7110 H   0  0  0  0  0  0  0  0  0  0  0  0
    1.6347    0.5095   -1.6313 H   0  0  0  0  0  0  0  0  0  0  0  0
    3.1343    2.1320   -1.6892 H   0  0  0  0  0  0  0  0  0  0  0  0
    5.3507   -2.9761    1.9095 H   0  0  0  0  0  0  0  0  0  0  0  0
    6.3130   -3.3274   -0.3464 H   0  0  0  0  0  0  0  0  0  0  0  0
    3.3269   -0.7785   -2.0133 H   0  0  0  0  0  0  0  0  0  0  0  0
   -1.0033   -3.2452   -1.6817 H   0  0  0  0  0  0  0  0  0  0  0  0
    1.0600   -1.9238   -1.6339 H   0  0  0  0  0  0  0  0  0  0  0  0
   -0.4684    0.8457   -1.7195 H   0  0  0  0  0  0  0  0  0  0  0  0
   -1.8067    2.4932    0.3087 H   0  0  0  0  0  0  0  0  0  0  0  0
   -2.1061    2.8654   -1.3799 H   0  0  0  0  0  0  0  0  0  0  0  0
   -2.9439    0.5595   -1.7713 H   0  0  0  0  0  0  0  0  0  0  0  0
   -2.5437    0.1167   -0.1230 H   0  0  0  0  0  0  0  0  0  0  0  0
   -4.5749    2.2718   -0.9017 H   0  0  0  0  0  0  0  0  0  0  0  0
   -4.1964    1.7813    0.7372 H   0  0  0  0  0  0  0  0  0  0  0  0
   -2.8780    0.9457   -0.7481 C   0  0  0  0  0  0  0  0  0  0  0  0
 29 62  1  0
 29 28  1  0
 62 30  1  0
 14 13  1  0
 14  1  1  0
 13 11  1  0
 28 15  1  0
 11 30  1  0
 11  2  1  0
  1 12  1  0
 15 16  2  0
 15 17  1  0
 12  2  1  0
 20 19  2  0
  3 21  1  0
 19 21  1  0
 19 18  1  0
 17 18  1  0
 17  4  1  0
 25  7  2  0
 25  5  1  0
  7 24  1  0
  4  5  1  0
  4 22  1  0
  5  6  2  0
 24 23  2  0
  6 23  1  0
 22  8  2  0
 22 27  1  0
  8  9  1  0
 27 26  2  0
  9 10  2  0
 26 10  1  0
  1 31  1  0
  1 32  1  0
  2 33  1  0
  2 34  1  0
  3 35  1  0
  3 36  1  0
  3 37  1  0
  4 38  1  1
  6 39  1  0
  7 40  1  0
  8 41  1  0
  9 42  1  0
 10 43  1  0
 11 44  1  6
 12 45  1  0
 14 46  1  0
 14 47  1  0
 17 48  1  6
 18 49  1  0
 23 50  1  0
 24 51  1  0
 25 52  1  0
 26 53  1  0
 27 54  1  0
 28 55  1  0
 29 56  1  0
 29 57  1  0
 62 58  1  0
 62 59  1  0
 30 60  1  0
 30 61  1  0
M  END
