
     RDKit          3D

 30 31  0  0  0  0  0  0  0  0999 V2000
   -1.2106    0.0391    0.4244 N   0  0  0  0  0  0  0  0  0  0  0  0
   -1.5320    0.4325   -0.8611 C   0  0  0  0  0  0  0  0  0  0  0  0
   -0.6971    0.6337   -1.7158 O   0  0  0  0  0  0  0  0  0  0  0  0
   -2.8726    0.5681   -1.1004 N   0  0  0  0  0  0  0  0  0  0  0  0
   -3.9247    0.3663   -0.2184 C   0  0  0  0  0  0  0  0  0  0  0  0
   -5.0745    0.5261   -0.5806 O   0  0  0  0  0  0  0  0  0  0  0  0
   -3.4976   -0.0306    1.1009 C   0  0  0  0  0  0  0  0  0  0  0  0
   -2.1885   -0.1667    1.3590 C   0  0  0  0  0  0  0  0  0  0  0  0
    0.1827   -0.0815    0.8155 C   0  0  1  0  0  0  0  0  0  0  0  0
    1.0500   -1.0240   -0.0422 C   0  0  1  0  0  0  0  0  0  0  0  0
    2.1225   -0.0839   -0.6322 C   0  0  2  0  0  0  0  0  0  0  0  0
    1.6339   -1.9872    0.8889 N   0  0  0  0  0  0  0  0  0  0  0  0
    3.3899   -0.6603   -0.7337 O   0  0  0  0  0  0  0  0  0  0  0  0
    2.1267    1.0667    0.3712 C   0  0  2  0  0  0  0  0  0  0  0  0
    2.2644   -2.9069    0.3980 N   0  0  0  0  0  0  0  0  0  0  0  0
    0.7783    1.1815    0.7942 O   0  0  0  0  0  0  0  0  0  0  0  0
    2.5964    2.3699   -0.2207 C   0  0  0  0  0  0  0  0  0  0  0  0
    2.8459   -3.8050    0.0576 N   0  0  0  0  0  0  0  0  0  0  0  0
    2.6345    3.3503    0.7876 O   0  0  0  0  0  0  0  0  0  0  0  0
   -3.1150    0.8500   -2.0428 H   0  0  0  0  0  0  0  0  0  0  0  0
   -4.2316   -0.2084    1.8713 H   0  0  0  0  0  0  0  0  0  0  0  0
   -1.8370   -0.4569    2.3389 H   0  0  0  0  0  0  0  0  0  0  0  0
    0.1567   -0.4829    1.8325 H   0  0  0  0  0  0  0  0  0  0  0  0
    0.4757   -1.5419   -0.8133 H   0  0  0  0  0  0  0  0  0  0  0  0
    1.7635    0.2762   -1.5993 H   0  0  0  0  0  0  0  0  0  0  0  0
    3.5488   -0.9102   -1.6478 H   0  0  0  0  0  0  0  0  0  0  0  0
    2.7709    0.7944    1.2209 H   0  0  0  0  0  0  0  0  0  0  0  0
    3.5878    2.1937   -0.6569 H   0  0  0  0  0  0  0  0  0  0  0  0
    1.9261    2.6512   -1.0445 H   0  0  0  0  0  0  0  0  0  0  0  0
    2.9830    4.1608    0.4055 H   0  0  0  0  0  0  0  0  0  0  0  0
  6  5  2  0
  4  5  1  0
  4  2  1  0
  5  7  1  0
  3  2  2  0
  2  1  1  0
  7  8  2  0
  1  8  1  0
  1  9  1  0
  9 16  1  0
  9 10  1  0
 16 14  1  0
 14 17  1  0
 14 11  1  0
 10 12  1  0
 10 11  1  0
 12 15  2  0
 17 19  1  0
 11 13  1  0
 15 18  2  0
  4 20  1  0
  7 21  1  0
  8 22  1  0
  9 23  1  1
 10 24  1  6
 11 25  1  6
 13 26  1  0
 14 27  1  1
 17 28  1  0
 17 29  1  0
 19 30  1  0
M  CHG  2  15   1  18  -1
M  END
