
     RDKit          3D

 32 33  0  0  0  0  0  0  0  0999 V2000
    4.3768   -1.9601   -1.0884 C   0  0  0  0  0  0  0  0  0  0  0  0
   -5.1845   -0.1290    0.7329 N   0  0  0  0  0  0  0  0  0  0  0  0
    1.0423    1.6340    1.7486 O   0  0  0  0  0  0  0  0  0  0  0  0
    3.4816   -0.9990   -0.3601 C   0  0  0  0  0  0  0  0  0  0  0  0
    4.0019    0.0179    0.4370 C   0  0  0  0  0  0  0  0  0  0  0  0
    3.1770    0.8857    1.1337 C   0  0  0  0  0  0  0  0  0  0  0  0
    1.7947    0.7661    1.0404 C   0  0  0  0  0  0  0  0  0  0  0  0
    1.2471   -0.2309    0.2290 C   0  0  0  0  0  0  0  0  0  0  0  0
    2.0980   -1.1013   -0.4462 C   0  0  0  0  0  0  0  0  0  0  0  0
   -0.2189   -0.3787    0.0896 C   0  0  0  0  0  0  0  0  0  0  0  0
   -0.8710   -1.4822    0.6369 C   0  0  0  0  0  0  0  0  0  0  0  0
   -2.2375   -1.6568    0.4958 C   0  0  0  0  0  0  0  0  0  0  0  0
   -2.9912   -0.7209   -0.2024 C   0  0  0  0  0  0  0  0  0  0  0  0
   -4.4746   -0.8824   -0.3395 C   0  0  0  0  0  0  0  0  0  0  0  0
   -2.3619    0.3837   -0.7621 C   0  0  0  0  0  0  0  0  0  0  0  0
   -0.9940    0.5444   -0.6134 C   0  0  0  0  0  0  0  0  0  0  0  0
   -0.2392    1.9122   -1.3572 Cl  0  0  0  0  0  0  0  0  0  0  0  0
    4.5443   -2.8679   -0.5052 H   0  0  0  0  0  0  0  0  0  0  0  0
    3.9443   -2.2651   -2.0411 H   0  0  0  0  0  0  0  0  0  0  0  0
    5.3532   -1.5203   -1.2898 H   0  0  0  0  0  0  0  0  0  0  0  0
   -4.9974    0.8725    0.6834 H   0  0  0  0  0  0  0  0  0  0  0  0
   -6.1953   -0.2471    0.6612 H   0  0  0  0  0  0  0  0  0  0  0  0
    0.1114    1.3836    1.7341 H   0  0  0  0  0  0  0  0  0  0  0  0
    5.0756    0.1363    0.5227 H   0  0  0  0  0  0  0  0  0  0  0  0
    3.6034    1.6633    1.7553 H   0  0  0  0  0  0  0  0  0  0  0  0
    1.6563   -1.8715   -1.0688 H   0  0  0  0  0  0  0  0  0  0  0  0
   -0.2888   -2.2137    1.1817 H   0  0  0  0  0  0  0  0  0  0  0  0
   -2.7150   -2.5262    0.9288 H   0  0  0  0  0  0  0  0  0  0  0  0
   -4.7794   -1.9218   -0.2468 H   0  0  0  0  0  0  0  0  0  0  0  0
   -4.8425   -0.4948   -1.2865 H   0  0  0  0  0  0  0  0  0  0  0  0
   -2.9335    1.1130   -1.3225 H   0  0  0  0  0  0  0  0  0  0  0  0
   -4.9119   -0.4419    1.6645 H   0  0  0  0  0  0  0  0  0  0  0  0
  3  7  1  0
  2 14  1  0
 17 16  1  0
 15 16  2  0
 15 13  1  0
  7  6  2  0
  7  8  1  0
 14 13  1  0
 16 10  1  0
 13 12  2  0
  6  5  1  0
 10  8  1  0
 10 11  2  0
 12 11  1  0
  8  9  2  0
  5  4  2  0
  9  4  1  0
  4  1  1  0
  1 18  1  0
  1 19  1  0
  1 20  1  0
  2 21  1  0
  2 22  1  0
  3 23  1  0
  5 24  1  0
  6 25  1  0
  9 26  1  0
 11 27  1  0
 12 28  1  0
 14 29  1  0
 14 30  1  0
 15 31  1  0
  2 32  1  0
M  CHG  1   2   1
M  END
