
     RDKit          3D

 40 42  0  0  0  0  0  0  0  0999 V2000
    7.8405   -0.8634    1.5716 C   0  0  0  0  0  0  0  0  0  0  0  0
    6.4370    0.0102   -0.7003 C   0  0  0  0  0  0  0  0  0  0  0  0
    4.3943    0.9380   -1.6006 C   0  0  0  0  0  0  0  0  0  0  0  0
    2.4420    1.4653   -0.1112 C   0  0  0  0  0  0  0  0  0  0  0  0
    0.1306    0.7568   -0.0982 N   0  0  0  0  0  0  0  0  0  0  0  0
   -0.9558   -0.0725   -0.2132 C   0  0  0  0  0  0  0  0  0  0  0  0
   -5.4709   -1.3655   -0.2246 C   0  0  0  0  0  0  0  0  0  0  0  0
   -6.7904   -1.0327   -0.0108 C   0  0  0  0  0  0  0  0  0  0  0  0
   -6.2912    1.0952    0.6317 C   0  0  0  0  0  0  0  0  0  0  0  0
    6.5282   -0.3527    1.6937 O   0  0  0  0  0  0  0  0  0  0  0  0
    5.8888    0.0504    0.5789 C   0  0  0  0  0  0  0  0  0  0  0  0
    5.6799    0.4577   -1.7778 C   0  0  0  0  0  0  0  0  0  0  0  0
    3.8436    0.9764   -0.3207 C   0  0  0  0  0  0  0  0  0  0  0  0
    4.5912    0.5352    0.7583 C   0  0  0  0  0  0  0  0  0  0  0  0
    1.4219    0.3649   -0.2916 C   0  0  0  0  0  0  0  0  0  0  0  0
    1.6918   -0.7814   -0.5862 O   0  0  0  0  0  0  0  0  0  0  0  0
   -2.1585    0.3485   -0.0076 N   0  0  0  0  0  0  0  0  0  0  0  0
   -3.0713   -0.6582   -0.1878 C   0  0  0  0  0  0  0  0  0  0  0  0
   -2.5315   -1.8571   -0.5365 C   0  0  0  0  0  0  0  0  0  0  0  0
   -0.8211   -1.7446   -0.6462 S   0  0  0  0  0  0  0  0  0  0  0  0
   -4.4984   -0.3833    0.0098 C   0  0  0  0  0  0  0  0  0  0  0  0
   -7.2103    0.1595    0.4059 N   0  0  0  0  0  0  0  0  0  0  0  0
   -4.9181    0.8612    0.4412 C   0  0  0  0  0  0  0  0  0  0  0  0
    8.5316   -0.1212    1.1637 H   0  0  0  0  0  0  0  0  0  0  0  0
    8.1648   -1.1280    2.5749 H   0  0  0  0  0  0  0  0  0  0  0  0
    7.8739   -1.7577    0.9437 H   0  0  0  0  0  0  0  0  0  0  0  0
    7.4383   -0.3573   -0.8780 H   0  0  0  0  0  0  0  0  0  0  0  0
    3.8206    1.2845   -2.4513 H   0  0  0  0  0  0  0  0  0  0  0  0
    2.3205    1.8863    0.8908 H   0  0  0  0  0  0  0  0  0  0  0  0
    2.2010    2.2721   -0.8096 H   0  0  0  0  0  0  0  0  0  0  0  0
   -0.0741    1.7159    0.1471 H   0  0  0  0  0  0  0  0  0  0  0  0
   -5.2138   -2.3570   -0.5695 H   0  0  0  0  0  0  0  0  0  0  0  0
   -7.5652   -1.7708   -0.1890 H   0  0  0  0  0  0  0  0  0  0  0  0
    6.1114    0.4267   -2.7701 H   0  0  0  0  0  0  0  0  0  0  0  0
    4.1746    0.5659    1.7589 H   0  0  0  0  0  0  0  0  0  0  0  0
   -3.0325   -2.7925   -0.7286 H   0  0  0  0  0  0  0  0  0  0  0  0
   -4.2023    1.6487    0.6350 H   0  0  0  0  0  0  0  0  0  0  0  0
   -6.1265    3.0946    0.9913 H   0  0  0  0  0  0  0  0  0  0  0  0
   -7.7083    2.4949    0.9821 H   0  0  0  0  0  0  0  0  0  0  0  0
   -6.7288    2.2965    1.1047 N   0  0  0  0  0  0  0  0  0  0  0  0
 22  8  1  0
 22  9  2  0
  8  7  2  0
 40  9  1  0
  9 23  1  0
  7 21  1  0
 23 21  2  0
 21 18  1  0
 18 19  2  0
 18 17  1  0
 19 20  1  0
 17  6  2  0
 20  6  1  0
  6  5  1  0
  5 15  1  0
 15 16  2  0
 15  4  1  0
  4 13  1  0
  3 13  2  0
  3 12  1  0
 13 14  1  0
 12  2  2  0
 14 11  2  0
  2 11  1  0
 11 10  1  0
  1 10  1  0
  1 24  1  0
  1 25  1  0
  1 26  1  0
  2 27  1  0
  3 28  1  0
  4 29  1  0
  4 30  1  0
  5 31  1  0
  7 32  1  0
  8 33  1  0
 12 34  1  0
 14 35  1  0
 19 36  1  0
 23 37  1  0
 40 38  1  0
 40 39  1  0
M  END
