
     RDKit          3D

137145  0  0  0  0  0  0  0  0999 V2000
   -3.7530    3.4723    2.5476 Mg  0  0  2  0  0  0  0  0  0  0  0  0
   -1.3313    3.1858    4.9524 C   0  0  0  0  0  0  0  0  0  0  0  0
   -1.3836    3.2686    0.1603 C   0  0  0  0  0  0  0  0  0  0  0  0
   -6.2229    3.8481    0.1820 C   0  0  0  0  0  0  0  0  0  0  0  0
   -6.2117    3.3807    5.0623 C   0  0  0  0  0  0  0  0  0  0  0  0
   -1.6364    3.2812    2.5735 N   0  0  0  0  0  0  0  0  0  0  0  0
   -0.8559    3.1568    3.6109 C   0  0  0  0  0  0  0  0  0  0  0  0
    0.4908    2.9572    3.2096 C   0  0  2  0  0  0  0  0  0  0  0  0
    0.4513    3.1278    1.8085 C   0  0  1  0  0  0  0  0  0  0  0  0
   -0.9349    3.1991    1.5132 C   0  0  0  0  0  0  0  0  0  0  0  0
    1.1257    4.2454    1.4007 C   0  0  0  0  0  0  0  0  0  0  0  0
    0.9071    1.7292    3.5556 C   0  0  0  0  0  0  0  0  0  0  0  0
    2.3645    1.5307    3.2360 C   0  0  0  0  0  0  0  0  0  0  0  0
    2.7946    0.1531    3.6397 C   0  0  0  0  0  0  0  0  0  0  0  0
    2.6668   -0.4040    4.7322 O   0  0  0  0  0  0  0  0  0  0  0  0
    3.4846   -0.5014    2.6479 O   0  0  0  0  0  0  0  0  0  0  0  0
   -3.7745    3.5931    0.5528 N   0  0  0  0  0  0  0  0  0  0  0  0
   -2.7160    3.4199   -0.2484 C   0  0  0  0  0  0  0  0  0  0  0  0
   -3.1653    3.4156   -1.7020 C   0  0  0  0  0  0  0  0  0  0  0  0
   -4.5092    3.6668   -1.7011 C   0  0  0  0  0  0  0  0  0  0  0  0
   -4.9406    3.7603   -0.2660 C   0  0  0  0  0  0  0  0  0  0  0  0
   -2.2392    3.0962   -2.8571 C   0  0  0  0  0  0  0  0  0  0  0  0
   -5.4343    3.8178   -2.8156 C   0  0  0  0  0  0  0  0  0  0  0  0
   -6.7557    4.0808   -2.6916 C   0  0  0  0  0  0  0  0  0  0  0  0
   -5.8375    3.5373    2.6233 N   0  0  0  0  0  0  0  0  0  0  0  0
   -6.6521    3.6779    1.5251 C   0  0  0  0  0  0  0  0  0  0  0  0
   -8.0400    3.6278    1.9318 C   0  0  0  0  0  0  0  0  0  0  0  0
   -8.0421    3.4996    3.3332 C   0  0  0  0  0  0  0  0  0  0  0  0
   -6.6508    3.4827    3.7531 C   0  0  0  0  0  0  0  0  0  0  0  0
   -9.1763    3.5374    1.0064 C   0  0  0  0  0  0  0  0  0  0  0  0
   -9.2384    3.2874    4.2221 C   0  0  0  0  0  0  0  0  0  0  0  0
  -10.0400    4.5698    4.4460 C   0  0  0  0  0  0  0  0  0  0  0  0
   -3.8167    3.2852    4.5366 N   0  0  0  0  0  0  0  0  0  0  0  0
   -4.8781    3.3342    5.4581 C   0  0  0  0  0  0  0  0  0  0  0  0
   -4.3381    3.2969    6.7802 C   0  0  0  0  0  0  0  0  0  0  0  0
   -2.9475    3.3058    6.6309 C   0  0  0  0  0  0  0  0  0  0  0  0
   -2.6984    3.2788    5.2443 C   0  0  0  0  0  0  0  0  0  0  0  0
   -5.1373    3.3254    8.0067 C   0  0  0  0  0  0  0  0  0  0  0  0
   -1.6926    3.2454    7.2805 C   0  0  0  0  0  0  0  0  0  0  0  0
   -1.4363    3.2068    8.4884 O   0  0  0  0  0  0  0  0  0  0  0  0
   -0.6420    3.2464    6.2104 C   0  0  2  0  0  0  0  0  0  0  0  0
    0.1502    4.2994    6.2878 C   0  0  0  0  0  0  0  0  0  0  0  0
    0.9831    4.6793    5.4624 O   0  0  0  0  0  0  0  0  0  0  0  0
   -0.0538    5.0626    7.3919 O   0  0  0  0  0  0  0  0  0  0  0  0
    0.8018    6.1904    7.5870 C   0  0  0  0  0  0  0  0  0  0  0  0
    3.9035   -1.8589    2.9379 C   0  0  0  0  0  0  0  0  0  0  0  0
    4.7280   -2.3189    1.7667 C   0  0  0  0  0  0  0  0  0  0  0  0
    5.2967   -3.5476    1.7105 C   0  0  0  0  0  0  0  0  0  0  0  0
    5.1122   -4.5477    2.7877 C   0  0  0  0  0  0  0  0  0  0  0  0
    6.1144   -3.9686    0.5172 C   0  0  0  0  0  0  0  0  0  0  0  0
    5.5743   -5.2337   -0.1492 C   0  0  0  0  0  0  0  0  0  0  0  0
    6.2322   -5.4558   -1.5023 C   0  0  0  0  0  0  0  0  0  0  0  0
    5.9438   -6.7481   -2.0280 C   0  0  2  0  0  0  0  0  0  0  0  0
    6.8538   -7.7019   -1.5317 C   0  0  0  0  0  0  0  0  0  0  0  0
    5.9621   -6.7386   -3.4442 C   0  0  0  0  0  0  0  0  0  0  0  0
    4.6440   -6.2587   -4.0163 C   0  0  0  0  0  0  0  0  0  0  0  0
    4.7190   -6.0659   -5.5188 C   0  0  0  0  0  0  0  0  0  0  0  0
    3.4624   -5.6532   -6.0530 C   0  0  2  0  0  0  0  0  0  0  0  0
    2.5733   -6.7429   -6.1580 C   0  0  0  0  0  0  0  0  0  0  0  0
    3.6170   -5.0106   -7.3197 C   0  0  0  0  0  0  0  0  0  0  0  0
    2.6230   -3.8825   -7.4862 C   0  0  0  0  0  0  0  0  0  0  0  0
    2.6313   -3.3351   -8.8972 C   0  0  0  0  0  0  0  0  0  0  0  0
    1.8578   -2.0241   -8.9991 C   0  0  1  0  0  0  0  0  0  0  0  0
    2.7176   -0.8514   -8.5762 C   0  0  0  0  0  0  0  0  0  0  0  0
    1.3453   -1.8153  -10.4139 C   0  0  0  0  0  0  0  0  0  0  0  0
   -0.6280    3.2614   -0.6285 H   0  0  0  0  0  0  0  0  0  0  0  0
   -7.0222    3.9458   -0.5523 H   0  0  0  0  0  0  0  0  0  0  0  0
   -6.9751    3.4206    5.8519 H   0  0  0  0  0  0  0  0  0  0  0  0
    1.1462    3.7344    3.6916 H   0  0  0  0  0  0  0  0  0  0  0  0
    0.8774    2.2257    1.2909 H   0  0  0  0  0  0  0  0  0  0  0  0
    0.8462    5.1365    2.0312 H   0  0  0  0  0  0  0  0  0  0  0  0
    2.2293    4.0778    1.4926 H   0  0  0  0  0  0  0  0  0  0  0  0
    0.8826    4.4805    0.3203 H   0  0  0  0  0  0  0  0  0  0  0  0
    0.2922    0.9533    3.0200 H   0  0  0  0  0  0  0  0  0  0  0  0
    0.7518    1.5752    4.6510 H   0  0  0  0  0  0  0  0  0  0  0  0
    2.5559    1.6864    2.1379 H   0  0  0  0  0  0  0  0  0  0  0  0
    2.9954    2.2687    3.8099 H   0  0  0  0  0  0  0  0  0  0  0  0
   -1.7589    2.0903   -2.7073 H   0  0  0  0  0  0  0  0  0  0  0  0
   -2.8011    3.0773   -3.8330 H   0  0  0  0  0  0  0  0  0  0  0  0
   -1.4238    3.8638   -2.9303 H   0  0  0  0  0  0  0  0  0  0  0  0
   -4.9683    3.7019   -3.8247 H   0  0  0  0  0  0  0  0  0  0  0  0
   -7.4118    4.1995   -3.5716 H   0  0  0  0  0  0  0  0  0  0  0  0
   -7.2246    4.2923   -1.7395 H   0  0  0  0  0  0  0  0  0  0  0  0
  -10.1490    3.5220    1.5688 H   0  0  0  0  0  0  0  0  0  0  0  0
   -9.1081    2.5893    0.3852 H   0  0  0  0  0  0  0  0  0  0  0  0
   -9.1887    4.4239    0.2964 H   0  0  0  0  0  0  0  0  0  0  0  0
   -8.9148    2.8684    5.2211 H   0  0  0  0  0  0  0  0  0  0  0  0
   -9.9101    2.5108    3.7457 H   0  0  0  0  0  0  0  0  0  0  0  0
  -10.9553    4.3481    5.0472 H   0  0  0  0  0  0  0  0  0  0  0  0
   -9.4255    5.3315    4.9955 H   0  0  0  0  0  0  0  0  0  0  0  0
  -10.3557    5.0122    3.4632 H   0  0  0  0  0  0  0  0  0  0  0  0
   -4.4763    3.4240    8.9130 H   0  0  0  0  0  0  0  0  0  0  0  0
   -5.7316    2.3780    8.1048 H   0  0  0  0  0  0  0  0  0  0  0  0
   -5.8569    4.1890    7.9873 H   0  0  0  0  0  0  0  0  0  0  0  0
    0.0038    2.3359    6.3625 H   0  0  0  0  0  0  0  0  0  0  0  0
    0.7895    6.3498    8.6985 H   0  0  0  0  0  0  0  0  0  0  0  0
    0.3571    7.0707    7.0421 H   0  0  0  0  0  0  0  0  0  0  0  0
    1.8505    5.9828    7.2150 H   0  0  0  0  0  0  0  0  0  0  0  0
    4.4976   -1.8605    3.8990 H   0  0  0  0  0  0  0  0  0  0  0  0
    2.9834   -2.4927    3.0783 H   0  0  0  0  0  0  0  0  0  0  0  0
    4.8680   -1.5798    0.9647 H   0  0  0  0  0  0  0  0  0  0  0  0
    5.7807   -5.4356    2.6430 H   0  0  0  0  0  0  0  0  0  0  0  0
    4.0448   -4.9061    2.8050 H   0  0  0  0  0  0  0  0  0  0  0  0
    5.3390   -4.0973    3.7823 H   0  0  0  0  0  0  0  0  0  0  0  0
    7.1734   -4.1503    0.8539 H   0  0  0  0  0  0  0  0  0  0  0  0
    6.1462   -3.1405   -0.2375 H   0  0  0  0  0  0  0  0  0  0  0  0
    4.4596   -5.1485   -0.2836 H   0  0  0  0  0  0  0  0  0  0  0  0
    5.7605   -6.1202    0.5155 H   0  0  0  0  0  0  0  0  0  0  0  0
    5.8700   -4.6646   -2.2172 H   0  0  0  0  0  0  0  0  0  0  0  0
    7.3437   -5.3285   -1.4099 H   0  0  0  0  0  0  0  0  0  0  0  0
    4.9136   -7.0439   -1.6951 H   0  0  0  0  0  0  0  0  0  0  0  0
    6.8486   -7.6982   -0.4133 H   0  0  0  0  0  0  0  0  0  0  0  0
    6.5769   -8.7302   -1.8856 H   0  0  0  0  0  0  0  0  0  0  0  0
    7.8980   -7.4730   -1.8841 H   0  0  0  0  0  0  0  0  0  0  0  0
    6.1700   -7.7826   -3.8244 H   0  0  0  0  0  0  0  0  0  0  0  0
    6.7930   -6.0873   -3.8015 H   0  0  0  0  0  0  0  0  0  0  0  0
    3.8428   -6.9985   -3.7714 H   0  0  0  0  0  0  0  0  0  0  0  0
    4.3537   -5.2865   -3.5303 H   0  0  0  0  0  0  0  0  0  0  0  0
    5.5037   -5.2873   -5.7467 H   0  0  0  0  0  0  0  0  0  0  0  0
    5.0471   -7.0227   -6.0126 H   0  0  0  0  0  0  0  0  0  0  0  0
    3.0168   -4.9095   -5.3367 H   0  0  0  0  0  0  0  0  0  0  0  0
    2.9932   -7.5313   -6.8307 H   0  0  0  0  0  0  0  0  0  0  0  0
    2.3883   -7.2006   -5.1476 H   0  0  0  0  0  0  0  0  0  0  0  0
    1.5879   -6.4008   -6.5819 H   0  0  0  0  0  0  0  0  0  0  0  0
    4.6589   -4.5959   -7.4225 H   0  0  0  0  0  0  0  0  0  0  0  0
    3.4806   -5.7637   -8.1501 H   0  0  0  0  0  0  0  0  0  0  0  0
    1.5874   -4.2489   -7.2330 H   0  0  0  0  0  0  0  0  0  0  0  0
    2.8717   -3.0544   -6.7523 H   0  0  0  0  0  0  0  0  0  0  0  0
    3.6893   -3.1734   -9.2381 H   0  0  0  0  0  0  0  0  0  0  0  0
    2.1750   -4.0957   -9.5885 H   0  0  0  0  0  0  0  0  0  0  0  0
    0.9687   -2.0801   -8.3071 H   0  0  0  0  0  0  0  0  0  0  0  0
    2.1176    0.0908   -8.5795 H   0  0  0  0  0  0  0  0  0  0  0  0
    3.1215   -1.0121   -7.5465 H   0  0  0  0  0  0  0  0  0  0  0  0
    3.5794   -0.7238   -9.2775 H   0  0  0  0  0  0  0  0  0  0  0  0
    2.1907   -1.8189  -11.1418 H   0  0  0  0  0  0  0  0  0  0  0  0
    0.8142   -0.8345  -10.4926 H   0  0  0  0  0  0  0  0  0  0  0  0
    0.6310   -2.6294  -10.6960 H   0  0  0  0  0  0  0  0  0  0  0  0
 16 46  1  0
  6 10  1  0
 65137  1  0
 61128  1  0
 32 89  1  0
 61127  1  0
 36 39  1  0
 57119  1  0
 32 91  1  0
 27 30  1  0
 56118  1  0
 38 94  1  0
 36 37  2  0
 54113  1  0
 46100  1  0
 48 49  1  0
 64132  1  0
 58 59  1  0
  8 69  1  1
 22 78  1  0
  2  7  2  0
 22 80  1  0
 30 86  1  0
  2 41  1  0
 11 71  1  0
 17 21  1  0
 22 79  1  0
 45 98  1  0
  3 66  1  0
 39 41  1  0
  1 17  1  6
 42 44  1  0
 41 42  1  0
 31 87  1  0
 59123  1  0
 52 53  1  0
 64134  1  0
  5 68  1  0
 63 64  1  0
 62 63  1  0
  9 10  1  0
 54114  1  0
 13 77  1  0
 42 43  2  0
 58121  1  1
 45 97  1  0
 38 93  1  0
  9 70  1  6
 27 28  2  0
 44 45  1  0
 25 29  1  0
 12 75  1  0
 20 21  2  0
 38 92  1  0
 56117  1  0
  2 37  1  0
 52109  1  0
 50 51  1  0
 65136  1  0
 62129  1  0
 12 74  1  0
  9 11  1  0
 49104  1  0
 62130  1  0
 11 72  1  0
 50105  1  0
 60 61  1  0
 26 27  1  0
 53111  1  6
 57 58  1  0
 51107  1  0
 28 29  1  0
 55116  1  0
 54112  1  0
 12 13  1  0
 31 32  1  0
 19 22  1  0
 14 15  2  0
 61 62  1  0
  3 10  2  0
  5 29  2  0
 60126  1  0
 63 65  1  0
  1 25  1  0
  8 12  1  0
 18 19  2  0
 20 23  1  0
 56 57  1  0
 50106  1  0
 32 90  1  0
 45 96  1  0
  8  9  1  0
 59122  1  0
 60125  1  0
  4 26  2  0
 23 81  1  0
  5 34  1  0
 49102  1  0
  7  8  1  0
 31 88  1  0
 13 76  1  0
 41 95  1  1
 19 20  1  0
 13 14  1  0
 64133  1  0
 51 52  1  0
  1 33  1  0
 53 54  1  0
  4 67  1  0
 23 24  2  0
 51108  1  0
  1  6  1  0
 11 73  1  0
 24 83  1  0
 30 85  1  0
 33 34  1  0
 52110  1  0
 65135  1  0
 47 48  2  0
 17 18  1  0
 28 31  1  0
 48 50  1  0
 49103  1  0
 24 82  1  0
 55 56  1  0
 14 16  1  0
 35 38  1  0
 47101  1  0
 33 37  1  0
 30 84  1  0
 46 47  1  0
 55115  1  0
  4 21  1  0
 35 36  1  0
 46 99  1  0
  6  7  1  0
 58 60  1  0
 34 35  2  0
  3 18  1  0
 53 55  1  0
 39 40  2  0
 57120  1  0
 59124  1  0
 63131  1  1
 25 26  1  0
M  CHG  1   1  -2
M  END
