
     RDKit          3D

 80 84  0  0  0  0  0  0  0  0999 V2000
   -9.9382    3.0628    1.1690 C   0  0  0  0  0  0  0  0  0  0  0  0
   -8.9859    2.0767    0.8248 O   0  0  0  0  0  0  0  0  0  0  0  0
   -9.4130    0.9293    0.2595 C   0  0  0  0  0  0  0  0  0  0  0  0
   -8.4125   -0.0155   -0.0172 C   0  0  0  0  0  0  0  0  0  0  0  0
   -6.9878    0.3155    0.3332 C   0  0  0  0  0  0  0  0  0  0  0  0
   -6.1510   -0.7587    0.0060 O   0  0  0  0  0  0  0  0  0  0  0  0
  -10.7425    0.6587   -0.0452 C   0  0  0  0  0  0  0  0  0  0  0  0
  -11.0820   -0.5566   -0.6314 C   0  0  0  0  0  0  0  0  0  0  0  0
  -10.1061   -1.4954   -0.9119 C   0  0  0  0  0  0  0  0  0  0  0  0
   -8.7773   -1.2179   -0.6027 C   0  0  0  0  0  0  0  0  0  0  0  0
    3.7629    0.5093   -1.2839 C   0  0  0  0  0  0  0  0  0  0  0  0
    3.7836    1.5897   -0.4134 C   0  0  0  0  0  0  0  0  0  0  0  0
    3.3603    2.8193   -0.9047 C   0  0  0  0  0  0  0  0  0  0  0  0
    2.9182    2.9964   -2.2337 C   0  0  0  0  0  0  0  0  0  0  0  0
    2.9034    1.8898   -3.0812 C   0  0  0  0  0  0  0  0  0  0  0  0
    3.3226    0.6580   -2.6118 C   0  0  0  0  0  0  0  0  0  0  0  0
    3.2681    4.0280   -0.2725 N   0  0  0  0  0  0  0  0  0  0  0  0
    2.8111    4.9644   -1.1709 C   0  0  0  0  0  0  0  0  0  0  0  0
    2.5752    4.3800   -2.3755 C   0  0  0  0  0  0  0  0  0  0  0  0
    3.7091    4.3031    1.0582 C   0  0  0  0  0  0  0  0  0  0  0  0
    5.2131    4.4911    1.1303 C   0  0  0  0  0  0  0  0  0  0  0  0
    5.5982    4.6749    2.3802 O   0  0  0  0  0  0  0  0  0  0  0  0
    5.9470    4.4801    0.1790 O   0  0  0  0  0  0  0  0  0  0  0  0
    6.9929    4.8859    2.6177 C   0  0  0  0  0  0  0  0  0  0  0  0
    4.4935   -3.0254   -0.6946 C   0  0  1  0  0  0  0  0  0  0  0  0
    5.9764   -2.9768   -0.3663 C   0  0  0  0  0  0  0  0  0  0  0  0
    6.2685   -4.0304    0.5780 N   0  0  0  0  0  0  0  0  0  0  0  0
    5.6753   -3.7043    1.8532 C   0  0  0  0  0  0  0  0  0  0  0  0
    4.1867   -3.4628    1.7463 C   0  0  0  0  0  0  0  0  0  0  0  0
    3.6933   -3.1257    0.5304 N   0  0  0  0  0  0  0  0  0  0  0  0
    4.0662   -1.8392   -1.5408 C   0  0  0  0  0  0  0  0  0  0  0  0
    4.1982   -0.6656   -0.7733 O   0  0  0  0  0  0  0  0  0  0  0  0
    1.5319   -4.0283   -0.1449 C   0  0  0  0  0  0  0  0  0  0  0  0
    2.2825   -2.9916    0.3990 C   0  0  0  0  0  0  0  0  0  0  0  0
    1.6417   -1.8262    0.7854 C   0  0  0  0  0  0  0  0  0  0  0  0
    0.2683   -1.6853    0.6374 C   0  0  0  0  0  0  0  0  0  0  0  0
   -0.4799   -2.7238    0.0867 C   0  0  0  0  0  0  0  0  0  0  0  0
    0.1650   -3.8981   -0.3062 C   0  0  0  0  0  0  0  0  0  0  0  0
   -1.8120   -2.6834   -0.1016 O   0  0  0  0  0  0  0  0  0  0  0  0
   -2.5194   -1.5091    0.2592 C   0  0  0  0  0  0  0  0  0  0  0  0
   -3.9842   -1.7333   -0.0544 C   0  0  0  0  0  0  0  0  0  0  0  0
   -4.8018   -0.5099    0.3134 C   0  0  0  0  0  0  0  0  0  0  0  0
  -10.4708    3.4389    0.2918 H   0  0  0  0  0  0  0  0  0  0  0  0
  -10.6688    2.6886    1.8906 H   0  0  0  0  0  0  0  0  0  0  0  0
   -9.3854    3.8819    1.6221 H   0  0  0  0  0  0  0  0  0  0  0  0
   -6.9121    0.5511    1.4055 H   0  0  0  0  0  0  0  0  0  0  0  0
   -6.6732    1.2261   -0.1990 H   0  0  0  0  0  0  0  0  0  0  0  0
  -11.5222    1.3785    0.1647 H   0  0  0  0  0  0  0  0  0  0  0  0
  -12.1195   -0.7588   -0.8642 H   0  0  0  0  0  0  0  0  0  0  0  0
  -10.3694   -2.4401   -1.3686 H   0  0  0  0  0  0  0  0  0  0  0  0
   -8.0181   -1.9555   -0.8228 H   0  0  0  0  0  0  0  0  0  0  0  0
    4.1219    1.4555    0.6070 H   0  0  0  0  0  0  0  0  0  0  0  0
    2.5697    1.9841   -4.1071 H   0  0  0  0  0  0  0  0  0  0  0  0
    3.3114   -0.1851   -3.2881 H   0  0  0  0  0  0  0  0  0  0  0  0
    2.6811    5.9900   -0.8626 H   0  0  0  0  0  0  0  0  0  0  0  0
    2.1976    4.8710   -3.2581 H   0  0  0  0  0  0  0  0  0  0  0  0
    3.4061    3.5020    1.7369 H   0  0  0  0  0  0  0  0  0  0  0  0
    3.2196    5.2087    1.4220 H   0  0  0  0  0  0  0  0  0  0  0  0
    7.0949    5.0253    3.6895 H   0  0  0  0  0  0  0  0  0  0  0  0
    7.5808    4.0237    2.3056 H   0  0  0  0  0  0  0  0  0  0  0  0
    7.3513    5.7745    2.0994 H   0  0  0  0  0  0  0  0  0  0  0  0
    4.3134   -3.9150   -1.3098 H   0  0  0  0  0  0  0  0  0  0  0  0
    6.5322   -3.1438   -1.2893 H   0  0  0  0  0  0  0  0  0  0  0  0
    6.2519   -1.9811    0.0114 H   0  0  0  0  0  0  0  0  0  0  0  0
    7.2682   -4.1347    0.6877 H   0  0  0  0  0  0  0  0  0  0  0  0
    5.8209   -4.5230    2.5587 H   0  0  0  0  0  0  0  0  0  0  0  0
    6.1062   -2.8016    2.3172 H   0  0  0  0  0  0  0  0  0  0  0  0
    3.0351   -1.9670   -1.8863 H   0  0  0  0  0  0  0  0  0  0  0  0
    4.7069   -1.8125   -2.4306 H   0  0  0  0  0  0  0  0  0  0  0  0
    2.0185   -4.9470   -0.4488 H   0  0  0  0  0  0  0  0  0  0  0  0
    2.2118   -1.0090    1.2060 H   0  0  0  0  0  0  0  0  0  0  0  0
   -0.1944   -0.7619    0.9573 H   0  0  0  0  0  0  0  0  0  0  0  0
   -0.4124   -4.7089   -0.7325 H   0  0  0  0  0  0  0  0  0  0  0  0
   -2.3873   -1.2958    1.3259 H   0  0  0  0  0  0  0  0  0  0  0  0
   -2.1369   -0.6467   -0.2992 H   0  0  0  0  0  0  0  0  0  0  0  0
   -4.1035   -1.9473   -1.1195 H   0  0  0  0  0  0  0  0  0  0  0  0
   -4.3509   -2.5993    0.5028 H   0  0  0  0  0  0  0  0  0  0  0  0
   -4.6862   -0.2838    1.3834 H   0  0  0  0  0  0  0  0  0  0  0  0
   -4.4365    0.3699   -0.2358 H   0  0  0  0  0  0  0  0  0  0  0  0
    3.4741   -3.5492    2.7350 O   0  0  0  0  0  0  0  0  0  0  0  0
  1  2  1  0
  1 43  1  0
  1 44  1  0
  1 45  1  0
  2  3  1  0
  3  4  2  0
  3  7  1  0
  4  5  1  0
  4 10  1  0
  5  6  1  0
  5 46  1  0
  5 47  1  0
  6 42  1  0
  7  8  2  0
  7 48  1  0
  8  9  1  0
  8 49  1  0
  9 10  2  0
  9 50  1  0
 10 51  1  0
 11 12  2  0
 11 16  1  0
 11 32  1  0
 12 13  1  0
 12 52  1  0
 13 14  2  0
 13 17  1  0
 14 15  1  0
 14 19  1  0
 15 16  2  0
 15 53  1  0
 16 54  1  0
 17 18  1  0
 17 20  1  0
 18 19  2  0
 18 55  1  0
 19 56  1  0
 20 21  1  0
 20 57  1  0
 20 58  1  0
 21 22  1  0
 21 23  2  0
 22 24  1  0
 24 59  1  0
 24 60  1  0
 24 61  1  0
 25 26  1  0
 25 30  1  0
 25 31  1  0
 25 62  1  6
 26 27  1  0
 26 63  1  0
 26 64  1  0
 27 28  1  0
 27 65  1  0
 28 29  1  0
 28 66  1  0
 28 67  1  0
 29 30  1  0
 29 80  2  0
 30 34  1  0
 31 32  1  0
 31 68  1  0
 31 69  1  0
 33 34  2  0
 33 38  1  0
 33 70  1  0
 34 35  1  0
 35 36  2  0
 35 71  1  0
 36 37  1  0
 36 72  1  0
 37 38  2  0
 37 39  1  0
 38 73  1  0
 39 40  1  0
 40 41  1  0
 40 74  1  0
 40 75  1  0
 41 42  1  0
 41 76  1  0
 41 77  1  0
 42 78  1  0
 42 79  1  0
M  END
