
     RDKit          3D

 22 22  0  0  0  0  0  0  0  0999 V2000
    3.4046   -0.7246    1.5765 O   0  0  0  0  0  0  0  0  0  0  0  0
    4.0411   -0.5683    0.5691 C   0  0  0  0  0  0  0  0  0  0  0  0
    5.3386   -0.3879    0.4911 O   0  0  0  0  0  0  0  0  0  0  0  0
    3.3863   -0.5895   -0.8178 C   0  0  0  0  0  0  0  0  0  0  0  0
    4.0593   -0.6827   -1.8057 O   0  0  0  0  0  0  0  0  0  0  0  0
    1.8848   -0.5252   -0.8106 C   0  0  0  0  0  0  0  0  0  0  0  0
    1.4411    0.8242   -0.2947 C   0  0  0  0  0  0  0  0  0  0  0  0
    2.2650    1.6884   -0.0865 O   0  0  0  0  0  0  0  0  0  0  0  0
   -0.0075    1.0673   -0.0802 C   0  0  0  0  0  0  0  0  0  0  0  0
   -0.4173    2.2958    0.4373 C   0  0  0  0  0  0  0  0  0  0  0  0
   -1.7622    2.5466    0.6410 C   0  0  0  0  0  0  0  0  0  0  0  0
   -2.7147    1.5847    0.3295 C   0  0  0  0  0  0  0  0  0  0  0  0
   -2.2989    0.3666   -0.1874 C   0  0  0  0  0  0  0  0  0  0  0  0
   -3.5832   -0.9454   -0.6189 Br  0  0  0  0  0  0  0  0  0  0  0  0
   -0.9560    0.0958   -0.3940 C   0  0  0  0  0  0  0  0  0  0  0  0
    5.7366   -0.3887    1.3758 H   0  0  0  0  0  0  0  0  0  0  0  0
    1.5072   -0.6719   -1.8256 H   0  0  0  0  0  0  0  0  0  0  0  0
    1.4758   -1.3299   -0.1940 H   0  0  0  0  0  0  0  0  0  0  0  0
    0.3155    3.0525    0.6811 H   0  0  0  0  0  0  0  0  0  0  0  0
   -2.0823    3.4972    1.0447 H   0  0  0  0  0  0  0  0  0  0  0  0
   -3.7639    1.7928    0.4900 H   0  0  0  0  0  0  0  0  0  0  0  0
   -0.6549   -0.8601   -0.8007 H   0  0  0  0  0  0  0  0  0  0  0  0
  1  2  2  0
  4  2  1  0
  2  3  1  0
  3 16  1  0
  5  4  2  0
  4  6  1  0
  7  6  1  0
  6 17  1  0
  6 18  1  0
  8  7  2  0
  7  9  1  0
 15  9  2  0
  9 10  1  0
 10 11  2  0
 10 19  1  0
 12 11  1  0
 11 20  1  0
 13 12  2  0
 12 21  1  0
 14 13  1  0
 15 13  1  0
 15 22  1  0
M  END
