
     RDKit          3D

 34 35  0  0  0  0  0  0  0  0999 V2000
   -0.4147    1.1640   -1.6113 O   0  0  0  0  0  0  0  0  0  0  0  0
   -0.1636    0.9942   -0.4357 C   0  0  0  0  0  0  0  0  0  0  0  0
    1.1911    1.3239    0.1766 C   0  0  2  0  0  0  0  0  0  0  0  0
    1.8648    2.4948   -0.5411 C   0  0  0  0  0  0  0  0  0  0  0  0
    3.1884    2.8803    0.1030 C   0  0  0  0  0  0  0  0  0  0  0  0
    2.4191   -0.5371    1.3594 C   0  0  0  0  0  0  0  0  0  0  0  0
    2.0259    0.0598    0.1659 C   0  0  0  0  0  0  0  0  0  0  0  0
    3.1688   -1.6918   -1.0430 C   0  0  0  0  0  0  0  0  0  0  0  0
    3.5588   -2.2799    0.1544 C   0  0  0  0  0  0  0  0  0  0  0  0
   -1.0431    0.4526    0.4558 N   0  0  0  0  0  0  0  0  0  0  0  0
   -2.3195   -0.0417    0.2353 C   0  0  0  0  0  0  0  0  0  0  0  0
   -3.0499   -0.4586    1.3511 C   0  0  0  0  0  0  0  0  0  0  0  0
    3.1815   -1.6987    1.3563 C   0  0  0  0  0  0  0  0  0  0  0  0
   -4.3208   -0.9679    1.1735 C   0  0  0  0  0  0  0  0  0  0  0  0
   -4.9110   -1.0923   -0.0118 N   0  0  0  0  0  0  0  0  0  0  0  0
   -4.2098   -0.6946   -1.0659 C   0  0  0  0  0  0  0  0  0  0  0  0
    2.4084   -0.5319   -1.0372 C   0  0  0  0  0  0  0  0  0  0  0  0
   -2.9289   -0.1670   -1.0136 C   0  0  0  0  0  0  0  0  0  0  0  0
    1.0387    1.6150    1.2216 H   0  0  0  0  0  0  0  0  0  0  0  0
    1.1874    3.3519   -0.5225 H   0  0  0  0  0  0  0  0  0  0  0  0
    2.0220    2.2495   -1.5930 H   0  0  0  0  0  0  0  0  0  0  0  0
    3.6196    3.7463   -0.3991 H   0  0  0  0  0  0  0  0  0  0  0  0
    3.0596    3.1376    1.1560 H   0  0  0  0  0  0  0  0  0  0  0  0
    3.9154    2.0696    0.0467 H   0  0  0  0  0  0  0  0  0  0  0  0
    2.1335   -0.0879    2.3034 H   0  0  0  0  0  0  0  0  0  0  0  0
    3.4545   -2.1398   -1.9860 H   0  0  0  0  0  0  0  0  0  0  0  0
    4.1533   -3.1842    0.1485 H   0  0  0  0  0  0  0  0  0  0  0  0
   -0.7353    0.4144    1.4164 H   0  0  0  0  0  0  0  0  0  0  0  0
   -2.6336   -0.3833    2.3479 H   0  0  0  0  0  0  0  0  0  0  0  0
    3.4777   -2.1479    2.2953 H   0  0  0  0  0  0  0  0  0  0  0  0
   -4.8904   -1.2899    2.0382 H   0  0  0  0  0  0  0  0  0  0  0  0
   -4.6902   -0.7997   -2.0327 H   0  0  0  0  0  0  0  0  0  0  0  0
    2.1112   -0.0884   -1.9794 H   0  0  0  0  0  0  0  0  0  0  0  0
   -2.4404    0.1257   -1.9269 H   0  0  0  0  0  0  0  0  0  0  0  0
  1  2  2  0
  2  3  1  0
  2 10  1  0
  3  4  1  0
  3  7  1  0
  3 19  1  1
  4  5  1  0
  4 20  1  0
  4 21  1  0
  5 22  1  0
  5 23  1  0
  5 24  1  0
  6  7  2  0
  6 13  1  0
  6 25  1  0
  7 17  1  0
  8  9  1  0
  8 17  2  0
  8 26  1  0
  9 13  2  0
  9 27  1  0
 10 11  1  0
 10 28  1  0
 11 12  2  0
 11 18  1  0
 12 14  1  0
 12 29  1  0
 13 30  1  0
 14 15  2  0
 14 31  1  0
 15 16  1  0
 16 18  2  0
 16 32  1  0
 17 33  1  0
 18 34  1  0
M  END
