
     RDKit          3D

 15 14  0  0  0  0  0  0  0  0999 V2000
    1.6946    0.2201    0.9227 N   0  0  0  0  0  0  0  0  0  0  0  0
    0.2750    0.4477    1.0466 C   0  0  1  0  0  0  0  0  0  0  0  0
   -0.6163   -0.1170   -0.0682 C   0  0  0  0  0  0  0  0  0  0  0  0
   -0.1893    0.6825   -1.6025 S   0  0  0  0  0  0  0  0  0  0  0  0
   -0.1412   -0.6144   -2.6943 N   0  0  0  0  0  0  0  0  0  0  0  0
    0.0871   -0.4433   -3.8053 O   0  0  0  0  0  0  0  0  0  0  0  0
   -0.2369   -0.1592    2.3462 C   0  0  0  0  0  0  0  0  0  0  0  0
   -0.0669   -1.2983    2.7836 O   0  0  0  0  0  0  0  0  0  0  0  0
   -0.9746    0.7043    3.0927 O   0  0  0  0  0  0  0  0  0  0  0  0
    2.0331    0.5974    0.0596 H   0  0  0  0  0  0  0  0  0  0  0  0
    1.9188   -0.7531    0.9901 H   0  0  0  0  0  0  0  0  0  0  0  0
    0.1179    1.5697    1.0951 H   0  0  0  0  0  0  0  0  0  0  0  0
   -0.5152   -1.2275   -0.1339 H   0  0  0  0  0  0  0  0  0  0  0  0
   -1.6848    0.1266    0.1529 H   0  0  0  0  0  0  0  0  0  0  0  0
   -1.2722    0.2626    3.9058 H   0  0  0  0  0  0  0  0  0  0  0  0
  1  2  1  0
  1 10  1  0
  1 11  1  0
  2  3  1  0
  2  7  1  0
  2 12  1  1
  3  4  1  0
  3 13  1  0
  3 14  1  0
  4  5  1  0
  5  6  2  0
  7  8  2  0
  7  9  1  0
  9 15  1  0
M  END
