
     RDKit          3D

 93 99  0  0  0  0  0  0  0  0999 V2000
   12.2464   -1.4027   -2.9942 C   0  0  0  0  0  0  0  0  0  0  0  0
   12.6257   -1.7040    2.0635 C   0  0  0  0  0  0  0  0  0  0  0  0
    9.4795   -2.1034   -0.4596 O   0  0  0  0  0  0  0  0  0  0  0  0
   14.0803   -0.2024    0.8211 O   0  0  0  0  0  0  0  0  0  0  0  0
  -11.5933   -0.8571   -1.0033 C   0  0  0  0  0  0  0  0  0  0  0  0
   -2.6123    1.2686   -0.9553 C   0  0  0  0  0  0  0  0  0  0  0  0
   -2.5562    1.4545    1.4317 C   0  0  0  0  0  0  0  0  0  0  0  0
   -1.2481    1.0691   -0.9745 C   0  0  0  0  0  0  0  0  0  0  0  0
   -1.1743    1.2721    1.4018 C   0  0  0  0  0  0  0  0  0  0  0  0
    5.9191    1.5276   -0.6329 C   0  0  0  0  0  0  0  0  0  0  0  0
    5.7616   -0.3121    0.8919 C   0  0  0  0  0  0  0  0  0  0  0  0
    7.2868    1.3492   -0.7054 C   0  0  0  0  0  0  0  0  0  0  0  0
    7.1372   -0.4697    0.8428 C   0  0  0  0  0  0  0  0  0  0  0  0
  -10.7043   -0.4983   -0.0108 C   0  0  0  0  0  0  0  0  0  0  0  0
   -7.3625   -3.5810   -0.5154 C   0  0  0  0  0  0  0  0  0  0  0  0
   -9.8705   -0.3749   -2.6238 C   0  0  0  0  0  0  0  0  0  0  0  0
   -6.2444   -2.0266    0.3017 C   0  0  0  0  0  0  0  0  0  0  0  0
   10.2540    1.1657    0.1024 C   0  0  0  0  0  0  0  0  0  0  0  0
   13.1399   -1.2100   -1.7782 C   0  0  0  0  0  0  0  0  0  0  0  0
   -7.6993    2.0788    2.2545 C   0  0  0  0  0  0  0  0  0  0  0  0
    1.5926    0.6264    1.3853 C   0  0  0  0  0  0  0  0  0  0  0  0
    1.6494    1.7410   -0.7141 C   0  0  0  0  0  0  0  0  0  0  0  0
    2.9757    0.0554    1.1317 C   0  0  0  0  0  0  0  0  0  0  0  0
    3.0269    1.1804   -0.9961 C   0  0  0  0  0  0  0  0  0  0  0  0
   -8.9769    1.3707    1.8236 C   0  0  0  0  0  0  0  0  0  0  0  0
   -5.3558    1.7984    1.3682 C   0  0  0  0  0  0  0  0  0  0  0  0
   -8.0759   -0.9878    1.6587 C   0  0  0  0  0  0  0  0  0  0  0  0
   -6.1272   -3.0355   -0.5314 N   0  0  0  0  0  0  0  0  0  0  0  0
   -8.2145   -2.9725    0.2729 N   0  0  0  0  0  0  0  0  0  0  0  0
   11.4422    0.6993   -0.0477 N   0  0  0  0  0  0  0  0  0  0  0  0
   -7.2770    0.8130    0.3092 O   0  0  0  0  0  0  0  0  0  0  0  0
  -11.1481   -0.7877   -2.3085 C   0  0  0  0  0  0  0  0  0  0  0  0
   -9.0144   -0.0222   -1.5899 C   0  0  0  0  0  0  0  0  0  0  0  0
   -3.2863    1.4615    0.2526 C   0  0  0  0  0  0  0  0  0  0  0  0
   -0.4912    1.0705    0.2062 C   0  0  0  0  0  0  0  0  0  0  0  0
    5.1144    0.6973    0.1648 C   0  0  0  0  0  0  0  0  0  0  0  0
    7.9083    0.3547    0.0399 C   0  0  0  0  0  0  0  0  0  0  0  0
   -9.4078   -0.0699   -0.2562 C   0  0  0  0  0  0  0  0  0  0  0  0
    9.9692   -1.0033   -0.2806 C   0  0  0  0  0  0  0  0  0  0  0  0
   13.3607   -1.4154    0.7615 C   0  0  2  0  0  0  0  0  0  0  0  0
   -6.8158    1.9585    1.0177 C   0  0  1  0  0  0  0  0  0  0  0  0
   12.4271   -1.4932   -0.4587 C   0  0  1  0  0  0  0  0  0  0  0  0
    0.8923    0.8403    0.1393 N   0  0  0  0  0  0  0  0  0  0  0  0
    3.7424    0.9033    0.2418 N   0  0  0  0  0  0  0  0  0  0  0  0
   -7.4848   -1.9816    0.7971 N   0  0  0  0  0  0  0  0  0  0  0  0
    9.3095    0.1917   -0.0244 N   0  0  0  0  0  0  0  0  0  0  0  0
   11.2761   -0.6307   -0.2821 N   0  0  0  0  0  0  0  0  0  0  0  0
   -8.4583    0.2818    0.8722 C   0  0  2  0  0  0  0  0  0  0  0  0
   12.8171   -1.2796   -3.9148 H   0  0  0  0  0  0  0  0  0  0  0  0
   11.8053   -2.4007   -3.0093 H   0  0  0  0  0  0  0  0  0  0  0  0
   11.4304   -0.6793   -3.0197 H   0  0  0  0  0  0  0  0  0  0  0  0
   11.8794   -0.9403    2.2903 H   0  0  0  0  0  0  0  0  0  0  0  0
   12.1150   -2.6671    2.0194 H   0  0  0  0  0  0  0  0  0  0  0  0
   13.3292   -1.7388    2.8955 H   0  0  0  0  0  0  0  0  0  0  0  0
   13.4429    0.5232    0.8015 H   0  0  0  0  0  0  0  0  0  0  0  0
   -3.1717    1.2605   -1.8828 H   0  0  0  0  0  0  0  0  0  0  0  0
   -3.0303    1.6040    2.3926 H   0  0  0  0  0  0  0  0  0  0  0  0
   -0.7635    0.8911   -1.9265 H   0  0  0  0  0  0  0  0  0  0  0  0
   -0.6445    1.2976    2.3444 H   0  0  0  0  0  0  0  0  0  0  0  0
    5.4827    2.3360   -1.2027 H   0  0  0  0  0  0  0  0  0  0  0  0
    5.2012   -0.9995    1.5085 H   0  0  0  0  0  0  0  0  0  0  0  0
    7.8722    1.9985   -1.3446 H   0  0  0  0  0  0  0  0  0  0  0  0
    7.5980   -1.2499    1.4335 H   0  0  0  0  0  0  0  0  0  0  0  0
   -7.6377   -4.4504   -1.0930 H   0  0  0  0  0  0  0  0  0  0  0  0
   -9.5436   -0.3269   -3.6537 H   0  0  0  0  0  0  0  0  0  0  0  0
   -5.4697   -1.3284    0.5756 H   0  0  0  0  0  0  0  0  0  0  0  0
   10.0188    2.1957    0.3170 H   0  0  0  0  0  0  0  0  0  0  0  0
   13.9933   -1.8901   -1.8389 H   0  0  0  0  0  0  0  0  0  0  0  0
   13.5514   -0.1988   -1.7706 H   0  0  0  0  0  0  0  0  0  0  0  0
   -7.8706    3.1166    2.5348 H   0  0  0  0  0  0  0  0  0  0  0  0
   -7.2462    1.5779    3.1144 H   0  0  0  0  0  0  0  0  0  0  0  0
    1.0471   -0.0948    1.9961 H   0  0  0  0  0  0  0  0  0  0  0  0
    1.6825    1.5535    1.9732 H   0  0  0  0  0  0  0  0  0  0  0  0
    1.7473    2.7337   -0.2486 H   0  0  0  0  0  0  0  0  0  0  0  0
    1.1397    1.8788   -1.6662 H   0  0  0  0  0  0  0  0  0  0  0  0
    3.4786   -0.0123    2.0965 H   0  0  0  0  0  0  0  0  0  0  0  0
    2.8789   -0.9665    0.7361 H   0  0  0  0  0  0  0  0  0  0  0  0
    2.9364    0.2676   -1.6020 H   0  0  0  0  0  0  0  0  0  0  0  0
    3.5645    1.9141   -1.5926 H   0  0  0  0  0  0  0  0  0  0  0  0
   -9.5381    0.9705    2.6662 H   0  0  0  0  0  0  0  0  0  0  0  0
   -9.6302    2.0564    1.2809 H   0  0  0  0  0  0  0  0  0  0  0  0
   -5.2196    0.9323    2.0295 H   0  0  0  0  0  0  0  0  0  0  0  0
   -5.0260    2.6882    1.9185 H   0  0  0  0  0  0  0  0  0  0  0  0
   -8.9404   -1.4385    2.1401 H   0  0  0  0  0  0  0  0  0  0  0  0
   -7.3592   -0.7382    2.4425 H   0  0  0  0  0  0  0  0  0  0  0  0
   -8.0138    0.3000   -1.8367 H   0  0  0  0  0  0  0  0  0  0  0  0
   14.1109   -2.1972    0.6107 H   0  0  0  0  0  0  0  0  0  0  0  0
   -6.9364    2.8363    0.3718 H   0  0  0  0  0  0  0  0  0  0  0  0
   12.0238   -2.5083   -0.4903 H   0  0  0  0  0  0  0  0  0  0  0  0
   -4.6251    1.6399    0.1727 O   0  0  0  0  0  0  0  0  0  0  0  0
  -12.5974   -1.1795   -0.7609 H   0  0  0  0  0  0  0  0  0  0  0  0
  -11.9917   -1.1325   -3.2901 F   0  0  0  0  0  0  0  0  0  0  0  0
  -11.1386   -0.5712    1.2583 F   0  0  0  0  0  0  0  0  0  0  0  0
  1 19  1  0
  1 49  1  0
  1 50  1  0
  1 51  1  0
 40  2  1  0
  2 52  1  0
  2 53  1  0
  2 54  1  0
  3 39  2  0
  4 40  1  0
  4 55  1  0
 92 32  1  0
 14 93  1  0
 32  5  2  0
  5 14  1  0
  5 91  1  0
  6 34  2  0
  6  8  1  0
  6 56  1  0
 34  7  1  0
  7  9  2  0
  7 57  1  0
  8 35  2  0
  8 58  1  0
 35  9  1  0
  9 59  1  0
 36 10  2  0
 10 12  1  0
 10 60  1  0
 36 11  1  0
 11 13  2  0
 11 61  1  0
 12 37  2  0
 12 62  1  0
 13 37  1  0
 13 63  1  0
 38 14  2  0
 28 15  1  0
 15 29  2  0
 15 64  1  0
 16 33  2  0
 16 32  1  0
 16 65  1  0
 28 17  2  0
 17 45  1  0
 17 66  1  0
 46 18  1  0
 18 30  2  0
 18 67  1  0
 19 42  1  0
 19 68  1  0
 19 69  1  0
 25 20  1  0
 20 41  1  0
 20 70  1  0
 20 71  1  0
 43 21  1  0
 21 23  1  0
 21 72  1  0
 21 73  1  0
 43 22  1  0
 22 24  1  0
 22 74  1  0
 22 75  1  0
 23 44  1  0
 23 76  1  0
 23 77  1  0
 24 44  1  0
 24 78  1  0
 24 79  1  0
 25 48  1  0
 25 80  1  0
 25 81  1  0
 41 26  1  0
 26 90  1  0
 26 82  1  0
 26 83  1  0
 48 27  1  1
 45 27  1  0
 27 84  1  0
 27 85  1  0
 45 29  1  0
 30 47  1  0
 90 34  1  0
 48 31  1  0
 41 31  1  0
 33 38  1  0
 33 86  1  0
 35 43  1  0
 44 36  1  0
 37 46  1  0
 38 48  1  0
 46 39  1  0
 39 47  1  0
 42 40  1  0
 40 87  1  6
 41 88  1  6
 47 42  1  0
 42 89  1  6
M  END
