
     RDKit          3D

 52 53  0  0  0  0  0  0  0  0999 V2000
   -4.4238    2.5839    1.3159 N   0  0  0  0  0  0  0  0  0  0  0  0
   -0.0999    0.3750   -0.7740 N   0  0  0  0  0  0  0  0  0  0  0  0
   -1.5249    0.2092   -0.5593 C   0  0  1  0  0  0  0  0  0  0  0  0
   -2.2803    1.5028   -0.8747 C   0  0  0  0  0  0  0  0  0  0  0  0
   -3.7874    1.4429   -0.5940 C   0  0  1  0  0  0  0  0  0  0  0  0
   -4.0441    1.3625    0.9055 C   0  0  0  0  0  0  0  0  0  0  0  0
   -3.9018    0.3790    1.6156 O   0  0  0  0  0  0  0  0  0  0  0  0
   -4.4641    3.5897    0.2763 C   0  0  0  0  0  0  0  0  0  0  0  0
   -4.5031    2.7354   -0.9938 C   0  0  0  0  0  0  0  0  0  0  0  0
   -2.0183   -0.9185   -1.4282 C   0  0  0  0  0  0  0  0  0  0  0  0
   -1.9087   -2.2312   -1.2241 C   0  0  0  0  0  0  0  0  0  0  0  0
   -4.5311    2.8085    2.2930 H   0  0  0  0  0  0  0  0  0  0  0  0
    0.2697    0.1829   -1.6916 H   0  0  0  0  0  0  0  0  0  0  0  0
   -1.6660   -0.0481    0.4880 H   0  0  0  0  0  0  0  0  0  0  0  0
   -1.8292    2.3186   -0.3031 H   0  0  0  0  0  0  0  0  0  0  0  0
   -2.1377    1.7467   -1.9319 H   0  0  0  0  0  0  0  0  0  0  0  0
   -4.2225    0.5709   -1.0885 H   0  0  0  0  0  0  0  0  0  0  0  0
   -5.3425    4.2262    0.3769 H   0  0  0  0  0  0  0  0  0  0  0  0
   -3.5799    4.2320    0.3115 H   0  0  0  0  0  0  0  0  0  0  0  0
   -4.0426    3.2375   -1.8442 H   0  0  0  0  0  0  0  0  0  0  0  0
   -5.5399    2.5202   -1.2567 H   0  0  0  0  0  0  0  0  0  0  0  0
   -2.5100   -0.6162   -2.3489 H   0  0  0  0  0  0  0  0  0  0  0  0
   -2.3180   -2.9057   -1.9661 H   0  0  0  0  0  0  0  0  0  0  0  0
    2.1757    0.9822   -0.2756 C   0  0  0  0  0  0  0  0  0  0  0  0
    3.1735    0.9239    0.8780 C   0  0  0  0  0  0  0  0  0  0  0  0
    4.5812    1.1154    0.3851 C   0  0  0  0  0  0  0  0  0  0  0  0
    5.1268    2.3921    0.2663 C   0  0  0  0  0  0  0  0  0  0  0  0
    6.4118    2.5751   -0.2268 C   0  0  0  0  0  0  0  0  0  0  0  0
    7.1748    1.4795   -0.6102 C   0  0  0  0  0  0  0  0  0  0  0  0
    6.6427    0.2018   -0.4949 C   0  0  0  0  0  0  0  0  0  0  0  0
    5.3562    0.0248   -0.0026 C   0  0  0  0  0  0  0  0  0  0  0  0
    0.3668    1.1273    1.3016 O   0  0  0  0  0  0  0  0  0  0  0  0
   -1.2659   -2.8567   -0.0519 C   0  0  0  0  0  0  0  0  0  0  0  0
   -1.3914   -4.1781   -0.1048 O   0  0  0  0  0  0  0  0  0  0  0  0
   -0.8268   -4.9529    0.9631 C   0  0  0  0  0  0  0  0  0  0  0  0
   -1.1079   -6.4075    0.6739 C   0  0  0  0  0  0  0  0  0  0  0  0
   -0.6974   -2.2758    0.8417 O   0  0  0  0  0  0  0  0  0  0  0  0
    2.4178    0.2228   -1.0233 H   0  0  0  0  0  0  0  0  0  0  0  0
    2.2602    1.9466   -0.7877 H   0  0  0  0  0  0  0  0  0  0  0  0
    2.9311    1.6930    1.6126 H   0  0  0  0  0  0  0  0  0  0  0  0
    3.0889   -0.0390    1.3872 H   0  0  0  0  0  0  0  0  0  0  0  0
    4.5414    3.2543    0.5660 H   0  0  0  0  0  0  0  0  0  0  0  0
    6.8186    3.5750   -0.3098 H   0  0  0  0  0  0  0  0  0  0  0  0
    8.1775    1.6214   -0.9924 H   0  0  0  0  0  0  0  0  0  0  0  0
    7.2304   -0.6599   -0.7852 H   0  0  0  0  0  0  0  0  0  0  0  0
    4.9501   -0.9763    0.0877 H   0  0  0  0  0  0  0  0  0  0  0  0
    0.2478   -4.7680    1.0246 H   0  0  0  0  0  0  0  0  0  0  0  0
   -1.2736   -4.6500    1.9123 H   0  0  0  0  0  0  0  0  0  0  0  0
   -2.1784   -6.6062    0.6220 H   0  0  0  0  0  0  0  0  0  0  0  0
   -0.6472   -6.7269   -0.2609 H   0  0  0  0  0  0  0  0  0  0  0  0
   -0.6939   -7.0183    1.4756 H   0  0  0  0  0  0  0  0  0  0  0  0
    0.7364    0.8300    0.1746 C   0  0  0  0  0  0  0  0  0  0  0  0
 11 10  2  0
 10  3  1  0
  3  4  1  0
  3  2  1  0
  4  5  1  0
  7  6  2  0
  5  6  1  0
  5  9  1  0
  6  1  1  0
  9  8  1  0
  1  8  1  0
  1 12  1  0
  2 13  1  0
  3 14  1  1
  4 15  1  0
  4 16  1  0
  5 17  1  6
  8 18  1  0
  8 19  1  0
  9 20  1  0
  9 21  1  0
 10 22  1  0
 11 23  1  0
  2 52  1  0
 52 24  1  0
 24 25  1  0
 25 26  1  0
 26 27  2  0
 27 28  1  0
 28 29  2  0
 29 30  1  0
 30 31  2  0
 31 26  1  0
 52 32  2  0
 11 33  1  0
 33 34  1  0
 34 35  1  0
 35 36  1  0
 33 37  2  0
 24 38  1  0
 24 39  1  0
 25 40  1  0
 25 41  1  0
 27 42  1  0
 28 43  1  0
 29 44  1  0
 30 45  1  0
 31 46  1  0
 35 47  1  0
 35 48  1  0
 36 49  1  0
 36 50  1  0
 36 51  1  0
M  END
