
     RDKit          3D

 35 36  0  0  0  0  0  0  0  0999 V2000
    4.4180    1.1692    0.5204 C   0  0  0  0  0  0  0  0  0  0  0  0
    4.8810   -0.2227    0.1964 C   0  0  0  0  0  0  0  0  0  0  0  0
   -0.2848    0.5437   -0.6091 C   0  0  0  0  0  0  0  0  0  0  0  0
   -5.3665   -0.7449    1.2765 C   0  0  0  0  0  0  0  0  0  0  0  0
   -2.6279    0.4136   -0.8573 C   0  0  0  0  0  0  0  0  0  0  0  0
   -3.8555    0.4330    0.0195 C   0  0  1  0  0  0  0  0  0  0  0  0
   -5.1558    0.4743   -0.8122 C   0  0  0  0  0  0  0  0  0  0  0  0
   -6.1693   -0.3223    0.0310 C   0  0  0  0  0  0  0  0  0  0  0  0
    3.8991   -1.1237   -0.1642 N   0  0  0  0  0  0  0  0  0  0  0  0
    0.7028    0.5814    0.3127 N   0  0  0  0  0  0  0  0  0  0  0  0
    2.9672    1.2338    0.9643 C   0  0  0  0  0  0  0  0  0  0  0  0
   -3.9595   -0.7285    0.8946 N   0  0  0  0  0  0  0  0  0  0  0  0
    2.5437   -0.9054   -0.2635 C   0  0  0  0  0  0  0  0  0  0  0  0
    2.0847    0.5318   -0.0567 C   0  0  1  0  0  0  0  0  0  0  0  0
    1.7864   -1.8108   -0.5176 O   0  0  0  0  0  0  0  0  0  0  0  0
    6.0402   -0.5676    0.2242 O   0  0  0  0  0  0  0  0  0  0  0  0
   -1.4739    0.4408   -0.0167 O   0  0  0  0  0  0  0  0  0  0  0  0
   -0.1218    0.6252   -1.8079 O   0  0  0  0  0  0  0  0  0  0  0  0
    5.0838    1.5788    1.2792 H   0  0  0  0  0  0  0  0  0  0  0  0
    4.5622    1.7743   -0.3809 H   0  0  0  0  0  0  0  0  0  0  0  0
   -5.6498   -1.7239    1.6630 H   0  0  0  0  0  0  0  0  0  0  0  0
   -2.6211   -0.4880   -1.4790 H   0  0  0  0  0  0  0  0  0  0  0  0
   -2.6390    1.2807   -1.5216 H   0  0  0  0  0  0  0  0  0  0  0  0
   -3.8198    1.3262    0.6549 H   0  0  0  0  0  0  0  0  0  0  0  0
   -5.4762    1.4983   -1.0041 H   0  0  0  0  0  0  0  0  0  0  0  0
   -5.0036   -0.0004   -1.7852 H   0  0  0  0  0  0  0  0  0  0  0  0
   -6.5188   -1.1997   -0.5150 H   0  0  0  0  0  0  0  0  0  0  0  0
   -7.0504    0.2644    0.2928 H   0  0  0  0  0  0  0  0  0  0  0  0
    4.2125   -2.0679   -0.3624 H   0  0  0  0  0  0  0  0  0  0  0  0
    0.4684    0.3848    1.2742 H   0  0  0  0  0  0  0  0  0  0  0  0
    2.8503    0.7681    1.9466 H   0  0  0  0  0  0  0  0  0  0  0  0
    2.6545    2.2729    1.0581 H   0  0  0  0  0  0  0  0  0  0  0  0
   -3.7715   -1.5621    0.3448 H   0  0  0  0  0  0  0  0  0  0  0  0
    2.2053    1.0372   -1.0209 H   0  0  0  0  0  0  0  0  0  0  0  0
   -5.5173   -0.0200    2.0813 H   0  0  0  0  0  0  0  0  0  0  0  0
 16  2  2  0
  2  1  1  0
  2  9  1  0
  1 11  1  0
  9 13  1  0
 11 14  1  0
 13 14  1  0
 13 15  2  0
 14 10  1  0
 10  3  1  0
 18  3  2  0
  3 17  1  0
 17  5  1  0
  5  6  1  0
  6  7  1  0
  6 12  1  0
  7  8  1  0
 12  4  1  0
  8  4  1  0
  1 19  1  0
  1 20  1  0
  4 35  1  0
  4 21  1  0
  5 22  1  0
  5 23  1  0
  6 24  1  1
  7 25  1  0
  7 26  1  0
  8 27  1  0
  8 28  1  0
  9 29  1  0
 10 30  1  0
 11 31  1  0
 11 32  1  0
 12 33  1  0
 14 34  1  6
M  END
