
     RDKit          3D

 31 31  0  0  0  0  0  0  0  0999 V2000
   -3.2982    0.7697    0.5062 C   0  0  0  0  0  0  0  0  0  0  0  0
   -1.7855    0.6547    0.3446 C   0  0  1  0  0  0  0  0  0  0  0  0
   -3.9086    1.3622   -0.5278 N   0  0  0  0  0  0  0  0  0  0  0  0
   -3.8684    0.3438    1.4928 O   0  0  0  0  0  0  0  0  0  0  0  0
   -5.2294    1.6766   -0.4572 O   0  0  0  0  0  0  0  0  0  0  0  0
   -1.0876    1.5154    1.3899 C   0  0  0  0  0  0  0  0  0  0  0  0
   -1.4602   -0.7622    0.4668 N   0  0  0  0  0  0  0  0  0  0  0  0
   -0.3448   -1.4616   -0.5134 S   0  0  1  0  0  0  0  0  0  0  0  0
   -0.2684   -2.8487   -0.0902 O   0  0  0  0  0  0  0  0  0  0  0  0
   -0.7104   -1.1264   -1.8790 O   0  0  0  0  0  0  0  0  0  0  0  0
    1.2094   -0.6869   -0.1707 C   0  0  0  0  0  0  0  0  0  0  0  0
    1.6362    0.3705   -0.9637 C   0  0  0  0  0  0  0  0  0  0  0  0
    2.8207    1.0379   -0.6770 C   0  0  0  0  0  0  0  0  0  0  0  0
    3.5383    0.5904    0.4246 C   0  0  0  0  0  0  0  0  0  0  0  0
    3.1351   -0.4636    1.2222 C   0  0  0  0  0  0  0  0  0  0  0  0
    1.9508   -1.1139    0.9226 C   0  0  0  0  0  0  0  0  0  0  0  0
    4.6836    1.2132    0.7247 F   0  0  0  0  0  0  0  0  0  0  0  0
    3.3085    2.1802   -1.5136 C   0  0  0  0  0  0  0  0  0  0  0  0
   -1.4894    0.9880   -0.6529 H   0  0  0  0  0  0  0  0  0  0  0  0
   -3.4075    1.7838   -1.2964 H   0  0  0  0  0  0  0  0  0  0  0  0
   -5.7052    0.9424   -0.8680 H   0  0  0  0  0  0  0  0  0  0  0  0
   -1.3644    1.2046    2.3969 H   0  0  0  0  0  0  0  0  0  0  0  0
   -0.0056    1.4396    1.2925 H   0  0  0  0  0  0  0  0  0  0  0  0
   -1.3612    2.5632    1.2679 H   0  0  0  0  0  0  0  0  0  0  0  0
   -1.4459   -1.1202    1.4157 H   0  0  0  0  0  0  0  0  0  0  0  0
    1.0545    0.6892   -1.8189 H   0  0  0  0  0  0  0  0  0  0  0  0
    3.7396   -0.7753    2.0634 H   0  0  0  0  0  0  0  0  0  0  0  0
    1.6253   -1.9421    1.5367 H   0  0  0  0  0  0  0  0  0  0  0  0
    3.4025    3.0940   -0.9262 H   0  0  0  0  0  0  0  0  0  0  0  0
    4.2864    1.9692   -1.9474 H   0  0  0  0  0  0  0  0  0  0  0  0
    2.6168    2.3778   -2.3299 H   0  0  0  0  0  0  0  0  0  0  0  0
 10  8  2  0
  6  2  1  0
  9  8  2  0
  2  7  1  0
  2  1  1  0
  8  7  1  1
  8 11  1  0
  3  1  1  0
  3  5  1  0
  1  4  2  0
 11 16  2  0
 11 12  1  0
 16 15  1  0
 12 13  2  0
 15 14  2  0
 13 14  1  0
 13 18  1  0
 14 17  1  0
  2 19  1  6
  3 20  1  0
  5 21  1  0
  6 22  1  0
  6 23  1  0
  6 24  1  0
  7 25  1  0
 12 26  1  0
 15 27  1  0
 16 28  1  0
 18 29  1  0
 18 30  1  0
 18 31  1  0
M  END
