
     RDKit          3D

 59 59  0  0  0  0  0  0  0  0999 V2000
    4.1449   -1.9727   -0.6978 C   0  0  0  0  0  0  0  0  0  0  0  0
    2.8905   -1.3041   -1.1721 C   0  0  0  0  0  0  0  0  0  0  0  0
    4.0833   -3.0998    0.1135 C   0  0  0  0  0  0  0  0  0  0  0  0
    5.2470   -3.7215    0.5504 C   0  0  0  0  0  0  0  0  0  0  0  0
    6.4843   -3.2124    0.1833 C   0  0  0  0  0  0  0  0  0  0  0  0
    6.5548   -2.0820   -0.6234 C   0  0  0  0  0  0  0  0  0  0  0  0
    5.3919   -1.4681   -1.0626 C   0  0  0  0  0  0  0  0  0  0  0  0
   -2.9099   -0.9496   -0.7130 C   0  0  2  0  0  0  0  0  0  0  0  0
   -3.0650   -2.3526   -0.1169 C   0  0  0  0  0  0  0  0  0  0  0  0
   -2.0633   -2.6927    0.9920 C   0  0  1  0  0  0  0  0  0  0  0  0
   -2.3534   -4.0969    1.5117 C   0  0  0  0  0  0  0  0  0  0  0  0
   -4.2195    4.1723    2.1185 N   0  0  0  0  0  0  0  0  0  0  0  0
    0.6413    2.7400   -0.0143 C   0  0  0  0  0  0  0  0  0  0  0  0
   -0.2680    2.3670    1.5302 P   0  0  2  0  0  0  0  0  0  0  0  0
    0.5160    3.1744    2.6886 O   0  0  0  0  0  0  0  0  0  0  0  0
   -0.3189    0.9096    1.8171 O   0  0  0  0  0  0  0  0  0  0  0  0
   -1.7662    3.0772    1.4004 N   0  0  0  0  0  0  0  0  0  0  0  0
   -2.9614    2.2694    1.2600 C   0  0  2  0  0  0  0  0  0  0  0  0
   -2.8226    1.3363    0.0633 C   0  0  0  0  0  0  0  0  0  0  0  0
   -3.1101    0.0511    0.2978 N   0  0  0  0  0  0  0  0  0  0  0  0
   -0.6177   -2.5687    0.5240 C   0  0  0  0  0  0  0  0  0  0  0  0
   -2.4919    1.7456   -1.0390 O   0  0  0  0  0  0  0  0  0  0  0  0
   -3.9146   -0.7658   -1.8372 C   0  0  0  0  0  0  0  0  0  0  0  0
   -3.4643   -1.2851   -2.9715 O   0  0  0  0  0  0  0  0  0  0  0  0
   -4.9964   -0.2541   -1.7141 O   0  0  0  0  0  0  0  0  0  0  0  0
    2.7974   -0.0455   -0.4979 O   0  0  0  0  0  0  0  0  0  0  0  0
    1.7119    0.6926   -0.7554 C   0  0  0  0  0  0  0  0  0  0  0  0
    1.7993    1.8978   -0.1507 N   0  0  0  0  0  0  0  0  0  0  0  0
    0.7992    0.3307   -1.4653 O   0  0  0  0  0  0  0  0  0  0  0  0
   -4.1534    3.2030    1.0406 C   0  0  0  0  0  0  0  0  0  0  0  0
    2.9221   -1.1428   -2.2536 H   0  0  0  0  0  0  0  0  0  0  0  0
    2.0175   -1.9217   -0.9508 H   0  0  0  0  0  0  0  0  0  0  0  0
    3.1189   -3.5009    0.4030 H   0  0  0  0  0  0  0  0  0  0  0  0
    5.1850   -4.6010    1.1779 H   0  0  0  0  0  0  0  0  0  0  0  0
    7.3926   -3.6957    0.5192 H   0  0  0  0  0  0  0  0  0  0  0  0
    7.5180   -1.6819   -0.9121 H   0  0  0  0  0  0  0  0  0  0  0  0
    5.4539   -0.5938   -1.6999 H   0  0  0  0  0  0  0  0  0  0  0  0
   -1.9050   -0.8455   -1.1336 H   0  0  0  0  0  0  0  0  0  0  0  0
   -4.0851   -2.4646    0.2651 H   0  0  0  0  0  0  0  0  0  0  0  0
   -2.9533   -3.0823   -0.9237 H   0  0  0  0  0  0  0  0  0  0  0  0
   -2.2027   -1.9973    1.8268 H   0  0  0  0  0  0  0  0  0  0  0  0
   -2.2193   -4.8411    0.7232 H   0  0  0  0  0  0  0  0  0  0  0  0
   -1.6820   -4.3590    2.3306 H   0  0  0  0  0  0  0  0  0  0  0  0
   -3.3773   -4.1833    1.8794 H   0  0  0  0  0  0  0  0  0  0  0  0
   -4.8362    4.9313    1.8624 H   0  0  0  0  0  0  0  0  0  0  0  0
   -4.6185    3.7469    2.9457 H   0  0  0  0  0  0  0  0  0  0  0  0
   -0.0401    2.5674   -0.8451 H   0  0  0  0  0  0  0  0  0  0  0  0
    0.9302    3.7919   -0.0556 H   0  0  0  0  0  0  0  0  0  0  0  0
    0.8577    4.0429    2.4421 H   0  0  0  0  0  0  0  0  0  0  0  0
   -1.9518    3.9384    1.9022 H   0  0  0  0  0  0  0  0  0  0  0  0
   -3.1519    1.6735    2.1621 H   0  0  0  0  0  0  0  0  0  0  0  0
   -3.3247   -0.2395    1.2375 H   0  0  0  0  0  0  0  0  0  0  0  0
    0.0661   -2.8874    1.3133 H   0  0  0  0  0  0  0  0  0  0  0  0
   -0.4312   -3.2032   -0.3466 H   0  0  0  0  0  0  0  0  0  0  0  0
   -0.3567   -1.5430    0.2641 H   0  0  0  0  0  0  0  0  0  0  0  0
   -4.1347   -1.2050   -3.6666 H   0  0  0  0  0  0  0  0  0  0  0  0
    2.5782    2.0638    0.4678 H   0  0  0  0  0  0  0  0  0  0  0  0
   -5.0578    2.5922    0.9301 H   0  0  0  0  0  0  0  0  0  0  0  0
   -4.0065    3.7391    0.1016 H   0  0  0  0  0  0  0  0  0  0  0  0
  6  7  1  0
  6  5  2  0
  7  1  2  0
  5  4  1  0
  1  2  1  0
  1  3  1  0
  4  3  2  0
  2 26  1  0
 26 27  1  0
 29 27  2  0
 27 28  1  0
 28 13  1  0
 13 14  1  0
 16 14  2  0
 14 15  1  1
 14 17  1  0
 25 23  2  0
 24 23  1  0
 23  8  1  0
  8 20  1  0
  8  9  1  0
 17 18  1  0
 20 19  1  0
 19 22  2  0
 19 18  1  0
 18 30  1  0
  9 10  1  0
 10 11  1  0
 10 21  1  0
 30 12  1  0
  2 31  1  0
  2 32  1  0
  3 33  1  0
  4 34  1  0
  5 35  1  0
  6 36  1  0
  7 37  1  0
  8 38  1  6
  9 39  1  0
  9 40  1  0
 10 41  1  1
 11 42  1  0
 11 43  1  0
 11 44  1  0
 12 45  1  0
 12 46  1  0
 13 47  1  0
 13 48  1  0
 15 49  1  0
 17 50  1  0
 18 51  1  1
 20 52  1  0
 21 53  1  0
 21 54  1  0
 21 55  1  0
 24 56  1  0
 28 57  1  0
 30 58  1  0
 30 59  1  0
M  END
