
     RDKit          3D

 21 22  0  0  0  0  0  0  0  0999 V2000
   -2.0045    1.4570    0.0131 C   0  0  0  0  0  0  0  0  0  0  0  0
   -0.5045   -0.4047    0.0005 C   0  0  0  0  0  0  0  0  0  0  0  0
    0.5540    0.5023    0.0087 C   0  0  0  0  0  0  0  0  0  0  0  0
   -0.8857    2.2751    0.0203 C   0  0  0  0  0  0  0  0  0  0  0  0
    1.9452    0.0492    0.0065 C   0  0  0  0  0  0  0  0  0  0  0  0
   -4.1114   -0.3107    0.0131 O   0  0  0  0  0  0  0  0  0  0  0  0
   -1.8018    0.0811    0.0032 C   0  0  0  0  0  0  0  0  0  0  0  0
   -2.7672   -2.0918   -0.0242 O   0  0  0  0  0  0  0  0  0  0  0  0
   -2.9277   -0.8974   -0.0046 C   0  0  0  0  0  0  0  0  0  0  0  0
    0.3576    1.8187    0.0188 N   0  0  0  0  0  0  0  0  0  0  0  0
    3.1103    0.8417    0.0106 C   0  0  0  0  0  0  0  0  0  0  0  0
    4.1389   -0.0681    0.0058 C   0  0  0  0  0  0  0  0  0  0  0  0
    3.5668   -1.2850   -0.0007 N   0  0  0  0  0  0  0  0  0  0  0  0
    2.2473   -1.2412   -0.0005 N   0  0  0  0  0  0  0  0  0  0  0  0
   -2.9907    1.8976    0.0146 H   0  0  0  0  0  0  0  0  0  0  0  0
   -0.3112   -1.4682   -0.0073 H   0  0  0  0  0  0  0  0  0  0  0  0
   -1.0048    3.3521    0.0279 H   0  0  0  0  0  0  0  0  0  0  0  0
   -4.8165   -0.9757    0.0081 H   0  0  0  0  0  0  0  0  0  0  0  0
    3.1830    1.9154    0.0163 H   0  0  0  0  0  0  0  0  0  0  0  0
    5.2088    0.0572    0.0069 H   0  0  0  0  0  0  0  0  0  0  0  0
    4.0370   -2.1766   -0.0066 H   0  0  0  0  0  0  0  0  0  0  0  0
  6  9  1  0
  9  8  2  0
  9  7  1  0
  1  7  2  0
  1  4  1  0
  7  2  1  0
  4 10  2  0
  2  3  2  0
 10  3  1  0
  3  5  1  0
  5 14  2  0
  5 11  1  0
 14 13  1  0
 11 12  2  0
 13 12  1  0
  1 15  1  0
  2 16  1  0
  4 17  1  0
  6 18  1  0
 11 19  1  0
 12 20  1  0
 13 21  1  0
M  END
