
     RDKit          3D

 88 93  0  0  0  0  0  0  0  0999 V2000
    0.9223    4.2845    1.5326 C   0  0  0  0  0  0  0  0  0  0  0  0
    1.2891    2.9633    1.2515 C   0  0  0  0  0  0  0  0  0  0  0  0
    2.6037    3.0384    0.8331 C   0  0  0  0  0  0  0  0  0  0  0  0
    3.7225   -0.4656    0.4946 C   0  0  0  0  0  0  0  0  0  0  0  0
    5.0147   -2.0119   -0.1445 C   0  0  0  0  0  0  0  0  0  0  0  0
    4.7159   -4.7562   -0.2644 C   0  0  0  0  0  0  0  0  0  0  0  0
    4.2175    5.5120   -0.8829 C   0  0  0  0  0  0  0  0  0  0  0  0
   -0.3872    4.7881    2.0285 C   0  0  0  0  0  0  0  0  0  0  0  0
    3.4882    1.9689    0.3364 C   0  0  0  0  0  0  0  0  0  0  0  0
    6.0693   -2.7741   -0.6258 C   0  0  0  0  0  0  0  0  0  0  0  0
    5.9210   -4.1559   -0.6699 C   0  0  0  0  0  0  0  0  0  0  0  0
    3.6507   -4.0107    0.2080 C   0  0  0  0  0  0  0  0  0  0  0  0
    3.8270   -2.6363    0.2672 C   0  0  0  0  0  0  0  0  0  0  0  0
    0.6987   -1.5802   -0.1839 C   0  0  0  0  0  0  0  0  0  0  0  0
   -0.7688   -1.5432    0.2206 C   0  0  0  0  0  0  0  0  0  0  0  0
   -1.6818   -1.6516   -0.9936 C   0  0  0  0  0  0  0  0  0  0  0  0
   -3.7411   -0.2823   -0.4712 C   0  0  0  0  0  0  0  0  0  0  0  0
   -3.3768    2.1342   -0.3025 C   0  0  0  0  0  0  0  0  0  0  0  0
   -2.4507    3.1610   -0.8131 C   0  0  0  0  0  0  0  0  0  0  0  0
   -1.1449    3.0233   -1.2418 C   0  0  0  0  0  0  0  0  0  0  0  0
   -0.7179    4.3264   -1.5248 C   0  0  0  0  0  0  0  0  0  0  0  0
    0.6109    4.7686   -2.0281 C   0  0  0  0  0  0  0  0  0  0  0  0
   -3.9265    5.7203    0.9105 C   0  0  0  0  0  0  0  0  0  0  0  0
   -5.0970   -1.7654    0.1855 C   0  0  0  0  0  0  0  0  0  0  0  0
   -6.1814   -2.4775    0.6774 C   0  0  0  0  0  0  0  0  0  0  0  0
   -6.0913   -3.8637    0.7356 C   0  0  0  0  0  0  0  0  0  0  0  0
   -4.9142   -4.5187    0.3318 C   0  0  0  0  0  0  0  0  0  0  0  0
   -3.8201   -3.8238   -0.1511 C   0  0  0  0  0  0  0  0  0  0  0  0
   -3.9384   -2.4439   -0.2230 C   0  0  0  0  0  0  0  0  0  0  0  0
   -7.2688   -4.6110    1.2729 C   0  0  0  0  0  0  0  0  0  0  0  0
    7.0687   -4.9583   -1.1918 C   0  0  0  0  0  0  0  0  0  0  0  0
    2.9498    4.3454    0.8873 N   0  0  0  0  0  0  0  0  0  0  0  0
    1.9442    5.0964    1.3073 N   0  0  0  0  0  0  0  0  0  0  0  0
    3.1411    0.7369    0.8292 N   0  0  0  0  0  0  0  0  0  0  0  0
    4.9174   -0.6498    0.0203 N   0  0  0  0  0  0  0  0  0  0  0  0
    3.0082   -1.6180    0.6825 N   0  0  0  0  0  0  0  0  0  0  0  0
   -3.0772   -1.4658   -0.6484 N   0  0  0  0  0  0  0  0  0  0  0  0
   -1.6984    5.1857   -1.2915 N   0  0  0  0  0  0  0  0  0  0  0  0
   -2.7350    4.4825   -0.8635 N   0  0  0  0  0  0  0  0  0  0  0  0
   -4.9418   -0.4104    0.0065 N   0  0  0  0  0  0  0  0  0  0  0  0
   -7.3539   -5.9109    0.9444 N   0  0  0  0  0  0  0  0  0  0  0  0
    7.0983   -6.2561   -0.8463 N   0  0  0  0  0  0  0  0  0  0  0  0
    4.3972    2.1545   -0.4408 O   0  0  0  0  0  0  0  0  0  0  0  0
   -4.2487    2.3582    0.5065 O   0  0  0  0  0  0  0  0  0  0  0  0
   -8.1022   -4.0576    1.9789 O   0  0  0  0  0  0  0  0  0  0  0  0
    7.9285   -4.4490   -1.8995 O   0  0  0  0  0  0  0  0  0  0  0  0
    0.6583    2.0904    1.3145 H   0  0  0  0  0  0  0  0  0  0  0  0
    4.5869   -5.8276   -0.3420 H   0  0  0  0  0  0  0  0  0  0  0  0
    4.1014    4.6998   -1.5988 H   0  0  0  0  0  0  0  0  0  0  0  0
    3.4197    6.2364   -1.0443 H   0  0  0  0  0  0  0  0  0  0  0  0
    5.1675    6.0073   -1.0823 H   0  0  0  0  0  0  0  0  0  0  0  0
    5.0179    4.2932    0.7117 H   0  0  0  0  0  0  0  0  0  0  0  0
    4.3304    5.8130    1.2506 H   0  0  0  0  0  0  0  0  0  0  0  0
   -0.4876    4.6382    3.1049 H   0  0  0  0  0  0  0  0  0  0  0  0
   -0.4999    5.8514    1.8259 H   0  0  0  0  0  0  0  0  0  0  0  0
   -1.2116    4.2618    1.5498 H   0  0  0  0  0  0  0  0  0  0  0  0
    6.9867   -2.3019   -0.9509 H   0  0  0  0  0  0  0  0  0  0  0  0
    2.7285   -4.4921    0.5055 H   0  0  0  0  0  0  0  0  0  0  0  0
    1.3615   -1.0103    1.8051 H   0  0  0  0  0  0  0  0  0  0  0  0
    1.4616   -2.7143    1.4926 H   0  0  0  0  0  0  0  0  0  0  0  0
    0.9577   -0.6613   -0.7175 H   0  0  0  0  0  0  0  0  0  0  0  0
    0.8807   -2.4059   -0.8772 H   0  0  0  0  0  0  0  0  0  0  0  0
   -0.9917   -2.3609    0.9115 H   0  0  0  0  0  0  0  0  0  0  0  0
   -0.9797   -0.6147    0.7587 H   0  0  0  0  0  0  0  0  0  0  0  0
   -1.4011   -0.9315   -1.7643 H   0  0  0  0  0  0  0  0  0  0  0  0
   -1.5836   -2.6310   -1.4614 H   0  0  0  0  0  0  0  0  0  0  0  0
   -0.5578    2.1209   -1.3112 H   0  0  0  0  0  0  0  0  0  0  0  0
    0.7087    4.5889   -3.1001 H   0  0  0  0  0  0  0  0  0  0  0  0
    0.7615    5.8318   -1.8511 H   0  0  0  0  0  0  0  0  0  0  0  0
    1.4142    4.2243   -1.5338 H   0  0  0  0  0  0  0  0  0  0  0  0
   -4.7999    4.5184   -0.6580 H   0  0  0  0  0  0  0  0  0  0  0  0
   -4.0590    6.0030   -1.2249 H   0  0  0  0  0  0  0  0  0  0  0  0
   -3.8265    4.9111    1.6323 H   0  0  0  0  0  0  0  0  0  0  0  0
   -3.1009    6.4178    1.0506 H   0  0  0  0  0  0  0  0  0  0  0  0
   -4.8548    6.2509    1.1208 H   0  0  0  0  0  0  0  0  0  0  0  0
   -7.0769   -1.9638    1.0010 H   0  0  0  0  0  0  0  0  0  0  0  0
   -4.8300   -5.5938    0.4197 H   0  0  0  0  0  0  0  0  0  0  0  0
   -2.9198   -4.3454   -0.4479 H   0  0  0  0  0  0  0  0  0  0  0  0
    2.4463    0.7164    1.5600 H   0  0  0  0  0  0  0  0  0  0  0  0
   -2.4445    0.8435   -1.5756 H   0  0  0  0  0  0  0  0  0  0  0  0
   -6.7793   -6.3296    0.2345 H   0  0  0  0  0  0  0  0  0  0  0  0
   -8.1404   -6.4510    1.2663 H   0  0  0  0  0  0  0  0  0  0  0  0
    6.5001   -6.6437   -0.1380 H   0  0  0  0  0  0  0  0  0  0  0  0
    7.8625   -6.8327   -1.1581 H   0  0  0  0  0  0  0  0  0  0  0  0
    4.2055    4.9948    0.5436 C   0  0  0  0  0  0  0  0  0  0  0  0
    1.6062   -1.7386    1.0297 C   0  0  0  0  0  0  0  0  0  0  0  0
   -3.1110    0.8923   -0.8195 N   0  0  0  0  0  0  0  0  0  0  0  0
   -3.9571    5.1883   -0.5102 C   0  0  0  0  0  0  0  0  0  0  0  0
 22 21  1  0
 20 21  1  0
 20 19  2  0
 21 38  2  0
 44 18  2  0
 38 39  1  0
 19 18  1  0
 19 39  1  0
 18 87  1  0
  7 85  1  0
 39 88  1  0
  8  1  1  0
 33  1  2  0
 33 32  1  0
 87 17  1  0
 88 23  1  0
 40 17  2  0
 40 24  1  0
  1  2  1  0
 85 32  1  0
 32  3  1  0
 17 37  1  0
 25 24  2  0
 25 26  1  0
 24 29  1  0
 41 30  1  0
  2  3  2  0
  3  9  1  0
 37 29  1  0
 37 16  1  0
 30 26  1  0
 30 45  2  0
 26 27  2  0
 29 28  2  0
 15 16  1  0
 15 14  1  0
  9 34  1  0
  9 43  2  0
 34  4  1  0
 86 14  1  0
 86 36  1  0
 27 28  1  0
  4 36  1  0
  4 35  2  0
 36 13  1  0
 35  5  1  0
 13 12  1  0
 13  5  2  0
 12  6  2  0
  5 10  1  0
  6 11  1  0
 10 11  2  0
 11 31  1  0
 31 42  1  0
 31 46  2  0
  2 47  1  0
  6 48  1  0
  7 49  1  0
  7 50  1  0
  7 51  1  0
 85 52  1  0
 85 53  1  0
  8 54  1  0
  8 55  1  0
  8 56  1  0
 10 57  1  0
 12 58  1  0
 86 59  1  0
 86 60  1  0
 14 61  1  0
 14 62  1  0
 15 63  1  0
 15 64  1  0
 16 65  1  0
 16 66  1  0
 20 67  1  0
 22 68  1  0
 22 69  1  0
 22 70  1  0
 88 71  1  0
 88 72  1  0
 23 73  1  0
 23 74  1  0
 23 75  1  0
 25 76  1  0
 27 77  1  0
 28 78  1  0
 34 79  1  0
 87 80  1  0
 41 81  1  0
 41 82  1  0
 42 83  1  0
 42 84  1  0
M  END
