
     RDKit          3D

 25 27  0  0  0  0  0  0  0  0999 V2000
   -3.0670    0.8240   -0.0526 C   0  0  0  0  0  0  0  0  0  0  0  0
   -4.2537    1.4617   -0.1307 N   0  0  0  0  0  0  0  0  0  0  0  0
   -1.9577    1.4850   -0.0504 N   0  0  0  0  0  0  0  0  0  0  0  0
   -0.7813    0.7769   -0.0307 C   0  0  0  0  0  0  0  0  0  0  0  0
    0.4202    1.4896   -0.0381 C   0  0  0  0  0  0  0  0  0  0  0  0
    1.6119    0.7841   -0.0146 C   0  0  0  0  0  0  0  0  0  0  0  0
    2.9051    1.2445   -0.0164 N   0  0  0  0  0  0  0  0  0  0  0  0
    3.6566    0.1730    0.0128 C   0  0  0  0  0  0  0  0  0  0  0  0
    5.1394    0.1659    0.0282 C   0  0  0  0  0  0  0  0  0  0  0  0
    2.9350   -0.9751    0.0334 N   0  0  0  0  0  0  0  0  0  0  0  0
    1.6071   -0.6294    0.0161 C   0  0  0  0  0  0  0  0  0  0  0  0
    0.4434   -1.3603    0.0240 C   0  0  0  0  0  0  0  0  0  0  0  0
   -0.7537   -0.6419    0.0001 C   0  0  0  0  0  0  0  0  0  0  0  0
   -2.0179   -1.3621    0.0049 C   0  0  0  0  0  0  0  0  0  0  0  0
   -2.1405   -2.5757    0.0296 O   0  0  0  0  0  0  0  0  0  0  0  0
   -3.1240   -0.5458   -0.0248 N   0  0  0  0  0  0  0  0  0  0  0  0
   -4.2368    2.4554    0.0270 H   0  0  0  0  0  0  0  0  0  0  0  0
   -5.0934    0.9949    0.1689 H   0  0  0  0  0  0  0  0  0  0  0  0
    0.4052    2.5715   -0.0609 H   0  0  0  0  0  0  0  0  0  0  0  0
    5.5162   -0.2735    0.9527 H   0  0  0  0  0  0  0  0  0  0  0  0
    5.5360   -0.4222   -0.7999 H   0  0  0  0  0  0  0  0  0  0  0  0
    5.5162    1.1818   -0.0529 H   0  0  0  0  0  0  0  0  0  0  0  0
    3.3117   -1.9096    0.0562 H   0  0  0  0  0  0  0  0  0  0  0  0
    0.4405   -2.4420    0.0460 H   0  0  0  0  0  0  0  0  0  0  0  0
   -4.0259   -1.0046   -0.0425 H   0  0  0  0  0  0  0  0  0  0  0  0
  1  2  1  0
  1  3  2  0
  1 16  1  0
  3  4  1  0
  4  5  1  0
  4 13  2  0
  5  6  2  0
  6  7  1  0
  6 11  1  0
  7  8  2  0
  8  9  1  0
  8 10  1  0
 10 11  1  0
 11 12  2  0
 12 13  1  0
 13 14  1  0
 14 15  2  0
 14 16  1  0
  2 17  1  0
  2 18  1  0
  5 19  1  0
  9 20  1  0
  9 21  1  0
  9 22  1  0
 10 23  1  0
 12 24  1  0
 16 25  1  0
M  END
