
     RDKit          3D

 55 57  0  0  0  0  0  0  0  0999 V2000
    8.0310    1.3195    0.1510 C   0  0  0  0  0  0  0  0  0  0  0  0
    6.6275    1.1839   -0.1795 N   0  0  0  0  0  0  0  0  0  0  0  0
    5.8713    2.3762    0.1363 C   0  0  0  0  0  0  0  0  0  0  0  0
    4.4103    2.2386   -0.2216 C   0  0  0  0  0  0  0  0  0  0  0  0
    3.8369    1.2152    0.5728 O   0  0  0  0  0  0  0  0  0  0  0  0
    2.5364    0.9146    0.4011 C   0  0  0  0  0  0  0  0  0  0  0  0
    1.6959    1.5370   -0.5193 C   0  0  0  0  0  0  0  0  0  0  0  0
    0.3652    1.1486   -0.6084 C   0  0  0  0  0  0  0  0  0  0  0  0
    2.0167   -0.0876    1.2239 C   0  0  0  0  0  0  0  0  0  0  0  0
    0.6935   -0.4655    1.1140 C   0  0  0  0  0  0  0  0  0  0  0  0
   -0.1615    0.1346    0.1857 C   0  0  0  0  0  0  0  0  0  0  0  0
   -1.5895   -0.2469    0.0707 C   0  0  0  0  0  0  0  0  0  0  0  0
   -2.5351    0.8956    0.0340 C   0  0  0  0  0  0  0  0  0  0  0  0
   -2.5257    1.8601    1.0440 C   0  0  0  0  0  0  0  0  0  0  0  0
   -3.3947    2.9364    1.0258 C   0  0  0  0  0  0  0  0  0  0  0  0
   -4.2936    3.0879   -0.0295 C   0  0  0  0  0  0  0  0  0  0  0  0
   -5.1195    4.1530   -0.0061 O   0  0  0  0  0  0  0  0  0  0  0  0
   -4.3013    2.1507   -1.0577 C   0  0  0  0  0  0  0  0  0  0  0  0
   -3.4296    1.0720   -1.0180 C   0  0  0  0  0  0  0  0  0  0  0  0
   -2.0056   -1.5287    0.0204 C   0  0  0  0  0  0  0  0  0  0  0  0
   -3.4542   -1.9389    0.0767 C   0  0  0  0  0  0  0  0  0  0  0  0
   -3.9651   -2.5348   -1.2330 C   0  0  0  0  0  0  0  0  0  0  0  0
   -1.0496   -2.6550   -0.1177 C   0  0  0  0  0  0  0  0  0  0  0  0
   -0.1444   -2.6932   -1.1790 C   0  0  0  0  0  0  0  0  0  0  0  0
    0.7333   -3.7562   -1.3290 C   0  0  0  0  0  0  0  0  0  0  0  0
    0.7239   -4.8048   -0.4176 C   0  0  0  0  0  0  0  0  0  0  0  0
   -0.1786   -4.7837    0.6374 C   0  0  0  0  0  0  0  0  0  0  0  0
   -1.0629   -3.7235    0.7789 C   0  0  0  0  0  0  0  0  0  0  0  0
    8.1491    1.4135    1.2323 H   0  0  0  0  0  0  0  0  0  0  0  0
    8.5731    0.4274   -0.1625 H   0  0  0  0  0  0  0  0  0  0  0  0
    8.5200    2.1907   -0.3081 H   0  0  0  0  0  0  0  0  0  0  0  0
    6.5406    0.9936   -1.1706 H   0  0  0  0  0  0  0  0  0  0  0  0
    5.9665    2.5816    1.2072 H   0  0  0  0  0  0  0  0  0  0  0  0
    6.2455    3.2750   -0.3800 H   0  0  0  0  0  0  0  0  0  0  0  0
    3.9031    3.1933   -0.0440 H   0  0  0  0  0  0  0  0  0  0  0  0
    4.3036    2.0021   -1.2877 H   0  0  0  0  0  0  0  0  0  0  0  0
    2.0533    2.3252   -1.1679 H   0  0  0  0  0  0  0  0  0  0  0  0
   -0.2718    1.6497   -1.3270 H   0  0  0  0  0  0  0  0  0  0  0  0
    2.6597   -0.5614    1.9554 H   0  0  0  0  0  0  0  0  0  0  0  0
    0.3141   -1.2367    1.7714 H   0  0  0  0  0  0  0  0  0  0  0  0
   -1.8287    1.7644    1.8677 H   0  0  0  0  0  0  0  0  0  0  0  0
   -3.3788    3.6651    1.8269 H   0  0  0  0  0  0  0  0  0  0  0  0
   -5.6840    4.1558   -0.7871 H   0  0  0  0  0  0  0  0  0  0  0  0
   -4.9827    2.2601   -1.8942 H   0  0  0  0  0  0  0  0  0  0  0  0
   -3.4436    0.3616   -1.8349 H   0  0  0  0  0  0  0  0  0  0  0  0
   -3.5707   -2.6882    0.8665 H   0  0  0  0  0  0  0  0  0  0  0  0
   -4.0799   -1.0958    0.3694 H   0  0  0  0  0  0  0  0  0  0  0  0
   -5.0060   -2.8445   -1.1342 H   0  0  0  0  0  0  0  0  0  0  0  0
   -3.9087   -1.8118   -2.0476 H   0  0  0  0  0  0  0  0  0  0  0  0
   -3.3862   -3.4109   -1.5275 H   0  0  0  0  0  0  0  0  0  0  0  0
   -0.1330   -1.8816   -1.8955 H   0  0  0  0  0  0  0  0  0  0  0  0
    1.4252   -3.7667   -2.1615 H   0  0  0  0  0  0  0  0  0  0  0  0
    1.4101   -5.6340   -0.5324 H   0  0  0  0  0  0  0  0  0  0  0  0
   -0.1960   -5.5955    1.3532 H   0  0  0  0  0  0  0  0  0  0  0  0
   -1.7557   -3.7230    1.6117 H   0  0  0  0  0  0  0  0  0  0  0  0
  1  2  1  0
  2  3  1  0
  3  4  1  0
  4  5  1  0
  5  6  1  0
  7  6  2  0
  7  8  1  0
  6  9  1  0
  8 11  2  0
  9 10  2  0
 11 10  1  0
 11 12  1  0
 15 14  2  0
 15 16  1  0
 17 16  1  0
 14 13  1  0
 25 24  2  0
 25 26  1  0
 16 18  2  0
 24 23  1  0
 13 12  1  0
 13 19  2  0
 12 20  2  0
 18 19  1  0
 26 27  2  0
 23 20  1  0
 23 28  2  0
 20 21  1  0
 27 28  1  0
 21 22  1  0
  1 29  1  0
  1 30  1  0
  1 31  1  0
  2 32  1  0
  3 33  1  0
  3 34  1  0
  4 35  1  0
  4 36  1  0
  7 37  1  0
  8 38  1  0
  9 39  1  0
 10 40  1  0
 14 41  1  0
 15 42  1  0
 17 43  1  0
 18 44  1  0
 19 45  1  0
 21 46  1  0
 21 47  1  0
 22 48  1  0
 22 49  1  0
 22 50  1  0
 24 51  1  0
 25 52  1  0
 26 53  1  0
 27 54  1  0
 28 55  1  0
M  END
