
     RDKit          3D

 26 25  0  0  0  0  0  0  0  0999 V2000
   -1.5547   -0.6251    3.9951 C   0  0  0  0  0  0  0  0  0  0  0  0
   -0.5366    0.3708    3.4868 C   0  0  0  0  0  0  0  0  0  0  0  0
    0.0399   -0.1207    2.2988 O   0  0  0  0  0  0  0  0  0  0  0  0
    0.9852    0.7576    1.7452 C   0  0  0  0  0  0  0  0  0  0  0  0
    1.5966    0.1376    0.5152 C   0  0  0  0  0  0  0  0  0  0  0  0
    0.6183   -0.0136   -0.4814 O   0  0  0  0  0  0  0  0  0  0  0  0
    1.1251   -0.6001   -1.6530 C   0  0  0  0  0  0  0  0  0  0  0  0
    0.0185   -0.7658   -2.6622 C   0  0  0  0  0  0  0  0  0  0  0  0
   -0.4474    0.4932   -3.0741 O   0  0  0  0  0  0  0  0  0  0  0  0
   -1.4805    0.3995   -4.0201 C   0  0  0  0  0  0  0  0  0  0  0  0
   -1.9955   -0.2608    4.9229 H   0  0  0  0  0  0  0  0  0  0  0  0
   -2.3618   -0.7721    3.2768 H   0  0  0  0  0  0  0  0  0  0  0  0
   -1.0958   -1.5927    4.2007 H   0  0  0  0  0  0  0  0  0  0  0  0
   -1.0169    1.3430    3.3086 H   0  0  0  0  0  0  0  0  0  0  0  0
    0.2382    0.5378    4.2484 H   0  0  0  0  0  0  0  0  0  0  0  0
    0.5257    1.7245    1.4933 H   0  0  0  0  0  0  0  0  0  0  0  0
    1.7970    0.9678    2.4562 H   0  0  0  0  0  0  0  0  0  0  0  0
    2.4146    0.7871    0.1728 H   0  0  0  0  0  0  0  0  0  0  0  0
    2.0486   -0.8311    0.7736 H   0  0  0  0  0  0  0  0  0  0  0  0
    1.9360    0.0078   -2.0799 H   0  0  0  0  0  0  0  0  0  0  0  0
    1.5483   -1.5934   -1.4473 H   0  0  0  0  0  0  0  0  0  0  0  0
    0.4153   -1.3394   -3.5122 H   0  0  0  0  0  0  0  0  0  0  0  0
   -0.7960   -1.3656   -2.2304 H   0  0  0  0  0  0  0  0  0  0  0  0
   -1.7916    1.4098   -4.2828 H   0  0  0  0  0  0  0  0  0  0  0  0
   -1.1577   -0.1124   -4.9351 H   0  0  0  0  0  0  0  0  0  0  0  0
   -2.3517   -0.1389   -3.6274 H   0  0  0  0  0  0  0  0  0  0  0  0
  1  2  1  0
  1 11  1  0
  1 12  1  0
  1 13  1  0
  2  3  1  0
  2 14  1  0
  2 15  1  0
  3  4  1  0
  4  5  1  0
  4 16  1  0
  4 17  1  0
  5  6  1  0
  5 18  1  0
  5 19  1  0
  6  7  1  0
  7  8  1  0
  7 20  1  0
  7 21  1  0
  8  9  1  0
  8 22  1  0
  8 23  1  0
  9 10  1  0
 10 24  1  0
 10 25  1  0
 10 26  1  0
M  END
