
     RDKit          3D

 43 42  0  0  0  0  0  0  0  0999 V2000
   -1.5717   -0.4591   -6.7786 C   0  0  0  0  0  0  0  0  0  0  0  0
   -0.7604   -1.3811   -5.8960 C   0  0  0  0  0  0  0  0  0  0  0  0
    0.0792   -0.6116   -5.0662 O   0  0  0  0  0  0  0  0  0  0  0  0
    0.8485   -1.3974   -4.1937 C   0  0  0  0  0  0  0  0  0  0  0  0
    1.7400   -0.5156   -3.3569 C   0  0  0  0  0  0  0  0  0  0  0  0
    0.9579    0.3058   -2.5278 O   0  0  0  0  0  0  0  0  0  0  0  0
    1.7343    1.1064   -1.6741 C   0  0  0  0  0  0  0  0  0  0  0  0
    0.8404    2.0065   -0.8603 C   0  0  0  0  0  0  0  0  0  0  0  0
    0.0213    1.2346   -0.0200 O   0  0  0  0  0  0  0  0  0  0  0  0
   -0.7915    2.0213    0.8128 C   0  0  0  0  0  0  0  0  0  0  0  0
   -1.6946    1.1367    1.6333 C   0  0  0  0  0  0  0  0  0  0  0  0
   -0.9268    0.3377    2.4960 O   0  0  0  0  0  0  0  0  0  0  0  0
   -1.7173   -0.4712    3.3293 C   0  0  0  0  0  0  0  0  0  0  0  0
   -0.8348   -1.3532    4.1751 C   0  0  0  0  0  0  0  0  0  0  0  0
   -0.0628   -0.5668    5.0446 O   0  0  0  0  0  0  0  0  0  0  0  0
    0.7725   -1.3363    5.8788 C   0  0  0  0  0  0  0  0  0  0  0  0
    1.5857   -0.4141    6.7594 C   0  0  0  0  0  0  0  0  0  0  0  0
   -2.2181   -1.0466   -7.4303 H   0  0  0  0  0  0  0  0  0  0  0  0
   -2.2059    0.2022   -6.1873 H   0  0  0  0  0  0  0  0  0  0  0  0
   -0.9289    0.1540   -7.4109 H   0  0  0  0  0  0  0  0  0  0  0  0
   -0.1646   -2.0667   -6.5149 H   0  0  0  0  0  0  0  0  0  0  0  0
   -1.4299   -2.0069   -5.2898 H   0  0  0  0  0  0  0  0  0  0  0  0
    1.4897   -2.0969   -4.7487 H   0  0  0  0  0  0  0  0  0  0  0  0
    0.2062   -2.0064   -3.5410 H   0  0  0  0  0  0  0  0  0  0  0  0
    2.3908    0.0871   -4.0069 H   0  0  0  0  0  0  0  0  0  0  0  0
    2.3979   -1.1659   -2.7637 H   0  0  0  0  0  0  0  0  0  0  0  0
    2.4245    1.7433   -2.2450 H   0  0  0  0  0  0  0  0  0  0  0  0
    2.3514    0.4872   -1.0071 H   0  0  0  0  0  0  0  0  0  0  0  0
    0.2358    2.6383   -1.5268 H   0  0  0  0  0  0  0  0  0  0  0  0
    1.4824    2.6821   -0.2779 H   0  0  0  0  0  0  0  0  0  0  0  0
   -1.4264    2.6979    0.2238 H   0  0  0  0  0  0  0  0  0  0  0  0
   -0.1818    2.6535    1.4743 H   0  0  0  0  0  0  0  0  0  0  0  0
   -2.3155    0.5165    0.9706 H   0  0  0  0  0  0  0  0  0  0  0  0
   -2.3808    1.7845    2.1966 H   0  0  0  0  0  0  0  0  0  0  0  0
   -2.3786   -1.1210    2.7393 H   0  0  0  0  0  0  0  0  0  0  0  0
   -2.3653    0.1414    3.9729 H   0  0  0  0  0  0  0  0  0  0  0  0
   -0.1950   -1.9714    3.5286 H   0  0  0  0  0  0  0  0  0  0  0  0
   -1.4827   -2.0442    4.7331 H   0  0  0  0  0  0  0  0  0  0  0  0
    1.4407   -1.9666    5.2758 H   0  0  0  0  0  0  0  0  0  0  0  0
    0.1731   -2.0176    6.4990 H   0  0  0  0  0  0  0  0  0  0  0  0
    2.2297   -1.0017    7.4133 H   0  0  0  0  0  0  0  0  0  0  0  0
    2.2222    0.2436    6.1666 H   0  0  0  0  0  0  0  0  0  0  0  0
    0.9440    0.2026    7.3893 H   0  0  0  0  0  0  0  0  0  0  0  0
  1  2  1  0
  1 18  1  0
  1 19  1  0
  1 20  1  0
  2  3  1  0
  2 21  1  0
  2 22  1  0
  3  4  1  0
  4  5  1  0
  4 23  1  0
  4 24  1  0
  5  6  1  0
  5 25  1  0
  5 26  1  0
  6  7  1  0
  7  8  1  0
  7 27  1  0
  7 28  1  0
  8  9  1  0
  8 29  1  0
  8 30  1  0
  9 10  1  0
 10 11  1  0
 10 31  1  0
 10 32  1  0
 11 12  1  0
 11 33  1  0
 11 34  1  0
 12 13  1  0
 13 14  1  0
 13 35  1  0
 13 36  1  0
 14 15  1  0
 14 37  1  0
 14 38  1  0
 15 16  1  0
 16 17  1  0
 16 39  1  0
 16 40  1  0
 17 41  1  0
 17 42  1  0
 17 43  1  0
M  END
