
     RDKit          3D

 19 19  0  0  0  0  0  0  0  0999 V2000
    4.3627   -0.7597    0.1501 O   0  0  0  0  0  0  0  0  0  0  0  0
    3.8804    0.3339    0.0119 C   0  0  0  0  0  0  0  0  0  0  0  0
    4.5745    1.4429   -0.1754 O   0  0  0  0  0  0  0  0  0  0  0  0
    2.4018    0.6190    0.0384 C   0  0  0  0  0  0  0  0  0  0  0  0
    1.5324   -0.9473    0.2569 S   0  0  0  0  0  0  0  0  0  0  0  0
   -0.1546   -0.4602    0.1229 C   0  0  0  0  0  0  0  0  0  0  0  0
   -1.0889   -1.4919    0.0091 C   0  0  0  0  0  0  0  0  0  0  0  0
   -2.4412   -1.2142   -0.0812 C   0  0  0  0  0  0  0  0  0  0  0  0
   -2.8692    0.1055   -0.0648 C   0  0  0  0  0  0  0  0  0  0  0  0
   -4.5616    0.4565   -0.1881 Cl  0  0  0  0  0  0  0  0  0  0  0  0
   -1.9587    1.1415    0.0453 C   0  0  0  0  0  0  0  0  0  0  0  0
   -0.6032    0.8573    0.1436 C   0  0  0  0  0  0  0  0  0  0  0  0
    5.5245    1.2491   -0.1819 H   0  0  0  0  0  0  0  0  0  0  0  0
    2.1908    1.3147    0.8537 H   0  0  0  0  0  0  0  0  0  0  0  0
    2.1027    1.1013   -0.8951 H   0  0  0  0  0  0  0  0  0  0  0  0
   -0.7634   -2.5247   -0.0162 H   0  0  0  0  0  0  0  0  0  0  0  0
   -3.1528   -2.0234   -0.1710 H   0  0  0  0  0  0  0  0  0  0  0  0
   -2.2920    2.1705    0.0601 H   0  0  0  0  0  0  0  0  0  0  0  0
    0.0844    1.6853    0.2369 H   0  0  0  0  0  0  0  0  0  0  0  0
  4  5  1  0
  4  2  1  0
  5  6  1  0
 12  6  2  0
 12 11  1  0
  6  7  1  0
  2  1  2  0
  2  3  1  0
 11  9  2  0
  7  8  2  0
  9  8  1  0
  9 10  1  0
  3 13  1  0
  4 14  1  0
  4 15  1  0
  7 16  1  0
  8 17  1  0
 11 18  1  0
 12 19  1  0
M  END
