
     RDKit          3D

 41 41  0  0  0  0  0  0  0  0999 V2000
   -3.0020   -0.6986   -2.7861 C   0  0  0  0  0  0  0  0  0  0  0  0
   -2.1202    0.1270   -2.2341 C   0  0  0  0  0  0  0  0  0  0  0  0
   -0.7444   -0.2538   -1.7881 C   0  0  0  0  0  0  0  0  0  0  0  0
   -0.5496   -0.0506   -0.2854 C   0  0  0  0  0  0  0  0  0  0  0  0
    0.8861   -0.3008    0.1555 C   0  0  0  0  0  0  0  0  0  0  0  0
    1.0538   -0.0847    1.6593 C   0  0  0  0  0  0  0  0  0  0  0  0
    2.7604   -0.2718    2.1991 P   0  0  1  0  0  0  0  0  0  0  0  0
    3.3830   -1.5946    1.9522 O   0  0  0  0  0  0  0  0  0  0  0  0
    3.6289    0.8566    1.4444 O   0  0  0  0  0  0  0  0  0  0  0  0
    3.3238    2.2457    1.5236 C   0  0  0  0  0  0  0  0  0  0  0  0
    3.8413    2.9295    0.2794 C   0  0  2  0  0  0  0  0  0  0  0  0
    3.5459    4.4360    0.2997 C   0  0  0  0  0  0  0  0  0  0  0  0
    3.1929    2.4689   -0.8883 O   0  0  0  0  0  0  0  0  0  0  0  0
    2.4758    3.5389   -1.4832 C   0  0  1  0  0  0  0  0  0  0  0  0
    3.1089    4.7052   -1.0116 O   0  0  0  0  0  0  0  0  0  0  0  0
    2.6274    3.4564   -2.9894 C   0  0  0  0  0  0  0  0  0  0  0  0
    1.0097    3.4986   -1.0622 C   0  0  0  0  0  0  0  0  0  0  0  0
    2.6631    0.1931    3.7355 O   0  0  0  0  0  0  0  0  0  0  0  0
   -3.9879   -0.3641   -3.0802 H   0  0  0  0  0  0  0  0  0  0  0  0
   -2.7683   -1.7415   -2.9677 H   0  0  0  0  0  0  0  0  0  0  0  0
   -2.4009    1.1647   -2.0683 H   0  0  0  0  0  0  0  0  0  0  0  0
   -0.5357   -1.2933   -2.0557 H   0  0  0  0  0  0  0  0  0  0  0  0
   -0.0107    0.3596   -2.3244 H   0  0  0  0  0  0  0  0  0  0  0  0
   -1.2296   -0.7113    0.2601 H   0  0  0  0  0  0  0  0  0  0  0  0
   -0.8350    0.9726   -0.0163 H   0  0  0  0  0  0  0  0  0  0  0  0
    1.1836   -1.3201   -0.1057 H   0  0  0  0  0  0  0  0  0  0  0  0
    1.5502    0.3703   -0.3949 H   0  0  0  0  0  0  0  0  0  0  0  0
    0.6779    0.9008    1.9468 H   0  0  0  0  0  0  0  0  0  0  0  0
    0.4593   -0.8122    2.2187 H   0  0  0  0  0  0  0  0  0  0  0  0
    2.2468    2.4175    1.6188 H   0  0  0  0  0  0  0  0  0  0  0  0
    3.8070    2.6810    2.4033 H   0  0  0  0  0  0  0  0  0  0  0  0
    4.9157    2.7393    0.1818 H   0  0  0  0  0  0  0  0  0  0  0  0
    2.7776    4.6857    1.0435 H   0  0  0  0  0  0  0  0  0  0  0  0
    4.4295    5.0362    0.5140 H   0  0  0  0  0  0  0  0  0  0  0  0
    2.1128    4.2868   -3.4725 H   0  0  0  0  0  0  0  0  0  0  0  0
    3.6783    3.4818   -3.2790 H   0  0  0  0  0  0  0  0  0  0  0  0
    2.1869    2.5318   -3.3622 H   0  0  0  0  0  0  0  0  0  0  0  0
    0.5543    2.5577   -1.3724 H   0  0  0  0  0  0  0  0  0  0  0  0
    0.8846    3.5874    0.0188 H   0  0  0  0  0  0  0  0  0  0  0  0
    0.4543    4.3107   -1.5322 H   0  0  0  0  0  0  0  0  0  0  0  0
    3.4547    0.0069    4.2595 H   0  0  0  0  0  0  0  0  0  0  0  0
  1  2  2  0
  1 19  1  0
  1 20  1  0
  2  3  1  0
  2 21  1  0
  3  4  1  0
  3 22  1  0
  3 23  1  0
  4  5  1  0
  4 24  1  0
  4 25  1  0
  5  6  1  0
  5 26  1  0
  5 27  1  0
  6  7  1  0
  6 28  1  0
  6 29  1  0
  7  8  2  0
  7  9  1  6
  7 18  1  0
  9 10  1  0
 10 11  1  0
 10 30  1  0
 10 31  1  0
 11 12  1  0
 11 13  1  0
 11 32  1  6
 12 15  1  0
 12 33  1  0
 12 34  1  0
 13 14  1  0
 14 15  1  0
 14 16  1  6
 14 17  1  0
 16 35  1  0
 16 36  1  0
 16 37  1  0
 17 38  1  0
 17 39  1  0
 17 40  1  0
 18 41  1  0
M  END
