
     RDKit          3D

 39 41  0  0  0  0  0  0  0  0999 V2000
   -0.8134   -0.1145    0.2422 C   0  0  0  0  0  0  0  0  0  0  0  0
   -0.0046   -1.2482    0.4136 C   0  0  0  0  0  0  0  0  0  0  0  0
   -2.1405   -0.6137    0.3951 C   0  0  0  0  0  0  0  0  0  0  0  0
   -0.2207    1.1249   -0.0242 C   0  0  0  0  0  0  0  0  0  0  0  0
    1.3893   -1.1850    0.3406 C   0  0  0  0  0  0  0  0  0  0  0  0
   -0.8480   -2.2760    0.6430 N   0  0  0  0  0  0  0  0  0  0  0  0
   -2.1374   -1.8986    0.6349 N   0  0  0  0  0  0  0  0  0  0  0  0
   -3.2799    0.1696    0.3150 N   0  0  0  0  0  0  0  0  0  0  0  0
    1.1493    1.1896   -0.1041 C   0  0  0  0  0  0  0  0  0  0  0  0
    1.9674    0.0440    0.0778 C   0  0  0  0  0  0  0  0  0  0  0  0
   -4.5669   -0.2525    0.1541 C   0  0  0  0  0  0  0  0  0  0  0  0
    3.4351    0.1669   -0.0168 C   0  0  0  0  0  0  0  0  0  0  0  0
   -5.5742    0.8766    0.1367 C   0  0  0  0  0  0  0  0  0  0  0  0
   -4.8713   -1.4232    0.0511 O   0  0  0  0  0  0  0  0  0  0  0  0
    4.0994    1.3014    0.4484 C   0  0  0  0  0  0  0  0  0  0  0  0
    4.2122   -0.8549   -0.5680 C   0  0  0  0  0  0  0  0  0  0  0  0
   -6.9485    0.4610   -0.3638 C   0  0  0  0  0  0  0  0  0  0  0  0
    5.4783    1.4138    0.3765 C   0  0  0  0  0  0  0  0  0  0  0  0
    5.5894   -0.7572   -0.6477 C   0  0  0  0  0  0  0  0  0  0  0  0
   -7.9291    1.6249   -0.3503 C   0  0  0  0  0  0  0  0  0  0  0  0
    6.2356    0.3823   -0.1722 C   0  0  0  0  0  0  0  0  0  0  0  0
    7.5774    0.4325   -0.2679 O   0  0  0  0  0  0  0  0  0  0  0  0
   -0.8167    2.0154   -0.1810 H   0  0  0  0  0  0  0  0  0  0  0  0
    1.9939   -2.0671    0.5072 H   0  0  0  0  0  0  0  0  0  0  0  0
   -3.1264    1.1650    0.3557 H   0  0  0  0  0  0  0  0  0  0  0  0
    1.6161    2.1372   -0.3384 H   0  0  0  0  0  0  0  0  0  0  0  0
   -5.6497    1.2696    1.1572 H   0  0  0  0  0  0  0  0  0  0  0  0
   -5.1871    1.7033   -0.4671 H   0  0  0  0  0  0  0  0  0  0  0  0
    3.5391    2.1110    0.8987 H   0  0  0  0  0  0  0  0  0  0  0  0
    3.7327   -1.7410   -0.9645 H   0  0  0  0  0  0  0  0  0  0  0  0
   -6.8645    0.0632   -1.3777 H   0  0  0  0  0  0  0  0  0  0  0  0
   -7.3356   -0.3511    0.2541 H   0  0  0  0  0  0  0  0  0  0  0  0
    5.9628    2.3044    0.7601 H   0  0  0  0  0  0  0  0  0  0  0  0
    6.1672   -1.5603   -1.0878 H   0  0  0  0  0  0  0  0  0  0  0  0
   -8.0719    2.0127    0.6598 H   0  0  0  0  0  0  0  0  0  0  0  0
   -7.5790    2.4506   -0.9725 H   0  0  0  0  0  0  0  0  0  0  0  0
   -8.9053    1.3198   -0.7276 H   0  0  0  0  0  0  0  0  0  0  0  0
    7.9107    1.2630    0.0890 H   0  0  0  0  0  0  0  0  0  0  0  0
   -0.6197   -3.2442    0.7916 H   0  0  0  0  0  0  0  0  0  0  0  0
  1  2  2  0
  1  4  1  0
  1  3  1  0
  5  2  1  0
  2  6  1  0
  7  3  2  0
  3  8  1  0
  9  4  2  0
  4 23  1  0
  5 10  2  0
  5 24  1  0
  6  7  1  0
  8 11  1  0
  8 25  1  0
 10  9  1  0
  9 26  1  0
 12 10  1  0
 14 11  2  0
 11 13  1  0
 15 12  2  0
 16 12  1  0
 13 17  1  0
 13 27  1  0
 13 28  1  0
 18 15  1  0
 15 29  1  0
 19 16  2  0
 16 30  1  0
 17 20  1  0
 17 31  1  0
 17 32  1  0
 21 18  2  0
 18 33  1  0
 21 19  1  0
 19 34  1  0
 20 35  1  0
 20 36  1  0
 20 37  1  0
 22 21  1  0
 22 38  1  0
  6 39  1  0
M  END
