
     RDKit          3D

 33 34  0  0  0  0  0  0  0  0999 V2000
    1.6539   -0.2738   -2.2996 C   0  0  0  0  0  0  0  0  0  0  0  0
   -0.2498    0.2655   -1.3116 C   0  0  0  0  0  0  0  0  0  0  0  0
   -1.0458    0.0118   -2.4156 C   0  0  0  0  0  0  0  0  0  0  0  0
   -0.1268   -1.2248    4.1163 C   0  0  0  0  0  0  0  0  0  0  0  0
   -0.2285   -1.0004    5.5058 O   0  0  0  0  0  0  0  0  0  0  0  0
    0.6148    1.1616    3.7073 C   0  0  0  0  0  0  0  0  0  0  0  0
    1.8871    0.7791    3.2329 O   0  0  0  0  0  0  0  0  0  0  0  0
   -0.3956    0.0747    3.3684 C   0  0  1  0  0  0  0  0  0  0  0  0
   -0.4808   -0.2212    1.8692 C   0  0  0  0  0  0  0  0  0  0  0  0
   -1.1019    0.6787   -0.3402 N   0  0  0  0  0  0  0  0  0  0  0  0
    1.0814    0.1446   -1.1994 N   0  0  0  0  0  0  0  0  0  0  0  0
    2.9777   -0.4871   -2.3272 N   0  0  0  0  0  0  0  0  0  0  0  0
    0.9597   -0.5475   -3.4446 N   0  0  0  0  0  0  0  0  0  0  0  0
   -0.4253   -0.4323   -3.6181 C   0  0  0  0  0  0  0  0  0  0  0  0
   -0.9406   -0.7000   -4.6920 O   0  0  0  0  0  0  0  0  0  0  0  0
   -2.3629    0.2598   -2.1293 N   0  0  0  0  0  0  0  0  0  0  0  0
   -2.3552    0.6486   -0.8897 C   0  0  0  0  0  0  0  0  0  0  0  0
   -0.8556   -1.9777    3.7851 H   0  0  0  0  0  0  0  0  0  0  0  0
    0.8653   -1.6059    3.8448 H   0  0  0  0  0  0  0  0  0  0  0  0
    0.1220   -1.7712    5.9599 H   0  0  0  0  0  0  0  0  0  0  0  0
    0.2909    2.1095    3.2583 H   0  0  0  0  0  0  0  0  0  0  0  0
    0.6205    1.3203    4.7919 H   0  0  0  0  0  0  0  0  0  0  0  0
    2.5163    1.4640    3.4748 H   0  0  0  0  0  0  0  0  0  0  0  0
   -1.3748    0.4518    3.6888 H   0  0  0  0  0  0  0  0  0  0  0  0
   -1.2852   -0.9428    1.7023 H   0  0  0  0  0  0  0  0  0  0  0  0
    0.4415   -0.6908    1.5202 H   0  0  0  0  0  0  0  0  0  0  0  0
    0.1050    1.6809    1.0033 H   0  0  0  0  0  0  0  0  0  0  0  0
   -1.5951    1.5854    1.4391 H   0  0  0  0  0  0  0  0  0  0  0  0
    3.5230   -0.1461   -1.5540 H   0  0  0  0  0  0  0  0  0  0  0  0
    3.4653   -0.6231   -3.1958 H   0  0  0  0  0  0  0  0  0  0  0  0
    1.4774   -0.8626   -4.2554 H   0  0  0  0  0  0  0  0  0  0  0  0
   -3.2229    0.9347   -0.3139 H   0  0  0  0  0  0  0  0  0  0  0  0
   -0.7593    1.0180    1.0274 C   0  0  0  0  0  0  0  0  0  0  0  0
  1 11  2  0
  1 12  1  0
  1 13  1  0
  2  3  2  0
  2 10  1  0
  2 11  1  0
  3 14  1  0
  3 16  1  0
  4  5  1  0
  4  8  1  0
  4 18  1  0
  4 19  1  0
  5 20  1  0
  6  7  1  0
  6  8  1  0
  6 21  1  0
  6 22  1  0
  7 23  1  0
  8  9  1  0
  8 24  1  1
  9 33  1  0
  9 25  1  0
  9 26  1  0
 33 10  1  0
 33 27  1  0
 33 28  1  0
 10 17  1  0
 12 29  1  0
 12 30  1  0
 13 14  1  0
 13 31  1  0
 14 15  2  0
 16 17  2  0
 17 32  1  0
M  END
