
     RDKit          3D

 47 50  0  0  0  0  0  0  0  0999 V2000
    2.0738    0.7298    0.2546 N   0  0  0  0  0  0  0  0  0  0  0  0
    0.6786    0.5073    0.2297 C   0  0  0  0  0  0  0  0  0  0  0  0
    2.7435    1.8626    0.5948 C   0  0  0  0  0  0  0  0  0  0  0  0
    2.8915   -0.2849   -0.0285 N   0  0  0  0  0  0  0  0  0  0  0  0
   -0.1623    1.3344   -0.4986 C   0  0  0  0  0  0  0  0  0  0  0  0
    0.1462   -0.5662    0.9329 C   0  0  0  0  0  0  0  0  0  0  0  0
    4.0783    1.5450    0.5055 C   0  0  0  0  0  0  0  0  0  0  0  0
    2.1045    3.1479    1.0002 C   0  0  0  0  0  0  0  0  0  0  0  0
    4.1152    0.1923    0.1140 C   0  0  0  0  0  0  0  0  0  0  0  0
   -1.5310    1.1130   -0.5198 C   0  0  0  0  0  0  0  0  0  0  0  0
   -1.2140   -0.8021    0.9000 C   0  0  0  0  0  0  0  0  0  0  0  0
    2.1664    4.2146   -0.0918 C   0  0  0  0  0  0  0  0  0  0  0  0
    5.2786   -0.6606   -0.1253 C   0  0  0  0  0  0  0  0  0  0  0  0
   -2.0699    0.0334    0.1786 C   0  0  0  0  0  0  0  0  0  0  0  0
    5.1451   -2.0048   -0.4708 C   0  0  0  0  0  0  0  0  0  0  0  0
    6.5752   -0.1595   -0.0157 C   0  0  0  0  0  0  0  0  0  0  0  0
   -3.4353   -0.2620    0.2279 N   0  0  0  0  0  0  0  0  0  0  0  0
    6.2813   -2.7645   -0.6820 C   0  0  0  0  0  0  0  0  0  0  0  0
    7.6687   -0.8815   -0.2163 N   0  0  0  0  0  0  0  0  0  0  0  0
   -4.3990    0.1067   -0.6539 C   0  0  0  0  0  0  0  0  0  0  0  0
    7.5226   -2.1600   -0.5428 C   0  0  0  0  0  0  0  0  0  0  0  0
   -5.7713   -0.3769   -0.3262 C   0  0  0  0  0  0  0  0  0  0  0  0
   -4.1912    0.7697   -1.6535 O   0  0  0  0  0  0  0  0  0  0  0  0
   -6.6740   -0.5875   -1.3642 C   0  0  0  0  0  0  0  0  0  0  0  0
   -6.2185   -0.5795    0.9769 C   0  0  0  0  0  0  0  0  0  0  0  0
   -7.9515   -1.0198   -1.0605 C   0  0  0  0  0  0  0  0  0  0  0  0
   -7.4461   -0.9817    1.2747 N   0  0  0  0  0  0  0  0  0  0  0  0
   -8.2880   -1.2053    0.2734 C   0  0  0  0  0  0  0  0  0  0  0  0
    0.2406    2.1573   -1.0741 H   0  0  0  0  0  0  0  0  0  0  0  0
    0.7925   -1.2189    1.5039 H   0  0  0  0  0  0  0  0  0  0  0  0
    4.9030    2.2078    0.7123 H   0  0  0  0  0  0  0  0  0  0  0  0
    1.0695    2.9801    1.3022 H   0  0  0  0  0  0  0  0  0  0  0  0
    2.6240    3.5136    1.8876 H   0  0  0  0  0  0  0  0  0  0  0  0
   -2.1564    1.7819   -1.0873 H   0  0  0  0  0  0  0  0  0  0  0  0
   -1.6186   -1.6457    1.4461 H   0  0  0  0  0  0  0  0  0  0  0  0
    3.1980    4.4439   -0.3576 H   0  0  0  0  0  0  0  0  0  0  0  0
    1.6543    3.8944   -0.9993 H   0  0  0  0  0  0  0  0  0  0  0  0
    1.6946    5.1357    0.2492 H   0  0  0  0  0  0  0  0  0  0  0  0
    4.1634   -2.4482   -0.5735 H   0  0  0  0  0  0  0  0  0  0  0  0
    6.7375    0.8807    0.2467 H   0  0  0  0  0  0  0  0  0  0  0  0
   -3.6932   -0.9396    0.9298 H   0  0  0  0  0  0  0  0  0  0  0  0
    6.2101   -3.8099   -0.9492 H   0  0  0  0  0  0  0  0  0  0  0  0
    8.4315   -2.7294   -0.7013 H   0  0  0  0  0  0  0  0  0  0  0  0
   -6.3763   -0.4266   -2.3917 H   0  0  0  0  0  0  0  0  0  0  0  0
   -5.5694   -0.3839    1.8244 H   0  0  0  0  0  0  0  0  0  0  0  0
   -8.6777   -1.2087   -1.8384 H   0  0  0  0  0  0  0  0  0  0  0  0
   -9.2817   -1.5436    0.5433 H   0  0  0  0  0  0  0  0  0  0  0  0
  1  2  1  0
  1  3  1  0
  1  4  1  0
  2  5  2  0
  2  6  1  0
  3  7  2  0
  3  8  1  0
  4  9  2  0
  5 10  1  0
  6 11  2  0
  7  9  1  0
  8 12  1  0
  9 13  1  0
 10 14  2  0
 11 14  1  0
 13 15  2  0
 13 16  1  0
 14 17  1  0
 15 18  1  0
 16 19  2  0
 17 20  1  0
 18 21  2  0
 19 21  1  0
 20 22  1  0
 20 23  2  0
 22 24  2  0
 22 25  1  0
 24 26  1  0
 25 27  2  0
 26 28  2  0
 27 28  1  0
  5 29  1  0
  6 30  1  0
  7 31  1  0
  8 32  1  0
  8 33  1  0
 10 34  1  0
 11 35  1  0
 12 36  1  0
 12 37  1  0
 12 38  1  0
 15 39  1  0
 16 40  1  0
 17 41  1  0
 18 42  1  0
 21 43  1  0
 24 44  1  0
 25 45  1  0
 26 46  1  0
 28 47  1  0
M  END
