
     RDKit          3D

 48 51  0  0  0  0  0  0  0  0999 V2000
   -2.0763    3.6611    0.0595 N   0  0  0  0  0  0  0  0  0  0  0  0
   -0.7308    3.6025    0.0196 C   0  0  0  0  0  0  0  0  0  0  0  0
    0.0016    2.4942   -0.0262 N   0  0  0  0  0  0  0  0  0  0  0  0
   -0.6467    1.3407   -0.0392 C   0  0  0  0  0  0  0  0  0  0  0  0
   -2.0502    1.2829   -0.0067 C   0  0  0  0  0  0  0  0  0  0  0  0
   -2.7250    2.5188    0.0451 C   0  0  0  0  0  0  0  0  0  0  0  0
    0.0834    0.1763   -0.0831 N   0  0  0  0  0  0  0  0  0  0  0  0
   -0.5177   -1.0830   -0.0989 C   0  0  0  0  0  0  0  0  0  0  0  0
   -1.9769   -1.1276   -0.0966 C   0  0  0  0  0  0  0  0  0  0  0  0
   -2.6896    0.0215   -0.0429 C   0  0  0  0  0  0  0  0  0  0  0  0
   -0.0833    4.7707    0.0240 N   0  0  0  0  0  0  0  0  0  0  0  0
   -4.2185    2.5743    0.0862 C   0  0  0  0  0  0  0  0  0  0  0  0
    0.1666   -2.0921   -0.1052 O   0  0  0  0  0  0  0  0  0  0  0  0
    1.5588    0.2673   -0.0948 C   0  0  2  0  0  0  0  0  0  0  0  0
    2.1931   -0.2797   -1.3704 C   0  0  0  0  0  0  0  0  0  0  0  0
    3.6867    0.0380   -1.3697 C   0  0  0  0  0  0  0  0  0  0  0  0
    4.3674   -0.5191   -0.1280 C   0  0  2  0  0  0  0  0  0  0  0  0
    3.7084    0.0205    1.1398 C   0  0  0  0  0  0  0  0  0  0  0  0
    2.2146   -0.2994    1.1612 C   0  0  0  0  0  0  0  0  0  0  0  0
    5.7392   -0.1944   -0.2075 O   0  0  0  0  0  0  0  0  0  0  0  0
   -2.6601   -2.4232   -0.1044 C   0  0  0  0  0  0  0  0  0  0  0  0
   -3.8155   -2.7608    0.6338 C   0  0  0  0  0  0  0  0  0  0  0  0
   -4.1003   -4.0513    0.2604 C   0  0  0  0  0  0  0  0  0  0  0  0
   -3.1567   -4.3984   -0.6297 N   0  0  0  0  0  0  0  0  0  0  0  0
   -2.2767   -3.4373   -0.8667 N   0  0  0  0  0  0  0  0  0  0  0  0
    6.5651   -0.9385    0.6519 C   0  0  0  0  0  0  0  0  0  0  0  0
   -3.7714   -0.0232   -0.0441 H   0  0  0  0  0  0  0  0  0  0  0  0
   -0.5926    5.6343    0.0856 H   0  0  0  0  0  0  0  0  0  0  0  0
    0.9208    4.7990    0.0217 H   0  0  0  0  0  0  0  0  0  0  0  0
   -4.6512    2.1480   -0.8206 H   0  0  0  0  0  0  0  0  0  0  0  0
   -4.6124    2.0049    0.9290 H   0  0  0  0  0  0  0  0  0  0  0  0
   -4.5542    3.6042    0.1764 H   0  0  0  0  0  0  0  0  0  0  0  0
    1.7569    1.3372   -0.0879 H   0  0  0  0  0  0  0  0  0  0  0  0
    2.0506   -1.3571   -1.4509 H   0  0  0  0  0  0  0  0  0  0  0  0
    1.7192    0.1753   -2.2432 H   0  0  0  0  0  0  0  0  0  0  0  0
    4.1504   -0.3840   -2.2644 H   0  0  0  0  0  0  0  0  0  0  0  0
    3.8379    1.1222   -1.4127 H   0  0  0  0  0  0  0  0  0  0  0  0
    4.2488   -1.6164   -0.1348 H   0  0  0  0  0  0  0  0  0  0  0  0
    4.1756   -0.4069    2.0300 H   0  0  0  0  0  0  0  0  0  0  0  0
    3.8610    1.1043    1.1902 H   0  0  0  0  0  0  0  0  0  0  0  0
    1.7561    0.1423    2.0489 H   0  0  0  0  0  0  0  0  0  0  0  0
    2.0735   -1.3779    1.2285 H   0  0  0  0  0  0  0  0  0  0  0  0
   -4.3444   -2.1529    1.3485 H   0  0  0  0  0  0  0  0  0  0  0  0
   -4.8786   -4.7319    0.5635 H   0  0  0  0  0  0  0  0  0  0  0  0
    6.4015   -0.7111    1.7108 H   0  0  0  0  0  0  0  0  0  0  0  0
    6.4275   -2.0181    0.5163 H   0  0  0  0  0  0  0  0  0  0  0  0
    7.6000   -0.6942    0.4136 H   0  0  0  0  0  0  0  0  0  0  0  0
   -3.0671   -5.2830   -1.1036 H   0  0  0  0  0  0  0  0  0  0  0  0
  1  6  2  0
  1  2  1  0
 11  2  1  0
  2  3  2  0
  3  4  1  0
  5  4  2  0
  4  7  1  0
  6  5  1  0
  5 10  1  0
 12  6  1  0
  7  8  1  0
  7 14  1  0
  9  8  1  0
  8 13  2  0
 10  9  2  0
  9 21  1  0
 10 27  1  0
 11 28  1  0
 11 29  1  0
 12 30  1  0
 12 31  1  0
 12 32  1  0
 19 14  1  0
 14 15  1  0
 14 33  1  1
 15 16  1  0
 15 34  1  0
 15 35  1  0
 17 16  1  0
 16 36  1  0
 16 37  1  0
 18 17  1  0
 17 20  1  0
 17 38  1  1
 19 18  1  0
 18 39  1  0
 18 40  1  0
 19 41  1  0
 19 42  1  0
 20 26  1  0
 22 21  1  0
 21 25  2  0
 22 23  2  0
 22 43  1  0
 23 24  1  0
 23 44  1  0
 25 24  1  0
 26 45  1  0
 26 46  1  0
 26 47  1  0
 24 48  1  0
M  END
