
     RDKit          3D

 29 31  0  0  0  0  0  0  0  0999 V2000
    2.1534   -1.2781   -0.0246 C   0  0  0  0  0  0  0  0  0  0  0  0
    1.2644   -2.1139    0.6389 C   0  0  0  0  0  0  0  0  0  0  0  0
    1.0998   -2.0114    2.0118 C   0  0  0  0  0  0  0  0  0  0  0  0
    1.8321   -1.0724    2.7401 C   0  0  0  0  0  0  0  0  0  0  0  0
    2.7210   -0.2333    2.0662 C   0  0  0  0  0  0  0  0  0  0  0  0
    2.8779   -0.3351    0.6922 C   0  0  0  0  0  0  0  0  0  0  0  0
    1.6607   -0.9526    4.1892 C   0  0  0  0  0  0  0  0  0  0  0  0
    1.3826   -2.1859    7.6288 N   0  0  0  0  0  0  0  0  0  0  0  0
    0.5868   -3.8078    9.1738 N   0  0  0  0  0  0  0  0  0  0  0  0
    1.4494   -1.3972    6.4726 C   0  0  0  0  0  0  0  0  0  0  0  0
    1.6259   -1.9147    5.1538 C   0  0  0  0  0  0  0  0  0  0  0  0
    1.3458   -0.0399    6.4835 C   0  0  0  0  0  0  0  0  0  0  0  0
    1.4556    0.6039    4.9125 S   0  0  0  0  0  0  0  0  0  0  0  0
    2.5181   -2.8844    8.2034 C   0  0  0  0  0  0  0  0  0  0  0  0
    1.9522   -3.8559    9.2098 C   0  0  0  0  0  0  0  0  0  0  0  0
    2.6003   -4.5667    9.9328 O   0  0  0  0  0  0  0  0  0  0  0  0
   -0.1000   -2.7235    8.1109 S   0  0  1  0  0  0  0  0  0  0  0  0
   -0.8302   -1.7022    8.8266 O   0  0  0  0  0  0  0  0  0  0  0  0
   -0.8012   -3.4014    7.0440 O   0  0  0  0  0  0  0  0  0  0  0  0
    1.8279   -3.5918    4.8701 Cl  0  0  0  0  0  0  0  0  0  0  0  0
    2.2790   -1.3598   -1.0963 H   0  0  0  0  0  0  0  0  0  0  0  0
    0.6902   -2.8446    0.0848 H   0  0  0  0  0  0  0  0  0  0  0  0
    0.3841   -2.6497    2.5124 H   0  0  0  0  0  0  0  0  0  0  0  0
    3.3044    0.4933    2.6187 H   0  0  0  0  0  0  0  0  0  0  0  0
    3.5729    0.3189    0.1823 H   0  0  0  0  0  0  0  0  0  0  0  0
   -0.0012   -4.3562    9.7932 H   0  0  0  0  0  0  0  0  0  0  0  0
    1.2116    0.5987    7.3427 H   0  0  0  0  0  0  0  0  0  0  0  0
    3.1917   -2.1892    8.7071 H   0  0  0  0  0  0  0  0  0  0  0  0
    3.0847   -3.4383    7.4516 H   0  0  0  0  0  0  0  0  0  0  0  0
  1  6  2  0
  1  2  1  0
  1 21  1  0
  2  3  2  0
  2 22  1  0
  3  4  1  0
  3 23  1  0
  4  7  1  0
  4  5  2  0
  5  6  1  0
  5 24  1  0
  6 25  1  0
  7 11  2  0
  7 13  1  0
 17  8  1  6
  8 14  1  0
  8 10  1  0
  9 17  1  0
  9 15  1  0
  9 26  1  0
 10 11  1  0
 10 12  2  0
 11 20  1  0
 12 13  1  0
 12 27  1  0
 14 15  1  0
 14 28  1  0
 14 29  1  0
 15 16  2  0
 17 19  2  0
 17 18  2  0
M  END
