
     RDKit          3D

 43 46  0  0  0  0  0  0  0  0999 V2000
    5.2726   -0.3711   -0.3529 C   0  0  0  0  0  0  0  0  0  0  0  0
    4.3064   -1.3366    0.1205 N   0  0  0  0  0  0  0  0  0  0  0  0
    4.7086   -2.7024    0.3882 C   0  0  0  0  0  0  0  0  0  0  0  0
    3.0033   -1.0006    0.2120 C   0  0  0  0  0  0  0  0  0  0  0  0
    2.1604   -1.9516    0.6284 N   0  0  0  0  0  0  0  0  0  0  0  0
    0.8878   -1.6913    0.7778 N   0  0  0  0  0  0  0  0  0  0  0  0
    0.3774   -0.5063    0.5069 C   0  0  0  0  0  0  0  0  0  0  0  0
    1.1883    0.5386    0.0138 C   0  0  0  0  0  0  0  0  0  0  0  0
    0.6397    1.8533   -0.3695 C   0  0  0  0  0  0  0  0  0  0  0  0
    1.2258    3.0290    0.0858 C   0  0  0  0  0  0  0  0  0  0  0  0
    0.6923    4.2442   -0.3174 C   0  0  0  0  0  0  0  0  0  0  0  0
   -0.3536    4.3532   -1.1267 N   0  0  0  0  0  0  0  0  0  0  0  0
   -0.9070    3.2277   -1.5657 C   0  0  0  0  0  0  0  0  0  0  0  0
   -0.4568    1.9650   -1.2190 C   0  0  0  0  0  0  0  0  0  0  0  0
    2.5276    0.2853   -0.1266 C   0  0  0  0  0  0  0  0  0  0  0  0
   -1.0643   -0.3253    0.7971 C   0  0  0  0  0  0  0  0  0  0  0  0
   -2.0588   -1.0560    0.0869 C   0  0  0  0  0  0  0  0  0  0  0  0
   -1.7479   -1.9481   -0.9685 C   0  0  0  0  0  0  0  0  0  0  0  0
   -2.7371   -2.6169   -1.6375 C   0  0  0  0  0  0  0  0  0  0  0  0
   -4.0901   -2.4358   -1.2860 C   0  0  0  0  0  0  0  0  0  0  0  0
   -4.4240   -1.5732   -0.2792 C   0  0  0  0  0  0  0  0  0  0  0  0
   -3.4256   -0.8578    0.4236 C   0  0  0  0  0  0  0  0  0  0  0  0
   -3.7667    0.0576    1.4457 C   0  0  0  0  0  0  0  0  0  0  0  0
   -2.7942    0.7565    2.1038 C   0  0  0  0  0  0  0  0  0  0  0  0
   -1.4401    0.5621    1.7740 C   0  0  0  0  0  0  0  0  0  0  0  0
    5.1146   -0.0996   -1.4004 H   0  0  0  0  0  0  0  0  0  0  0  0
    5.2527    0.5434    0.2436 H   0  0  0  0  0  0  0  0  0  0  0  0
    6.2692   -0.7930   -0.2651 H   0  0  0  0  0  0  0  0  0  0  0  0
    4.4648   -3.0027    1.4078 H   0  0  0  0  0  0  0  0  0  0  0  0
    4.2304   -3.4109   -0.2909 H   0  0  0  0  0  0  0  0  0  0  0  0
    5.7842   -2.7804    0.2586 H   0  0  0  0  0  0  0  0  0  0  0  0
    2.0727    3.0070    0.7588 H   0  0  0  0  0  0  0  0  0  0  0  0
    1.1334    5.1696    0.0352 H   0  0  0  0  0  0  0  0  0  0  0  0
   -1.7570    3.3307   -2.2307 H   0  0  0  0  0  0  0  0  0  0  0  0
   -0.9509    1.0909   -1.6213 H   0  0  0  0  0  0  0  0  0  0  0  0
    3.1849    1.0468   -0.5231 H   0  0  0  0  0  0  0  0  0  0  0  0
   -0.7168   -2.1025   -1.2549 H   0  0  0  0  0  0  0  0  0  0  0  0
   -2.4810   -3.2896   -2.4457 H   0  0  0  0  0  0  0  0  0  0  0  0
   -4.8602   -2.9771   -1.8194 H   0  0  0  0  0  0  0  0  0  0  0  0
   -5.4620   -1.4224   -0.0077 H   0  0  0  0  0  0  0  0  0  0  0  0
   -4.8107    0.1979    1.6982 H   0  0  0  0  0  0  0  0  0  0  0  0
   -3.0561    1.4574    2.8854 H   0  0  0  0  0  0  0  0  0  0  0  0
   -0.6837    1.1216    2.3110 H   0  0  0  0  0  0  0  0  0  0  0  0
 20 19  1  0
 20 21  2  0
 19 18  2  0
 21 22  1  0
 18 17  1  0
 22 17  2  0
 22 23  1  0
 17 16  1  0
 23 24  2  0
 16 25  2  0
 16  7  1  0
 24 25  1  0
  6  7  2  0
  6  5  1  0
  7  8  1  0
  5  4  2  0
 14 13  2  0
 14  9  1  0
 13 12  1  0
  8  9  1  0
  8 15  2  0
  1  2  1  0
  4 15  1  0
  4  2  1  0
  9 10  2  0
  2  3  1  0
 12 11  2  0
 10 11  1  0
  1 26  1  0
  1 27  1  0
  1 28  1  0
  3 29  1  0
  3 30  1  0
  3 31  1  0
 10 32  1  0
 11 33  1  0
 13 34  1  0
 14 35  1  0
 15 36  1  0
 18 37  1  0
 19 38  1  0
 20 39  1  0
 21 40  1  0
 23 41  1  0
 24 42  1  0
 25 43  1  0
M  END
