
     RDKit          3D

 44 47  0  0  0  0  0  0  0  0999 V2000
   -1.2598    1.5350   -0.5044 C   0  0  0  0  0  0  0  0  0  0  0  0
    1.1243    1.5486   -0.2304 C   0  0  0  0  0  0  0  0  0  0  0  0
   -0.2124   -0.1392    0.7986 C   0  0  0  0  0  0  0  0  0  0  0  0
    1.0342    0.4221    0.5708 C   0  0  0  0  0  0  0  0  0  0  0  0
   -0.0302    2.1146   -0.7574 C   0  0  0  0  0  0  0  0  0  0  0  0
    3.4751    1.5278   -0.3130 C   0  0  0  0  0  0  0  0  0  0  0  0
    2.2871    2.1842   -0.5173 O   0  0  0  0  0  0  0  0  0  0  0  0
    3.8345    0.4625   -1.1265 C   0  0  0  0  0  0  0  0  0  0  0  0
    5.0580   -0.1600   -0.9385 C   0  0  0  0  0  0  0  0  0  0  0  0
   -1.3875    0.3652    0.2550 C   0  0  0  0  0  0  0  0  0  0  0  0
    5.9070    0.2947    0.0599 C   0  0  0  0  0  0  0  0  0  0  0  0
    5.5530    1.3617    0.8696 C   0  0  0  0  0  0  0  0  0  0  0  0
   -2.7399   -0.2765    0.5097 C   0  0  2  0  0  0  0  0  0  0  0  0
   -3.4376   -0.3736   -0.6956 O   0  0  0  0  0  0  0  0  0  0  0  0
   -3.4786    0.5710    1.3367 O   0  0  0  0  0  0  0  0  0  0  0  0
    4.3237    1.9783    0.6844 C   0  0  0  0  0  0  0  0  0  0  0  0
    7.4370   -0.4829    0.2946 Cl  0  0  0  0  0  0  0  0  0  0  0  0
   -2.6273    2.3677   -1.1637 Cl  0  0  0  0  0  0  0  0  0  0  0  0
   -4.8002   -0.0723   -0.4594 C   0  0  0  0  0  0  0  0  0  0  0  0
   -4.8544    0.4103    0.9991 C   0  0  2  0  0  0  0  0  0  0  0  0
   -2.6905   -1.6825    1.1603 C   0  0  0  0  0  0  0  0  0  0  0  0
   -2.3681   -2.7289    0.2206 N   0  0  0  0  0  0  0  0  0  0  0  0
   -3.3317   -3.3181   -0.4955 N   0  0  0  0  0  0  0  0  0  0  0  0
   -2.6710   -4.1698   -1.2395 C   0  0  0  0  0  0  0  0  0  0  0  0
   -1.3349   -4.1641   -1.0437 N   0  0  0  0  0  0  0  0  0  0  0  0
   -1.1818   -3.2451   -0.1188 C   0  0  0  0  0  0  0  0  0  0  0  0
   -5.5915    1.7121    1.2043 C   0  0  0  0  0  0  0  0  0  0  0  0
   -0.2393   -0.9982    1.4519 H   0  0  0  0  0  0  0  0  0  0  0  0
    1.9065   -0.0255    1.0264 H   0  0  0  0  0  0  0  0  0  0  0  0
    0.0382    3.0110   -1.3594 H   0  0  0  0  0  0  0  0  0  0  0  0
    3.1708    0.1159   -1.9084 H   0  0  0  0  0  0  0  0  0  0  0  0
    5.3440   -0.9897   -1.5700 H   0  0  0  0  0  0  0  0  0  0  0  0
    6.2212    1.7135    1.6434 H   0  0  0  0  0  0  0  0  0  0  0  0
    4.0353    2.8113    1.3119 H   0  0  0  0  0  0  0  0  0  0  0  0
   -5.1157    0.7070   -1.1582 H   0  0  0  0  0  0  0  0  0  0  0  0
   -5.4232   -0.9556   -0.6165 H   0  0  0  0  0  0  0  0  0  0  0  0
   -5.3030   -0.3626    1.6345 H   0  0  0  0  0  0  0  0  0  0  0  0
   -2.0060   -1.7290    2.0046 H   0  0  0  0  0  0  0  0  0  0  0  0
   -3.6782   -1.9165    1.5565 H   0  0  0  0  0  0  0  0  0  0  0  0
   -3.1676   -4.8212   -1.9423 H   0  0  0  0  0  0  0  0  0  0  0  0
   -0.2489   -2.9427    0.3303 H   0  0  0  0  0  0  0  0  0  0  0  0
   -5.1637    2.5065    0.5926 H   0  0  0  0  0  0  0  0  0  0  0  0
   -6.6370    1.5889    0.9215 H   0  0  0  0  0  0  0  0  0  0  0  0
   -5.5660    2.0208    2.2493 H   0  0  0  0  0  0  0  0  0  0  0  0
 17 11  1  0
  9 11  1  0
  9  8  2  0
 11 12  2  0
  8  6  1  0
 12 16  1  0
  6 16  2  0
  6  7  1  0
  7  2  1  0
  5  2  1  0
  5  1  2  0
  2  4  2  0
 18  1  1  0
  1 10  1  0
  4  3  1  0
 10  3  2  0
 10 13  1  0
 27 20  1  0
 15 13  1  0
 15 20  1  0
 13 14  1  0
 13 21  1  1
 20 19  1  0
 19 14  1  0
 23 22  1  0
 23 24  2  0
 21 22  1  0
 22 26  1  0
 24 25  1  0
 26 25  2  0
  3 28  1  0
  4 29  1  0
  5 30  1  0
  8 31  1  0
  9 32  1  0
 12 33  1  0
 16 34  1  0
 19 35  1  0
 19 36  1  0
 20 37  1  1
 21 38  1  0
 21 39  1  0
 24 40  1  0
 26 41  1  0
 27 42  1  0
 27 43  1  0
 27 44  1  0
M  END
