
     RDKit          3D

 34 35  0  0  0  0  0  0  0  0999 V2000
   -1.6400   -0.5109   -0.6819 C   0  0  0  0  0  0  0  0  0  0  0  0
   -3.1117   -0.4314   -0.9739 C   0  0  0  0  0  0  0  0  0  0  0  0
    2.5851    1.1260   -1.0455 C   0  0  0  0  0  0  0  0  0  0  0  0
    2.3995    2.3901   -0.5149 C   0  0  0  0  0  0  0  0  0  0  0  0
    0.8283    1.4755    1.0847 C   0  0  0  0  0  0  0  0  0  0  0  0
    0.9840    0.1977    0.5162 C   0  0  0  0  0  0  0  0  0  0  0  0
    1.8939    0.0299   -0.5364 C   0  0  0  0  0  0  0  0  0  0  0  0
    2.1932   -1.3424   -1.0778 C   0  0  0  0  0  0  0  0  0  0  0  0
    2.0684   -2.3803    0.0256 C   0  0  0  0  0  0  0  0  0  0  0  0
    0.6434   -2.3576    0.5439 C   0  0  0  0  0  0  0  0  0  0  0  0
    0.1796   -0.9767    1.0485 C   0  0  2  0  0  0  0  0  0  0  0  0
   -1.3286   -0.8187    0.7743 C   0  0  0  0  0  0  0  0  0  0  0  0
   -3.3506   -0.2745   -2.2735 O   0  0  0  0  0  0  0  0  0  0  0  0
   -3.9910   -0.4889   -0.1501 O   0  0  0  0  0  0  0  0  0  0  0  0
    1.5354    2.5526    0.5557 C   0  0  0  0  0  0  0  0  0  0  0  0
   -1.1990   -1.2547   -1.3522 H   0  0  0  0  0  0  0  0  0  0  0  0
   -1.1916    0.4433   -0.9767 H   0  0  0  0  0  0  0  0  0  0  0  0
    2.9448    3.2371   -0.9115 H   0  0  0  0  0  0  0  0  0  0  0  0
   -0.1006    0.9064    2.9647 H   0  0  0  0  0  0  0  0  0  0  0  0
    0.2781    2.6181    2.8119 H   0  0  0  0  0  0  0  0  0  0  0  0
   -1.0941    1.9438    1.9577 H   0  0  0  0  0  0  0  0  0  0  0  0
    1.5009   -1.5965   -1.8893 H   0  0  0  0  0  0  0  0  0  0  0  0
    3.1923   -1.3487   -1.5183 H   0  0  0  0  0  0  0  0  0  0  0  0
    2.3127   -3.3754   -0.3517 H   0  0  0  0  0  0  0  0  0  0  0  0
    2.7822   -2.1594    0.8252 H   0  0  0  0  0  0  0  0  0  0  0  0
   -0.0036   -2.6920   -0.2732 H   0  0  0  0  0  0  0  0  0  0  0  0
    0.5060   -3.0833    1.3480 H   0  0  0  0  0  0  0  0  0  0  0  0
    0.2979   -0.9777    2.1375 H   0  0  0  0  0  0  0  0  0  0  0  0
   -1.7551   -0.0388    1.4040 H   0  0  0  0  0  0  0  0  0  0  0  0
   -1.8228   -1.7480    1.0711 H   0  0  0  0  0  0  0  0  0  0  0  0
   -4.3051   -0.2131   -2.4281 H   0  0  0  0  0  0  0  0  0  0  0  0
    1.4124    3.5330    1.0017 H   0  0  0  0  0  0  0  0  0  0  0  0
    3.2899    0.9780   -1.8558 H   0  0  0  0  0  0  0  0  0  0  0  0
   -0.0667    1.7411    2.2653 C   0  0  0  0  0  0  0  0  0  0  0  0
  3  4  2  0
  3  7  1  0
  4 15  1  0
  8  7  1  0
  8  9  1  0
  7  6  2  0
 15  5  2  0
  9 10  1  0
  6  5  1  0
  6 11  1  0
  5 34  1  0
 10 11  1  0
 11 12  1  0
 12  1  1  0
 14  2  2  0
  1  2  1  0
  2 13  1  0
  1 16  1  0
  1 17  1  0
  3 33  1  0
  4 18  1  0
 34 19  1  0
 34 20  1  0
 34 21  1  0
  8 22  1  0
  8 23  1  0
  9 24  1  0
  9 25  1  0
 10 26  1  0
 10 27  1  0
 11 28  1  1
 12 29  1  0
 12 30  1  0
 13 31  1  0
 15 32  1  0
M  END
