
     RDKit          3D

 44 47  0  0  0  0  0  0  0  0999 V2000
   -4.3919    1.8401    0.3463 C   0  0  0  0  0  0  0  0  0  0  0  0
   -5.7652    1.7547    0.2741 C   0  0  0  0  0  0  0  0  0  0  0  0
   -1.2071    1.0527    0.3268 N   0  0  0  0  0  0  0  0  0  0  0  0
   -6.4393    0.5602    0.0438 C   0  0  0  0  0  0  0  0  0  0  0  0
   -5.7319   -0.6203   -0.1225 C   0  0  0  0  0  0  0  0  0  0  0  0
   -4.3490   -0.5583   -0.0501 C   0  0  0  0  0  0  0  0  0  0  0  0
    5.1234    0.1728    0.1814 N   0  0  0  0  0  0  0  0  0  0  0  0
   -0.0382    0.4413    0.2617 N   0  0  0  0  0  0  0  0  0  0  0  0
   -1.0417   -1.6937   -0.1207 N   0  0  0  0  0  0  0  0  0  0  0  0
   -6.4920    2.8732    0.4325 F   0  0  0  0  0  0  0  0  0  0  0  0
   -3.6823    0.6583    0.1783 C   0  0  0  0  0  0  0  0  0  0  0  0
   -2.2834    0.3295    0.1746 C   0  0  0  0  0  0  0  0  0  0  0  0
   -2.1923   -1.0736   -0.0534 C   0  0  0  0  0  0  0  0  0  0  0  0
   -3.4273   -1.5921   -0.1797 N   0  0  0  0  0  0  0  0  0  0  0  0
   -0.0038   -0.8697    0.0455 C   0  0  0  0  0  0  0  0  0  0  0  0
    1.5475   -1.6666   -0.0437 S   0  0  0  0  0  0  0  0  0  0  0  0
    2.7223   -0.2974    0.1579 C   0  0  0  0  0  0  0  0  0  0  0  0
    4.1318   -0.8794    0.1002 C   0  0  0  0  0  0  0  0  0  0  0  0
    6.3998   -0.3156    0.6797 C   0  0  0  0  0  0  0  0  0  0  0  0
    7.3745    0.8320    0.8987 C   0  0  0  0  0  0  0  0  0  0  0  0
    7.5701    1.6330   -0.3819 C   0  0  0  0  0  0  0  0  0  0  0  0
    6.2187    2.0663   -0.9347 C   0  0  0  0  0  0  0  0  0  0  0  0
    5.2942    0.8677   -1.0852 C   0  0  0  0  0  0  0  0  0  0  0  0
   -3.8945    2.7839    0.5274 H   0  0  0  0  0  0  0  0  0  0  0  0
   -7.5200    0.5562   -0.0038 H   0  0  0  0  0  0  0  0  0  0  0  0
   -6.2577   -1.5478   -0.3045 H   0  0  0  0  0  0  0  0  0  0  0  0
   -4.1666   -3.0905   -1.4427 H   0  0  0  0  0  0  0  0  0  0  0  0
   -2.8534   -3.5717   -0.3589 H   0  0  0  0  0  0  0  0  0  0  0  0
   -4.4796   -3.3330    0.2879 H   0  0  0  0  0  0  0  0  0  0  0  0
    2.5473    0.4290   -0.6344 H   0  0  0  0  0  0  0  0  0  0  0  0
    2.5543    0.1895    1.1169 H   0  0  0  0  0  0  0  0  0  0  0  0
    4.2550   -1.4975   -0.8047 H   0  0  0  0  0  0  0  0  0  0  0  0
    4.2649   -1.5486    0.9533 H   0  0  0  0  0  0  0  0  0  0  0  0
    6.2290   -0.8391    1.6234 H   0  0  0  0  0  0  0  0  0  0  0  0
    6.8497   -1.0474   -0.0151 H   0  0  0  0  0  0  0  0  0  0  0  0
    6.9828    1.4838    1.6852 H   0  0  0  0  0  0  0  0  0  0  0  0
    8.3261    0.4337    1.2575 H   0  0  0  0  0  0  0  0  0  0  0  0
    8.2129    2.4975   -0.2024 H   0  0  0  0  0  0  0  0  0  0  0  0
    8.0799    1.0097   -1.1245 H   0  0  0  0  0  0  0  0  0  0  0  0
    5.7570    2.7936   -0.2602 H   0  0  0  0  0  0  0  0  0  0  0  0
    6.3332    2.5562   -1.9042 H   0  0  0  0  0  0  0  0  0  0  0  0
    5.7058    0.1878   -1.8534 H   0  0  0  0  0  0  0  0  0  0  0  0
    4.3212    1.2010   -1.4502 H   0  0  0  0  0  0  0  0  0  0  0  0
   -3.7555   -2.9728   -0.4408 C   0  0  0  0  0  0  0  0  0  0  0  0
 10  2  1  0
  2  1  2  0
  2  4  1  0
  1 11  1  0
  3  8  1  0
  3 12  2  0
  4  5  2  0
 11 12  1  0
 11  6  2  0
  8 15  2  0
 12 13  1  0
  5  6  1  0
  6 14  1  0
 15  9  1  0
 15 16  1  0
 13 14  1  0
 13  9  2  0
 14 44  1  0
 16 17  1  0
 18 17  1  0
 18  7  1  0
  7 19  1  0
  7 23  1  0
 19 20  1  0
 23 22  1  0
 20 21  1  0
 22 21  1  0
  1 24  1  0
  4 25  1  0
  5 26  1  0
 44 27  1  0
 44 28  1  0
 44 29  1  0
 17 30  1  0
 17 31  1  0
 18 32  1  0
 18 33  1  0
 19 34  1  0
 19 35  1  0
 20 36  1  0
 20 37  1  0
 21 38  1  0
 21 39  1  0
 22 40  1  0
 22 41  1  0
 23 42  1  0
 23 43  1  0
M  END
