
     RDKit          3D

 42 44  0  0  0  0  0  0  0  0999 V2000
   -4.0931    0.6373   -0.0746 C   0  0  0  0  0  0  0  0  0  0  0  0
   -3.9018   -0.7359   -0.0827 C   0  0  0  0  0  0  0  0  0  0  0  0
   -2.6418   -1.2780    0.1251 C   0  0  0  0  0  0  0  0  0  0  0  0
   -1.5519   -0.4445    0.3445 C   0  0  0  0  0  0  0  0  0  0  0  0
   -1.7401    0.9339    0.3579 C   0  0  0  0  0  0  0  0  0  0  0  0
   -3.0028    1.4660    0.1515 C   0  0  0  0  0  0  0  0  0  0  0  0
   -3.1555    2.9569    0.1536 C   0  0  1  0  0  0  0  0  0  0  0  0
   -5.0455   -1.6718   -0.3330 C   0  0  1  0  0  0  0  0  0  0  0  0
   -6.2183   -1.0406   -0.4115 F   0  0  0  0  0  0  0  0  0  0  0  0
   -4.8818   -2.3463   -1.4790 F   0  0  0  0  0  0  0  0  0  0  0  0
   -5.1521   -2.5876    0.6379 F   0  0  0  0  0  0  0  0  0  0  0  0
   -4.4326    3.3433    0.1335 F   0  0  0  0  0  0  0  0  0  0  0  0
   -2.5920    3.5075    1.2357 F   0  0  0  0  0  0  0  0  0  0  0  0
   -2.5588    3.5095   -0.9111 F   0  0  0  0  0  0  0  0  0  0  0  0
   -0.2242   -1.0173    0.5597 C   0  0  0  0  0  0  0  0  0  0  0  0
    0.0143   -2.3469    0.5950 N   0  0  0  0  0  0  0  0  0  0  0  0
    1.3068   -2.4117    0.8071 C   0  0  0  0  0  0  0  0  0  0  0  0
    1.8154   -1.1792    0.9008 N   0  0  0  0  0  0  0  0  0  0  0  0
    0.8482   -0.2780    0.7399 N   0  0  0  0  0  0  0  0  0  0  0  0
    3.1880   -0.7733    1.0936 C   0  0  0  0  0  0  0  0  0  0  0  0
    3.7711   -0.1499   -0.1738 C   0  0  1  0  0  0  0  0  0  0  0  0
    5.1889    0.2970    0.0635 C   0  0  0  0  0  0  0  0  0  0  0  0
    5.5470    1.6359   -0.0102 C   0  0  0  0  0  0  0  0  0  0  0  0
    6.7865    2.0585    0.1966 N   0  0  0  0  0  0  0  0  0  0  0  0
    7.6862    1.1312    0.4834 C   0  0  0  0  0  0  0  0  0  0  0  0
    7.4638   -0.1705    0.5846 N   0  0  0  0  0  0  0  0  0  0  0  0
    6.2208   -0.5812    0.3747 C   0  0  0  0  0  0  0  0  0  0  0  0
    3.7361   -1.1461   -1.3326 C   0  0  0  0  0  0  0  0  0  0  0  0
    3.9498   -2.3345   -1.1479 O   0  0  0  0  0  0  0  0  0  0  0  0
    3.4885   -0.6069   -2.5279 N   0  0  0  0  0  0  0  0  0  0  0  0
   -5.0753    1.0557   -0.2404 H   0  0  0  0  0  0  0  0  0  0  0  0
   -2.4917   -2.3502    0.1193 H   0  0  0  0  0  0  0  0  0  0  0  0
   -0.8899    1.5813    0.5323 H   0  0  0  0  0  0  0  0  0  0  0  0
    1.9029   -3.3057    0.9017 H   0  0  0  0  0  0  0  0  0  0  0  0
    3.2247   -0.0535    1.9102 H   0  0  0  0  0  0  0  0  0  0  0  0
    3.7492   -1.6546    1.3977 H   0  0  0  0  0  0  0  0  0  0  0  0
    3.1779    0.7332   -0.4271 H   0  0  0  0  0  0  0  0  0  0  0  0
    4.8020    2.3907   -0.2433 H   0  0  0  0  0  0  0  0  0  0  0  0
    8.7023    1.4691    0.6521 H   0  0  0  0  0  0  0  0  0  0  0  0
    6.0450   -1.6488    0.4519 H   0  0  0  0  0  0  0  0  0  0  0  0
    3.3129    0.3764   -2.6453 H   0  0  0  0  0  0  0  0  0  0  0  0
    3.5015   -1.1768   -3.3590 H   0  0  0  0  0  0  0  0  0  0  0  0
 25 24  1  0
 25 26  2  0
  8 10  1  6
 24 23  2  0
 26 27  1  0
  8  9  1  0
  8  2  1  0
  8 11  1  0
  7 14  1  6
 23 22  1  0
 13  7  1  0
  1  2  2  0
  1  6  1  0
 27 22  2  0
  2  3  1  0
  7  6  1  0
  7 12  1  0
  6  5  2  0
  3  4  2  0
 22 21  1  0
  5  4  1  0
  4 15  1  0
 15 16  1  0
 15 19  2  0
 16 17  2  0
 19 18  1  0
 21 28  1  0
 21 20  1  0
 17 18  1  0
 28 29  2  0
 28 30  1  0
 18 20  1  0
  1 31  1  0
  3 32  1  0
  5 33  1  0
 17 34  1  0
 20 35  1  0
 20 36  1  0
 21 37  1  6
 23 38  1  0
 25 39  1  0
 27 40  1  0
 30 41  1  0
 30 42  1  0
M  END
