
     RDKit          3D

 60 64  0  0  0  0  0  0  0  0999 V2000
   -4.7090   -0.3625    3.5086 N   0  0  0  0  0  0  0  0  0  0  0  0
   -4.9591   -1.2000    2.4700 C   0  0  0  0  0  0  0  0  0  0  0  0
   -4.4443   -0.9203    1.2270 C   0  0  0  0  0  0  0  0  0  0  0  0
   -3.6631    0.2102    1.0171 C   0  0  0  0  0  0  0  0  0  0  0  0
   -3.4161    1.0536    2.0764 C   0  0  0  0  0  0  0  0  0  0  0  0
   -3.9528    0.7463    3.3110 C   0  0  0  0  0  0  0  0  0  0  0  0
   -4.5778   -1.6422   -0.0370 C   0  0  0  0  0  0  0  0  0  0  0  0
   -3.8924   -0.9286   -1.0219 C   0  0  0  0  0  0  0  0  0  0  0  0
   -3.2416    0.3152   -0.4371 C   0  0  1  0  0  0  0  0  0  0  0  0
   -5.2451   -2.8161   -0.3439 C   0  0  0  0  0  0  0  0  0  0  0  0
   -5.2191   -3.2664   -1.6592 C   0  0  0  0  0  0  0  0  0  0  0  0
   -4.5409   -2.5531   -2.6410 C   0  0  0  0  0  0  0  0  0  0  0  0
   -3.8676   -1.3746   -2.3277 C   0  0  0  0  0  0  0  0  0  0  0  0
   -3.7674    1.4456   -1.0671 O   0  0  0  0  0  0  0  0  0  0  0  0
   -1.7120    0.1417   -0.5166 C   0  0  0  0  0  0  0  0  0  0  0  0
   -0.9993    0.7334   -1.4835 N   0  0  0  0  0  0  0  0  0  0  0  0
    0.4471    0.5636   -1.4404 C   0  0  1  0  0  0  0  0  0  0  0  0
    0.9526    1.3969   -2.6247 C   0  0  0  0  0  0  0  0  0  0  0  0
   -0.2280    1.3905   -3.5844 C   0  0  0  0  0  0  0  0  0  0  0  0
   -1.4240    1.5095   -2.6526 C   0  0  0  0  0  0  0  0  0  0  0  0
    1.0191    1.0879   -0.1296 C   0  0  0  0  0  0  0  0  0  0  0  0
    2.0965    0.4196    0.3074 N   0  0  0  0  0  0  0  0  0  0  0  0
    2.8744    0.8012    1.4655 C   0  0  0  0  0  0  0  0  0  0  0  0
    4.3521    0.6748    1.1994 C   0  0  0  0  0  0  0  0  0  0  0  0
    5.0715   -0.2774    1.9115 C   0  0  0  0  0  0  0  0  0  0  0  0
    6.4318   -0.4272    1.6964 C   0  0  0  0  0  0  0  0  0  0  0  0
    7.0923    0.3598    0.7719 C   0  0  0  0  0  0  0  0  0  0  0  0
    6.3685    1.3086    0.0630 C   0  0  0  0  0  0  0  0  0  0  0  0
    5.0031    1.4852    0.2576 C   0  0  0  0  0  0  0  0  0  0  0  0
    7.3116   -1.6187    2.6004 Cl  0  0  0  0  0  0  0  0  0  0  0  0
    4.2446    2.5192   -0.5403 C   0  0  0  0  0  0  0  0  0  0  0  0
    5.1157    3.5280   -1.1130 N   0  0  0  0  0  0  0  0  0  0  0  0
   -5.1811   -0.6176    4.6606 O   0  0  0  0  0  0  0  0  0  0  0  0
   -1.1776   -0.5702    0.3233 O   0  0  0  0  0  0  0  0  0  0  0  0
    0.5669    2.0861    0.4064 O   0  0  0  0  0  0  0  0  0  0  0  0
   -5.5663   -2.0628    2.7027 H   0  0  0  0  0  0  0  0  0  0  0  0
   -2.8083    1.9450    1.9904 H   0  0  0  0  0  0  0  0  0  0  0  0
   -3.8014    1.3598    4.1860 H   0  0  0  0  0  0  0  0  0  0  0  0
   -5.7786   -3.3741    0.4149 H   0  0  0  0  0  0  0  0  0  0  0  0
   -5.7328   -4.1817   -1.9214 H   0  0  0  0  0  0  0  0  0  0  0  0
   -4.5340   -2.9171   -3.6597 H   0  0  0  0  0  0  0  0  0  0  0  0
   -3.3395   -0.8338   -3.1023 H   0  0  0  0  0  0  0  0  0  0  0  0
   -3.4320    2.2446   -0.6441 H   0  0  0  0  0  0  0  0  0  0  0  0
    0.7047   -0.4909   -1.5807 H   0  0  0  0  0  0  0  0  0  0  0  0
    1.1663    2.4198   -2.3064 H   0  0  0  0  0  0  0  0  0  0  0  0
    1.8640    0.9787   -3.0485 H   0  0  0  0  0  0  0  0  0  0  0  0
   -0.1933    2.2052   -4.3060 H   0  0  0  0  0  0  0  0  0  0  0  0
   -0.2698    0.4502   -4.1379 H   0  0  0  0  0  0  0  0  0  0  0  0
   -1.5985    2.5539   -2.3836 H   0  0  0  0  0  0  0  0  0  0  0  0
   -2.3325    1.1172   -3.1000 H   0  0  0  0  0  0  0  0  0  0  0  0
    2.3453   -0.4449   -0.1478 H   0  0  0  0  0  0  0  0  0  0  0  0
    2.6023    0.1823    2.3243 H   0  0  0  0  0  0  0  0  0  0  0  0
    2.6172    1.8289    1.7244 H   0  0  0  0  0  0  0  0  0  0  0  0
    4.5653   -0.9011    2.6380 H   0  0  0  0  0  0  0  0  0  0  0  0
    8.1539    0.2418    0.6012 H   0  0  0  0  0  0  0  0  0  0  0  0
    6.8819    1.9319   -0.6563 H   0  0  0  0  0  0  0  0  0  0  0  0
    3.4467    2.9413    0.0853 H   0  0  0  0  0  0  0  0  0  0  0  0
    3.7351    2.0099   -1.3641 H   0  0  0  0  0  0  0  0  0  0  0  0
    4.5757    4.1099   -1.7398 H   0  0  0  0  0  0  0  0  0  0  0  0
    5.4502    4.1429   -0.3815 H   0  0  0  0  0  0  0  0  0  0  0  0
  1  2  2  0
  1  6  1  0
  1 33  1  0
  2  3  1  0
  2 36  1  0
  3  4  2  0
  3  7  1  0
  4  5  1  0
  4  9  1  0
  5  6  2  0
  5 37  1  0
  6 38  1  0
  7  8  2  0
  7 10  1  0
  8  9  1  0
  8 13  1  0
  9 14  1  6
  9 15  1  0
 10 11  2  0
 10 39  1  0
 11 12  1  0
 11 40  1  0
 12 13  2  0
 12 41  1  0
 13 42  1  0
 14 43  1  0
 15 16  1  0
 15 34  2  0
 16 17  1  0
 16 20  1  0
 17 18  1  0
 17 21  1  0
 17 44  1  6
 18 19  1  0
 18 45  1  0
 18 46  1  0
 19 20  1  0
 19 47  1  0
 19 48  1  0
 20 49  1  0
 20 50  1  0
 21 22  1  0
 21 35  2  0
 22 23  1  0
 22 51  1  0
 23 24  1  0
 23 52  1  0
 23 53  1  0
 24 25  2  0
 24 29  1  0
 25 26  1  0
 25 54  1  0
 26 27  2  0
 26 30  1  0
 27 28  1  0
 27 55  1  0
 28 29  2  0
 28 56  1  0
 29 31  1  0
 31 32  1  0
 31 57  1  0
 31 58  1  0
 32 59  1  0
 32 60  1  0
M  CHG  2   1   1  33  -1
M  END
