
     RDKit          3D

 32 34  0  0  0  0  0  0  0  0999 V2000
    3.5255    1.8186    0.0202 C   0  0  0  0  0  0  0  0  0  0  0  0
    2.3836   -0.2962    0.0387 C   0  0  0  0  0  0  0  0  0  0  0  0
    4.7459    1.1701    0.0668 C   0  0  0  0  0  0  0  0  0  0  0  0
    3.5989   -0.9601    0.0856 C   0  0  0  0  0  0  0  0  0  0  0  0
    2.3321    1.0959    0.0055 C   0  0  0  0  0  0  0  0  0  0  0  0
   -4.1177   -0.6986   -0.1143 C   0  0  0  0  0  0  0  0  0  0  0  0
    4.7711   -0.2187    0.0993 C   0  0  0  0  0  0  0  0  0  0  0  0
   -4.9951    0.3623    0.0065 C   0  0  0  0  0  0  0  0  0  0  0  0
   -4.6443   -2.0192   -0.1628 C   0  0  0  0  0  0  0  0  0  0  0  0
   -6.8223   -0.8802    0.0492 C   0  0  0  0  0  0  0  0  0  0  0  0
   -2.9108    1.0366   -0.0783 C   0  0  0  0  0  0  0  0  0  0  0  0
    1.0482    1.8372   -0.0420 C   0  0  0  0  0  0  0  0  0  0  0  0
   -0.2284    1.0363   -0.0709 C   0  0  0  0  0  0  0  0  0  0  0  0
   -6.3307    0.3341    0.0937 N   0  0  0  0  0  0  0  0  0  0  0  0
   -4.2068    1.4691    0.0274 N   0  0  0  0  0  0  0  0  0  0  0  0
   -6.0429   -1.9936   -0.0725 N   0  0  0  0  0  0  0  0  0  0  0  0
   -2.8170   -0.2544   -0.1670 N   0  0  0  0  0  0  0  0  0  0  0  0
    1.0130    3.0476   -0.0587 O   0  0  0  0  0  0  0  0  0  0  0  0
   -4.0490   -3.0794   -0.2671 O   0  0  0  0  0  0  0  0  0  0  0  0
   -1.6109    2.2004   -0.0877 S   0  0  0  0  0  0  0  0  0  0  0  0
    6.4275   -1.1097    0.1635 Br  0  0  0  0  0  0  0  0  0  0  0  0
    3.5067    2.8996   -0.0048 H   0  0  0  0  0  0  0  0  0  0  0  0
    1.4817   -0.8937    0.0290 H   0  0  0  0  0  0  0  0  0  0  0  0
    5.6604    1.7471    0.0780 H   0  0  0  0  0  0  0  0  0  0  0  0
    3.6184   -2.0407    0.1110 H   0  0  0  0  0  0  0  0  0  0  0  0
   -0.2607    0.3985   -0.9566 H   0  0  0  0  0  0  0  0  0  0  0  0
   -0.2979    0.3848    0.8022 H   0  0  0  0  0  0  0  0  0  0  0  0
   -4.5258    2.4218    0.1237 H   0  0  0  0  0  0  0  0  0  0  0  0
   -6.4988   -2.8968   -0.1050 H   0  0  0  0  0  0  0  0  0  0  0  0
   -8.5390   -1.9753    0.2745 H   0  0  0  0  0  0  0  0  0  0  0  0
   -8.7215   -0.2778    0.3408 H   0  0  0  0  0  0  0  0  0  0  0  0
   -8.1499   -1.0665    0.0893 N   0  0  0  0  0  0  0  0  0  0  0  0
 32 10  1  0
 14 10  2  0
 14  8  1  0
 10 16  1  0
  8 15  1  0
  8  6  2  0
 15 11  1  0
 16  9  1  0
  6  9  1  0
  6 17  1  0
  9 19  2  0
 11 17  2  0
 11 20  1  0
 20 13  1  0
  3  1  2  0
  3  7  1  0
  1  5  1  0
 21  7  1  0
  7  4  2  0
  5  2  2  0
  5 12  1  0
  4  2  1  0
 12 13  1  0
 12 18  2  0
  1 22  1  0
  2 23  1  0
  3 24  1  0
  4 25  1  0
 13 26  1  0
 13 27  1  0
 15 28  1  0
 16 29  1  0
 32 30  1  0
 32 31  1  0
M  END
