
     RDKit          3D

 22 23  0  0  0  0  0  0  0  0999 V2000
   -5.5757   -0.7838   -0.3851 N   0  0  0  0  0  0  0  0  0  0  0  0
   -4.5279   -0.3401   -0.1827 C   0  0  0  0  0  0  0  0  0  0  0  0
   -3.2544    0.1919    0.0604 C   0  0  0  0  0  0  0  0  0  0  0  0
   -2.9076    1.4679    0.5670 C   0  0  0  0  0  0  0  0  0  0  0  0
   -1.6184    1.6194    0.6459 N   0  0  0  0  0  0  0  0  0  0  0  0
   -2.0308   -0.4409   -0.1767 C   0  0  0  0  0  0  0  0  0  0  0  0
   -1.7707   -1.6318   -0.7423 N   0  0  0  0  0  0  0  0  0  0  0  0
   -1.0890    0.4474    0.2012 N   0  0  0  0  0  0  0  0  0  0  0  0
    0.3120    0.2864    0.1346 C   0  0  0  0  0  0  0  0  0  0  0  0
    1.0680    1.1877   -0.6034 C   0  0  0  0  0  0  0  0  0  0  0  0
    2.4431    1.0412   -0.6695 C   0  0  0  0  0  0  0  0  0  0  0  0
    3.0460   -0.0183   -0.0066 C   0  0  0  0  0  0  0  0  0  0  0  0
    4.7622   -0.2105   -0.1010 Cl  0  0  0  0  0  0  0  0  0  0  0  0
    2.2997   -0.9219    0.7326 C   0  0  0  0  0  0  0  0  0  0  0  0
    0.9251   -0.7587    0.8123 C   0  0  0  0  0  0  0  0  0  0  0  0
   -3.5814    2.2544    0.8703 H   0  0  0  0  0  0  0  0  0  0  0  0
   -2.5182   -2.3037   -0.7873 H   0  0  0  0  0  0  0  0  0  0  0  0
   -0.8517   -2.0347   -0.6659 H   0  0  0  0  0  0  0  0  0  0  0  0
    0.5862    2.0030   -1.1257 H   0  0  0  0  0  0  0  0  0  0  0  0
    3.0354    1.7422   -1.2410 H   0  0  0  0  0  0  0  0  0  0  0  0
    2.7793   -1.7377    1.2552 H   0  0  0  0  0  0  0  0  0  0  0  0
    0.3423   -1.4392    1.4201 H   0  0  0  0  0  0  0  0  0  0  0  0
  1  2  3  0
  2  3  1  0
  3  4  1  0
  3  6  2  0
  4  5  2  0
  5  8  1  0
  6  7  1  0
  6  8  1  0
  8  9  1  0
  9 10  2  0
  9 15  1  0
 10 11  1  0
 11 12  2  0
 12 13  1  0
 12 14  1  0
 14 15  2  0
  4 16  1  0
  7 17  1  0
  7 18  1  0
 10 19  1  0
 11 20  1  0
 14 21  1  0
 15 22  1  0
M  END
