
     RDKit          3D

 15 16  0  0  0  0  0  0  0  0999 V2000
   -0.6545   -0.0411   -2.0392 N   0  0  0  0  0  0  0  0  0  0  0  0
    0.6746   -0.0282   -2.3341 C   0  0  0  0  0  0  0  0  0  0  0  0
    1.4349   -0.0037   -1.2775 N   0  0  0  0  0  0  0  0  0  0  0  0
    0.5516   -0.0004   -0.2287 C   0  0  0  0  0  0  0  0  0  0  0  0
    0.7276    0.0198    1.1672 C   0  0  0  0  0  0  0  0  0  0  0  0
    1.9312    0.0478    1.7423 N   0  0  0  0  0  0  0  0  0  0  0  0
   -0.3657    0.0152    1.9376 N   0  0  0  0  0  0  0  0  0  0  0  0
   -1.5648   -0.0077    1.3597 C   0  0  0  0  0  0  0  0  0  0  0  0
   -1.8585   -0.0281    0.0720 N   0  0  0  0  0  0  0  0  0  0  0  0
   -0.7600   -0.0237   -0.6834 C   0  0  0  0  0  0  0  0  0  0  0  0
   -1.4119   -0.0609   -2.7046 H   0  0  0  0  0  0  0  0  0  0  0  0
    1.0226   -0.0378   -3.3557 H   0  0  0  0  0  0  0  0  0  0  0  0
    2.0150    0.0342    2.7440 H   0  0  0  0  0  0  0  0  0  0  0  0
    2.7722    0.0215    1.1930 H   0  0  0  0  0  0  0  0  0  0  0  0
   -2.4080   -0.0101    2.0424 H   0  0  0  0  0  0  0  0  0  0  0  0
  1  2  1  0
  1 10  1  0
  1 11  1  0
  2  3  2  0
  2 12  1  0
  3  4  1  0
  4  5  1  0
  4 10  2  0
  5  6  1  0
  5  7  2  0
  6 13  1  0
  6 14  1  0
  7  8  1  0
  8  9  2  0
  8 15  1  0
  9 10  1  0
M  END
