
     RDKit          3D

 57 59  0  0  0  0  0  0  0  0999 V2000
    5.8293   -1.3489    0.2088 C   0  0  0  0  0  0  0  0  0  0  0  0
    5.6008    1.0060    0.5550 C   0  0  0  0  0  0  0  0  0  0  0  0
    4.3949    0.7918    1.2027 C   0  0  0  0  0  0  0  0  0  0  0  0
    7.6267    0.1670   -0.6458 C   0  0  0  0  0  0  0  0  0  0  0  0
    8.6927   -0.7211   -0.4888 C   0  0  0  0  0  0  0  0  0  0  0  0
    9.9004   -0.5049   -1.1365 C   0  0  0  0  0  0  0  0  0  0  0  0
    7.8068    1.2778   -1.4728 C   0  0  0  0  0  0  0  0  0  0  0  0
    9.0143    1.4951   -2.1203 C   0  0  0  0  0  0  0  0  0  0  0  0
   10.0668    0.6042   -1.9557 C   0  0  0  0  0  0  0  0  0  0  0  0
    6.3411   -0.0614    0.0441 C   0  0  0  0  0  0  0  0  0  0  0  0
    4.6214   -1.5587    0.8573 C   0  0  0  0  0  0  0  0  0  0  0  0
    3.8838   -0.4936    1.3658 C   0  0  0  0  0  0  0  0  0  0  0  0
    2.5577   -0.7142    2.0394 C   0  0  0  0  0  0  0  0  0  0  0  0
    1.4109   -0.5472    1.0477 C   0  0  0  0  0  0  0  0  0  0  0  0
    0.0475   -0.7551    1.6687 C   0  0  0  0  0  0  0  0  0  0  0  0
   -0.1249   -1.3217    2.7215 O   0  0  0  0  0  0  0  0  0  0  0  0
   -0.9694   -0.2429    0.8910 N   0  0  0  0  0  0  0  0  0  0  0  0
   -2.3326   -0.3037    1.1535 C   0  0  0  0  0  0  0  0  0  0  0  0
   -2.8084   -0.8494    2.1238 O   0  0  0  0  0  0  0  0  0  0  0  0
   -3.0689    0.3481    0.2099 N   0  0  0  0  0  0  0  0  0  0  0  0
   -4.4927    0.3285    0.2091 C   0  0  2  0  0  0  0  0  0  0  0  0
   -4.9320   -0.7130   -0.6303 O   0  0  0  0  0  0  0  0  0  0  0  0
   -6.3338   -0.8873   -0.6174 C   0  0  2  0  0  0  0  0  0  0  0  0
   -6.6573   -2.0988   -1.4654 C   0  0  0  0  0  0  0  0  0  0  0  0
   -6.0648   -3.2338   -0.8812 O   0  0  0  0  0  0  0  0  0  0  0  0
   -7.0131    0.3759   -1.1498 C   0  0  1  0  0  0  0  0  0  0  0  0
   -8.4046    0.1954   -1.0687 O   0  0  0  0  0  0  0  0  0  0  0  0
   -6.5648    1.5827   -0.3338 C   0  0  2  0  0  0  0  0  0  0  0  0
   -7.1435    2.7246   -0.9180 O   0  0  0  0  0  0  0  0  0  0  0  0
   -5.0456    1.6673   -0.2868 C   0  0  1  0  0  0  0  0  0  0  0  0
   -4.7053    2.7177    0.5805 O   0  0  0  0  0  0  0  0  0  0  0  0
    6.3693   -2.2002   -0.1875 H   0  0  0  0  0  0  0  0  0  0  0  0
    5.9790    2.0171    0.4679 H   0  0  0  0  0  0  0  0  0  0  0  0
    3.8492    1.6400    1.5998 H   0  0  0  0  0  0  0  0  0  0  0  0
    8.5868   -1.5799    0.1626 H   0  0  0  0  0  0  0  0  0  0  0  0
   10.7167   -1.2012   -0.9933 H   0  0  0  0  0  0  0  0  0  0  0  0
    6.9900    1.9719   -1.6304 H   0  0  0  0  0  0  0  0  0  0  0  0
    9.1295    2.3597   -2.7612 H   0  0  0  0  0  0  0  0  0  0  0  0
   11.0088    0.7729   -2.4613 H   0  0  0  0  0  0  0  0  0  0  0  0
    4.2474   -2.5699    0.9665 H   0  0  0  0  0  0  0  0  0  0  0  0
    2.5261   -1.7119    2.4794 H   0  0  0  0  0  0  0  0  0  0  0  0
    2.4391   -0.0003    2.8573 H   0  0  0  0  0  0  0  0  0  0  0  0
    1.4552    0.4405    0.5807 H   0  0  0  0  0  0  0  0  0  0  0  0
    1.5111   -1.2682    0.2290 H   0  0  0  0  0  0  0  0  0  0  0  0
   -0.6795    0.2335    0.0497 H   0  0  0  0  0  0  0  0  0  0  0  0
   -2.6151    0.6700   -0.6336 H   0  0  0  0  0  0  0  0  0  0  0  0
   -4.8371    0.1619    1.2373 H   0  0  0  0  0  0  0  0  0  0  0  0
   -6.6804   -1.0639    0.4143 H   0  0  0  0  0  0  0  0  0  0  0  0
   -7.7460   -2.1972   -1.5282 H   0  0  0  0  0  0  0  0  0  0  0  0
   -6.2900   -1.9246   -2.4866 H   0  0  0  0  0  0  0  0  0  0  0  0
   -6.2889   -3.9951   -1.4235 H   0  0  0  0  0  0  0  0  0  0  0  0
   -6.6928    0.5235   -2.1938 H   0  0  0  0  0  0  0  0  0  0  0  0
   -8.8295    1.0028   -1.3767 H   0  0  0  0  0  0  0  0  0  0  0  0
   -6.9272    1.4453    0.6979 H   0  0  0  0  0  0  0  0  0  0  0  0
   -7.0253    3.4695   -0.3203 H   0  0  0  0  0  0  0  0  0  0  0  0
   -4.6687    1.8469   -1.3059 H   0  0  0  0  0  0  0  0  0  0  0  0
   -3.7607    2.8880    0.5080 H   0  0  0  0  0  0  0  0  0  0  0  0
 29 28  1  0
 27 26  1  0
 28 26  1  0
 28 30  1  0
 26 23  1  0
 31 30  1  0
 30 21  1  0
 25 24  1  0
 23 24  1  0
 23 22  1  0
 21 22  1  0
 21 20  1  0
 20 18  1  0
 18 19  2  0
 18 17  1  0
 17 15  1  0
 15 16  2  0
 15 14  1  0
 14 13  1  0
 13 12  1  0
  3 12  2  0
  3  2  1  0
 12 11  1  0
  2 10  2  0
 11  1  2  0
 10  1  1  0
 10  4  1  0
  7  4  1  0
  7  8  2  0
  4  5  2  0
  8  9  1  0
  5  6  1  0
  9  6  2  0
  1 32  1  0
  2 33  1  0
  3 34  1  0
  5 35  1  0
  6 36  1  0
  7 37  1  0
  8 38  1  0
  9 39  1  0
 11 40  1  0
 13 41  1  0
 13 42  1  0
 14 43  1  0
 14 44  1  0
 17 45  1  0
 20 46  1  0
 21 47  1  1
 23 48  1  1
 24 49  1  0
 24 50  1  0
 25 51  1  0
 26 52  1  6
 27 53  1  0
 28 54  1  1
 29 55  1  0
 30 56  1  6
 31 57  1  0
M  END
