
     RDKit          3D

 28 28  0  0  0  0  0  0  0  0999 V2000
    5.0233    0.8352   -0.4263 C   0  0  0  0  0  0  0  0  0  0  0  0
   -0.4474   -1.5451    0.0449 C   0  0  0  0  0  0  0  0  0  0  0  0
   -5.7671    0.0417    0.0750 C   0  0  0  0  0  0  0  0  0  0  0  0
   -4.3804   -0.3006    0.0731 O   0  0  0  0  0  0  0  0  0  0  0  0
   -3.8127    1.8487   -0.1115 O   0  0  0  0  0  0  0  0  0  0  0  0
   -2.0981    0.2031   -0.0223 C   0  0  0  0  0  0  0  0  0  0  0  0
   -1.0800    1.1499   -0.0964 C   0  0  0  0  0  0  0  0  0  0  0  0
    0.2461    0.7550   -0.1017 C   0  0  0  0  0  0  0  0  0  0  0  0
    0.5703   -0.5984   -0.0315 C   0  0  0  0  0  0  0  0  0  0  0  0
    1.9794   -1.0788   -0.0328 C   0  0  0  0  0  0  0  0  0  0  0  0
    2.2852   -2.2418    0.0730 O   0  0  0  0  0  0  0  0  0  0  0  0
    2.8491   -0.0956   -0.1625 O   0  0  0  0  0  0  0  0  0  0  0  0
    4.2433   -0.4265   -0.1763 C   0  0  0  0  0  0  0  0  0  0  0  0
    4.8467    1.7166    0.6557 O   0  0  0  0  0  0  0  0  0  0  0  0
   -1.7735   -1.1502    0.0493 C   0  0  0  0  0  0  0  0  0  0  0  0
    6.0718    0.5366   -0.5509 H   0  0  0  0  0  0  0  0  0  0  0  0
    4.7059    1.2802   -1.3777 H   0  0  0  0  0  0  0  0  0  0  0  0
   -0.2075   -2.5981    0.0998 H   0  0  0  0  0  0  0  0  0  0  0  0
   -6.0090    0.7147    0.8968 H   0  0  0  0  0  0  0  0  0  0  0  0
   -6.0608    0.5030   -0.8675 H   0  0  0  0  0  0  0  0  0  0  0  0
   -6.3031   -0.8938    0.2026 H   0  0  0  0  0  0  0  0  0  0  0  0
   -1.3199    2.2029   -0.1503 H   0  0  0  0  0  0  0  0  0  0  0  0
    1.0185    1.5086   -0.1576 H   0  0  0  0  0  0  0  0  0  0  0  0
    4.4537   -1.1447   -0.9711 H   0  0  0  0  0  0  0  0  0  0  0  0
    4.5273   -0.8781    0.7774 H   0  0  0  0  0  0  0  0  0  0  0  0
    5.3419    2.5192    0.4700 H   0  0  0  0  0  0  0  0  0  0  0  0
   -2.5446   -1.9048    0.1065 H   0  0  0  0  0  0  0  0  0  0  0  0
   -3.5068    0.6845   -0.0262 C   0  0  0  0  0  0  0  0  0  0  0  0
 14  1  1  0
  1 13  1  0
 13 12  1  0
 11 10  2  0
 12 10  1  0
 10  9  1  0
  2  9  2  0
  2 15  1  0
  9  8  1  0
 15  6  2  0
  8  7  2  0
  6  7  1  0
  6 28  1  0
  5 28  2  0
 28  4  1  0
  4  3  1  0
  1 16  1  0
  1 17  1  0
  2 18  1  0
  3 19  1  0
  3 20  1  0
  3 21  1  0
  7 22  1  0
  8 23  1  0
 13 24  1  0
 13 25  1  0
 14 26  1  0
 15 27  1  0
M  END
