
     RDKit          3D

 49 52  0  0  0  0  0  0  0  0999 V2000
    4.5496   -0.8344    1.9535 C   0  0  0  0  0  0  0  0  0  0  0  0
    3.1324   -1.1939    1.5249 C   0  0  0  0  0  0  0  0  0  0  0  0
    2.8304   -1.0391    0.0170 C   0  0  2  0  0  0  0  0  0  0  0  0
    3.5940   -2.1222   -0.7469 C   0  0  0  0  0  0  0  0  0  0  0  0
    3.2482    0.3420   -0.5226 C   0  0  0  0  0  0  0  0  0  0  0  0
    2.4265    1.5248    0.0007 C   0  0  0  0  0  0  0  0  0  0  0  0
    0.9729    1.2424   -0.3205 C   0  0  2  0  0  0  0  0  0  0  0  0
   -0.1376    2.2960   -0.0467 C   0  0  2  0  0  0  0  0  0  0  0  0
   -0.2125    3.3430   -1.1526 C   0  0  0  0  0  0  0  0  0  0  0  0
    0.0258    2.9798    1.3149 C   0  0  0  0  0  0  0  0  0  0  0  0
   -1.3026    1.3482   -0.0208 C   0  0  0  0  0  0  0  0  0  0  0  0
   -2.6553    1.4963   -0.0584 N   0  0  0  0  0  0  0  0  0  0  0  0
   -3.2260    0.2580    0.1102 C   0  0  0  0  0  0  0  0  0  0  0  0
   -4.5684   -0.1090    0.1239 C   0  0  0  0  0  0  0  0  0  0  0  0
   -4.8688   -1.4446    0.3256 C   0  0  0  0  0  0  0  0  0  0  0  0
   -3.8555   -2.3987    0.5053 C   0  0  0  0  0  0  0  0  0  0  0  0
   -2.5216   -2.0366    0.4835 C   0  0  0  0  0  0  0  0  0  0  0  0
   -2.1832   -0.6937    0.2824 C   0  0  0  0  0  0  0  0  0  0  0  0
   -0.9688    0.0446    0.1797 C   0  0  0  0  0  0  0  0  0  0  0  0
    0.5101   -0.0542    0.3659 C   0  0  1  0  0  0  0  0  0  0  0  0
    1.2951   -1.2553   -0.1611 C   0  0  1  0  0  0  0  0  0  0  0  0
    0.9500   -1.4842   -1.5213 N   0  0  0  0  0  0  0  0  0  0  0  0
    0.6419   -1.6410   -2.6312 C   0  0  0  0  0  0  0  0  0  0  0  0
    5.3116   -1.3809    1.3981 H   0  0  0  0  0  0  0  0  0  0  0  0
    4.7512    0.2304    1.8333 H   0  0  0  0  0  0  0  0  0  0  0  0
    4.6879   -1.0689    3.0092 H   0  0  0  0  0  0  0  0  0  0  0  0
    2.9248   -2.2326    1.8022 H   0  0  0  0  0  0  0  0  0  0  0  0
    2.4476   -0.5906    2.1230 H   0  0  0  0  0  0  0  0  0  0  0  0
    4.6663   -2.0411   -0.5676 H   0  0  0  0  0  0  0  0  0  0  0  0
    3.2814   -3.1221   -0.4383 H   0  0  0  0  0  0  0  0  0  0  0  0
    3.4477   -2.0395   -1.8240 H   0  0  0  0  0  0  0  0  0  0  0  0
    4.3104    0.4917   -0.3179 H   0  0  0  0  0  0  0  0  0  0  0  0
    3.1596    0.3284   -1.6145 H   0  0  0  0  0  0  0  0  0  0  0  0
    2.5742    1.6633    1.0764 H   0  0  0  0  0  0  0  0  0  0  0  0
    2.7691    2.4424   -0.4851 H   0  0  0  0  0  0  0  0  0  0  0  0
    0.9128    1.0538   -1.4012 H   0  0  0  0  0  0  0  0  0  0  0  0
   -0.3368    2.8794   -2.1325 H   0  0  0  0  0  0  0  0  0  0  0  0
   -1.0450    4.0314   -0.9952 H   0  0  0  0  0  0  0  0  0  0  0  0
    0.7019    3.9385   -1.1760 H   0  0  0  0  0  0  0  0  0  0  0  0
    0.9185    3.6086    1.3240 H   0  0  0  0  0  0  0  0  0  0  0  0
   -0.8300    3.6209    1.5332 H   0  0  0  0  0  0  0  0  0  0  0  0
    0.1154    2.2555    2.1262 H   0  0  0  0  0  0  0  0  0  0  0  0
   -3.1616    2.3487   -0.2318 H   0  0  0  0  0  0  0  0  0  0  0  0
   -5.3525    0.6252   -0.0134 H   0  0  0  0  0  0  0  0  0  0  0  0
   -5.9047   -1.7579    0.3468 H   0  0  0  0  0  0  0  0  0  0  0  0
   -4.1261   -3.4348    0.6626 H   0  0  0  0  0  0  0  0  0  0  0  0
   -1.7487   -2.7834    0.6199 H   0  0  0  0  0  0  0  0  0  0  0  0
    0.7361    0.0002    1.4368 H   0  0  0  0  0  0  0  0  0  0  0  0
    1.0083   -2.1600    0.3845 H   0  0  0  0  0  0  0  0  0  0  0  0
 23 22  3  0
 15 16  2  0
 15 14  1  0
 16 17  1  0
 14 13  2  0
 22 21  1  0
 17 18  2  0
 13 18  1  0
 13 12  1  0
 18 19  1  0
 12 11  1  0
  3  4  1  6
 21 20  1  0
 21  3  1  0
 19 11  2  0
 19 20  1  0
 11  8  1  0
  8  9  1  6
  7 20  1  0
  7  8  1  0
  7  6  1  0
  3  5  1  0
  3  2  1  0
  8 10  1  0
  5  6  1  0
  2  1  1  0
  1 24  1  0
  1 25  1  0
  1 26  1  0
  2 27  1  0
  2 28  1  0
  4 29  1  0
  4 30  1  0
  4 31  1  0
  5 32  1  0
  5 33  1  0
  6 34  1  0
  6 35  1  0
  7 36  1  6
  9 37  1  0
  9 38  1  0
  9 39  1  0
 10 40  1  0
 10 41  1  0
 10 42  1  0
 12 43  1  0
 14 44  1  0
 15 45  1  0
 16 46  1  0
 17 47  1  0
 20 48  1  1
 21 49  1  1
M  CHG  1  22   1
M  END
