
     RDKit          3D

 37 40  0  0  0  0  0  0  0  0999 V2000
    1.6270    0.0781    2.2333 C   0  0  0  0  0  0  0  0  0  0  0  0
    1.0692    0.4299    3.6077 C   0  0  2  0  0  0  0  0  0  0  0  0
    2.0039    0.1781    4.6323 O   0  0  0  0  0  0  0  0  0  0  0  0
   -0.1881   -0.3737    3.8931 C   0  0  2  0  0  0  0  0  0  0  0  0
    0.1208   -1.7402    3.7696 O   0  0  0  0  0  0  0  0  0  0  0  0
   -1.2790    0.0201    2.8982 C   0  0  1  0  0  0  0  0  0  0  0  0
   -1.6889    1.3333    3.2278 O   0  0  0  0  0  0  0  0  0  0  0  0
   -0.7902   -0.0558    1.4701 C   0  0  0  0  0  0  0  0  0  0  0  0
   -1.9338   -0.2264   -3.2411 C   0  0  0  0  0  0  0  0  0  0  0  0
    0.5778    0.0550    1.1536 C   0  0  0  0  0  0  0  0  0  0  0  0
   -2.3003   -0.2505   -1.9412 C   0  0  0  0  0  0  0  0  0  0  0  0
    0.9629    0.0812   -0.1707 C   0  0  0  0  0  0  0  0  0  0  0  0
    0.0428   -0.0101   -1.2263 C   0  0  0  0  0  0  0  0  0  0  0  0
   -0.1929   -0.0665   -4.9762 C   0  0  0  0  0  0  0  0  0  0  0  0
    1.1224    0.0621   -5.3500 C   0  0  0  0  0  0  0  0  0  0  0  0
    2.1139    0.1695   -4.3663 C   0  0  0  0  0  0  0  0  0  0  0  0
   -0.5596   -0.0919   -3.6180 C   0  0  0  0  0  0  0  0  0  0  0  0
    0.4366    0.0167   -2.6215 C   0  0  0  0  0  0  0  0  0  0  0  0
   -1.3250   -0.1419   -0.9004 C   0  0  0  0  0  0  0  0  0  0  0  0
    1.7759    0.1470   -3.0331 C   0  0  0  0  0  0  0  0  0  0  0  0
   -1.7082   -0.1609    0.4492 C   0  0  0  0  0  0  0  0  0  0  0  0
    2.1019   -0.9065    2.2807 H   0  0  0  0  0  0  0  0  0  0  0  0
    2.4173    0.7848    1.9649 H   0  0  0  0  0  0  0  0  0  0  0  0
    0.7792    1.4885    3.6047 H   0  0  0  0  0  0  0  0  0  0  0  0
    2.7583    0.7598    4.4966 H   0  0  0  0  0  0  0  0  0  0  0  0
   -0.5436   -0.1358    4.9063 H   0  0  0  0  0  0  0  0  0  0  0  0
   -0.6582   -2.2521    4.0081 H   0  0  0  0  0  0  0  0  0  0  0  0
   -2.1219   -0.6773    3.0164 H   0  0  0  0  0  0  0  0  0  0  0  0
   -2.3826    1.6006    2.6165 H   0  0  0  0  0  0  0  0  0  0  0  0
   -2.6790   -0.3074   -4.0228 H   0  0  0  0  0  0  0  0  0  0  0  0
   -3.3435   -0.3520   -1.6674 H   0  0  0  0  0  0  0  0  0  0  0  0
    2.0215    0.1698   -0.3807 H   0  0  0  0  0  0  0  0  0  0  0  0
   -0.9680   -0.1490   -5.7285 H   0  0  0  0  0  0  0  0  0  0  0  0
    1.3920    0.0813   -6.3979 H   0  0  0  0  0  0  0  0  0  0  0  0
    3.1521    0.2715   -4.6536 H   0  0  0  0  0  0  0  0  0  0  0  0
    2.5666    0.2309   -2.3004 H   0  0  0  0  0  0  0  0  0  0  0  0
   -2.7627   -0.2700    0.6840 H   0  0  0  0  0  0  0  0  0  0  0  0
  1  2  1  0
  1 10  1  0
  1 22  1  0
  1 23  1  0
  2  3  1  0
  2  4  1  0
  2 24  1  6
  3 25  1  0
  4  5  1  0
  4  6  1  0
  4 26  1  1
  5 27  1  0
  6  7  1  0
  6  8  1  0
  6 28  1  6
  7 29  1  0
  8 10  2  0
  8 21  1  0
  9 11  2  0
  9 17  1  0
  9 30  1  0
 10 12  1  0
 11 19  1  0
 11 31  1  0
 12 13  2  0
 12 32  1  0
 13 18  1  0
 13 19  1  0
 14 15  2  0
 14 17  1  0
 14 33  1  0
 15 16  1  0
 15 34  1  0
 16 20  2  0
 16 35  1  0
 17 18  2  0
 18 20  1  0
 19 21  2  0
 20 36  1  0
 21 37  1  0
M  END
