
     RDKit          3D

 26 25  0  0  0  0  0  0  0  0999 V2000
   -0.0415    0.0451    4.3119 O   0  0  0  0  0  0  0  0  0  0  0  0
    0.6945    0.0543    3.1111 C   0  0  0  0  0  0  0  0  0  0  0  0
   -0.2783    0.0081    1.9420 C   0  0  1  0  0  0  0  0  0  0  0  0
   -1.1687    1.0999    1.9639 O   0  0  0  0  0  0  0  0  0  0  0  0
    0.4726   -0.0722    0.6013 C   0  0  1  0  0  0  0  0  0  0  0  0
    1.3366   -1.1904    0.5609 O   0  0  0  0  0  0  0  0  0  0  0  0
   -0.4838   -0.0668   -0.5979 C   0  0  2  0  0  0  0  0  0  0  0  0
   -1.3555   -1.1788   -0.5642 O   0  0  0  0  0  0  0  0  0  0  0  0
    0.2686    0.0151   -1.9379 C   0  0  2  0  0  0  0  0  0  0  0  0
    1.1610    1.1056   -1.9560 O   0  0  0  0  0  0  0  0  0  0  0  0
   -0.7037    0.0660   -3.1072 C   0  0  0  0  0  0  0  0  0  0  0  0
    0.0327    0.0787   -4.3077 O   0  0  0  0  0  0  0  0  0  0  0  0
    0.5827    0.0296    5.0422 H   0  0  0  0  0  0  0  0  0  0  0  0
    1.3143    0.9602    3.0218 H   0  0  0  0  0  0  0  0  0  0  0  0
    1.3746   -0.8011    3.0500 H   0  0  0  0  0  0  0  0  0  0  0  0
   -0.9061   -0.8848    2.0465 H   0  0  0  0  0  0  0  0  0  0  0  0
   -0.6566    1.9161    1.9432 H   0  0  0  0  0  0  0  0  0  0  0  0
    1.1205    0.8068    0.5212 H   0  0  0  0  0  0  0  0  0  0  0  0
    0.8503   -1.9763    0.8327 H   0  0  0  0  0  0  0  0  0  0  0  0
   -1.1268    0.8156   -0.5146 H   0  0  0  0  0  0  0  0  0  0  0  0
   -0.8622   -1.9722   -0.7991 H   0  0  0  0  0  0  0  0  0  0  0  0
    0.8947   -0.8788   -2.0447 H   0  0  0  0  0  0  0  0  0  0  0  0
    0.6502    1.9227   -1.9373 H   0  0  0  0  0  0  0  0  0  0  0  0
   -1.3747   -0.7971   -3.0558 H   0  0  0  0  0  0  0  0  0  0  0  0
   -1.3329    0.9644   -3.0077 H   0  0  0  0  0  0  0  0  0  0  0  0
   -0.5904    0.0432   -5.0384 H   0  0  0  0  0  0  0  0  0  0  0  0
  1  2  1  0
  1 13  1  0
  2  3  1  0
  2 14  1  0
  2 15  1  0
  3  4  1  0
  3  5  1  0
  3 16  1  1
  4 17  1  0
  5  6  1  0
  5  7  1  0
  5 18  1  6
  6 19  1  0
  7  8  1  0
  7  9  1  0
  7 20  1  1
  8 21  1  0
  9 10  1  0
  9 11  1  0
  9 22  1  6
 10 23  1  0
 11 12  1  0
 11 24  1  0
 11 25  1  0
 12 26  1  0
M  END
