
     RDKit          3D

 15 15  0  0  0  0  0  0  0  0999 V2000
    2.2526   -1.4626    0.0880 O   0  0  0  0  0  0  0  0  0  0  0  0
    1.6882   -0.3921    0.0302 C   0  0  0  0  0  0  0  0  0  0  0  0
    2.3459    0.7533   -0.0483 O   0  0  0  0  0  0  0  0  0  0  0  0
    0.2162   -0.2585    0.0314 C   0  0  0  0  0  0  0  0  0  0  0  0
   -0.5157   -1.4231    0.0156 C   0  0  0  0  0  0  0  0  0  0  0  0
   -1.9162   -1.4333    0.0065 C   0  0  0  0  0  0  0  0  0  0  0  0
   -2.5514   -0.2280    0.0173 C   0  0  0  0  0  0  0  0  0  0  0  0
   -1.8475    0.9123    0.0388 N   0  0  0  0  0  0  0  0  0  0  0  0
   -0.4603    1.0246    0.0522 C   0  0  0  0  0  0  0  0  0  0  0  0
    0.0390    2.1389    0.0842 O   0  0  0  0  0  0  0  0  0  0  0  0
    0.0123   -2.3679    0.0058 H   0  0  0  0  0  0  0  0  0  0  0  0
   -2.4789   -2.3531   -0.0108 H   0  0  0  0  0  0  0  0  0  0  0  0
   -3.6263   -0.1223    0.0104 H   0  0  0  0  0  0  0  0  0  0  0  0
   -2.3549    1.7877    0.0509 H   0  0  0  0  0  0  0  0  0  0  0  0
    3.2969    0.5679   -0.0457 H   0  0  0  0  0  0  0  0  0  0  0  0
  1  2  2  0
  2  3  1  0
  2  4  1  0
  4  5  2  0
  4  9  1  0
  5  6  1  0
  5 11  1  0
  6  7  2  0
  6 12  1  0
  7  8  1  0
  7 13  1  0
  8  9  1  0
  8 14  1  0
  9 10  2  0
 15  3  1  0
M  END
