
     RDKit          3D

 47 48  0  0  0  0  0  0  0  0999 V2000
   -2.5816   -1.9078   -0.4934 O   0  0  0  0  0  0  0  0  0  0  0  0
   -2.4731   -0.7289   -0.1979 C   0  0  0  0  0  0  0  0  0  0  0  0
   -3.5141    0.1169   -0.0529 N   0  0  0  0  0  0  0  0  0  0  0  0
   -4.8837   -0.2708   -0.3011 C   0  0  0  0  0  0  0  0  0  0  0  0
   -5.8231    0.4305    0.6551 C   0  0  0  0  0  0  0  0  0  0  0  0
   -5.7075    1.8237    0.4584 O   0  0  0  0  0  0  0  0  0  0  0  0
   -1.2487   -0.1355    0.0328 N   0  0  0  0  0  0  0  0  0  0  0  0
   -0.0430   -0.7977   -0.0301 C   0  0  0  0  0  0  0  0  0  0  0  0
    0.2980   -2.1307   -0.0249 C   0  0  0  0  0  0  0  0  0  0  0  0
    1.7113   -2.1366   -0.0380 C   0  0  0  0  0  0  0  0  0  0  0  0
    2.6080   -3.3460   -0.0409 C   0  0  1  0  0  0  0  0  0  0  0  0
    2.3228   -4.1862    1.2100 C   0  0  0  0  0  0  0  0  0  0  0  0
    2.3134   -4.1853   -1.2902 C   0  0  0  0  0  0  0  0  0  0  0  0
    4.0811   -2.9403   -0.0461 C   0  0  0  0  0  0  0  0  0  0  0  0
    2.1935   -0.9146   -0.0493 N   0  0  0  0  0  0  0  0  0  0  0  0
    1.1210   -0.0988   -0.0617 N   0  0  0  0  0  0  0  0  0  0  0  0
    1.3036    1.3007   -0.0665 C   0  0  0  0  0  0  0  0  0  0  0  0
    2.1308    1.8882    0.8850 C   0  0  0  0  0  0  0  0  0  0  0  0
    0.6800    2.0893   -1.0239 C   0  0  0  0  0  0  0  0  0  0  0  0
    0.8731    3.4646   -1.0141 C   0  0  0  0  0  0  0  0  0  0  0  0
    1.7007    4.0711   -0.0751 C   0  0  0  0  0  0  0  0  0  0  0  0
    1.9332    5.5533   -0.0777 C   0  0  0  0  0  0  0  0  0  0  0  0
    2.3281    3.2576    0.8700 C   0  0  0  0  0  0  0  0  0  0  0  0
   -3.3449    1.1011    0.0835 H   0  0  0  0  0  0  0  0  0  0  0  0
   -5.1717   -0.0534   -1.3353 H   0  0  0  0  0  0  0  0  0  0  0  0
   -4.9825   -1.3454   -0.1580 H   0  0  0  0  0  0  0  0  0  0  0  0
   -6.8420    0.0753    0.4596 H   0  0  0  0  0  0  0  0  0  0  0  0
   -5.5680    0.1455    1.6820 H   0  0  0  0  0  0  0  0  0  0  0  0
   -6.1314    2.2722    1.1951 H   0  0  0  0  0  0  0  0  0  0  0  0
   -1.2266    0.8313    0.3221 H   0  0  0  0  0  0  0  0  0  0  0  0
   -0.3696   -2.9718    0.0006 H   0  0  0  0  0  0  0  0  0  0  0  0
    1.2884   -4.5321    1.2385 H   0  0  0  0  0  0  0  0  0  0  0  0
    2.9674   -5.0676    1.2281 H   0  0  0  0  0  0  0  0  0  0  0  0
    2.5095   -3.6156    2.1215 H   0  0  0  0  0  0  0  0  0  0  0  0
    2.4921   -3.6135   -2.2024 H   0  0  0  0  0  0  0  0  0  0  0  0
    2.9584   -5.0663   -1.3144 H   0  0  0  0  0  0  0  0  0  0  0  0
    1.2787   -4.5313   -1.3100 H   0  0  0  0  0  0  0  0  0  0  0  0
    4.3443   -2.3512    0.8333 H   0  0  0  0  0  0  0  0  0  0  0  0
    4.7045   -3.8362   -0.0460 H   0  0  0  0  0  0  0  0  0  0  0  0
    4.3384   -2.3553   -0.9300 H   0  0  0  0  0  0  0  0  0  0  0  0
    2.6148    1.2738    1.6325 H   0  0  0  0  0  0  0  0  0  0  0  0
    0.0608    1.6375   -1.7886 H   0  0  0  0  0  0  0  0  0  0  0  0
    0.3796    4.0684   -1.7656 H   0  0  0  0  0  0  0  0  0  0  0  0
    1.7361    5.9870    0.9034 H   0  0  0  0  0  0  0  0  0  0  0  0
    2.9695    5.7856   -0.3288 H   0  0  0  0  0  0  0  0  0  0  0  0
    1.2965    6.0583   -0.8022 H   0  0  0  0  0  0  0  0  0  0  0  0
    2.9747    3.7053    1.6154 H   0  0  0  0  0  0  0  0  0  0  0  0
  5  6  1  0
  5  4  1  0
  4  3  1  0
  3  2  1  0
  1  2  2  0
  2  7  1  0
  7  8  1  0
  8  9  2  0
  8 16  1  0
 19 20  2  0
 19 17  1  0
 20 21  1  0
  9 10  1  0
 16 17  1  0
 16 15  1  0
 11 12  1  1
 17 18  2  0
 10 15  2  0
 10 11  1  0
 21 22  1  0
 21 23  2  0
 11 13  1  0
 11 14  1  0
 18 23  1  0
  3 24  1  0
  4 25  1  0
  4 26  1  0
  5 27  1  0
  5 28  1  0
  6 29  1  0
  7 30  1  0
  9 31  1  0
 12 32  1  0
 12 33  1  0
 12 34  1  0
 13 35  1  0
 13 36  1  0
 13 37  1  0
 14 38  1  0
 14 39  1  0
 14 40  1  0
 18 41  1  0
 19 42  1  0
 20 43  1  0
 22 44  1  0
 22 45  1  0
 22 46  1  0
 23 47  1  0
M  END
