
     RDKit          3D

 52 54  0  0  0  0  0  0  0  0999 V2000
   -3.1684   -0.5794   -2.6641 C   0  0  0  0  0  0  0  0  0  0  0  0
   -1.9117   -0.7709   -3.2837 O   0  0  0  0  0  0  0  0  0  0  0  0
   -0.8303   -0.2003   -2.7275 C   0  0  0  0  0  0  0  0  0  0  0  0
   -0.8607    0.6027   -1.5903 C   0  0  0  0  0  0  0  0  0  0  0  0
    0.3864   -0.4704   -3.3624 C   0  0  0  0  0  0  0  0  0  0  0  0
    0.4216   -1.2859   -4.4492 O   0  0  0  0  0  0  0  0  0  0  0  0
    0.2721   -0.6079   -5.6897 C   0  0  0  0  0  0  0  0  0  0  0  0
    1.5668    0.0818   -2.8621 C   0  0  0  0  0  0  0  0  0  0  0  0
    2.6876   -0.2286   -3.5343 O   0  0  0  0  0  0  0  0  0  0  0  0
    3.9244    0.2313   -3.0270 C   0  0  0  0  0  0  0  0  0  0  0  0
    1.5305    0.8868   -1.7237 C   0  0  0  0  0  0  0  0  0  0  0  0
    0.3199    1.1423   -1.0957 C   0  0  0  0  0  0  0  0  0  0  0  0
    0.2835    2.0128    0.1399 C   0  0  0  0  0  0  0  0  0  0  0  0
   -0.4289    1.3700    1.2804 C   0  0  0  0  0  0  0  0  0  0  0  0
   -1.5761    1.7724    1.7574 N   0  0  0  0  0  0  0  0  0  0  0  0
   -1.8631    0.8908    2.7651 C   0  0  0  0  0  0  0  0  0  0  0  0
   -2.9430    0.7699    3.6556 C   0  0  0  0  0  0  0  0  0  0  0  0
   -3.9753    1.6204    3.6633 N   0  0  0  0  0  0  0  0  0  0  0  0
   -0.8586   -0.0567    2.8853 C   0  0  0  0  0  0  0  0  0  0  0  0
   -0.8179   -1.0583    3.7618 N   0  0  0  0  0  0  0  0  0  0  0  0
   -1.8826   -1.0680    4.5448 C   0  0  0  0  0  0  0  0  0  0  0  0
   -2.9183   -0.2325    4.5414 N   0  0  0  0  0  0  0  0  0  0  0  0
    0.0523    0.2568    1.9221 N   0  0  0  0  0  0  0  0  0  0  0  0
    1.3044   -0.4359    1.6843 C   0  0  0  0  0  0  0  0  0  0  0  0
    2.4851    0.2064    2.3991 C   0  0  0  0  0  0  0  0  0  0  0  0
    3.7969   -0.4745    2.0301 C   0  0  0  0  0  0  0  0  0  0  0  0
    4.9928    0.1364    2.7455 C   0  0  0  0  0  0  0  0  0  0  0  0
   -3.8904   -1.1380   -3.2543 H   0  0  0  0  0  0  0  0  0  0  0  0
   -3.1812   -0.9618   -1.6402 H   0  0  0  0  0  0  0  0  0  0  0  0
   -3.4634    0.4729   -2.6529 H   0  0  0  0  0  0  0  0  0  0  0  0
   -1.7936    0.8163   -1.0849 H   0  0  0  0  0  0  0  0  0  0  0  0
    0.3188   -1.3595   -6.4756 H   0  0  0  0  0  0  0  0  0  0  0  0
   -0.6885   -0.0916   -5.7553 H   0  0  0  0  0  0  0  0  0  0  0  0
    1.0718    0.1187   -5.8532 H   0  0  0  0  0  0  0  0  0  0  0  0
    4.6924   -0.1512   -3.6945 H   0  0  0  0  0  0  0  0  0  0  0  0
    3.9829    1.3225   -3.0133 H   0  0  0  0  0  0  0  0  0  0  0  0
    4.1159   -0.1451   -2.0183 H   0  0  0  0  0  0  0  0  0  0  0  0
    2.4354    1.3129   -1.3105 H   0  0  0  0  0  0  0  0  0  0  0  0
   -0.2360    2.9478   -0.0772 H   0  0  0  0  0  0  0  0  0  0  0  0
    1.3015    2.2827    0.4323 H   0  0  0  0  0  0  0  0  0  0  0  0
   -4.7788    1.4203    4.2340 H   0  0  0  0  0  0  0  0  0  0  0  0
   -4.0803    2.3023    2.9324 H   0  0  0  0  0  0  0  0  0  0  0  0
   -1.9234   -1.8578    5.2872 H   0  0  0  0  0  0  0  0  0  0  0  0
    1.4788   -0.4698    0.6084 H   0  0  0  0  0  0  0  0  0  0  0  0
    1.1719   -1.4656    2.0158 H   0  0  0  0  0  0  0  0  0  0  0  0
    2.3279    0.1572    3.4804 H   0  0  0  0  0  0  0  0  0  0  0  0
    2.5433    1.2681    2.1407 H   0  0  0  0  0  0  0  0  0  0  0  0
    3.9429   -0.4081    0.9472 H   0  0  0  0  0  0  0  0  0  0  0  0
    3.7330   -1.5415    2.2621 H   0  0  0  0  0  0  0  0  0  0  0  0
    5.9227   -0.3500    2.4501 H   0  0  0  0  0  0  0  0  0  0  0  0
    5.0879    1.1996    2.5174 H   0  0  0  0  0  0  0  0  0  0  0  0
    4.8974    0.0391    3.8282 H   0  0  0  0  0  0  0  0  0  0  0  0
  1  2  1  0
  1 28  1  0
  1 29  1  0
  1 30  1  0
  2  3  1  0
  3  4  2  0
  3  5  1  0
  4 12  1  0
  4 31  1  0
  5  6  1  0
  5  8  2  0
  6  7  1  0
  7 32  1  0
  7 33  1  0
  7 34  1  0
  8  9  1  0
  8 11  1  0
  9 10  1  0
 10 35  1  0
 10 36  1  0
 10 37  1  0
 11 12  2  0
 11 38  1  0
 12 13  1  0
 13 14  1  0
 13 39  1  0
 13 40  1  0
 14 15  2  0
 14 23  1  0
 15 16  1  0
 16 17  2  0
 16 19  1  0
 17 18  1  0
 17 22  1  0
 18 41  1  0
 18 42  1  0
 19 20  2  0
 19 23  1  0
 20 21  1  0
 21 22  2  0
 21 43  1  0
 23 24  1  0
 24 25  1  0
 24 44  1  0
 24 45  1  0
 25 26  1  0
 25 46  1  0
 25 47  1  0
 26 27  1  0
 26 48  1  0
 26 49  1  0
 27 50  1  0
 27 51  1  0
 27 52  1  0
M  END
