
     RDKit          3D

 52 55  0  0  0  0  0  0  0  0999 V2000
   -2.2349    1.7150    1.7271 C   0  0  0  0  0  0  0  0  0  0  0  0
   -1.0093    2.1116    1.2722 C   0  0  0  0  0  0  0  0  0  0  0  0
   -0.5060    1.6122    0.0481 C   0  0  0  0  0  0  0  0  0  0  0  0
   -1.2601    0.7547   -0.7105 C   0  0  0  0  0  0  0  0  0  0  0  0
   -2.5424    0.3523   -0.2738 C   0  0  0  0  0  0  0  0  0  0  0  0
   -3.0289    0.8297    0.9642 C   0  0  0  0  0  0  0  0  0  0  0  0
   -4.4479   -0.8771   -0.6575 C   0  0  0  0  0  0  0  0  0  0  0  0
   -5.0230   -0.4744    0.5834 C   0  0  0  0  0  0  0  0  0  0  0  0
   -4.3017    0.3828    1.3699 C   0  0  0  0  0  0  0  0  0  0  0  0
   -5.2126   -1.7637   -1.6037 C   0  0  0  0  0  0  0  0  0  0  0  0
   -6.3509   -2.5251   -0.9394 C   0  0  0  0  0  0  0  0  0  0  0  0
   -7.1955   -1.5791   -0.0989 C   0  0  0  0  0  0  0  0  0  0  0  0
   -6.3615   -0.9981    1.0349 C   0  0  0  0  0  0  0  0  0  0  0  0
    0.8013    2.1478   -0.4450 C   0  0  0  0  0  0  0  0  0  0  0  0
    3.0204    1.7349   -1.3449 C   0  0  0  0  0  0  0  0  0  0  0  0
    4.1272    1.5805   -0.3117 C   0  0  0  0  0  0  0  0  0  0  0  0
    2.9244   -0.2936    0.6654 C   0  0  0  0  0  0  0  0  0  0  0  0
    1.8175   -0.1207   -0.3685 C   0  0  0  0  0  0  0  0  0  0  0  0
    5.3293   -0.5040    0.0559 C   0  0  0  0  0  0  0  0  0  0  0  0
    6.3322   -2.6102    0.4512 C   0  0  0  0  0  0  0  0  0  0  0  0
    5.9103   -3.9600    0.9799 C   0  0  0  0  0  0  0  0  0  0  0  0
   -3.2639   -0.4807   -1.0540 N   0  0  0  0  0  0  0  0  0  0  0  0
    1.7536    1.2624   -0.8114 N   0  0  0  0  0  0  0  0  0  0  0  0
    4.1843    0.2072    0.1498 N   0  0  0  0  0  0  0  0  0  0  0  0
    0.9464    3.3597   -0.5301 O   0  0  0  0  0  0  0  0  0  0  0  0
    6.3743   -0.0699   -0.3915 O   0  0  0  0  0  0  0  0  0  0  0  0
    5.1914   -1.7474    0.5148 O   0  0  0  0  0  0  0  0  0  0  0  0
   -2.6102    2.0810    2.6748 H   0  0  0  0  0  0  0  0  0  0  0  0
   -0.4100    2.7977    1.8561 H   0  0  0  0  0  0  0  0  0  0  0  0
   -0.8993    0.3746   -1.6590 H   0  0  0  0  0  0  0  0  0  0  0  0
   -4.7062    0.7223    2.3178 H   0  0  0  0  0  0  0  0  0  0  0  0
   -5.6230   -1.1277   -2.3962 H   0  0  0  0  0  0  0  0  0  0  0  0
   -4.5131   -2.4418   -2.0961 H   0  0  0  0  0  0  0  0  0  0  0  0
   -6.9578   -3.0117   -1.7047 H   0  0  0  0  0  0  0  0  0  0  0  0
   -5.9495   -3.3216   -0.3052 H   0  0  0  0  0  0  0  0  0  0  0  0
   -7.5815   -0.7734   -0.7309 H   0  0  0  0  0  0  0  0  0  0  0  0
   -8.0627   -2.0959    0.3156 H   0  0  0  0  0  0  0  0  0  0  0  0
   -6.1883   -1.7790    1.7829 H   0  0  0  0  0  0  0  0  0  0  0  0
   -6.9072   -0.2054    1.5511 H   0  0  0  0  0  0  0  0  0  0  0  0
    2.9317    2.7740   -1.6489 H   0  0  0  0  0  0  0  0  0  0  0  0
    3.2631    1.1432   -2.2320 H   0  0  0  0  0  0  0  0  0  0  0  0
    5.0810    1.8668   -0.7458 H   0  0  0  0  0  0  0  0  0  0  0  0
    3.9345    2.2455    0.5368 H   0  0  0  0  0  0  0  0  0  0  0  0
    2.6584    0.2609    1.5719 H   0  0  0  0  0  0  0  0  0  0  0  0
    3.0006   -1.3424    0.9332 H   0  0  0  0  0  0  0  0  0  0  0  0
    2.0106   -0.7635   -1.2310 H   0  0  0  0  0  0  0  0  0  0  0  0
    0.8736   -0.4312    0.0698 H   0  0  0  0  0  0  0  0  0  0  0  0
    7.1472   -2.1973    1.0494 H   0  0  0  0  0  0  0  0  0  0  0  0
    6.6812   -2.6934   -0.5800 H   0  0  0  0  0  0  0  0  0  0  0  0
    6.7594   -4.6412    0.9403 H   0  0  0  0  0  0  0  0  0  0  0  0
    5.5774   -3.9002    2.0161 H   0  0  0  0  0  0  0  0  0  0  0  0
    5.1080   -4.3908    0.3809 H   0  0  0  0  0  0  0  0  0  0  0  0
 13 12  1  0
 13  8  1  0
  9  8  2  0
  9  6  1  0
  1  6  2  0
  1  2  1  0
 12 11  1  0
  8  7  1  0
  6  5  1  0
  2  3  2  0
 11 10  1  0
  7 10  1  0
  7 22  2  0
  5 22  1  0
  5  4  2  0
 16 15  1  0
 16 24  1  0
  3  4  1  0
  3 14  1  0
 26 19  2  0
 15 23  1  0
 21 20  1  0
 24 19  1  0
 24 17  1  0
 19 27  1  0
 23 14  1  0
 23 18  1  0
 14 25  2  0
 17 18  1  0
 20 27  1  0
  1 28  1  0
  2 29  1  0
  4 30  1  0
  9 31  1  0
 10 32  1  0
 10 33  1  0
 11 34  1  0
 11 35  1  0
 12 36  1  0
 12 37  1  0
 13 38  1  0
 13 39  1  0
 15 40  1  0
 15 41  1  0
 16 42  1  0
 16 43  1  0
 17 44  1  0
 17 45  1  0
 18 46  1  0
 18 47  1  0
 20 48  1  0
 20 49  1  0
 21 50  1  0
 21 51  1  0
 21 52  1  0
M  END
