
     RDKit          3D

 75 78  0  0  0  0  0  0  0  0999 V2000
    5.8806    2.6918    2.0632 C   0  0  0  0  0  0  0  0  0  0  0  0
    7.2704    3.1585    1.6763 C   0  0  0  0  0  0  0  0  0  0  0  0
    7.2275    4.0872    0.6152 O   0  0  0  0  0  0  0  0  0  0  0  0
    6.5788    3.5300   -0.5058 C   0  0  0  0  0  0  0  0  0  0  0  0
    5.1746    3.0635   -0.1713 C   0  0  0  0  0  0  0  0  0  0  0  0
    5.2169    2.0999    0.9150 N   0  0  0  0  0  0  0  0  0  0  0  0
    3.9084    1.5893    1.2660 C   0  0  0  0  0  0  0  0  0  0  0  0
    3.3321    0.6635    0.1910 C   0  0  1  0  0  0  0  0  0  0  0  0
    4.3312   -0.4468   -0.1461 C   0  0  0  0  0  0  0  0  0  0  0  0
    3.7052   -1.5584   -0.8325 N   0  0  0  0  0  0  0  0  0  0  0  0
    4.5773   -2.7193   -0.8841 C   0  0  0  0  0  0  0  0  0  0  0  0
    3.8669   -3.8752   -1.5604 C   0  0  0  0  0  0  0  0  0  0  0  0
    3.4344   -3.5288   -2.8577 O   0  0  0  0  0  0  0  0  0  0  0  0
    2.5806   -2.4077   -2.8154 C   0  0  0  0  0  0  0  0  0  0  0  0
    3.2556   -1.2126   -2.1711 C   0  0  0  0  0  0  0  0  0  0  0  0
    2.1116    0.0328    0.6613 N   0  0  0  0  0  0  0  0  0  0  0  0
    0.9358    0.6718    0.7419 C   0  0  0  0  0  0  0  0  0  0  0  0
    0.7930    1.8637    0.5119 O   0  0  0  0  0  0  0  0  0  0  0  0
   -0.2385   -0.1732    1.1431 C   0  0  0  0  0  0  0  0  0  0  0  0
   -1.5026    0.2741    0.7693 C   0  0  0  0  0  0  0  0  0  0  0  0
   -0.0880   -1.3388    1.8788 C   0  0  0  0  0  0  0  0  0  0  0  0
   -1.2311   -2.0455    2.2165 C   0  0  0  0  0  0  0  0  0  0  0  0
   -1.0952   -3.2747    2.9911 N   0  0  0  0  0  0  0  0  0  0  0  0
    0.0138   -3.6041    3.3368 O   0  0  0  0  0  0  0  0  0  0  0  0
   -2.0967   -3.8999    3.2433 O   0  0  0  0  0  0  0  0  0  0  0  0
   -2.4973   -1.6293    1.8561 C   0  0  0  0  0  0  0  0  0  0  0  0
   -2.6343   -0.4497    1.1289 C   0  0  0  0  0  0  0  0  0  0  0  0
   -3.8990   -0.1001    0.8343 O   0  0  0  0  0  0  0  0  0  0  0  0
   -4.1596    1.1254    0.1807 C   0  0  1  0  0  0  0  0  0  0  0  0
   -3.7382    1.1074   -1.1374 O   0  0  0  0  0  0  0  0  0  0  0  0
   -4.4085    0.1780   -1.9837 C   0  0  2  0  0  0  0  0  0  0  0  0
   -3.7874    0.2856   -3.3597 C   0  0  0  0  0  0  0  0  0  0  0  0
   -2.4611   -0.1810   -3.2894 O   0  0  0  0  0  0  0  0  0  0  0  0
   -5.9095    0.4239   -1.9994 C   0  0  2  0  0  0  0  0  0  0  0  0
   -6.1641    1.6585   -2.6221 O   0  0  0  0  0  0  0  0  0  0  0  0
   -6.4391    0.3913   -0.5665 C   0  0  2  0  0  0  0  0  0  0  0  0
   -7.8099    0.7027   -0.6124 O   0  0  0  0  0  0  0  0  0  0  0  0
   -5.6642    1.3847    0.2898 C   0  0  1  0  0  0  0  0  0  0  0  0
   -6.1246    1.2900    1.6124 O   0  0  0  0  0  0  0  0  0  0  0  0
    5.3074    3.5413    2.4726 H   0  0  0  0  0  0  0  0  0  0  0  0
    5.9668    1.9461    2.8571 H   0  0  0  0  0  0  0  0  0  0  0  0
    7.7526    3.6492    2.5230 H   0  0  0  0  0  0  0  0  0  0  0  0
    7.8794    2.2866    1.3979 H   0  0  0  0  0  0  0  0  0  0  0  0
    6.5431    4.2978   -1.2796 H   0  0  0  0  0  0  0  0  0  0  0  0
    7.1537    2.6790   -0.8982 H   0  0  0  0  0  0  0  0  0  0  0  0
    4.7542    2.6089   -1.0698 H   0  0  0  0  0  0  0  0  0  0  0  0
    4.5405    3.9304    0.0833 H   0  0  0  0  0  0  0  0  0  0  0  0
    3.1944    2.4010    1.4733 H   0  0  0  0  0  0  0  0  0  0  0  0
    4.0057    1.0038    2.1847 H   0  0  0  0  0  0  0  0  0  0  0  0
    3.0973    1.2440   -0.7075 H   0  0  0  0  0  0  0  0  0  0  0  0
    5.1636   -0.0167   -0.7197 H   0  0  0  0  0  0  0  0  0  0  0  0
    4.7574   -0.8285    0.7869 H   0  0  0  0  0  0  0  0  0  0  0  0
    5.5155   -2.4970   -1.4190 H   0  0  0  0  0  0  0  0  0  0  0  0
    4.8472   -3.0138    0.1325 H   0  0  0  0  0  0  0  0  0  0  0  0
    4.5431   -4.7259   -1.6558 H   0  0  0  0  0  0  0  0  0  0  0  0
    3.0137   -4.1890   -0.9422 H   0  0  0  0  0  0  0  0  0  0  0  0
    2.2994   -2.1696   -3.8420 H   0  0  0  0  0  0  0  0  0  0  0  0
    1.6621   -2.6455   -2.2598 H   0  0  0  0  0  0  0  0  0  0  0  0
    2.5317   -0.3968   -2.1226 H   0  0  0  0  0  0  0  0  0  0  0  0
    4.0938   -0.8675   -2.7996 H   0  0  0  0  0  0  0  0  0  0  0  0
    2.1213   -0.9770    0.5877 H   0  0  0  0  0  0  0  0  0  0  0  0
   -1.5720    1.1834    0.1903 H   0  0  0  0  0  0  0  0  0  0  0  0
    0.8839   -1.6785    2.2050 H   0  0  0  0  0  0  0  0  0  0  0  0
   -3.3791   -2.1901    2.1329 H   0  0  0  0  0  0  0  0  0  0  0  0
   -3.6048    1.9335    0.6717 H   0  0  0  0  0  0  0  0  0  0  0  0
   -4.2526   -0.8471   -1.6226 H   0  0  0  0  0  0  0  0  0  0  0  0
   -3.8364    1.3231   -3.7092 H   0  0  0  0  0  0  0  0  0  0  0  0
   -4.3931   -0.3168   -4.0490 H   0  0  0  0  0  0  0  0  0  0  0  0
   -2.0730   -0.0975   -4.1649 H   0  0  0  0  0  0  0  0  0  0  0  0
   -6.3722   -0.4044   -2.5567 H   0  0  0  0  0  0  0  0  0  0  0  0
   -7.1048    1.8484   -2.5368 H   0  0  0  0  0  0  0  0  0  0  0  0
   -6.2837   -0.6240   -0.1733 H   0  0  0  0  0  0  0  0  0  0  0  0
   -8.1266    0.8266    0.2888 H   0  0  0  0  0  0  0  0  0  0  0  0
   -5.8307    2.3908   -0.1146 H   0  0  0  0  0  0  0  0  0  0  0  0
   -5.9339    2.1155    2.0676 H   0  0  0  0  0  0  0  0  0  0  0  0
  1  2  1  0
  1  6  1  0
  1 40  1  0
  1 41  1  0
  2  3  1  0
  2 42  1  0
  2 43  1  0
  3  4  1  0
  4  5  1  0
  4 44  1  0
  4 45  1  0
  5  6  1  0
  5 46  1  0
  5 47  1  0
  6  7  1  0
  7  8  1  0
  7 48  1  0
  7 49  1  0
  8  9  1  0
  8 16  1  0
  8 50  1  6
  9 10  1  0
  9 51  1  0
  9 52  1  0
 10 11  1  0
 10 15  1  0
 11 12  1  0
 11 53  1  0
 11 54  1  0
 12 13  1  0
 12 55  1  0
 12 56  1  0
 13 14  1  0
 14 15  1  0
 14 57  1  0
 14 58  1  0
 15 59  1  0
 15 60  1  0
 16 17  1  0
 16 61  1  0
 17 18  2  0
 17 19  1  0
 19 20  2  0
 19 21  1  0
 20 27  1  0
 20 62  1  0
 21 22  2  0
 21 63  1  0
 22 23  1  0
 22 26  1  0
 23 24  1  0
 23 25  2  0
 26 27  2  0
 26 64  1  0
 27 28  1  0
 28 29  1  0
 29 30  1  0
 29 38  1  0
 29 65  1  1
 30 31  1  0
 31 32  1  0
 31 34  1  0
 31 66  1  1
 32 33  1  0
 32 67  1  0
 32 68  1  0
 33 69  1  0
 34 35  1  0
 34 36  1  0
 34 70  1  6
 35 71  1  0
 36 37  1  0
 36 38  1  0
 36 72  1  1
 37 73  1  0
 38 39  1  0
 38 74  1  6
 39 75  1  0
M  CHG  2  23   1  24  -1
M  END
