
     RDKit          3D

 32 33  0  0  0  0  0  0  0  0999 V2000
   -1.6594   -2.5955    1.1250 O   0  0  0  0  0  0  0  0  0  0  0  0
    0.5838    0.2035   -0.4146 C   0  0  0  0  0  0  0  0  0  0  0  0
   -2.0875    1.4530   -0.2711 C   0  0  0  0  0  0  0  0  0  0  0  0
   -3.3738    1.9422   -0.3347 C   0  0  0  0  0  0  0  0  0  0  0  0
   -4.4636    1.1364   -0.0127 C   0  0  0  0  0  0  0  0  0  0  0  0
   -4.2322   -0.1609    0.3880 C   0  0  0  0  0  0  0  0  0  0  0  0
    1.6689    1.2464   -2.3036 C   0  0  0  0  0  0  0  0  0  0  0  0
    2.9088    0.6942   -0.3498 C   0  0  0  0  0  0  0  0  0  0  0  0
    4.5335   -0.3650    0.8636 O   0  0  0  0  0  0  0  0  0  0  0  0
    4.2179    0.6488    0.2873 N   0  0  0  0  0  0  0  0  0  0  0  0
    4.9304    1.6184    0.1757 O   0  0  0  0  0  0  0  0  0  0  0  0
    1.7887    0.1900    0.3101 C   0  0  0  0  0  0  0  0  0  0  0  0
    1.7942   -0.3140    1.7233 C   0  0  0  0  0  0  0  0  0  0  0  0
    2.8709    1.2476   -1.6203 C   0  0  0  0  0  0  0  0  0  0  0  0
    0.5390    0.7123   -1.7115 C   0  0  0  0  0  0  0  0  0  0  0  0
   -1.8318    0.1250    0.1103 C   0  0  0  0  0  0  0  0  0  0  0  0
   -2.9368   -0.6911    0.4630 C   0  0  0  0  0  0  0  0  0  0  0  0
   -2.7416   -2.0767    0.9203 C   0  0  0  0  0  0  0  0  0  0  0  0
   -3.8734   -2.7407    1.1042 O   0  0  0  0  0  0  0  0  0  0  0  0
   -1.2635    2.1141   -0.5011 H   0  0  0  0  0  0  0  0  0  0  0  0
   -3.5292    2.9728   -0.6275 H   0  0  0  0  0  0  0  0  0  0  0  0
   -5.4722    1.5218   -0.0646 H   0  0  0  0  0  0  0  0  0  0  0  0
   -5.0763   -0.7811    0.6542 H   0  0  0  0  0  0  0  0  0  0  0  0
    1.6172    1.6409   -3.3087 H   0  0  0  0  0  0  0  0  0  0  0  0
    1.9187   -1.3978    1.7628 H   0  0  0  0  0  0  0  0  0  0  0  0
    2.5808    0.1278    2.3285 H   0  0  0  0  0  0  0  0  0  0  0  0
    0.8455   -0.0777    2.2021 H   0  0  0  0  0  0  0  0  0  0  0  0
    3.7662    1.6381   -2.0827 H   0  0  0  0  0  0  0  0  0  0  0  0
   -0.3885    0.6826   -2.2680 H   0  0  0  0  0  0  0  0  0  0  0  0
   -0.4517   -1.2543    0.6227 H   0  0  0  0  0  0  0  0  0  0  0  0
   -3.6780   -3.6355    1.4198 H   0  0  0  0  0  0  0  0  0  0  0  0
   -0.5506   -0.3518    0.1763 N   0  0  0  0  0  0  0  0  0  0  0  0
  4  5  1  0
  4  3  2  0
  5  6  2  0
  3 16  1  0
 15  7  2  0
 15  2  1  0
  7 14  1  0
  6 17  1  0
 16 17  2  0
 16 32  1  0
 17 18  1  0
  2 32  1  0
  2 12  2  0
 14  8  2  0
 18  1  2  0
 18 19  1  0
 12  8  1  0
 12 13  1  0
  8 10  1  0
 10 11  2  0
 10  9  1  0
  3 20  1  0
  4 21  1  0
  5 22  1  0
  6 23  1  0
  7 24  1  0
 13 25  1  0
 13 26  1  0
 13 27  1  0
 14 28  1  0
 15 29  1  0
 32 30  1  0
 19 31  1  0
M  CHG  2   9  -1  10   1
M  END
