
     RDKit          3D

 26 27  0  0  0  0  0  0  0  0999 V2000
   -0.2935    1.2987   -2.4222 N   0  0  0  0  0  0  0  0  0  0  0  0
   -0.2549    0.9966   -1.1310 C   0  0  0  0  0  0  0  0  0  0  0  0
    0.0602   -0.2665   -0.6355 C   0  0  0  0  0  0  0  0  0  0  0  0
    0.3533   -1.2567   -1.5629 C   0  0  0  0  0  0  0  0  0  0  0  0
    0.3101   -0.9568   -2.9166 C   0  0  0  0  0  0  0  0  0  0  0  0
   -0.0192    0.3348   -3.2956 C   0  0  0  0  0  0  0  0  0  0  0  0
    0.5510    0.5384    1.6442 N   0  0  0  0  0  0  0  0  0  0  0  0
    0.0352   -0.5538    0.8387 C   0  0  1  0  0  0  0  0  0  0  0  0
   -1.3841   -0.7458    1.3934 C   0  0  0  0  0  0  0  0  0  0  0  0
   -1.2804   -0.3123    2.8671 C   0  0  0  0  0  0  0  0  0  0  0  0
    0.1463    0.2279    3.0039 C   0  0  0  0  0  0  0  0  0  0  0  0
    1.9702    0.7570    1.5084 C   0  0  0  0  0  0  0  0  0  0  0  0
   -0.4747    1.7997   -0.4354 H   0  0  0  0  0  0  0  0  0  0  0  0
    0.6172   -2.2536   -1.2292 H   0  0  0  0  0  0  0  0  0  0  0  0
    0.5318   -1.7060   -3.6644 H   0  0  0  0  0  0  0  0  0  0  0  0
   -0.0599    0.6038   -4.3453 H   0  0  0  0  0  0  0  0  0  0  0  0
    0.6136   -1.4797    1.0161 H   0  0  0  0  0  0  0  0  0  0  0  0
   -1.7203   -1.7744    1.2675 H   0  0  0  0  0  0  0  0  0  0  0  0
   -2.0846   -0.1083    0.8518 H   0  0  0  0  0  0  0  0  0  0  0  0
   -1.4526   -1.1394    3.5547 H   0  0  0  0  0  0  0  0  0  0  0  0
   -2.0186    0.4561    3.0963 H   0  0  0  0  0  0  0  0  0  0  0  0
    0.8002   -0.5417    3.4465 H   0  0  0  0  0  0  0  0  0  0  0  0
    0.2142    1.1119    3.6414 H   0  0  0  0  0  0  0  0  0  0  0  0
    2.5678   -0.1202    1.8026 H   0  0  0  0  0  0  0  0  0  0  0  0
    2.2241    1.0063    0.4776 H   0  0  0  0  0  0  0  0  0  0  0  0
    2.2800    1.5953    2.1338 H   0  0  0  0  0  0  0  0  0  0  0  0
  1  2  2  0
  1  6  1  0
  2  3  1  0
  2 13  1  0
  3  4  2  0
  3  8  1  0
  4  5  1  0
  4 14  1  0
  5  6  2  0
  5 15  1  0
  6 16  1  0
  7  8  1  0
  7 11  1  0
  7 12  1  0
  8  9  1  0
  8 17  1  6
  9 10  1  0
  9 18  1  0
  9 19  1  0
 10 11  1  0
 10 20  1  0
 10 21  1  0
 11 22  1  0
 11 23  1  0
 12 24  1  0
 12 25  1  0
 12 26  1  0
M  END
