
     RDKit          3D

 80 86  0  0  0  0  0  0  0  0999 V2000
   -3.3628    4.0804    1.5240 C   0  0  2  0  0  0  0  0  0  0  0  0
   -0.4221   -0.5880   -0.0178 C   0  0  0  0  0  0  0  0  0  0  0  0
    3.2485    2.4164   -0.1711 C   0  0  0  0  0  0  0  0  0  0  0  0
    4.2569    1.5346    0.1677 C   0  0  0  0  0  0  0  0  0  0  0  0
    3.9120    0.2039    0.3998 C   0  0  0  0  0  0  0  0  0  0  0  0
    4.9210   -0.7843    0.7827 C   0  0  0  0  0  0  0  0  0  0  0  0
    6.2004   -1.0325    0.2011 C   0  0  0  0  0  0  0  0  0  0  0  0
   -4.5149    4.7118    0.7086 C   0  0  1  0  0  0  0  0  0  0  0  0
   -5.5138    3.5645    0.5717 C   0  0  0  0  0  0  0  0  0  0  0  0
   -5.1294    1.1425    0.2463 C   0  0  0  0  0  0  0  0  0  0  0  0
   -4.0020    0.1876    0.0075 C   0  0  0  0  0  0  0  0  0  0  0  0
   -4.0283   -1.1365   -0.4065 C   0  0  0  0  0  0  0  0  0  0  0  0
   -2.6885   -1.5646   -0.4513 C   0  0  0  0  0  0  0  0  0  0  0  0
   -1.8855   -0.5080   -0.0835 C   0  0  0  0  0  0  0  0  0  0  0  0
   -2.3153    1.8867    0.6662 C   0  0  0  0  0  0  0  0  0  0  0  0
   -3.5242    2.5778    1.2562 C   0  0  2  0  0  0  0  0  0  0  0  0
    1.6416    0.8050   -0.0492 C   0  0  0  0  0  0  0  0  0  0  0  0
    2.5809   -0.1740    0.2765 C   0  0  0  0  0  0  0  0  0  0  0  0
    4.8746   -1.6520    1.8322 C   0  0  0  0  0  0  0  0  0  0  0  0
    6.8241   -0.3970   -0.9645 C   0  0  0  0  0  0  0  0  0  0  0  0
    8.1910   -0.1224   -0.9648 C   0  0  0  0  0  0  0  0  0  0  0  0
    8.7951    0.4688   -2.0625 C   0  0  0  0  0  0  0  0  0  0  0  0
    8.0136    0.7801   -3.1589 C   0  0  0  0  0  0  0  0  0  0  0  0
    6.6578    0.5160   -3.1956 C   0  0  0  0  0  0  0  0  0  0  0  0
    6.0678   -0.0760   -2.0906 C   0  0  0  0  0  0  0  0  0  0  0  0
    3.8550   -1.9175    2.8856 C   0  0  1  0  0  0  0  0  0  0  0  0
    3.1125   -3.2289    2.6125 C   0  0  0  0  0  0  0  0  0  0  0  0
    4.4683   -1.9031    4.2862 C   0  0  0  0  0  0  0  0  0  0  0  0
   -5.2022   -1.9375   -0.7643 C   0  0  0  0  0  0  0  0  0  0  0  0
   -6.4243   -1.8159   -0.0950 C   0  0  0  0  0  0  0  0  0  0  0  0
   -7.5191   -2.5843   -0.4428 C   0  0  0  0  0  0  0  0  0  0  0  0
   -7.4266   -3.5195   -1.4746 C   0  0  0  0  0  0  0  0  0  0  0  0
   -8.4888   -5.2000   -2.7700 C   0  0  0  0  0  0  0  0  0  0  0  0
   -6.2154   -3.6644   -2.1470 C   0  0  0  0  0  0  0  0  0  0  0  0
   -5.1285   -2.8779   -1.7900 C   0  0  0  0  0  0  0  0  0  0  0  0
    8.5901    1.3592   -4.2209 F   0  0  0  0  0  0  0  0  0  0  0  0
   -4.6056    2.4778    0.2948 N   0  0  0  0  0  0  0  0  0  0  0  0
   -2.7093    0.5614    0.1986 N   0  0  0  0  0  0  0  0  0  0  0  0
    0.2743    0.5780   -0.1661 N   0  0  0  0  0  0  0  0  0  0  0  0
    1.9726    2.0706   -0.2743 N   0  0  0  0  0  0  0  0  0  0  0  0
    6.8307   -1.9683    0.8518 N   0  0  0  0  0  0  0  0  0  0  0  0
   -4.9868    5.8623    1.3507 O   0  0  0  0  0  0  0  0  0  0  0  0
   -3.5008    4.2967    2.9050 O   0  0  0  0  0  0  0  0  0  0  0  0
    0.1232   -1.6705    0.1265 O   0  0  0  0  0  0  0  0  0  0  0  0
    6.0103   -2.3475    1.8683 O   0  0  0  0  0  0  0  0  0  0  0  0
   -8.5400   -4.2280   -1.7448 O   0  0  0  0  0  0  0  0  0  0  0  0
   -2.3945    4.4556    1.1669 H   0  0  0  0  0  0  0  0  0  0  0  0
    3.4780    3.4583   -0.3619 H   0  0  0  0  0  0  0  0  0  0  0  0
    5.2774    1.8798    0.2562 H   0  0  0  0  0  0  0  0  0  0  0  0
   -4.1302    4.9392   -0.2926 H   0  0  0  0  0  0  0  0  0  0  0  0
   -6.0843    3.4334    1.5058 H   0  0  0  0  0  0  0  0  0  0  0  0
   -6.2259    3.7014   -0.2447 H   0  0  0  0  0  0  0  0  0  0  0  0
   -5.8635    1.0477   -0.5583 H   0  0  0  0  0  0  0  0  0  0  0  0
   -5.6494    0.8764    1.1836 H   0  0  0  0  0  0  0  0  0  0  0  0
   -2.3358   -2.5458   -0.7285 H   0  0  0  0  0  0  0  0  0  0  0  0
   -1.9436    2.4797   -0.1747 H   0  0  0  0  0  0  0  0  0  0  0  0
   -1.5252    1.7912    1.4104 H   0  0  0  0  0  0  0  0  0  0  0  0
   -3.7886    2.0891    2.2099 H   0  0  0  0  0  0  0  0  0  0  0  0
    2.2865   -1.2013    0.4112 H   0  0  0  0  0  0  0  0  0  0  0  0
    8.7907   -0.3590   -0.0960 H   0  0  0  0  0  0  0  0  0  0  0  0
    9.8544    0.6884   -2.0607 H   0  0  0  0  0  0  0  0  0  0  0  0
    6.0714    0.7647   -4.0702 H   0  0  0  0  0  0  0  0  0  0  0  0
    5.0096   -0.2990   -2.1216 H   0  0  0  0  0  0  0  0  0  0  0  0
    3.1337   -1.0990    2.8220 H   0  0  0  0  0  0  0  0  0  0  0  0
    3.7857   -4.0855    2.6610 H   0  0  0  0  0  0  0  0  0  0  0  0
    2.3314   -3.3718    3.3592 H   0  0  0  0  0  0  0  0  0  0  0  0
    2.6377   -3.2282    1.6308 H   0  0  0  0  0  0  0  0  0  0  0  0
    5.1792   -2.7176    4.4265 H   0  0  0  0  0  0  0  0  0  0  0  0
    4.9808   -0.9629    4.4897 H   0  0  0  0  0  0  0  0  0  0  0  0
    3.6794   -2.0203    5.0289 H   0  0  0  0  0  0  0  0  0  0  0  0
   -6.5235   -1.1266    0.7336 H   0  0  0  0  0  0  0  0  0  0  0  0
   -8.4527   -2.4732    0.0948 H   0  0  0  0  0  0  0  0  0  0  0  0
   -8.2597   -4.7574   -3.7430 H   0  0  0  0  0  0  0  0  0  0  0  0
   -7.7539   -5.9808   -2.5567 H   0  0  0  0  0  0  0  0  0  0  0  0
   -9.4758   -5.6534   -2.8165 H   0  0  0  0  0  0  0  0  0  0  0  0
   -6.0986   -4.3753   -2.9534 H   0  0  0  0  0  0  0  0  0  0  0  0
   -4.2032   -2.9982   -2.3404 H   0  0  0  0  0  0  0  0  0  0  0  0
   -0.2253    1.4074   -0.4484 H   0  0  0  0  0  0  0  0  0  0  0  0
   -5.4942    6.3808    0.7201 H   0  0  0  0  0  0  0  0  0  0  0  0
   -3.5210    5.2475    3.0568 H   0  0  0  0  0  0  0  0  0  0  0  0
 33 46  1  0
 36 23  1  0
 24 23  2  0
 24 25  1  0
 23 22  1  0
 31 30  2  0
 31 32  1  0
 46 32  1  0
 25 20  2  0
 30 29  1  0
 32 34  2  0
 22 21  2  0
 20 21  1  0
 20  7  1  0
 29 12  1  0
 29 35  2  0
 13 12  1  0
 13 14  2  0
 34 35  1  0
 40 17  1  0
 40  3  2  0
 39 17  1  0
 39  2  1  0
 12 11  2  0
 17 18  2  0
  3  4  1  0
 14  2  1  0
 14 38  1  0
  2 44  2  0
  7  6  1  0
  7 41  2  0
 18  5  1  0
  4  5  2  0
  5  6  1  0
 11 38  1  0
 11 10  1  0
  6 19  2  0
 38 15  1  0
 41 45  1  0
 10 37  1  0
 28 26  1  0
 15 16  1  0
 37  9  1  0
 37 16  1  0
 19 45  1  0
 19 26  1  0
  9  8  1  0
 16  1  1  0
  1  8  1  0
  1 43  1  0
 26 27  1  0
  8 42  1  0
  1 47  1  6
  3 48  1  0
  4 49  1  0
  8 50  1  6
  9 51  1  0
  9 52  1  0
 10 53  1  0
 10 54  1  0
 13 55  1  0
 15 56  1  0
 15 57  1  0
 16 58  1  1
 18 59  1  0
 21 60  1  0
 22 61  1  0
 24 62  1  0
 25 63  1  0
 26 64  1  1
 27 65  1  0
 27 66  1  0
 27 67  1  0
 28 68  1  0
 28 69  1  0
 28 70  1  0
 30 71  1  0
 31 72  1  0
 33 73  1  0
 33 74  1  0
 33 75  1  0
 34 76  1  0
 35 77  1  0
 39 78  1  0
 42 79  1  0
 43 80  1  0
M  END
