
     RDKit          3D

 67 69  0  0  0  0  0  0  0  0999 V2000
   -4.0593   -0.3932    2.2233 C   0  0  0  0  0  0  0  0  0  0  0  0
   -4.0239    0.8057    2.1097 O   0  0  0  0  0  0  0  0  0  0  0  0
   -5.1885   -1.0792    2.3582 O   0  0  0  0  0  0  0  0  0  0  0  0
   -2.8619   -1.3070    2.1952 C   0  0  0  0  0  0  0  0  0  0  0  0
   -1.5301   -0.5620    2.3371 C   0  0  2  0  0  0  0  0  0  0  0  0
   -0.4586   -1.5349    1.8623 C   0  0  0  0  0  0  0  0  0  0  0  0
   -0.0843   -2.4764    2.5405 O   0  0  0  0  0  0  0  0  0  0  0  0
   -0.0146   -1.3119    0.6042 N   0  0  0  0  0  0  0  0  0  0  0  0
    0.7555   -2.2552   -0.1727 C   0  0  2  0  0  0  0  0  0  0  0  0
    2.2434   -1.9005   -0.2987 C   0  0  0  0  0  0  0  0  0  0  0  0
    2.9671   -2.5872   -1.0065 O   0  0  0  0  0  0  0  0  0  0  0  0
    2.6671   -0.8575    0.4246 N   0  0  0  0  0  0  0  0  0  0  0  0
    4.0514   -0.4631    0.5961 C   0  0  0  0  0  0  0  0  0  0  0  0
    4.3574    0.9914    0.2444 C   0  0  0  0  0  0  0  0  0  0  0  0
    4.3013    1.3326   -1.2461 C   0  0  0  0  0  0  0  0  0  0  0  0
    2.9130    1.7045   -1.7605 C   0  0  0  0  0  0  0  0  0  0  0  0
    2.8436    1.7045   -3.2851 C   0  0  0  0  0  0  0  0  0  0  0  0
    1.4306    1.8021   -3.8484 C   0  0  0  0  0  0  0  0  0  0  0  0
    0.5580    0.7700   -3.3134 N   0  0  0  0  0  0  0  0  0  0  0  0
   -1.3107   -0.0953    3.7786 C   0  0  0  0  0  0  0  0  0  0  0  0
   -0.3716    1.0997    3.9526 C   0  0  1  0  0  0  0  0  0  0  0  0
   -0.2522    1.4444    5.4339 C   0  0  0  0  0  0  0  0  0  0  0  0
    1.0095    0.8792    3.3440 C   0  0  0  0  0  0  0  0  0  0  0  0
    0.1183   -2.4472   -1.5621 C   0  0  0  0  0  0  0  0  0  0  0  0
   -0.0238   -1.1466   -2.2830 C   0  0  0  0  0  0  0  0  0  0  0  0
    0.9569   -0.4941   -2.9741 C   0  0  0  0  0  0  0  0  0  0  0  0
   -1.1234   -0.2308   -2.2046 C   0  0  0  0  0  0  0  0  0  0  0  0
   -0.7150    0.9593   -2.8502 C   0  0  0  0  0  0  0  0  0  0  0  0
   -2.4007   -0.2973   -1.6338 C   0  0  0  0  0  0  0  0  0  0  0  0
   -1.5510    2.0734   -2.9311 C   0  0  0  0  0  0  0  0  0  0  0  0
   -3.2263    0.8065   -1.7077 C   0  0  0  0  0  0  0  0  0  0  0  0
   -2.8021    1.9806   -2.3513 C   0  0  0  0  0  0  0  0  0  0  0  0
   -5.9475   -0.4772    2.3355 H   0  0  0  0  0  0  0  0  0  0  0  0
   -2.9116   -1.8583    1.2487 H   0  0  0  0  0  0  0  0  0  0  0  0
   -2.9617   -2.0637    2.9772 H   0  0  0  0  0  0  0  0  0  0  0  0
   -1.5535    0.3085    1.6738 H   0  0  0  0  0  0  0  0  0  0  0  0
   -0.3927   -0.5167    0.1105 H   0  0  0  0  0  0  0  0  0  0  0  0
    0.7326   -3.2137    0.3528 H   0  0  0  0  0  0  0  0  0  0  0  0
    1.9822   -0.3839    0.9905 H   0  0  0  0  0  0  0  0  0  0  0  0
    4.6660   -1.1244   -0.0125 H   0  0  0  0  0  0  0  0  0  0  0  0
    4.3320   -0.6411    1.6379 H   0  0  0  0  0  0  0  0  0  0  0  0
    5.3677    1.1794    0.6164 H   0  0  0  0  0  0  0  0  0  0  0  0
    3.7068    1.6636    0.8145 H   0  0  0  0  0  0  0  0  0  0  0  0
    4.6838    0.4812   -1.8200 H   0  0  0  0  0  0  0  0  0  0  0  0
    4.9890    2.1581   -1.4494 H   0  0  0  0  0  0  0  0  0  0  0  0
    2.6266    2.6879   -1.3748 H   0  0  0  0  0  0  0  0  0  0  0  0
    2.1869    0.9997   -1.3534 H   0  0  0  0  0  0  0  0  0  0  0  0
    3.3304    0.8053   -3.6730 H   0  0  0  0  0  0  0  0  0  0  0  0
    3.4150    2.5435   -3.6902 H   0  0  0  0  0  0  0  0  0  0  0  0
    1.4560    1.7496   -4.9392 H   0  0  0  0  0  0  0  0  0  0  0  0
    0.9970    2.7663   -3.5825 H   0  0  0  0  0  0  0  0  0  0  0  0
   -0.9526   -0.9406    4.3749 H   0  0  0  0  0  0  0  0  0  0  0  0
   -2.2768    0.1838    4.2074 H   0  0  0  0  0  0  0  0  0  0  0  0
   -0.8288    1.9540    3.4401 H   0  0  0  0  0  0  0  0  0  0  0  0
    0.3712    2.3271    5.5851 H   0  0  0  0  0  0  0  0  0  0  0  0
   -1.2292    1.6465    5.8766 H   0  0  0  0  0  0  0  0  0  0  0  0
    0.1998    0.6204    5.9913 H   0  0  0  0  0  0  0  0  0  0  0  0
    1.4669   -0.0440    3.7079 H   0  0  0  0  0  0  0  0  0  0  0  0
    0.9618    0.8406    2.2542 H   0  0  0  0  0  0  0  0  0  0  0  0
    1.6804    1.7027    3.5932 H   0  0  0  0  0  0  0  0  0  0  0  0
    0.7323   -3.1477   -2.1271 H   0  0  0  0  0  0  0  0  0  0  0  0
   -0.8555   -2.9219   -1.4253 H   0  0  0  0  0  0  0  0  0  0  0  0
    1.9439   -0.8500   -3.2253 H   0  0  0  0  0  0  0  0  0  0  0  0
   -2.7385   -1.2048   -1.1466 H   0  0  0  0  0  0  0  0  0  0  0  0
   -1.2395    2.9840   -3.4274 H   0  0  0  0  0  0  0  0  0  0  0  0
   -4.2149    0.7696   -1.2693 H   0  0  0  0  0  0  0  0  0  0  0  0
   -3.4702    2.8308   -2.3945 H   0  0  0  0  0  0  0  0  0  0  0  0
  1  2  2  0
  1  3  1  0
  1  4  1  0
  3 33  1  0
  4  5  1  0
  4 34  1  0
  4 35  1  0
  5  6  1  0
  5 20  1  0
  5 36  1  6
  6  7  2  0
  6  8  1  0
  8  9  1  0
  8 37  1  0
  9 10  1  0
  9 24  1  0
  9 38  1  1
 10 11  2  0
 10 12  1  0
 12 13  1  0
 12 39  1  0
 13 14  1  0
 13 40  1  0
 13 41  1  0
 14 15  1  0
 14 42  1  0
 14 43  1  0
 15 16  1  0
 15 44  1  0
 15 45  1  0
 16 17  1  0
 16 46  1  0
 16 47  1  0
 17 18  1  0
 17 48  1  0
 17 49  1  0
 18 19  1  0
 18 50  1  0
 18 51  1  0
 19 26  1  0
 19 28  1  0
 20 21  1  0
 20 52  1  0
 20 53  1  0
 21 22  1  0
 21 23  1  0
 21 54  1  6
 22 55  1  0
 22 56  1  0
 22 57  1  0
 23 58  1  0
 23 59  1  0
 23 60  1  0
 24 25  1  0
 24 61  1  0
 24 62  1  0
 25 26  2  0
 25 27  1  0
 26 63  1  0
 27 28  2  0
 27 29  1  0
 28 30  1  0
 29 31  2  0
 29 64  1  0
 30 32  2  0
 30 65  1  0
 31 32  1  0
 31 66  1  0
 32 67  1  0
M  END
