
     RDKit          3D

 33 35  0  0  0  0  0  0  0  0999 V2000
   -4.8788   -0.5785    0.5621 C   0  0  0  0  0  0  0  0  0  0  0  0
   -5.7900    0.3188   -0.3107 C   0  0  0  0  0  0  0  0  0  0  0  0
   -5.0513    1.5435   -0.6098 N   0  0  0  0  0  0  0  0  0  0  0  0
   -3.6534    1.1429   -0.5894 C   0  0  0  0  0  0  0  0  0  0  0  0
   -3.5198    0.1452    0.5706 C   0  0  2  0  0  0  0  0  0  0  0  0
   -2.3649   -0.8181    0.4421 C   0  0  0  0  0  0  0  0  0  0  0  0
   -1.1612   -0.0494    0.3976 O   0  0  0  0  0  0  0  0  0  0  0  0
   -0.0096   -0.6825    0.2115 C   0  0  0  0  0  0  0  0  0  0  0  0
    0.0286   -1.9578    0.1219 N   0  0  0  0  0  0  0  0  0  0  0  0
    1.2292   -2.5407   -0.0705 N   0  0  0  0  0  0  0  0  0  0  0  0
    2.4397   -1.9455   -0.1857 C   0  0  0  0  0  0  0  0  0  0  0  0
    3.4674   -2.5876   -0.3599 O   0  0  0  0  0  0  0  0  0  0  0  0
    2.3904   -0.4810   -0.0835 C   0  0  0  0  0  0  0  0  0  0  0  0
    1.1641    0.1583    0.1174 C   0  0  0  0  0  0  0  0  0  0  0  0
    1.1192    1.5530    0.2130 C   0  0  0  0  0  0  0  0  0  0  0  0
    2.2796    2.2879    0.1080 C   0  0  0  0  0  0  0  0  0  0  0  0
    3.4847    1.6236   -0.0931 C   0  0  0  0  0  0  0  0  0  0  0  0
    4.6010    2.3506   -0.1974 F   0  0  0  0  0  0  0  0  0  0  0  0
    3.5670    0.2562   -0.1905 C   0  0  0  0  0  0  0  0  0  0  0  0
   -5.2683   -0.7019    1.5725 H   0  0  0  0  0  0  0  0  0  0  0  0
   -4.7929   -1.5791    0.1310 H   0  0  0  0  0  0  0  0  0  0  0  0
   -6.0295   -0.1942   -1.2456 H   0  0  0  0  0  0  0  0  0  0  0  0
   -6.7371    0.5579    0.1724 H   0  0  0  0  0  0  0  0  0  0  0  0
   -5.2015    2.2040    0.1438 H   0  0  0  0  0  0  0  0  0  0  0  0
   -3.4049    0.6488   -1.5365 H   0  0  0  0  0  0  0  0  0  0  0  0
   -3.0006    2.0107   -0.4936 H   0  0  0  0  0  0  0  0  0  0  0  0
   -3.4171    0.7079    1.5042 H   0  0  0  0  0  0  0  0  0  0  0  0
   -2.3305   -1.5150    1.2847 H   0  0  0  0  0  0  0  0  0  0  0  0
   -2.4592   -1.4113   -0.4739 H   0  0  0  0  0  0  0  0  0  0  0  0
    1.1879   -3.5480   -0.1294 H   0  0  0  0  0  0  0  0  0  0  0  0
    0.1800    2.0642    0.3703 H   0  0  0  0  0  0  0  0  0  0  0  0
    2.2591    3.3672    0.1781 H   0  0  0  0  0  0  0  0  0  0  0  0
    4.5179   -0.2348   -0.3488 H   0  0  0  0  0  0  0  0  0  0  0  0
 12 11  2  0
 10 11  1  0
 10  9  1  0
 11 13  1  0
  9  8  2  0
 13 19  1  0
 13 14  2  0
 19 17  2  0
  8 14  1  0
  8  7  1  0
 14 15  1  0
 17 18  1  0
 17 16  1  0
  6  7  1  0
  6  5  1  0
 15 16  2  0
  5  4  1  0
  5  1  1  0
  4  3  1  0
  1  2  1  0
  3  2  1  0
  1 20  1  0
  1 21  1  0
  2 22  1  0
  2 23  1  0
  3 24  1  0
  4 25  1  0
  4 26  1  0
  5 27  1  1
  6 28  1  0
  6 29  1  0
 10 30  1  0
 15 31  1  0
 16 32  1  0
 19 33  1  0
M  END
