
     RDKit          3D

 56 59  0  0  0  0  0  0  0  0999 V2000
    3.2082    0.6879    1.8635 C   0  0  0  0  0  0  0  0  0  0  0  0
    4.1600    0.6302   -0.3968 N   0  0  0  0  0  0  0  0  0  0  0  0
    4.9844   -0.0790   -1.3496 C   0  0  0  0  0  0  0  0  0  0  0  0
    7.1503   -1.3489   -1.1454 C   0  0  0  0  0  0  0  0  0  0  0  0
    9.1321   -0.3425   -0.2229 C   0  0  0  0  0  0  0  0  0  0  0  0
    2.8810    1.0076   -0.9723 C   0  0  0  0  0  0  0  0  0  0  0  0
    2.0734    1.8539   -0.0017 C   0  0  0  0  0  0  0  0  0  0  0  0
   -3.3629    0.9865    0.3828 C   0  0  0  0  0  0  0  0  0  0  0  0
   -6.2656   -1.7692   -0.7919 C   0  0  0  0  0  0  0  0  0  0  0  0
   -3.9403   -3.4165    1.2458 C   0  0  0  0  0  0  0  0  0  0  0  0
   -3.8624   -1.3718    0.1075 C   0  0  0  0  0  0  0  0  0  0  0  0
   -2.9613   -0.3680    0.4744 C   0  0  0  0  0  0  0  0  0  0  0  0
   -1.5806   -0.6849    0.9358 C   0  0  0  0  0  0  0  0  0  0  0  0
   -1.2768   -1.7923    1.3270 O   0  0  0  0  0  0  0  0  0  0  0  0
   -0.5527    0.4260    0.8914 C   0  0  0  0  0  0  0  0  0  0  0  0
    0.8537   -0.0204    1.2602 C   0  0  0  0  0  0  0  0  0  0  0  0
    1.8466    1.1435    1.3347 C   0  0  1  0  0  0  0  0  0  0  0  0
    3.9885   -0.1184    0.8363 C   0  0  0  0  0  0  0  0  0  0  0  0
    6.4260   -0.1828   -0.9208 C   0  0  0  0  0  0  0  0  0  0  0  0
    8.4953   -1.4299   -0.8042 C   0  0  0  0  0  0  0  0  0  0  0  0
    8.4138    0.8242    0.0143 C   0  0  0  0  0  0  0  0  0  0  0  0
    7.0731    0.9029   -0.3333 C   0  0  0  0  0  0  0  0  0  0  0  0
   -4.6208    1.3452   -0.0262 C   0  0  0  0  0  0  0  0  0  0  0  0
   -5.1105    3.0013   -0.1132 Cl  0  0  0  0  0  0  0  0  0  0  0  0
   -5.5177    0.3422   -0.3878 C   0  0  0  0  0  0  0  0  0  0  0  0
   -6.7904    0.4027   -0.8450 N   0  0  0  0  0  0  0  0  0  0  0  0
   -7.2419   -0.8665   -1.0902 C   0  0  0  0  0  0  0  0  0  0  0  0
   -5.1428   -1.0142   -0.3305 C   0  0  0  0  0  0  0  0  0  0  0  0
    3.7993    1.5675    2.1364 H   0  0  0  0  0  0  0  0  0  0  0  0
    3.0882    0.0935    2.7732 H   0  0  0  0  0  0  0  0  0  0  0  0
    4.5957   -1.0889   -1.5681 H   0  0  0  0  0  0  0  0  0  0  0  0
    4.9473    0.4683   -2.2974 H   0  0  0  0  0  0  0  0  0  0  0  0
    6.6576   -2.2063   -1.5896 H   0  0  0  0  0  0  0  0  0  0  0  0
   10.1782   -0.4043    0.0481 H   0  0  0  0  0  0  0  0  0  0  0  0
    3.0672    1.5812   -1.8840 H   0  0  0  0  0  0  0  0  0  0  0  0
    2.2965    0.1225   -1.2810 H   0  0  0  0  0  0  0  0  0  0  0  0
    2.6161    2.7856    0.1836 H   0  0  0  0  0  0  0  0  0  0  0  0
    1.1289    2.1369   -0.4713 H   0  0  0  0  0  0  0  0  0  0  0  0
   -2.6709    1.7705    0.6549 H   0  0  0  0  0  0  0  0  0  0  0  0
   -6.3397   -2.8400   -0.8865 H   0  0  0  0  0  0  0  0  0  0  0  0
   -5.0250   -3.3892    1.3753 H   0  0  0  0  0  0  0  0  0  0  0  0
   -3.6327   -4.4478    1.0873 H   0  0  0  0  0  0  0  0  0  0  0  0
   -3.4641   -3.0397    2.1519 H   0  0  0  0  0  0  0  0  0  0  0  0
   -0.5764    0.8730   -0.1072 H   0  0  0  0  0  0  0  0  0  0  0  0
   -0.8690    1.2255    1.5715 H   0  0  0  0  0  0  0  0  0  0  0  0
    0.8316   -0.5108    2.2367 H   0  0  0  0  0  0  0  0  0  0  0  0
    1.1943   -0.7803    0.5524 H   0  0  0  0  0  0  0  0  0  0  0  0
    1.4340    1.8731    2.0410 H   0  0  0  0  0  0  0  0  0  0  0  0
    4.9730   -0.3598    1.2434 H   0  0  0  0  0  0  0  0  0  0  0  0
    3.4892   -1.0854    0.6470 H   0  0  0  0  0  0  0  0  0  0  0  0
    9.0426   -2.3459   -0.9881 H   0  0  0  0  0  0  0  0  0  0  0  0
    8.9007    1.6762    0.4720 H   0  0  0  0  0  0  0  0  0  0  0  0
    6.5133    1.8090   -0.1367 H   0  0  0  0  0  0  0  0  0  0  0  0
   -7.3211    1.2446   -0.9998 H   0  0  0  0  0  0  0  0  0  0  0  0
   -8.2389   -1.0259   -1.4669 H   0  0  0  0  0  0  0  0  0  0  0  0
   -3.5327   -2.6821    0.0974 O   0  0  0  0  0  0  0  0  0  0  0  0
  4 20  2  0
  4 19  1  0
 20  5  1  0
  3 19  1  0
  3  2  1  0
 19 22  2  0
 10 56  1  0
  5 21  2  0
 18  2  1  0
 18  1  1  0
  2  6  1  0
  9 27  2  0
  9 28  1  0
 56 11  1  0
 22 21  1  0
 27 26  1  0
  1 17  1  0
  6  7  1  0
 28 11  2  0
 28 25  1  0
 11 12  1  0
 17  7  1  0
 17 16  1  0
 26 25  1  0
 15 16  1  0
 15 13  1  0
 25 23  2  0
 12 13  1  0
 12  8  2  0
 13 14  2  0
 23  8  1  0
 23 24  1  0
  1 29  1  0
  1 30  1  0
  3 31  1  0
  3 32  1  0
  4 33  1  0
  5 34  1  0
  6 35  1  0
  6 36  1  0
  7 37  1  0
  7 38  1  0
  8 39  1  0
  9 40  1  0
 10 41  1  0
 10 42  1  0
 10 43  1  0
 15 44  1  0
 15 45  1  0
 16 46  1  0
 16 47  1  0
 17 48  1  1
 18 49  1  0
 18 50  1  0
 20 51  1  0
 21 52  1  0
 22 53  1  0
 26 54  1  0
 27 55  1  0
M  END
