
     RDKit          3D

 72 77  0  0  0  0  0  0  0  0999 V2000
   -0.2408    3.0300   -0.7604 C   0  0  0  0  0  0  0  0  0  0  0  0
   -0.5690    1.6433   -0.1892 C   0  0  2  0  0  0  0  0  0  0  0  0
    0.0037    1.4612    1.2137 C   0  0  0  0  0  0  0  0  0  0  0  0
    1.5377    1.3865    1.2350 C   0  0  1  0  0  0  0  0  0  0  0  0
    2.0867    0.3711    0.2216 C   0  0  1  0  0  0  0  0  0  0  0  0
    1.4893    0.4968   -1.1934 C   0  0  2  0  0  0  0  0  0  0  0  0
   -0.0268    0.5057   -1.0695 C   0  0  2  0  0  0  0  0  0  0  0  0
   -0.8819    0.5889   -2.3264 C   0  0  0  0  0  0  0  0  0  0  0  0
   -2.2856    0.8277   -1.7695 C   0  0  2  0  0  0  0  0  0  0  0  0
   -2.1027    1.4026   -0.3276 C   0  0  1  0  0  0  0  0  0  0  0  0
   -2.5212    0.3414    0.4996 O   0  0  0  0  0  0  0  0  0  0  0  0
   -3.4500   -0.4030   -0.2484 C   0  0  1  0  0  0  0  0  0  0  0  0
   -2.9417   -0.4090   -1.5495 O   0  0  0  0  0  0  0  0  0  0  0  0
   -3.6131   -1.8003    0.3113 C   0  0  1  0  0  0  0  0  0  0  0  0
   -4.6574   -2.5800   -0.4900 C   0  0  0  0  0  0  0  0  0  0  0  0
   -4.9114   -3.9519    0.1251 C   0  0  0  0  0  0  0  0  0  0  0  0
   -3.6164   -4.7483    0.2501 C   0  0  0  0  0  0  0  0  0  0  0  0
   -2.5618   -3.9664    1.0265 C   0  0  0  0  0  0  0  0  0  0  0  0
   -2.3093   -2.5921    0.4107 C   0  0  0  0  0  0  0  0  0  0  0  0
   -2.9578    2.6312   -0.0275 C   0  0  0  0  0  0  0  0  0  0  0  0
   -3.2934    3.4091   -0.8857 O   0  0  0  0  0  0  0  0  0  0  0  0
   -3.3553    2.8234    1.4166 C   0  0  0  0  0  0  0  0  0  0  0  0
   -3.9526    4.0761    1.5630 O   0  0  0  0  0  0  0  0  0  0  0  0
    1.9305   -0.6754   -2.0676 C   0  0  0  0  0  0  0  0  0  0  0  0
    3.4439   -0.8870   -2.0644 C   0  0  0  0  0  0  0  0  0  0  0  0
    3.9478   -0.9549   -0.6600 C   0  0  0  0  0  0  0  0  0  0  0  0
    4.5669   -2.0445   -0.1846 C   0  0  0  0  0  0  0  0  0  0  0  0
    5.0222   -2.1544    1.1978 C   0  0  0  0  0  0  0  0  0  0  0  0
    5.5705   -3.1627    1.6243 O   0  0  0  0  0  0  0  0  0  0  0  0
    4.7912   -0.9838    2.0489 C   0  0  0  0  0  0  0  0  0  0  0  0
    4.1700    0.1012    1.5843 C   0  0  0  0  0  0  0  0  0  0  0  0
    3.6546    0.2530    0.1905 C   0  0  2  0  0  0  0  0  0  0  0  0
    4.3854    1.4653   -0.4328 C   0  0  0  0  0  0  0  0  0  0  0  0
    2.1417    2.6431    1.0242 O   0  0  0  0  0  0  0  0  0  0  0  0
    0.8177    3.1390   -0.9733 H   0  0  0  0  0  0  0  0  0  0  0  0
   -0.7809    3.2492   -1.6807 H   0  0  0  0  0  0  0  0  0  0  0  0
   -0.4958    3.8126   -0.0425 H   0  0  0  0  0  0  0  0  0  0  0  0
   -0.3054    2.2646    1.8922 H   0  0  0  0  0  0  0  0  0  0  0  0
   -0.3759    0.5325    1.6468 H   0  0  0  0  0  0  0  0  0  0  0  0
   -0.2918   -0.4361   -0.5701 H   0  0  0  0  0  0  0  0  0  0  0  0
    1.8023    1.0175    2.2362 H   0  0  0  0  0  0  0  0  0  0  0  0
    1.7473   -0.6019    0.6070 H   0  0  0  0  0  0  0  0  0  0  0  0
    1.7529    3.2683    1.6447 H   0  0  0  0  0  0  0  0  0  0  0  0
    1.8269    1.4266   -1.6626 H   0  0  0  0  0  0  0  0  0  0  0  0
    1.4428   -1.5896   -1.7112 H   0  0  0  0  0  0  0  0  0  0  0  0
    1.5940   -0.5239   -3.0951 H   0  0  0  0  0  0  0  0  0  0  0  0
   -0.5776    1.4231   -2.9621 H   0  0  0  0  0  0  0  0  0  0  0  0
   -0.8559   -0.3113   -2.9414 H   0  0  0  0  0  0  0  0  0  0  0  0
   -2.8927    1.4707   -2.4118 H   0  0  0  0  0  0  0  0  0  0  0  0
   -4.4302    0.1104   -0.2318 H   0  0  0  0  0  0  0  0  0  0  0  0
   -4.0104   -1.6658    1.3265 H   0  0  0  0  0  0  0  0  0  0  0  0
   -5.5911   -2.0124   -0.5444 H   0  0  0  0  0  0  0  0  0  0  0  0
   -4.3076   -2.7087   -1.5195 H   0  0  0  0  0  0  0  0  0  0  0  0
   -1.8753   -2.7127   -0.5873 H   0  0  0  0  0  0  0  0  0  0  0  0
   -1.5742   -2.0489    1.0085 H   0  0  0  0  0  0  0  0  0  0  0  0
   -5.3586   -3.8281    1.1178 H   0  0  0  0  0  0  0  0  0  0  0  0
   -5.6385   -4.5008   -0.4780 H   0  0  0  0  0  0  0  0  0  0  0  0
   -3.8089   -5.7090    0.7342 H   0  0  0  0  0  0  0  0  0  0  0  0
   -3.2336   -4.9761   -0.7506 H   0  0  0  0  0  0  0  0  0  0  0  0
   -2.8969   -3.8403    2.0621 H   0  0  0  0  0  0  0  0  0  0  0  0
   -1.6276   -4.5313    1.0708 H   0  0  0  0  0  0  0  0  0  0  0  0
   -4.0280    2.0010    1.6950 H   0  0  0  0  0  0  0  0  0  0  0  0
   -2.4601    2.6993    2.0441 H   0  0  0  0  0  0  0  0  0  0  0  0
   -4.2694    4.1449    2.4680 H   0  0  0  0  0  0  0  0  0  0  0  0
    3.7012   -1.7997   -2.6036 H   0  0  0  0  0  0  0  0  0  0  0  0
    3.9283   -0.0601   -2.5927 H   0  0  0  0  0  0  0  0  0  0  0  0
    4.7438   -2.8968   -0.8323 H   0  0  0  0  0  0  0  0  0  0  0  0
    5.1524   -1.0243    3.0699 H   0  0  0  0  0  0  0  0  0  0  0  0
    4.0463    0.9580    2.2374 H   0  0  0  0  0  0  0  0  0  0  0  0
    4.4025    2.3098    0.2489 H   0  0  0  0  0  0  0  0  0  0  0  0
    5.4161    1.1915   -0.6616 H   0  0  0  0  0  0  0  0  0  0  0  0
    3.9145    1.7939   -1.3564 H   0  0  0  0  0  0  0  0  0  0  0  0
  2  1  1  6
  2  3  1  0
  2  7  1  0
  2 10  1  0
  3  4  1  0
  4  5  1  0
  4 34  1  0
  5  6  1  0
  5 32  1  0
  6  7  1  0
  6 24  1  0
  7  8  1  0
  8  9  1  0
  9 10  1  0
  9 13  1  0
 10 11  1  0
 10 20  1  6
 11 12  1  0
 12 13  1  0
 12 14  1  0
 14 15  1  0
 14 19  1  0
 15 16  1  0
 16 17  1  0
 17 18  1  0
 18 19  1  0
 20 21  2  0
 20 22  1  0
 22 23  1  0
 24 25  1  0
 25 26  1  0
 26 27  2  0
 26 32  1  0
 27 28  1  0
 28 29  2  0
 28 30  1  0
 30 31  2  0
 31 32  1  0
 32 33  1  6
  1 35  1  0
  1 36  1  0
  1 37  1  0
  3 38  1  0
  3 39  1  0
  7 40  1  1
  4 41  1  1
  5 42  1  1
 34 43  1  0
  6 44  1  6
 24 45  1  0
 24 46  1  0
  8 47  1  0
  8 48  1  0
  9 49  1  6
 12 50  1  6
 14 51  1  1
 15 52  1  0
 15 53  1  0
 19 54  1  0
 19 55  1  0
 16 56  1  0
 16 57  1  0
 17 58  1  0
 17 59  1  0
 18 60  1  0
 18 61  1  0
 22 62  1  0
 22 63  1  0
 23 64  1  0
 25 65  1  0
 25 66  1  0
 27 67  1  0
 30 68  1  0
 31 69  1  0
 33 70  1  0
 33 71  1  0
 33 72  1  0
M  END
