
     RDKit          3D

 44 47  0  0  0  0  0  0  0  0999 V2000
    7.9549    2.4932    0.0253 C   0  0  0  0  0  0  0  0  0  0  0  0
    6.9124    1.3924    0.0173 C   0  0  0  0  0  0  0  0  0  0  0  0
    5.5795    1.9658    0.0430 N   0  0  0  0  0  0  0  0  0  0  0  0
    4.4793    1.2011    0.0229 C   0  0  0  0  0  0  0  0  0  0  0  0
    4.5041   -0.0220   -0.0129 O   0  0  0  0  0  0  0  0  0  0  0  0
    3.2919    1.9135    0.0465 N   0  0  0  0  0  0  0  0  0  0  0  0
    2.0387    1.3732    0.0412 C   0  0  0  0  0  0  0  0  0  0  0  0
    0.9577    2.1060    0.0865 N   0  0  0  0  0  0  0  0  0  0  0  0
   -0.0743    1.1995    0.0574 C   0  0  0  0  0  0  0  0  0  0  0  0
   -1.4430    1.4150    0.0880 C   0  0  0  0  0  0  0  0  0  0  0  0
   -2.2927    0.3084    0.0576 C   0  0  0  0  0  0  0  0  0  0  0  0
   -1.7640   -0.9856   -0.0064 C   0  0  0  0  0  0  0  0  0  0  0  0
   -0.3930   -1.2328   -0.0386 C   0  0  0  0  0  0  0  0  0  0  0  0
    0.1441   -2.5990   -0.1166 C   0  0  0  0  0  0  0  0  0  0  0  0
   -0.7219   -3.6073   -0.1561 N   0  0  0  0  0  0  0  0  0  0  0  0
   -0.2240   -4.8314   -0.2282 C   0  0  0  0  0  0  0  0  0  0  0  0
    1.1396   -5.0762   -0.2615 C   0  0  0  0  0  0  0  0  0  0  0  0
    1.9581   -3.9620   -0.2149 C   0  0  0  0  0  0  0  0  0  0  0  0
    1.4694   -2.7315   -0.1430 N   0  0  0  0  0  0  0  0  0  0  0  0
    0.4337   -0.1114   -0.0037 C   0  0  0  0  0  0  0  0  0  0  0  0
    1.7913    0.0410   -0.0146 N   0  0  0  0  0  0  0  0  0  0  0  0
   -3.7541    0.4996    0.0884 C   0  0  0  0  0  0  0  0  0  0  0  0
   -4.5874   -0.3716    0.7940 C   0  0  0  0  0  0  0  0  0  0  0  0
   -5.9047   -0.2487    0.8502 N   0  0  0  0  0  0  0  0  0  0  0  0
   -6.4833    0.7589    0.2121 C   0  0  0  0  0  0  0  0  0  0  0  0
   -5.7322    1.6751   -0.5005 C   0  0  0  0  0  0  0  0  0  0  0  0
   -6.3509    2.6799   -1.1312 F   0  0  0  0  0  0  0  0  0  0  0  0
   -4.3618    1.5608   -0.5784 C   0  0  0  0  0  0  0  0  0  0  0  0
    7.8585    3.1402   -0.8473 H   0  0  0  0  0  0  0  0  0  0  0  0
    7.8766    3.1103    0.9213 H   0  0  0  0  0  0  0  0  0  0  0  0
    8.9521    2.0565    0.0082 H   0  0  0  0  0  0  0  0  0  0  0  0
    7.0317    0.7717   -0.8734 H   0  0  0  0  0  0  0  0  0  0  0  0
    7.0524    0.7396    0.8817 H   0  0  0  0  0  0  0  0  0  0  0  0
    5.4965    2.9691    0.0676 H   0  0  0  0  0  0  0  0  0  0  0  0
    3.3121    2.9227    0.0801 H   0  0  0  0  0  0  0  0  0  0  0  0
   -1.8349    2.4227    0.1547 H   0  0  0  0  0  0  0  0  0  0  0  0
   -2.4354   -1.8318   -0.0562 H   0  0  0  0  0  0  0  0  0  0  0  0
   -0.9374   -5.6467   -0.2608 H   0  0  0  0  0  0  0  0  0  0  0  0
    1.5393   -6.0774   -0.3213 H   0  0  0  0  0  0  0  0  0  0  0  0
    3.0372   -4.0579   -0.2358 H   0  0  0  0  0  0  0  0  0  0  0  0
    2.4715   -0.7039   -0.0497 H   0  0  0  0  0  0  0  0  0  0  0  0
   -4.1602   -1.1972    1.3522 H   0  0  0  0  0  0  0  0  0  0  0  0
   -7.5628    0.8464    0.2667 H   0  0  0  0  0  0  0  0  0  0  0  0
   -3.7844    2.2700   -1.1581 H   0  0  0  0  0  0  0  0  0  0  0  0
 17 16  1  0
 17 18  2  0
 16 15  2  0
 18 19  1  0
 15 14  1  0
 19 14  2  0
 14 13  1  0
  5  4  2  0
  2  1  1  0
  2  3  1  0
 13 12  1  0
 13 20  2  0
  4  3  1  0
  4  6  1  0
 21 20  1  0
 21  7  1  0
 12 11  2  0
 20  9  1  0
  7  6  1  0
  7  8  2  0
 11 22  1  0
 11 10  1  0
  9  8  1  0
  9 10  2  0
 23 22  2  0
 23 24  1  0
 22 28  1  0
 24 25  2  0
 28 26  2  0
 25 26  1  0
 26 27  1  0
  1 29  1  0
  1 30  1  0
  1 31  1  0
  2 32  1  0
  2 33  1  0
  3 34  1  0
  6 35  1  0
 10 36  1  0
 12 37  1  0
 16 38  1  0
 17 39  1  0
 18 40  1  0
 21 41  1  0
 23 42  1  0
 25 43  1  0
 28 44  1  0
M  END
