
     RDKit          3D

 28 29  0  0  0  0  0  0  0  0999 V2000
    4.2702    0.7116    1.1169 F   0  0  0  0  0  0  0  0  0  0  0  0
    4.0775    1.1211   -0.9813 F   0  0  0  0  0  0  0  0  0  0  0  0
    4.6272   -0.8503   -0.3172 F   0  0  0  0  0  0  0  0  0  0  0  0
    3.8357    0.1916   -0.0439 C   0  0  1  0  0  0  0  0  0  0  0  0
   -6.7464   -0.5177   -0.7740 O   0  0  0  0  0  0  0  0  0  0  0  0
   -5.8837    0.3084   -0.0239 C   0  0  0  0  0  0  0  0  0  0  0  0
   -4.4524   -0.1156   -0.2879 C   0  0  0  0  0  0  0  0  0  0  0  0
   -1.0305    1.2030    0.2604 N   0  0  0  0  0  0  0  0  0  0  0  0
   -2.0581    0.3189    0.3350 C   0  0  0  0  0  0  0  0  0  0  0  0
    1.9955   -1.5225    0.0508 C   0  0  0  0  0  0  0  0  0  0  0  0
   -1.6538   -0.9245    0.3019 N   0  0  0  0  0  0  0  0  0  0  0  0
    2.3886   -0.1768    0.0203 C   0  0  0  0  0  0  0  0  0  0  0  0
    1.4592    0.8539    0.0843 C   0  0  0  0  0  0  0  0  0  0  0  0
    0.6613   -1.8758    0.1413 C   0  0  0  0  0  0  0  0  0  0  0  0
    0.1297    0.4834    0.1783 C   0  0  0  0  0  0  0  0  0  0  0  0
   -0.2878   -0.8596    0.2062 C   0  0  0  0  0  0  0  0  0  0  0  0
   -7.6510   -0.2420   -0.6021 H   0  0  0  0  0  0  0  0  0  0  0  0
   -6.0071    1.3661   -0.2929 H   0  0  0  0  0  0  0  0  0  0  0  0
   -6.0879    0.2318    1.0528 H   0  0  0  0  0  0  0  0  0  0  0  0
   -4.3169   -1.1575    0.0092 H   0  0  0  0  0  0  0  0  0  0  0  0
   -4.2410   -0.0550   -1.3588 H   0  0  0  0  0  0  0  0  0  0  0  0
   -3.5563    1.8045    0.1507 H   0  0  0  0  0  0  0  0  0  0  0  0
   -3.7221    0.7625    1.5433 H   0  0  0  0  0  0  0  0  0  0  0  0
   -1.1159    2.2075    0.2598 H   0  0  0  0  0  0  0  0  0  0  0  0
    2.7372   -2.3070    0.0037 H   0  0  0  0  0  0  0  0  0  0  0  0
    1.7511    1.8961    0.0604 H   0  0  0  0  0  0  0  0  0  0  0  0
    0.3664   -2.9166    0.1640 H   0  0  0  0  0  0  0  0  0  0  0  0
   -3.4711    0.7654    0.4769 C   0  0  0  0  0  0  0  0  0  0  0  0
  5  6  1  0
  6  7  1  0
  7 28  1  0
 28  9  1  0
  9 11  2  0
  9  8  1  0
 11 16  1  0
  8 15  1  0
 16 14  1  0
 16 15  2  0
 14 10  2  0
 15 13  1  0
 10 12  1  0
 13 12  2  0
 12  4  1  0
  4  3  1  6
  4  2  1  0
  4  1  1  0
  5 17  1  0
  6 18  1  0
  6 19  1  0
  7 20  1  0
  7 21  1  0
 28 22  1  0
 28 23  1  0
  8 24  1  0
 10 25  1  0
 13 26  1  0
 14 27  1  0
M  END
