
     RDKit          3D

 46 47  0  0  0  0  0  0  0  0999 V2000
    8.4768    1.9778    0.1679 C   0  0  0  0  0  0  0  0  0  0  0  0
    7.2411    1.9788   -0.5206 O   0  0  0  0  0  0  0  0  0  0  0  0
    6.2918    1.1064   -0.1442 C   0  0  0  0  0  0  0  0  0  0  0  0
    5.0850    1.1668   -0.8469 C   0  0  0  0  0  0  0  0  0  0  0  0
    6.4510    0.1819    0.8831 C   0  0  0  0  0  0  0  0  0  0  0  0
    5.3851   -0.6590    1.1791 C   0  0  0  0  0  0  0  0  0  0  0  0
    5.5829   -1.8102    2.4644 Cl  0  0  0  0  0  0  0  0  0  0  0  0
    4.1863   -0.6132    0.4980 C   0  0  0  0  0  0  0  0  0  0  0  0
    4.0410    0.3137   -0.5363 C   0  0  0  0  0  0  0  0  0  0  0  0
    2.7598    0.3620   -1.3270 C   0  0  0  0  0  0  0  0  0  0  0  0
    1.5975    0.2872   -0.4675 N   0  0  0  0  0  0  0  0  0  0  0  0
    0.3519    0.2289   -1.2081 C   0  0  0  0  0  0  0  0  0  0  0  0
   -0.8363    0.1844   -0.2613 C   0  0  0  0  0  0  0  0  0  0  0  0
   -2.1537    0.1048   -1.0153 C   0  0  0  0  0  0  0  0  0  0  0  0
   -3.2589    0.0883   -0.0818 N   0  0  0  0  0  0  0  0  0  0  0  0
   -4.5288   -0.1463   -0.4833 C   0  0  0  0  0  0  0  0  0  0  0  0
   -4.8109   -0.4514   -1.6339 O   0  0  0  0  0  0  0  0  0  0  0  0
   -5.4552   -0.0261    0.5255 N   0  0  0  0  0  0  0  0  0  0  0  0
   -6.8388   -0.1675    0.4556 C   0  0  0  0  0  0  0  0  0  0  0  0
   -7.5323   -0.7013   -0.6341 C   0  0  0  0  0  0  0  0  0  0  0  0
   -8.9168   -0.8055   -0.5863 C   0  0  0  0  0  0  0  0  0  0  0  0
   -9.6374   -0.3980    0.5263 C   0  0  0  0  0  0  0  0  0  0  0  0
   -8.9468    0.1238    1.6128 C   0  0  0  0  0  0  0  0  0  0  0  0
   -7.5682    0.2399    1.5786 C   0  0  0  0  0  0  0  0  0  0  0  0
    8.3518    2.2049    1.2297 H   0  0  0  0  0  0  0  0  0  0  0  0
    8.9977    1.0220    0.0697 H   0  0  0  0  0  0  0  0  0  0  0  0
    9.0843    2.7556   -0.2875 H   0  0  0  0  0  0  0  0  0  0  0  0
    4.9748    1.8953   -1.6414 H   0  0  0  0  0  0  0  0  0  0  0  0
    7.3689    0.1063    1.4489 H   0  0  0  0  0  0  0  0  0  0  0  0
    3.3722   -1.2759    0.7570 H   0  0  0  0  0  0  0  0  0  0  0  0
    2.7656    1.2528   -1.9725 H   0  0  0  0  0  0  0  0  0  0  0  0
    2.7345   -0.4992   -2.0032 H   0  0  0  0  0  0  0  0  0  0  0  0
    1.5858    1.0996    0.1389 H   0  0  0  0  0  0  0  0  0  0  0  0
    0.2332    1.0736   -1.9054 H   0  0  0  0  0  0  0  0  0  0  0  0
    0.3618   -0.6768   -1.8227 H   0  0  0  0  0  0  0  0  0  0  0  0
   -0.7386   -0.6767    0.4050 H   0  0  0  0  0  0  0  0  0  0  0  0
   -0.8289    1.0806    0.3687 H   0  0  0  0  0  0  0  0  0  0  0  0
   -2.2378    0.9502   -1.7071 H   0  0  0  0  0  0  0  0  0  0  0  0
   -2.1743   -0.8040   -1.6206 H   0  0  0  0  0  0  0  0  0  0  0  0
   -3.0868    0.4521    0.8416 H   0  0  0  0  0  0  0  0  0  0  0  0
   -5.1120    0.2799    1.4234 H   0  0  0  0  0  0  0  0  0  0  0  0
   -7.0068   -1.0383   -1.5117 H   0  0  0  0  0  0  0  0  0  0  0  0
   -9.4337   -1.2202   -1.4425 H   0  0  0  0  0  0  0  0  0  0  0  0
  -10.7153   -0.4869    0.5490 H   0  0  0  0  0  0  0  0  0  0  0  0
   -9.4816    0.4492    2.4958 H   0  0  0  0  0  0  0  0  0  0  0  0
   -7.0468    0.6546    2.4337 H   0  0  0  0  0  0  0  0  0  0  0  0
 22 21  1  0
 22 23  2  0
 21 20  2  0
 23 24  1  0
 20 19  1  0
 24 19  2  0
 19 18  1  0
 18 16  1  0
 17 16  2  0
 16 15  1  0
 15 14  1  0
 14 13  1  0
 13 12  1  0
 12 11  1  0
 11 10  1  0
  1  2  1  0
  7  6  1  0
  6  8  2  0
  6  5  1  0
  8  9  1  0
  5  3  2  0
  9 10  1  0
  9  4  2  0
  3  4  1  0
  3  2  1  0
  1 25  1  0
  1 26  1  0
  1 27  1  0
  4 28  1  0
  5 29  1  0
  8 30  1  0
 10 31  1  0
 10 32  1  0
 11 33  1  0
 12 34  1  0
 12 35  1  0
 13 36  1  0
 13 37  1  0
 14 38  1  0
 14 39  1  0
 15 40  1  0
 18 41  1  0
 20 42  1  0
 21 43  1  0
 22 44  1  0
 23 45  1  0
 24 46  1  0
M  END
