
     RDKit          3D

 37 38  0  0  0  0  0  0  0  0999 V2000
   -1.2587    3.6860    0.2387 C   0  0  0  0  0  0  0  0  0  0  0  0
   -1.7903    2.2987    0.1779 C   0  0  0  0  0  0  0  0  0  0  0  0
   -3.0569    2.0563   -0.2777 N   0  0  0  0  0  0  0  0  0  0  0  0
   -3.3059    0.7104   -0.2592 C   0  0  0  0  0  0  0  0  0  0  0  0
   -4.4340   -0.0164   -0.6173 C   0  0  0  0  0  0  0  0  0  0  0  0
   -4.3895   -1.3931   -0.4858 C   0  0  0  0  0  0  0  0  0  0  0  0
   -3.2385   -2.0402   -0.0020 C   0  0  0  0  0  0  0  0  0  0  0  0
   -3.1922   -3.3908    0.1306 O   0  0  0  0  0  0  0  0  0  0  0  0
   -2.1143   -1.3158    0.3545 C   0  0  0  0  0  0  0  0  0  0  0  0
   -2.1436    0.0772    0.2260 C   0  0  0  0  0  0  0  0  0  0  0  0
   -1.1882    1.1071    0.5015 C   0  0  0  0  0  0  0  0  0  0  0  0
    0.2020    0.8940    0.9982 C   0  0  0  0  0  0  0  0  0  0  0  0
    1.1367    0.4376   -0.1177 C   0  0  0  0  0  0  0  0  0  0  0  0
    2.4611    0.1727    0.4062 N   0  0  0  0  0  0  0  0  0  0  0  0
    3.4968   -0.1680   -0.3731 C   0  0  0  0  0  0  0  0  0  0  0  0
    3.4169   -0.2759   -1.5855 O   0  0  0  0  0  0  0  0  0  0  0  0
    4.7936   -0.3947    0.3876 C   0  0  0  0  0  0  0  0  0  0  0  0
    5.7658   -0.8537   -0.4972 O   0  0  0  0  0  0  0  0  0  0  0  0
    6.9974   -1.0807    0.1420 C   0  0  0  0  0  0  0  0  0  0  0  0
   -2.0002    4.3777    0.6406 H   0  0  0  0  0  0  0  0  0  0  0  0
   -0.3754    3.7385    0.8720 H   0  0  0  0  0  0  0  0  0  0  0  0
   -0.9764    4.0485   -0.7519 H   0  0  0  0  0  0  0  0  0  0  0  0
   -3.7131    2.7679   -0.5530 H   0  0  0  0  0  0  0  0  0  0  0  0
   -5.3269    0.4690   -0.9903 H   0  0  0  0  0  0  0  0  0  0  0  0
   -5.2581   -1.9801   -0.7627 H   0  0  0  0  0  0  0  0  0  0  0  0
   -4.0206   -3.7810   -0.1663 H   0  0  0  0  0  0  0  0  0  0  0  0
   -1.2313   -1.8244    0.7252 H   0  0  0  0  0  0  0  0  0  0  0  0
    0.5961    1.8108    1.4447 H   0  0  0  0  0  0  0  0  0  0  0  0
    0.1977    0.1420    1.7947 H   0  0  0  0  0  0  0  0  0  0  0  0
    0.7334   -0.4608   -0.5939 H   0  0  0  0  0  0  0  0  0  0  0  0
    1.1889    1.2097   -0.8889 H   0  0  0  0  0  0  0  0  0  0  0  0
    2.5913    0.2086    1.4053 H   0  0  0  0  0  0  0  0  0  0  0  0
    5.0910    0.5512    0.8658 H   0  0  0  0  0  0  0  0  0  0  0  0
    4.6151   -1.1102    1.2045 H   0  0  0  0  0  0  0  0  0  0  0  0
    7.4079   -0.1642    0.5817 H   0  0  0  0  0  0  0  0  0  0  0  0
    6.9142   -1.8281    0.9395 H   0  0  0  0  0  0  0  0  0  0  0  0
    7.6982   -1.4492   -0.6058 H   0  0  0  0  0  0  0  0  0  0  0  0
  8  7  1  0
  7  6  2  0
  7  9  1  0
  6  5  1  0
  9 10  2  0
  5  4  2  0
 10  4  1  0
 10 11  1  0
 16 15  2  0
 19 18  1  0
  4  3  1  0
 12 11  1  0
 12 13  1  0
 11  2  2  0
 15 17  1  0
 15 14  1  0
 18 17  1  0
 14 13  1  0
  3  2  1  0
  2  1  1  0
  1 20  1  0
  1 21  1  0
  1 22  1  0
  3 23  1  0
  5 24  1  0
  6 25  1  0
  8 26  1  0
  9 27  1  0
 12 28  1  0
 12 29  1  0
 13 30  1  0
 13 31  1  0
 14 32  1  0
 17 33  1  0
 17 34  1  0
 19 35  1  0
 19 36  1  0
 19 37  1  0
M  END
