
     RDKit          3D

 34 35  0  0  0  0  0  0  0  0999 V2000
    5.0869   -1.9217    0.4423 C   0  0  0  0  0  0  0  0  0  0  0  0
    3.6935   -1.9114    0.2059 O   0  0  0  0  0  0  0  0  0  0  0  0
    3.0825   -0.7346   -0.0247 C   0  0  0  0  0  0  0  0  0  0  0  0
    1.7105   -0.7901   -0.2683 C   0  0  0  0  0  0  0  0  0  0  0  0
    3.7474    0.4890   -0.0322 C   0  0  0  0  0  0  0  0  0  0  0  0
    3.0237    1.6536   -0.2835 C   0  0  0  0  0  0  0  0  0  0  0  0
    3.6169    2.8636   -0.3061 O   0  0  0  0  0  0  0  0  0  0  0  0
    1.6554    1.6033   -0.5230 C   0  0  0  0  0  0  0  0  0  0  0  0
    0.9998    0.3763   -0.5168 C   0  0  0  0  0  0  0  0  0  0  0  0
   -0.4866    0.3144   -0.7338 C   0  0  0  0  0  0  0  0  0  0  0  0
   -1.2514    0.1985    0.5950 C   0  0  0  0  0  0  0  0  0  0  0  0
   -2.7422    0.1503    0.3952 C   0  0  0  0  0  0  0  0  0  0  0  0
   -3.5031    1.3115    0.5033 C   0  0  0  0  0  0  0  0  0  0  0  0
   -4.8713    1.3159    0.2750 C   0  0  0  0  0  0  0  0  0  0  0  0
   -5.5036    0.1288   -0.0697 C   0  0  0  0  0  0  0  0  0  0  0  0
   -4.7727   -1.0432   -0.1806 C   0  0  0  0  0  0  0  0  0  0  0  0
   -3.3988   -1.0358    0.0463 C   0  0  0  0  0  0  0  0  0  0  0  0
   -2.7510   -2.2149   -0.0940 O   0  0  0  0  0  0  0  0  0  0  0  0
    5.3564   -1.3513    1.3352 H   0  0  0  0  0  0  0  0  0  0  0  0
    5.3661   -2.9611    0.5961 H   0  0  0  0  0  0  0  0  0  0  0  0
    5.6492   -1.5299   -0.4094 H   0  0  0  0  0  0  0  0  0  0  0  0
    1.2080   -1.7508   -0.2680 H   0  0  0  0  0  0  0  0  0  0  0  0
    4.8134    0.5542    0.1484 H   0  0  0  0  0  0  0  0  0  0  0  0
    4.5635    2.7793   -0.1471 H   0  0  0  0  0  0  0  0  0  0  0  0
    1.1090    2.5175   -0.7216 H   0  0  0  0  0  0  0  0  0  0  0  0
   -0.8275    1.2111   -1.2543 H   0  0  0  0  0  0  0  0  0  0  0  0
   -0.7297   -0.5319   -1.3815 H   0  0  0  0  0  0  0  0  0  0  0  0
   -0.8858   -0.6701    1.1542 H   0  0  0  0  0  0  0  0  0  0  0  0
   -1.0038    1.0593    1.2189 H   0  0  0  0  0  0  0  0  0  0  0  0
   -3.0042    2.2341    0.7764 H   0  0  0  0  0  0  0  0  0  0  0  0
   -5.4367    2.2338    0.3674 H   0  0  0  0  0  0  0  0  0  0  0  0
   -6.5710    0.1096   -0.2482 H   0  0  0  0  0  0  0  0  0  0  0  0
   -5.2611   -1.9732   -0.4449 H   0  0  0  0  0  0  0  0  0  0  0  0
   -1.8346   -2.1409    0.1908 H   0  0  0  0  0  0  0  0  0  0  0  0
  7  6  1  0
  6  5  1  0
  6  8  2  0
  5  3  2  0
  1  2  1  0
  8  9  1  0
  3  2  1  0
  3  4  1  0
  4  9  2  0
  9 10  1  0
 11 10  1  0
 11 12  1  0
 18 17  1  0
 12 17  1  0
 12 13  2  0
 17 16  2  0
 13 14  1  0
 16 15  1  0
 14 15  2  0
  1 19  1  0
  1 20  1  0
  1 21  1  0
  4 22  1  0
  5 23  1  0
  7 24  1  0
  8 25  1  0
 10 26  1  0
 10 27  1  0
 11 28  1  0
 11 29  1  0
 13 30  1  0
 14 31  1  0
 15 32  1  0
 16 33  1  0
 18 34  1  0
M  END
