
     RDKit          3D

 27 28  0  0  0  0  0  0  0  0999 V2000
   -0.0844    2.2134   -1.1294 N   0  0  0  0  0  0  0  0  0  0  0  0
    0.0092    0.7643   -1.0545 C   0  0  1  0  0  0  0  0  0  0  0  0
    1.2613    0.3195   -0.3228 C   0  0  0  0  0  0  0  0  0  0  0  0
   -1.2297    0.1124   -0.4628 C   0  0  0  0  0  0  0  0  0  0  0  0
   -2.1251   -0.5742   -1.2748 C   0  0  0  0  0  0  0  0  0  0  0  0
   -3.2869   -1.1266   -0.7463 C   0  0  0  0  0  0  0  0  0  0  0  0
   -3.5658   -0.9946    0.6059 C   0  0  0  0  0  0  0  0  0  0  0  0
   -2.6757   -0.3099    1.4269 C   0  0  0  0  0  0  0  0  0  0  0  0
   -1.5180    0.2372    0.8958 C   0  0  0  0  0  0  0  0  0  0  0  0
    2.1772    1.2248    0.2004 C   0  0  0  0  0  0  0  0  0  0  0  0
    3.3173    0.7786    0.8619 C   0  0  0  0  0  0  0  0  0  0  0  0
    3.5622   -0.5790    0.9978 C   0  0  0  0  0  0  0  0  0  0  0  0
    2.6567   -1.4924    0.4681 C   0  0  0  0  0  0  0  0  0  0  0  0
    1.5172   -1.0451   -0.1807 C   0  0  0  0  0  0  0  0  0  0  0  0
   -0.8546    2.4617   -1.7378 H   0  0  0  0  0  0  0  0  0  0  0  0
    0.1009    0.4086   -2.0865 H   0  0  0  0  0  0  0  0  0  0  0  0
   -1.9116   -0.6830   -2.3321 H   0  0  0  0  0  0  0  0  0  0  0  0
   -3.9715   -1.6611   -1.3927 H   0  0  0  0  0  0  0  0  0  0  0  0
   -4.4676   -1.4252    1.0212 H   0  0  0  0  0  0  0  0  0  0  0  0
   -2.8847   -0.2066    2.4841 H   0  0  0  0  0  0  0  0  0  0  0  0
   -0.8268    0.7578    1.5493 H   0  0  0  0  0  0  0  0  0  0  0  0
    2.0091    2.2871    0.0843 H   0  0  0  0  0  0  0  0  0  0  0  0
    4.0165    1.4988    1.2679 H   0  0  0  0  0  0  0  0  0  0  0  0
    4.4512   -0.9261    1.5084 H   0  0  0  0  0  0  0  0  0  0  0  0
    2.8408   -2.5551    0.5621 H   0  0  0  0  0  0  0  0  0  0  0  0
    0.8149   -1.7663   -0.5832 H   0  0  0  0  0  0  0  0  0  0  0  0
   -0.3162    2.5992   -0.2208 H   0  0  0  0  0  0  0  0  0  0  0  0
 11 12  1  0
 11 10  2  0
 12 13  2  0
 10  3  1  0
 13 14  1  0
  7  6  1  0
  7  8  2  0
  6  5  2  0
  8  9  1  0
  3 14  2  0
  3  2  1  0
  5  4  1  0
  9  4  2  0
  4  2  1  0
  2  1  1  0
  1 15  1  0
  2 16  1  6
  5 17  1  0
  6 18  1  0
  7 19  1  0
  8 20  1  0
  9 21  1  0
 10 22  1  0
 11 23  1  0
 12 24  1  0
 13 25  1  0
 14 26  1  0
  1 27  1  0
M  END
