
     RDKit          3D

 51 54  0  0  0  0  0  0  0  0999 V2000
    2.3679   -1.0321    1.5088 C   0  0  0  0  0  0  0  0  0  0  0  0
   -0.2022   -0.2223    0.5145 C   0  0  1  0  0  0  0  0  0  0  0  0
    0.9250    0.7762    0.7985 C   0  0  0  0  0  0  0  0  0  0  0  0
   -5.7077    1.6643   -0.5893 C   0  0  0  0  0  0  0  0  0  0  0  0
    2.1876    0.0906    0.5939 N   0  0  0  0  0  0  0  0  0  0  0  0
    3.2641    0.8519    0.1878 C   0  0  0  0  0  0  0  0  0  0  0  0
   -0.1298   -1.4579    1.4242 C   0  0  1  0  0  0  0  0  0  0  0  0
    1.2728   -2.0623    1.2959 C   0  0  0  0  0  0  0  0  0  0  0  0
   -1.5154    0.4171    0.5031 N   0  0  0  0  0  0  0  0  0  0  0  0
   -2.4544   -0.0058   -0.3722 C   0  0  0  0  0  0  0  0  0  0  0  0
   -3.7395    0.5845   -0.5083 C   0  0  0  0  0  0  0  0  0  0  0  0
   -4.4992    1.6738    0.0378 C   0  0  0  0  0  0  0  0  0  0  0  0
   -5.7436    0.6384   -1.4964 N   0  0  0  0  0  0  0  0  0  0  0  0
   -4.5663   -0.0243   -1.4719 C   0  0  0  0  0  0  0  0  0  0  0  0
   -4.2563   -1.0662   -2.2475 N   0  0  0  0  0  0  0  0  0  0  0  0
   -3.0346   -1.5037   -2.0304 C   0  0  0  0  0  0  0  0  0  0  0  0
   -2.1460   -1.0450   -1.1583 N   0  0  0  0  0  0  0  0  0  0  0  0
    3.2514    2.0789    0.2160 O   0  0  0  0  0  0  0  0  0  0  0  0
    4.3374    0.1607   -0.2745 N   0  0  0  0  0  0  0  0  0  0  0  0
    4.2727   -1.1512   -0.9213 C   0  0  0  0  0  0  0  0  0  0  0  0
    5.3663   -1.0802   -1.9805 C   0  0  0  0  0  0  0  0  0  0  0  0
    6.4038   -0.1763   -1.3242 C   0  0  0  0  0  0  0  0  0  0  0  0
    5.5435    0.8894   -0.6580 C   0  0  0  0  0  0  0  0  0  0  0  0
    3.3426   -1.4898    1.3675 H   0  0  0  0  0  0  0  0  0  0  0  0
    2.3505   -0.6612    2.5426 H   0  0  0  0  0  0  0  0  0  0  0  0
   -0.0276   -0.5729   -0.5028 H   0  0  0  0  0  0  0  0  0  0  0  0
    0.8463    1.6097    0.1029 H   0  0  0  0  0  0  0  0  0  0  0  0
    0.8783    1.1894    1.8132 H   0  0  0  0  0  0  0  0  0  0  0  0
   -1.0609    1.5211    2.2159 H   0  0  0  0  0  0  0  0  0  0  0  0
   -1.9511    2.4260    1.0053 H   0  0  0  0  0  0  0  0  0  0  0  0
   -2.7632    1.2083    2.0050 H   0  0  0  0  0  0  0  0  0  0  0  0
   -0.8420   -2.1887    1.0302 H   0  0  0  0  0  0  0  0  0  0  0  0
    1.3952   -2.4973    0.2996 H   0  0  0  0  0  0  0  0  0  0  0  0
    1.3943   -2.8735    2.0176 H   0  0  0  0  0  0  0  0  0  0  0  0
   -4.2095    2.3857    0.7905 H   0  0  0  0  0  0  0  0  0  0  0  0
   -6.5198    0.4142   -2.0979 H   0  0  0  0  0  0  0  0  0  0  0  0
   -2.7090   -2.3477   -2.6308 H   0  0  0  0  0  0  0  0  0  0  0  0
    4.4860   -1.9595   -0.2158 H   0  0  0  0  0  0  0  0  0  0  0  0
    3.2806   -1.3327   -1.3370 H   0  0  0  0  0  0  0  0  0  0  0  0
    5.7490   -2.0664   -2.2406 H   0  0  0  0  0  0  0  0  0  0  0  0
    4.9840   -0.6159   -2.8924 H   0  0  0  0  0  0  0  0  0  0  0  0
    6.9734   -0.7350   -0.5776 H   0  0  0  0  0  0  0  0  0  0  0  0
    7.1132    0.2565   -2.0287 H   0  0  0  0  0  0  0  0  0  0  0  0
    5.3108    1.6913   -1.3649 H   0  0  0  0  0  0  0  0  0  0  0  0
    6.0261    1.3430    0.2090 H   0  0  0  0  0  0  0  0  0  0  0  0
   -1.8436    1.4441    1.4701 C   0  0  0  0  0  0  0  0  0  0  0  0
   -0.5056   -1.1810    2.8765 C   0  0  0  0  0  0  0  0  0  0  0  0
   -6.5559    2.3156   -0.4600 H   0  0  0  0  0  0  0  0  0  0  0  0
   -1.5471   -0.8715    2.9696 H   0  0  0  0  0  0  0  0  0  0  0  0
   -0.3866   -2.0863    3.4741 H   0  0  0  0  0  0  0  0  0  0  0  0
    0.1100   -0.4068    3.3377 H   0  0  0  0  0  0  0  0  0  0  0  0
 21 22  1  0
 21 20  1  0
 22 23  1  0
 23 19  1  0
 20 19  1  0
  1  8  1  0
  1  5  1  0
 19  6  1  0
  8  7  1  0
  6  5  1  0
  6 18  2  0
 47  7  1  0
  5  3  1  0
  7  2  1  0
  3  2  1  0
  2  9  1  0
  9 46  1  0
  9 10  1  0
 12  4  2  0
 12 11  1  0
  4 13  1  0
 10 11  2  0
 10 17  1  0
 11 14  1  0
 17 16  2  0
 13 14  1  0
 14 15  2  0
 16 15  1  0
  1 24  1  0
  1 25  1  0
  2 26  1  6
  3 27  1  0
  3 28  1  0
 46 29  1  0
 46 30  1  0
 46 31  1  0
  4 48  1  0
 47 49  1  0
 47 50  1  0
 47 51  1  0
  7 32  1  6
  8 33  1  0
  8 34  1  0
 12 35  1  0
 13 36  1  0
 16 37  1  0
 20 38  1  0
 20 39  1  0
 21 40  1  0
 21 41  1  0
 22 42  1  0
 22 43  1  0
 23 44  1  0
 23 45  1  0
M  END
