
     RDKit          3D

 39 41  0  0  0  0  0  0  0  0999 V2000
    4.8666   -1.6467   -2.4204 C   0  0  2  0  0  0  0  0  0  0  0  0
    5.5111   -2.3193   -3.6219 C   0  0  0  0  0  0  0  0  0  0  0  0
    6.5646   -3.3126   -3.1687 C   0  0  0  0  0  0  0  0  0  0  0  0
    6.0516   -4.3044   -2.1525 C   0  0  0  0  0  0  0  0  0  0  0  0
    6.5952   -5.3786   -1.9914 O   0  0  0  0  0  0  0  0  0  0  0  0
    4.8701   -3.9088   -1.3695 C   0  0  0  0  0  0  0  0  0  0  0  0
    4.2212   -5.2709   -0.2321 Br  0  0  0  0  0  0  0  0  0  0  0  0
    4.2852   -2.6976   -1.4808 C   0  0  0  0  0  0  0  0  0  0  0  0
    3.0918   -2.1264   -0.8811 C   0  0  0  0  0  0  0  0  0  0  0  0
    2.3345   -2.4814    0.2404 C   0  0  0  0  0  0  0  0  0  0  0  0
    1.2276   -1.7328    0.5849 C   0  0  0  0  0  0  0  0  0  0  0  0
    0.8501   -0.6241   -0.1822 C   0  0  0  0  0  0  0  0  0  0  0  0
   -0.2383    0.0517    0.2082 O   0  0  0  0  0  0  0  0  0  0  0  0
    1.6018   -0.2536   -1.2970 C   0  0  0  0  0  0  0  0  0  0  0  0
    2.7123   -1.0024   -1.6282 C   0  0  0  0  0  0  0  0  0  0  0  0
    3.6432   -0.7831   -2.7775 C   0  0  0  0  0  0  0  0  0  0  0  0
    5.8714   -0.7998   -1.6009 C   0  0  0  0  0  0  0  0  0  0  0  0
    6.6805    0.2010   -2.4181 C   0  0  0  0  0  0  0  0  0  0  0  0
    7.4967    1.1369   -1.5328 C   0  0  0  0  0  0  0  0  0  0  0  0
    8.3348    2.1209   -2.3368 C   0  0  0  0  0  0  0  0  0  0  0  0
    5.9535   -1.5804   -4.2917 H   0  0  0  0  0  0  0  0  0  0  0  0
    4.7392   -2.8368   -4.1985 H   0  0  0  0  0  0  0  0  0  0  0  0
    7.4133   -2.7908   -2.7124 H   0  0  0  0  0  0  0  0  0  0  0  0
    6.9714   -3.8739   -4.0110 H   0  0  0  0  0  0  0  0  0  0  0  0
    2.6041   -3.3156    0.8694 H   0  0  0  0  0  0  0  0  0  0  0  0
    0.6461   -1.9974    1.4587 H   0  0  0  0  0  0  0  0  0  0  0  0
   -0.4129    0.7899   -0.3872 H   0  0  0  0  0  0  0  0  0  0  0  0
    1.3200    0.6112   -1.8882 H   0  0  0  0  0  0  0  0  0  0  0  0
    3.1802   -1.1306   -3.7065 H   0  0  0  0  0  0  0  0  0  0  0  0
    3.8950    0.2683   -2.9231 H   0  0  0  0  0  0  0  0  0  0  0  0
    6.5592   -1.4566   -1.0612 H   0  0  0  0  0  0  0  0  0  0  0  0
    5.3117   -0.2618   -0.8283 H   0  0  0  0  0  0  0  0  0  0  0  0
    7.3625   -0.3258   -3.0928 H   0  0  0  0  0  0  0  0  0  0  0  0
    6.0190    0.7961   -3.0562 H   0  0  0  0  0  0  0  0  0  0  0  0
    8.1477    0.5435   -0.8835 H   0  0  0  0  0  0  0  0  0  0  0  0
    6.8223    1.6857   -0.8688 H   0  0  0  0  0  0  0  0  0  0  0  0
    7.7044    2.7566   -2.9610 H   0  0  0  0  0  0  0  0  0  0  0  0
    9.0324    1.6004   -2.9960 H   0  0  0  0  0  0  0  0  0  0  0  0
    8.9191    2.7727   -1.6868 H   0  0  0  0  0  0  0  0  0  0  0  0
  1  2  1  0
  1  8  1  0
  1 16  1  0
  1 17  1  1
  2  3  1  0
  2 21  1  0
  2 22  1  0
  3  4  1  0
  3 23  1  0
  3 24  1  0
  4  5  2  0
  4  6  1  0
  6  7  1  0
  6  8  2  0
  8  9  1  0
  9 10  2  0
  9 15  1  0
 10 11  1  0
 10 25  1  0
 11 12  2  0
 11 26  1  0
 12 13  1  0
 12 14  1  0
 13 27  1  0
 14 15  2  0
 14 28  1  0
 15 16  1  0
 16 29  1  0
 16 30  1  0
 17 18  1  0
 17 31  1  0
 17 32  1  0
 18 19  1  0
 18 33  1  0
 18 34  1  0
 19 20  1  0
 19 35  1  0
 19 36  1  0
 20 37  1  0
 20 38  1  0
 20 39  1  0
M  END
