
     RDKit          3D

107107  0  0  0  0  0  0  0  0999 V2000
  -11.6798  -12.6217    7.4787 C   0  0  0  0  0  0  0  0  0  0  0  0
  -10.5013  -13.6038    7.6664 C   0  0  2  0  0  0  0  0  0  0  0  0
  -11.1178  -15.0066    7.5638 C   0  0  0  0  0  0  0  0  0  0  0  0
   -9.8179  -13.4893    9.0304 C   0  0  0  0  0  0  0  0  0  0  0  0
   -9.4418  -13.4841    6.5687 C   0  0  0  0  0  0  0  0  0  0  0  0
  -11.5584  -11.0798    7.5840 C   0  0  1  0  0  0  0  0  0  0  0  0
  -10.5585  -10.5167    6.5831 C   0  0  0  0  0  0  0  0  0  0  0  0
  -12.9524  -10.5214    7.2405 C   0  0  0  0  0  0  0  0  0  0  0  0
  -11.2628  -10.6304    9.0172 C   0  0  0  0  0  0  0  0  0  0  0  0
  -10.7404  -10.7321    5.2197 C   0  0  0  0  0  0  0  0  0  0  0  0
   -9.8604  -10.2490    4.2635 C   0  0  0  0  0  0  0  0  0  0  0  0
   -8.7432   -9.5167    4.6580 C   0  0  0  0  0  0  0  0  0  0  0  0
   -8.5448   -9.2804    6.0148 C   0  0  0  0  0  0  0  0  0  0  0  0
   -9.4406   -9.7716    6.9525 C   0  0  0  0  0  0  0  0  0  0  0  0
   -7.8217   -9.0113    3.8078 O   0  0  0  0  0  0  0  0  0  0  0  0
   -8.0874   -9.0978    2.4212 C   0  0  0  0  0  0  0  0  0  0  0  0
   -6.9484   -8.4862    1.6513 C   0  0  0  0  0  0  0  0  0  0  0  0
   -6.8671   -7.1075    1.8966 O   0  0  0  0  0  0  0  0  0  0  0  0
   -5.9110   -6.4835    1.0757 C   0  0  0  0  0  0  0  0  0  0  0  0
   -5.7408   -5.0369    1.4597 C   0  0  0  0  0  0  0  0  0  0  0  0
   -6.9211   -4.3179    1.2156 O   0  0  0  0  0  0  0  0  0  0  0  0
   -6.7530   -2.9356    1.4055 C   0  0  0  0  0  0  0  0  0  0  0  0
   -8.0715   -2.2283    1.2267 C   0  0  0  0  0  0  0  0  0  0  0  0
   -8.9244   -2.5448    2.2956 O   0  0  0  0  0  0  0  0  0  0  0  0
  -10.2380   -2.0881    2.1116 C   0  0  0  0  0  0  0  0  0  0  0  0
  -11.0351   -2.3135    3.3709 C   0  0  0  0  0  0  0  0  0  0  0  0
  -11.0905   -3.6851    3.6603 O   0  0  0  0  0  0  0  0  0  0  0  0
  -11.8258   -3.9650    4.8231 C   0  0  0  0  0  0  0  0  0  0  0  0
  -11.7177   -5.4313    5.1561 C   0  0  0  0  0  0  0  0  0  0  0  0
  -12.3088   -6.1982    4.1432 O   0  0  0  0  0  0  0  0  0  0  0  0
  -12.2189   -7.5796    4.3829 C   0  0  0  0  0  0  0  0  0  0  0  0
  -12.6772   -8.3368    3.1627 C   0  0  0  0  0  0  0  0  0  0  0  0
  -11.7516   -8.1563    2.1249 O   0  0  0  0  0  0  0  0  0  0  0  0
  -12.1576   -8.7147    0.9050 C   0  0  0  0  0  0  0  0  0  0  0  0
  -11.0899   -8.4531   -0.1281 C   0  0  0  0  0  0  0  0  0  0  0  0
  -10.9665   -7.0682   -0.3329 O   0  0  0  0  0  0  0  0  0  0  0  0
   -9.6733   -6.6553   -0.6901 C   0  0  0  0  0  0  0  0  0  0  0  0
   -9.6443   -5.1577   -0.8389 C   0  0  0  0  0  0  0  0  0  0  0  0
  -10.4454   -4.7667   -1.9249 O   0  0  0  0  0  0  0  0  0  0  0  0
  -10.4536   -3.3764   -2.1147 C   0  0  0  0  0  0  0  0  0  0  0  0
  -11.2999   -3.0270   -3.3114 C   0  0  0  0  0  0  0  0  0  0  0  0
  -12.6426   -3.3458   -3.0542 O   0  0  0  0  0  0  0  0  0  0  0  0
  -13.4879   -3.0418   -4.1352 C   0  0  0  0  0  0  0  0  0  0  0  0
  -14.9104   -3.4050   -3.7939 C   0  0  0  0  0  0  0  0  0  0  0  0
  -15.0165   -4.8021   -3.6441 O   0  0  0  0  0  0  0  0  0  0  0  0
  -12.4537  -12.9108    8.2006 H   0  0  0  0  0  0  0  0  0  0  0  0
  -12.1059  -12.8447    6.4939 H   0  0  0  0  0  0  0  0  0  0  0  0
  -11.6017  -15.1560    6.5954 H   0  0  0  0  0  0  0  0  0  0  0  0
  -11.8695  -15.1709    8.3395 H   0  0  0  0  0  0  0  0  0  0  0  0
  -10.3523  -15.7780    7.6741 H   0  0  0  0  0  0  0  0  0  0  0  0
  -10.5399  -13.4958    9.8498 H   0  0  0  0  0  0  0  0  0  0  0  0
   -9.1382  -14.3319    9.1812 H   0  0  0  0  0  0  0  0  0  0  0  0
   -9.2198  -12.5824    9.1148 H   0  0  0  0  0  0  0  0  0  0  0  0
   -8.7204  -14.2997    6.6604 H   0  0  0  0  0  0  0  0  0  0  0  0
   -9.8892  -13.5467    5.5747 H   0  0  0  0  0  0  0  0  0  0  0  0
   -8.8895  -12.5467    6.6206 H   0  0  0  0  0  0  0  0  0  0  0  0
  -13.2821  -10.8152    6.2430 H   0  0  0  0  0  0  0  0  0  0  0  0
  -12.9571   -9.4305    7.2824 H   0  0  0  0  0  0  0  0  0  0  0  0
  -13.6966  -10.8868    7.9518 H   0  0  0  0  0  0  0  0  0  0  0  0
  -11.3710   -9.5481    9.1142 H   0  0  0  0  0  0  0  0  0  0  0  0
  -11.9751  -11.0927    9.7028 H   0  0  0  0  0  0  0  0  0  0  0  0
  -10.2657  -10.8906    9.3655 H   0  0  0  0  0  0  0  0  0  0  0  0
  -11.5930  -11.3024    4.8705 H   0  0  0  0  0  0  0  0  0  0  0  0
  -10.0731  -10.4454    3.2219 H   0  0  0  0  0  0  0  0  0  0  0  0
   -7.6833   -8.7079    6.3371 H   0  0  0  0  0  0  0  0  0  0  0  0
   -9.2397   -9.5589    7.9940 H   0  0  0  0  0  0  0  0  0  0  0  0
   -8.1752  -10.1431    2.1023 H   0  0  0  0  0  0  0  0  0  0  0  0
   -9.0329   -8.5957    2.1861 H   0  0  0  0  0  0  0  0  0  0  0  0
   -7.1330   -8.6887    0.5865 H   0  0  0  0  0  0  0  0  0  0  0  0
   -6.0049   -8.9900    1.9077 H   0  0  0  0  0  0  0  0  0  0  0  0
   -4.9306   -6.9699    1.1758 H   0  0  0  0  0  0  0  0  0  0  0  0
   -6.1983   -6.5598    0.0167 H   0  0  0  0  0  0  0  0  0  0  0  0
   -4.9036   -4.6375    0.8692 H   0  0  0  0  0  0  0  0  0  0  0  0
   -5.4449   -4.9596    2.5163 H   0  0  0  0  0  0  0  0  0  0  0  0
   -6.3497   -2.7190    2.4056 H   0  0  0  0  0  0  0  0  0  0  0  0
   -6.0367   -2.5232    0.6808 H   0  0  0  0  0  0  0  0  0  0  0  0
   -8.5138   -2.5154    0.2623 H   0  0  0  0  0  0  0  0  0  0  0  0
   -7.8833   -1.1464    1.1781 H   0  0  0  0  0  0  0  0  0  0  0  0
  -10.2634   -1.0126    1.8852 H   0  0  0  0  0  0  0  0  0  0  0  0
  -10.7146   -2.6015    1.2638 H   0  0  0  0  0  0  0  0  0  0  0  0
  -12.0397   -1.8940    3.2171 H   0  0  0  0  0  0  0  0  0  0  0  0
  -10.5829   -1.7540    4.2032 H   0  0  0  0  0  0  0  0  0  0  0  0
  -11.4415   -3.3975    5.6828 H   0  0  0  0  0  0  0  0  0  0  0  0
  -12.8813   -3.6798    4.7024 H   0  0  0  0  0  0  0  0  0  0  0  0
  -12.2116   -5.5965    6.1250 H   0  0  0  0  0  0  0  0  0  0  0  0
  -10.6608   -5.7052    5.2894 H   0  0  0  0  0  0  0  0  0  0  0  0
  -11.1912   -7.8748    4.6357 H   0  0  0  0  0  0  0  0  0  0  0  0
  -12.8523   -7.8756    5.2322 H   0  0  0  0  0  0  0  0  0  0  0  0
  -13.6787   -7.9924    2.8639 H   0  0  0  0  0  0  0  0  0  0  0  0
  -12.7753   -9.3980    3.4319 H   0  0  0  0  0  0  0  0  0  0  0  0
  -12.3066   -9.8014    0.9830 H   0  0  0  0  0  0  0  0  0  0  0  0
  -13.1160   -8.2868    0.5749 H   0  0  0  0  0  0  0  0  0  0  0  0
  -11.3568   -8.9718   -1.0586 H   0  0  0  0  0  0  0  0  0  0  0  0
  -10.1419   -8.8896    0.2138 H   0  0  0  0  0  0  0  0  0  0  0  0
   -8.9489   -6.9190    0.0922 H   0  0  0  0  0  0  0  0  0  0  0  0
   -9.3376   -7.1335   -1.6213 H   0  0  0  0  0  0  0  0  0  0  0  0
   -8.6007   -4.8479   -0.9818 H   0  0  0  0  0  0  0  0  0  0  0  0
   -9.9841   -4.6885    0.0957 H   0  0  0  0  0  0  0  0  0  0  0  0
  -10.8364   -2.8583   -1.2224 H   0  0  0  0  0  0  0  0  0  0  0  0
   -9.4376   -2.9936   -2.2909 H   0  0  0  0  0  0  0  0  0  0  0  0
  -10.9299   -3.5609   -4.1988 H   0  0  0  0  0  0  0  0  0  0  0  0
  -11.1787   -1.9536   -3.5149 H   0  0  0  0  0  0  0  0  0  0  0  0
  -13.4547   -1.9690   -4.3725 H   0  0  0  0  0  0  0  0  0  0  0  0
  -13.1714   -3.5767   -5.0427 H   0  0  0  0  0  0  0  0  0  0  0  0
  -15.5466   -3.0307   -4.6060 H   0  0  0  0  0  0  0  0  0  0  0  0
  -15.2118   -2.8721   -2.8824 H   0  0  0  0  0  0  0  0  0  0  0  0
  -15.9310   -5.0121   -3.4360 H   0  0  0  0  0  0  0  0  0  0  0  0
  2  1  1  6
  6  1  1  1
  1 46  1  0
  1 47  1  0
  2  3  1  0
  2  4  1  0
  2  5  1  0
  3 48  1  0
  3 49  1  0
  3 50  1  0
  4 51  1  0
  4 52  1  0
  4 53  1  0
  5 54  1  0
  5 55  1  0
  5 56  1  0
  6  7  1  0
  6  8  1  0
  6  9  1  0
  7 10  2  0
  7 14  1  0
  8 57  1  0
  8 58  1  0
  8 59  1  0
  9 60  1  0
  9 61  1  0
  9 62  1  0
 10 11  1  0
 10 63  1  0
 11 12  2  0
 11 64  1  0
 12 13  1  0
 12 15  1  0
 13 14  2  0
 13 65  1  0
 14 66  1  0
 15 16  1  0
 16 17  1  0
 16 67  1  0
 16 68  1  0
 17 18  1  0
 17 69  1  0
 17 70  1  0
 18 19  1  0
 19 20  1  0
 19 71  1  0
 19 72  1  0
 20 21  1  0
 20 73  1  0
 20 74  1  0
 21 22  1  0
 22 23  1  0
 22 75  1  0
 22 76  1  0
 23 24  1  0
 23 77  1  0
 23 78  1  0
 24 25  1  0
 25 26  1  0
 25 79  1  0
 25 80  1  0
 26 27  1  0
 26 81  1  0
 26 82  1  0
 27 28  1  0
 28 29  1  0
 28 83  1  0
 28 84  1  0
 29 30  1  0
 29 85  1  0
 29 86  1  0
 30 31  1  0
 31 32  1  0
 31 87  1  0
 31 88  1  0
 32 33  1  0
 32 89  1  0
 32 90  1  0
 33 34  1  0
 34 35  1  0
 34 91  1  0
 34 92  1  0
 35 36  1  0
 35 93  1  0
 35 94  1  0
 36 37  1  0
 37 38  1  0
 37 95  1  0
 37 96  1  0
 38 39  1  0
 38 97  1  0
 38 98  1  0
 39 40  1  0
 40 41  1  0
 40 99  1  0
 40100  1  0
 41 42  1  0
 41101  1  0
 41102  1  0
 42 43  1  0
 43 44  1  0
 43103  1  0
 43104  1  0
 44 45  1  0
 44105  1  0
 44106  1  0
 45107  1  0
M  END
