
     RDKit          3D

 17 16  0  0  0  0  0  0  0  0999 V2000
   -0.3324    0.0210    2.5187 C   0  0  0  0  0  0  0  0  0  0  0  0
    0.5276    0.0127    1.2622 C   0  0  0  0  0  0  0  0  0  0  0  0
   -0.3004    0.0064   -0.0170 C   0  0  0  0  0  0  0  0  0  0  0  0
    0.5421   -0.0011   -1.2869 C   0  0  0  0  0  0  0  0  0  0  0  0
   -0.3039   -0.0012   -2.5530 C   0  0  0  0  0  0  0  0  0  0  0  0
    0.2749    0.0252    3.4246 H   0  0  0  0  0  0  0  0  0  0  0  0
   -0.9754    0.9029    2.5485 H   0  0  0  0  0  0  0  0  0  0  0  0
   -0.9783   -0.8584    2.5581 H   0  0  0  0  0  0  0  0  0  0  0  0
    1.1873    0.8862    1.2625 H   0  0  0  0  0  0  0  0  0  0  0  0
    1.1848   -0.8626    1.2725 H   0  0  0  0  0  0  0  0  0  0  0  0
   -0.9616   -0.8677   -0.0161 H   0  0  0  0  0  0  0  0  0  0  0  0
   -0.9598    0.8823   -0.0254 H   0  0  0  0  0  0  0  0  0  0  0  0
    1.2041    0.8706   -1.2871 H   0  0  0  0  0  0  0  0  0  0  0  0
    1.1968   -0.8783   -1.2816 H   0  0  0  0  0  0  0  0  0  0  0  0
    0.3130   -0.0105   -3.4524 H   0  0  0  0  0  0  0  0  0  0  0  0
   -0.9550   -0.8768   -2.5897 H   0  0  0  0  0  0  0  0  0  0  0  0
   -0.9413    0.8841   -2.5988 H   0  0  0  0  0  0  0  0  0  0  0  0
  1  2  1  0
  1  6  1  0
  1  7  1  0
  1  8  1  0
  2  3  1  0
  2  9  1  0
  2 10  1  0
  3  4  1  0
  3 11  1  0
  3 12  1  0
  4  5  1  0
  4 13  1  0
  4 14  1  0
  5 15  1  0
  5 16  1  0
  5 17  1  0
M  END
