
     RDKit          3D

 44 47  0  0  0  0  0  0  0  0999 V2000
   -4.9269   -0.7751    0.3066 C   0  0  1  0  0  0  0  0  0  0  0  0
   -0.3924    3.7959   -0.0428 N   0  0  0  0  0  0  0  0  0  0  0  0
   -2.7851   -2.0518   -0.0306 C   0  0  0  0  0  0  0  0  0  0  0  0
   -1.4103   -2.0542   -0.2058 C   0  0  0  0  0  0  0  0  0  0  0  0
   -0.6930   -0.8691   -0.2289 C   0  0  0  0  0  0  0  0  0  0  0  0
    0.7980    3.2359   -0.0996 C   0  0  0  0  0  0  0  0  0  0  0  0
    2.1098    3.7724   -0.1121 C   0  0  0  0  0  0  0  0  0  0  0  0
    2.8680    1.4809   -0.1991 C   0  0  0  0  0  0  0  0  0  0  0  0
    3.7797   -0.8099   -0.2903 C   0  0  1  0  0  0  0  0  0  0  0  0
   -3.4425   -0.8373    0.1206 C   0  0  0  0  0  0  0  0  0  0  0  0
   -2.7357    0.3550    0.0963 C   0  0  0  0  0  0  0  0  0  0  0  0
    3.1366    2.9018   -0.1572 C   0  0  0  0  0  0  0  0  0  0  0  0
    4.9681   -2.9444   -0.8909 C   0  0  0  0  0  0  0  0  0  0  0  0
   -1.2890    2.8097   -0.0379 N   0  0  0  0  0  0  0  0  0  0  0  0
   -5.4864   -1.9849    0.3860 F   0  0  0  0  0  0  0  0  0  0  0  0
   -5.2598   -0.1138    1.4243 F   0  0  0  0  0  0  0  0  0  0  0  0
   -5.5253   -0.1326   -0.7072 F   0  0  0  0  0  0  0  0  0  0  0  0
   -1.3512    0.3545   -0.0780 C   0  0  0  0  0  0  0  0  0  0  0  0
   -0.6710    1.6453   -0.0907 C   0  0  0  0  0  0  0  0  0  0  0  0
    5.0611   -1.4223   -0.8470 C   0  0  0  0  0  0  0  0  0  0  0  0
    4.6200   -3.5288    0.4740 C   0  0  0  0  0  0  0  0  0  0  0  0
    3.3454   -2.9044    1.0313 C   0  0  0  0  0  0  0  0  0  0  0  0
    3.4572   -1.3845    1.0902 C   0  0  0  0  0  0  0  0  0  0  0  0
    1.6578    0.9804   -0.1844 N   0  0  0  0  0  0  0  0  0  0  0  0
    0.6653    1.8804   -0.1363 N   0  0  0  0  0  0  0  0  0  0  0  0
   -3.3232   -2.9893   -0.0126 H   0  0  0  0  0  0  0  0  0  0  0  0
   -0.8886   -2.9937   -0.3274 H   0  0  0  0  0  0  0  0  0  0  0  0
    0.3775   -0.8983   -0.3630 H   0  0  0  0  0  0  0  0  0  0  0  0
    2.2554    4.8427   -0.0831 H   0  0  0  0  0  0  0  0  0  0  0  0
    2.9577   -1.0603   -0.9708 H   0  0  0  0  0  0  0  0  0  0  0  0
   -3.2488    1.3005    0.2170 H   0  0  0  0  0  0  0  0  0  0  0  0
    4.1624    3.2447   -0.1696 H   0  0  0  0  0  0  0  0  0  0  0  0
    4.2011   -3.2357   -1.6165 H   0  0  0  0  0  0  0  0  0  0  0  0
    5.9105   -3.3596   -1.2543 H   0  0  0  0  0  0  0  0  0  0  0  0
    4.8297    1.0245   -0.1749 H   0  0  0  0  0  0  0  0  0  0  0  0
    5.2550   -1.0263   -1.8471 H   0  0  0  0  0  0  0  0  0  0  0  0
    5.9074   -1.1228   -0.2169 H   0  0  0  0  0  0  0  0  0  0  0  0
    4.5118   -4.6135    0.4020 H   0  0  0  0  0  0  0  0  0  0  0  0
    5.4451   -3.3436    1.1701 H   0  0  0  0  0  0  0  0  0  0  0  0
    2.4939   -3.1854    0.4008 H   0  0  0  0  0  0  0  0  0  0  0  0
    3.1316   -3.2987    2.0273 H   0  0  0  0  0  0  0  0  0  0  0  0
    4.2558   -1.1020    1.7850 H   0  0  0  0  0  0  0  0  0  0  0  0
    2.5318   -0.9483    1.4711 H   0  0  0  0  0  0  0  0  0  0  0  0
    3.9066    0.6350   -0.2769 N   0  0  0  0  0  0  0  0  0  0  0  0
  1 16  1  1
 17  1  1  0
  1 15  1  0
  1 10  1  0
  6  2  2  0
  2 14  1  0
 10  3  2  0
  3  4  1  0
  3 26  1  0
  5  4  2  0
  4 27  1  0
 18  5  1  0
  5 28  1  0
  7  6  1  0
 25  6  1  0
 12  7  2  0
  7 29  1  0
 44  8  1  0
  8 12  1  0
  8 24  2  0
 23  9  1  0
  9 20  1  0
  9 44  1  0
  9 30  1  6
 11 10  1  0
 11 18  2  0
 11 31  1  0
 12 32  1  0
 21 13  1  0
 13 20  1  0
 13 33  1  0
 13 34  1  0
 19 14  2  0
 19 18  1  0
 25 19  1  0
 44 35  1  0
 20 36  1  0
 20 37  1  0
 22 21  1  0
 21 38  1  0
 21 39  1  0
 22 23  1  0
 22 40  1  0
 22 41  1  0
 23 42  1  0
 23 43  1  0
 24 25  1  0
M  END
