
     RDKit          3D

 53 54  0  0  0  0  0  0  0  0999 V2000
    0.2419   -2.1024    0.5675 C   0  0  1  0  0  0  0  0  0  0  0  0
    1.2985   -3.1997    0.5151 C   0  0  0  0  0  0  0  0  0  0  0  0
    0.7694   -0.8632   -0.1477 C   0  0  0  0  0  0  0  0  0  0  0  0
    2.6274   -2.7009    1.0589 C   0  0  0  0  0  0  0  0  0  0  0  0
    2.1209   -0.4461    0.4087 C   0  0  0  0  0  0  0  0  0  0  0  0
   -1.0799   -2.5941   -0.0068 C   0  0  0  0  0  0  0  0  0  0  0  0
    5.0586   -0.2190   -0.3053 C   0  0  0  0  0  0  0  0  0  0  0  0
    6.7521    1.6211   -0.5392 C   0  0  1  0  0  0  0  0  0  0  0  0
   -3.1614   -1.4429   -0.6507 C   0  0  0  0  0  0  0  0  0  0  0  0
    5.9115    2.5809   -1.3831 C   0  0  0  0  0  0  0  0  0  0  0  0
    7.7399    0.8510   -1.4173 C   0  0  0  0  0  0  0  0  0  0  0  0
    7.5311    2.4222    0.5027 C   0  0  0  0  0  0  0  0  0  0  0  0
   -4.1180   -0.3511   -0.2717 C   0  0  0  0  0  0  0  0  0  0  0  0
   -3.6910    0.8059    0.3718 C   0  0  0  0  0  0  0  0  0  0  0  0
   -5.4549   -0.5098   -0.6190 C   0  0  0  0  0  0  0  0  0  0  0  0
   -4.6190    1.7889    0.6779 C   0  0  0  0  0  0  0  0  0  0  0  0
   -6.3451    0.4874   -0.2807 C   0  0  0  0  0  0  0  0  0  0  0  0
   -5.9607    1.6475    0.3649 C   0  0  0  0  0  0  0  0  0  0  0  0
   -7.6372    0.3327   -0.5898 F   0  0  0  0  0  0  0  0  0  0  0  0
    3.0820   -1.5312    0.3297 N   0  0  0  0  0  0  0  0  0  0  0  0
   -2.1233   -1.6079    0.1796 N   0  0  0  0  0  0  0  0  0  0  0  0
    5.8908    0.6983    0.2097 N   0  0  0  0  0  0  0  0  0  0  0  0
    4.8622   -0.3824   -1.5000 O   0  0  0  0  0  0  0  0  0  0  0  0
   -3.3491   -2.1157   -1.6539 O   0  0  0  0  0  0  0  0  0  0  0  0
   -4.0899    3.2332    1.4643 Cl  0  0  0  0  0  0  0  0  0  0  0  0
    0.0812   -1.8485    1.6247 H   0  0  0  0  0  0  0  0  0  0  0  0
    0.9764   -4.0694    1.0936 H   0  0  0  0  0  0  0  0  0  0  0  0
    1.4334   -3.5339   -0.5189 H   0  0  0  0  0  0  0  0  0  0  0  0
    0.8714   -1.0767   -1.2169 H   0  0  0  0  0  0  0  0  0  0  0  0
    0.0707   -0.0285   -0.0536 H   0  0  0  0  0  0  0  0  0  0  0  0
    2.5193   -2.4944    2.1387 H   0  0  0  0  0  0  0  0  0  0  0  0
    3.3818   -3.4855    0.9640 H   0  0  0  0  0  0  0  0  0  0  0  0
    2.4946    0.4081   -0.1606 H   0  0  0  0  0  0  0  0  0  0  0  0
    1.9960   -0.0995    1.4508 H   0  0  0  0  0  0  0  0  0  0  0  0
   -0.9749   -2.7942   -1.0738 H   0  0  0  0  0  0  0  0  0  0  0  0
   -1.3637   -3.5374    0.4719 H   0  0  0  0  0  0  0  0  0  0  0  0
    5.0364   -1.9957    0.8356 H   0  0  0  0  0  0  0  0  0  0  0  0
    4.3978   -0.6247    1.7285 H   0  0  0  0  0  0  0  0  0  0  0  0
    5.2210    3.1443   -0.7536 H   0  0  0  0  0  0  0  0  0  0  0  0
    6.5617    3.2953   -1.8904 H   0  0  0  0  0  0  0  0  0  0  0  0
    5.3343    2.0543   -2.1407 H   0  0  0  0  0  0  0  0  0  0  0  0
    7.2333    0.2591   -2.1774 H   0  0  0  0  0  0  0  0  0  0  0  0
    8.4064    1.5492   -1.9256 H   0  0  0  0  0  0  0  0  0  0  0  0
    8.3544    0.1823   -0.8125 H   0  0  0  0  0  0  0  0  0  0  0  0
    8.1422    1.7696    1.1294 H   0  0  0  0  0  0  0  0  0  0  0  0
    8.1973    3.1299    0.0091 H   0  0  0  0  0  0  0  0  0  0  0  0
    6.8604    2.9911    1.1496 H   0  0  0  0  0  0  0  0  0  0  0  0
   -2.6481    0.9631    0.6113 H   0  0  0  0  0  0  0  0  0  0  0  0
   -5.7975   -1.3995   -1.1301 H   0  0  0  0  0  0  0  0  0  0  0  0
   -6.6854    2.4122    0.6100 H   0  0  0  0  0  0  0  0  0  0  0  0
   -2.1380   -1.1314    1.0681 H   0  0  0  0  0  0  0  0  0  0  0  0
    5.9400    0.7556    1.2148 H   0  0  0  0  0  0  0  0  0  0  0  0
    4.3954   -1.1131    0.7393 C   0  0  0  0  0  0  0  0  0  0  0  0
 11  8  1  0
 10  8  1  0
 12  8  1  0
  8 22  1  1
 22  7  1  0
  7 23  2  0
  7 53  1  0
 53 20  1  0
 20  4  1  0
 20  5  1  0
  4  2  1  0
  5  3  1  0
  2  1  1  0
  3  1  1  0
 25 16  1  0
  1  6  1  0
  6 21  1  0
 21  9  1  0
 14 16  2  0
 14 13  1  0
 16 18  1  0
  9 13  1  0
  9 24  2  0
 13 15  2  0
 18 17  2  0
 15 17  1  0
 17 19  1  0
  1 26  1  1
  2 27  1  0
  2 28  1  0
  3 29  1  0
  3 30  1  0
  4 31  1  0
  4 32  1  0
  5 33  1  0
  5 34  1  0
  6 35  1  0
  6 36  1  0
 53 37  1  0
 53 38  1  0
 10 39  1  0
 10 40  1  0
 10 41  1  0
 11 42  1  0
 11 43  1  0
 11 44  1  0
 12 45  1  0
 12 46  1  0
 12 47  1  0
 14 48  1  0
 15 49  1  0
 18 50  1  0
 21 51  1  0
 22 52  1  0
M  END
