
     RDKit          3D

 61 66  0  0  0  0  0  0  0  0999 V2000
   -4.0951    0.6537   -0.5009 C   0  0  0  0  0  0  0  0  0  0  0  0
   -5.2299    0.4477   -1.2807 C   0  0  0  0  0  0  0  0  0  0  0  0
   -6.1186    1.3549   -1.7837 N   0  0  0  0  0  0  0  0  0  0  0  0
   -6.0365    2.7842   -1.6120 C   0  0  0  0  0  0  0  0  0  0  0  0
   -7.0753    0.6804   -2.4895 C   0  0  0  0  0  0  0  0  0  0  0  0
   -6.8320   -0.6636   -2.4566 C   0  0  0  0  0  0  0  0  0  0  0  0
   -5.6468   -0.8403   -1.6828 C   0  0  0  0  0  0  0  0  0  0  0  0
   -4.8867   -1.9455   -1.2817 C   0  0  0  0  0  0  0  0  0  0  0  0
   -3.7670   -1.7481   -0.5030 C   0  0  0  0  0  0  0  0  0  0  0  0
   -3.3606   -0.4554   -0.1070 C   0  0  0  0  0  0  0  0  0  0  0  0
   -2.1285   -0.2580    0.6827 C   0  0  0  0  0  0  0  0  0  0  0  0
   -1.1988    0.6627    0.2792 C   0  0  0  0  0  0  0  0  0  0  0  0
   -1.8832   -0.9896    1.8833 C   0  0  0  0  0  0  0  0  0  0  0  0
   -2.7985   -1.8597    2.3473 N   0  0  0  0  0  0  0  0  0  0  0  0
   -2.5174   -2.5077    3.4454 C   0  0  0  0  0  0  0  0  0  0  0  0
   -1.3002   -2.3104    4.1311 C   0  0  0  0  0  0  0  0  0  0  0  0
   -0.4029   -1.4570    3.7217 N   0  0  0  0  0  0  0  0  0  0  0  0
   -0.6745   -0.7636    2.5906 C   0  0  0  0  0  0  0  0  0  0  0  0
    0.2654    0.1781    2.1370 C   0  0  0  0  0  0  0  0  0  0  0  0
    0.0026    0.9046    0.9974 C   0  0  0  0  0  0  0  0  0  0  0  0
    0.8684    1.8262    0.4523 N   0  0  0  0  0  0  0  0  0  0  0  0
    2.0232    2.3260    1.0390 C   0  0  0  0  0  0  0  0  0  0  0  0
    2.0084    2.7572    2.3673 C   0  0  0  0  0  0  0  0  0  0  0  0
    3.1398    3.2872    2.9583 C   0  0  0  0  0  0  0  0  0  0  0  0
    4.3172    3.4261    2.2344 C   0  0  0  0  0  0  0  0  0  0  0  0
    4.3534    3.0164    0.9148 C   0  0  0  0  0  0  0  0  0  0  0  0
    3.2237    2.4586    0.3210 C   0  0  0  0  0  0  0  0  0  0  0  0
    3.4056    1.8506   -1.3406 S   0  0  1  0  0  0  0  0  0  0  0  0
    2.1549    2.0459   -2.0611 O   0  0  0  0  0  0  0  0  0  0  0  0
    4.6299    2.4064   -1.8855 O   0  0  0  0  0  0  0  0  0  0  0  0
    3.6588    0.2272   -1.2394 N   0  0  0  0  0  0  0  0  0  0  0  0
    2.6083   -0.6689   -0.7702 C   0  0  0  0  0  0  0  0  0  0  0  0
    2.9700   -2.0766   -1.1334 C   0  0  0  0  0  0  0  0  0  0  0  0
    3.1557   -3.0608   -0.1774 C   0  0  0  0  0  0  0  0  0  0  0  0
    3.4696   -4.3121   -0.4930 N   0  0  0  0  0  0  0  0  0  0  0  0
    3.6036   -4.5792   -1.7810 C   0  0  0  0  0  0  0  0  0  0  0  0
    3.4565   -3.7206   -2.7815 N   0  0  0  0  0  0  0  0  0  0  0  0
    3.1424   -2.4769   -2.4529 C   0  0  0  0  0  0  0  0  0  0  0  0
   -3.7980    1.6487   -0.1919 H   0  0  0  0  0  0  0  0  0  0  0  0
   -5.1265    3.1812   -2.0621 H   0  0  0  0  0  0  0  0  0  0  0  0
   -6.8915    3.2513   -2.0930 H   0  0  0  0  0  0  0  0  0  0  0  0
   -6.0475    3.0505   -0.5551 H   0  0  0  0  0  0  0  0  0  0  0  0
   -7.8748    1.2222   -2.9706 H   0  0  0  0  0  0  0  0  0  0  0  0
   -7.4298   -1.4290   -2.9251 H   0  0  0  0  0  0  0  0  0  0  0  0
   -5.1713   -2.9471   -1.5792 H   0  0  0  0  0  0  0  0  0  0  0  0
   -3.1760   -2.6020   -0.2020 H   0  0  0  0  0  0  0  0  0  0  0  0
   -1.3701    1.2180   -0.6362 H   0  0  0  0  0  0  0  0  0  0  0  0
   -3.2517   -3.2072    3.8277 H   0  0  0  0  0  0  0  0  0  0  0  0
   -1.0894   -2.8724    5.0341 H   0  0  0  0  0  0  0  0  0  0  0  0
    1.1798    0.2950    2.7026 H   0  0  0  0  0  0  0  0  0  0  0  0
    0.7183    2.0630   -0.5168 H   0  0  0  0  0  0  0  0  0  0  0  0
    1.0889    2.6969    2.9344 H   0  0  0  0  0  0  0  0  0  0  0  0
    3.0925    3.6162    3.9879 H   0  0  0  0  0  0  0  0  0  0  0  0
    5.1986    3.8545    2.6903 H   0  0  0  0  0  0  0  0  0  0  0  0
    5.2672    3.1247    0.3476 H   0  0  0  0  0  0  0  0  0  0  0  0
    4.5753    0.0177   -0.8558 H   0  0  0  0  0  0  0  0  0  0  0  0
    2.4523   -0.5979    0.3110 H   0  0  0  0  0  0  0  0  0  0  0  0
    1.6730   -0.3978   -1.2599 H   0  0  0  0  0  0  0  0  0  0  0  0
    3.0493   -2.8316    0.8785 H   0  0  0  0  0  0  0  0  0  0  0  0
    3.8590   -5.5987   -2.0467 H   0  0  0  0  0  0  0  0  0  0  0  0
    3.0215   -1.7674   -3.2651 H   0  0  0  0  0  0  0  0  0  0  0  0
 24 25  1  0
 24 23  2  0
 25 26  2  0
 23 22  1  0
 26 27  1  0
 22 27  2  0
 22 21  1  0
 27 28  1  0
 21 20  1  0
 29 28  2  0
 19 20  1  0
 19 18  2  0
 20 12  2  0
 17 18  1  0
 17 16  2  0
 28 30  2  0
 28 31  1  1
 18 13  1  0
 16 15  1  0
 12 11  1  0
 13 11  2  0
 13 14  1  0
 11 10  1  0
 15 14  2  0
  9 10  1  0
  9  8  2  0
 31 32  1  0
 32 33  1  0
 10  1  2  0
  8  7  1  0
 33 34  2  0
 33 38  1  0
 34 35  1  0
  1  2  1  0
  7  2  2  0
  7  6  1  0
  2  3  1  0
 38 37  2  0
  6  5  2  0
 35 36  2  0
 37 36  1  0
  3  5  1  0
  3  4  1  0
  1 39  1  0
  4 40  1  0
  4 41  1  0
  4 42  1  0
  5 43  1  0
  6 44  1  0
  8 45  1  0
  9 46  1  0
 12 47  1  0
 15 48  1  0
 16 49  1  0
 19 50  1  0
 21 51  1  0
 23 52  1  0
 24 53  1  0
 25 54  1  0
 26 55  1  0
 31 56  1  0
 32 57  1  0
 32 58  1  0
 34 59  1  0
 36 60  1  0
 38 61  1  0
M  END
