
     RDKit          3D

 28 28  0  0  0  0  0  0  0  0999 V2000
    2.7976   -0.1797    0.0907 B   0  0  0  0  0  0  0  0  0  0  0  0
    1.5303   -0.6400    0.1061 O   0  0  0  0  0  0  0  0  0  0  0  0
    3.8556   -1.0434    0.1415 O   0  0  0  0  0  0  0  0  0  0  0  0
    3.1596    1.1357    0.0218 O   0  0  0  0  0  0  0  0  0  0  0  0
    5.0400   -0.2672   -0.0301 C   0  0  0  0  0  0  0  0  0  0  0  0
    4.5803    1.1899    0.1452 C   0  0  0  0  0  0  0  0  0  0  0  0
    0.4237    0.2480    0.0840 C   0  0  0  0  0  0  0  0  0  0  0  0
   -0.8494   -0.5749    0.0629 C   0  0  0  0  0  0  0  0  0  0  0  0
   -2.0708    0.3288    0.0335 C   0  0  0  0  0  0  0  0  0  0  0  0
   -3.2769   -0.4787    0.0057 N   0  0  0  0  0  0  0  0  0  0  0  0
   -4.5080    0.0108   -0.0538 C   0  0  0  0  0  0  0  0  0  0  0  0
   -5.5433   -0.8184   -0.0966 N   0  0  0  0  0  0  0  0  0  0  0  0
   -4.7117    1.3203   -0.0793 N   0  0  0  0  0  0  0  0  0  0  0  0
    5.7894   -0.5574    0.7067 H   0  0  0  0  0  0  0  0  0  0  0  0
    5.4517   -0.4480   -1.0258 H   0  0  0  0  0  0  0  0  0  0  0  0
    4.8431    1.5869    1.1284 H   0  0  0  0  0  0  0  0  0  0  0  0
    4.9968    1.8528   -0.6134 H   0  0  0  0  0  0  0  0  0  0  0  0
    0.4653    0.8917   -0.8001 H   0  0  0  0  0  0  0  0  0  0  0  0
    0.4359    0.8963    0.9655 H   0  0  0  0  0  0  0  0  0  0  0  0
   -0.8877   -1.2154    0.9480 H   0  0  0  0  0  0  0  0  0  0  0  0
   -0.8516   -1.2223   -0.8181 H   0  0  0  0  0  0  0  0  0  0  0  0
   -2.0321    0.9718   -0.8503 H   0  0  0  0  0  0  0  0  0  0  0  0
   -2.0738    0.9747    0.9163 H   0  0  0  0  0  0  0  0  0  0  0  0
   -3.1749   -1.4816    0.0002 H   0  0  0  0  0  0  0  0  0  0  0  0
   -6.4883   -0.4766   -0.1342 H   0  0  0  0  0  0  0  0  0  0  0  0
   -5.4140   -1.8157   -0.1006 H   0  0  0  0  0  0  0  0  0  0  0  0
   -3.9586    1.9795    0.0149 H   0  0  0  0  0  0  0  0  0  0  0  0
   -5.6441    1.6982   -0.0782 H   0  0  0  0  0  0  0  0  0  0  0  0
  1  2  1  0
  1  3  1  0
  1  4  1  0
  2  7  1  0
  3  5  1  0
  4  6  1  0
  5  6  1  0
  5 14  1  0
  5 15  1  0
  6 16  1  0
  6 17  1  0
  7  8  1  0
  7 18  1  0
  7 19  1  0
  8  9  1  0
  8 20  1  0
  8 21  1  0
  9 10  1  0
  9 22  1  0
  9 23  1  0
 10 11  1  0
 10 24  1  0
 11 12  2  0
 11 13  1  0
 12 25  1  0
 12 26  1  0
 13 27  1  0
 13 28  1  0
M  CHG  1  12   1
M  END
