
     RDKit          3D

 25 24  0  0  0  0  0  0  0  0999 V2000
    2.3113   -0.5261   -0.2781 C   0  0  1  0  0  0  0  0  0  0  0  0
    1.0321    0.1240    0.2784 C   0  0  0  0  0  0  0  0  0  0  0  0
   -0.2117   -0.5513   -0.2535 C   0  0  0  0  0  0  0  0  0  0  0  0
   -1.4534    0.2043    0.1703 C   0  0  0  0  0  0  0  0  0  0  0  0
   -2.6993   -0.4675   -0.3669 C   0  0  0  0  0  0  0  0  0  0  0  0
    3.4390    0.4688   -0.0567 C   0  0  0  0  0  0  0  0  0  0  0  0
    4.1385    0.6396    0.9430 O   0  0  0  0  0  0  0  0  0  0  0  0
    3.6794    1.2630   -1.1341 O   0  0  0  0  0  0  0  0  0  0  0  0
    2.6722   -1.8189    0.2624 N   0  0  0  0  0  0  0  0  0  0  0  0
   -3.9343    0.1938    0.1521 C   0  0  0  0  0  0  0  0  0  0  0  0
   -4.1209    0.7962    1.2128 O   0  0  0  0  0  0  0  0  0  0  0  0
   -5.0004    0.1026   -0.6939 O   0  0  0  0  0  0  0  0  0  0  0  0
    2.1819   -0.6622   -1.3954 H   0  0  0  0  0  0  0  0  0  0  0  0
    1.0400    0.0867    1.3987 H   0  0  0  0  0  0  0  0  0  0  0  0
    1.0294    1.2046   -0.0236 H   0  0  0  0  0  0  0  0  0  0  0  0
   -0.1657   -0.6031   -1.3734 H   0  0  0  0  0  0  0  0  0  0  0  0
   -0.2730   -1.6052    0.1264 H   0  0  0  0  0  0  0  0  0  0  0  0
   -1.5092    0.2568    1.2907 H   0  0  0  0  0  0  0  0  0  0  0  0
   -1.4039    1.2598   -0.2068 H   0  0  0  0  0  0  0  0  0  0  0  0
   -2.7089   -0.4461   -1.4887 H   0  0  0  0  0  0  0  0  0  0  0  0
   -2.7342   -1.5442   -0.0461 H   0  0  0  0  0  0  0  0  0  0  0  0
    4.4073    1.8748   -0.9325 H   0  0  0  0  0  0  0  0  0  0  0  0
    2.4968   -1.8614    1.2480 H   0  0  0  0  0  0  0  0  0  0  0  0
    2.1590   -2.5412   -0.2033 H   0  0  0  0  0  0  0  0  0  0  0  0
   -5.7683    0.5492   -0.3019 H   0  0  0  0  0  0  0  0  0  0  0  0
  1  2  1  0
  1  6  1  0
  1  9  1  0
  1 13  1  6
  2  3  1  0
  2 14  1  0
  2 15  1  0
  3  4  1  0
  3 16  1  0
  3 17  1  0
  4  5  1  0
  4 18  1  0
  4 19  1  0
  5 10  1  0
  5 20  1  0
  5 21  1  0
  6  7  2  0
  6  8  1  0
  8 22  1  0
  9 23  1  0
  9 24  1  0
 10 11  2  0
 10 12  1  0
 12 25  1  0
M  END
