
     RDKit          3D

 27 28  0  0  0  0  0  0  0  0999 V2000
    4.0552    0.2101   -1.9779 C   0  0  0  0  0  0  0  0  0  0  0  0
    4.5571    0.4553   -0.7066 C   0  0  0  0  0  0  0  0  0  0  0  0
    3.7567    0.2112    0.3957 C   0  0  0  0  0  0  0  0  0  0  0  0
    1.9601    0.0694    2.5077 O   0  0  0  0  0  0  0  0  0  0  0  0
    1.0205   -1.6993    1.5280 O   0  0  0  0  0  0  0  0  0  0  0  0
    2.4616   -0.2892    0.2532 C   0  0  0  0  0  0  0  0  0  0  0  0
    2.7563   -0.2378   -2.1396 C   0  0  0  0  0  0  0  0  0  0  0  0
    1.9398   -0.4885   -1.0361 C   0  0  0  0  0  0  0  0  0  0  0  0
   -0.5055   -0.4467   -0.6767 C   0  0  0  0  0  0  0  0  0  0  0  0
   -1.6902   -1.1731   -0.8312 C   0  0  0  0  0  0  0  0  0  0  0  0
   -2.8562   -0.6970   -0.2652 C   0  0  0  0  0  0  0  0  0  0  0  0
   -4.3138   -1.6098   -0.4658 Cl  0  0  0  0  0  0  0  0  0  0  0  0
   -2.9033    0.4756    0.4738 C   0  0  0  0  0  0  0  0  0  0  0  0
   -1.7170    1.1796    0.6016 C   0  0  0  0  0  0  0  0  0  0  0  0
   -1.7258    2.6662    1.4897 Cl  0  0  0  0  0  0  0  0  0  0  0  0
   -0.5296    0.7558    0.0344 C   0  0  0  0  0  0  0  0  0  0  0  0
    4.6683    0.3897   -2.8512 H   0  0  0  0  0  0  0  0  0  0  0  0
    5.5640    0.8262   -0.5730 H   0  0  0  0  0  0  0  0  0  0  0  0
    4.1600    0.3785    1.3851 H   0  0  0  0  0  0  0  0  0  0  0  0
    0.5099   -1.4897   -2.0927 H   0  0  0  0  0  0  0  0  0  0  0  0
    1.5214   -0.2827    3.2971 H   0  0  0  0  0  0  0  0  0  0  0  0
    2.3549   -0.3869   -3.1343 H   0  0  0  0  0  0  0  0  0  0  0  0
   -1.6889   -2.1028   -1.3852 H   0  0  0  0  0  0  0  0  0  0  0  0
   -3.8211    0.8257    0.9230 H   0  0  0  0  0  0  0  0  0  0  0  0
    0.3573    1.3674    0.1250 H   0  0  0  0  0  0  0  0  0  0  0  0
    0.6424   -0.9320   -1.2636 N   0  0  0  0  0  0  0  0  0  0  0  0
    1.7248   -0.7228    1.4693 C   0  0  0  0  0  0  0  0  0  0  0  0
 15 14  1  0
 12 11  1  0
 13 14  2  0
 13 11  1  0
 14 16  1  0
 11 10  2  0
 16  9  2  0
 10  9  1  0
  9 26  1  0
  7  8  1  0
  7  1  2  0
 26  8  1  0
  8  6  2  0
  1  2  1  0
  6 27  1  0
  6  3  1  0
  2  3  2  0
  5 27  2  0
 27  4  1  0
  1 17  1  0
  2 18  1  0
  3 19  1  0
 26 20  1  0
  4 21  1  0
  7 22  1  0
 10 23  1  0
 13 24  1  0
 16 25  1  0
M  END
