
     RDKit          3D

 64 68  0  0  0  0  0  0  0  0999 V2000
    5.2672    0.0300   -1.9691 O   0  0  0  0  0  0  0  0  0  0  0  0
    5.8993    1.1400   -1.2778 S   0  0  1  0  0  0  0  0  0  0  0  0
    7.3461    1.1928   -1.1629 O   0  0  0  0  0  0  0  0  0  0  0  0
    5.3243    2.6530   -2.0121 C   0  0  0  0  0  0  0  0  0  0  0  0
    5.3264    1.1284    0.2870 N   0  0  0  0  0  0  0  0  0  0  0  0
    3.9346    1.0553    0.5095 C   0  0  0  0  0  0  0  0  0  0  0  0
    3.1959    2.1954    0.8800 C   0  0  0  0  0  0  0  0  0  0  0  0
    3.8698    3.3344    0.9993 O   0  0  0  0  0  0  0  0  0  0  0  0
    3.1535    4.5077    1.3676 C   0  0  0  0  0  0  0  0  0  0  0  0
    3.2531   -0.1340    0.3759 C   0  0  0  0  0  0  0  0  0  0  0  0
    1.8728   -0.1832    0.5930 C   0  0  0  0  0  0  0  0  0  0  0  0
    1.2603    1.0030    0.9696 C   0  0  0  0  0  0  0  0  0  0  0  0
    1.9056    2.1561    1.1141 N   0  0  0  0  0  0  0  0  0  0  0  0
    1.1113   -1.4375    0.4517 C   0  0  0  0  0  0  0  0  0  0  0  0
    1.6808   -2.6432    0.8148 C   0  0  0  0  0  0  0  0  0  0  0  0
    0.9079   -3.7939    0.6512 C   0  0  0  0  0  0  0  0  0  0  0  0
    1.1815   -5.0915    0.9122 N   0  0  0  0  0  0  0  0  0  0  0  0
    0.1593   -5.8932    0.6189 N   0  0  0  0  0  0  0  0  0  0  0  0
   -0.8053   -5.1326    0.1621 C   0  0  0  0  0  0  0  0  0  0  0  0
   -0.4045   -3.7704    0.1513 C   0  0  0  0  0  0  0  0  0  0  0  0
   -0.9737   -2.5343   -0.2135 C   0  0  0  0  0  0  0  0  0  0  0  0
   -0.2057   -1.3964   -0.0615 C   0  0  0  0  0  0  0  0  0  0  0  0
   -2.3262   -2.4760   -0.7356 C   0  0  0  0  0  0  0  0  0  0  0  0
   -2.8407   -1.2853   -1.0724 O   0  0  0  0  0  0  0  0  0  0  0  0
   -4.1042   -1.5338   -1.4992 C   0  0  0  0  0  0  0  0  0  0  0  0
   -4.2936   -2.8681   -1.4026 C   0  0  0  0  0  0  0  0  0  0  0  0
   -3.1494   -3.4554   -0.9175 N   0  0  0  0  0  0  0  0  0  0  0  0
   -4.9399   -0.3959   -1.9505 C   0  0  0  0  0  0  0  0  0  0  0  0
   -5.0477    0.6322   -0.9364 N   0  0  0  0  0  0  0  0  0  0  0  0
   -5.6161    1.8550   -1.4684 C   0  0  0  0  0  0  0  0  0  0  0  0
   -5.6306    2.9328   -0.3959 C   0  0  1  0  0  0  0  0  0  0  0  0
   -6.2675    4.2150   -0.8882 C   0  0  0  0  0  0  0  0  0  0  0  0
   -6.3485    2.4864    0.7390 O   0  0  0  0  0  0  0  0  0  0  0  0
   -5.8207    1.2905    1.2802 C   0  0  1  0  0  0  0  0  0  0  0  0
   -6.6654    0.9034    2.4758 C   0  0  0  0  0  0  0  0  0  0  0  0
   -5.7951    0.1939    0.2269 C   0  0  0  0  0  0  0  0  0  0  0  0
    4.2373    2.6803   -1.9867 H   0  0  0  0  0  0  0  0  0  0  0  0
    5.7396    3.4969   -1.4677 H   0  0  0  0  0  0  0  0  0  0  0  0
    5.6647    2.6692   -3.0460 H   0  0  0  0  0  0  0  0  0  0  0  0
    5.8233    1.7898    0.8756 H   0  0  0  0  0  0  0  0  0  0  0  0
    3.7982   -1.0251    0.0949 H   0  0  0  0  0  0  0  0  0  0  0  0
    2.3692    4.7413    0.6476 H   0  0  0  0  0  0  0  0  0  0  0  0
    2.7072    4.4103    2.3574 H   0  0  0  0  0  0  0  0  0  0  0  0
    3.8862    5.3095    1.3779 H   0  0  0  0  0  0  0  0  0  0  0  0
    0.1980    1.0301    1.1846 H   0  0  0  0  0  0  0  0  0  0  0  0
    2.6788   -2.6972    1.2304 H   0  0  0  0  0  0  0  0  0  0  0  0
   -0.6079   -0.4382   -0.3613 H   0  0  0  0  0  0  0  0  0  0  0  0
    2.0338   -5.4808    1.2811 H   0  0  0  0  0  0  0  0  0  0  0  0
   -1.7463   -5.5570   -0.1463 H   0  0  0  0  0  0  0  0  0  0  0  0
   -5.1760   -3.4371   -1.6484 H   0  0  0  0  0  0  0  0  0  0  0  0
   -4.4925    0.0507   -2.8445 H   0  0  0  0  0  0  0  0  0  0  0  0
   -5.9160   -0.8015   -2.2609 H   0  0  0  0  0  0  0  0  0  0  0  0
   -5.0066    2.1954   -2.3097 H   0  0  0  0  0  0  0  0  0  0  0  0
   -6.6426    1.7040   -1.8484 H   0  0  0  0  0  0  0  0  0  0  0  0
   -6.8305   -0.0873   -0.0373 H   0  0  0  0  0  0  0  0  0  0  0  0
   -5.3217   -0.6924    0.6566 H   0  0  0  0  0  0  0  0  0  0  0  0
   -4.5866    3.1341   -0.1090 H   0  0  0  0  0  0  0  0  0  0  0  0
   -7.3028    4.0552   -1.1938 H   0  0  0  0  0  0  0  0  0  0  0  0
   -6.2524    4.9829   -0.1147 H   0  0  0  0  0  0  0  0  0  0  0  0
   -5.7173    4.5982   -1.7476 H   0  0  0  0  0  0  0  0  0  0  0  0
   -4.7840    1.4654    1.6084 H   0  0  0  0  0  0  0  0  0  0  0  0
   -7.6979    0.7059    2.1830 H   0  0  0  0  0  0  0  0  0  0  0  0
   -6.2689    0.0013    2.9421 H   0  0  0  0  0  0  0  0  0  0  0  0
   -6.6668    1.6926    3.2278 H   0  0  0  0  0  0  0  0  0  0  0  0
  1  2  2  0
  2  3  2  0
  2  4  1  0
  2  5  1  1
  5  6  1  0
  6  7  2  0
  6 10  1  0
  7  8  1  0
  7 13  1  0
  8  9  1  0
 10 11  2  0
 11 12  1  0
 11 14  1  0
 12 13  2  0
 14 15  2  0
 14 22  1  0
 15 16  1  0
 16 17  1  0
 16 20  2  0
 17 18  1  0
 18 19  2  0
 19 20  1  0
 20 21  1  0
 21 22  2  0
 21 23  1  0
 23 24  1  0
 23 27  2  0
 24 25  1  0
 25 26  2  0
 25 28  1  0
 26 27  1  0
 28 29  1  0
 29 30  1  0
 29 36  1  0
 30 31  1  0
 31 32  1  0
 31 33  1  0
 33 34  1  0
 34 35  1  0
 34 36  1  0
  4 37  1  0
  4 38  1  0
  4 39  1  0
  5 40  1  0
 10 41  1  0
  9 42  1  0
  9 43  1  0
  9 44  1  0
 12 45  1  0
 15 46  1  0
 22 47  1  0
 17 48  1  0
 19 49  1  0
 26 50  1  0
 28 51  1  0
 28 52  1  0
 30 53  1  0
 30 54  1  0
 36 55  1  0
 36 56  1  0
 31 57  1  1
 32 58  1  0
 32 59  1  0
 32 60  1  0
 34 61  1  1
 35 62  1  0
 35 63  1  0
 35 64  1  0
M  END
