
     RDKit          3D

 62 65  0  0  0  0  0  0  0  0999 V2000
    5.3877    2.5733   -0.1431 O   0  0  0  0  0  0  0  0  0  0  0  0
    6.4274    1.9413   -0.2818 C   0  0  0  0  0  0  0  0  0  0  0  0
    7.4378    2.3491   -1.0518 N   0  0  0  0  0  0  0  0  0  0  0  0
    7.4090    3.5974   -1.7785 C   0  0  0  0  0  0  0  0  0  0  0  0
    6.6366    0.6159    0.4455 C   0  0  1  0  0  0  0  0  0  0  0  0
    6.7810    0.8449    1.9595 C   0  0  1  0  0  0  0  0  0  0  0  0
    6.9941   -0.4771    2.6870 C   0  0  0  0  0  0  0  0  0  0  0  0
    7.9254    1.8105    2.2548 C   0  0  0  0  0  0  0  0  0  0  0  0
    5.5116   -0.2332    0.1261 N   0  0  0  0  0  0  0  0  0  0  0  0
    5.6284   -1.4755   -0.3731 C   0  0  0  0  0  0  0  0  0  0  0  0
    6.6925   -2.0470   -0.5709 O   0  0  0  0  0  0  0  0  0  0  0  0
    4.3679   -2.1613   -0.6903 C   0  0  0  0  0  0  0  0  0  0  0  0
    3.1931   -1.5037   -0.5783 O   0  0  0  0  0  0  0  0  0  0  0  0
    2.2066   -2.3443   -0.9408 C   0  0  0  0  0  0  0  0  0  0  0  0
    2.7433   -3.5535   -1.2818 C   0  0  0  0  0  0  0  0  0  0  0  0
    4.1450   -3.4309   -1.1214 C   0  0  0  0  0  0  0  0  0  0  0  0
    0.8457   -1.8377   -0.9303 C   0  0  0  0  0  0  0  0  0  0  0  0
   -0.2202   -2.7096   -1.1650 C   0  0  0  0  0  0  0  0  0  0  0  0
   -1.5212   -2.2418   -1.1852 C   0  0  0  0  0  0  0  0  0  0  0  0
   -1.7958   -0.8926   -0.9765 C   0  0  0  0  0  0  0  0  0  0  0  0
   -0.7359   -0.0260   -0.7293 C   0  0  0  0  0  0  0  0  0  0  0  0
    0.5696   -0.4865   -0.7078 C   0  0  0  0  0  0  0  0  0  0  0  0
   -3.2063   -0.3886   -0.9928 C   0  0  0  0  0  0  0  0  0  0  0  0
   -3.8236   -0.4911    0.7202 S   0  0  0  0  0  0  0  0  0  0  0  0
   -5.4424    0.1471    0.5381 C   0  0  0  0  0  0  0  0  0  0  0  0
   -6.1577    0.2380    1.6826 N   0  0  0  0  0  0  0  0  0  0  0  0
   -7.4659    0.7279    1.7559 C   0  0  0  0  0  0  0  0  0  0  0  0
   -8.0407    0.7994    2.8307 O   0  0  0  0  0  0  0  0  0  0  0  0
   -7.9662    1.0956    0.4702 C   0  0  0  0  0  0  0  0  0  0  0  0
   -9.3012    1.6776    0.1327 C   0  0  0  0  0  0  0  0  0  0  0  0
   -9.3325    1.5688   -1.4074 C   0  0  0  0  0  0  0  0  0  0  0  0
   -7.8651    1.4581   -1.8581 C   0  0  0  0  0  0  0  0  0  0  0  0
   -7.1708    0.9697   -0.6249 C   0  0  0  0  0  0  0  0  0  0  0  0
   -5.8991    0.4987   -0.6208 N   0  0  0  0  0  0  0  0  0  0  0  0
    8.2570    1.7703   -1.1304 H   0  0  0  0  0  0  0  0  0  0  0  0
    7.3133    4.4504   -1.1062 H   0  0  0  0  0  0  0  0  0  0  0  0
    8.3411    3.6953   -2.3268 H   0  0  0  0  0  0  0  0  0  0  0  0
    6.5841    3.6265   -2.4902 H   0  0  0  0  0  0  0  0  0  0  0  0
    7.5381    0.1188    0.0824 H   0  0  0  0  0  0  0  0  0  0  0  0
    5.8486    1.2940    2.3183 H   0  0  0  0  0  0  0  0  0  0  0  0
    7.9108   -0.9676    2.3524 H   0  0  0  0  0  0  0  0  0  0  0  0
    7.0838   -0.3055    3.7604 H   0  0  0  0  0  0  0  0  0  0  0  0
    6.1649   -1.1682    2.5373 H   0  0  0  0  0  0  0  0  0  0  0  0
    7.7426    2.8108    1.8605 H   0  0  0  0  0  0  0  0  0  0  0  0
    8.0648    1.9107    3.3316 H   0  0  0  0  0  0  0  0  0  0  0  0
    8.8670    1.4504    1.8338 H   0  0  0  0  0  0  0  0  0  0  0  0
    4.5940    0.1566    0.2819 H   0  0  0  0  0  0  0  0  0  0  0  0
    2.2079   -4.4246   -1.6223 H   0  0  0  0  0  0  0  0  0  0  0  0
    4.8915   -4.1860   -1.3039 H   0  0  0  0  0  0  0  0  0  0  0  0
   -0.0378   -3.7634   -1.3305 H   0  0  0  0  0  0  0  0  0  0  0  0
   -2.3328   -2.9353   -1.3688 H   0  0  0  0  0  0  0  0  0  0  0  0
   -0.9281    1.0267   -0.5613 H   0  0  0  0  0  0  0  0  0  0  0  0
    1.3697    0.2189   -0.5278 H   0  0  0  0  0  0  0  0  0  0  0  0
   -3.2622    0.6487   -1.3180 H   0  0  0  0  0  0  0  0  0  0  0  0
   -3.8458   -0.9932   -1.6328 H   0  0  0  0  0  0  0  0  0  0  0  0
  -10.1304    1.1451    0.6010 H   0  0  0  0  0  0  0  0  0  0  0  0
   -9.8668    0.6624   -1.6954 H   0  0  0  0  0  0  0  0  0  0  0  0
   -7.7237    0.7881   -2.7073 H   0  0  0  0  0  0  0  0  0  0  0  0
   -5.7350   -0.0435    2.5596 H   0  0  0  0  0  0  0  0  0  0  0  0
   -9.3686    2.7177    0.4664 H   0  0  0  0  0  0  0  0  0  0  0  0
   -9.8459    2.4094   -1.8716 H   0  0  0  0  0  0  0  0  0  0  0  0
   -7.4479    2.4287   -2.1448 H   0  0  0  0  0  0  0  0  0  0  0  0
  8  6  1  0
  1  2  2  0
  6  5  1  0
  6  7  1  0
  5  2  1  0
  5  9  1  0
  2  3  1  0
  9 10  1  0
  3  4  1  0
 11 10  2  0
 10 12  1  0
 12 13  1  0
 12 16  2  0
 13 14  1  0
 16 15  1  0
 14 15  2  0
 14 17  1  0
 28 27  2  0
 26 27  1  0
 26 25  1  0
 18 17  2  0
 18 19  1  0
 24 25  1  0
 24 23  1  0
 17 22  1  0
 27 29  1  0
 19 20  2  0
 22 21  2  0
 25 34  2  0
 20 21  1  0
 20 23  1  0
 29 30  1  0
 29 33  2  0
 34 33  1  0
 30 31  1  0
 33 32  1  0
 31 32  1  0
  3 35  1  0
  4 36  1  0
  4 37  1  0
  4 38  1  0
  5 39  1  6
  6 40  1  1
  7 41  1  0
  7 42  1  0
  7 43  1  0
  8 44  1  0
  8 45  1  0
  8 46  1  0
  9 47  1  0
 15 48  1  0
 16 49  1  0
 18 50  1  0
 19 51  1  0
 21 52  1  0
 22 53  1  0
 23 54  1  0
 23 55  1  0
 30 56  1  0
 31 57  1  0
 32 58  1  0
 26 59  1  0
 30 60  1  0
 31 61  1  0
 32 62  1  0
M  END
