
     RDKit          3D

 21 22  0  0  0  0  0  0  0  0999 V2000
   -2.3124   -0.1102   -0.0131 C   0  0  0  0  0  0  0  0  0  0  0  0
    1.3951    0.2672    0.0622 C   0  0  0  0  0  0  0  0  0  0  0  0
    0.1494   -0.3369    0.0402 C   0  0  0  0  0  0  0  0  0  0  0  0
    0.4948    2.3559    0.0279 C   0  0  0  0  0  0  0  0  0  0  0  0
   -0.9779    0.4771    0.0099 C   0  0  0  0  0  0  0  0  0  0  0  0
   -0.7979    1.8549    0.0041 C   0  0  0  0  0  0  0  0  0  0  0  0
   -4.3279   -0.3580   -0.0413 N   0  0  0  0  0  0  0  0  0  0  0  0
   -3.8425   -1.5627   -0.0406 N   0  0  0  0  0  0  0  0  0  0  0  0
   -3.4328    0.5865   -0.0248 N   0  0  0  0  0  0  0  0  0  0  0  0
   -2.5592   -1.4319   -0.0226 N   0  0  0  0  0  0  0  0  0  0  0  0
    1.5696    1.5841    0.0562 N   0  0  0  0  0  0  0  0  0  0  0  0
    3.7652    0.0964    0.0419 N   0  0  0  0  0  0  0  0  0  0  0  0
    4.9510   -0.5366    0.2422 O   0  0  0  0  0  0  0  0  0  0  0  0
    2.5520   -1.8130    0.1726 O   0  0  0  0  0  0  0  0  0  0  0  0
    0.0630   -1.4140    0.0471 H   0  0  0  0  0  0  0  0  0  0  0  0
    0.6621    3.4259    0.0239 H   0  0  0  0  0  0  0  0  0  0  0  0
   -1.6375    2.5352   -0.0181 H   0  0  0  0  0  0  0  0  0  0  0  0
   -5.3237   -0.1752   -0.0525 H   0  0  0  0  0  0  0  0  0  0  0  0
    3.7791    1.1057    0.1013 H   0  0  0  0  0  0  0  0  0  0  0  0
    5.3072   -0.7298   -0.6350 H   0  0  0  0  0  0  0  0  0  0  0  0
    2.6221   -0.5985    0.1061 C   0  0  0  0  0  0  0  0  0  0  0  0
  4  6  2  0
  4 11  1  0
  6  5  1  0
 11  2  2  0
  5  1  1  0
  5  3  2  0
 10  1  1  0
 10  8  2  0
  1  9  2  0
  8  7  1  0
  2  3  1  0
  2 21  1  0
  9  7  1  0
 21 12  1  0
 21 14  2  0
 12 13  1  0
  3 15  1  0
  4 16  1  0
  6 17  1  0
  7 18  1  0
 12 19  1  0
 13 20  1  0
M  END
