
     RDKit          3D

 64 68  0  0  0  0  0  0  0  0999 V2000
    0.5786    3.9399    0.4468 C   0  0  0  0  0  0  0  0  0  0  0  0
   -0.7452    3.5497    0.2864 C   0  0  0  0  0  0  0  0  0  0  0  0
   -1.0015    2.2968   -0.2932 C   0  0  0  0  0  0  0  0  0  0  0  0
    0.0514    1.4877   -0.7019 C   0  0  0  0  0  0  0  0  0  0  0  0
    1.3695    1.8789   -0.4930 C   0  0  0  0  0  0  0  0  0  0  0  0
    1.6322    3.1198    0.0782 C   0  0  0  0  0  0  0  0  0  0  0  0
    2.4376    0.9426   -0.9547 C   0  0  0  0  0  0  0  0  0  0  0  0
    4.8261    0.3872   -0.5426 C   0  0  0  0  0  0  0  0  0  0  0  0
    5.9102    0.7618    0.2564 C   0  0  0  0  0  0  0  0  0  0  0  0
    7.1385    0.1441    0.1076 C   0  0  0  0  0  0  0  0  0  0  0  0
    7.3153   -0.8636   -0.8355 C   0  0  0  0  0  0  0  0  0  0  0  0
    6.2400   -1.2291   -1.6246 C   0  0  0  0  0  0  0  0  0  0  0  0
    5.0001   -0.6183   -1.4930 C   0  0  0  0  0  0  0  0  0  0  0  0
   -1.8639    4.4500    0.7150 C   0  0  0  0  0  0  0  0  0  0  0  0
   -2.8980    0.6992   -0.4200 C   0  0  0  0  0  0  0  0  0  0  0  0
   -2.7856   -1.4897   -0.1074 C   0  0  0  0  0  0  0  0  0  0  0  0
   -4.7543   -0.5641   -0.6043 C   0  0  0  0  0  0  0  0  0  0  0  0
   -2.4881   -3.9046    0.2778 C   0  0  0  0  0  0  0  0  0  0  0  0
   -0.3942   -3.9688    0.6773 C   0  0  0  0  0  0  0  0  0  0  0  0
   -0.6750   -2.6611    0.4485 C   0  0  0  0  0  0  0  0  0  0  0  0
   -6.7738   -1.9503   -0.7505 C   0  0  0  0  0  0  0  0  0  0  0  0
   -7.7236   -1.9318    0.4393 C   0  0  0  0  0  0  0  0  0  0  0  0
   -8.6643   -0.7329    0.3734 C   0  0  0  0  0  0  0  0  0  0  0  0
   -7.8789    0.5591    0.2180 C   0  0  1  0  0  0  0  0  0  0  0  0
   -6.9392    0.4649   -0.9891 C   0  0  0  0  0  0  0  0  0  0  0  0
    8.2950    0.5277    0.9774 C   0  0  1  0  0  0  0  0  0  0  0  0
    9.4089    0.7264    0.2601 F   0  0  0  0  0  0  0  0  0  0  0  0
    8.0731    1.6458    1.6739 F   0  0  0  0  0  0  0  0  0  0  0  0
    8.5818   -0.4351    1.8666 F   0  0  0  0  0  0  0  0  0  0  0  0
    3.6305    1.0710   -0.3168 N   0  0  0  0  0  0  0  0  0  0  0  0
   -2.3384    1.9277   -0.4852 N   0  0  0  0  0  0  0  0  0  0  0  0
   -2.1283   -0.3488   -0.1202 N   0  0  0  0  0  0  0  0  0  0  0  0
   -4.0589   -1.6864   -0.3387 N   0  0  0  0  0  0  0  0  0  0  0  0
   -4.2019    0.6500   -0.6556 N   0  0  0  0  0  0  0  0  0  0  0  0
   -2.0278   -2.6218    0.1904 N   0  0  0  0  0  0  0  0  0  0  0  0
   -1.5322   -4.7334    0.5680 N   0  0  0  0  0  0  0  0  0  0  0  0
   -6.0652   -0.6835   -0.8464 N   0  0  0  0  0  0  0  0  0  0  0  0
    2.2238    0.1222   -1.8295 O   0  0  0  0  0  0  0  0  0  0  0  0
    0.7918    4.9092    0.8790 H   0  0  0  0  0  0  0  0  0  0  0  0
   -0.1509    0.5431   -1.1817 H   0  0  0  0  0  0  0  0  0  0  0  0
    2.6426    3.4825    0.2171 H   0  0  0  0  0  0  0  0  0  0  0  0
    5.7749    1.5465    0.9903 H   0  0  0  0  0  0  0  0  0  0  0  0
    8.2695   -1.3582   -0.9594 H   0  0  0  0  0  0  0  0  0  0  0  0
    6.3600   -2.0093   -2.3640 H   0  0  0  0  0  0  0  0  0  0  0  0
    4.1878   -0.9315   -2.1266 H   0  0  0  0  0  0  0  0  0  0  0  0
   -2.4565    4.7947   -0.1367 H   0  0  0  0  0  0  0  0  0  0  0  0
   -2.5476    3.9468    1.4012 H   0  0  0  0  0  0  0  0  0  0  0  0
   -1.4793    5.3353    1.2174 H   0  0  0  0  0  0  0  0  0  0  0  0
   -3.5248   -4.1520    0.1174 H   0  0  0  0  0  0  0  0  0  0  0  0
    0.5630   -4.4051    0.9154 H   0  0  0  0  0  0  0  0  0  0  0  0
   -0.0625   -1.7772    0.4465 H   0  0  0  0  0  0  0  0  0  0  0  0
   -6.0601   -2.7639   -0.6732 H   0  0  0  0  0  0  0  0  0  0  0  0
   -7.3385   -2.0886   -1.6779 H   0  0  0  0  0  0  0  0  0  0  0  0
   -8.2959   -2.8610    0.4552 H   0  0  0  0  0  0  0  0  0  0  0  0
   -7.1391   -1.9019    1.3634 H   0  0  0  0  0  0  0  0  0  0  0  0
   -9.3387   -0.8447   -0.4829 H   0  0  0  0  0  0  0  0  0  0  0  0
   -9.2872   -0.6884    1.2698 H   0  0  0  0  0  0  0  0  0  0  0  0
   -7.2570    0.7008    1.1150 H   0  0  0  0  0  0  0  0  0  0  0  0
   -7.5323    0.3458   -1.9021 H   0  0  0  0  0  0  0  0  0  0  0  0
   -6.3442    1.3698   -1.0891 H   0  0  0  0  0  0  0  0  0  0  0  0
    3.6625    1.7180    0.4557 H   0  0  0  0  0  0  0  0  0  0  0  0
   -3.0034    2.6699   -0.6446 H   0  0  0  0  0  0  0  0  0  0  0  0
   -8.7910    1.6207    0.0610 O   0  0  0  0  0  0  0  0  0  0  0  0
   -8.3016    2.4493    0.0759 H   0  0  0  0  0  0  0  0  0  0  0  0
 36 19  1  0
 36 18  2  0
 19 20  2  0
 18 35  1  0
 20 35  1  0
 35 16  1  0
 16 32  2  0
 16 33  1  0
 32 15  1  0
 31 15  1  0
 31  3  1  0
 33 17  2  0
 15 34  2  0
 14  2  1  0
  3  2  1  0
  3  4  2  0
 17 34  1  0
 17 37  1  0
  2  1  2  0
  4  5  1  0
 37 25  1  0
 37 21  1  0
 25 24  1  0
  1  6  1  0
  5  6  2  0
  5  7  1  0
 38  7  2  0
 26 27  1  6
 24 63  1  0
 24 23  1  0
 21 22  1  0
  7 30  1  0
 22 23  1  0
 26 29  1  0
 26 28  1  0
 26 10  1  0
  9 10  2  0
  9  8  1  0
 30  8  1  0
 10 11  1  0
  8 13  2  0
 13 12  1  0
 11 12  2  0
  1 39  1  0
  4 40  1  0
  6 41  1  0
  9 42  1  0
 11 43  1  0
 12 44  1  0
 13 45  1  0
 14 46  1  0
 14 47  1  0
 14 48  1  0
 18 49  1  0
 19 50  1  0
 20 51  1  0
 21 52  1  0
 21 53  1  0
 22 54  1  0
 22 55  1  0
 23 56  1  0
 23 57  1  0
 24 58  1  1
 25 59  1  0
 25 60  1  0
 30 61  1  0
 31 62  1  0
 63 64  1  0
M  END
