
     RDKit          3D

 41 42  0  0  0  0  0  0  0  0999 V2000
    6.0454    1.7904   -1.2710 C   0  0  0  0  0  0  0  0  0  0  0  0
    6.8285    2.0968   -2.4600 N   0  0  0  0  0  0  0  0  0  0  0  0
   -6.2399    0.7458    0.7010 O   0  0  0  0  0  0  0  0  0  0  0  0
   -4.8661   -0.1086   -1.9947 Br  0  0  0  0  0  0  0  0  0  0  0  0
   -2.1136    1.1668    0.8274 C   0  0  0  0  0  0  0  0  0  0  0  0
    0.1028    1.0407   -0.0310 N   0  0  0  0  0  0  0  0  0  0  0  0
   -0.6693    1.3374    0.9342 C   0  0  0  0  0  0  0  0  0  0  0  0
    1.4220    1.2269    0.1417 N   0  0  0  0  0  0  0  0  0  0  0  0
    2.2985    0.9086   -0.8473 C   0  0  0  0  0  0  0  0  0  0  0  0
    3.7540    1.0947   -0.4466 C   0  0  1  0  0  0  0  0  0  0  0  0
    4.2047   -0.1500    0.2920 C   0  0  0  0  0  0  0  0  0  0  0  0
   -2.9266    1.4909    1.9130 C   0  0  0  0  0  0  0  0  0  0  0  0
   -4.2974    1.3425    1.8461 C   0  0  0  0  0  0  0  0  0  0  0  0
   -4.9090    0.8636    0.6880 C   0  0  0  0  0  0  0  0  0  0  0  0
   -4.0873    0.5412   -0.4003 C   0  0  0  0  0  0  0  0  0  0  0  0
   -2.7151    0.6881   -0.3353 C   0  0  0  0  0  0  0  0  0  0  0  0
    4.2219   -1.3910   -0.3431 C   0  0  0  0  0  0  0  0  0  0  0  0
    4.6341   -2.5268    0.3388 C   0  0  0  0  0  0  0  0  0  0  0  0
    5.0358   -2.4405    1.6663 C   0  0  0  0  0  0  0  0  0  0  0  0
    5.0213   -1.2094    2.3062 C   0  0  0  0  0  0  0  0  0  0  0  0
    4.6064   -0.0737    1.6218 C   0  0  0  0  0  0  0  0  0  0  0  0
    4.6234    1.4182   -1.6619 C   0  0  0  0  0  0  0  0  0  0  0  0
    6.4808    0.9908   -0.6564 H   0  0  0  0  0  0  0  0  0  0  0  0
    6.0193    2.6830   -0.6397 H   0  0  0  0  0  0  0  0  0  0  0  0
    7.7403    2.4383   -2.1840 H   0  0  0  0  0  0  0  0  0  0  0  0
    7.0034    1.2404   -2.9717 H   0  0  0  0  0  0  0  0  0  0  0  0
   -6.5914    0.4128   -0.1342 H   0  0  0  0  0  0  0  0  0  0  0  0
   -0.2943    1.7310    1.8821 H   0  0  0  0  0  0  0  0  0  0  0  0
    1.7675    1.5882    1.0246 H   0  0  0  0  0  0  0  0  0  0  0  0
    3.8176    1.9364    0.2518 H   0  0  0  0  0  0  0  0  0  0  0  0
   -2.4820    1.8659    2.8264 H   0  0  0  0  0  0  0  0  0  0  0  0
   -4.9176    1.5986    2.6956 H   0  0  0  0  0  0  0  0  0  0  0  0
   -2.1002    0.4323   -1.1883 H   0  0  0  0  0  0  0  0  0  0  0  0
    3.9118   -1.4785   -1.3776 H   0  0  0  0  0  0  0  0  0  0  0  0
    4.6389   -3.4833   -0.1682 H   0  0  0  0  0  0  0  0  0  0  0  0
    5.3567   -3.3279    2.1962 H   0  0  0  0  0  0  0  0  0  0  0  0
    5.3329   -1.1289    3.3397 H   0  0  0  0  0  0  0  0  0  0  0  0
    4.6049    0.8848    2.1277 H   0  0  0  0  0  0  0  0  0  0  0  0
    4.1822    2.2535   -2.2113 H   0  0  0  0  0  0  0  0  0  0  0  0
    4.6391    0.5654   -2.3457 H   0  0  0  0  0  0  0  0  0  0  0  0
    1.9492    0.4846   -1.9298 O   0  0  0  0  0  0  0  0  0  0  0  0
 22  1  1  0
  1  2  1  0
  1 23  1  0
  1 24  1  0
  2 25  1  0
  2 26  1  0
  3 14  1  0
  3 27  1  0
  4 15  1  0
 16  5  1  0
  5  7  1  0
  5 12  2  0
  7  6  2  0
  8  6  1  0
  9 41  2  0
  7 28  1  0
  8  9  1  0
  8 29  1  0
 10  9  1  0
 22 10  1  0
 10 11  1  0
 10 30  1  1
 17 11  2  0
 11 21  1  0
 13 12  1  0
 12 31  1  0
 14 13  2  0
 13 32  1  0
 15 14  1  0
 15 16  2  0
 16 33  1  0
 17 18  1  0
 17 34  1  0
 18 19  2  0
 18 35  1  0
 19 20  1  0
 19 36  1  0
 21 20  2  0
 20 37  1  0
 21 38  1  0
 22 39  1  0
 22 40  1  0
M  END
