
     RDKit          3D

 60 62  0  0  0  0  0  0  0  0999 V2000
    2.3038    0.4501    0.1118 C   0  0  0  0  0  0  0  0  0  0  0  0
    1.1728   -0.3799    0.0635 C   0  0  0  0  0  0  0  0  0  0  0  0
   -0.0891    0.3070    0.0637 C   0  0  0  0  0  0  0  0  0  0  0  0
   -0.1528    1.6209    0.0957 N   0  0  0  0  0  0  0  0  0  0  0  0
    7.3893   -3.1295   -1.0003 N   0  0  0  0  0  0  0  0  0  0  0  0
    2.2245    1.7999    0.1438 N   0  0  0  0  0  0  0  0  0  0  0  0
    7.2603   -2.3806    0.2375 C   0  0  0  0  0  0  0  0  0  0  0  0
    1.0065    2.3105    0.1301 C   0  0  0  0  0  0  0  0  0  0  0  0
   -9.5583   -1.9019    0.3417 C   0  0  0  0  0  0  0  0  0  0  0  0
   -8.2557   -2.0020    0.1067 C   0  0  0  0  0  0  0  0  0  0  0  0
   -7.3423   -0.8391    0.2667 C   0  0  0  0  0  0  0  0  0  0  0  0
   -5.0131   -0.1048    0.0419 C   0  0  0  0  0  0  0  0  0  0  0  0
   -3.6442   -0.7652    0.0311 C   0  0  0  0  0  0  0  0  0  0  0  0
   -2.5392    0.2775    0.0474 C   0  0  0  0  0  0  0  0  0  0  0  0
    3.5831   -0.1535    0.1241 C   0  0  0  0  0  0  0  0  0  0  0  0
    3.7253   -1.5181    0.0836 C   0  0  0  0  0  0  0  0  0  0  0  0
    6.0911   -1.4234    0.1980 C   0  0  0  0  0  0  0  0  0  0  0  0
    2.5691   -2.3552    0.0257 C   0  0  0  0  0  0  0  0  0  0  0  0
    1.7265   -4.5616   -0.0618 C   0  0  0  0  0  0  0  0  0  0  0  0
    1.3259   -1.7829    0.0191 C   0  0  0  0  0  0  0  0  0  0  0  0
    2.0261    4.5463    0.2332 C   0  0  0  0  0  0  0  0  0  0  0  0
    1.3834    5.9080    0.4774 C   0  0  0  0  0  0  0  0  0  0  0  0
    0.0379    5.7903   -0.2324 C   0  0  0  0  0  0  0  0  0  0  0  0
   -0.3843    4.3533    0.0571 C   0  0  0  0  0  0  0  0  0  0  0  0
   -6.0561   -1.1047   -0.0115 N   0  0  0  0  0  0  0  0  0  0  0  0
   -1.2466   -0.3687    0.0338 N   0  0  0  0  0  0  0  0  0  0  0  0
    0.8853    3.6521    0.1543 N   0  0  0  0  0  0  0  0  0  0  0  0
   -7.7298    0.2666    0.6255 O   0  0  0  0  0  0  0  0  0  0  0  0
    4.8905   -2.1726    0.0948 O   0  0  0  0  0  0  0  0  0  0  0  0
    2.8255   -3.6772   -0.0157 O   0  0  0  0  0  0  0  0  0  0  0  0
    7.7537   -2.5242   -1.7256 H   0  0  0  0  0  0  0  0  0  0  0  0
    8.0814   -3.8570   -0.8792 H   0  0  0  0  0  0  0  0  0  0  0  0
    7.1160   -3.0835    1.0613 H   0  0  0  0  0  0  0  0  0  0  0  0
    8.1456   -1.7832    0.4948 H   0  0  0  0  0  0  0  0  0  0  0  0
  -10.0084   -0.9711    0.6619 H   0  0  0  0  0  0  0  0  0  0  0  0
  -10.2174   -2.7499    0.2188 H   0  0  0  0  0  0  0  0  0  0  0  0
   -7.8283   -2.9453   -0.2151 H   0  0  0  0  0  0  0  0  0  0  0  0
   -5.1311    0.4913    0.9489 H   0  0  0  0  0  0  0  0  0  0  0  0
   -5.1012    0.5848   -0.8045 H   0  0  0  0  0  0  0  0  0  0  0  0
   -3.5489   -1.4223    0.9002 H   0  0  0  0  0  0  0  0  0  0  0  0
   -3.5433   -1.3918   -0.8609 H   0  0  0  0  0  0  0  0  0  0  0  0
   -2.6358    0.9404   -0.8170 H   0  0  0  0  0  0  0  0  0  0  0  0
   -2.6324    0.9108    0.9341 H   0  0  0  0  0  0  0  0  0  0  0  0
    4.4409    0.5038    0.1661 H   0  0  0  0  0  0  0  0  0  0  0  0
    6.0849   -0.8175    1.1105 H   0  0  0  0  0  0  0  0  0  0  0  0
    6.1860   -0.7385   -0.6528 H   0  0  0  0  0  0  0  0  0  0  0  0
    2.1384   -5.5674   -0.0890 H   0  0  0  0  0  0  0  0  0  0  0  0
    1.0874   -4.4662    0.8209 H   0  0  0  0  0  0  0  0  0  0  0  0
    1.1135   -4.4083   -0.9547 H   0  0  0  0  0  0  0  0  0  0  0  0
    0.4542   -2.4219   -0.0218 H   0  0  0  0  0  0  0  0  0  0  0  0
    2.6012    4.5370   -0.6993 H   0  0  0  0  0  0  0  0  0  0  0  0
    2.7073    4.2536    1.0334 H   0  0  0  0  0  0  0  0  0  0  0  0
    1.2321    6.0645    1.5479 H   0  0  0  0  0  0  0  0  0  0  0  0
    1.9980    6.7273    0.1058 H   0  0  0  0  0  0  0  0  0  0  0  0
   -0.6992    6.5143    0.1138 H   0  0  0  0  0  0  0  0  0  0  0  0
    0.1663    5.9338   -1.3079 H   0  0  0  0  0  0  0  0  0  0  0  0
   -0.9489    4.2875    0.9936 H   0  0  0  0  0  0  0  0  0  0  0  0
   -1.0129    3.9310   -0.7268 H   0  0  0  0  0  0  0  0  0  0  0  0
   -5.8127   -2.0200   -0.3550 H   0  0  0  0  0  0  0  0  0  0  0  0
   -1.2290   -1.3733    0.0322 H   0  0  0  0  0  0  0  0  0  0  0  0
  7 17  1  0
  7  5  1  0
 22 21  1  0
 22 23  1  0
 17 29  1  0
 21 27  1  0
 23 24  1  0
 29 16  1  0
 15 16  2  0
 15  1  1  0
  6  1  2  0
  6  8  1  0
 27  8  1  0
 27 24  1  0
 16 18  1  0
  1  2  1  0
  8  4  2  0
 18 30  1  0
 18 20  2  0
  2 20  1  0
  2  3  2  0
  4  3  1  0
 30 19  1  0
  3 26  1  0
 26 14  1  0
 14 13  1  0
 13 12  1  0
 12 25  1  0
 25 11  1  0
 28 11  2  0
 11 10  1  0
 10  9  2  0
  5 31  1  0
  5 32  1  0
  7 33  1  0
  7 34  1  0
  9 35  1  0
  9 36  1  0
 10 37  1  0
 12 38  1  0
 12 39  1  0
 13 40  1  0
 13 41  1  0
 14 42  1  0
 14 43  1  0
 15 44  1  0
 17 45  1  0
 17 46  1  0
 19 47  1  0
 19 48  1  0
 19 49  1  0
 20 50  1  0
 21 51  1  0
 21 52  1  0
 22 53  1  0
 22 54  1  0
 23 55  1  0
 23 56  1  0
 24 57  1  0
 24 58  1  0
 25 59  1  0
 26 60  1  0
M  END
