
     RDKit          3D

 66 68  0  0  0  0  0  0  0  0999 V2000
   -8.2075    2.2881   -0.9035 O   0  0  0  0  0  0  0  0  0  0  0  0
   -8.6537    1.4334   -0.1523 C   0  0  0  0  0  0  0  0  0  0  0  0
   -9.4667    1.7160    0.8758 N   0  0  0  0  0  0  0  0  0  0  0  0
   -9.8583    3.0643    1.2371 C   0  0  0  0  0  0  0  0  0  0  0  0
  -10.9159    3.0362    2.3241 C   0  0  0  0  0  0  0  0  0  0  0  0
   -8.2766   -0.0358   -0.2724 C   0  0  1  0  0  0  0  0  0  0  0  0
   -7.9646   -0.3952   -1.6531 N   0  0  0  0  0  0  0  0  0  0  0  0
   -6.5257   -0.5741   -1.7361 C   0  0  0  0  0  0  0  0  0  0  0  0
   -7.0052   -0.3079    0.5751 C   0  0  0  0  0  0  0  0  0  0  0  0
   -6.1186   -1.1216   -0.3639 C   0  0  2  0  0  0  0  0  0  0  0  0
   -4.7189   -1.0030   -0.0379 N   0  0  0  0  0  0  0  0  0  0  0  0
   -3.7861   -1.8681   -0.4586 C   0  0  0  0  0  0  0  0  0  0  0  0
   -4.0415   -2.8640   -1.1230 O   0  0  0  0  0  0  0  0  0  0  0  0
   -2.3430   -1.5278   -0.0725 C   0  0  1  0  0  0  0  0  0  0  0  0
   -1.5996   -2.6804    0.3698 N   0  0  0  0  0  0  0  0  0  0  0  0
   -2.0594   -3.2290    1.6302 C   0  0  0  0  0  0  0  0  0  0  0  0
   -1.6567   -0.8875   -1.2880 C   0  0  0  0  0  0  0  0  0  0  0  0
   -0.3219   -0.3227   -0.9520 C   0  0  0  0  0  0  0  0  0  0  0  0
   -0.0642    1.0033   -0.9943 N   0  0  0  0  0  0  0  0  0  0  0  0
    1.1549    1.2177   -0.6312 N   0  0  0  0  0  0  0  0  0  0  0  0
    0.8253   -0.9510   -0.5339 C   0  0  0  0  0  0  0  0  0  0  0  0
    1.7023    0.0497   -0.3475 N   0  0  0  0  0  0  0  0  0  0  0  0
    3.0914   -0.0338    0.0489 C   0  0  0  0  0  0  0  0  0  0  0  0
    4.0204    0.1239   -1.1553 C   0  0  0  0  0  0  0  0  0  0  0  0
    5.4028   -0.0181   -0.7729 N   0  0  0  0  0  0  0  0  0  0  0  0
    6.1073    0.9858   -0.2192 C   0  0  0  0  0  0  0  0  0  0  0  0
    5.6303    2.1001   -0.0486 O   0  0  0  0  0  0  0  0  0  0  0  0
    7.5155    0.6805    0.1698 C   0  0  0  0  0  0  0  0  0  0  0  0
    8.3932    1.7479    0.3505 C   0  0  0  0  0  0  0  0  0  0  0  0
    9.7082    1.5349    0.7188 C   0  0  0  0  0  0  0  0  0  0  0  0
   10.1735    0.2373    0.9315 C   0  0  0  0  0  0  0  0  0  0  0  0
   11.8553    0.0342    1.4033 S   0  0  0  0  0  0  0  0  0  0  0  0
    9.3001   -0.8355    0.7722 C   0  0  0  0  0  0  0  0  0  0  0  0
    7.9872   -0.6113    0.3934 C   0  0  0  0  0  0  0  0  0  0  0  0
   -9.7886    0.9596    1.4586 H   0  0  0  0  0  0  0  0  0  0  0  0
   -9.1043   -0.6523    0.0869 H   0  0  0  0  0  0  0  0  0  0  0  0
   -8.9871    3.6311    1.5777 H   0  0  0  0  0  0  0  0  0  0  0  0
  -10.2441    3.5783    0.3549 H   0  0  0  0  0  0  0  0  0  0  0  0
  -11.8127    2.5120    1.9921 H   0  0  0  0  0  0  0  0  0  0  0  0
  -10.5482    2.5452    3.2262 H   0  0  0  0  0  0  0  0  0  0  0  0
  -11.2020    4.0517    2.5932 H   0  0  0  0  0  0  0  0  0  0  0  0
   -8.4204   -1.2707   -1.8708 H   0  0  0  0  0  0  0  0  0  0  0  0
   -6.5003    0.6263    0.8405 H   0  0  0  0  0  0  0  0  0  0  0  0
   -7.2359   -0.8269    1.5042 H   0  0  0  0  0  0  0  0  0  0  0  0
   -6.2625   -1.2405   -2.5571 H   0  0  0  0  0  0  0  0  0  0  0  0
   -6.0291    0.3858   -1.9102 H   0  0  0  0  0  0  0  0  0  0  0  0
   -6.3979   -2.1771   -0.3116 H   0  0  0  0  0  0  0  0  0  0  0  0
   -4.4214   -0.1857    0.4722 H   0  0  0  0  0  0  0  0  0  0  0  0
   -2.3475   -0.7963    0.7436 H   0  0  0  0  0  0  0  0  0  0  0  0
   -1.6388   -3.3941   -0.3483 H   0  0  0  0  0  0  0  0  0  0  0  0
   -1.5722   -1.6359   -2.0808 H   0  0  0  0  0  0  0  0  0  0  0  0
   -2.2813   -0.0816   -1.6796 H   0  0  0  0  0  0  0  0  0  0  0  0
   -1.9365   -2.4866    2.4205 H   0  0  0  0  0  0  0  0  0  0  0  0
   -3.1090   -3.5510    1.6383 H   0  0  0  0  0  0  0  0  0  0  0  0
   -1.4496   -4.0924    1.8947 H   0  0  0  0  0  0  0  0  0  0  0  0
    1.0652   -1.9836   -0.3535 H   0  0  0  0  0  0  0  0  0  0  0  0
    3.2817    0.7407    0.7899 H   0  0  0  0  0  0  0  0  0  0  0  0
    3.2440   -1.0018    0.5217 H   0  0  0  0  0  0  0  0  0  0  0  0
    3.7982   -0.6432   -1.8959 H   0  0  0  0  0  0  0  0  0  0  0  0
    3.8585    1.0945   -1.6247 H   0  0  0  0  0  0  0  0  0  0  0  0
    5.8459   -0.9009   -0.9617 H   0  0  0  0  0  0  0  0  0  0  0  0
    8.0480    2.7607    0.1941 H   0  0  0  0  0  0  0  0  0  0  0  0
    7.3362   -1.4716    0.3035 H   0  0  0  0  0  0  0  0  0  0  0  0
   10.3713    2.3820    0.8417 H   0  0  0  0  0  0  0  0  0  0  0  0
   11.8661   -1.3011    1.4691 H   0  0  0  0  0  0  0  0  0  0  0  0
    9.6367   -1.8486    0.9480 H   0  0  0  0  0  0  0  0  0  0  0  0
  1  2  2  0
  2  3  1  0
  2  6  1  0
  3  4  1  0
  4  5  1  0
  6  7  1  0
  6  9  1  0
  7  8  1  0
  8 10  1  0
  9 10  1  0
 10 11  1  0
 11 12  1  0
 12 13  2  0
 12 14  1  0
 14 15  1  0
 14 17  1  0
 15 16  1  0
 17 18  1  0
 18 19  1  0
 18 21  2  0
 19 20  2  0
 20 22  1  0
 21 22  1  0
 22 23  1  0
 23 24  1  0
 24 25  1  0
 25 26  1  0
 26 27  2  0
 26 28  1  0
 28 29  2  0
 28 34  1  0
 29 30  1  0
 30 31  2  0
 31 32  1  0
 31 33  1  0
 33 34  2  0
  3 35  1  0
  6 36  1  1
  4 37  1  0
  4 38  1  0
  5 39  1  0
  5 40  1  0
  5 41  1  0
  7 42  1  0
  9 43  1  0
  9 44  1  0
  8 45  1  0
  8 46  1  0
 10 47  1  6
 11 48  1  0
 14 49  1  1
 15 50  1  0
 17 51  1  0
 17 52  1  0
 16 53  1  0
 16 54  1  0
 16 55  1  0
 21 56  1  0
 23 57  1  0
 23 58  1  0
 24 59  1  0
 24 60  1  0
 25 61  1  0
 29 62  1  0
 34 63  1  0
 30 64  1  0
 32 65  1  0
 33 66  1  0
M  END
