
     RDKit          3D

 19 18  0  0  0  0  0  0  0  0999 V2000
   -0.4978   -0.0846    2.9612 S   0  0  0  0  0  0  0  0  0  0  0  0
    0.5915   -0.6273    4.0986 O   0  0  0  0  0  0  0  0  0  0  0  0
    0.4959   -0.1957    1.4479 C   0  0  0  0  0  0  0  0  0  0  0  0
   -0.4609   -0.1727    0.2638 C   0  0  1  0  0  0  0  0  0  0  0  0
   -1.4094    0.8656    0.3975 O   0  0  0  0  0  0  0  0  0  0  0  0
    0.3020   -0.1028   -1.0673 C   0  0  2  0  0  0  0  0  0  0  0  0
    1.0150    1.1053   -1.2062 O   0  0  0  0  0  0  0  0  0  0  0  0
   -0.6344   -0.3471   -2.2409 C   0  0  0  0  0  0  0  0  0  0  0  0
    0.3073   -0.1716   -3.7941 S   0  0  0  0  0  0  0  0  0  0  0  0
    1.0890    0.1298    4.4322 H   0  0  0  0  0  0  0  0  0  0  0  0
    1.2121    0.6276    1.3991 H   0  0  0  0  0  0  0  0  0  0  0  0
    1.0483   -1.1368    1.4616 H   0  0  0  0  0  0  0  0  0  0  0  0
   -1.0377   -1.1024    0.2712 H   0  0  0  0  0  0  0  0  0  0  0  0
   -0.9461    1.7024    0.5161 H   0  0  0  0  0  0  0  0  0  0  0  0
    1.0548   -0.8973   -1.0559 H   0  0  0  0  0  0  0  0  0  0  0  0
    0.4042    1.8087   -1.4525 H   0  0  0  0  0  0  0  0  0  0  0  0
   -1.0439   -1.3549   -2.1792 H   0  0  0  0  0  0  0  0  0  0  0  0
   -1.4661    0.3598   -2.2325 H   0  0  0  0  0  0  0  0  0  0  0  0
   -0.6285   -0.6760   -4.6057 H   0  0  0  0  0  0  0  0  0  0  0  0
  1  2  1  0
  1  3  1  0
  2 10  1  0
  3  4  1  0
  3 11  1  0
  3 12  1  0
  4  5  1  0
  4  6  1  0
  4 13  1  6
  5 14  1  0
  6  7  1  0
  6  8  1  0
  6 15  1  1
  7 16  1  0
  8  9  1  0
  8 17  1  0
  8 18  1  0
  9 19  1  0
M  END
