
     RDKit          3D

 31 32  0  0  0  0  0  0  0  0999 V2000
    0.2064    2.5210   -0.1958 O   0  0  0  0  0  0  0  0  0  0  0  0
    1.3320    2.2115    0.0857 C   0  0  0  0  0  0  0  0  0  0  0  0
    2.2885    3.0618    0.4104 O   0  0  0  0  0  0  0  0  0  0  0  0
    1.8364    0.8002    0.0955 C   0  0  0  0  0  0  0  0  0  0  0  0
    3.1832    0.6663   -0.1310 N   0  0  0  0  0  0  0  0  0  0  0  0
    3.8341   -0.5306   -0.1965 C   0  0  0  0  0  0  0  0  0  0  0  0
    5.0227   -0.6313   -0.4149 O   0  0  0  0  0  0  0  0  0  0  0  0
    3.0145   -1.6098    0.0068 N   0  0  0  0  0  0  0  0  0  0  0  0
    1.6593   -1.5938    0.2577 C   0  0  0  0  0  0  0  0  0  0  0  0
    1.0523   -2.6343    0.4196 O   0  0  0  0  0  0  0  0  0  0  0  0
    1.0362   -0.2674    0.3066 C   0  0  0  0  0  0  0  0  0  0  0  0
   -0.4368   -0.2344    0.5746 C   0  0  0  0  0  0  0  0  0  0  0  0
   -1.2649   -0.4378   -0.7042 C   0  0  0  0  0  0  0  0  0  0  0  0
   -2.7375   -0.3551   -0.4189 C   0  0  0  0  0  0  0  0  0  0  0  0
   -3.4985   -1.5040   -0.2201 C   0  0  0  0  0  0  0  0  0  0  0  0
   -4.8525   -1.4192    0.0806 C   0  0  0  0  0  0  0  0  0  0  0  0
   -5.4656   -0.1783    0.1882 C   0  0  0  0  0  0  0  0  0  0  0  0
   -4.7159    0.9757   -0.0060 C   0  0  0  0  0  0  0  0  0  0  0  0
   -3.3642    0.8855   -0.3065 C   0  0  0  0  0  0  0  0  0  0  0  0
    1.9680    3.9761    0.3595 H   0  0  0  0  0  0  0  0  0  0  0  0
    3.4573   -2.5195   -0.0418 H   0  0  0  0  0  0  0  0  0  0  0  0
   -0.6757   -1.0303    1.2819 H   0  0  0  0  0  0  0  0  0  0  0  0
   -0.7266    0.6998    1.0496 H   0  0  0  0  0  0  0  0  0  0  0  0
   -0.9852    0.3223   -1.4356 H   0  0  0  0  0  0  0  0  0  0  0  0
   -1.0237   -1.4085   -1.1412 H   0  0  0  0  0  0  0  0  0  0  0  0
   -3.0285   -2.4770   -0.3079 H   0  0  0  0  0  0  0  0  0  0  0  0
   -5.4289   -2.3236    0.2287 H   0  0  0  0  0  0  0  0  0  0  0  0
   -6.5212   -0.1096    0.4176 H   0  0  0  0  0  0  0  0  0  0  0  0
   -5.1860    1.9477    0.0747 H   0  0  0  0  0  0  0  0  0  0  0  0
   -2.7851    1.7893   -0.4587 H   0  0  0  0  0  0  0  0  0  0  0  0
    3.7486    1.4891   -0.2870 H   0  0  0  0  0  0  0  0  0  0  0  0
 16 15  2  0
 16 17  1  0
 15 14  1  0
 17 18  2  0
 14 13  1  0
 14 19  2  0
 13 12  1  0
 18 19  1  0
 12 11  1  0
 10  9  2  0
 11  9  1  0
 11  4  2  0
  9  8  1  0
  4  2  1  0
  4  5  1  0
  2  1  2  0
  2  3  1  0
  8  6  1  0
  5  6  1  0
  6  7  2  0
  3 20  1  0
  8 21  1  0
 12 22  1  0
 12 23  1  0
 13 24  1  0
 13 25  1  0
 15 26  1  0
 16 27  1  0
 17 28  1  0
 18 29  1  0
 19 30  1  0
  5 31  1  0
M  END
