
     RDKit          3D

 75 76  0  0  0  0  0  0  0  0999 V2000
    4.1611    3.6772   -0.3230 C   0  0  0  0  0  0  0  0  0  0  0  0
    4.3367    2.4436    0.5517 C   0  0  0  0  0  0  0  0  0  0  0  0
    3.1002    1.5754    0.7491 C   0  0  1  0  0  0  0  0  0  0  0  0
    2.8014    0.7682   -0.4020 O   0  0  0  0  0  0  0  0  0  0  0  0
    1.9576    1.1784   -1.3538 C   0  0  0  0  0  0  0  0  0  0  0  0
    1.6442    2.3243   -1.5297 O   0  0  0  0  0  0  0  0  0  0  0  0
    1.4827   -0.0077   -2.1690 C   0  0  2  0  0  0  0  0  0  0  0  0
    0.8250    0.4170   -3.4716 C   0  0  0  0  0  0  0  0  0  0  0  0
    0.5923   -0.9329   -1.2934 C   0  0  1  0  0  0  0  0  0  0  0  0
   -0.7763   -0.5925   -1.4503 O   0  0  0  0  0  0  0  0  0  0  0  0
   -1.3932    0.0605   -0.4018 C   0  0  1  0  0  0  0  0  0  0  0  0
   -0.9517    1.3862   -0.3711 O   0  0  0  0  0  0  0  0  0  0  0  0
   -1.4900    2.1102    0.7238 C   0  0  1  0  0  0  0  0  0  0  0  0
   -0.8799    3.4958    0.7189 C   0  0  0  0  0  0  0  0  0  0  0  0
   -3.0097    2.1387    0.6282 C   0  0  0  0  0  0  0  0  0  0  0  0
   -3.5874    0.7195    0.5341 C   0  0  1  0  0  0  0  0  0  0  0  0
   -5.0355    0.6319    0.4616 N   0  0  0  0  0  0  0  0  0  0  0  0
   -5.6807    0.9872    1.7053 C   0  0  0  0  0  0  0  0  0  0  0  0
   -5.6426    1.3069   -0.6644 C   0  0  0  0  0  0  0  0  0  0  0  0
   -2.9061   -0.0137   -0.6190 C   0  0  2  0  0  0  0  0  0  0  0  0
   -3.3532   -1.3445   -0.6399 O   0  0  0  0  0  0  0  0  0  0  0  0
    0.7329   -2.4363   -1.5863 C   0  0  1  0  0  0  0  0  0  0  0  0
    2.1821   -2.8900   -1.7552 C   0  0  0  0  0  0  0  0  0  0  0  0
    0.0091   -3.2966   -0.5313 C   0  0  0  0  0  0  0  0  0  0  0  0
    0.7085   -3.5686    0.8216 C   0  0  2  0  0  0  0  0  0  0  0  0
   -0.0085   -4.7122    1.5394 C   0  0  0  0  0  0  0  0  0  0  0  0
    0.7455   -2.3414    1.7182 C   0  0  0  0  0  0  0  0  0  0  0  0
   -0.2417   -1.9776    2.3284 O   0  0  0  0  0  0  0  0  0  0  0  0
    2.0189   -1.5938    1.7713 C   0  0  0  0  0  0  0  0  0  0  0  0
    2.0613   -0.2829    2.0216 C   0  0  0  0  0  0  0  0  0  0  0  0
    3.2785    0.5832    1.9221 C   0  0  1  0  0  0  0  0  0  0  0  0
    4.5799   -0.2073    1.8513 C   0  0  0  0  0  0  0  0  0  0  0  0
    4.0002    3.4247   -1.3686 H   0  0  0  0  0  0  0  0  0  0  0  0
    3.3204    4.2876    0.0077 H   0  0  0  0  0  0  0  0  0  0  0  0
    5.0590    4.2939   -0.2686 H   0  0  0  0  0  0  0  0  0  0  0  0
    5.1516    1.8313    0.1587 H   0  0  0  0  0  0  0  0  0  0  0  0
    4.6547    2.7637    1.5480 H   0  0  0  0  0  0  0  0  0  0  0  0
    2.2385    2.2181    0.9599 H   0  0  0  0  0  0  0  0  0  0  0  0
    2.3895   -0.5657   -2.4128 H   0  0  0  0  0  0  0  0  0  0  0  0
    1.5400    0.9397   -4.1068 H   0  0  0  0  0  0  0  0  0  0  0  0
    0.4730   -0.4534   -4.0265 H   0  0  0  0  0  0  0  0  0  0  0  0
   -0.0237    1.0760   -3.3040 H   0  0  0  0  0  0  0  0  0  0  0  0
    0.8877   -0.7814   -0.2558 H   0  0  0  0  0  0  0  0  0  0  0  0
   -1.1512   -0.4258    0.5600 H   0  0  0  0  0  0  0  0  0  0  0  0
   -1.2102    1.6029    1.6622 H   0  0  0  0  0  0  0  0  0  0  0  0
   -1.1251    4.0295   -0.2005 H   0  0  0  0  0  0  0  0  0  0  0  0
   -1.2649    4.0727    1.5596 H   0  0  0  0  0  0  0  0  0  0  0  0
    0.2054    3.4530    0.8086 H   0  0  0  0  0  0  0  0  0  0  0  0
   -3.4121    2.6495    1.5062 H   0  0  0  0  0  0  0  0  0  0  0  0
   -3.3003    2.7293   -0.2466 H   0  0  0  0  0  0  0  0  0  0  0  0
   -3.2996    0.1914    1.4540 H   0  0  0  0  0  0  0  0  0  0  0  0
   -6.7438    0.7469    1.6478 H   0  0  0  0  0  0  0  0  0  0  0  0
   -5.2542    0.4104    2.5279 H   0  0  0  0  0  0  0  0  0  0  0  0
   -5.6031    2.0524    1.9708 H   0  0  0  0  0  0  0  0  0  0  0  0
   -5.2305    0.9483   -1.6074 H   0  0  0  0  0  0  0  0  0  0  0  0
   -6.7112    1.0868   -0.6781 H   0  0  0  0  0  0  0  0  0  0  0  0
   -5.5373    2.4014   -0.6476 H   0  0  0  0  0  0  0  0  0  0  0  0
   -3.1285    0.4972   -1.5687 H   0  0  0  0  0  0  0  0  0  0  0  0
   -2.9180   -1.7926   -1.3723 H   0  0  0  0  0  0  0  0  0  0  0  0
    0.2177   -2.6325   -2.5341 H   0  0  0  0  0  0  0  0  0  0  0  0
    2.8342   -2.5047   -0.9686 H   0  0  0  0  0  0  0  0  0  0  0  0
    2.2455   -3.9789   -1.7284 H   0  0  0  0  0  0  0  0  0  0  0  0
    2.6015   -2.5721   -2.7095 H   0  0  0  0  0  0  0  0  0  0  0  0
   -0.9932   -2.9072   -0.3372 H   0  0  0  0  0  0  0  0  0  0  0  0
   -0.1470   -4.2796   -0.9848 H   0  0  0  0  0  0  0  0  0  0  0  0
    1.7376   -3.8815    0.6254 H   0  0  0  0  0  0  0  0  0  0  0  0
    0.0096   -5.6108    0.9224 H   0  0  0  0  0  0  0  0  0  0  0  0
    0.4708   -4.9520    2.4891 H   0  0  0  0  0  0  0  0  0  0  0  0
   -1.0505   -4.4632    1.7396 H   0  0  0  0  0  0  0  0  0  0  0  0
    2.9143   -2.1329    1.4846 H   0  0  0  0  0  0  0  0  0  0  0  0
    1.1310    0.2307    2.2562 H   0  0  0  0  0  0  0  0  0  0  0  0
    3.3002    1.2086    2.8225 H   0  0  0  0  0  0  0  0  0  0  0  0
    4.6710   -0.7648    0.9186 H   0  0  0  0  0  0  0  0  0  0  0  0
    5.4437    0.4500    1.9316 H   0  0  0  0  0  0  0  0  0  0  0  0
    4.6417   -0.9193    2.6747 H   0  0  0  0  0  0  0  0  0  0  0  0
  1  2  1  0
  1 33  1  0
  1 34  1  0
  1 35  1  0
  2  3  1  0
  2 36  1  0
  2 37  1  0
  3  4  1  0
  3 31  1  0
  3 38  1  1
  4  5  1  0
  5  6  2  0
  5  7  1  0
  7  8  1  0
  7  9  1  0
  7 39  1  6
  8 40  1  0
  8 41  1  0
  8 42  1  0
  9 10  1  0
  9 22  1  0
  9 43  1  1
 10 11  1  0
 11 12  1  0
 11 20  1  0
 11 44  1  1
 12 13  1  0
 13 14  1  0
 13 15  1  0
 13 45  1  1
 14 46  1  0
 14 47  1  0
 14 48  1  0
 15 16  1  0
 15 49  1  0
 15 50  1  0
 16 17  1  0
 16 20  1  0
 16 51  1  1
 17 18  1  0
 17 19  1  0
 18 52  1  0
 18 53  1  0
 18 54  1  0
 19 55  1  0
 19 56  1  0
 19 57  1  0
 20 21  1  0
 20 58  1  6
 21 59  1  0
 22 23  1  0
 22 24  1  0
 22 60  1  6
 23 61  1  0
 23 62  1  0
 23 63  1  0
 24 25  1  0
 24 64  1  0
 24 65  1  0
 25 26  1  0
 25 27  1  0
 25 66  1  6
 26 67  1  0
 26 68  1  0
 26 69  1  0
 27 28  2  0
 27 29  1  0
 29 30  2  0
 29 70  1  0
 30 31  1  0
 30 71  1  0
 31 32  1  0
 31 72  1  1
 32 73  1  0
 32 74  1  0
 32 75  1  0
M  END
