
     RDKit          3D

 25 26  0  0  0  0  0  0  0  0999 V2000
    0.4717   -0.8083    2.1317 C   0  0  0  0  0  0  0  0  0  0  0  0
    0.0532    0.4180    2.9430 C   0  0  1  0  0  0  0  0  0  0  0  0
   -0.9456    1.1636    2.2858 O   0  0  0  0  0  0  0  0  0  0  0  0
   -0.3626   -0.0065    4.3431 C   0  0  0  0  0  0  0  0  0  0  0  0
   -0.1109   -0.3549   -0.2634 C   0  0  0  0  0  0  0  0  0  0  0  0
    0.6456    0.0080   -1.3675 C   0  0  0  0  0  0  0  0  0  0  0  0
   -0.0585    0.1914   -2.5716 C   0  0  0  0  0  0  0  0  0  0  0  0
   -1.3826    0.0030   -2.5596 N   0  0  0  0  0  0  0  0  0  0  0  0
   -1.9776   -0.3482   -1.4214 C   0  0  0  0  0  0  0  0  0  0  0  0
    0.5393    0.5587   -3.7081 N   0  0  0  0  0  0  0  0  0  0  0  0
    0.7815   -0.4862    0.7569 N   0  0  0  0  0  0  0  0  0  0  0  0
    1.9718    0.1079   -1.0362 N   0  0  0  0  0  0  0  0  0  0  0  0
    2.0050   -0.1894    0.2309 C   0  0  0  0  0  0  0  0  0  0  0  0
   -1.4294   -0.5484   -0.2366 N   0  0  0  0  0  0  0  0  0  0  0  0
    1.3490   -1.2718    2.5824 H   0  0  0  0  0  0  0  0  0  0  0  0
   -0.3227   -1.5583    2.1326 H   0  0  0  0  0  0  0  0  0  0  0  0
    0.9151    1.0882    3.0166 H   0  0  0  0  0  0  0  0  0  0  0  0
   -1.6683    0.5751    2.0378 H   0  0  0  0  0  0  0  0  0  0  0  0
   -0.6437    0.8616    4.9392 H   0  0  0  0  0  0  0  0  0  0  0  0
   -1.2154   -0.6883    4.3133 H   0  0  0  0  0  0  0  0  0  0  0  0
    0.4538   -0.5136    4.8584 H   0  0  0  0  0  0  0  0  0  0  0  0
    0.0154    0.5823   -4.5663 H   0  0  0  0  0  0  0  0  0  0  0  0
    1.5415    0.5995   -3.7689 H   0  0  0  0  0  0  0  0  0  0  0  0
    2.8956   -0.2196    0.8420 H   0  0  0  0  0  0  0  0  0  0  0  0
   -3.0521   -0.4850   -1.4814 H   0  0  0  0  0  0  0  0  0  0  0  0
  1  2  1  0
  1 11  1  0
  1 15  1  0
  1 16  1  0
  2  3  1  0
  2  4  1  0
  2 17  1  1
  3 18  1  0
  4 19  1  0
  4 20  1  0
  4 21  1  0
  5  6  1  0
  5 11  1  0
  5 14  2  0
  6  7  2  0
  6 12  1  0
  7  8  1  0
  7 10  1  0
  8  9  2  0
  9 14  1  0
  9 25  1  0
 10 22  1  0
 10 23  1  0
 11 13  1  0
 12 13  2  0
 13 24  1  0
M  END
