
     RDKit          3D

 62 65  0  0  0  0  0  0  0  0999 V2000
   -2.5054   -0.9101   -0.8183 C   0  0  0  0  0  0  0  0  0  0  0  0
   -3.8629   -1.1845   -0.8496 C   0  0  0  0  0  0  0  0  0  0  0  0
    3.8252    0.4171    0.5721 C   0  0  0  0  0  0  0  0  0  0  0  0
    0.4460   -1.0852    1.3857 C   0  0  0  0  0  0  0  0  0  0  0  0
    1.7996   -0.7942    1.4279 C   0  0  0  0  0  0  0  0  0  0  0  0
    1.5432    0.6777   -0.4446 C   0  0  0  0  0  0  0  0  0  0  0  0
   -0.3798   -0.4988    0.4265 C   0  0  0  0  0  0  0  0  0  0  0  0
   -5.5059    1.6755   -0.1248 C   0  0  0  0  0  0  0  0  0  0  0  0
   -4.8381    1.9859   -1.2229 O   0  0  0  0  0  0  0  0  0  0  0  0
   -5.1534    1.9656    0.9898 O   0  0  0  0  0  0  0  0  0  0  0  0
   -6.7995    0.9258   -0.4165 C   0  0  2  0  0  0  0  0  0  0  0  0
   -8.0026    1.8919   -0.3756 C   0  0  1  0  0  0  0  0  0  0  0  0
   -7.8100    3.0766   -1.3178 C   0  0  0  0  0  0  0  0  0  0  0  0
   -9.2866    1.1449   -0.7177 C   0  0  0  0  0  0  0  0  0  0  0  0
   -7.0019   -0.1348    0.5552 N   0  0  0  0  0  0  0  0  0  0  0  0
   -6.6549   -2.3964    1.4981 O   0  0  0  0  0  0  0  0  0  0  0  0
   -6.6710   -2.0552   -0.9996 O   0  0  0  0  0  0  0  0  0  0  0  0
   -4.5491   -1.3443    0.3456 C   0  0  0  0  0  0  0  0  0  0  0  0
   -3.8931   -1.2405    1.5659 C   0  0  0  0  0  0  0  0  0  0  0  0
   -2.5384   -0.9694    1.5817 C   0  0  0  0  0  0  0  0  0  0  0  0
   -1.8242   -0.7962    0.3932 C   0  0  0  0  0  0  0  0  0  0  0  0
    2.3616    0.0982    0.5209 C   0  0  0  0  0  0  0  0  0  0  0  0
    0.1908    0.3837   -0.4918 C   0  0  0  0  0  0  0  0  0  0  0  0
    4.6549   -0.7070   -0.5987 S   0  0  0  0  0  0  0  0  0  0  0  0
    6.3125   -0.1607   -0.4813 C   0  0  0  0  0  0  0  0  0  0  0  0
    6.6490    0.8014    0.3167 N   0  0  0  0  0  0  0  0  0  0  0  0
    7.9636    1.1335    0.3021 C   0  0  0  0  0  0  0  0  0  0  0  0
    8.5563    2.1971    1.1734 C   0  0  0  0  0  0  0  0  0  0  0  0
    9.9477    2.4129    0.5532 C   0  0  0  0  0  0  0  0  0  0  0  0
   10.2741    1.1178   -0.2215 C   0  0  0  0  0  0  0  0  0  0  0  0
    8.9167    0.5383   -0.4629 C   0  0  0  0  0  0  0  0  0  0  0  0
    8.5599   -0.5371   -1.3314 C   0  0  0  0  0  0  0  0  0  0  0  0
    7.1898   -0.8135   -1.2777 N   0  0  0  0  0  0  0  0  0  0  0  0
    9.2935   -1.1838   -2.0625 O   0  0  0  0  0  0  0  0  0  0  0  0
   -1.9730   -0.8064   -1.7546 H   0  0  0  0  0  0  0  0  0  0  0  0
   -4.3660   -1.2839   -1.8015 H   0  0  0  0  0  0  0  0  0  0  0  0
    4.0265    1.4430    0.2695 H   0  0  0  0  0  0  0  0  0  0  0  0
    4.2369    0.2548    1.5664 H   0  0  0  0  0  0  0  0  0  0  0  0
    0.0346   -1.7898    2.0974 H   0  0  0  0  0  0  0  0  0  0  0  0
    2.4238   -1.2641    2.1780 H   0  0  0  0  0  0  0  0  0  0  0  0
    1.9635    1.3766   -1.1578 H   0  0  0  0  0  0  0  0  0  0  0  0
   -4.0483    2.5040   -1.0027 H   0  0  0  0  0  0  0  0  0  0  0  0
   -6.7550    0.4816   -1.4135 H   0  0  0  0  0  0  0  0  0  0  0  0
   -8.0803    2.2751    0.6481 H   0  0  0  0  0  0  0  0  0  0  0  0
   -7.6443    2.7428   -2.3438 H   0  0  0  0  0  0  0  0  0  0  0  0
   -8.7072    3.6951   -1.3118 H   0  0  0  0  0  0  0  0  0  0  0  0
   -6.9789    3.7213   -1.0319 H   0  0  0  0  0  0  0  0  0  0  0  0
   -9.4757    0.3195   -0.0340 H   0  0  0  0  0  0  0  0  0  0  0  0
  -10.1387    1.8234   -0.6669 H   0  0  0  0  0  0  0  0  0  0  0  0
   -9.2436    0.7417   -1.7319 H   0  0  0  0  0  0  0  0  0  0  0  0
   -6.9756    0.1690    1.5238 H   0  0  0  0  0  0  0  0  0  0  0  0
   -4.4253   -1.3624    2.4997 H   0  0  0  0  0  0  0  0  0  0  0  0
   -2.0356   -0.8695    2.5347 H   0  0  0  0  0  0  0  0  0  0  0  0
   -0.4288    0.8689   -1.2351 H   0  0  0  0  0  0  0  0  0  0  0  0
    7.9476    3.1021    1.1993 H   0  0  0  0  0  0  0  0  0  0  0  0
    9.9037    3.2489   -0.1462 H   0  0  0  0  0  0  0  0  0  0  0  0
   10.8255    1.3146   -1.1422 H   0  0  0  0  0  0  0  0  0  0  0  0
    8.6175    1.8274    2.2020 H   0  0  0  0  0  0  0  0  0  0  0  0
   10.7040    2.6513    1.2995 H   0  0  0  0  0  0  0  0  0  0  0  0
   10.8864    0.4339    0.3742 H   0  0  0  0  0  0  0  0  0  0  0  0
    6.8589   -1.5618   -1.8760 H   0  0  0  0  0  0  0  0  0  0  0  0
   -6.2987   -1.6083    0.3317 S   0  0  1  0  0  0  0  0  0  0  0  0
 14 12  1  0
 13 12  1  0
 12 11  1  0
 11 15  1  0
 11  8  1  0
 62 15  1  1
  8 10  2  0
  8  9  1  0
 16 62  2  0
 62 17  2  0
 62 18  1  0
 18 19  2  0
 18  2  1  0
 19 20  1  0
  2  1  2  0
 20 21  2  0
  1 21  1  0
 21  7  1  0
  7  4  2  0
  7 23  1  0
  4  5  1  0
 23  6  2  0
  5 22  2  0
  6 22  1  0
 22  3  1  0
  3 24  1  0
 24 25  1  0
 26 25  2  0
 26 27  1  0
 25 33  1  0
 27 28  1  0
 27 31  2  0
 28 29  1  0
 33 32  1  0
 31 32  1  0
 31 30  1  0
 32 34  2  0
 29 30  1  0
  1 35  1  0
  2 36  1  0
  3 37  1  0
  3 38  1  0
  4 39  1  0
  5 40  1  0
  6 41  1  0
  9 42  1  0
 11 43  1  6
 12 44  1  1
 13 45  1  0
 13 46  1  0
 13 47  1  0
 14 48  1  0
 14 49  1  0
 14 50  1  0
 15 51  1  0
 19 52  1  0
 20 53  1  0
 23 54  1  0
 28 55  1  0
 29 56  1  0
 30 57  1  0
 28 58  1  0
 29 59  1  0
 30 60  1  0
 33 61  1  0
M  END
