
     RDKit          3D

 33 34  0  0  0  0  0  0  0  0999 V2000
    0.1435   -1.3991    0.0994 C   0  0  0  0  0  0  0  0  0  0  0  0
   -2.0397   -1.4179   -0.2815 C   0  0  0  0  0  0  0  0  0  0  0  0
   -3.3507   -1.7334   -0.6129 C   0  0  0  0  0  0  0  0  0  0  0  0
   -4.3220   -0.7652   -0.4292 C   0  0  0  0  0  0  0  0  0  0  0  0
   -6.2601    1.2256   -0.0326 C   0  0  0  0  0  0  0  0  0  0  0  0
   -0.2826   -0.1550    0.4766 C   0  0  0  0  0  0  0  0  0  0  0  0
    0.5271    0.9859    0.9888 C   0  0  0  0  0  0  0  0  0  0  0  0
    1.7458    3.0144    0.3942 N   0  0  0  0  0  0  0  0  0  0  0  0
    2.0202    4.1262   -0.3058 C   0  0  0  0  0  0  0  0  0  0  0  0
    2.8465    5.1622    0.4149 C   0  0  0  0  0  0  0  0  0  0  0  0
    2.0688   -2.1570    0.1519 I   0  0  0  0  0  0  0  0  0  0  0  0
   -0.8932   -2.1627   -0.3511 N   0  0  0  0  0  0  0  0  0  0  0  0
   -3.9937    0.5071    0.0785 C   0  0  0  0  0  0  0  0  0  0  0  0
   -4.9079    1.4879    0.2727 O   0  0  0  0  0  0  0  0  0  0  0  0
   -2.6842    0.8174    0.4095 C   0  0  0  0  0  0  0  0  0  0  0  0
   -1.6945   -0.1516    0.2306 C   0  0  0  0  0  0  0  0  0  0  0  0
    0.9829    1.9078   -0.1402 C   0  0  0  0  0  0  0  0  0  0  0  0
    1.6184    4.3009   -1.4495 O   0  0  0  0  0  0  0  0  0  0  0  0
   -3.6190   -2.7056   -1.0051 H   0  0  0  0  0  0  0  0  0  0  0  0
   -5.3426   -1.0120   -0.6868 H   0  0  0  0  0  0  0  0  0  0  0  0
   -6.8123    2.1324    0.2038 H   0  0  0  0  0  0  0  0  0  0  0  0
   -6.4074    0.9930   -1.0909 H   0  0  0  0  0  0  0  0  0  0  0  0
   -6.6666    0.4053    0.5656 H   0  0  0  0  0  0  0  0  0  0  0  0
   -0.0637    1.5625    1.7062 H   0  0  0  0  0  0  0  0  0  0  0  0
    1.4009    0.6180    1.5345 H   0  0  0  0  0  0  0  0  0  0  0  0
    2.1619    2.8999    1.3040 H   0  0  0  0  0  0  0  0  0  0  0  0
    3.1717    4.8510    1.4057 H   0  0  0  0  0  0  0  0  0  0  0  0
    3.7286    5.4017   -0.1784 H   0  0  0  0  0  0  0  0  0  0  0  0
    2.2670    6.0800    0.5164 H   0  0  0  0  0  0  0  0  0  0  0  0
   -0.8255   -3.1083   -0.6889 H   0  0  0  0  0  0  0  0  0  0  0  0
   -2.4400    1.7992    0.7981 H   0  0  0  0  0  0  0  0  0  0  0  0
    1.5770    1.3387   -0.8626 H   0  0  0  0  0  0  0  0  0  0  0  0
    0.1135    2.2932   -0.6754 H   0  0  0  0  0  0  0  0  0  0  0  0
 10  9  1  0
  9  8  1  0
  9 18  2  0
  8 17  1  0
  7 17  1  0
  7  6  1  0
  6  1  2  0
  6 16  1  0
 11  1  1  0
  1 12  1  0
 15 16  2  0
 15 13  1  0
 16  2  1  0
 14 13  1  0
 14  5  1  0
 13  4  2  0
 12  2  1  0
  2  3  2  0
  4  3  1  0
  3 19  1  0
  4 20  1  0
  5 21  1  0
  5 22  1  0
  5 23  1  0
  7 24  1  0
  7 25  1  0
  8 26  1  0
 10 27  1  0
 10 28  1  0
 10 29  1  0
 12 30  1  0
 15 31  1  0
 17 32  1  0
 17 33  1  0
M  END
