
     RDKit          3D

 57 62  0  0  0  0  0  0  0  0999 V2000
   -4.0649    0.9064   -0.2631 C   0  0  0  0  0  0  0  0  0  0  0  0
   -5.0700   -0.0901   -0.2128 C   0  0  0  0  0  0  0  0  0  0  0  0
   -4.7344   -1.4264   -0.3213 C   0  0  0  0  0  0  0  0  0  0  0  0
   -2.7355    0.5882   -0.3940 C   0  0  0  0  0  0  0  0  0  0  0  0
   -2.3721   -0.7632   -0.4721 C   0  0  0  0  0  0  0  0  0  0  0  0
   -3.3811   -1.7404   -0.4550 C   0  0  0  0  0  0  0  0  0  0  0  0
   -2.7487   -2.9289   -0.5870 N   0  0  0  0  0  0  0  0  0  0  0  0
   -1.4294   -2.7971   -0.6713 N   0  0  0  0  0  0  0  0  0  0  0  0
   -1.1625   -1.5102   -0.6081 C   0  0  0  0  0  0  0  0  0  0  0  0
    0.2052   -1.0384   -0.6901 C   0  0  0  0  0  0  0  0  0  0  0  0
    0.5833    0.1719   -0.1653 N   0  0  0  0  0  0  0  0  0  0  0  0
    1.2990   -1.6464   -1.2516 C   0  0  0  0  0  0  0  0  0  0  0  0
    2.4091   -0.7762   -1.0500 C   0  0  0  0  0  0  0  0  0  0  0  0
    1.9230    0.3512   -0.3564 C   0  0  0  0  0  0  0  0  0  0  0  0
    2.7595    1.3999    0.0248 C   0  0  0  0  0  0  0  0  0  0  0  0
    4.0949    1.3017   -0.3045 C   0  0  0  0  0  0  0  0  0  0  0  0
    4.6120    0.1913   -1.0039 C   0  0  0  0  0  0  0  0  0  0  0  0
    3.7725   -0.8411   -1.3714 C   0  0  0  0  0  0  0  0  0  0  0  0
    6.0766    0.1583   -1.3555 C   0  0  0  0  0  0  0  0  0  0  0  0
    6.9311    0.4060   -0.2113 N   0  0  0  0  0  0  0  0  0  0  0  0
    8.3034    0.6530   -0.6170 C   0  0  0  0  0  0  0  0  0  0  0  0
    9.1733    1.0250    0.5740 C   0  0  0  0  0  0  0  0  0  0  0  0
    9.1166   -0.0560    1.6452 C   0  0  0  0  0  0  0  0  0  0  0  0
    7.6668   -0.3490    2.0088 C   0  0  0  0  0  0  0  0  0  0  0  0
    6.8494   -0.6653    0.7657 C   0  0  0  0  0  0  0  0  0  0  0  0
   -6.4768    0.2894   -0.0654 C   0  0  0  0  0  0  0  0  0  0  0  0
   -7.0796    1.3872    0.5844 C   0  0  0  0  0  0  0  0  0  0  0  0
   -8.3907    1.2578    0.4609 N   0  0  0  0  0  0  0  0  0  0  0  0
   -8.5441    0.1585   -0.2245 N   0  0  0  0  0  0  0  0  0  0  0  0
   -7.4509   -0.4638   -0.5621 N   0  0  0  0  0  0  0  0  0  0  0  0
   -6.4779    2.5209    1.3417 C   0  0  0  0  0  0  0  0  0  0  0  0
   -5.6235    1.9967    2.3313 O   0  0  0  0  0  0  0  0  0  0  0  0
   -4.3460    1.9490   -0.2259 H   0  0  0  0  0  0  0  0  0  0  0  0
   -5.4889   -2.2010   -0.2911 H   0  0  0  0  0  0  0  0  0  0  0  0
   -2.0001    1.3797   -0.4479 H   0  0  0  0  0  0  0  0  0  0  0  0
   -3.1570   -3.8498   -0.5973 H   0  0  0  0  0  0  0  0  0  0  0  0
    0.0060    0.7635    0.4091 H   0  0  0  0  0  0  0  0  0  0  0  0
    1.2958   -2.5936   -1.7676 H   0  0  0  0  0  0  0  0  0  0  0  0
    2.3771    2.2597    0.5604 H   0  0  0  0  0  0  0  0  0  0  0  0
    4.7730    2.0933   -0.0119 H   0  0  0  0  0  0  0  0  0  0  0  0
    4.1696   -1.7046   -1.8937 H   0  0  0  0  0  0  0  0  0  0  0  0
    6.3116   -0.8025   -1.8450 H   0  0  0  0  0  0  0  0  0  0  0  0
    6.2828    0.9371   -2.0970 H   0  0  0  0  0  0  0  0  0  0  0  0
    8.7406   -0.2281   -1.1219 H   0  0  0  0  0  0  0  0  0  0  0  0
    8.3090    1.4661   -1.3476 H   0  0  0  0  0  0  0  0  0  0  0  0
   10.1991    1.1841    0.2342 H   0  0  0  0  0  0  0  0  0  0  0  0
    8.8237    1.9754    0.9890 H   0  0  0  0  0  0  0  0  0  0  0  0
    9.5879   -0.9696    1.2655 H   0  0  0  0  0  0  0  0  0  0  0  0
    9.6844    0.2449    2.5288 H   0  0  0  0  0  0  0  0  0  0  0  0
    7.6015   -1.1887    2.7044 H   0  0  0  0  0  0  0  0  0  0  0  0
    7.2303    0.5184    2.5132 H   0  0  0  0  0  0  0  0  0  0  0  0
    5.8030   -0.8121    1.0406 H   0  0  0  0  0  0  0  0  0  0  0  0
    7.1995   -1.6220    0.3346 H   0  0  0  0  0  0  0  0  0  0  0  0
   -9.4562   -0.1906   -0.4788 H   0  0  0  0  0  0  0  0  0  0  0  0
   -7.2902    3.1195    1.7704 H   0  0  0  0  0  0  0  0  0  0  0  0
   -5.9391    3.1801    0.6515 H   0  0  0  0  0  0  0  0  0  0  0  0
   -5.0191    2.6936    2.6018 H   0  0  0  0  0  0  0  0  0  0  0  0
  1  2  2  0
  1  4  1  0
  1 33  1  0
  2  3  1  0
  2 26  1  0
  3  6  2  0
  3 34  1  0
  4  5  2  0
  4 35  1  0
  5  6  1  0
  5  9  1  0
  6  7  1  0
  7  8  1  0
  7 36  1  0
  8  9  2  0
  9 10  1  0
 10 11  1  0
 10 12  2  0
 11 14  1  0
 11 37  1  0
 12 13  1  0
 12 38  1  0
 13 14  2  0
 13 18  1  0
 14 15  1  0
 15 16  2  0
 15 39  1  0
 16 17  1  0
 16 40  1  0
 17 18  2  0
 17 19  1  0
 18 41  1  0
 19 20  1  0
 19 42  1  0
 19 43  1  0
 20 21  1  0
 20 25  1  0
 21 22  1  0
 21 44  1  0
 21 45  1  0
 22 23  1  0
 22 46  1  0
 22 47  1  0
 23 24  1  0
 23 48  1  0
 23 49  1  0
 24 25  1  0
 24 50  1  0
 24 51  1  0
 25 52  1  0
 25 53  1  0
 26 27  1  0
 26 30  2  0
 27 28  2  0
 27 31  1  0
 28 29  1  0
 29 30  1  0
 29 54  1  0
 31 32  1  0
 31 55  1  0
 31 56  1  0
 32 57  1  0
M  END
