
     RDKit          3D

 45 47  0  0  0  0  0  0  0  0999 V2000
   -0.0581   -3.4094    1.1842 C   0  0  0  0  0  0  0  0  0  0  0  0
   -0.3109   -1.9419    0.8824 C   0  0  0  0  0  0  0  0  0  0  0  0
    0.8398   -2.1974   -1.2232 C   0  0  0  0  0  0  0  0  0  0  0  0
    1.0641   -3.6658   -0.9166 C   0  0  0  0  0  0  0  0  0  0  0  0
    0.7455   -1.4529    0.0194 N   0  0  0  0  0  0  0  0  0  0  0  0
    0.9985   -0.0882   -0.0268 C   0  0  0  0  0  0  0  0  0  0  0  0
    2.2632    0.5433   -0.1586 C   0  0  0  0  0  0  0  0  0  0  0  0
    3.6030   -0.0700   -0.3065 C   0  0  0  0  0  0  0  0  0  0  0  0
   -0.0033   -4.1538   -0.0606 N   0  0  0  0  0  0  0  0  0  0  0  0
    3.7566   -1.2748   -0.4698 O   0  0  0  0  0  0  0  0  0  0  0  0
    4.6319    0.7883   -0.2356 N   0  0  0  0  0  0  0  0  0  0  0  0
    6.0104    0.3639   -0.3646 C   0  0  0  0  0  0  0  0  0  0  0  0
    6.9459    1.5466   -0.2011 C   0  0  0  0  0  0  0  0  0  0  0  0
    2.1423    1.8618   -0.0897 N   0  0  0  0  0  0  0  0  0  0  0  0
    0.8649    2.0907    0.0918 N   0  0  0  0  0  0  0  0  0  0  0  0
    0.1103    0.9685    0.1224 C   0  0  0  0  0  0  0  0  0  0  0  0
   -1.3451    1.0038    0.2721 C   0  0  0  0  0  0  0  0  0  0  0  0
   -2.1614    0.4595   -0.7103 C   0  0  0  0  0  0  0  0  0  0  0  0
   -3.5362    0.4564   -0.5762 C   0  0  0  0  0  0  0  0  0  0  0  0
   -4.5359   -0.2305   -1.8174 Cl  0  0  0  0  0  0  0  0  0  0  0  0
   -4.1404    1.0099    0.5545 C   0  0  0  0  0  0  0  0  0  0  0  0
   -5.4629    1.0412    0.7426 O   0  0  0  0  0  0  0  0  0  0  0  0
   -3.3303    1.5589    1.5425 C   0  0  0  0  0  0  0  0  0  0  0  0
   -1.9489    1.5556    1.4101 C   0  0  0  0  0  0  0  0  0  0  0  0
   -1.1395    2.0592    2.3531 O   0  0  0  0  0  0  0  0  0  0  0  0
   -0.8738   -3.7966    1.7986 H   0  0  0  0  0  0  0  0  0  0  0  0
    0.8678   -3.4915    1.7752 H   0  0  0  0  0  0  0  0  0  0  0  0
   -0.3127   -1.3685    1.8113 H   0  0  0  0  0  0  0  0  0  0  0  0
   -1.3089   -1.8432    0.4316 H   0  0  0  0  0  0  0  0  0  0  0  0
   -0.0765   -2.0847   -1.8257 H   0  0  0  0  0  0  0  0  0  0  0  0
    1.6703   -1.8162   -1.8127 H   0  0  0  0  0  0  0  0  0  0  0  0
    1.0642   -4.2361   -1.8481 H   0  0  0  0  0  0  0  0  0  0  0  0
    2.0605   -3.7718   -0.4625 H   0  0  0  0  0  0  0  0  0  0  0  0
    0.1407   -5.1353    0.1365 H   0  0  0  0  0  0  0  0  0  0  0  0
    4.4358    1.7684   -0.1056 H   0  0  0  0  0  0  0  0  0  0  0  0
    6.1697   -0.1018   -1.3407 H   0  0  0  0  0  0  0  0  0  0  0  0
    6.2354   -0.3970    0.3866 H   0  0  0  0  0  0  0  0  0  0  0  0
    7.9797    1.2176   -0.2950 H   0  0  0  0  0  0  0  0  0  0  0  0
    6.7659    2.3038   -0.9652 H   0  0  0  0  0  0  0  0  0  0  0  0
    6.8318    2.0141    0.7778 H   0  0  0  0  0  0  0  0  0  0  0  0
    0.5341    3.0406    0.1669 H   0  0  0  0  0  0  0  0  0  0  0  0
   -1.7101    0.0313   -1.5957 H   0  0  0  0  0  0  0  0  0  0  0  0
   -5.9315    0.6474   -0.0049 H   0  0  0  0  0  0  0  0  0  0  0  0
   -3.7968    1.9836    2.4243 H   0  0  0  0  0  0  0  0  0  0  0  0
   -1.6499    2.4130    3.0907 H   0  0  0  0  0  0  0  0  0  0  0  0
  1  2  1  0
  1  9  1  0
  1 26  1  0
  1 27  1  0
  2  5  1  0
  2 28  1  0
  2 29  1  0
  3  4  1  0
  3  5  1  0
  3 30  1  0
  3 31  1  0
  4  9  1  0
  4 32  1  0
  4 33  1  0
  5  6  1  0
  6  7  1  0
  6 16  2  0
  7  8  1  0
  7 14  2  0
  8 10  2  0
  8 11  1  0
  9 34  1  0
 11 12  1  0
 11 35  1  0
 12 13  1  0
 12 36  1  0
 12 37  1  0
 13 38  1  0
 13 39  1  0
 13 40  1  0
 14 15  1  0
 15 16  1  0
 15 41  1  0
 16 17  1  0
 17 18  2  0
 17 24  1  0
 18 19  1  0
 18 42  1  0
 19 20  1  0
 19 21  2  0
 21 22  1  0
 21 23  1  0
 22 43  1  0
 23 24  2  0
 23 44  1  0
 24 25  1  0
 25 45  1  0
M  END
