
     RDKit          3D

 38 41  0  0  0  0  0  0  0  0999 V2000
    1.8846    2.0050   -0.1053 C   0  0  0  0  0  0  0  0  0  0  0  0
    1.3015    0.7440   -0.0588 C   0  0  0  0  0  0  0  0  0  0  0  0
   -0.0462    1.0046    0.0271 N   0  0  0  0  0  0  0  0  0  0  0  0
   -0.3451    2.3085    0.0378 N   0  0  0  0  0  0  0  0  0  0  0  0
    0.8278    2.9147   -0.0416 C   0  0  0  0  0  0  0  0  0  0  0  0
    1.7998   -0.4876   -0.0830 N   0  0  0  0  0  0  0  0  0  0  0  0
    0.9361   -1.4848   -0.0176 C   0  0  0  0  0  0  0  0  0  0  0  0
   -0.4550   -1.2852    0.0752 C   0  0  0  0  0  0  0  0  0  0  0  0
   -0.9651    0.0009    0.0928 C   0  0  0  0  0  0  0  0  0  0  0  0
   -2.2473    0.3554    0.1563 N   0  0  0  0  0  0  0  0  0  0  0  0
    1.5103   -2.8506   -0.0466 C   0  0  0  0  0  0  0  0  0  0  0  0
   -3.3178   -0.6069    0.3146 C   0  0  0  0  0  0  0  0  0  0  0  0
   -4.6437    0.0668    0.1037 C   0  0  0  0  0  0  0  0  0  0  0  0
   -5.5400    0.2381    1.1481 C   0  0  0  0  0  0  0  0  0  0  0  0
   -6.7501    0.8711    0.8965 C   0  0  0  0  0  0  0  0  0  0  0  0
   -7.1013    1.3293   -0.2975 N   0  0  0  0  0  0  0  0  0  0  0  0
   -6.2385    1.1665   -1.2957 C   0  0  0  0  0  0  0  0  0  0  0  0
   -5.0078    0.5477   -1.1493 C   0  0  0  0  0  0  0  0  0  0  0  0
    2.8813   -3.0155   -0.2613 C   0  0  0  0  0  0  0  0  0  0  0  0
    3.4476   -4.2792   -0.2944 C   0  0  0  0  0  0  0  0  0  0  0  0
    2.6563   -5.4063   -0.1107 C   0  0  0  0  0  0  0  0  0  0  0  0
    1.2941   -5.2557    0.1070 C   0  0  0  0  0  0  0  0  0  0  0  0
    0.7262   -3.9907    0.1374 C   0  0  0  0  0  0  0  0  0  0  0  0
    3.7016    2.3522   -0.2235 Br  0  0  0  0  0  0  0  0  0  0  0  0
    0.8827    3.9925   -0.0528 H   0  0  0  0  0  0  0  0  0  0  0  0
   -1.1398   -2.1148    0.1317 H   0  0  0  0  0  0  0  0  0  0  0  0
   -2.4493    1.3354    0.2937 H   0  0  0  0  0  0  0  0  0  0  0  0
   -3.1964   -1.4010   -0.4261 H   0  0  0  0  0  0  0  0  0  0  0  0
   -3.2815   -1.0737    1.3032 H   0  0  0  0  0  0  0  0  0  0  0  0
   -5.3072   -0.1099    2.1460 H   0  0  0  0  0  0  0  0  0  0  0  0
   -7.4626    1.0123    1.7013 H   0  0  0  0  0  0  0  0  0  0  0  0
   -6.5421    1.5442   -2.2655 H   0  0  0  0  0  0  0  0  0  0  0  0
   -4.3514    0.4395   -2.0033 H   0  0  0  0  0  0  0  0  0  0  0  0
    3.5041   -2.1434   -0.4036 H   0  0  0  0  0  0  0  0  0  0  0  0
    4.5112   -4.3846   -0.4637 H   0  0  0  0  0  0  0  0  0  0  0  0
    3.0983   -6.3938   -0.1367 H   0  0  0  0  0  0  0  0  0  0  0  0
    0.6674   -6.1249    0.2570 H   0  0  0  0  0  0  0  0  0  0  0  0
   -0.3381   -3.9136    0.3116 H   0  0  0  0  0  0  0  0  0  0  0  0
 15 16  1  0
 15 14  2  0
 16 17  2  0
 14 13  1  0
 17 18  1  0
 13 18  2  0
 13 12  1  0
 10 12  1  0
 10  9  1  0
  4  5  2  0
  4  3  1  0
  5  1  1  0
  3  9  1  0
  3  2  1  0
  9  8  2  0
  1  2  2  0
  1 24  1  0
  8  7  1  0
  2  6  1  0
  7  6  2  0
  7 11  1  0
 11 19  2  0
 11 23  1  0
 19 20  1  0
 23 22  2  0
 20 21  2  0
 22 21  1  0
  5 25  1  0
  8 26  1  0
 10 27  1  0
 12 28  1  0
 12 29  1  0
 14 30  1  0
 15 31  1  0
 17 32  1  0
 18 33  1  0
 19 34  1  0
 20 35  1  0
 21 36  1  0
 22 37  1  0
 23 38  1  0
M  END
