
     RDKit          3D

 30 31  0  0  0  0  0  0  0  0999 V2000
   -2.6749    0.3998   -0.0579 C   0  0  0  0  0  0  0  0  0  0  0  0
   -4.0368    0.7918   -0.1341 C   0  0  0  0  0  0  0  0  0  0  0  0
   -5.1420    1.1148   -0.1886 N   0  0  0  0  0  0  0  0  0  0  0  0
   -1.6461    1.3321   -0.0354 C   0  0  0  0  0  0  0  0  0  0  0  0
   -0.3332    0.9025    0.0433 C   0  0  0  0  0  0  0  0  0  0  0  0
   -0.0986   -0.4691    0.0873 C   0  0  0  0  0  0  0  0  0  0  0  0
   -1.0837   -1.3672    0.0713 N   0  0  0  0  0  0  0  0  0  0  0  0
   -2.3284   -0.9597    0.0034 C   0  0  0  0  0  0  0  0  0  0  0  0
   -3.3079   -1.8524   -0.0114 O   0  0  0  0  0  0  0  0  0  0  0  0
    0.8220    1.8670    0.0691 C   0  0  0  0  0  0  0  0  0  0  0  0
    1.9911    1.2628    0.5468 O   0  0  0  0  0  0  0  0  0  0  0  0
    2.3273    0.0849   -0.1655 C   0  0  1  0  0  0  0  0  0  0  0  0
    3.7559   -0.3012    0.2048 C   0  0  1  0  0  0  0  0  0  0  0  0
    4.1537   -1.6272   -0.4390 C   0  0  0  0  0  0  0  0  0  0  0  0
    4.7394    0.7957   -0.1928 C   0  0  0  0  0  0  0  0  0  0  0  0
    1.3015   -0.9965    0.1574 C   0  0  0  0  0  0  0  0  0  0  0  0
   -1.8795    2.3890   -0.0769 H   0  0  0  0  0  0  0  0  0  0  0  0
    0.9766    2.2811   -0.9378 H   0  0  0  0  0  0  0  0  0  0  0  0
    0.5955    2.7059    0.7305 H   0  0  0  0  0  0  0  0  0  0  0  0
    2.2909    0.2897   -1.2488 H   0  0  0  0  0  0  0  0  0  0  0  0
    3.7924   -0.4272    1.2939 H   0  0  0  0  0  0  0  0  0  0  0  0
    3.5708   -2.4673   -0.0610 H   0  0  0  0  0  0  0  0  0  0  0  0
    4.0304   -1.5941   -1.5243 H   0  0  0  0  0  0  0  0  0  0  0  0
    5.2030   -1.8447   -0.2362 H   0  0  0  0  0  0  0  0  0  0  0  0
    4.4916    1.7543    0.2608 H   0  0  0  0  0  0  0  0  0  0  0  0
    5.7517    0.5331    0.1172 H   0  0  0  0  0  0  0  0  0  0  0  0
    4.7507    0.9310   -1.2772 H   0  0  0  0  0  0  0  0  0  0  0  0
    1.4803   -1.3970    1.1620 H   0  0  0  0  0  0  0  0  0  0  0  0
    1.3916   -1.8362   -0.5339 H   0  0  0  0  0  0  0  0  0  0  0  0
   -2.9304   -2.7424    0.0308 H   0  0  0  0  0  0  0  0  0  0  0  0
  3  2  3  0
  2  1  1  0
  9  8  1  0
  1  8  2  0
  1  4  1  0
  8  7  1  0
  4  5  2  0
  7  6  2  0
  5  6  1  0
  5 10  1  0
  6 16  1  0
 10 11  1  0
 16 12  1  0
 11 12  1  0
 12 13  1  0
 13 15  1  0
 13 14  1  0
  4 17  1  0
 10 18  1  0
 10 19  1  0
 12 20  1  6
 13 21  1  1
 14 22  1  0
 14 23  1  0
 14 24  1  0
 15 25  1  0
 15 26  1  0
 15 27  1  0
 16 28  1  0
 16 29  1  0
  9 30  1  0
M  END
