
     RDKit          3D

 42 45  0  0  0  0  0  0  0  0999 V2000
    8.4642   -1.9352    0.1182 C   0  0  0  0  0  0  0  0  0  0  0  0
    7.4205   -2.5069   -0.5978 C   0  0  0  0  0  0  0  0  0  0  0  0
    8.2616   -0.7335    0.7845 C   0  0  0  0  0  0  0  0  0  0  0  0
    6.1831   -1.8827   -0.6465 C   0  0  0  0  0  0  0  0  0  0  0  0
    7.0257   -0.1066    0.7323 C   0  0  0  0  0  0  0  0  0  0  0  0
    4.5559    1.3845   -0.1100 C   0  0  0  0  0  0  0  0  0  0  0  0
    3.4748   -0.7547   -0.0197 C   0  0  0  0  0  0  0  0  0  0  0  0
    3.3243    2.0066   -0.1711 C   0  0  0  0  0  0  0  0  0  0  0  0
    2.2397   -0.1340   -0.0755 C   0  0  0  0  0  0  0  0  0  0  0  0
    5.9689   -0.6731    0.0171 C   0  0  0  0  0  0  0  0  0  0  0  0
    4.6537   -0.0080   -0.0374 C   0  0  0  0  0  0  0  0  0  0  0  0
    2.1478    1.2551   -0.1558 C   0  0  0  0  0  0  0  0  0  0  0  0
   -4.2308   -0.7254    0.1691 C   0  0  0  0  0  0  0  0  0  0  0  0
   -5.1470    0.2773   -0.0852 C   0  0  0  0  0  0  0  0  0  0  0  0
   -3.0871    1.0279   -0.1256 C   0  0  0  0  0  0  0  0  0  0  0  0
   -4.7085   -2.0421    0.4168 C   0  0  0  0  0  0  0  0  0  0  0  0
   -6.9289   -1.0190    0.0879 C   0  0  0  0  0  0  0  0  0  0  0  0
    0.8449    1.9541   -0.2289 C   0  0  0  0  0  0  0  0  0  0  0  0
   -0.4068    1.1171   -0.1455 C   0  0  0  0  0  0  0  0  0  0  0  0
   -2.9467   -0.2346    0.1397 N   0  0  0  0  0  0  0  0  0  0  0  0
   -6.4824    0.1926   -0.1379 N   0  0  0  0  0  0  0  0  0  0  0  0
   -4.3989    1.3963   -0.2731 N   0  0  0  0  0  0  0  0  0  0  0  0
   -6.1083   -2.0762    0.3546 N   0  0  0  0  0  0  0  0  0  0  0  0
   -8.2445   -1.2704    0.0252 N   0  0  0  0  0  0  0  0  0  0  0  0
   -4.0731   -3.0560    0.6573 O   0  0  0  0  0  0  0  0  0  0  0  0
    0.7682    3.1582   -0.3466 O   0  0  0  0  0  0  0  0  0  0  0  0
   -1.8280    2.2257   -0.2823 S   0  0  0  0  0  0  0  0  0  0  0  0
    9.4298   -2.4223    0.1552 H   0  0  0  0  0  0  0  0  0  0  0  0
    7.5709   -3.4393   -1.1259 H   0  0  0  0  0  0  0  0  0  0  0  0
    9.0661   -0.2840    1.3518 H   0  0  0  0  0  0  0  0  0  0  0  0
    5.3856   -2.3306   -1.2262 H   0  0  0  0  0  0  0  0  0  0  0  0
    6.8775    0.8201    1.2724 H   0  0  0  0  0  0  0  0  0  0  0  0
    5.4531    1.9893   -0.1422 H   0  0  0  0  0  0  0  0  0  0  0  0
    3.2763    3.0853   -0.2363 H   0  0  0  0  0  0  0  0  0  0  0  0
    3.5185   -1.8331    0.0582 H   0  0  0  0  0  0  0  0  0  0  0  0
    1.3527   -0.7529   -0.0527 H   0  0  0  0  0  0  0  0  0  0  0  0
   -4.7530    2.3157   -0.4925 H   0  0  0  0  0  0  0  0  0  0  0  0
   -6.5309   -2.9816    0.5175 H   0  0  0  0  0  0  0  0  0  0  0  0
   -8.8675   -0.4825   -0.0272 H   0  0  0  0  0  0  0  0  0  0  0  0
   -8.6281   -2.1184    0.4062 H   0  0  0  0  0  0  0  0  0  0  0  0
   -0.4333    0.3745   -0.9450 H   0  0  0  0  0  0  0  0  0  0  0  0
   -0.4401    0.5753    0.8017 H   0  0  0  0  0  0  0  0  0  0  0  0
  1  2  2  0
  1  3  1  0
  2  4  1  0
  3  5  2  0
  4 10  2  0
  5 10  1  0
  6  8  2  0
  6 11  1  0
  7  9  1  0
  7 11  2  0
  8 12  1  0
  9 12  2  0
 10 11  1  0
 12 18  1  0
 13 14  2  0
 13 16  1  0
 13 20  1  0
 14 21  1  0
 14 22  1  0
 15 20  2  0
 15 22  1  0
 15 27  1  0
 16 23  1  0
 16 25  2  0
 17 21  2  0
 17 23  1  0
 17 24  1  0
 18 19  1  0
 18 26  2  0
 19 27  1  0
  1 28  1  0
  2 29  1  0
  3 30  1  0
  4 31  1  0
  5 32  1  0
  6 33  1  0
  8 34  1  0
  7 35  1  0
  9 36  1  0
 22 37  1  0
 23 38  1  0
 24 39  1  0
 24 40  1  0
 19 41  1  0
 19 42  1  0
M  END
