
     RDKit          3D

  9  9  0  0  0  0  0  0  0  0999 V2000
    1.4207    0.0222    0.0570 Br  0  0  0  0  0  0  0  0  0  0  0  0
   -0.4382   -0.0039    0.0381 C   0  0  0  0  0  0  0  0  0  0  0  0
   -1.2508   -1.1139    0.0235 C   0  0  0  0  0  0  0  0  0  0  0  0
   -2.5021   -0.6338    0.0132 N   0  0  0  0  0  0  0  0  0  0  0  0
   -2.5628    0.6905    0.0192 N   0  0  0  0  0  0  0  0  0  0  0  0
   -1.3081    1.0977    0.0343 C   0  0  0  0  0  0  0  0  0  0  0  0
   -1.0295   -2.1679    0.0199 H   0  0  0  0  0  0  0  0  0  0  0  0
   -3.3529   -1.1747   -0.0001 H   0  0  0  0  0  0  0  0  0  0  0  0
   -1.0606    2.1477    0.0422 H   0  0  0  0  0  0  0  0  0  0  0  0
  5  6  2  0
  5  4  1  0
  6  2  1  0
  4  3  1  0
  2  3  2  0
  2  1  1  0
  3  7  1  0
  4  8  1  0
  6  9  1  0
M  END
