
     RDKit          3D

 67 71  0  0  0  0  0  0  0  0999 V2000
    1.9280   -2.0299    0.2519 C   0  0  0  0  0  0  0  0  0  0  0  0
   -0.3630   -2.0781    1.0753 C   0  0  0  0  0  0  0  0  0  0  0  0
   -0.4547   -3.2875    0.8830 O   0  0  0  0  0  0  0  0  0  0  0  0
    5.2352   -0.4964   -0.8247 C   0  0  2  0  0  0  0  0  0  0  0  0
    4.5286   -2.8190   -0.7067 C   0  0  0  0  0  0  0  0  0  0  0  0
    5.6400   -2.6961   -1.7390 C   0  0  0  0  0  0  0  0  0  0  0  0
    6.3610   -1.4238   -1.3153 C   0  0  0  0  0  0  0  0  0  0  0  0
    5.6846    0.3959    0.3084 C   0  0  0  0  0  0  0  0  0  0  0  0
    6.2467    1.6556    0.0557 C   0  0  0  0  0  0  0  0  0  0  0  0
    6.6982    2.4375    1.1185 C   0  0  0  0  0  0  0  0  0  0  0  0
    6.6023    1.9779    2.4232 C   0  0  0  0  0  0  0  0  0  0  0  0
    6.9968    3.8677   -1.5047 C   0  0  0  0  0  0  0  0  0  0  0  0
   -3.7869   -0.9242    1.5815 C   0  0  0  0  0  0  0  0  0  0  0  0
   -4.5132   -0.2419    2.5525 C   0  0  0  0  0  0  0  0  0  0  0  0
   -5.8459    0.8702    0.8701 C   0  0  0  0  0  0  0  0  0  0  0  0
   -5.5089    0.3684   -1.5652 C   0  0  2  0  0  0  0  0  0  0  0  0
   -8.2982    0.9020   -1.2758 C   0  0  2  0  0  0  0  0  0  0  0  0
   -2.6633   -1.8553    1.9479 C   0  0  0  0  0  0  0  0  0  0  0  0
   -7.7000   -0.5056   -1.2778 C   0  0  0  0  0  0  0  0  0  0  0  0
    0.7857   -1.3947    0.8382 N   0  0  0  0  0  0  0  0  0  0  0  0
   -1.3881   -1.3141    1.5342 N   0  0  0  0  0  0  0  0  0  0  0  0
    2.9684   -0.9732   -0.0809 C   0  0  0  0  0  0  0  0  0  0  0  0
    4.1754   -1.4269   -0.4464 N   0  0  0  0  0  0  0  0  0  0  0  0
    2.7113    0.2213   -0.0097 O   0  0  0  0  0  0  0  0  0  0  0  0
    6.0628    0.7271    2.6794 C   0  0  0  0  0  0  0  0  0  0  0  0
    5.6130   -0.0496    1.6223 C   0  0  0  0  0  0  0  0  0  0  0  0
    6.3725    2.1833   -1.6271 S   0  0  0  0  0  0  0  0  0  0  0  0
   -5.5241    0.6410    2.2131 C   0  0  0  0  0  0  0  0  0  0  0  0
   -5.1290    0.1744   -0.1215 C   0  0  0  0  0  0  0  0  0  0  0  0
   -4.1177   -0.6961    0.2494 C   0  0  0  0  0  0  0  0  0  0  0  0
   -6.8149    1.7747    0.5229 N   0  0  0  0  0  0  0  0  0  0  0  0
   -7.2493    1.9313   -0.8469 C   0  0  1  0  0  0  0  0  0  0  0  0
   -6.0435    1.7778   -1.7626 C   0  0  0  0  0  0  0  0  0  0  0  0
   -6.4840   -0.5792   -1.9904 O   0  0  0  0  0  0  0  0  0  0  0  0
   -9.3899    0.9843   -0.3916 O   0  0  0  0  0  0  0  0  0  0  0  0
    2.3647   -2.7742    0.9247 H   0  0  0  0  0  0  0  0  0  0  0  0
    1.6665   -2.5634   -0.6702 H   0  0  0  0  0  0  0  0  0  0  0  0
    4.8719    0.1185   -1.6551 H   0  0  0  0  0  0  0  0  0  0  0  0
    3.6769   -3.3840   -1.0830 H   0  0  0  0  0  0  0  0  0  0  0  0
    4.8827   -3.3082    0.2058 H   0  0  0  0  0  0  0  0  0  0  0  0
    6.2907   -3.5691   -1.7501 H   0  0  0  0  0  0  0  0  0  0  0  0
    5.2095   -2.5834   -2.7360 H   0  0  0  0  0  0  0  0  0  0  0  0
    6.9363   -0.9633   -2.1170 H   0  0  0  0  0  0  0  0  0  0  0  0
    7.0505   -1.6346   -0.4952 H   0  0  0  0  0  0  0  0  0  0  0  0
    7.1305    3.4124    0.9415 H   0  0  0  0  0  0  0  0  0  0  0  0
    6.9546    2.6015    3.2347 H   0  0  0  0  0  0  0  0  0  0  0  0
    7.0604    4.2320   -2.5283 H   0  0  0  0  0  0  0  0  0  0  0  0
    6.3177    4.5102   -0.9474 H   0  0  0  0  0  0  0  0  0  0  0  0
    7.9910    3.9019   -1.0638 H   0  0  0  0  0  0  0  0  0  0  0  0
   -4.2814   -0.3956    3.6005 H   0  0  0  0  0  0  0  0  0  0  0  0
   -4.6404    0.1915   -2.2033 H   0  0  0  0  0  0  0  0  0  0  0  0
   -8.5996    1.1607   -2.3017 H   0  0  0  0  0  0  0  0  0  0  0  0
   -2.6808   -2.0433    3.0269 H   0  0  0  0  0  0  0  0  0  0  0  0
   -2.7945   -2.8210    1.4603 H   0  0  0  0  0  0  0  0  0  0  0  0
   -7.5811   -0.8481   -0.2408 H   0  0  0  0  0  0  0  0  0  0  0  0
   -8.3864   -1.2015   -1.7667 H   0  0  0  0  0  0  0  0  0  0  0  0
    0.8003   -0.3869    0.8702 H   0  0  0  0  0  0  0  0  0  0  0  0
   -1.2036   -0.3566    1.7877 H   0  0  0  0  0  0  0  0  0  0  0  0
    5.9883    0.3570    3.6934 H   0  0  0  0  0  0  0  0  0  0  0  0
    5.1887   -1.0247    1.8299 H   0  0  0  0  0  0  0  0  0  0  0  0
   -6.0671    1.1653    2.9907 H   0  0  0  0  0  0  0  0  0  0  0  0
   -3.5708   -1.2163   -0.5315 H   0  0  0  0  0  0  0  0  0  0  0  0
   -7.4755    2.0279    1.2388 H   0  0  0  0  0  0  0  0  0  0  0  0
   -7.6773    2.9318   -0.9478 H   0  0  0  0  0  0  0  0  0  0  0  0
   -5.2755    2.5164   -1.5221 H   0  0  0  0  0  0  0  0  0  0  0  0
   -6.3363    1.9354   -2.8023 H   0  0  0  0  0  0  0  0  0  0  0  0
  -10.0931    0.4137   -0.7169 H   0  0  0  0  0  0  0  0  0  0  0  0
 12 27  1  0
 27  9  1  0
  3  2  2  0
 18 21  1  0
 18 13  1  0
  9 10  2  0
  9  8  1  0
  2 21  1  0
  2 20  1  0
 10 11  1  0
  7  4  1  0
  7  6  1  0
  4  8  1  0
  4 23  1  0
  1 20  1  0
  1 22  1  0
  8 26  2  0
 13 30  1  0
 13 14  2  0
 30 29  2  0
 23 22  1  0
 23  5  1  0
 11 25  2  0
 34 19  1  0
 34 16  1  0
 22 24  2  0
 14 28  1  0
  6  5  1  0
 19 17  1  0
 29 16  1  0
 29 15  1  0
 26 25  1  0
 16 33  1  0
 28 15  2  0
 15 31  1  0
 17 35  1  0
 17 32  1  0
 33 32  1  0
 31 32  1  0
  1 36  1  0
  1 37  1  0
  4 38  1  6
  5 39  1  0
  5 40  1  0
  6 41  1  0
  6 42  1  0
  7 43  1  0
  7 44  1  0
 10 45  1  0
 11 46  1  0
 12 47  1  0
 12 48  1  0
 12 49  1  0
 14 50  1  0
 16 51  1  6
 17 52  1  6
 18 53  1  0
 18 54  1  0
 19 55  1  0
 19 56  1  0
 20 57  1  0
 21 58  1  0
 25 59  1  0
 26 60  1  0
 28 61  1  0
 30 62  1  0
 31 63  1  0
 32 64  1  1
 33 65  1  0
 33 66  1  0
 35 67  1  0
M  END
