
     RDKit          3D

 55 58  0  0  0  0  0  0  0  0999 V2000
    0.3172    4.6084    0.0468 O   0  0  0  0  0  0  0  0  0  0  0  0
    0.2952    3.2632    0.0948 C   0  0  0  0  0  0  0  0  0  0  0  0
   -0.7137    2.4900   -0.4508 C   0  0  0  0  0  0  0  0  0  0  0  0
   -0.6699    1.1020   -0.3789 C   0  0  0  0  0  0  0  0  0  0  0  0
    1.3714    2.6303    0.7452 C   0  0  0  0  0  0  0  0  0  0  0  0
    2.3166    3.4512    1.2427 O   0  0  0  0  0  0  0  0  0  0  0  0
    3.4603    2.8650    1.8296 C   0  0  0  0  0  0  0  0  0  0  0  0
    1.3914    1.2511    0.8394 C   0  0  0  0  0  0  0  0  0  0  0  0
    0.3810    0.4663    0.2665 C   0  0  0  0  0  0  0  0  0  0  0  0
    0.4850   -0.9921    0.3646 C   0  0  0  0  0  0  0  0  0  0  0  0
    1.5546   -1.8398    0.1459 C   0  0  0  0  0  0  0  0  0  0  0  0
    2.8914   -1.5395   -0.3748 C   0  0  0  0  0  0  0  0  0  0  0  0
    3.1148   -0.4980   -1.2788 C   0  0  0  0  0  0  0  0  0  0  0  0
    4.3869   -0.2423   -1.7676 C   0  0  0  0  0  0  0  0  0  0  0  0
    5.4622   -1.0288   -1.3737 C   0  0  0  0  0  0  0  0  0  0  0  0
    5.2498   -2.0769   -0.4873 C   0  0  0  0  0  0  0  0  0  0  0  0
    3.9782   -2.3302    0.0062 C   0  0  0  0  0  0  0  0  0  0  0  0
    1.2075   -3.1205    0.4729 N   0  0  0  0  0  0  0  0  0  0  0  0
   -0.0372   -3.0619    0.8617 C   0  0  0  0  0  0  0  0  0  0  0  0
   -0.5261   -1.8062    0.8195 N   0  0  0  0  0  0  0  0  0  0  0  0
   -1.8961   -1.4448    1.1381 C   0  0  0  0  0  0  0  0  0  0  0  0
   -2.8654   -1.8309    0.0292 C   0  0  0  0  0  0  0  0  0  0  0  0
   -4.2314   -1.1813    0.2174 C   0  0  1  0  0  0  0  0  0  0  0  0
   -4.1255    0.2776    0.0730 N   0  0  0  0  0  0  0  0  0  0  0  0
   -4.7723    1.0159    1.1386 C   0  0  0  0  0  0  0  0  0  0  0  0
   -5.2506   -1.6699   -0.8447 C   0  0  0  0  0  0  0  0  0  0  0  0
   -5.8333   -0.3865   -1.4343 C   0  0  0  0  0  0  0  0  0  0  0  0
   -4.6734    0.5874   -1.2424 C   0  0  0  0  0  0  0  0  0  0  0  0
   -0.4713    4.9359   -0.4005 H   0  0  0  0  0  0  0  0  0  0  0  0
   -1.5468    2.9716   -0.9497 H   0  0  0  0  0  0  0  0  0  0  0  0
   -1.4742    0.5365   -0.8274 H   0  0  0  0  0  0  0  0  0  0  0  0
    4.1199    3.6835    2.1072 H   0  0  0  0  0  0  0  0  0  0  0  0
    3.2137    2.2941    2.7289 H   0  0  0  0  0  0  0  0  0  0  0  0
    3.9858    2.2086    1.1297 H   0  0  0  0  0  0  0  0  0  0  0  0
    2.1976    0.7532    1.3600 H   0  0  0  0  0  0  0  0  0  0  0  0
    2.2868    0.1132   -1.6130 H   0  0  0  0  0  0  0  0  0  0  0  0
    4.5348    0.5694   -2.4684 H   0  0  0  0  0  0  0  0  0  0  0  0
    6.4545   -0.8306   -1.7579 H   0  0  0  0  0  0  0  0  0  0  0  0
    6.0782   -2.7010   -0.1767 H   0  0  0  0  0  0  0  0  0  0  0  0
    3.8242   -3.1468    0.6996 H   0  0  0  0  0  0  0  0  0  0  0  0
   -0.6371   -3.8986    1.1882 H   0  0  0  0  0  0  0  0  0  0  0  0
   -2.1709   -1.9357    2.0731 H   0  0  0  0  0  0  0  0  0  0  0  0
   -1.9351   -0.3712    1.3109 H   0  0  0  0  0  0  0  0  0  0  0  0
   -2.4595   -1.5278   -0.9417 H   0  0  0  0  0  0  0  0  0  0  0  0
   -2.9751   -2.9188   -0.0050 H   0  0  0  0  0  0  0  0  0  0  0  0
   -4.5962   -1.4159    1.2229 H   0  0  0  0  0  0  0  0  0  0  0  0
   -4.3424    0.7302    2.0992 H   0  0  0  0  0  0  0  0  0  0  0  0
   -4.5915    2.0840    1.0098 H   0  0  0  0  0  0  0  0  0  0  0  0
   -5.8603    0.8666    1.2085 H   0  0  0  0  0  0  0  0  0  0  0  0
   -4.7359   -2.2405   -1.6227 H   0  0  0  0  0  0  0  0  0  0  0  0
   -6.0073   -2.3258   -0.4140 H   0  0  0  0  0  0  0  0  0  0  0  0
   -6.1401   -0.4944   -2.4753 H   0  0  0  0  0  0  0  0  0  0  0  0
   -6.7066   -0.0549   -0.8672 H   0  0  0  0  0  0  0  0  0  0  0  0
   -4.9544    1.6394   -1.3092 H   0  0  0  0  0  0  0  0  0  0  0  0
   -3.9123    0.4109   -2.0106 H   0  0  0  0  0  0  0  0  0  0  0  0
  1  2  1  0
  3  2  2  0
  3  4  1  0
  2  5  1  0
  4  9  2  0
  7  6  1  0
  5  6  1  0
  5  8  2  0
  9  8  1  0
  9 10  1  0
 21 22  1  0
 21 20  1  0
 22 23  1  0
 10 20  1  0
 10 11  2  0
 20 19  1  0
 25 24  1  0
 13 14  2  0
 13 12  1  0
 23 24  1  0
 23 26  1  0
 24 28  1  0
 19 18  2  0
 11 12  1  0
 11 18  1  0
 14 15  1  0
 12 17  2  0
 26 27  1  0
 28 27  1  0
 15 16  2  0
 17 16  1  0
  1 29  1  0
  3 30  1  0
  4 31  1  0
  7 32  1  0
  7 33  1  0
  7 34  1  0
  8 35  1  0
 13 36  1  0
 14 37  1  0
 15 38  1  0
 16 39  1  0
 17 40  1  0
 19 41  1  0
 21 42  1  0
 21 43  1  0
 22 44  1  0
 22 45  1  0
 23 46  1  1
 25 47  1  0
 25 48  1  0
 25 49  1  0
 26 50  1  0
 26 51  1  0
 27 52  1  0
 27 53  1  0
 28 54  1  0
 28 55  1  0
M  END
