
     RDKit          3D

 72 77  0  0  0  0  0  0  0  0999 V2000
    9.1146   -0.9677    1.5815 C   0  0  0  0  0  0  0  0  0  0  0  0
    8.8265    0.0953    0.1856 S   0  0  1  0  0  0  0  0  0  0  0  0
    9.8999    1.0861    0.1335 O   0  0  0  0  0  0  0  0  0  0  0  0
    8.5890   -0.7399   -0.9902 O   0  0  0  0  0  0  0  0  0  0  0  0
    7.3150    0.9328    0.6027 C   0  0  0  0  0  0  0  0  0  0  0  0
    7.3861    2.1732    1.2121 C   0  0  0  0  0  0  0  0  0  0  0  0
    6.1892    2.7974    1.5393 C   0  0  0  0  0  0  0  0  0  0  0  0
    4.9800    2.1891    1.2670 C   0  0  0  0  0  0  0  0  0  0  0  0
    4.9203    0.9291    0.6549 C   0  0  0  0  0  0  0  0  0  0  0  0
    3.6579    0.4100    0.4278 N   0  0  0  0  0  0  0  0  0  0  0  0
    3.2480   -0.8058   -0.0407 C   0  0  0  0  0  0  0  0  0  0  0  0
    4.1406   -1.7036   -0.4409 N   0  0  0  0  0  0  0  0  0  0  0  0
    3.6398   -2.8535   -0.8803 C   0  0  0  0  0  0  0  0  0  0  0  0
    2.2889   -3.1183   -0.9408 C   0  0  0  0  0  0  0  0  0  0  0  0
    1.4348   -2.1012   -0.4950 C   0  0  0  0  0  0  0  0  0  0  0  0
    1.9273   -0.9601   -0.0336 N   0  0  0  0  0  0  0  0  0  0  0  0
   -0.0086   -2.2543   -0.4951 C   0  0  0  0  0  0  0  0  0  0  0  0
   -0.7135   -3.8483   -0.4052 S   0  0  0  0  0  0  0  0  0  0  0  0
   -2.2864   -3.1150   -0.2778 C   0  0  0  0  0  0  0  0  0  0  0  0
   -2.2745   -1.8116   -0.3397 N   0  0  0  0  0  0  0  0  0  0  0  0
   -1.0146   -1.3202   -0.4624 C   0  0  0  0  0  0  0  0  0  0  0  0
   -0.8850    0.1420   -0.5778 C   0  0  0  0  0  0  0  0  0  0  0  0
   -0.0480    0.7427   -1.5149 C   0  0  0  0  0  0  0  0  0  0  0  0
    0.0078    2.1228   -1.6180 C   0  0  0  0  0  0  0  0  0  0  0  0
   -0.7650    2.9260   -0.7910 C   0  0  0  0  0  0  0  0  0  0  0  0
   -1.6193    2.3295    0.1263 C   0  0  0  0  0  0  0  0  0  0  0  0
   -2.4329    3.1392    0.9655 N   0  0  0  0  0  0  0  0  0  0  0  0
   -3.7972    3.8125    0.3095 S   0  0  1  0  0  0  0  0  0  0  0  0
   -4.5357    4.3948    1.4104 O   0  0  0  0  0  0  0  0  0  0  0  0
   -3.3874    4.6401   -0.8015 O   0  0  0  0  0  0  0  0  0  0  0  0
   -4.7260    2.4323   -0.3322 C   0  0  0  0  0  0  0  0  0  0  0  0
   -5.2452    1.4950    0.5592 C   0  0  0  0  0  0  0  0  0  0  0  0
   -4.9900    1.6512    1.8589 F   0  0  0  0  0  0  0  0  0  0  0  0
   -5.9826    0.4072    0.1537 C   0  0  0  0  0  0  0  0  0  0  0  0
   -6.2080    0.2370   -1.2048 C   0  0  0  0  0  0  0  0  0  0  0  0
   -5.7007    1.1323   -2.1301 C   0  0  0  0  0  0  0  0  0  0  0  0
   -4.9674    2.2164   -1.6867 C   0  0  0  0  0  0  0  0  0  0  0  0
   -4.4955    3.0577   -2.5965 F   0  0  0  0  0  0  0  0  0  0  0  0
   -1.6898    0.9461    0.2226 C   0  0  0  0  0  0  0  0  0  0  0  0
   -3.4002   -3.8470   -0.1232 N   0  0  0  0  0  0  0  0  0  0  0  0
   -3.3899   -5.2907   -0.2689 C   0  0  0  0  0  0  0  0  0  0  0  0
   -4.5228   -5.8968    0.5415 C   0  0  0  0  0  0  0  0  0  0  0  0
   -5.7633   -5.3117    0.2243 O   0  0  0  0  0  0  0  0  0  0  0  0
   -5.7471   -3.9304    0.5025 C   0  0  0  0  0  0  0  0  0  0  0  0
   -4.6952   -3.2107   -0.3176 C   0  0  0  0  0  0  0  0  0  0  0  0
    6.1160    0.2970    0.3100 C   0  0  0  0  0  0  0  0  0  0  0  0
    9.1900   -0.3653    2.4836 H   0  0  0  0  0  0  0  0  0  0  0  0
    8.2980   -1.6805    1.6704 H   0  0  0  0  0  0  0  0  0  0  0  0
   10.0521   -1.4936    1.4031 H   0  0  0  0  0  0  0  0  0  0  0  0
    8.3333    2.6477    1.4251 H   0  0  0  0  0  0  0  0  0  0  0  0
    6.1000   -0.6659   -0.1758 H   0  0  0  0  0  0  0  0  0  0  0  0
    6.2001    3.7699    2.0127 H   0  0  0  0  0  0  0  0  0  0  0  0
    4.0591    2.6944    1.5326 H   0  0  0  0  0  0  0  0  0  0  0  0
    2.8872    1.0000    0.7048 H   0  0  0  0  0  0  0  0  0  0  0  0
    4.3584   -3.5953   -1.2093 H   0  0  0  0  0  0  0  0  0  0  0  0
    1.9276   -4.0576   -1.3343 H   0  0  0  0  0  0  0  0  0  0  0  0
    0.5496    0.1326   -2.1778 H   0  0  0  0  0  0  0  0  0  0  0  0
   -2.3649    0.4863    0.9337 H   0  0  0  0  0  0  0  0  0  0  0  0
    0.6614    2.5808   -2.3483 H   0  0  0  0  0  0  0  0  0  0  0  0
   -0.6995    4.0029   -0.8558 H   0  0  0  0  0  0  0  0  0  0  0  0
   -2.5973    2.7685    1.8959 H   0  0  0  0  0  0  0  0  0  0  0  0
   -6.3689   -0.2889    0.8858 H   0  0  0  0  0  0  0  0  0  0  0  0
   -6.7869   -0.6092   -1.5479 H   0  0  0  0  0  0  0  0  0  0  0  0
   -5.8694    0.9987   -3.1898 H   0  0  0  0  0  0  0  0  0  0  0  0
   -3.4795   -5.5683   -1.3257 H   0  0  0  0  0  0  0  0  0  0  0  0
   -2.4520   -5.7030    0.1080 H   0  0  0  0  0  0  0  0  0  0  0  0
   -4.6302   -2.1705   -0.0065 H   0  0  0  0  0  0  0  0  0  0  0  0
   -4.9603   -3.2273   -1.3814 H   0  0  0  0  0  0  0  0  0  0  0  0
   -4.5913   -6.9626    0.3229 H   0  0  0  0  0  0  0  0  0  0  0  0
   -4.3047   -5.7827    1.6120 H   0  0  0  0  0  0  0  0  0  0  0  0
   -6.7327   -3.5327    0.2582 H   0  0  0  0  0  0  0  0  0  0  0  0
   -5.5647   -3.7537    1.5713 H   0  0  0  0  0  0  0  0  0  0  0  0
  2  1  1  1
  2  3  2  0
  2  4  2  0
  2  5  1  0
  5  6  2  0
  5 46  1  0
  6  7  1  0
  7  8  2  0
  8  9  1  0
  9 10  1  0
  9 46  2  0
 10 11  1  0
 11 12  2  0
 11 16  1  0
 12 13  1  0
 13 14  2  0
 14 15  1  0
 15 16  2  0
 15 17  1  0
 17 18  1  0
 17 21  2  0
 18 19  1  0
 19 20  2  0
 19 40  1  0
 20 21  1  0
 21 22  1  0
 22 23  2  0
 22 39  1  0
 23 24  1  0
 24 25  2  0
 25 26  1  0
 26 27  1  0
 26 39  2  0
 28 27  1  1
 28 29  2  0
 28 30  2  0
 28 31  1  0
 31 32  2  0
 31 37  1  0
 32 33  1  0
 32 34  1  0
 34 35  2  0
 35 36  1  0
 36 37  2  0
 37 38  1  0
 40 41  1  0
 40 45  1  0
 41 42  1  0
 42 43  1  0
 43 44  1  0
 44 45  1  0
  1 47  1  0
  1 48  1  0
  1 49  1  0
  6 50  1  0
 46 51  1  0
  7 52  1  0
  8 53  1  0
 10 54  1  0
 13 55  1  0
 14 56  1  0
 23 57  1  0
 39 58  1  0
 24 59  1  0
 25 60  1  0
 27 61  1  0
 34 62  1  0
 35 63  1  0
 36 64  1  0
 41 65  1  0
 41 66  1  0
 45 67  1  0
 45 68  1  0
 42 69  1  0
 42 70  1  0
 44 71  1  0
 44 72  1  0
M  END
