
     RDKit          3D

 19 20  0  0  0  0  0  0  0  0999 V2000
   -1.2290    0.0286   -2.1717 N   0  0  0  0  0  0  0  0  0  0  0  0
    0.9574    0.0186   -2.5761 N   0  0  0  0  0  0  0  0  0  0  0  0
   -0.2340    0.0309   -3.0963 C   0  0  0  0  0  0  0  0  0  0  0  0
    0.7435    0.0072   -1.2139 C   0  0  0  0  0  0  0  0  0  0  0  0
   -0.6351    0.0138   -0.9401 C   0  0  0  0  0  0  0  0  0  0  0  0
   -1.1518    0.0048    0.3473 C   0  0  0  0  0  0  0  0  0  0  0  0
   -0.2348   -0.0119    1.3924 C   0  0  0  0  0  0  0  0  0  0  0  0
    1.1507   -0.0196    1.1402 C   0  0  0  0  0  0  0  0  0  0  0  0
    1.6428   -0.0098   -0.1538 C   0  0  0  0  0  0  0  0  0  0  0  0
   -0.7628   -0.0215    2.6362 O   0  0  0  0  0  0  0  0  0  0  0  0
    0.1083   -0.0323    3.7477 C   0  0  0  0  0  0  0  0  0  0  0  0
   -2.2164    0.0367   -2.3711 H   0  0  0  0  0  0  0  0  0  0  0  0
   -0.4548    0.0410   -4.1533 H   0  0  0  0  0  0  0  0  0  0  0  0
   -2.2168    0.0096    0.5417 H   0  0  0  0  0  0  0  0  0  0  0  0
    1.8580   -0.0324    1.9573 H   0  0  0  0  0  0  0  0  0  0  0  0
    2.7110   -0.0143   -0.3290 H   0  0  0  0  0  0  0  0  0  0  0  0
   -0.5224   -0.0327    4.6335 H   0  0  0  0  0  0  0  0  0  0  0  0
    0.7383   -0.9255    3.7689 H   0  0  0  0  0  0  0  0  0  0  0  0
    0.7494    0.8527    3.7773 H   0  0  0  0  0  0  0  0  0  0  0  0
  1  3  1  0
  1  5  1  0
  1 12  1  0
  2  3  2  0
  2  4  1  0
  3 13  1  0
  4  5  2  0
  4  9  1  0
  5  6  1  0
  6  7  2  0
  6 14  1  0
  7  8  1  0
  7 10  1  0
  8  9  2  0
  8 15  1  0
  9 16  1  0
 10 11  1  0
 11 17  1  0
 11 18  1  0
 11 19  1  0
M  END
