
     RDKit          3D

 59 62  0  0  0  0  0  0  0  0999 V2000
    5.2980   -1.0491   -0.3636 C   0  0  1  0  0  0  0  0  0  0  0  0
    1.7110    1.4399   -0.3485 C   0  0  0  0  0  0  0  0  0  0  0  0
    0.3904    1.3667   -0.7694 C   0  0  0  0  0  0  0  0  0  0  0  0
    0.4223   -0.9161   -0.6077 C   0  0  0  0  0  0  0  0  0  0  0  0
    1.7408   -0.9709   -0.1650 C   0  0  0  0  0  0  0  0  0  0  0  0
    2.3911    0.2503   -0.0605 C   0  0  0  0  0  0  0  0  0  0  0  0
    4.7463   -0.1854    0.7699 C   0  0  2  0  0  0  0  0  0  0  0  0
    4.3981   -0.9902    2.0143 C   0  0  0  0  0  0  0  0  0  0  0  0
    3.6584    2.0323    0.2449 C   0  0  0  0  0  0  0  0  0  0  0  0
    5.7823    3.0042   -0.6339 C   0  0  0  0  0  0  0  0  0  0  0  0
    4.8572    2.8783    0.5734 C   0  0  1  0  0  0  0  0  0  0  0  0
    2.5277    2.5235   -0.1484 N   0  0  0  0  0  0  0  0  0  0  0  0
   -0.2259    0.2088   -0.9118 N   0  0  0  0  0  0  0  0  0  0  0  0
    3.6535    0.6495    0.3126 N   0  0  0  0  0  0  0  0  0  0  0  0
    5.4359   -0.3534   -1.4956 F   0  0  0  0  0  0  0  0  0  0  0  0
    6.5020   -1.5237   -0.0302 F   0  0  0  0  0  0  0  0  0  0  0  0
    4.5303   -2.1057   -0.6494 F   0  0  0  0  0  0  0  0  0  0  0  0
   -1.5498   -2.4103   -0.5258 C   0  0  0  0  0  0  0  0  0  0  0  0
   -2.0778   -3.6565   -0.9103 C   0  0  0  0  0  0  0  0  0  0  0  0
   -3.3887   -3.8734   -0.5626 C   0  0  0  0  0  0  0  0  0  0  0  0
   -4.1466   -2.9859    0.0760 N   0  0  0  0  0  0  0  0  0  0  0  0
   -3.5468   -1.8361    0.3930 C   0  0  0  0  0  0  0  0  0  0  0  0
   -2.2762   -1.5266    0.1292 N   0  0  0  0  0  0  0  0  0  0  0  0
   -4.2673   -0.9140    1.0869 N   0  0  0  0  0  0  0  0  0  0  0  0
   -5.6691   -1.1085    1.3971 C   0  0  0  0  0  0  0  0  0  0  0  0
   -6.5608   -0.2981    0.4615 C   0  0  0  0  0  0  0  0  0  0  0  0
   -6.1631    1.1705    0.5092 C   0  0  1  0  0  0  0  0  0  0  0  0
   -4.6741    1.3296    0.2275 C   0  0  1  0  0  0  0  0  0  0  0  0
   -3.8442    0.4662    1.1630 C   0  0  0  0  0  0  0  0  0  0  0  0
   -4.4259    0.9288   -1.0856 F   0  0  0  0  0  0  0  0  0  0  0  0
   -6.9700    1.8845   -0.3920 O   0  0  0  0  0  0  0  0  0  0  0  0
   -6.9920    3.2761   -0.1832 C   0  0  0  0  0  0  0  0  0  0  0  0
    4.3597    4.1238    0.9847 O   0  0  0  0  0  0  0  0  0  0  0  0
   -0.1679    2.2647   -1.0118 H   0  0  0  0  0  0  0  0  0  0  0  0
    2.1885   -1.9218    0.0790 H   0  0  0  0  0  0  0  0  0  0  0  0
    5.5662    0.4827    1.0335 H   0  0  0  0  0  0  0  0  0  0  0  0
    5.2675   -1.5436    2.3648 H   0  0  0  0  0  0  0  0  0  0  0  0
    4.1046   -0.3029    2.8053 H   0  0  0  0  0  0  0  0  0  0  0  0
    3.5858   -1.6958    1.8581 H   0  0  0  0  0  0  0  0  0  0  0  0
    6.6332    3.6397   -0.3853 H   0  0  0  0  0  0  0  0  0  0  0  0
    6.1789    2.0395   -0.9443 H   0  0  0  0  0  0  0  0  0  0  0  0
    5.2521    3.4441   -1.4786 H   0  0  0  0  0  0  0  0  0  0  0  0
    5.4178    2.4067    1.3922 H   0  0  0  0  0  0  0  0  0  0  0  0
    0.3272   -2.9102   -1.0731 H   0  0  0  0  0  0  0  0  0  0  0  0
   -1.4981   -4.3942   -1.4463 H   0  0  0  0  0  0  0  0  0  0  0  0
   -3.8673   -4.8123   -0.8215 H   0  0  0  0  0  0  0  0  0  0  0  0
   -5.9132   -2.1649    1.3482 H   0  0  0  0  0  0  0  0  0  0  0  0
   -5.8319   -0.7803    2.4291 H   0  0  0  0  0  0  0  0  0  0  0  0
   -6.4768   -0.6819   -0.5583 H   0  0  0  0  0  0  0  0  0  0  0  0
   -7.6033   -0.4071    0.7679 H   0  0  0  0  0  0  0  0  0  0  0  0
   -6.3241    1.5406    1.5357 H   0  0  0  0  0  0  0  0  0  0  0  0
   -4.3558    2.3725    0.3203 H   0  0  0  0  0  0  0  0  0  0  0  0
   -3.9726    0.8333    2.1863 H   0  0  0  0  0  0  0  0  0  0  0  0
   -2.7896    0.5454    0.9106 H   0  0  0  0  0  0  0  0  0  0  0  0
   -7.2614    3.5279    0.8490 H   0  0  0  0  0  0  0  0  0  0  0  0
   -6.0354    3.7590   -0.4088 H   0  0  0  0  0  0  0  0  0  0  0  0
   -7.7453    3.6972   -0.8479 H   0  0  0  0  0  0  0  0  0  0  0  0
    5.1148    4.6775    1.2095 H   0  0  0  0  0  0  0  0  0  0  0  0
   -0.2466   -2.1248   -0.8095 N   0  0  0  0  0  0  0  0  0  0  0  0
 30 28  1  0
 28 29  1  0
 28 27  1  0
 31 32  1  0
 31 27  1  0
 29 24  1  0
 27 26  1  0
 21 20  1  0
 21 22  2  0
 20 19  2  0
 24 22  1  0
 24 25  1  0
 26 25  1  0
 22 23  1  0
 19 18  1  0
 23 18  2  0
 18 59  1  0
 59  4  1  0
  1 17  1  6
 16  1  1  0
  4  5  2  0
  4 13  1  0
  5  6  1  0
  1 15  1  0
  1  7  1  0
  8  7  1  0
  7 14  1  0
 13  3  2  0
  6 14  1  0
  6  2  2  0
 14  9  1  0
  3  2  1  0
  2 12  1  0
  9 12  2  0
  9 11  1  0
 11 33  1  0
 11 10  1  0
  3 34  1  0
  5 35  1  0
  7 36  1  1
  8 37  1  0
  8 38  1  0
  8 39  1  0
 10 40  1  0
 10 41  1  0
 10 42  1  0
 11 43  1  1
 59 44  1  0
 19 45  1  0
 20 46  1  0
 25 47  1  0
 25 48  1  0
 26 49  1  0
 26 50  1  0
 27 51  1  1
 28 52  1  6
 29 53  1  0
 29 54  1  0
 32 55  1  0
 32 56  1  0
 32 57  1  0
 33 58  1  0
M  END
