
     RDKit          3D

 23 23  0  0  0  0  0  0  0  0999 V2000
    3.8846    0.0451    0.9595 O   0  0  0  0  0  0  0  0  0  0  0  0
    3.4014    0.0071   -0.1630 C   0  0  0  0  0  0  0  0  0  0  0  0
    4.1517   -0.0491   -1.2753 N   0  0  0  0  0  0  0  0  0  0  0  0
    1.9064    0.0240   -0.4143 C   0  0  0  0  0  0  0  0  0  0  0  0
    1.0682   -0.0149    0.8592 C   0  0  0  0  0  0  0  0  0  0  0  0
   -0.4024    0.0118    0.5429 C   0  0  0  0  0  0  0  0  0  0  0  0
   -1.1343   -1.1632    0.4067 C   0  0  0  0  0  0  0  0  0  0  0  0
   -2.4822   -1.1463    0.0745 C   0  0  0  0  0  0  0  0  0  0  0  0
   -3.1314    0.0670   -0.1327 C   0  0  0  0  0  0  0  0  0  0  0  0
   -4.4401    0.1501   -0.4558 O   0  0  0  0  0  0  0  0  0  0  0  0
   -2.4156    1.2544    0.0005 C   0  0  0  0  0  0  0  0  0  0  0  0
   -1.0711    1.2165    0.3342 C   0  0  0  0  0  0  0  0  0  0  0  0
    5.1569   -0.0503   -1.2169 H   0  0  0  0  0  0  0  0  0  0  0  0
    3.7405   -0.0773   -2.1924 H   0  0  0  0  0  0  0  0  0  0  0  0
    1.6657    0.9205   -0.9942 H   0  0  0  0  0  0  0  0  0  0  0  0
    1.6485   -0.8204   -1.0605 H   0  0  0  0  0  0  0  0  0  0  0  0
    1.3073   -0.9148    1.4281 H   0  0  0  0  0  0  0  0  0  0  0  0
    1.3259    0.8350    1.4939 H   0  0  0  0  0  0  0  0  0  0  0  0
   -0.6487   -2.1187    0.5686 H   0  0  0  0  0  0  0  0  0  0  0  0
   -3.0247   -2.0805   -0.0207 H   0  0  0  0  0  0  0  0  0  0  0  0
   -4.8177   -0.7316   -0.5459 H   0  0  0  0  0  0  0  0  0  0  0  0
   -2.9139    2.2033   -0.1560 H   0  0  0  0  0  0  0  0  0  0  0  0
   -0.5319    2.1514    0.4374 H   0  0  0  0  0  0  0  0  0  0  0  0
  1  2  2  0
  2  3  1  0
  2  4  1  0
  4  5  1  0
  5  6  1  0
  6  7  2  0
  6 12  1  0
  7  8  1  0
  8  9  2  0
  9 10  1  0
  9 11  1  0
 11 12  2  0
  3 13  1  0
  3 14  1  0
  4 15  1  0
  4 16  1  0
  5 17  1  0
  5 18  1  0
  7 19  1  0
  8 20  1  0
 10 21  1  0
 11 22  1  0
 12 23  1  0
M  END
