
     RDKit          3D

 70 73  0  0  0  0  0  0  0  0999 V2000
   -6.3883    1.0231    1.3569 N   0  0  0  0  0  0  0  0  0  0  0  0
   -6.2060    0.3050    0.2660 C   0  0  0  0  0  0  0  0  0  0  0  0
   -6.8265    0.5364   -0.9490 C   0  0  0  0  0  0  0  0  0  0  0  0
   -7.7091    1.6064   -1.0098 C   0  0  0  0  0  0  0  0  0  0  0  0
   -0.6910   -1.5719    0.6686 C   0  0  2  0  0  0  0  0  0  0  0  0
   -2.1321   -0.3220    2.3807 C   0  0  0  0  0  0  0  0  0  0  0  0
    1.2990   -0.8400   -0.6005 C   0  0  0  0  0  0  0  0  0  0  0  0
    2.1240    0.3731   -1.0216 C   0  0  2  0  0  0  0  0  0  0  0  0
   -0.0798    2.1634   -2.2843 C   0  0  0  0  0  0  0  0  0  0  0  0
   -7.9126    2.3772    0.1227 C   0  0  0  0  0  0  0  0  0  0  0  0
   -7.2263    2.0479    1.2844 C   0  0  0  0  0  0  0  0  0  0  0  0
   -5.0291   -1.0379    0.4324 S   0  0  1  0  0  0  0  0  0  0  0  0
   -5.2218   -1.6130    1.7506 O   0  0  0  0  0  0  0  0  0  0  0  0
   -5.1799   -1.8725   -0.7524 O   0  0  0  0  0  0  0  0  0  0  0  0
   -3.5799   -0.2677    0.3365 N   0  0  0  0  0  0  0  0  0  0  0  0
   -2.6439   -0.6304   -0.7104 C   0  0  0  0  0  0  0  0  0  0  0  0
   -1.7766   -1.8420   -0.3760 C   0  0  2  0  0  0  0  0  0  0  0  0
   -1.1545   -1.1556    2.0391 C   0  0  0  0  0  0  0  0  0  0  0  0
   -3.1177    0.4359    1.5323 C   0  0  2  0  0  0  0  0  0  0  0  0
   -2.5305   -2.9199    0.1122 O   0  0  0  0  0  0  0  0  0  0  0  0
   -2.5931    1.8297    1.1881 C   0  0  0  0  0  0  0  0  0  0  0  0
    0.2459   -0.5679    0.1872 N   0  0  0  0  0  0  0  0  0  0  0  0
    1.5825   -1.9600   -0.9935 O   0  0  0  0  0  0  0  0  0  0  0  0
    1.9321    0.6376   -2.5185 C   0  0  0  0  0  0  0  0  0  0  0  0
    0.4205    1.0393   -4.4650 C   0  0  0  0  0  0  0  0  0  0  0  0
    3.5120    0.1166   -0.7149 N   0  0  0  0  0  0  0  0  0  0  0  0
    3.8479    1.9505    0.5840 O   0  0  0  0  0  0  0  0  0  0  0  0
    5.6632    0.5254    0.2427 C   0  0  0  0  0  0  0  0  0  0  0  0
    6.6377    1.1538    0.9372 C   0  0  0  0  0  0  0  0  0  0  0  0
    7.8080    0.3424    0.7919 C   0  0  0  0  0  0  0  0  0  0  0  0
    7.4170   -0.7379   -0.0036 C   0  0  0  0  0  0  0  0  0  0  0  0
    6.1133   -0.6222   -0.3343 O   0  0  0  0  0  0  0  0  0  0  0  0
    9.1282    0.4164    1.2434 C   0  0  0  0  0  0  0  0  0  0  0  0
    9.9975   -0.5938    0.8789 C   0  0  0  0  0  0  0  0  0  0  0  0
    9.5744   -1.6657    0.0785 C   0  0  0  0  0  0  0  0  0  0  0  0
    8.2715   -1.7605   -0.3802 C   0  0  0  0  0  0  0  0  0  0  0  0
   -6.6420   -0.0861   -1.8120 H   0  0  0  0  0  0  0  0  0  0  0  0
   -8.2289    1.8295   -1.9316 H   0  0  0  0  0  0  0  0  0  0  0  0
   -0.1330   -2.5048    0.7773 H   0  0  0  0  0  0  0  0  0  0  0  0
   -2.2243   -0.0978    3.4388 H   0  0  0  0  0  0  0  0  0  0  0  0
    1.8259    1.2541   -0.4527 H   0  0  0  0  0  0  0  0  0  0  0  0
   -0.1337    0.0561   -2.6618 H   0  0  0  0  0  0  0  0  0  0  0  0
   -0.0802    2.1011   -1.1949 H   0  0  0  0  0  0  0  0  0  0  0  0
    0.5016    3.0467   -2.5585 H   0  0  0  0  0  0  0  0  0  0  0  0
   -1.1112    2.3352   -2.5963 H   0  0  0  0  0  0  0  0  0  0  0  0
   -8.5911    3.2183    0.1139 H   0  0  0  0  0  0  0  0  0  0  0  0
   -7.3613    2.6279    2.1890 H   0  0  0  0  0  0  0  0  0  0  0  0
   -3.1890   -0.8115   -1.6358 H   0  0  0  0  0  0  0  0  0  0  0  0
   -2.0127    0.2354   -0.9201 H   0  0  0  0  0  0  0  0  0  0  0  0
   -1.2529   -2.1146   -1.3035 H   0  0  0  0  0  0  0  0  0  0  0  0
   -0.5452   -1.5446    2.8473 H   0  0  0  0  0  0  0  0  0  0  0  0
   -3.9951    0.6024    2.1579 H   0  0  0  0  0  0  0  0  0  0  0  0
   -3.1300   -3.2180   -0.5793 H   0  0  0  0  0  0  0  0  0  0  0  0
   -1.6938    1.8097    0.5715 H   0  0  0  0  0  0  0  0  0  0  0  0
   -3.3556    2.4035    0.6618 H   0  0  0  0  0  0  0  0  0  0  0  0
   -2.3376    2.3613    2.1041 H   0  0  0  0  0  0  0  0  0  0  0  0
    0.1481    0.3672    0.5488 H   0  0  0  0  0  0  0  0  0  0  0  0
    2.3184   -0.2196   -3.0779 H   0  0  0  0  0  0  0  0  0  0  0  0
    2.5568    1.4948   -2.7880 H   0  0  0  0  0  0  0  0  0  0  0  0
    1.0317    1.8751   -4.8140 H   0  0  0  0  0  0  0  0  0  0  0  0
    0.7801    0.1346   -4.9578 H   0  0  0  0  0  0  0  0  0  0  0  0
   -0.6032    1.2144   -4.7994 H   0  0  0  0  0  0  0  0  0  0  0  0
    3.9299   -0.7025   -1.1307 H   0  0  0  0  0  0  0  0  0  0  0  0
    6.5398    2.0778    1.4835 H   0  0  0  0  0  0  0  0  0  0  0  0
    9.4600    1.2425    1.8584 H   0  0  0  0  0  0  0  0  0  0  0  0
   11.0254   -0.5624    1.2148 H   0  0  0  0  0  0  0  0  0  0  0  0
   10.2845   -2.4369   -0.1887 H   0  0  0  0  0  0  0  0  0  0  0  0
    7.9428   -2.5865   -0.9965 H   0  0  0  0  0  0  0  0  0  0  0  0
    0.4890    0.9131   -2.9467 C   0  0  2  0  0  0  0  0  0  0  0  0
    4.2576    0.9278    0.0533 C   0  0  0  0  0  0  0  0  0  0  0  0
  1  2  2  0
  1 11  1  0
  2  3  1  0
 12  2  1  6
  3  4  2  0
  3 37  1  0
  4 10  1  0
  4 38  1  0
  5 17  1  0
  5 18  1  0
  5 22  1  0
  5 39  1  1
  6 18  2  0
  6 19  1  0
  6 40  1  0
  7  8  1  0
  7 22  1  0
  7 23  2  0
  8 24  1  0
  8 26  1  0
  8 41  1  1
 69  9  1  0
 69 24  1  0
 69 25  1  0
 69 42  1  1
  9 43  1  0
  9 44  1  0
  9 45  1  0
 70 26  1  0
 70 27  2  0
 70 28  1  0
 10 11  2  0
 10 46  1  0
 11 47  1  0
 12 13  2  0
 12 14  2  0
 12 15  1  0
 15 16  1  0
 15 19  1  0
 16 17  1  0
 16 48  1  0
 16 49  1  0
 17 20  1  0
 17 50  1  6
 18 51  1  0
 19 21  1  0
 19 52  1  1
 20 53  1  0
 21 54  1  0
 21 55  1  0
 21 56  1  0
 22 57  1  0
 24 58  1  0
 24 59  1  0
 25 60  1  0
 25 61  1  0
 25 62  1  0
 26 63  1  0
 28 29  2  0
 28 32  1  0
 29 30  1  0
 29 64  1  0
 30 31  2  0
 30 33  1  0
 31 32  1  0
 31 36  1  0
 33 34  2  0
 33 65  1  0
 34 35  1  0
 34 66  1  0
 35 36  2  0
 35 67  1  0
 36 68  1  0
M  END
