
     RDKit          3D

 57 60  0  0  0  0  0  0  0  0999 V2000
   -1.7281    0.1591   -3.3396 C   0  0  0  0  0  0  0  0  0  0  0  0
   -1.6327    0.9026   -4.4408 C   0  0  0  0  0  0  0  0  0  0  0  0
   -0.3520    1.0871   -5.1300 C   0  0  0  0  0  0  0  0  0  0  0  0
    0.7952    0.3851   -4.5622 C   0  0  0  0  0  0  0  0  0  0  0  0
    0.7122   -0.3672   -3.4580 C   0  0  0  0  0  0  0  0  0  0  0  0
    1.9056   -1.0520   -2.8770 C   0  0  0  0  0  0  0  0  0  0  0  0
    2.1145   -0.6376   -1.4221 C   0  0  0  0  0  0  0  0  0  0  0  0
    0.8438   -0.7422   -0.5788 C   0  0  2  0  0  0  0  0  0  0  0  0
   -0.3352   -0.0336   -1.2658 C   0  0  1  0  0  0  0  0  0  0  0  0
   -0.5847   -0.5760   -2.7139 C   0  0  1  0  0  0  0  0  0  0  0  0
   -1.5954    0.0957   -0.3859 C   0  0  2  0  0  0  0  0  0  0  0  0
   -1.2821    0.5901    1.0334 C   0  0  0  0  0  0  0  0  0  0  0  0
   -0.1579   -0.1888    1.7105 C   0  0  1  0  0  0  0  0  0  0  0  0
    1.0721   -0.1247    0.7947 C   0  0  1  0  0  0  0  0  0  0  0  0
    2.2071   -0.6636    1.6590 C   0  0  0  0  0  0  0  0  0  0  0  0
    1.8363   -0.2349    3.1011 C   0  0  2  0  0  0  0  0  0  0  0  0
    0.4494    0.4619    2.9967 C   0  0  2  0  0  0  0  0  0  0  0  0
   -0.5806   -1.6314    2.0259 C   0  0  0  0  0  0  0  0  0  0  0  0
   -0.9338   -2.0816   -2.7968 C   0  0  0  0  0  0  0  0  0  0  0  0
   -0.4201    0.2429    4.2361 C   0  0  0  0  0  0  0  0  0  0  0  0
   -1.4730    1.2936    4.5155 C   0  0  0  0  0  0  0  0  0  0  0  0
    2.9036    0.6121    3.7805 C   0  0  0  0  0  0  0  0  0  0  0  0
    0.0593    1.3015   -1.4680 F   0  0  0  0  0  0  0  0  0  0  0  0
   -0.2547    1.7854   -6.1302 O   0  0  0  0  0  0  0  0  0  0  0  0
   -2.2724   -1.1359   -0.3960 O   0  0  0  0  0  0  0  0  0  0  0  0
    0.5530    1.8478    2.7581 O   0  0  0  0  0  0  0  0  0  0  0  0
   -0.2950   -0.7135    4.9617 O   0  0  0  0  0  0  0  0  0  0  0  0
   -2.3147    0.8320    5.5309 O   0  0  0  0  0  0  0  0  0  0  0  0
   -2.6996    0.0197   -2.8785 H   0  0  0  0  0  0  0  0  0  0  0  0
   -2.5054    1.3861   -4.8634 H   0  0  0  0  0  0  0  0  0  0  0  0
    1.7454    0.4997   -5.0733 H   0  0  0  0  0  0  0  0  0  0  0  0
    2.7948   -0.8210   -3.4648 H   0  0  0  0  0  0  0  0  0  0  0  0
    1.7663   -2.1362   -2.9321 H   0  0  0  0  0  0  0  0  0  0  0  0
    2.4883    0.3890   -1.3904 H   0  0  0  0  0  0  0  0  0  0  0  0
    2.8926   -1.2615   -0.9790 H   0  0  0  0  0  0  0  0  0  0  0  0
    0.5854   -1.7994   -0.4638 H   0  0  0  0  0  0  0  0  0  0  0  0
   -2.2208    0.8703   -0.8517 H   0  0  0  0  0  0  0  0  0  0  0  0
   -2.2149    0.5496    1.6079 H   0  0  0  0  0  0  0  0  0  0  0  0
   -1.0126    1.6453    0.9702 H   0  0  0  0  0  0  0  0  0  0  0  0
    1.2873    0.9347    0.6241 H   0  0  0  0  0  0  0  0  0  0  0  0
    3.1745   -0.2575    1.3584 H   0  0  0  0  0  0  0  0  0  0  0  0
    2.2853   -1.7515    1.5856 H   0  0  0  0  0  0  0  0  0  0  0  0
    1.7094   -1.1295    3.7110 H   0  0  0  0  0  0  0  0  0  0  0  0
   -0.6688   -2.2313    1.1256 H   0  0  0  0  0  0  0  0  0  0  0  0
    0.1226   -2.1409    2.6822 H   0  0  0  0  0  0  0  0  0  0  0  0
   -1.5548   -1.6511    2.5176 H   0  0  0  0  0  0  0  0  0  0  0  0
   -0.8334   -2.4083   -3.8322 H   0  0  0  0  0  0  0  0  0  0  0  0
   -0.2765   -2.6994   -2.1890 H   0  0  0  0  0  0  0  0  0  0  0  0
   -1.9541   -2.2702   -2.4808 H   0  0  0  0  0  0  0  0  0  0  0  0
   -2.0114    1.5136    3.5831 H   0  0  0  0  0  0  0  0  0  0  0  0
   -0.9586    2.2251    4.7894 H   0  0  0  0  0  0  0  0  0  0  0  0
    3.8155    0.0277    3.9027 H   0  0  0  0  0  0  0  0  0  0  0  0
    3.1766    1.4942    3.1973 H   0  0  0  0  0  0  0  0  0  0  0  0
    2.5983    0.9380    4.7779 H   0  0  0  0  0  0  0  0  0  0  0  0
   -3.0145   -1.0704    0.2143 H   0  0  0  0  0  0  0  0  0  0  0  0
    1.1820    2.2355    3.3757 H   0  0  0  0  0  0  0  0  0  0  0  0
   -2.9490    1.5288    5.7218 H   0  0  0  0  0  0  0  0  0  0  0  0
  1  2  2  0
  1 10  1  0
  1 29  1  0
  2  3  1  0
  2 30  1  0
  3  4  1  0
  3 24  2  0
  4  5  2  0
  4 31  1  0
  5  6  1  0
  5 10  1  0
  6  7  1  0
  6 32  1  0
  6 33  1  0
  7  8  1  0
  7 34  1  0
  7 35  1  0
  8  9  1  0
  8 14  1  0
  8 36  1  1
  9 10  1  0
  9 11  1  0
  9 23  1  6
 10 19  1  1
 11 12  1  0
 11 25  1  0
 11 37  1  6
 12 13  1  0
 12 38  1  0
 12 39  1  0
 13 14  1  0
 13 17  1  0
 13 18  1  1
 14 15  1  0
 14 40  1  6
 15 16  1  0
 15 41  1  0
 15 42  1  0
 16 17  1  0
 16 22  1  0
 16 43  1  1
 17 20  1  0
 17 26  1  6
 18 44  1  0
 18 45  1  0
 18 46  1  0
 19 47  1  0
 19 48  1  0
 19 49  1  0
 20 21  1  0
 20 27  2  0
 21 28  1  0
 21 50  1  0
 21 51  1  0
 22 52  1  0
 22 53  1  0
 22 54  1  0
 25 55  1  0
 26 56  1  0
 28 57  1  0
M  END
