
     RDKit          3D

 34 36  0  0  0  0  0  0  0  0999 V2000
    4.4028   -1.4223   -0.6674 N   0  0  0  0  0  0  0  0  0  0  0  0
    5.6463   -0.2717    0.7836 N   0  0  0  0  0  0  0  0  0  0  0  0
    3.5922   -0.4120   -0.2081 C   0  0  0  0  0  0  0  0  0  0  0  0
    4.3947    0.2955    0.7010 C   0  0  0  0  0  0  0  0  0  0  0  0
   -0.5714    0.9514   -0.7339 C   0  0  0  0  0  0  0  0  0  0  0  0
    2.2818   -0.0804   -0.5067 C   0  0  0  0  0  0  0  0  0  0  0  0
   -1.8404    1.7916   -0.7264 C   0  0  0  0  0  0  0  0  0  0  0  0
   -3.6499    0.5335    0.4580 C   0  0  0  0  0  0  0  0  0  0  0  0
   -4.7762   -0.2735    0.4411 C   0  0  0  0  0  0  0  0  0  0  0  0
   -3.6365    0.5129   -1.9414 C   0  0  0  0  0  0  0  0  0  0  0  0
   -5.3481   -0.6953   -0.7485 C   0  0  0  0  0  0  0  0  0  0  0  0
    5.6065   -1.2885   -0.0402 C   0  0  0  0  0  0  0  0  0  0  0  0
    1.7555    1.0286    0.1563 C   0  0  0  0  0  0  0  0  0  0  0  0
   -0.5020   -0.0987   -1.3480 O   0  0  0  0  0  0  0  0  0  0  0  0
    6.6087   -2.1804   -0.2356 N   0  0  0  0  0  0  0  0  0  0  0  0
    3.8525    1.4001    1.3463 C   0  0  0  0  0  0  0  0  0  0  0  0
   -3.0717    0.9344   -0.7423 C   0  0  0  0  0  0  0  0  0  0  0  0
    2.5424    1.7519    1.0677 C   0  0  0  0  0  0  0  0  0  0  0  0
   -4.7662   -0.2922   -1.9421 C   0  0  0  0  0  0  0  0  0  0  0  0
    4.1472   -2.1523   -1.3132 H   0  0  0  0  0  0  0  0  0  0  0  0
    1.7042   -0.6551   -1.2121 H   0  0  0  0  0  0  0  0  0  0  0  0
   -1.8581    2.4669    0.1304 H   0  0  0  0  0  0  0  0  0  0  0  0
   -1.8105    2.4237   -1.6190 H   0  0  0  0  0  0  0  0  0  0  0  0
   -3.2236    0.8519    1.4010 H   0  0  0  0  0  0  0  0  0  0  0  0
   -3.1986    0.8240   -2.8811 H   0  0  0  0  0  0  0  0  0  0  0  0
   -6.2298   -1.3215   -0.7468 H   0  0  0  0  0  0  0  0  0  0  0  0
    0.2359    2.3590    0.4489 H   0  0  0  0  0  0  0  0  0  0  0  0
    6.6413   -2.6517   -1.1252 H   0  0  0  0  0  0  0  0  0  0  0  0
    7.5134   -1.8799    0.0889 H   0  0  0  0  0  0  0  0  0  0  0  0
    4.4350    1.9757    2.0539 H   0  0  0  0  0  0  0  0  0  0  0  0
    2.1109    2.6099    1.5700 H   0  0  0  0  0  0  0  0  0  0  0  0
   -5.2037   -0.6087   -2.8797 H   0  0  0  0  0  0  0  0  0  0  0  0
    0.4454    1.4979   -0.0323 N   0  0  0  0  0  0  0  0  0  0  0  0
   -5.4873   -0.7617    1.9468 Cl  0  0  0  0  0  0  0  0  0  0  0  0
 34  9  1  0
 11  9  1  0
 11 19  2  0
  9  8  2  0
 19 10  1  0
  8 17  1  0
 10 17  2  0
 17  7  1  0
  7  5  1  0
 33  5  1  0
 33 13  1  0
  5 14  2  0
 18 13  2  0
 18 16  1  0
 13  6  1  0
 16  4  2  0
  6  3  2  0
  4  3  1  0
  4  2  1  0
  3  1  1  0
  2 12  2  0
  1 12  1  0
 12 15  1  0
  1 20  1  0
  6 21  1  0
  7 22  1  0
  7 23  1  0
  8 24  1  0
 10 25  1  0
 11 26  1  0
 33 27  1  0
 15 28  1  0
 15 29  1  0
 16 30  1  0
 18 31  1  0
 19 32  1  0
M  END
