
     RDKit          3D

 44 47  0  0  0  0  0  0  0  0999 V2000
   -0.5685    3.8089    0.5186 O   0  0  0  0  0  0  0  0  0  0  0  0
    1.0006    2.0597    0.2890 C   0  0  0  0  0  0  0  0  0  0  0  0
    2.1333    2.7961    0.4550 C   0  0  0  0  0  0  0  0  0  0  0  0
   -0.3723    2.6210    0.3308 C   0  0  0  0  0  0  0  0  0  0  0  0
   -2.7093    1.8445    0.0803 C   0  0  0  0  0  0  0  0  0  0  0  0
   -3.3912    3.0455    0.2352 C   0  0  0  0  0  0  0  0  0  0  0  0
    2.4528    0.4217    0.0513 C   0  0  0  0  0  0  0  0  0  0  0  0
    3.9085   -3.5500   -0.5602 C   0  0  0  0  0  0  0  0  0  0  0  0
    2.6000   -3.3522   -0.1488 C   0  0  0  0  0  0  0  0  0  0  0  0
    4.7558   -2.4711   -0.7599 C   0  0  0  0  0  0  0  0  0  0  0  0
    4.2623   -1.2042   -0.5434 C   0  0  0  0  0  0  0  0  0  0  0  0
    2.9532   -0.9373   -0.1417 C   0  0  0  0  0  0  0  0  0  0  0  0
   -2.7774   -0.4461   -0.3095 O   0  0  0  0  0  0  0  0  0  0  0  0
    2.1485   -2.0645    0.0529 C   0  0  0  0  0  0  0  0  0  0  0  0
    3.4953    1.7901    0.3150 S   0  0  0  0  0  0  0  0  0  0  0  0
    1.1951    0.7345    0.0659 N   0  0  0  0  0  0  0  0  0  0  0  0
    0.8937   -1.9042    0.4672 F   0  0  0  0  0  0  0  0  0  0  0  0
   -1.3271    1.6835    0.1404 N   0  0  0  0  0  0  0  0  0  0  0  0
   -3.4718    0.6836   -0.1647 C   0  0  0  0  0  0  0  0  0  0  0  0
   -4.8501    0.8002   -0.2441 C   0  0  0  0  0  0  0  0  0  0  0  0
   -5.4176    2.0555   -0.0757 C   0  0  0  0  0  0  0  0  0  0  0  0
   -4.7169    3.1507    0.1594 N   0  0  0  0  0  0  0  0  0  0  0  0
   -3.4563   -1.6743   -0.5922 C   0  0  2  0  0  0  0  0  0  0  0  0
   -4.2198   -2.2052    0.6412 C   0  0  0  0  0  0  0  0  0  0  0  0
   -3.6467   -3.5206    0.8903 N   0  0  0  0  0  0  0  0  0  0  0  0
   -2.2598   -3.4584    0.4645 C   0  0  0  0  0  0  0  0  0  0  0  0
   -2.3885   -2.7319   -0.8662 C   0  0  0  0  0  0  0  0  0  0  0  0
    2.2269    3.8559    0.6325 H   0  0  0  0  0  0  0  0  0  0  0  0
   -2.8481    3.9582    0.4275 H   0  0  0  0  0  0  0  0  0  0  0  0
    4.2732   -4.5544   -0.7223 H   0  0  0  0  0  0  0  0  0  0  0  0
    1.9334   -4.1867    0.0210 H   0  0  0  0  0  0  0  0  0  0  0  0
    5.7803   -2.6074   -1.0775 H   0  0  0  0  0  0  0  0  0  0  0  0
   -0.9820    0.7408    0.0038 H   0  0  0  0  0  0  0  0  0  0  0  0
   -5.4901   -0.0508   -0.4298 H   0  0  0  0  0  0  0  0  0  0  0  0
   -6.4949    2.1638   -0.1335 H   0  0  0  0  0  0  0  0  0  0  0  0
   -4.1109   -1.5200   -1.4538 H   0  0  0  0  0  0  0  0  0  0  0  0
   -4.0834   -1.5068    1.4776 H   0  0  0  0  0  0  0  0  0  0  0  0
   -5.2939   -2.2803    0.4570 H   0  0  0  0  0  0  0  0  0  0  0  0
   -3.7429   -3.7891    1.8600 H   0  0  0  0  0  0  0  0  0  0  0  0
   -1.6123   -2.8919    1.1488 H   0  0  0  0  0  0  0  0  0  0  0  0
   -1.8352   -4.4582    0.3587 H   0  0  0  0  0  0  0  0  0  0  0  0
   -2.7536   -3.4183   -1.6310 H   0  0  0  0  0  0  0  0  0  0  0  0
   -1.4566   -2.2963   -1.2245 H   0  0  0  0  0  0  0  0  0  0  0  0
    5.0814   -0.1617   -0.7294 F   0  0  0  0  0  0  0  0  0  0  0  0
  1  4  2  0
  3 15  1  0
  3  2  2  0
 15  7  1  0
  4  2  1  0
  4 18  1  0
  6 22  2  0
  6  5  1  0
  2 16  1  0
 22 21  1  0
 18  5  1  0
  5 19  2  0
 17 14  1  0
 16  7  2  0
  7 12  1  0
 21 20  2  0
 19 20  1  0
 19 13  1  0
 14 12  2  0
 14  9  1  0
 12 11  1  0
 13 23  1  0
  9  8  2  0
 11 44  1  0
 11 10  2  0
 24 25  1  0
 24 23  1  0
 25 26  1  0
 23 27  1  0
  8 10  1  0
 26 27  1  0
  3 28  1  0
  6 29  1  0
  8 30  1  0
  9 31  1  0
 10 32  1  0
 18 33  1  0
 20 34  1  0
 21 35  1  0
 23 36  1  6
 24 37  1  0
 24 38  1  0
 25 39  1  0
 26 40  1  0
 26 41  1  0
 27 42  1  0
 27 43  1  0
M  END
