
     RDKit          3D

 44 47  0  0  0  0  0  0  0  0999 V2000
    3.5279   -1.1361   -0.9970 C   0  0  0  0  0  0  0  0  0  0  0  0
    4.4723   -0.4411   -0.2563 C   0  0  0  0  0  0  0  0  0  0  0  0
    4.2268    0.8756    0.1112 C   0  0  0  0  0  0  0  0  0  0  0  0
   -2.7040    1.4795   -1.2929 O   0  0  0  0  0  0  0  0  0  0  0  0
    5.2665    1.6447    0.8633 C   0  0  1  0  0  0  0  0  0  0  0  0
   -4.9658    3.5661   -0.9939 C   0  0  0  0  0  0  0  0  0  0  0  0
    0.1237   -1.5681   -1.3719 N   0  0  0  0  0  0  0  0  0  0  0  0
   -0.8739   -0.6666   -1.3263 N   0  0  0  0  0  0  0  0  0  0  0  0
   -5.2524    0.4470    0.9195 O   0  0  0  0  0  0  0  0  0  0  0  0
   -6.3925    1.0620    1.3087 N   0  0  0  0  0  0  0  0  0  0  0  0
    2.3381   -0.5300   -1.3792 C   0  0  0  0  0  0  0  0  0  0  0  0
    1.3001   -1.2950   -2.1605 C   0  0  0  0  0  0  0  0  0  0  0  0
   -1.7048   -1.0764   -0.4068 C   0  0  0  0  0  0  0  0  0  0  0  0
   -3.3028    0.7787   -0.5030 C   0  0  0  0  0  0  0  0  0  0  0  0
   -4.5898    1.2330    0.0596 C   0  0  0  0  0  0  0  0  0  0  0  0
   -5.2768    2.3881   -0.1407 C   0  0  0  0  0  0  0  0  0  0  0  0
   -6.4137    2.2038    0.6894 C   0  0  0  0  0  0  0  0  0  0  0  0
   -1.2534   -2.2843    0.2014 C   0  0  0  0  0  0  0  0  0  0  0  0
   -1.7244   -3.1464    1.1983 C   0  0  0  0  0  0  0  0  0  0  0  0
   -0.9600   -4.2465    1.5145 C   0  0  0  0  0  0  0  0  0  0  0  0
    0.2612   -4.4961    0.8557 C   0  0  0  0  0  0  0  0  0  0  0  0
    0.7414   -3.6645   -0.1308 C   0  0  0  0  0  0  0  0  0  0  0  0
   -0.0424   -2.5516   -0.4557 C   0  0  0  0  0  0  0  0  0  0  0  0
    2.1036    0.7916   -1.0096 C   0  0  0  0  0  0  0  0  0  0  0  0
    3.0401    1.4936   -0.2706 C   0  0  0  0  0  0  0  0  0  0  0  0
    4.7388    2.6249    1.6048 F   0  0  0  0  0  0  0  0  0  0  0  0
    5.9755    0.8656    1.6885 F   0  0  0  0  0  0  0  0  0  0  0  0
    6.1481    2.2236    0.0321 F   0  0  0  0  0  0  0  0  0  0  0  0
    3.7274   -2.1617   -1.2821 H   0  0  0  0  0  0  0  0  0  0  0  0
    5.3901   -0.9388    0.0272 H   0  0  0  0  0  0  0  0  0  0  0  0
   -4.9228    3.2914   -2.0472 H   0  0  0  0  0  0  0  0  0  0  0  0
   -5.7309    4.3302   -0.8748 H   0  0  0  0  0  0  0  0  0  0  0  0
   -4.0035    4.0038   -0.7328 H   0  0  0  0  0  0  0  0  0  0  0  0
   -3.4602   -0.9270    0.6001 H   0  0  0  0  0  0  0  0  0  0  0  0
    1.7077   -2.2424   -2.5138 H   0  0  0  0  0  0  0  0  0  0  0  0
    0.9817   -0.7340   -3.0387 H   0  0  0  0  0  0  0  0  0  0  0  0
   -7.2379    2.8852    0.8429 H   0  0  0  0  0  0  0  0  0  0  0  0
   -2.6603   -2.9612    1.7109 H   0  0  0  0  0  0  0  0  0  0  0  0
   -1.2959   -4.9321    2.2807 H   0  0  0  0  0  0  0  0  0  0  0  0
    0.8382   -5.3674    1.1369 H   0  0  0  0  0  0  0  0  0  0  0  0
    1.6821   -3.8717   -0.6233 H   0  0  0  0  0  0  0  0  0  0  0  0
    1.1812    1.2782   -1.3010 H   0  0  0  0  0  0  0  0  0  0  0  0
    2.8352    2.5203    0.0009 H   0  0  0  0  0  0  0  0  0  0  0  0
   -2.8824   -0.4342   -0.0641 N   0  0  0  0  0  0  0  0  0  0  0  0
  5 26  1  1
 27  5  1  0
  5 28  1  0
  5  3  1  0
 25  3  2  0
 25 24  1  0
  3  2  1  0
 24 11  2  0
  2  1  2  0
 11  1  1  0
 11 12  1  0
 21 22  1  0
 21 20  2  0
 22 23  2  0
 20 19  1  0
 12  7  1  0
 23  7  1  0
 23 18  1  0
  7  8  1  0
 19 18  2  0
 18 13  1  0
  8 13  2  0
 13 44  1  0
  4 14  2  0
 14 44  1  0
 14 15  1  0
  9 15  1  0
  9 10  1  0
 15 16  2  0
 10 17  2  0
 16 17  1  0
 16  6  1  0
  1 29  1  0
  2 30  1  0
  6 31  1  0
  6 32  1  0
  6 33  1  0
 44 34  1  0
 12 35  1  0
 12 36  1  0
 17 37  1  0
 19 38  1  0
 20 39  1  0
 21 40  1  0
 22 41  1  0
 24 42  1  0
 25 43  1  0
M  END
