
     RDKit          3D

 47 49  0  0  0  0  0  0  0  0999 V2000
   -0.2954    0.3066    1.0353 C   0  0  0  0  0  0  0  0  0  0  0  0
   -1.4548   -0.3397    1.0959 N   0  0  0  0  0  0  0  0  0  0  0  0
   -2.5213    0.2740    1.5959 C   0  0  0  0  0  0  0  0  0  0  0  0
   -2.4084    1.6260    2.0087 C   0  0  0  0  0  0  0  0  0  0  0  0
   -1.2570    2.2534    1.9658 N   0  0  0  0  0  0  0  0  0  0  0  0
   -0.1882    1.6113    1.4992 C   0  0  0  0  0  0  0  0  0  0  0  0
   -3.6650   -0.4443    1.7099 N   0  0  0  0  0  0  0  0  0  0  0  0
   -3.7848   -1.7068    1.0075 C   0  0  0  0  0  0  0  0  0  0  0  0
   -3.8327   -1.5771   -0.5160 C   0  0  0  0  0  0  0  0  0  0  0  0
   -4.4918   -0.3727   -0.9737 N   0  0  0  0  0  0  0  0  0  0  0  0
   -5.7758   -0.0904   -0.3445 C   0  0  0  0  0  0  0  0  0  0  0  0
   -5.6360    0.8234    0.8717 C   0  0  0  0  0  0  0  0  0  0  0  0
   -4.9258    0.1853    2.0590 C   0  0  0  0  0  0  0  0  0  0  0  0
   -4.5427   -0.3416   -2.4182 C   0  0  0  0  0  0  0  0  0  0  0  0
    2.9985   -1.8684   -0.6171 C   0  0  0  0  0  0  0  0  0  0  0  0
    1.8410   -2.5234   -0.2377 C   0  0  0  0  0  0  0  0  0  0  0  0
    0.7719   -1.8166    0.2962 C   0  0  0  0  0  0  0  0  0  0  0  0
    0.8493   -0.4345    0.4635 C   0  0  0  0  0  0  0  0  0  0  0  0
    2.0176    0.2159    0.0715 C   0  0  0  0  0  0  0  0  0  0  0  0
    3.0982   -0.4820   -0.4666 C   0  0  0  0  0  0  0  0  0  0  0  0
    4.2830    0.2774   -0.8513 C   0  0  0  0  0  0  0  0  0  0  0  0
    5.4085   -0.2137   -1.3807 C   0  0  0  0  0  0  0  0  0  0  0  0
    6.5266    0.6816   -1.7158 C   0  0  0  0  0  0  0  0  0  0  0  0
    7.5506    0.0095   -2.2336 O   0  0  0  0  0  0  0  0  0  0  0  0
    6.5389    1.8801   -1.5507 O   0  0  0  0  0  0  0  0  0  0  0  0
   -3.2576    2.1916    2.3703 H   0  0  0  0  0  0  0  0  0  0  0  0
    0.7475    2.1548    1.5047 H   0  0  0  0  0  0  0  0  0  0  0  0
   -2.9647   -2.3732    1.2767 H   0  0  0  0  0  0  0  0  0  0  0  0
   -4.6985   -2.1760    1.3720 H   0  0  0  0  0  0  0  0  0  0  0  0
   -2.8135   -1.5672   -0.9082 H   0  0  0  0  0  0  0  0  0  0  0  0
   -4.3136   -2.4919   -0.9045 H   0  0  0  0  0  0  0  0  0  0  0  0
   -6.4052    0.4270   -1.0709 H   0  0  0  0  0  0  0  0  0  0  0  0
   -6.3218   -1.0086   -0.0773 H   0  0  0  0  0  0  0  0  0  0  0  0
   -5.1063    1.7269    0.5587 H   0  0  0  0  0  0  0  0  0  0  0  0
   -6.6295    1.1386    1.2022 H   0  0  0  0  0  0  0  0  0  0  0  0
   -5.5594   -0.5901    2.4945 H   0  0  0  0  0  0  0  0  0  0  0  0
   -4.7722    0.9170    2.8527 H   0  0  0  0  0  0  0  0  0  0  0  0
   -5.1712   -1.1318   -2.8579 H   0  0  0  0  0  0  0  0  0  0  0  0
   -4.9232    0.6200   -2.7648 H   0  0  0  0  0  0  0  0  0  0  0  0
   -3.5366   -0.4628   -2.8241 H   0  0  0  0  0  0  0  0  0  0  0  0
    1.7668   -3.5961   -0.3566 H   0  0  0  0  0  0  0  0  0  0  0  0
   -0.1284   -2.3386    0.5901 H   0  0  0  0  0  0  0  0  0  0  0  0
    2.1016    1.2913    0.1663 H   0  0  0  0  0  0  0  0  0  0  0  0
    4.2234    1.3478   -0.6795 H   0  0  0  0  0  0  0  0  0  0  0  0
    5.5406   -1.2703   -1.5774 H   0  0  0  0  0  0  0  0  0  0  0  0
    8.2734    0.6199   -2.4412 H   0  0  0  0  0  0  0  0  0  0  0  0
    3.8202   -2.4374   -1.0325 H   0  0  0  0  0  0  0  0  0  0  0  0
 18  1  1  0
  1  2  2  0
  1  6  1  0
  2  3  1  0
  3  7  1  0
  3  4  2  0
  5  4  1  0
  4 26  1  0
  6  5  2  0
  6 27  1  0
  8  7  1  0
  7 13  1  0
  9  8  1  0
  8 28  1  0
  8 29  1  0
  9 10  1  0
  9 30  1  0
  9 31  1  0
 14 10  1  0
 10 11  1  0
 11 12  1  0
 11 32  1  0
 11 33  1  0
 13 12  1  0
 12 34  1  0
 12 35  1  0
 13 36  1  0
 13 37  1  0
 14 38  1  0
 14 39  1  0
 14 40  1  0
 15 16  2  0
 15 20  1  0
 15 47  1  0
 16 17  1  0
 16 41  1  0
 17 18  2  0
 17 42  1  0
 19 18  1  0
 20 19  2  0
 19 43  1  0
 21 20  1  0
 21 22  2  0
 21 44  1  0
 23 22  1  0
 22 45  1  0
 25 23  2  0
 23 24  1  0
 24 46  1  0
M  END
