
     RDKit          3D

 48 51  0  0  0  0  0  0  0  0999 V2000
   -4.9794   -1.1395   -1.1986 C   0  0  0  0  0  0  0  0  0  0  0  0
   -3.9422   -3.4867   -1.5872 C   0  0  0  0  0  0  0  0  0  0  0  0
    2.3281    0.9385    0.4660 C   0  0  0  0  0  0  0  0  0  0  0  0
    4.1137   -0.7157    0.0867 C   0  0  0  0  0  0  0  0  0  0  0  0
    6.4869   -0.5121    0.4551 C   0  0  0  0  0  0  0  0  0  0  0  0
    5.4907   -2.6973    0.2430 C   0  0  0  0  0  0  0  0  0  0  0  0
   -1.6227    1.0397   -2.5174 C   0  0  0  0  0  0  0  0  0  0  0  0
   -0.8404    1.3168   -1.2842 C   0  0  0  0  0  0  0  0  0  0  0  0
    0.4294    0.9100   -1.1588 N   0  0  0  0  0  0  0  0  0  0  0  0
    0.9590    1.2788    0.0565 C   0  0  0  0  0  0  0  0  0  0  0  0
   -0.0174    1.9463    0.7623 C   0  0  0  0  0  0  0  0  0  0  0  0
   -1.1505    1.9752   -0.0990 C   0  0  0  0  0  0  0  0  0  0  0  0
   -2.7272    2.5665    0.3154 S   0  0  1  0  0  0  0  0  0  0  0  0
   -2.6092    3.6420    1.2842 O   0  0  0  0  0  0  0  0  0  0  0  0
   -3.4742    2.7801   -0.9111 O   0  0  0  0  0  0  0  0  0  0  0  0
   -3.5020    1.3247    1.1313 N   0  0  0  0  0  0  0  0  0  0  0  0
   -3.6574    0.1032    0.4187 C   0  0  0  0  0  0  0  0  0  0  0  0
   -4.7693   -0.0072   -0.4664 C   0  0  0  0  0  0  0  0  0  0  0  0
   -4.0709   -2.2097   -1.0492 C   0  0  0  0  0  0  0  0  0  0  0  0
   -2.8559   -4.0058   -1.0121 N   0  0  0  0  0  0  0  0  0  0  0  0
   -2.2384   -3.2186   -0.1445 N   0  0  0  0  0  0  0  0  0  0  0  0
   -2.9720   -2.1025   -0.1512 C   0  0  0  0  0  0  0  0  0  0  0  0
   -2.7585   -0.9152    0.5825 C   0  0  0  0  0  0  0  0  0  0  0  0
    2.9473    1.6058    1.2763 O   0  0  0  0  0  0  0  0  0  0  0  0
    2.8361   -0.1781   -0.1306 N   0  0  0  0  0  0  0  0  0  0  0  0
    5.2451    0.0775    0.2716 C   0  0  0  0  0  0  0  0  0  0  0  0
    6.5920   -1.8887    0.4399 C   0  0  0  0  0  0  0  0  0  0  0  0
    4.2508   -2.1024    0.0730 C   0  0  0  0  0  0  0  0  0  0  0  0
    7.7973   -2.4557    0.6161 F   0  0  0  0  0  0  0  0  0  0  0  0
   -5.8267   -1.2155   -1.8675 H   0  0  0  0  0  0  0  0  0  0  0  0
   -4.5256   -4.0336   -2.3087 H   0  0  0  0  0  0  0  0  0  0  0  0
    0.0820    3.5651    2.1632 H   0  0  0  0  0  0  0  0  0  0  0  0
   -0.7855    2.1605    2.7523 H   0  0  0  0  0  0  0  0  0  0  0  0
    0.9701    2.1284    2.6504 H   0  0  0  0  0  0  0  0  0  0  0  0
    7.3644    0.1040    0.6002 H   0  0  0  0  0  0  0  0  0  0  0  0
    5.5900   -3.7746    0.2300 H   0  0  0  0  0  0  0  0  0  0  0  0
   -2.5399    0.5008   -2.2846 H   0  0  0  0  0  0  0  0  0  0  0  0
   -1.8993    1.9597   -3.0290 H   0  0  0  0  0  0  0  0  0  0  0  0
   -1.0395    0.4291   -3.2042 H   0  0  0  0  0  0  0  0  0  0  0  0
    0.9451    0.4800   -1.9129 H   0  0  0  0  0  0  0  0  0  0  0  0
   -3.1128    1.2095    2.0630 H   0  0  0  0  0  0  0  0  0  0  0  0
   -5.4557    0.8245   -0.5380 H   0  0  0  0  0  0  0  0  0  0  0  0
   -2.4843   -4.9280   -1.1863 H   0  0  0  0  0  0  0  0  0  0  0  0
   -1.9139   -0.8215    1.2540 H   0  0  0  0  0  0  0  0  0  0  0  0
    2.1830   -0.8050   -0.5758 H   0  0  0  0  0  0  0  0  0  0  0  0
    5.1773    1.1542    0.2630 H   0  0  0  0  0  0  0  0  0  0  0  0
    3.3795   -2.7293   -0.0712 H   0  0  0  0  0  0  0  0  0  0  0  0
    0.0693    2.4752    2.1545 C   0  0  0  0  0  0  0  0  0  0  0  0
 15 13  2  0
 14 13  2  0
 13 16  1  1
 13 12  1  0
 16 17  1  0
  7  8  1  0
 12  8  2  0
 12 11  1  0
  8  9  1  0
 17 23  2  0
 17 18  1  0
 23 22  1  0
 11 48  1  0
 11 10  2  0
 18  1  2  0
  9 10  1  0
 22 21  2  0
 22 19  1  0
 10  3  1  0
 21 20  1  0
  1 19  1  0
 19  2  2  0
  3 24  2  0
  3 25  1  0
 20  2  1  0
 25  4  1  0
 26  4  1  0
 26  5  2  0
  4 28  2  0
  5 27  1  0
 28  6  1  0
 27  6  2  0
 27 29  1  0
  1 30  1  0
  2 31  1  0
 48 32  1  0
 48 33  1  0
 48 34  1  0
  5 35  1  0
  6 36  1  0
  7 37  1  0
  7 38  1  0
  7 39  1  0
  9 40  1  0
 16 41  1  0
 18 42  1  0
 20 43  1  0
 23 44  1  0
 25 45  1  0
 26 46  1  0
 28 47  1  0
M  END
