
     RDKit          3D

 51 52  0  0  0  0  0  0  0  0999 V2000
   -4.0082   -0.4056    1.2342 C   0  0  0  0  0  0  0  0  0  0  0  0
   -5.4093    0.1967    1.0388 C   0  0  2  0  0  0  0  0  0  0  0  0
   -5.4406    1.6575    1.5088 C   0  0  0  0  0  0  0  0  0  0  0  0
   -6.4083   -0.5569    1.9239 C   0  0  0  0  0  0  0  0  0  0  0  0
   -5.8592    0.0928   -0.3725 N   0  0  0  0  0  0  0  0  0  0  0  0
   -6.0794   -1.2849   -0.6123 O   0  0  0  0  0  0  0  0  0  0  0  0
   -4.9029    0.5474   -1.4157 C   0  0  2  0  0  0  0  0  0  0  0  0
   -4.8392    2.0803   -1.4582 C   0  0  0  0  0  0  0  0  0  0  0  0
   -5.4357    0.1098   -2.7844 C   0  0  0  0  0  0  0  0  0  0  0  0
   -3.5057   -0.0520   -1.1966 C   0  0  0  0  0  0  0  0  0  0  0  0
   -3.0057    0.1508    0.2307 C   0  0  2  0  0  0  0  0  0  0  0  0
   -1.7212   -0.4960    0.4271 N   0  0  0  0  0  0  0  0  0  0  0  0
   -0.5306    0.0694    0.2357 C   0  0  0  0  0  0  0  0  0  0  0  0
   -0.3284    1.6828   -0.1754 S   0  0  0  0  0  0  0  0  0  0  0  0
    0.5158   -0.7926    0.3866 N   0  0  0  0  0  0  0  0  0  0  0  0
    1.8701   -0.4768    0.3349 C   0  0  0  0  0  0  0  0  0  0  0  0
    2.7362   -1.2661   -0.4228 C   0  0  0  0  0  0  0  0  0  0  0  0
    4.1003   -1.0233   -0.4496 C   0  0  0  0  0  0  0  0  0  0  0  0
    2.1043   -2.5754   -1.3555 Cl  0  0  0  0  0  0  0  0  0  0  0  0
    2.4089    0.5731    1.0805 C   0  0  0  0  0  0  0  0  0  0  0  0
    3.7612    0.8406    1.0504 C   0  0  0  0  0  0  0  0  0  0  0  0
    4.5974    0.0392    0.2818 C   0  0  0  0  0  0  0  0  0  0  0  0
    6.3366    0.3671    0.2759 S   0  0  1  0  0  0  0  0  0  0  0  0
    6.7559    0.7444    1.6171 O   0  0  0  0  0  0  0  0  0  0  0  0
    6.9960   -0.7596   -0.3692 O   0  0  0  0  0  0  0  0  0  0  0  0
    6.3959    1.7498   -0.6204 N   0  0  0  0  0  0  0  0  0  0  0  0
   -3.6667   -0.2074    2.2543 H   0  0  0  0  0  0  0  0  0  0  0  0
   -4.0628   -1.4946    1.1255 H   0  0  0  0  0  0  0  0  0  0  0  0
   -4.5993    2.2560    1.1722 H   0  0  0  0  0  0  0  0  0  0  0  0
   -6.3585    2.1492    1.1855 H   0  0  0  0  0  0  0  0  0  0  0  0
   -5.4171    1.6812    2.5986 H   0  0  0  0  0  0  0  0  0  0  0  0
   -6.1795   -0.3647    2.9728 H   0  0  0  0  0  0  0  0  0  0  0  0
   -7.4284   -0.2123    1.7416 H   0  0  0  0  0  0  0  0  0  0  0  0
   -6.3762   -1.6339    1.7757 H   0  0  0  0  0  0  0  0  0  0  0  0
   -7.0155   -1.3336   -0.8277 H   0  0  0  0  0  0  0  0  0  0  0  0
   -4.2433    2.5280   -0.6691 H   0  0  0  0  0  0  0  0  0  0  0  0
   -4.3834    2.3900   -2.3989 H   0  0  0  0  0  0  0  0  0  0  0  0
   -5.8404    2.5097   -1.4167 H   0  0  0  0  0  0  0  0  0  0  0  0
   -6.4598    0.4593   -2.9332 H   0  0  0  0  0  0  0  0  0  0  0  0
   -4.8220    0.5521   -3.5699 H   0  0  0  0  0  0  0  0  0  0  0  0
   -5.4154   -0.9686   -2.9229 H   0  0  0  0  0  0  0  0  0  0  0  0
   -3.5290   -1.1253   -1.4110 H   0  0  0  0  0  0  0  0  0  0  0  0
   -2.7980    0.3972   -1.8983 H   0  0  0  0  0  0  0  0  0  0  0  0
   -2.8411    1.2123    0.4195 H   0  0  0  0  0  0  0  0  0  0  0  0
   -1.7537   -1.4839    0.6392 H   0  0  0  0  0  0  0  0  0  0  0  0
    0.2983   -1.7799    0.4224 H   0  0  0  0  0  0  0  0  0  0  0  0
    4.7488   -1.6525   -1.0430 H   0  0  0  0  0  0  0  0  0  0  0  0
    1.7568    1.1705    1.6990 H   0  0  0  0  0  0  0  0  0  0  0  0
    4.1565    1.6575    1.6386 H   0  0  0  0  0  0  0  0  0  0  0  0
    7.2512    2.2697   -0.4482 H   0  0  0  0  0  0  0  0  0  0  0  0
    6.2757    1.5842   -1.6144 H   0  0  0  0  0  0  0  0  0  0  0  0
  1  2  1  0
  1 11  1  0
  2  3  1  1
  2  4  1  0
  2  5  1  0
  5  6  1  0
  5  7  1  0
  7  8  1  6
  7  9  1  0
  7 10  1  0
 10 11  1  0
 11 12  1  0
 12 13  1  0
 13 14  2  0
 13 15  1  0
 15 16  1  0
 16 17  2  0
 16 20  1  0
 17 18  1  0
 17 19  1  0
 18 22  2  0
 20 21  2  0
 21 22  1  0
 22 23  1  0
 23 24  2  0
 23 25  2  0
 23 26  1  6
  1 27  1  0
  1 28  1  0
  3 29  1  0
  3 30  1  0
  3 31  1  0
  4 32  1  0
  4 33  1  0
  4 34  1  0
  6 35  1  0
  8 36  1  0
  8 37  1  0
  8 38  1  0
  9 39  1  0
  9 40  1  0
  9 41  1  0
 10 42  1  0
 10 43  1  0
 11 44  1  1
 12 45  1  0
 15 46  1  0
 18 47  1  0
 20 48  1  0
 21 49  1  0
 26 50  1  0
 26 51  1  0
M  END
