
     RDKit          3D

 49 50  0  0  0  0  0  0  0  0999 V2000
    5.0394   -2.4636    2.0163 N   0  0  0  0  0  0  0  0  0  0  0  0
    4.4348   -1.8232    0.9736 C   0  0  0  0  0  0  0  0  0  0  0  0
    4.8009   -2.1118   -0.3539 C   0  0  0  0  0  0  0  0  0  0  0  0
    4.2062   -1.4091   -1.3794 C   0  0  0  0  0  0  0  0  0  0  0  0
    4.5532   -1.6797   -2.8112 C   0  0  0  0  0  0  0  0  0  0  0  0
    3.2586   -0.4283   -1.0550 C   0  0  0  0  0  0  0  0  0  0  0  0
    3.5292   -0.9006    1.2715 N   0  0  0  0  0  0  0  0  0  0  0  0
    2.9599   -0.2183    0.2758 C   0  0  0  0  0  0  0  0  0  0  0  0
    1.9642    0.8114    0.7382 C   0  0  0  0  0  0  0  0  0  0  0  0
    1.3216    1.4044   -0.3513 O   0  0  0  0  0  0  0  0  0  0  0  0
    0.6818    2.6339   -0.0869 C   0  0  1  0  0  0  0  0  0  0  0  0
    0.2556    3.2082   -1.4284 C   0  0  0  0  0  0  0  0  0  0  0  0
    1.4152    3.4716   -2.2664 N   0  0  0  0  0  0  0  0  0  0  0  0
   -0.4761    2.4966    0.8876 C   0  0  0  0  0  0  0  0  0  0  0  0
   -1.4016    1.5621    0.3995 O   0  0  0  0  0  0  0  0  0  0  0  0
   -2.5009    1.3922    1.2437 C   0  0  0  0  0  0  0  0  0  0  0  0
   -3.4001    0.3004    0.7344 C   0  0  0  0  0  0  0  0  0  0  0  0
   -3.0822   -0.4741   -0.3628 C   0  0  0  0  0  0  0  0  0  0  0  0
   -4.5160    0.1399    1.4482 N   0  0  0  0  0  0  0  0  0  0  0  0
   -5.3690   -0.8105    1.0885 C   0  0  0  0  0  0  0  0  0  0  0  0
   -6.5230   -0.9189    1.8116 N   0  0  0  0  0  0  0  0  0  0  0  0
   -5.1330   -1.6490   -0.0158 C   0  0  0  0  0  0  0  0  0  0  0  0
   -3.9774   -1.4810   -0.7485 C   0  0  0  0  0  0  0  0  0  0  0  0
   -3.6770   -2.3468   -1.9334 C   0  0  0  0  0  0  0  0  0  0  0  0
    5.4842   -3.3457    1.8256 H   0  0  0  0  0  0  0  0  0  0  0  0
    4.5584   -2.4276    2.9000 H   0  0  0  0  0  0  0  0  0  0  0  0
    5.5394   -2.8776   -0.5583 H   0  0  0  0  0  0  0  0  0  0  0  0
    3.6752   -2.0128   -3.3667 H   0  0  0  0  0  0  0  0  0  0  0  0
    4.9149   -0.7748   -3.3015 H   0  0  0  0  0  0  0  0  0  0  0  0
    5.3222   -2.4452   -2.9037 H   0  0  0  0  0  0  0  0  0  0  0  0
    2.7773    0.1442   -1.8352 H   0  0  0  0  0  0  0  0  0  0  0  0
    1.2523    0.3190    1.4139 H   0  0  0  0  0  0  0  0  0  0  0  0
    2.4977    1.5598    1.3421 H   0  0  0  0  0  0  0  0  0  0  0  0
    1.3947    3.3356    0.3754 H   0  0  0  0  0  0  0  0  0  0  0  0
   -0.4861    2.5426   -1.8893 H   0  0  0  0  0  0  0  0  0  0  0  0
   -0.2501    4.1572   -1.2362 H   0  0  0  0  0  0  0  0  0  0  0  0
    1.8281    2.5938   -2.5536 H   0  0  0  0  0  0  0  0  0  0  0  0
    1.1134    3.9230   -3.1200 H   0  0  0  0  0  0  0  0  0  0  0  0
   -0.1072    2.1949    1.8790 H   0  0  0  0  0  0  0  0  0  0  0  0
   -0.9357    3.4868    1.0204 H   0  0  0  0  0  0  0  0  0  0  0  0
   -2.1804    1.1326    2.2642 H   0  0  0  0  0  0  0  0  0  0  0  0
   -3.0840    2.3206    1.3340 H   0  0  0  0  0  0  0  0  0  0  0  0
   -2.1621   -0.3180   -0.9082 H   0  0  0  0  0  0  0  0  0  0  0  0
   -6.5070   -0.4995    2.7270 H   0  0  0  0  0  0  0  0  0  0  0  0
   -7.0067   -1.8009    1.7782 H   0  0  0  0  0  0  0  0  0  0  0  0
   -5.8532   -2.4141   -0.2806 H   0  0  0  0  0  0  0  0  0  0  0  0
   -3.6268   -1.7499   -2.8455 H   0  0  0  0  0  0  0  0  0  0  0  0
   -2.7092   -2.8375   -1.8220 H   0  0  0  0  0  0  0  0  0  0  0  0
   -4.4351   -3.1155   -2.0738 H   0  0  0  0  0  0  0  0  0  0  0  0
 24 23  1  0
 23 22  1  0
 23 18  2  0
 22 20  2  0
 18 17  1  0
 20 21  1  0
 20 19  1  0
 13 12  1  0
 12 11  1  0
 17 19  2  0
 17 16  1  0
 14 15  1  0
 14 11  1  0
 15 16  1  0
 11 10  1  0
 10  9  1  0
  5  4  1  0
  6  4  2  0
  6  8  1  0
  9  8  1  0
  4  3  1  0
  8  7  2  0
  3  2  2  0
  7  2  1  0
  2  1  1  0
  1 25  1  0
  1 26  1  0
  3 27  1  0
  5 28  1  0
  5 29  1  0
  5 30  1  0
  6 31  1  0
  9 32  1  0
  9 33  1  0
 11 34  1  1
 12 35  1  0
 12 36  1  0
 13 37  1  0
 13 38  1  0
 14 39  1  0
 14 40  1  0
 16 41  1  0
 16 42  1  0
 18 43  1  0
 21 44  1  0
 21 45  1  0
 22 46  1  0
 24 47  1  0
 24 48  1  0
 24 49  1  0
M  END
