
     RDKit          3D

 38 40  0  0  0  0  0  0  0  0999 V2000
    2.5787   -1.9210    1.1720 O   0  0  0  0  0  0  0  0  0  0  0  0
    2.3155   -0.7652    0.6024 C   0  0  0  0  0  0  0  0  0  0  0  0
    2.8653    0.2774    0.8235 O   0  0  0  0  0  0  0  0  0  0  0  0
    1.2744   -0.9337   -0.5013 C   0  0  0  0  0  0  0  0  0  0  0  0
    1.5051   -1.7035   -1.4087 O   0  0  0  0  0  0  0  0  0  0  0  0
    0.1766   -0.1479   -0.4178 N   0  0  0  0  0  0  0  0  0  0  0  0
   -0.7746   -0.1481   -1.4750 C   0  0  0  0  0  0  0  0  0  0  0  0
   -2.0892   -0.4752   -1.1748 C   0  0  0  0  0  0  0  0  0  0  0  0
   -3.0513   -0.4982   -2.1723 C   0  0  0  0  0  0  0  0  0  0  0  0
   -2.6969   -0.2211   -3.4837 C   0  0  0  0  0  0  0  0  0  0  0  0
   -1.3815    0.0899   -3.7892 C   0  0  0  0  0  0  0  0  0  0  0  0
   -0.4110    0.1494   -2.7914 C   0  0  0  0  0  0  0  0  0  0  0  0
    0.9644    0.6018   -3.1345 C   0  0  0  0  0  0  0  0  0  0  0  0
    1.6458    1.2988   -2.4244 O   0  0  0  0  0  0  0  0  0  0  0  0
    1.3432    0.1818   -4.3312 O   0  0  0  0  0  0  0  0  0  0  0  0
   -0.0852    0.6760    0.7166 C   0  0  0  0  0  0  0  0  0  0  0  0
   -0.0037    2.0346    0.5816 C   0  0  0  0  0  0  0  0  0  0  0  0
   -0.2694    2.8728    1.6781 C   0  0  0  0  0  0  0  0  0  0  0  0
   -0.5955    2.3342    2.8925 C   0  0  0  0  0  0  0  0  0  0  0  0
   -0.6956    0.9348    3.0584 C   0  0  0  0  0  0  0  0  0  0  0  0
   -0.4569    0.0780    1.9493 C   0  0  0  0  0  0  0  0  0  0  0  0
   -0.6086   -1.3189    2.1233 C   0  0  0  0  0  0  0  0  0  0  0  0
   -0.9588   -1.8353    3.3407 C   0  0  0  0  0  0  0  0  0  0  0  0
   -1.1728   -0.9876    4.4466 C   0  0  0  0  0  0  0  0  0  0  0  0
   -1.0483    0.3661    4.3050 C   0  0  0  0  0  0  0  0  0  0  0  0
    3.2929   -1.8272    1.8230 H   0  0  0  0  0  0  0  0  0  0  0  0
   -2.3640   -0.7187   -0.1567 H   0  0  0  0  0  0  0  0  0  0  0  0
   -4.0738   -0.7460   -1.9216 H   0  0  0  0  0  0  0  0  0  0  0  0
   -3.4397   -0.2464   -4.2689 H   0  0  0  0  0  0  0  0  0  0  0  0
   -1.1160    0.3126   -4.8133 H   0  0  0  0  0  0  0  0  0  0  0  0
    2.2159    0.5435   -4.5498 H   0  0  0  0  0  0  0  0  0  0  0  0
    0.2866    2.4593   -0.3700 H   0  0  0  0  0  0  0  0  0  0  0  0
   -0.1987    3.9451    1.5562 H   0  0  0  0  0  0  0  0  0  0  0  0
   -0.7862    2.9768    3.7431 H   0  0  0  0  0  0  0  0  0  0  0  0
   -0.4710   -1.9931    1.2881 H   0  0  0  0  0  0  0  0  0  0  0  0
   -1.0764   -2.9045    3.4558 H   0  0  0  0  0  0  0  0  0  0  0  0
   -1.4459   -1.4128    5.4031 H   0  0  0  0  0  0  0  0  0  0  0  0
   -1.2240    1.0250    5.1466 H   0  0  0  0  0  0  0  0  0  0  0  0
  1  2  1  0
  1 26  1  0
  2  3  2  0
  2  4  1  0
  4  5  2  0
  4  6  1  0
  6  7  1  0
  6 16  1  0
  7  8  2  0
  7 12  1  0
  8  9  1  0
  8 27  1  0
  9 10  2  0
  9 28  1  0
 10 11  1  0
 10 29  1  0
 11 12  2  0
 11 30  1  0
 12 13  1  0
 13 14  2  0
 13 15  1  0
 15 31  1  0
 16 17  2  0
 16 21  1  0
 17 18  1  0
 17 32  1  0
 18 19  2  0
 18 33  1  0
 19 20  1  0
 19 34  1  0
 20 21  2  0
 20 25  1  0
 21 22  1  0
 22 23  2  0
 22 35  1  0
 23 24  1  0
 23 36  1  0
 24 25  2  0
 24 37  1  0
 25 38  1  0
M  END
