
     RDKit          3D

 38 37  0  0  0  0  0  0  0  0999 V2000
    1.5015    2.1795    0.2171 O   0  0  0  0  0  0  0  0  0  0  0  0
    1.5124    1.0903   -0.3545 C   0  0  0  0  0  0  0  0  0  0  0  0
    2.5892    0.3035   -0.4222 N   0  0  0  0  0  0  0  0  0  0  0  0
    3.8874    0.5911    0.1835 C   0  0  1  0  0  0  0  0  0  0  0  0
    4.7835   -0.7926    0.3643 B   0  0  1  0  0  0  0  0  0  0  0  0
    5.3026   -1.3090   -0.9150 O   0  0  0  0  0  0  0  0  0  0  0  0
    6.0007   -0.5200    1.1451 O   0  0  0  0  0  0  0  0  0  0  0  0
    4.6271    1.6594   -0.6182 C   0  0  0  0  0  0  0  0  0  0  0  0
    0.2615    0.5614   -1.0320 C   0  0  0  0  0  0  0  0  0  0  0  0
   -0.9336    0.5272   -0.0831 C   0  0  0  0  0  0  0  0  0  0  0  0
   -2.2326    0.1720   -0.7955 C   0  0  0  0  0  0  0  0  0  0  0  0
   -3.4128    0.1220    0.1660 C   0  0  0  0  0  0  0  0  0  0  0  0
   -4.7519   -0.1422   -0.5366 C   0  0  1  0  0  0  0  0  0  0  0  0
   -4.7155   -1.3902   -1.2601 N   0  0  0  0  0  0  0  0  0  0  0  0
   -5.8726   -0.0711    0.4924 C   0  0  0  0  0  0  0  0  0  0  0  0
   -6.1122    1.1741    0.8897 O   0  0  0  0  0  0  0  0  0  0  0  0
   -6.4726   -1.0264    0.9188 O   0  0  0  0  0  0  0  0  0  0  0  0
    3.8892   -1.7670    1.0318 O   0  0  0  0  0  0  0  0  0  0  0  0
    2.4598   -0.6032   -0.8402 H   0  0  0  0  0  0  0  0  0  0  0  0
    0.0352    1.2281   -1.8701 H   0  0  0  0  0  0  0  0  0  0  0  0
    0.4270   -0.4301   -1.4610 H   0  0  0  0  0  0  0  0  0  0  0  0
    3.6821    1.0097    1.1788 H   0  0  0  0  0  0  0  0  0  0  0  0
    4.0567    2.5854   -0.7185 H   0  0  0  0  0  0  0  0  0  0  0  0
    5.5716    1.9052   -0.1299 H   0  0  0  0  0  0  0  0  0  0  0  0
    4.8649    1.3014   -1.6221 H   0  0  0  0  0  0  0  0  0  0  0  0
    4.5937   -1.3976   -1.5552 H   0  0  0  0  0  0  0  0  0  0  0  0
    5.7566   -0.0648    1.9538 H   0  0  0  0  0  0  0  0  0  0  0  0
    4.3602   -2.5999    1.1259 H   0  0  0  0  0  0  0  0  0  0  0  0
   -0.7438   -0.1974    0.7152 H   0  0  0  0  0  0  0  0  0  0  0  0
   -1.0370    1.5021    0.3995 H   0  0  0  0  0  0  0  0  0  0  0  0
   -2.4305    0.9166   -1.5740 H   0  0  0  0  0  0  0  0  0  0  0  0
   -2.1314   -0.7884   -1.3050 H   0  0  0  0  0  0  0  0  0  0  0  0
   -3.2438   -0.6576    0.9171 H   0  0  0  0  0  0  0  0  0  0  0  0
   -3.4713    1.0676    0.7104 H   0  0  0  0  0  0  0  0  0  0  0  0
   -4.9179    0.6662   -1.2567 H   0  0  0  0  0  0  0  0  0  0  0  0
   -4.6033   -2.1646   -0.6170 H   0  0  0  0  0  0  0  0  0  0  0  0
   -5.5925   -1.5456   -1.7404 H   0  0  0  0  0  0  0  0  0  0  0  0
   -6.8073    1.1807    1.5648 H   0  0  0  0  0  0  0  0  0  0  0  0
  1  2  2  0
  2  3  1  0
  2  9  1  0
  3  4  1  0
  4  5  1  0
  4  8  1  0
  5  6  1  6
  5  7  1  0
  5 18  1  0
  9 10  1  0
 10 11  1  0
 11 12  1  0
 12 13  1  0
 13 14  1  0
 13 15  1  0
 15 16  1  0
 15 17  2  0
  3 19  1  0
  9 20  1  0
  9 21  1  0
  4 22  1  1
  8 23  1  0
  8 24  1  0
  8 25  1  0
  6 26  1  0
  7 27  1  0
 18 28  1  0
 10 29  1  0
 10 30  1  0
 11 31  1  0
 11 32  1  0
 12 33  1  0
 12 34  1  0
 13 35  1  6
 14 36  1  0
 14 37  1  0
 16 38  1  0
M  CHG  1   5  -1
M  END
