
     RDKit          3D

 39 40  0  0  0  0  0  0  0  0999 V2000
   -1.1568   -0.2003   -0.2726 C   0  0  0  0  0  0  0  0  0  0  0  0
   -1.7207    1.0621   -0.3907 N   0  0  0  0  0  0  0  0  0  0  0  0
   -3.3347    2.9236   -0.2572 O   0  0  0  0  0  0  0  0  0  0  0  0
   -3.2901    1.4898   -0.0436 S   0  0  1  0  0  0  0  0  0  0  0  0
    0.2575   -0.2600   -0.2686 C   0  0  0  0  0  0  0  0  0  0  0  0
    0.8091   -3.9075    0.1059 N   0  0  0  0  0  0  0  0  0  0  0  0
   -4.1806    0.6267   -0.7989 O   0  0  0  0  0  0  0  0  0  0  0  0
    0.8936   -1.4784   -0.1479 C   0  0  0  0  0  0  0  0  0  0  0  0
    2.0197   -3.9129    0.1039 O   0  0  0  0  0  0  0  0  0  0  0  0
    0.1300   -2.6376   -0.0338 C   0  0  0  0  0  0  0  0  0  0  0  0
    0.1353   -4.9063    0.2199 O   0  0  0  0  0  0  0  0  0  0  0  0
   -1.2497   -2.6018   -0.0475 C   0  0  0  0  0  0  0  0  0  0  0  0
    0.8675    0.9257   -0.4019 O   0  0  0  0  0  0  0  0  0  0  0  0
   -1.8867   -1.3784   -0.1760 C   0  0  0  0  0  0  0  0  0  0  0  0
   -3.4928    1.1446    1.6846 C   0  0  0  0  0  0  0  0  0  0  0  0
    2.2952    1.0330   -0.3697 C   0  0  2  0  0  0  0  0  0  0  0  0
    2.8256    0.9502    1.0553 C   0  0  0  0  0  0  0  0  0  0  0  0
    4.3408    1.1412    1.0660 C   0  0  0  0  0  0  0  0  0  0  0  0
    4.7372    2.4585    0.4077 C   0  0  0  0  0  0  0  0  0  0  0  0
    4.1683    2.5603   -1.0037 C   0  0  0  0  0  0  0  0  0  0  0  0
    2.6546    2.3605   -1.0146 C   0  0  0  0  0  0  0  0  0  0  0  0
   -1.0755    1.8433   -0.3611 H   0  0  0  0  0  0  0  0  0  0  0  0
    1.9708   -1.5447   -0.1397 H   0  0  0  0  0  0  0  0  0  0  0  0
   -1.8435   -3.4993    0.0355 H   0  0  0  0  0  0  0  0  0  0  0  0
   -2.9651   -1.3674   -0.2115 H   0  0  0  0  0  0  0  0  0  0  0  0
   -2.8018    1.7645    2.2501 H   0  0  0  0  0  0  0  0  0  0  0  0
   -4.5214    1.3874    1.9471 H   0  0  0  0  0  0  0  0  0  0  0  0
   -3.3047    0.0909    1.8796 H   0  0  0  0  0  0  0  0  0  0  0  0
    2.7302    0.2288   -0.9772 H   0  0  0  0  0  0  0  0  0  0  0  0
    2.3484    1.7333    1.6535 H   0  0  0  0  0  0  0  0  0  0  0  0
    2.5655   -0.0055    1.5168 H   0  0  0  0  0  0  0  0  0  0  0  0
    4.7052    1.1007    2.0943 H   0  0  0  0  0  0  0  0  0  0  0  0
    4.8154    0.3088    0.5358 H   0  0  0  0  0  0  0  0  0  0  0  0
    4.3595    3.2914    1.0100 H   0  0  0  0  0  0  0  0  0  0  0  0
    5.8247    2.5576    0.3840 H   0  0  0  0  0  0  0  0  0  0  0  0
    4.4099    3.5305   -1.4423 H   0  0  0  0  0  0  0  0  0  0  0  0
    4.6392    1.8064   -1.6432 H   0  0  0  0  0  0  0  0  0  0  0  0
    2.2771    2.3908   -2.0393 H   0  0  0  0  0  0  0  0  0  0  0  0
    2.1712    3.1734   -0.4632 H   0  0  0  0  0  0  0  0  0  0  0  0
  1 14  2  0
  1  5  1  0
  2  1  1  0
  2 22  1  0
  4  2  1  6
  4  3  2  0
  4  7  2  0
  5  8  2  0
  6  9  2  0
  6 11  1  0
  8 10  1  0
  8 23  1  0
 10  6  1  0
 12 10  2  0
 12 24  1  0
 13  5  1  0
 14 12  1  0
 14 25  1  0
 15  4  1  0
 15 26  1  0
 15 27  1  0
 15 28  1  0
 16 13  1  0
 16 21  1  0
 16 29  1  6
 17 16  1  0
 17 18  1  0
 17 30  1  0
 17 31  1  0
 18 19  1  0
 18 32  1  0
 18 33  1  0
 19 20  1  0
 19 34  1  0
 19 35  1  0
 20 36  1  0
 20 37  1  0
 21 20  1  0
 21 38  1  0
 21 39  1  0
M  CHG  2   6   1  11  -1
M  END
