
     RDKit          3D

 48 50  0  0  0  0  0  0  0  0999 V2000
    2.6059    0.7701   -7.9095 F   0  0  0  0  0  0  0  0  0  0  0  0
    1.7806    0.4377   -6.9035 C   0  0  0  0  0  0  0  0  0  0  0  0
    1.3686    1.4214   -6.0236 C   0  0  0  0  0  0  0  0  0  0  0  0
    0.5151    1.0784   -4.9868 C   0  0  0  0  0  0  0  0  0  0  0  0
    1.3682   -0.8739   -6.7801 C   0  0  0  0  0  0  0  0  0  0  0  0
    0.5219   -1.2139   -5.7333 C   0  0  0  0  0  0  0  0  0  0  0  0
    0.0957   -0.2389   -4.8446 C   0  0  0  0  0  0  0  0  0  0  0  0
   -0.7846   -0.5972   -3.8584 O   0  0  0  0  0  0  0  0  0  0  0  0
   -0.4502   -0.3585   -2.5550 C   0  0  0  0  0  0  0  0  0  0  0  0
    0.8626   -0.3614   -2.0962 C   0  0  0  0  0  0  0  0  0  0  0  0
    1.1214   -0.1600   -0.7521 C   0  0  0  0  0  0  0  0  0  0  0  0
   -1.4882   -0.1529   -1.6617 C   0  0  0  0  0  0  0  0  0  0  0  0
   -1.2275    0.0427   -0.3116 C   0  0  0  0  0  0  0  0  0  0  0  0
    0.0820    0.0421    0.1493 C   0  0  0  0  0  0  0  0  0  0  0  0
    0.4657    0.2287    1.4444 O   0  0  0  0  0  0  0  0  0  0  0  0
   -0.4713    0.3796    2.4552 C   0  0  1  0  0  0  0  0  0  0  0  0
    0.3106    0.5571    3.7776 C   0  0  0  0  0  0  0  0  0  0  0  0
    1.2934   -0.5634    4.0893 C   0  0  0  0  0  0  0  0  0  0  0  0
    1.9148   -0.2221    5.3017 O   0  0  0  0  0  0  0  0  0  0  0  0
    2.8876   -1.1621    5.7040 C   0  0  0  0  0  0  0  0  0  0  0  0
    3.4733   -0.7320    7.0296 C   0  0  0  0  0  0  0  0  0  0  0  0
   -1.2623    1.6778    2.2798 C   0  0  0  0  0  0  0  0  0  0  0  0
   -0.7913    2.6424    1.7371 O   0  0  0  0  0  0  0  0  0  0  0  0
   -2.4967    1.6876    2.8682 N   0  0  0  0  0  0  0  0  0  0  0  0
   -3.1936    0.5968    3.3426 C   0  0  0  0  0  0  0  0  0  0  0  0
   -4.2763    0.7013    3.8585 O   0  0  0  0  0  0  0  0  0  0  0  0
   -2.5851   -0.6254    3.1509 N   0  0  0  0  0  0  0  0  0  0  0  0
   -1.3589   -0.8561    2.5884 C   0  0  0  0  0  0  0  0  0  0  0  0
   -0.9801   -1.9584    2.2895 O   0  0  0  0  0  0  0  0  0  0  0  0
    1.7019    2.4435   -6.1459 H   0  0  0  0  0  0  0  0  0  0  0  0
    0.1792    1.8411   -4.2958 H   0  0  0  0  0  0  0  0  0  0  0  0
    1.7038   -1.6255   -7.4821 H   0  0  0  0  0  0  0  0  0  0  0  0
    0.1921   -2.2377   -5.6145 H   0  0  0  0  0  0  0  0  0  0  0  0
    1.6920   -0.5251   -2.7718 H   0  0  0  0  0  0  0  0  0  0  0  0
    2.1439   -0.1642   -0.3965 H   0  0  0  0  0  0  0  0  0  0  0  0
   -2.5121   -0.1473   -2.0121 H   0  0  0  0  0  0  0  0  0  0  0  0
   -2.0850    0.1973    0.3300 H   0  0  0  0  0  0  0  0  0  0  0  0
   -0.4014    0.6569    4.6005 H   0  0  0  0  0  0  0  0  0  0  0  0
    0.8578    1.5009    3.7116 H   0  0  0  0  0  0  0  0  0  0  0  0
    2.0331   -0.6600    3.2855 H   0  0  0  0  0  0  0  0  0  0  0  0
    0.7833   -1.5302    4.1790 H   0  0  0  0  0  0  0  0  0  0  0  0
    3.6800   -1.2384    4.9470 H   0  0  0  0  0  0  0  0  0  0  0  0
    2.4396   -2.1610    5.7942 H   0  0  0  0  0  0  0  0  0  0  0  0
    4.2377   -1.4428    7.3427 H   0  0  0  0  0  0  0  0  0  0  0  0
    3.9417    0.2503    6.9572 H   0  0  0  0  0  0  0  0  0  0  0  0
    2.7117   -0.6942    7.8088 H   0  0  0  0  0  0  0  0  0  0  0  0
   -2.9852    2.5750    2.9151 H   0  0  0  0  0  0  0  0  0  0  0  0
   -3.1468   -1.4362    3.3862 H   0  0  0  0  0  0  0  0  0  0  0  0
  1  2  1  0
  2  3  2  0
  2  5  1  0
  3  4  1  0
  3 30  1  0
  4  7  2  0
  4 31  1  0
  5  6  2  0
  5 32  1  0
  6  7  1  0
  6 33  1  0
  7  8  1  0
  8  9  1  0
  9 10  2  0
  9 12  1  0
 10 11  1  0
 10 34  1  0
 11 14  2  0
 11 35  1  0
 12 13  2  0
 12 36  1  0
 13 14  1  0
 13 37  1  0
 14 15  1  0
 16 15  1  6
 16 17  1  0
 16 22  1  0
 16 28  1  0
 17 18  1  0
 17 38  1  0
 17 39  1  0
 18 19  1  0
 18 40  1  0
 18 41  1  0
 19 20  1  0
 20 21  1  0
 20 42  1  0
 20 43  1  0
 21 44  1  0
 21 45  1  0
 21 46  1  0
 22 23  2  0
 22 24  1  0
 24 25  1  0
 24 47  1  0
 25 26  2  0
 25 27  1  0
 27 28  1  0
 27 48  1  0
 28 29  2  0
M  END
