
     RDKit          3D

 59 59  0  0  0  0  0  0  0  0999 V2000
   -4.6441    0.3862   -0.5414 C   0  0  0  0  0  0  0  0  0  0  0  0
   -7.1302   -0.9015   -0.7554 C   0  0  1  0  0  0  0  0  0  0  0  0
   -6.9131   -1.3647   -2.2040 C   0  0  0  0  0  0  0  0  0  0  0  0
   -8.5887   -0.7420   -1.2090 C   0  0  0  0  0  0  0  0  0  0  0  0
   -6.8271   -1.8990    0.3397 C   0  0  0  0  0  0  0  0  0  0  0  0
    4.7023    0.0345    0.6345 C   0  0  1  0  0  0  0  0  0  0  0  0
   -7.4393   -1.5063    1.6554 C   0  0  0  0  0  0  0  0  0  0  0  0
    7.6608   -1.3136   -1.3030 P   0  0  1  0  0  0  0  0  0  0  0  0
    4.5870    2.4172    0.0094 O   0  0  0  0  0  0  0  0  0  0  0  0
    4.2320    1.4718    0.9946 C   0  0  1  0  0  0  0  0  0  0  0  0
    2.7383    1.5517    1.3406 C   0  0  0  0  0  0  0  0  0  0  0  0
    1.9934    2.2942    0.5132 N   0  0  0  0  0  0  0  0  0  0  0  0
    0.5720    2.4821    0.6800 C   0  0  0  0  0  0  0  0  0  0  0  0
   -0.2422    1.3556    0.0386 C   0  0  0  0  0  0  0  0  0  0  0  0
   -1.7226    1.5883    0.2352 C   0  0  0  0  0  0  0  0  0  0  0  0
   -2.4768    1.5101   -0.8749 N   0  0  0  0  0  0  0  0  0  0  0  0
   -3.9086    1.6831   -0.8652 C   0  0  0  0  0  0  0  0  0  0  0  0
   -6.4237    0.7394   -0.4277 S   0  0  0  0  0  0  0  0  0  0  0  0
   -8.2217   -0.9325   -2.5803 O   0  0  0  0  0  0  0  0  0  0  0  0
   -6.8059   -2.0547    2.6848 O   0  0  0  0  0  0  0  0  0  0  0  0
   -8.4170   -0.8111    1.7708 O   0  0  0  0  0  0  0  0  0  0  0  0
   -2.1954    1.8364    1.3364 O   0  0  0  0  0  0  0  0  0  0  0  0
    2.2845    0.9982    2.3319 O   0  0  0  0  0  0  0  0  0  0  0  0
    3.9202   -0.5203   -0.5599 C   0  0  0  0  0  0  0  0  0  0  0  0
    6.1931    0.1649    0.2872 C   0  0  0  0  0  0  0  0  0  0  0  0
    6.7379   -1.1253   -0.0200 O   0  0  0  0  0  0  0  0  0  0  0  0
    7.9386   -2.8716   -1.1103 O   0  0  0  0  0  0  0  0  0  0  0  0
    6.7144   -1.1371   -2.5817 O   0  0  0  0  0  0  0  0  0  0  0  0
    8.8254   -0.4183   -1.4320 O   0  0  0  0  0  0  0  0  0  0  0  0
   -4.4722   -0.3463   -1.3324 H   0  0  0  0  0  0  0  0  0  0  0  0
   -4.2807   -0.0306    0.3981 H   0  0  0  0  0  0  0  0  0  0  0  0
   -6.1204   -0.8721   -2.7716 H   0  0  0  0  0  0  0  0  0  0  0  0
   -6.7924   -2.4505   -2.2928 H   0  0  0  0  0  0  0  0  0  0  0  0
   -9.2395   -1.5417   -0.8416 H   0  0  0  0  0  0  0  0  0  0  0  0
   -9.0719    0.2202   -1.0258 H   0  0  0  0  0  0  0  0  0  0  0  0
   -7.2453   -2.8755    0.0672 H   0  0  0  0  0  0  0  0  0  0  0  0
   -5.7532   -2.0584    0.4475 H   0  0  0  0  0  0  0  0  0  0  0  0
    4.4403    2.0511   -0.8698 H   0  0  0  0  0  0  0  0  0  0  0  0
    4.7663    1.7701    1.9032 H   0  0  0  0  0  0  0  0  0  0  0  0
    2.4470    2.7604   -0.2548 H   0  0  0  0  0  0  0  0  0  0  0  0
    0.3375    2.5547    1.7406 H   0  0  0  0  0  0  0  0  0  0  0  0
    0.3135    3.4367    0.2215 H   0  0  0  0  0  0  0  0  0  0  0  0
    0.0122    1.2680   -1.0192 H   0  0  0  0  0  0  0  0  0  0  0  0
    0.0198    0.4092    0.5126 H   0  0  0  0  0  0  0  0  0  0  0  0
   -2.0374    1.2642   -1.7463 H   0  0  0  0  0  0  0  0  0  0  0  0
   -4.2131    2.0432   -1.8472 H   0  0  0  0  0  0  0  0  0  0  0  0
   -4.1672    2.4550   -0.1393 H   0  0  0  0  0  0  0  0  0  0  0  0
   -7.2554   -1.8243    3.5119 H   0  0  0  0  0  0  0  0  0  0  0  0
    3.5109   -1.0900    2.0713 H   0  0  0  0  0  0  0  0  0  0  0  0
    5.0089   -1.8735    1.6066 H   0  0  0  0  0  0  0  0  0  0  0  0
    5.0389   -0.5024    2.7173 H   0  0  0  0  0  0  0  0  0  0  0  0
    2.8555   -0.5948   -0.3333 H   0  0  0  0  0  0  0  0  0  0  0  0
    4.0234    0.0838   -1.4651 H   0  0  0  0  0  0  0  0  0  0  0  0
    4.2582   -1.5261   -0.8074 H   0  0  0  0  0  0  0  0  0  0  0  0
    6.3347    0.8495   -0.5516 H   0  0  0  0  0  0  0  0  0  0  0  0
    6.7464    0.5693    1.1380 H   0  0  0  0  0  0  0  0  0  0  0  0
    8.6366   -3.2165   -1.6824 H   0  0  0  0  0  0  0  0  0  0  0  0
    5.9510   -1.7271   -2.6259 H   0  0  0  0  0  0  0  0  0  0  0  0
    4.5533   -0.9090    1.8284 C   0  0  0  0  0  0  0  0  0  0  0  0
 29  8  2  0
  8 27  1  1
 25 26  1  0
  6 25  1  6
  8 26  1  0
  8 28  1  0
 24  6  1  0
  6 59  1  0
  6 10  1  0
 10  9  1  0
 10 11  1  0
 11 12  1  0
 11 23  2  0
 12 13  1  0
 13 14  1  0
 21  7  2  0
 19  4  1  0
 19  3  1  0
  4  2  1  0
 14 15  1  0
  7 20  1  0
  7  5  1  0
  3  2  1  0
  2  5  1  0
  2 18  1  1
 15 22  2  0
 15 16  1  0
  1 18  1  0
  1 17  1  0
 17 16  1  0
  1 30  1  0
  1 31  1  0
  3 32  1  0
  3 33  1  0
  4 34  1  0
  4 35  1  0
  5 36  1  0
  5 37  1  0
  9 38  1  0
 10 39  1  1
 12 40  1  0
 13 41  1  0
 13 42  1  0
 14 43  1  0
 14 44  1  0
 16 45  1  0
 17 46  1  0
 17 47  1  0
 20 48  1  0
 59 49  1  0
 59 50  1  0
 59 51  1  0
 24 52  1  0
 24 53  1  0
 24 54  1  0
 25 55  1  0
 25 56  1  0
 27 57  1  0
 28 58  1  0
M  END
