
     RDKit          3D

 55 58  0  0  0  0  0  0  0  0999 V2000
    3.2255   -4.5947    0.3022 C   0  0  0  0  0  0  0  0  0  0  0  0
    2.0035   -3.9330    0.3659 C   0  0  0  0  0  0  0  0  0  0  0  0
    1.8286   -2.6998   -0.2745 C   0  0  0  0  0  0  0  0  0  0  0  0
    2.9241   -2.1597   -0.9610 C   0  0  0  0  0  0  0  0  0  0  0  0
    4.1402   -2.7949   -1.0348 C   0  0  0  0  0  0  0  0  0  0  0  0
    4.2821   -4.0328   -0.4001 C   0  0  0  0  0  0  0  0  0  0  0  0
    5.4753   -4.6295   -0.4952 O   0  0  0  0  0  0  0  0  0  0  0  0
    1.0238   -4.5404    1.0457 O   0  0  0  0  0  0  0  0  0  0  0  0
    2.7837   -0.9595   -1.6049 O   0  0  0  0  0  0  0  0  0  0  0  0
    2.4432    0.1341   -0.8770 C   0  0  0  0  0  0  0  0  0  0  0  0
    1.6946    1.1119   -1.5239 C   0  0  0  0  0  0  0  0  0  0  0  0
    1.3156    2.2484   -0.8390 C   0  0  0  0  0  0  0  0  0  0  0  0
    1.6885    2.3954    0.4908 C   0  0  0  0  0  0  0  0  0  0  0  0
    2.4483    1.4297    1.1371 C   0  0  0  0  0  0  0  0  0  0  0  0
    2.8299    0.2946    0.4504 C   0  0  0  0  0  0  0  0  0  0  0  0
    1.2822    3.5817    1.2159 N   0  0  0  0  0  0  0  0  0  0  0  0
    0.6398    4.4192    0.6248 O   0  0  0  0  0  0  0  0  0  0  0  0
    1.6038    3.6784    2.3779 O   0  0  0  0  0  0  0  0  0  0  0  0
    0.5517   -2.0007   -0.2361 C   0  0  0  0  0  0  0  0  0  0  0  0
   -0.0327   -1.7027   -1.4100 O   0  0  0  0  0  0  0  0  0  0  0  0
   -1.1673   -1.0117   -1.1943 N   0  0  0  0  0  0  0  0  0  0  0  0
   -1.2954   -0.9030    0.0963 C   0  0  0  0  0  0  0  0  0  0  0  0
   -0.2206   -1.5245    0.7724 C   0  0  0  0  0  0  0  0  0  0  0  0
   -2.4382   -0.1812    0.7276 C   0  0  0  0  0  0  0  0  0  0  0  0
   -2.5462   -0.1801    1.9440 O   0  0  0  0  0  0  0  0  0  0  0  0
   -3.2614    0.4348   -0.1236 N   0  0  0  0  0  0  0  0  0  0  0  0
   -4.4501    1.1609    0.2794 C   0  0  1  0  0  0  0  0  0  0  0  0
   -4.6924    2.3306   -0.6648 C   0  0  0  0  0  0  0  0  0  0  0  0
   -5.9757    3.0565   -0.2915 C   0  0  0  0  0  0  0  0  0  0  0  0
   -7.1129    2.1564   -0.2893 N   0  0  0  0  0  0  0  0  0  0  0  0
   -6.9233    1.0699    0.6533 C   0  0  0  0  0  0  0  0  0  0  0  0
   -5.6808    0.2595    0.3190 C   0  0  0  0  0  0  0  0  0  0  0  0
   -8.3436    2.8685   -0.0310 C   0  0  0  0  0  0  0  0  0  0  0  0
    3.3350   -5.5532    0.7961 H   0  0  0  0  0  0  0  0  0  0  0  0
    4.9684   -2.3419   -1.5631 H   0  0  0  0  0  0  0  0  0  0  0  0
    5.4810   -5.4644   -0.0125 H   0  0  0  0  0  0  0  0  0  0  0  0
    0.1876   -4.0617    0.9802 H   0  0  0  0  0  0  0  0  0  0  0  0
    1.4030    0.9760   -2.5564 H   0  0  0  0  0  0  0  0  0  0  0  0
    0.7248    2.9991   -1.3426 H   0  0  0  0  0  0  0  0  0  0  0  0
    2.7492    1.5512    2.1672 H   0  0  0  0  0  0  0  0  0  0  0  0
    3.4241   -0.4550    0.9558 H   0  0  0  0  0  0  0  0  0  0  0  0
   -0.0266   -1.5584    1.8309 H   0  0  0  0  0  0  0  0  0  0  0  0
   -3.0889    0.3338   -1.1135 H   0  0  0  0  0  0  0  0  0  0  0  0
   -4.2709    1.5563    1.2830 H   0  0  0  0  0  0  0  0  0  0  0  0
   -3.8531    3.0277   -0.6258 H   0  0  0  0  0  0  0  0  0  0  0  0
   -4.7683    1.9647   -1.6941 H   0  0  0  0  0  0  0  0  0  0  0  0
   -5.8446    3.5440    0.6918 H   0  0  0  0  0  0  0  0  0  0  0  0
   -6.1613    3.8549   -1.0133 H   0  0  0  0  0  0  0  0  0  0  0  0
   -6.8470    1.4448    1.6906 H   0  0  0  0  0  0  0  0  0  0  0  0
   -7.8017    0.4213    0.6213 H   0  0  0  0  0  0  0  0  0  0  0  0
   -5.8069   -0.2246   -0.6538 H   0  0  0  0  0  0  0  0  0  0  0  0
   -5.5468   -0.5280    1.0635 H   0  0  0  0  0  0  0  0  0  0  0  0
   -8.4923    3.6460   -0.7821 H   0  0  0  0  0  0  0  0  0  0  0  0
   -9.1922    2.1848   -0.0853 H   0  0  0  0  0  0  0  0  0  0  0  0
   -8.3661    3.3514    0.9590 H   0  0  0  0  0  0  0  0  0  0  0  0
  1  2  2  0
  1  6  1  0
  2  3  1  0
  2  8  1  0
  3  4  2  0
  3 19  1  0
  4  5  1  0
  4  9  1  0
  5  6  2  0
  6  7  1  0
  9 10  1  0
 10 11  2  0
 10 15  1  0
 11 12  1  0
 12 13  2  0
 13 14  1  0
 13 16  1  0
 14 15  2  0
 16 17  2  0
 16 18  1  0
 19 20  1  0
 19 23  2  0
 20 21  1  0
 21 22  2  0
 22 23  1  0
 22 24  1  0
 24 25  2  0
 24 26  1  0
 26 27  1  0
 27 28  1  0
 27 32  1  0
 28 29  1  0
 29 30  1  0
 30 31  1  0
 30 33  1  0
 31 32  1  0
  1 34  1  0
  5 35  1  0
  7 36  1  0
  8 37  1  0
 11 38  1  0
 12 39  1  0
 14 40  1  0
 15 41  1  0
 23 42  1  0
 26 43  1  0
 27 44  1  1
 28 45  1  0
 28 46  1  0
 29 47  1  0
 29 48  1  0
 31 49  1  0
 31 50  1  0
 32 51  1  0
 32 52  1  0
 33 53  1  0
 33 54  1  0
 33 55  1  0
M  CHG  2  16   1  18  -1
M  END
