
     RDKit          3D

 35 37  0  0  0  0  0  0  0  0999 V2000
   -5.0234    1.2087   -0.1454 C   0  0  0  0  0  0  0  0  0  0  0  0
   -4.7655    0.0105    0.7353 C   0  0  0  0  0  0  0  0  0  0  0  0
   -3.5666   -0.7623    0.3212 C   0  0  0  0  0  0  0  0  0  0  0  0
   -3.5340   -2.0247   -0.1455 C   0  0  0  0  0  0  0  0  0  0  0  0
   -1.4474   -1.4172   -0.1131 C   0  0  0  0  0  0  0  0  0  0  0  0
   -0.0739   -1.4130   -0.2415 C   0  0  0  0  0  0  0  0  0  0  0  0
    0.5850   -0.2443    0.1317 C   0  0  0  0  0  0  0  0  0  0  0  0
    2.6708    0.8795    0.3835 C   0  0  0  0  0  0  0  0  0  0  0  0
    4.1157    0.5733    0.1425 C   0  0  0  0  0  0  0  0  0  0  0  0
    4.7435    0.9911   -1.0256 C   0  0  0  0  0  0  0  0  0  0  0  0
    6.0770    0.6846   -1.2599 C   0  0  0  0  0  0  0  0  0  0  0  0
    6.7942   -0.0495   -0.3261 C   0  0  0  0  0  0  0  0  0  0  0  0
    6.1742   -0.4742    0.8420 C   0  0  0  0  0  0  0  0  0  0  0  0
    4.8423   -0.1643    1.0728 C   0  0  0  0  0  0  0  0  0  0  0  0
   -0.1339    0.8620    0.6144 C   0  0  0  0  0  0  0  0  0  0  0  0
   -1.5143    0.8223    0.7237 C   0  0  0  0  0  0  0  0  0  0  0  0
   -2.1911   -0.3340    0.3569 C   0  0  0  0  0  0  0  0  0  0  0  0
   -4.3564    1.5323   -1.0913 O   0  0  0  0  0  0  0  0  0  0  0  0
   -6.0989    1.8811    0.2548 O   0  0  0  0  0  0  0  0  0  0  0  0
   -2.2673   -2.4458   -0.4168 O   0  0  0  0  0  0  0  0  0  0  0  0
    1.9281   -0.2630   -0.0071 O   0  0  0  0  0  0  0  0  0  0  0  0
   -4.6705    0.3589    1.7688 H   0  0  0  0  0  0  0  0  0  0  0  0
   -5.6569   -0.6214    0.7231 H   0  0  0  0  0  0  0  0  0  0  0  0
   -4.3198   -2.7377   -0.3376 H   0  0  0  0  0  0  0  0  0  0  0  0
    0.4734   -2.2697   -0.6119 H   0  0  0  0  0  0  0  0  0  0  0  0
    2.4975    1.1050    1.4416 H   0  0  0  0  0  0  0  0  0  0  0  0
    2.3637    1.7572   -0.1953 H   0  0  0  0  0  0  0  0  0  0  0  0
    4.1896    1.5642   -1.7594 H   0  0  0  0  0  0  0  0  0  0  0  0
    6.5547    1.0209   -2.1703 H   0  0  0  0  0  0  0  0  0  0  0  0
    7.8341   -0.2874   -0.5056 H   0  0  0  0  0  0  0  0  0  0  0  0
    6.7294   -1.0438    1.5751 H   0  0  0  0  0  0  0  0  0  0  0  0
    4.3664   -0.4952    1.9880 H   0  0  0  0  0  0  0  0  0  0  0  0
    0.3747    1.7683    0.9103 H   0  0  0  0  0  0  0  0  0  0  0  0
   -2.0406    1.6906    1.0967 H   0  0  0  0  0  0  0  0  0  0  0  0
   -6.2345    2.6384   -0.3293 H   0  0  0  0  0  0  0  0  0  0  0  0
 18  1  2  0
  2  1  1  0
  2  3  1  0
  1 19  1  0
  3 17  1  0
  3  4  2  0
 16 17  2  0
 16 15  1  0
 17  5  1  0
  4 20  1  0
 15  7  2  0
  5 20  1  0
  5  6  2  0
  7  6  1  0
  7 21  1  0
 21  8  1  0
 14 13  2  0
 14  9  1  0
  8  9  1  0
 13 12  1  0
  9 10  2  0
 12 11  2  0
 10 11  1  0
  2 22  1  0
  2 23  1  0
  4 24  1  0
  6 25  1  0
  8 26  1  0
  8 27  1  0
 10 28  1  0
 11 29  1  0
 12 30  1  0
 13 31  1  0
 14 32  1  0
 15 33  1  0
 16 34  1  0
 19 35  1  0
M  END
