
     RDKit          3D

 45 47  0  0  0  0  0  0  0  0999 V2000
   -3.5553   -0.8490   -1.6667 N   0  0  0  0  0  0  0  0  0  0  0  0
   -2.7014   -0.0758   -2.4824 O   0  0  0  0  0  0  0  0  0  0  0  0
   -1.8793   -0.9224   -3.2537 C   0  0  0  0  0  0  0  0  0  0  0  0
   -0.9416   -0.0599   -4.0755 C   0  0  0  0  0  0  0  0  0  0  0  0
    0.0737    0.6400   -3.2979 N   0  0  0  0  0  0  0  0  0  0  0  0
    0.5527    1.8124   -4.0056 C   0  0  0  0  0  0  0  0  0  0  0  0
    1.1546   -0.2557   -2.9437 C   0  0  0  0  0  0  0  0  0  0  0  0
    2.2224    0.3514   -2.0333 C   0  0  1  0  0  0  0  0  0  0  0  0
    1.6706    1.1191   -0.9610 O   0  0  0  0  0  0  0  0  0  0  0  0
    1.6762    0.3997    0.2308 C   0  0  1  0  0  0  0  0  0  0  0  0
    0.3318    0.4013    0.7764 N   0  0  0  0  0  0  0  0  0  0  0  0
   -0.0186    0.2537    2.0863 C   0  0  0  0  0  0  0  0  0  0  0  0
    0.7741    0.1567    3.1521 N   0  0  0  0  0  0  0  0  0  0  0  0
    0.0785    0.0319    4.2683 C   0  0  0  0  0  0  0  0  0  0  0  0
   -1.2434   -0.0090    4.4213 N   0  0  0  0  0  0  0  0  0  0  0  0
   -2.0266    0.0928    3.3421 C   0  0  0  0  0  0  0  0  0  0  0  0
   -3.3520    0.0513    3.4887 N   0  0  0  0  0  0  0  0  0  0  0  0
   -1.4056    0.2358    2.0880 C   0  0  0  0  0  0  0  0  0  0  0  0
   -1.8946    0.3747    0.8154 N   0  0  0  0  0  0  0  0  0  0  0  0
   -0.8328    0.4691    0.0648 C   0  0  0  0  0  0  0  0  0  0  0  0
    2.1849   -1.0078   -0.1099 C   0  0  2  0  0  0  0  0  0  0  0  0
    2.8915   -1.5403    0.9709 O   0  0  0  0  0  0  0  0  0  0  0  0
    3.0394   -0.7378   -1.3550 C   0  0  2  0  0  0  0  0  0  0  0  0
    4.2924   -0.2207   -0.9952 O   0  0  0  0  0  0  0  0  0  0  0  0
   -3.3516   -0.5366   -0.7201 H   0  0  0  0  0  0  0  0  0  0  0  0
   -4.4892   -0.5140   -1.8794 H   0  0  0  0  0  0  0  0  0  0  0  0
   -2.4800   -1.5302   -3.9418 H   0  0  0  0  0  0  0  0  0  0  0  0
   -1.3289   -1.6224   -2.6127 H   0  0  0  0  0  0  0  0  0  0  0  0
   -1.5436    0.6824   -4.6055 H   0  0  0  0  0  0  0  0  0  0  0  0
   -0.4901   -0.6934   -4.8558 H   0  0  0  0  0  0  0  0  0  0  0  0
    1.2159    2.4050   -3.3766 H   0  0  0  0  0  0  0  0  0  0  0  0
    1.0933    1.5669   -4.9322 H   0  0  0  0  0  0  0  0  0  0  0  0
   -0.2904    2.4503   -4.2714 H   0  0  0  0  0  0  0  0  0  0  0  0
    0.7279   -1.1415   -2.4651 H   0  0  0  0  0  0  0  0  0  0  0  0
    1.6839   -0.6290   -3.8389 H   0  0  0  0  0  0  0  0  0  0  0  0
    2.8683    1.0192   -2.6083 H   0  0  0  0  0  0  0  0  0  0  0  0
    2.3226    0.8708    0.9791 H   0  0  0  0  0  0  0  0  0  0  0  0
    0.6550   -0.0501    5.1839 H   0  0  0  0  0  0  0  0  0  0  0  0
   -3.7597   -0.0356    4.4035 H   0  0  0  0  0  0  0  0  0  0  0  0
   -3.9653    0.1586    2.7004 H   0  0  0  0  0  0  0  0  0  0  0  0
   -0.8347    0.6079   -1.0083 H   0  0  0  0  0  0  0  0  0  0  0  0
    1.3332   -1.6425   -0.3824 H   0  0  0  0  0  0  0  0  0  0  0  0
    2.9216   -2.4981    0.8811 H   0  0  0  0  0  0  0  0  0  0  0  0
    3.1311   -1.6310   -1.9869 H   0  0  0  0  0  0  0  0  0  0  0  0
    4.6143   -0.7265   -0.2392 H   0  0  0  0  0  0  0  0  0  0  0  0
  1  2  1  0
  1 25  1  0
  1 26  1  0
  2  3  1  0
  3  4  1  0
  3 27  1  0
  3 28  1  0
  4  5  1  0
  4 29  1  0
  4 30  1  0
  5  6  1  0
  5  7  1  0
  6 31  1  0
  6 32  1  0
  6 33  1  0
  7  8  1  0
  7 34  1  0
  7 35  1  0
  8  9  1  0
  8 23  1  0
  8 36  1  6
  9 10  1  0
 10 11  1  0
 10 21  1  0
 10 37  1  1
 11 12  1  0
 11 20  1  0
 12 13  2  0
 12 18  1  0
 13 14  1  0
 14 15  2  0
 14 38  1  0
 15 16  1  0
 16 17  1  0
 16 18  2  0
 17 39  1  0
 17 40  1  0
 18 19  1  0
 19 20  2  0
 20 41  1  0
 21 22  1  0
 21 23  1  0
 21 42  1  6
 22 43  1  0
 23 24  1  0
 23 44  1  6
 24 45  1  0
M  END
