
     RDKit          3D

 22 23  0  0  0  0  0  0  0  0999 V2000
   -1.4952   -1.2463   -0.4337 C   0  0  0  0  0  0  0  0  0  0  0  0
   -2.8731   -1.3930   -0.4227 C   0  0  0  0  0  0  0  0  0  0  0  0
   -3.6879   -0.3900    0.0880 C   0  0  0  0  0  0  0  0  0  0  0  0
   -3.1090    0.7598    0.6050 C   0  0  0  0  0  0  0  0  0  0  0  0
   -1.7293    0.9116    0.6171 C   0  0  0  0  0  0  0  0  0  0  0  0
   -0.9195   -0.0858    0.0792 C   0  0  0  0  0  0  0  0  0  0  0  0
    0.4755    0.0483    0.0731 N   0  0  0  0  0  0  0  0  0  0  0  0
    1.2828   -1.0546    0.2354 N   0  0  0  0  0  0  0  0  0  0  0  0
    2.4830   -0.5384    0.1224 C   0  0  0  0  0  0  0  0  0  0  0  0
    3.6174   -1.2595    0.2306 N   0  0  0  0  0  0  0  0  0  0  0  0
    2.5198    0.7987   -0.1177 N   0  0  0  0  0  0  0  0  0  0  0  0
    1.2473    1.1301   -0.1556 C   0  0  0  0  0  0  0  0  0  0  0  0
    0.7799    2.3885   -0.3538 N   0  0  0  0  0  0  0  0  0  0  0  0
   -0.8671   -2.0278   -0.8383 H   0  0  0  0  0  0  0  0  0  0  0  0
   -3.3120   -2.2964   -0.8252 H   0  0  0  0  0  0  0  0  0  0  0  0
   -4.7634   -0.5077    0.0889 H   0  0  0  0  0  0  0  0  0  0  0  0
   -3.7293    1.5423    1.0220 H   0  0  0  0  0  0  0  0  0  0  0  0
   -1.2953    1.7953    1.0653 H   0  0  0  0  0  0  0  0  0  0  0  0
    3.5874   -2.2461    0.4064 H   0  0  0  0  0  0  0  0  0  0  0  0
    4.5102   -0.8113    0.1513 H   0  0  0  0  0  0  0  0  0  0  0  0
   -0.1176    2.4792   -0.8047 H   0  0  0  0  0  0  0  0  0  0  0  0
    1.4674    3.0167   -0.7398 H   0  0  0  0  0  0  0  0  0  0  0  0
 10  9  1  0
  9  8  2  0
  9 11  1  0
  8  7  1  0
  1  2  2  0
  1  6  1  0
  7  6  1  0
  7 12  1  0
 11 12  2  0
  2  3  1  0
  6  5  2  0
 12 13  1  0
  3  4  2  0
  5  4  1  0
  1 14  1  0
  2 15  1  0
  3 16  1  0
  4 17  1  0
  5 18  1  0
 10 19  1  0
 10 20  1  0
 13 21  1  0
 13 22  1  0
M  END
