
     RDKit          3D

 24 24  0  0  0  0  0  0  0  0999 V2000
   -3.1985   -0.0034   -0.3526 C   0  0  0  0  0  0  0  0  0  0  0  0
   -1.7820   -0.0025    0.1851 C   0  0  0  0  0  0  0  0  0  0  0  0
   -0.7732   -0.0123   -0.9631 C   0  0  0  0  0  0  0  0  0  0  0  0
    0.6455   -0.0065   -0.4656 C   0  0  0  0  0  0  0  0  0  0  0  0
    1.3128   -1.2008   -0.2030 C   0  0  0  0  0  0  0  0  0  0  0  0
    2.6129   -1.1979    0.2847 C   0  0  0  0  0  0  0  0  0  0  0  0
    3.2668    0.0049    0.5192 C   0  0  0  0  0  0  0  0  0  0  0  0
    2.6111    1.2019    0.2615 C   0  0  0  0  0  0  0  0  0  0  0  0
    1.3111    1.1936   -0.2264 C   0  0  0  0  0  0  0  0  0  0  0  0
   -4.1932    0.0121    0.7513 N   0  0  0  0  0  0  0  0  0  0  0  0
   -3.4029   -0.8922   -0.9461 H   0  0  0  0  0  0  0  0  0  0  0  0
   -3.3956    0.8742   -0.9650 H   0  0  0  0  0  0  0  0  0  0  0  0
   -1.6242    0.8811    0.8097 H   0  0  0  0  0  0  0  0  0  0  0  0
   -1.6266   -0.8774    0.8226 H   0  0  0  0  0  0  0  0  0  0  0  0
   -0.9428   -0.8943   -1.5859 H   0  0  0  0  0  0  0  0  0  0  0  0
   -0.9439    0.8579   -1.6020 H   0  0  0  0  0  0  0  0  0  0  0  0
    0.8131   -2.1445   -0.3889 H   0  0  0  0  0  0  0  0  0  0  0  0
    3.1168   -2.1364    0.4776 H   0  0  0  0  0  0  0  0  0  0  0  0
    4.2815    0.0093    0.8961 H   0  0  0  0  0  0  0  0  0  0  0  0
    3.1135    2.1446    0.4369 H   0  0  0  0  0  0  0  0  0  0  0  0
    0.8101    2.1329   -0.4304 H   0  0  0  0  0  0  0  0  0  0  0  0
   -5.1482    0.0017    0.3949 H   0  0  0  0  0  0  0  0  0  0  0  0
   -4.1028    0.8438    1.3343 H   0  0  0  0  0  0  0  0  0  0  0  0
   -4.0962   -0.7975    1.3634 H   0  0  0  0  0  0  0  0  0  0  0  0
  1  2  1  0
  1 10  1  0
  1 11  1  0
  1 12  1  0
  2  3  1  0
  2 13  1  0
  2 14  1  0
  3  4  1  0
  3 15  1  0
  3 16  1  0
  4  5  2  0
  4  9  1  0
  5  6  1  0
  5 17  1  0
  6  7  2  0
  6 18  1  0
  7  8  1  0
  7 19  1  0
  8  9  2  0
  8 20  1  0
  9 21  1  0
 10 22  1  0
 10 23  1  0
 10 24  1  0
M  CHG  1  10   1
M  END
