
     RDKit          3D

 51 53  0  0  0  0  0  0  0  0999 V2000
   -2.6819   -2.5571    0.2648 N   0  0  0  0  0  0  0  0  0  0  0  0
   -4.7491   -3.9049   -0.1365 C   0  0  0  0  0  0  0  0  0  0  0  0
   -3.2350   -3.7860   -0.2859 C   0  0  0  0  0  0  0  0  0  0  0  0
   -3.3340   -1.3792   -0.2715 C   0  0  1  0  0  0  0  0  0  0  0  0
   -4.8654   -1.3986   -0.1204 C   0  0  0  0  0  0  0  0  0  0  0  0
   -5.4383   -2.6771   -0.7217 C   0  0  0  0  0  0  0  0  0  0  0  0
   -2.7947   -0.1305    0.4051 C   0  0  0  0  0  0  0  0  0  0  0  0
   -2.4151   -0.1353    1.5665 O   0  0  0  0  0  0  0  0  0  0  0  0
   -2.8339    0.9704   -0.3651 N   0  0  0  0  0  0  0  0  0  0  0  0
   -2.6164    2.3058    0.1124 C   0  0  2  0  0  0  0  0  0  0  0  0
   -3.8719    3.1334    0.0440 C   0  0  0  0  0  0  0  0  0  0  0  0
   -1.4936    3.0102   -0.6719 C   0  0  0  0  0  0  0  0  0  0  0  0
   -0.1731    2.3207   -0.5024 C   0  0  0  0  0  0  0  0  0  0  0  0
    0.2285    1.3112   -1.3723 C   0  0  0  0  0  0  0  0  0  0  0  0
    1.4373    0.6572   -1.1964 C   0  0  0  0  0  0  0  0  0  0  0  0
    2.2874    0.9973   -0.1439 C   0  0  0  0  0  0  0  0  0  0  0  0
    1.8845    2.0090    0.7286 C   0  0  0  0  0  0  0  0  0  0  0  0
    0.6720    2.6548    0.5522 C   0  0  0  0  0  0  0  0  0  0  0  0
    3.5817    0.3143    0.0336 C   0  0  0  0  0  0  0  0  0  0  0  0
    4.7056    1.0178    0.4749 C   0  0  0  0  0  0  0  0  0  0  0  0
    3.7128   -1.0497   -0.2400 C   0  0  0  0  0  0  0  0  0  0  0  0
    5.9235    0.3855    0.6379 C   0  0  0  0  0  0  0  0  0  0  0  0
    4.9247   -1.6948   -0.0820 C   0  0  0  0  0  0  0  0  0  0  0  0
    6.0361   -0.9761    0.3580 C   0  0  0  0  0  0  0  0  0  0  0  0
    7.2909   -1.6341    0.5208 C   0  0  0  0  0  0  0  0  0  0  0  0
    8.3064   -2.1642    0.6479 N   0  0  0  0  0  0  0  0  0  0  0  0
   -4.9454    2.6854   -0.4423 N   0  0  0  0  0  0  0  0  0  0  0  0
   -3.7595    4.1467    0.4395 H   0  0  0  0  0  0  0  0  0  0  0  0
   -2.7940   -2.5630    1.2727 H   0  0  0  0  0  0  0  0  0  0  0  0
   -2.9723   -3.8322   -1.3488 H   0  0  0  0  0  0  0  0  0  0  0  0
   -2.7342   -4.6300    0.1927 H   0  0  0  0  0  0  0  0  0  0  0  0
   -3.1027   -1.3302   -1.3433 H   0  0  0  0  0  0  0  0  0  0  0  0
   -5.1025   -4.8155   -0.6267 H   0  0  0  0  0  0  0  0  0  0  0  0
   -5.0005   -3.9994    0.9255 H   0  0  0  0  0  0  0  0  0  0  0  0
   -5.2934   -2.6619   -1.8074 H   0  0  0  0  0  0  0  0  0  0  0  0
   -6.5164   -2.7209   -0.5528 H   0  0  0  0  0  0  0  0  0  0  0  0
   -5.1160   -1.3452    0.9450 H   0  0  0  0  0  0  0  0  0  0  0  0
   -5.3034   -0.5154   -0.5930 H   0  0  0  0  0  0  0  0  0  0  0  0
   -3.2223    0.8812   -1.2915 H   0  0  0  0  0  0  0  0  0  0  0  0
   -2.3125    2.2456    1.1606 H   0  0  0  0  0  0  0  0  0  0  0  0
   -1.7691    3.0492   -1.7290 H   0  0  0  0  0  0  0  0  0  0  0  0
   -1.4214    4.0433   -0.3244 H   0  0  0  0  0  0  0  0  0  0  0  0
   -5.6736    3.3932   -0.4088 H   0  0  0  0  0  0  0  0  0  0  0  0
   -0.4039    1.0399   -2.2085 H   0  0  0  0  0  0  0  0  0  0  0  0
    0.3821    3.4341    1.2475 H   0  0  0  0  0  0  0  0  0  0  0  0
    1.7303   -0.1068   -1.9059 H   0  0  0  0  0  0  0  0  0  0  0  0
    2.5121    2.2888    1.5657 H   0  0  0  0  0  0  0  0  0  0  0  0
    4.6366    2.0793    0.6734 H   0  0  0  0  0  0  0  0  0  0  0  0
    2.8527   -1.6223   -0.5614 H   0  0  0  0  0  0  0  0  0  0  0  0
    6.7867    0.9459    0.9703 H   0  0  0  0  0  0  0  0  0  0  0  0
    5.0085   -2.7527   -0.2905 H   0  0  0  0  0  0  0  0  0  0  0  0
  1  3  1  0
  1  4  1  0
  2  3  1  0
  2  6  1  0
  4  5  1  0
  4  7  1  0
  5  6  1  0
  7  8  2  0
  7  9  1  0
  9 10  1  0
 10 11  1  0
 10 12  1  0
 11 27  2  0
 11 28  1  0
 12 13  1  0
 13 14  2  0
 13 18  1  0
 14 15  1  0
 15 16  2  0
 16 17  1  0
 16 19  1  0
 17 18  2  0
 19 20  2  0
 19 21  1  0
 20 22  1  0
 21 23  2  0
 22 24  2  0
 23 24  1  0
 24 25  1  0
 25 26  3  0
  1 29  1  0
  3 30  1  0
  3 31  1  0
  4 32  1  6
  2 33  1  0
  2 34  1  0
  6 35  1  0
  6 36  1  0
  5 37  1  0
  5 38  1  0
  9 39  1  0
 10 40  1  1
 12 41  1  0
 12 42  1  0
 27 43  1  0
 14 44  1  0
 18 45  1  0
 15 46  1  0
 17 47  1  0
 20 48  1  0
 21 49  1  0
 22 50  1  0
 23 51  1  0
M  END
