
     RDKit          3D

 71 70  0  0  0  0  0  0  0  0999 V2000
  -12.8500   -1.4494    0.0858 O   0  0  0  0  0  0  0  0  0  0  0  0
  -13.8406    0.5370   -0.1100 O   0  0  0  0  0  0  0  0  0  0  0  0
  -12.7720   -0.2494   -0.0063 C   0  0  0  0  0  0  0  0  0  0  0  0
  -11.4932    0.5408   -0.0113 C   0  0  0  0  0  0  0  0  0  0  0  0
  -10.2382   -0.3166   -0.0008 C   0  0  0  0  0  0  0  0  0  0  0  0
   -8.9722    0.5313   -0.0038 C   0  0  0  0  0  0  0  0  0  0  0  0
   -7.7002   -0.3067    0.0017 C   0  0  0  0  0  0  0  0  0  0  0  0
   -6.4283    0.5321    0.0029 C   0  0  0  0  0  0  0  0  0  0  0  0
   -5.1567   -0.3073    0.0040 C   0  0  0  0  0  0  0  0  0  0  0  0
   -3.8825    0.5282    0.0063 C   0  0  0  0  0  0  0  0  0  0  0  0
   -2.6121   -0.3133    0.0063 C   0  0  0  0  0  0  0  0  0  0  0  0
   -1.3366    0.5202    0.0094 C   0  0  0  0  0  0  0  0  0  0  0  0
   -0.0675   -0.3232    0.0089 C   0  0  0  0  0  0  0  0  0  0  0  0
    1.2095    0.5079    0.0112 C   0  0  0  0  0  0  0  0  0  0  0  0
    2.4769   -0.3380    0.0103 C   0  0  0  0  0  0  0  0  0  0  0  0
    3.7555    0.4908    0.0132 C   0  0  0  0  0  0  0  0  0  0  0  0
    5.0212   -0.3575    0.0109 C   0  0  0  0  0  0  0  0  0  0  0  0
    6.3017    0.4683    0.0165 C   0  0  0  0  0  0  0  0  0  0  0  0
    7.5654   -0.3830    0.0163 C   0  0  0  0  0  0  0  0  0  0  0  0
    8.8480    0.4397    0.0211 C   0  0  0  0  0  0  0  0  0  0  0  0
   10.1094   -0.4150    0.0203 C   0  0  0  0  0  0  0  0  0  0  0  0
   11.3942    0.4041    0.0310 C   0  0  0  0  0  0  0  0  0  0  0  0
   12.6529   -0.4546    0.0297 C   0  0  0  0  0  0  0  0  0  0  0  0
   13.9418    0.3585    0.0359 C   0  0  0  0  0  0  0  0  0  0  0  0
   15.1884   -0.5159    0.0353 C   0  0  0  0  0  0  0  0  0  0  0  0
  -14.6475    0.0011   -0.0916 H   0  0  0  0  0  0  0  0  0  0  0  0
  -11.5081    1.2060    0.8590 H   0  0  0  0  0  0  0  0  0  0  0  0
  -11.5002    1.2033   -0.8825 H   0  0  0  0  0  0  0  0  0  0  0  0
  -10.2334   -0.9778   -0.8718 H   0  0  0  0  0  0  0  0  0  0  0  0
  -10.2382   -0.9647    0.8797 H   0  0  0  0  0  0  0  0  0  0  0  0
   -8.9744    1.1947    0.8684 H   0  0  0  0  0  0  0  0  0  0  0  0
   -8.9722    1.1859   -0.8826 H   0  0  0  0  0  0  0  0  0  0  0  0
   -7.6978   -0.9680   -0.8721 H   0  0  0  0  0  0  0  0  0  0  0  0
   -7.7022   -0.9639    0.8786 H   0  0  0  0  0  0  0  0  0  0  0  0
   -6.4290    1.1912    0.8784 H   0  0  0  0  0  0  0  0  0  0  0  0
   -6.4273    1.1919   -0.8722 H   0  0  0  0  0  0  0  0  0  0  0  0
   -5.1565   -0.9662   -0.8718 H   0  0  0  0  0  0  0  0  0  0  0  0
   -5.1590   -0.9675    0.8787 H   0  0  0  0  0  0  0  0  0  0  0  0
   -3.8817    1.1867    0.8826 H   0  0  0  0  0  0  0  0  0  0  0  0
   -3.8800    1.1889   -0.8681 H   0  0  0  0  0  0  0  0  0  0  0  0
   -2.6132   -0.9711   -0.8703 H   0  0  0  0  0  0  0  0  0  0  0  0
   -2.6153   -0.9743    0.8804 H   0  0  0  0  0  0  0  0  0  0  0  0
   -1.3351    1.1776    0.8864 H   0  0  0  0  0  0  0  0  0  0  0  0
   -1.3330    1.1819   -0.8642 H   0  0  0  0  0  0  0  0  0  0  0  0
   -0.0703   -0.9818   -0.8673 H   0  0  0  0  0  0  0  0  0  0  0  0
   -0.0714   -0.9839    0.8833 H   0  0  0  0  0  0  0  0  0  0  0  0
    1.2128    1.1660    0.8877 H   0  0  0  0  0  0  0  0  0  0  0  0
    1.2140    1.1690   -0.8629 H   0  0  0  0  0  0  0  0  0  0  0  0
    2.4729   -0.9961   -0.8661 H   0  0  0  0  0  0  0  0  0  0  0  0
    2.4716   -0.9993    0.8843 H   0  0  0  0  0  0  0  0  0  0  0  0
    3.7602    1.1476    0.8907 H   0  0  0  0  0  0  0  0  0  0  0  0
    3.7609    1.1530   -0.8600 H   0  0  0  0  0  0  0  0  0  0  0  0
    5.0165   -1.0130   -0.8675 H   0  0  0  0  0  0  0  0  0  0  0  0
    5.0141   -1.0215    0.8829 H   0  0  0  0  0  0  0  0  0  0  0  0
    6.3064    1.1245    0.8943 H   0  0  0  0  0  0  0  0  0  0  0  0
    6.3102    1.1310   -0.8564 H   0  0  0  0  0  0  0  0  0  0  0  0
    7.5595   -1.0404   -0.8606 H   0  0  0  0  0  0  0  0  0  0  0  0
    7.5564   -1.0450    0.8898 H   0  0  0  0  0  0  0  0  0  0  0  0
    8.8549    1.0958    0.8988 H   0  0  0  0  0  0  0  0  0  0  0  0
    8.8578    1.1023   -0.8517 H   0  0  0  0  0  0  0  0  0  0  0  0
   10.1035   -1.0686   -0.8595 H   0  0  0  0  0  0  0  0  0  0  0  0
   10.0968   -1.0807    0.8908 H   0  0  0  0  0  0  0  0  0  0  0  0
   11.4010    1.0572    0.9111 H   0  0  0  0  0  0  0  0  0  0  0  0
   11.4078    1.0698   -0.8394 H   0  0  0  0  0  0  0  0  0  0  0  0
   12.6438   -1.1108   -0.8483 H   0  0  0  0  0  0  0  0  0  0  0  0
   12.6403   -1.1182    0.9020 H   0  0  0  0  0  0  0  0  0  0  0  0
   13.9523    1.0135    0.9128 H   0  0  0  0  0  0  0  0  0  0  0  0
   13.9564    1.0200   -0.8361 H   0  0  0  0  0  0  0  0  0  0  0  0
   16.1012    0.0810    0.0396 H   0  0  0  0  0  0  0  0  0  0  0  0
   15.2135   -1.1641    0.9134 H   0  0  0  0  0  0  0  0  0  0  0  0
   15.2173   -1.1575   -0.8476 H   0  0  0  0  0  0  0  0  0  0  0  0
  1  3  2  0
  2  3  1  0
  2 26  1  0
  3  4  1  0
  4  5  1  0
  4 27  1  0
  4 28  1  0
  5  6  1  0
  5 29  1  0
  5 30  1  0
  6  7  1  0
  6 31  1  0
  6 32  1  0
  7  8  1  0
  7 33  1  0
  7 34  1  0
  8  9  1  0
  8 35  1  0
  8 36  1  0
  9 10  1  0
  9 37  1  0
  9 38  1  0
 10 11  1  0
 10 39  1  0
 10 40  1  0
 11 12  1  0
 11 41  1  0
 11 42  1  0
 12 13  1  0
 12 43  1  0
 12 44  1  0
 13 14  1  0
 13 45  1  0
 13 46  1  0
 14 15  1  0
 14 47  1  0
 14 48  1  0
 15 16  1  0
 15 49  1  0
 15 50  1  0
 16 17  1  0
 16 51  1  0
 16 52  1  0
 17 18  1  0
 17 53  1  0
 17 54  1  0
 18 19  1  0
 18 55  1  0
 18 56  1  0
 19 20  1  0
 19 57  1  0
 19 58  1  0
 20 21  1  0
 20 59  1  0
 20 60  1  0
 21 22  1  0
 21 61  1  0
 21 62  1  0
 22 23  1  0
 22 63  1  0
 22 64  1  0
 23 24  1  0
 23 65  1  0
 23 66  1  0
 24 25  1  0
 24 67  1  0
 24 68  1  0
 25 69  1  0
 25 70  1  0
 25 71  1  0
M  END
