
     RDKit          3D

 28 29  0  0  0  0  0  0  0  0999 V2000
    0.7028    0.0668    1.1448 N   0  0  0  0  0  0  0  0  0  0  0  0
   -0.0546    0.0131    0.0052 C   0  0  0  0  0  0  0  0  0  0  0  0
    0.7134   -0.0663   -1.1264 N   0  0  0  0  0  0  0  0  0  0  0  0
   -1.2717    0.0329   -0.0015 O   0  0  0  0  0  0  0  0  0  0  0  0
    0.2382    0.1147    2.4621 C   0  0  0  0  0  0  0  0  0  0  0  0
    1.0799   -0.3922    3.4552 C   0  0  0  0  0  0  0  0  0  0  0  0
    0.7099   -0.3422    4.7891 C   0  0  0  0  0  0  0  0  0  0  0  0
   -0.5117    0.2047    5.1587 C   0  0  0  0  0  0  0  0  0  0  0  0
   -1.3468    0.7112    4.1731 C   0  0  0  0  0  0  0  0  0  0  0  0
   -0.9836    0.6783    2.8334 C   0  0  0  0  0  0  0  0  0  0  0  0
    0.2554   -0.1011   -2.4469 C   0  0  0  0  0  0  0  0  0  0  0  0
    1.1083    0.3980   -3.4340 C   0  0  0  0  0  0  0  0  0  0  0  0
    0.7435    0.3588   -4.7697 C   0  0  0  0  0  0  0  0  0  0  0  0
   -0.4840   -0.1693   -5.1470 C   0  0  0  0  0  0  0  0  0  0  0  0
   -1.3304   -0.6684   -4.1670 C   0  0  0  0  0  0  0  0  0  0  0  0
   -0.9725   -0.6461   -2.8257 C   0  0  0  0  0  0  0  0  0  0  0  0
    1.6915   -0.1076    1.0514 H   0  0  0  0  0  0  0  0  0  0  0  0
    1.7063    0.0827   -1.0256 H   0  0  0  0  0  0  0  0  0  0  0  0
    2.0315   -0.8308    3.1784 H   0  0  0  0  0  0  0  0  0  0  0  0
    1.3809   -0.7388    5.5403 H   0  0  0  0  0  0  0  0  0  0  0  0
   -0.8056    0.2406    6.1992 H   0  0  0  0  0  0  0  0  0  0  0  0
   -2.2979    1.1507    4.4452 H   0  0  0  0  0  0  0  0  0  0  0  0
   -1.6482    1.0975    2.0949 H   0  0  0  0  0  0  0  0  0  0  0  0
    2.0645    0.8221   -3.1509 H   0  0  0  0  0  0  0  0  0  0  0  0
    1.4229    0.7499   -5.5162 H   0  0  0  0  0  0  0  0  0  0  0  0
   -0.7741   -0.1964   -6.1888 H   0  0  0  0  0  0  0  0  0  0  0  0
   -2.2859   -1.0941   -4.4451 H   0  0  0  0  0  0  0  0  0  0  0  0
   -1.6462   -1.0598   -2.0922 H   0  0  0  0  0  0  0  0  0  0  0  0
  1  2  1  0
  1  5  1  0
  1 17  1  0
  2  3  1  0
  2  4  2  0
  3 11  1  0
  3 18  1  0
  5  6  2  0
  5 10  1  0
  6  7  1  0
  6 19  1  0
  7  8  2  0
  7 20  1  0
  8  9  1  0
  8 21  1  0
  9 10  2  0
  9 22  1  0
 10 23  1  0
 11 12  2  0
 11 16  1  0
 12 13  1  0
 12 24  1  0
 13 14  2  0
 13 25  1  0
 14 15  1  0
 14 26  1  0
 15 16  2  0
 15 27  1  0
 16 28  1  0
M  END
