
     RDKit          3D

 38 40  0  0  0  0  0  0  0  0999 V2000
    5.1269    1.7957    0.2754 C   0  0  0  0  0  0  0  0  0  0  0  0
    4.3652    2.5568   -0.6252 C   0  0  0  0  0  0  0  0  0  0  0  0
    3.2135    2.0527   -1.2017 C   0  0  0  0  0  0  0  0  0  0  0  0
    4.7597    0.5087    0.6274 C   0  0  0  0  0  0  0  0  0  0  0  0
    2.9437   -1.1867    0.1550 N   0  0  0  0  0  0  0  0  0  0  0  0
    3.5991    0.0114    0.0461 C   0  0  0  0  0  0  0  0  0  0  0  0
    2.8263    0.7578   -0.8589 C   0  0  0  0  0  0  0  0  0  0  0  0
    1.7477    0.0134   -1.2745 N   0  0  0  0  0  0  0  0  0  0  0  0
    1.8551   -1.1302   -0.6494 C   0  0  0  0  0  0  0  0  0  0  0  0
    0.8570   -2.2300   -0.7452 C   0  0  0  0  0  0  0  0  0  0  0  0
   -0.3569   -1.9638    0.1656 C   0  0  2  0  0  0  0  0  0  0  0  0
   -1.3649   -3.0838   -0.0480 C   0  0  0  0  0  0  0  0  0  0  0  0
   -1.1146   -4.1118    0.7475 O   0  0  0  0  0  0  0  0  0  0  0  0
   -2.2362   -3.0608   -0.8758 O   0  0  0  0  0  0  0  0  0  0  0  0
   -0.9353   -0.6918   -0.1587 N   0  0  0  0  0  0  0  0  0  0  0  0
   -1.9628   -0.1966    0.5575 C   0  0  0  0  0  0  0  0  0  0  0  0
   -2.3618    1.1774    0.2246 C   0  0  0  0  0  0  0  0  0  0  0  0
   -2.5121   -0.8606    1.4295 O   0  0  0  0  0  0  0  0  0  0  0  0
   -3.5098    1.7930    0.6372 C   0  0  0  0  0  0  0  0  0  0  0  0
   -3.5351    3.0458    0.1564 O   0  0  0  0  0  0  0  0  0  0  0  0
   -2.4084    3.2547   -0.5647 C   0  0  0  0  0  0  0  0  0  0  0  0
   -1.6486    2.1431   -0.5641 C   0  0  0  0  0  0  0  0  0  0  0  0
   -4.6588    1.3688    1.4697 C   0  0  0  0  0  0  0  0  0  0  0  0
    6.0219    2.2262    0.7050 H   0  0  0  0  0  0  0  0  0  0  0  0
    4.6883    3.5600   -0.8704 H   0  0  0  0  0  0  0  0  0  0  0  0
    2.6282    2.6411   -1.8967 H   0  0  0  0  0  0  0  0  0  0  0  0
    5.3462   -0.0772    1.3226 H   0  0  0  0  0  0  0  0  0  0  0  0
    0.5241   -2.3092   -1.7815 H   0  0  0  0  0  0  0  0  0  0  0  0
    1.3082   -3.1825   -0.4684 H   0  0  0  0  0  0  0  0  0  0  0  0
   -0.0250   -1.9824    1.2084 H   0  0  0  0  0  0  0  0  0  0  0  0
   -1.7190   -4.8441    0.5509 H   0  0  0  0  0  0  0  0  0  0  0  0
   -0.4712   -0.1233   -0.8527 H   0  0  0  0  0  0  0  0  0  0  0  0
   -2.2901    4.2286   -1.0101 H   0  0  0  0  0  0  0  0  0  0  0  0
   -0.6912    2.0345   -1.0506 H   0  0  0  0  0  0  0  0  0  0  0  0
   -4.4975    1.6180    2.5206 H   0  0  0  0  0  0  0  0  0  0  0  0
   -5.5736    1.8646    1.1470 H   0  0  0  0  0  0  0  0  0  0  0  0
   -4.8031    0.2945    1.4074 H   0  0  0  0  0  0  0  0  0  0  0  0
    3.2198   -1.9725    0.7229 H   0  0  0  0  0  0  0  0  0  0  0  0
  2  1  2  0
  1  4  1  0
  1 24  1  0
  3  2  1  0
  2 25  1  0
  3  7  2  0
  3 26  1  0
  6  4  2  0
  4 27  1  0
  9  5  1  0
  6  5  1  0
  7  6  1  0
  8  7  1  0
  8  9  2  0
 10  9  1  0
 11 10  1  0
 10 28  1  0
 10 29  1  0
 15 11  1  0
 12 11  1  0
 11 30  1  1
 14 12  2  0
 12 13  1  0
 13 31  1  0
 16 15  1  0
 15 32  1  0
 17 16  1  0
 16 18  2  0
 19 17  2  0
 22 17  1  0
 20 19  1  0
 19 23  1  0
 20 21  1  0
 21 22  2  0
 21 33  1  0
 22 34  1  0
 23 35  1  0
 23 36  1  0
 23 37  1  0
  5 38  1  0
M  END
