
     RDKit          3D

 25 25  0  0  0  0  0  0  0  0999 V2000
   -0.4379   -1.9916    0.6520 N   0  0  0  0  0  0  0  0  0  0  0  0
    0.9666   -2.0110    0.9992 C   0  0  2  0  0  0  0  0  0  0  0  0
    1.2936   -3.3362    1.6726 C   0  0  0  0  0  0  0  0  0  0  0  0
    0.8848   -3.7637    2.7545 O   0  0  0  0  0  0  0  0  0  0  0  0
    2.1455   -4.1173    0.9616 O   0  0  0  0  0  0  0  0  0  0  0  0
    1.4313   -0.8704    1.9325 C   0  0  0  0  0  0  0  0  0  0  0  0
    2.8477   -1.0235    2.3596 C   0  0  0  0  0  0  0  0  0  0  0  0
    3.1580   -1.2786    3.7008 C   0  0  0  0  0  0  0  0  0  0  0  0
    3.8829   -0.9121    1.4219 C   0  0  0  0  0  0  0  0  0  0  0  0
    4.4810   -1.4230    4.1089 C   0  0  0  0  0  0  0  0  0  0  0  0
    5.2119   -1.0528    1.8081 C   0  0  0  0  0  0  0  0  0  0  0  0
    5.5082   -1.3093    3.1583 C   0  0  0  0  0  0  0  0  0  0  0  0
    6.9222   -1.4628    3.5913 N   0  0  0  0  0  0  0  0  0  0  0  0
    7.7996   -1.3616    2.7759 O   0  0  0  0  0  0  0  0  0  0  0  0
    7.1525   -1.6850    4.7499 O   0  0  0  0  0  0  0  0  0  0  0  0
   -0.6175   -1.2896   -0.0373 H   0  0  0  0  0  0  0  0  0  0  0  0
   -1.0108   -1.8343    1.4576 H   0  0  0  0  0  0  0  0  0  0  0  0
    1.5534   -1.9495    0.0319 H   0  0  0  0  0  0  0  0  0  0  0  0
    2.3125   -4.9443    1.4443 H   0  0  0  0  0  0  0  0  0  0  0  0
    1.3281    0.1078    1.3888 H   0  0  0  0  0  0  0  0  0  0  0  0
    0.7538   -0.8327    2.8286 H   0  0  0  0  0  0  0  0  0  0  0  0
    2.3507   -1.3677    4.4456 H   0  0  0  0  0  0  0  0  0  0  0  0
    3.6462   -0.7113    0.3656 H   0  0  0  0  0  0  0  0  0  0  0  0
    4.7209   -1.6244    5.1675 H   0  0  0  0  0  0  0  0  0  0  0  0
    6.0219   -0.9640    1.0634 H   0  0  0  0  0  0  0  0  0  0  0  0
  1  2  1  0
  1 16  1  0
  1 17  1  0
  2  3  1  0
  2  6  1  0
  2 18  1  6
  3  4  2  0
  3  5  1  0
  5 19  1  0
  6  7  1  0
  6 20  1  0
  6 21  1  0
  7  8  2  0
  7  9  1  0
  8 10  1  0
  8 22  1  0
  9 11  2  0
  9 23  1  0
 10 12  2  0
 10 24  1  0
 11 12  1  0
 11 25  1  0
 12 13  1  0
 13 14  2  0
 13 15  1  0
M  CHG  2  13   1  15  -1
M  END
