
     RDKit          3D

 18 19  0  0  0  0  0  0  0  0999 V2000
    0.5300   -1.8065   -0.1059 C   0  0  0  0  0  0  0  0  0  0  0  0
    1.1642    0.5297   -0.0111 C   0  0  0  0  0  0  0  0  0  0  0  0
    1.5332   -0.8149   -0.0755 C   0  0  0  0  0  0  0  0  0  0  0  0
    3.7430   -0.3438   -0.0818 C   0  0  0  0  0  0  0  0  0  0  0  0
   -0.1791    0.9105    0.0246 C   0  0  0  0  0  0  0  0  0  0  0  0
   -1.1328   -0.0819   -0.0064 C   0  0  0  0  0  0  0  0  0  0  0  0
   -0.8004   -1.4373   -0.0713 C   0  0  0  0  0  0  0  0  0  0  0  0
   -2.9583    0.3895    0.0418 Br  0  0  0  0  0  0  0  0  0  0  0  0
    0.8673   -3.0965   -0.1672 O   0  0  0  0  0  0  0  0  0  0  0  0
    2.8347   -1.2471   -0.1113 N   0  0  0  0  0  0  0  0  0  0  0  0
    3.4883    0.9865   -0.0196 N   0  0  0  0  0  0  0  0  0  0  0  0
    2.2247    1.5362    0.0202 C   0  0  0  0  0  0  0  0  0  0  0  0
    2.0518    2.7378    0.0756 O   0  0  0  0  0  0  0  0  0  0  0  0
    4.7898   -0.6168   -0.1066 H   0  0  0  0  0  0  0  0  0  0  0  0
   -0.4447    1.9572    0.0761 H   0  0  0  0  0  0  0  0  0  0  0  0
   -1.5663   -2.2015   -0.0942 H   0  0  0  0  0  0  0  0  0  0  0  0
    1.8358   -3.1595   -0.1793 H   0  0  0  0  0  0  0  0  0  0  0  0
    4.2750    1.6229    0.0022 H   0  0  0  0  0  0  0  0  0  0  0  0
  4 11  1  0
  4 10  2  0
 11 12  1  0
 10  3  1  0
 12 13  2  0
 12  2  1  0
  3  2  1  0
  3  1  2  0
  2  5  2  0
  9  1  1  0
  1  7  1  0
  5  6  1  0
  7  6  2  0
  6  8  1  0
  4 14  1  0
  5 15  1  0
  7 16  1  0
  9 17  1  0
 11 18  1  0
M  END
