
     RDKit          3D

 84 85  0  0  0  0  0  0  0  0999 V2000
   -3.6552   -2.6269    0.8888 N   0  0  0  0  0  0  0  0  0  0  0  0
   -2.6904   -3.2953    0.0021 C   0  0  2  0  0  0  0  0  0  0  0  0
   -1.4051   -2.5347   -0.3583 C   0  0  0  0  0  0  0  0  0  0  0  0
   -1.4931   -1.2083   -0.4778 N   0  0  0  0  0  0  0  0  0  0  0  0
   -0.4822   -0.3619   -1.0932 C   0  0  1  0  0  0  0  0  0  0  0  0
   -1.1478    0.9591   -1.5022 C   0  0  0  0  0  0  0  0  0  0  0  0
   -1.5647    2.0011   -0.4471 C   0  0  1  0  0  0  0  0  0  0  0  0
   -2.4411    3.0393   -1.1658 C   0  0  0  0  0  0  0  0  0  0  0  0
   -2.8878    4.2526   -0.3307 C   0  0  0  0  0  0  0  0  0  0  0  0
   -4.4017    4.4411   -0.1658 C   0  0  0  0  0  0  0  0  0  0  0  0
   -5.1026    3.4833    0.8089 C   0  0  0  0  0  0  0  0  0  0  0  0
   -5.6579    2.1850    0.2182 C   0  0  0  0  0  0  0  0  0  0  0  0
   -5.9201    1.1315    1.2900 C   0  0  0  0  0  0  0  0  0  0  0  0
   -6.5426   -0.1780    0.7728 C   0  0  0  0  0  0  0  0  0  0  0  0
   -5.7892   -1.4252    1.2264 C   0  0  0  0  0  0  0  0  0  0  0  0
   -4.5326   -1.7057    0.4227 C   0  0  0  0  0  0  0  0  0  0  0  0
   -4.3461   -1.1417   -0.6531 O   0  0  0  0  0  0  0  0  0  0  0  0
   -2.2873    1.4383    0.7722 C   0  0  0  0  0  0  0  0  0  0  0  0
    0.8203   -0.2582   -0.2793 C   0  0  2  0  0  0  0  0  0  0  0  0
    0.6501    0.0607    1.0844 O   0  0  0  0  0  0  0  0  0  0  0  0
    1.8052    0.6855   -0.9583 C   0  0  0  0  0  0  0  0  0  0  0  0
    3.1295    0.5555   -0.3853 N   0  0  0  0  0  0  0  0  0  0  0  0
    4.0830    1.4724   -0.9791 C   0  0  0  0  0  0  0  0  0  0  0  0
    5.4602    1.2957   -0.3974 C   0  0  0  0  0  0  0  0  0  0  0  0
    6.0372    0.0281   -0.3210 C   0  0  0  0  0  0  0  0  0  0  0  0
    7.3165   -0.1652    0.1864 C   0  0  0  0  0  0  0  0  0  0  0  0
    8.0292    0.9494    0.6330 C   0  0  0  0  0  0  0  0  0  0  0  0
    7.4681    2.2145    0.5690 C   0  0  0  0  0  0  0  0  0  0  0  0
    6.1867    2.3886    0.0574 C   0  0  0  0  0  0  0  0  0  0  0  0
    7.9226   -1.5493    0.2268 C   0  0  1  0  0  0  0  0  0  0  0  0
    9.0826   -1.6670   -0.7629 C   0  0  0  0  0  0  0  0  0  0  0  0
    8.3592   -1.9451    1.6363 C   0  0  0  0  0  0  0  0  0  0  0  0
   -0.3845   -3.1779   -0.5726 O   0  0  0  0  0  0  0  0  0  0  0  0
   -3.3136   -3.8634   -1.2760 C   0  0  0  0  0  0  0  0  0  0  0  0
   -3.8008   -3.2433    2.1992 C   0  0  0  0  0  0  0  0  0  0  0  0
   -2.3406   -4.1530    0.5759 H   0  0  0  0  0  0  0  0  0  0  0  0
   -2.4336   -0.8377   -0.4763 H   0  0  0  0  0  0  0  0  0  0  0  0
   -0.1743   -0.8373   -2.0335 H   0  0  0  0  0  0  0  0  0  0  0  0
   -0.4870    1.4573   -2.2158 H   0  0  0  0  0  0  0  0  0  0  0  0
   -2.0340    0.6854   -2.0867 H   0  0  0  0  0  0  0  0  0  0  0  0
   -0.6593    2.5173   -0.1005 H   0  0  0  0  0  0  0  0  0  0  0  0
   -1.8979    3.3866   -2.0495 H   0  0  0  0  0  0  0  0  0  0  0  0
   -3.3190    2.5171   -1.5569 H   0  0  0  0  0  0  0  0  0  0  0  0
   -2.4351    4.2153    0.6650 H   0  0  0  0  0  0  0  0  0  0  0  0
   -2.4899    5.1598   -0.7910 H   0  0  0  0  0  0  0  0  0  0  0  0
   -4.5624    5.4626    0.1892 H   0  0  0  0  0  0  0  0  0  0  0  0
   -4.8860    4.3956   -1.1475 H   0  0  0  0  0  0  0  0  0  0  0  0
   -4.4146    3.2505    1.6277 H   0  0  0  0  0  0  0  0  0  0  0  0
   -5.9362    4.0107    1.2824 H   0  0  0  0  0  0  0  0  0  0  0  0
   -6.5857    2.4057   -0.3203 H   0  0  0  0  0  0  0  0  0  0  0  0
   -4.9818    1.7609   -0.5266 H   0  0  0  0  0  0  0  0  0  0  0  0
   -4.9712    0.9128    1.7912 H   0  0  0  0  0  0  0  0  0  0  0  0
   -6.5598    1.5607    2.0670 H   0  0  0  0  0  0  0  0  0  0  0  0
   -7.5701   -0.2642    1.1305 H   0  0  0  0  0  0  0  0  0  0  0  0
   -6.6082   -0.1646   -0.3163 H   0  0  0  0  0  0  0  0  0  0  0  0
   -5.5755   -1.3459    2.2931 H   0  0  0  0  0  0  0  0  0  0  0  0
   -6.4218   -2.3152    1.1281 H   0  0  0  0  0  0  0  0  0  0  0  0
   -1.7157    0.6747    1.2939 H   0  0  0  0  0  0  0  0  0  0  0  0
   -2.4952    2.2285    1.4936 H   0  0  0  0  0  0  0  0  0  0  0  0
   -3.2436    1.0011    0.4910 H   0  0  0  0  0  0  0  0  0  0  0  0
    1.2716   -1.2526   -0.2770 H   0  0  0  0  0  0  0  0  0  0  0  0
    0.4313    0.9941    1.1692 H   0  0  0  0  0  0  0  0  0  0  0  0
    1.8647    0.4325   -2.0219 H   0  0  0  0  0  0  0  0  0  0  0  0
    1.4253    1.7217   -0.9105 H   0  0  0  0  0  0  0  0  0  0  0  0
    3.0797    0.7371    0.6102 H   0  0  0  0  0  0  0  0  0  0  0  0
    4.1183    1.2681   -2.0547 H   0  0  0  0  0  0  0  0  0  0  0  0
    3.7832    2.5274   -0.8832 H   0  0  0  0  0  0  0  0  0  0  0  0
    5.4711   -0.8292   -0.6693 H   0  0  0  0  0  0  0  0  0  0  0  0
    9.0296    0.8322    1.0338 H   0  0  0  0  0  0  0  0  0  0  0  0
    8.0279    3.0723    0.9203 H   0  0  0  0  0  0  0  0  0  0  0  0
    5.7531    3.3809    0.0115 H   0  0  0  0  0  0  0  0  0  0  0  0
    7.1448   -2.2522   -0.0877 H   0  0  0  0  0  0  0  0  0  0  0  0
    9.8994   -0.9918   -0.4999 H   0  0  0  0  0  0  0  0  0  0  0  0
    9.4835   -2.6821   -0.7704 H   0  0  0  0  0  0  0  0  0  0  0  0
    8.7634   -1.4254   -1.7775 H   0  0  0  0  0  0  0  0  0  0  0  0
    7.5335   -1.8694    2.3444 H   0  0  0  0  0  0  0  0  0  0  0  0
    8.7203   -2.9747    1.6493 H   0  0  0  0  0  0  0  0  0  0  0  0
    9.1700   -1.3109    1.9993 H   0  0  0  0  0  0  0  0  0  0  0  0
   -3.5790   -3.0908   -1.9923 H   0  0  0  0  0  0  0  0  0  0  0  0
   -2.6043   -4.5405   -1.7501 H   0  0  0  0  0  0  0  0  0  0  0  0
   -4.2079   -4.4362   -1.0308 H   0  0  0  0  0  0  0  0  0  0  0  0
   -2.8250   -3.5752    2.5458 H   0  0  0  0  0  0  0  0  0  0  0  0
   -4.1716   -2.5360    2.9344 H   0  0  0  0  0  0  0  0  0  0  0  0
   -4.4712   -4.1060    2.1793 H   0  0  0  0  0  0  0  0  0  0  0  0
  1  2  1  0
  1 16  1  0
  1 35  1  0
  2  3  1  0
  2 34  1  0
  3  4  1  0
  3 33  2  0
  4  5  1  0
  5  6  1  0
  5 19  1  0
  6  7  1  0
  7  8  1  0
  7 18  1  0
  8  9  1  0
  9 10  1  0
 10 11  1  0
 11 12  1  0
 12 13  1  0
 13 14  1  0
 14 15  1  0
 15 16  1  0
 16 17  2  0
 19 20  1  0
 19 21  1  0
 21 22  1  0
 22 23  1  0
 23 24  1  0
 24 25  2  0
 24 29  1  0
 25 26  1  0
 26 27  2  0
 26 30  1  0
 27 28  1  0
 28 29  2  0
 30 31  1  0
 30 32  1  0
  2 36  1  1
  4 37  1  0
  5 38  1  6
  6 39  1  0
  6 40  1  0
  7 41  1  1
  8 42  1  0
  8 43  1  0
  9 44  1  0
  9 45  1  0
 10 46  1  0
 10 47  1  0
 11 48  1  0
 11 49  1  0
 12 50  1  0
 12 51  1  0
 13 52  1  0
 13 53  1  0
 14 54  1  0
 14 55  1  0
 15 56  1  0
 15 57  1  0
 18 58  1  0
 18 59  1  0
 18 60  1  0
 19 61  1  1
 20 62  1  0
 21 63  1  0
 21 64  1  0
 22 65  1  0
 23 66  1  0
 23 67  1  0
 25 68  1  0
 27 69  1  0
 28 70  1  0
 29 71  1  0
 30 72  1  6
 31 73  1  0
 31 74  1  0
 31 75  1  0
 32 76  1  0
 32 77  1  0
 32 78  1  0
 34 79  1  0
 34 80  1  0
 34 81  1  0
 35 82  1  0
 35 83  1  0
 35 84  1  0
M  END
