
     RDKit          3D

 51 52  0  0  0  0  0  0  0  0999 V2000
   -0.6658    2.8034    2.9593 O   0  0  0  0  0  0  0  0  0  0  0  0
   -1.4570    2.1631    1.9231 S   0  0  2  0  0  0  0  0  0  0  0  0
   -2.8393    1.7963    2.1806 O   0  0  0  0  0  0  0  0  0  0  0  0
   -0.6529    0.7683    1.5557 N   0  0  0  0  0  0  0  0  0  0  0  0
   -1.1357   -0.0641    0.4700 C   0  0  1  0  0  0  0  0  0  0  0  0
   -0.3734    0.2236   -0.8151 C   0  0  0  0  0  0  0  0  0  0  0  0
    0.6606    0.8374   -0.8626 O   0  0  0  0  0  0  0  0  0  0  0  0
   -0.9721   -0.3160   -1.8624 O   0  0  0  0  0  0  0  0  0  0  0  0
   -1.0547   -1.5487    0.8500 C   0  0  0  0  0  0  0  0  0  0  0  0
    0.3577   -2.0086    1.1712 C   0  0  0  0  0  0  0  0  0  0  0  0
    0.4133   -3.4505    1.5978 C   0  0  0  0  0  0  0  0  0  0  0  0
    1.6543   -3.8284    1.8827 O   0  0  0  0  0  0  0  0  0  0  0  0
   -0.5371   -4.1872    1.6776 O   0  0  0  0  0  0  0  0  0  0  0  0
   -1.4194    3.1723    0.4755 C   0  0  0  0  0  0  0  0  0  0  0  0
   -0.2194    3.8452    0.1477 C   0  0  0  0  0  0  0  0  0  0  0  0
   -0.1642    4.6052   -0.9812 C   0  0  0  0  0  0  0  0  0  0  0  0
   -1.2913    4.7316   -1.8357 C   0  0  0  0  0  0  0  0  0  0  0  0
   -2.4867    4.0482   -1.4907 C   0  0  0  0  0  0  0  0  0  0  0  0
   -2.5293    3.2644   -0.3183 C   0  0  0  0  0  0  0  0  0  0  0  0
   -1.2547    5.5179   -2.9984 C   0  0  0  0  0  0  0  0  0  0  0  0
   -2.3672    5.6339   -3.8057 C   0  0  0  0  0  0  0  0  0  0  0  0
   -3.5607    4.9538   -3.4619 C   0  0  0  0  0  0  0  0  0  0  0  0
   -3.6093    4.1830   -2.3333 C   0  0  0  0  0  0  0  0  0  0  0  0
   -2.2483    6.4035   -4.8971 O   0  0  0  0  0  0  0  0  0  0  0  0
   -3.3812    6.6178   -5.7326 C   0  0  0  0  0  0  0  0  0  0  0  0
   -2.9739    7.5400   -6.8617 C   0  0  0  0  0  0  0  0  0  0  0  0
   -4.1445    7.8315   -7.7934 C   0  0  0  0  0  0  0  0  0  0  0  0
   -3.7552    8.7438   -8.9480 C   0  0  0  0  0  0  0  0  0  0  0  0
    0.3539    0.8944    1.5794 H   0  0  0  0  0  0  0  0  0  0  0  0
   -2.1923    0.1559    0.2972 H   0  0  0  0  0  0  0  0  0  0  0  0
   -1.4773   -2.1447    0.0406 H   0  0  0  0  0  0  0  0  0  0  0  0
   -1.7009   -1.6875    1.7170 H   0  0  0  0  0  0  0  0  0  0  0  0
   -0.4529   -0.1604   -2.6665 H   0  0  0  0  0  0  0  0  0  0  0  0
    1.0289   -1.8905    0.3148 H   0  0  0  0  0  0  0  0  0  0  0  0
    0.7912   -1.4070    1.9758 H   0  0  0  0  0  0  0  0  0  0  0  0
    1.6639   -4.7579    2.1559 H   0  0  0  0  0  0  0  0  0  0  0  0
    0.6478    3.7684    0.7893 H   0  0  0  0  0  0  0  0  0  0  0  0
   -3.4497    2.7563   -0.0595 H   0  0  0  0  0  0  0  0  0  0  0  0
    0.7499    5.1275   -1.2343 H   0  0  0  0  0  0  0  0  0  0  0  0
   -0.3445    6.0430   -3.2629 H   0  0  0  0  0  0  0  0  0  0  0  0
   -4.5264    3.6662   -2.0791 H   0  0  0  0  0  0  0  0  0  0  0  0
   -4.4443    5.0300   -4.0796 H   0  0  0  0  0  0  0  0  0  0  0  0
   -4.1974    7.0631   -5.1525 H   0  0  0  0  0  0  0  0  0  0  0  0
   -3.7404    5.6645   -6.1359 H   0  0  0  0  0  0  0  0  0  0  0  0
   -2.1583    7.0822   -7.4291 H   0  0  0  0  0  0  0  0  0  0  0  0
   -2.5908    8.4780   -6.4492 H   0  0  0  0  0  0  0  0  0  0  0  0
   -4.9573    8.2912   -7.2237 H   0  0  0  0  0  0  0  0  0  0  0  0
   -4.5416    6.8918   -8.1882 H   0  0  0  0  0  0  0  0  0  0  0  0
   -3.3811    9.7028   -8.5855 H   0  0  0  0  0  0  0  0  0  0  0  0
   -2.9719    8.2944   -9.5611 H   0  0  0  0  0  0  0  0  0  0  0  0
   -4.6080    8.9459   -9.5969 H   0  0  0  0  0  0  0  0  0  0  0  0
  1  2  2  0
  2  3  2  0
  2  4  1  6
  2 14  1  0
  4  5  1  0
  4 29  1  0
  5  6  1  0
  5  9  1  0
  5 30  1  6
  6  7  2  0
  6  8  1  0
  8 33  1  0
  9 10  1  0
  9 31  1  0
  9 32  1  0
 10 11  1  0
 10 34  1  0
 10 35  1  0
 11 12  1  0
 11 13  2  0
 12 36  1  0
 14 15  2  0
 14 19  1  0
 15 16  1  0
 15 37  1  0
 16 17  2  0
 16 39  1  0
 17 18  1  0
 17 20  1  0
 18 19  2  0
 18 23  1  0
 19 38  1  0
 20 21  2  0
 20 40  1  0
 21 22  1  0
 21 24  1  0
 22 23  2  0
 22 42  1  0
 23 41  1  0
 24 25  1  0
 25 26  1  0
 25 43  1  0
 25 44  1  0
 26 27  1  0
 26 45  1  0
 26 46  1  0
 27 28  1  0
 27 47  1  0
 27 48  1  0
 28 49  1  0
 28 50  1  0
 28 51  1  0
M  END
