
     RDKit          3D

 46 48  0  0  0  0  0  0  0  0999 V2000
    0.5247    2.3170    0.1629 O   0  0  0  0  0  0  0  0  0  0  0  0
    0.6334    1.1339   -0.0791 C   0  0  0  0  0  0  0  0  0  0  0  0
    1.9174    0.4158   -0.1349 C   0  0  0  0  0  0  0  0  0  0  0  0
    2.0105   -0.9487   -0.4131 C   0  0  0  0  0  0  0  0  0  0  0  0
    3.2388   -1.5745   -0.4381 C   0  0  0  0  0  0  0  0  0  0  0  0
    4.4205   -0.8608   -0.1876 C   0  0  0  0  0  0  0  0  0  0  0  0
    5.6309   -1.4859   -0.2575 N   0  0  0  0  0  0  0  0  0  0  0  0
    4.3409    0.5223    0.0882 C   0  0  0  0  0  0  0  0  0  0  0  0
    5.5904    1.3095    0.3487 C   0  0  0  0  0  0  0  0  0  0  0  0
    3.0976    1.1235    0.1087 C   0  0  0  0  0  0  0  0  0  0  0  0
   -0.4035    0.3438   -0.3214 O   0  0  0  0  0  0  0  0  0  0  0  0
   -1.7194    0.9050   -0.2774 C   0  0  2  0  0  0  0  0  0  0  0  0
   -2.2152    1.2024    1.1562 C   0  0  0  0  0  0  0  0  0  0  0  0
   -3.5108    0.3841    1.2545 C   0  0  2  0  0  0  0  0  0  0  0  0
   -3.1606   -0.8996    0.4720 C   0  0  2  0  0  0  0  0  0  0  0  0
   -4.3484   -1.8410    0.2609 C   0  0  0  0  0  0  0  0  0  0  0  0
   -2.0662   -1.7407    1.1309 C   0  0  0  0  0  0  0  0  0  0  0  0
   -4.5377    1.0695    0.3446 C   0  0  0  0  0  0  0  0  0  0  0  0
   -4.0009    0.7421   -1.0693 C   0  0  0  0  0  0  0  0  0  0  0  0
   -2.7424   -0.1167   -0.8074 C   0  0  1  0  0  0  0  0  0  0  0  0
   -2.2971   -0.9110   -2.0152 C   0  0  0  0  0  0  0  0  0  0  0  0
    1.1222   -1.5352   -0.6055 H   0  0  0  0  0  0  0  0  0  0  0  0
    3.2968   -2.6357   -0.6491 H   0  0  0  0  0  0  0  0  0  0  0  0
    5.6324   -2.4921   -0.2297 H   0  0  0  0  0  0  0  0  0  0  0  0
    6.4108   -1.0756    0.2281 H   0  0  0  0  0  0  0  0  0  0  0  0
    6.3005    1.2217   -0.4766 H   0  0  0  0  0  0  0  0  0  0  0  0
    5.3674    2.3665    0.4831 H   0  0  0  0  0  0  0  0  0  0  0  0
    6.1062    0.9696    1.2511 H   0  0  0  0  0  0  0  0  0  0  0  0
    3.0412    2.1845    0.3208 H   0  0  0  0  0  0  0  0  0  0  0  0
   -1.7197    1.7993   -0.9060 H   0  0  0  0  0  0  0  0  0  0  0  0
   -1.4804    0.8863    1.8984 H   0  0  0  0  0  0  0  0  0  0  0  0
   -2.3857    2.2674    1.3187 H   0  0  0  0  0  0  0  0  0  0  0  0
   -3.8519    0.2276    2.2801 H   0  0  0  0  0  0  0  0  0  0  0  0
   -5.1986   -1.3925   -0.2495 H   0  0  0  0  0  0  0  0  0  0  0  0
   -4.0443   -2.7120   -0.3240 H   0  0  0  0  0  0  0  0  0  0  0  0
   -4.7061   -2.2108    1.2245 H   0  0  0  0  0  0  0  0  0  0  0  0
   -2.4496   -2.1731    2.0584 H   0  0  0  0  0  0  0  0  0  0  0  0
   -1.7787   -2.5756    0.4879 H   0  0  0  0  0  0  0  0  0  0  0  0
   -1.1574   -1.2000    1.3793 H   0  0  0  0  0  0  0  0  0  0  0  0
   -5.5433    0.6742    0.4951 H   0  0  0  0  0  0  0  0  0  0  0  0
   -4.5938    2.1426    0.5365 H   0  0  0  0  0  0  0  0  0  0  0  0
   -4.7290    0.1821   -1.6585 H   0  0  0  0  0  0  0  0  0  0  0  0
   -3.7582    1.6358   -1.6485 H   0  0  0  0  0  0  0  0  0  0  0  0
   -1.9569   -0.2528   -2.8179 H   0  0  0  0  0  0  0  0  0  0  0  0
   -1.4821   -1.5990   -1.7879 H   0  0  0  0  0  0  0  0  0  0  0  0
   -3.1272   -1.4980   -2.4118 H   0  0  0  0  0  0  0  0  0  0  0  0
 18 19  1  0
 18 14  1  0
 19 20  1  0
  5  4  2  0
  5  6  1  0
  7  6  1  0
  4  3  1  0
 14 13  1  0
 14 15  1  0
 20 12  1  0
 20 21  1  6
 20 15  1  0
 13 12  1  0
 12 11  1  0
  6  8  2  0
 15 16  1  6
 15 17  1  0
  3  2  1  0
  3 10  2  0
  2 11  1  0
  2  1  2  0
  8 10  1  0
  8  9  1  0
  4 22  1  0
  5 23  1  0
  7 24  1  0
  7 25  1  0
  9 26  1  0
  9 27  1  0
  9 28  1  0
 10 29  1  0
 12 30  1  6
 13 31  1  0
 13 32  1  0
 14 33  1  1
 16 34  1  0
 16 35  1  0
 16 36  1  0
 17 37  1  0
 17 38  1  0
 17 39  1  0
 18 40  1  0
 18 41  1  0
 19 42  1  0
 19 43  1  0
 21 44  1  0
 21 45  1  0
 21 46  1  0
M  END
