
     RDKit          3D

 17 17  0  0  0  0  0  0  0  0999 V2000
   -2.6610    0.8531   -0.0160 C   0  0  0  0  0  0  0  0  0  0  0  0
   -2.2064   -0.4541   -0.0370 C   0  0  0  0  0  0  0  0  0  0  0  0
   -0.8648   -0.7697   -0.0103 C   0  0  0  0  0  0  0  0  0  0  0  0
    0.0393    0.2840    0.0375 C   0  0  0  0  0  0  0  0  0  0  0  0
   -0.3720    1.6062    0.0631 C   0  0  0  0  0  0  0  0  0  0  0  0
   -1.7336    1.8811    0.0336 C   0  0  0  0  0  0  0  0  0  0  0  0
    1.7713   -0.0985    0.0766 S   0  0  1  0  0  0  0  0  0  0  0  0
    2.0262   -0.5300   -1.4958 N   0  0  0  0  0  0  0  0  0  0  0  0
    2.4838    1.1129    0.4564 O   0  0  0  0  0  0  0  0  0  0  0  0
    1.9828   -1.3042    0.8626 O   0  0  0  0  0  0  0  0  0  0  0  0
   -3.1005   -1.4485   -0.0817 F   0  0  0  0  0  0  0  0  0  0  0  0
   -3.7227    1.0600   -0.0363 H   0  0  0  0  0  0  0  0  0  0  0  0
   -2.0735    2.9073    0.0528 H   0  0  0  0  0  0  0  0  0  0  0  0
   -0.5435   -1.8031   -0.0269 H   0  0  0  0  0  0  0  0  0  0  0  0
    0.3443    2.4138    0.1049 H   0  0  0  0  0  0  0  0  0  0  0  0
    2.0276    0.2654   -2.1261 H   0  0  0  0  0  0  0  0  0  0  0  0
    2.8838   -1.0644   -1.6015 H   0  0  0  0  0  0  0  0  0  0  0  0
  1  2  2  0
  1  6  1  0
  2  3  1  0
  2 11  1  0
  3  4  2  0
  4  5  1  0
  4  7  1  0
  5  6  2  0
  7  8  1  6
  7  9  2  0
  7 10  2  0
  1 12  1  0
  6 13  1  0
  3 14  1  0
  5 15  1  0
  8 16  1  0
  8 17  1  0
M  END
