
     RDKit          3D

 52 55  0  0  0  0  0  0  0  0999 V2000
    5.9349    1.9292    1.8400 Cl  0  0  0  0  0  0  0  0  0  0  0  0
    4.8624    0.8641    0.9874 C   0  0  0  0  0  0  0  0  0  0  0  0
    5.3576    0.0629   -0.0346 C   0  0  0  0  0  0  0  0  0  0  0  0
    6.7839    0.0730   -0.4423 C   0  0  0  0  0  0  0  0  0  0  0  0
    7.1392    0.7416   -1.6112 C   0  0  0  0  0  0  0  0  0  0  0  0
    8.4553    0.7628   -2.0491 C   0  0  0  0  0  0  0  0  0  0  0  0
    9.4302    0.1083   -1.3102 C   0  0  0  0  0  0  0  0  0  0  0  0
    9.0786   -0.5617   -0.1474 C   0  0  0  0  0  0  0  0  0  0  0  0
    7.7617   -0.5934    0.3064 C   0  0  0  0  0  0  0  0  0  0  0  0
    7.4210   -1.3915    1.5360 C   0  0  0  0  0  0  0  0  0  0  0  0
    6.9994   -2.8185    1.1906 C   0  0  0  0  0  0  0  0  0  0  0  0
    3.5223    0.8514    1.3486 C   0  0  0  0  0  0  0  0  0  0  0  0
    2.6280    0.0260    0.6814 C   0  0  0  0  0  0  0  0  0  0  0  0
    3.1016   -0.7687   -0.3600 C   0  0  0  0  0  0  0  0  0  0  0  0
    4.4416   -0.7492   -0.7042 C   0  0  0  0  0  0  0  0  0  0  0  0
    1.1757   -0.0083    1.0739 C   0  0  0  0  0  0  0  0  0  0  0  0
    0.3215    0.2271   -0.0739 N   0  0  0  0  0  0  0  0  0  0  0  0
   -1.0862    0.0981    0.2416 C   0  0  0  0  0  0  0  0  0  0  0  0
   -1.9268    0.3436   -1.0059 C   0  0  0  0  0  0  0  0  0  0  0  0
   -3.3805    0.1633   -0.7457 C   0  0  0  0  0  0  0  0  0  0  0  0
   -4.3127    1.0322   -1.2175 N   0  0  0  0  0  0  0  0  0  0  0  0
   -5.5381    0.5785   -0.8207 C   0  0  0  0  0  0  0  0  0  0  0  0
   -5.2618   -0.5928   -0.0968 C   0  0  0  0  0  0  0  0  0  0  0  0
   -3.9106   -0.8221   -0.0696 N   0  0  0  0  0  0  0  0  0  0  0  0
   -6.8245    1.0571   -1.0093 C   0  0  0  0  0  0  0  0  0  0  0  0
   -7.8502    0.3202   -0.4451 C   0  0  0  0  0  0  0  0  0  0  0  0
   -9.4737    0.8707   -0.6464 Cl  0  0  0  0  0  0  0  0  0  0  0  0
   -7.5932   -0.8550    0.2816 C   0  0  0  0  0  0  0  0  0  0  0  0
   -8.9067   -1.7419    0.9701 Cl  0  0  0  0  0  0  0  0  0  0  0  0
   -6.3054   -1.3224    0.4632 C   0  0  0  0  0  0  0  0  0  0  0  0
    6.3745    1.2562   -2.1801 H   0  0  0  0  0  0  0  0  0  0  0  0
    8.7155    1.2883   -2.9586 H   0  0  0  0  0  0  0  0  0  0  0  0
   10.4620    0.1181   -1.6372 H   0  0  0  0  0  0  0  0  0  0  0  0
    9.8430   -1.0765    0.4233 H   0  0  0  0  0  0  0  0  0  0  0  0
    8.2910   -1.4197    2.1956 H   0  0  0  0  0  0  0  0  0  0  0  0
    6.6245   -0.9087    2.1042 H   0  0  0  0  0  0  0  0  0  0  0  0
    6.1145   -2.8250    0.5526 H   0  0  0  0  0  0  0  0  0  0  0  0
    7.7953   -3.3470    0.6645 H   0  0  0  0  0  0  0  0  0  0  0  0
    6.7622   -3.3820    2.0936 H   0  0  0  0  0  0  0  0  0  0  0  0
    3.1737    1.4904    2.1503 H   0  0  0  0  0  0  0  0  0  0  0  0
    2.4172   -1.4090   -0.9011 H   0  0  0  0  0  0  0  0  0  0  0  0
    4.7992   -1.3782   -1.5098 H   0  0  0  0  0  0  0  0  0  0  0  0
    0.9366   -0.9999    1.4710 H   0  0  0  0  0  0  0  0  0  0  0  0
    1.0020    0.7012    1.8963 H   0  0  0  0  0  0  0  0  0  0  0  0
    0.5021    1.1604   -0.4263 H   0  0  0  0  0  0  0  0  0  0  0  0
   -1.2671   -0.9162    0.6046 H   0  0  0  0  0  0  0  0  0  0  0  0
   -1.4136    0.7791    1.0417 H   0  0  0  0  0  0  0  0  0  0  0  0
   -1.7482    1.3524   -1.3854 H   0  0  0  0  0  0  0  0  0  0  0  0
   -1.6156   -0.3477   -1.7944 H   0  0  0  0  0  0  0  0  0  0  0  0
   -4.1256    1.8649   -1.7546 H   0  0  0  0  0  0  0  0  0  0  0  0
   -7.0263    1.9607   -1.5659 H   0  0  0  0  0  0  0  0  0  0  0  0
   -6.1185   -2.2279    1.0244 H   0  0  0  0  0  0  0  0  0  0  0  0
  6  5  2  0
  6  7  1  0
  5  4  1  0
  7  8  2  0
 15 14  2  0
 15  3  1  0
  4  9  2  0
  4  3  1  0
  8  9  1  0
 14 13  1  0
  9 10  1  0
  3  2  2  0
 11 10  1  0
 13 16  1  0
 13 12  2  0
  2 12  1  0
  2  1  1  0
 16 17  1  0
 17 18  1  0
 18 19  1  0
 19 20  1  0
 20 21  1  0
 20 24  2  0
 21 22  1  0
 24 23  1  0
 22 23  2  0
 22 25  1  0
 23 30  1  0
 25 26  2  0
 30 28  2  0
 26 28  1  0
 26 27  1  0
 28 29  1  0
  5 31  1  0
  6 32  1  0
  7 33  1  0
  8 34  1  0
 10 35  1  0
 10 36  1  0
 11 37  1  0
 11 38  1  0
 11 39  1  0
 12 40  1  0
 14 41  1  0
 15 42  1  0
 16 43  1  0
 16 44  1  0
 17 45  1  0
 18 46  1  0
 18 47  1  0
 19 48  1  0
 19 49  1  0
 21 50  1  0
 25 51  1  0
 30 52  1  0
M  END
