
     RDKit          3D

 37 40  0  0  0  0  0  0  0  0999 V2000
    1.5110   -3.2091    0.2219 N   0  0  0  0  0  0  0  0  0  0  0  0
    0.6265   -4.1843    0.3032 C   0  0  0  0  0  0  0  0  0  0  0  0
   -0.7029   -3.7315    0.2792 C   0  0  0  0  0  0  0  0  0  0  0  0
   -0.5978   -2.3579    0.1734 C   0  0  0  0  0  0  0  0  0  0  0  0
    0.7532   -2.1033    0.1433 N   0  0  0  0  0  0  0  0  0  0  0  0
   -1.4886   -1.3545    0.1049 N   0  0  0  0  0  0  0  0  0  0  0  0
   -0.9686   -0.1560    0.0078 C   0  0  0  0  0  0  0  0  0  0  0  0
    0.3555    0.1523   -0.0301 N   0  0  0  0  0  0  0  0  0  0  0  0
    1.2121   -0.8226    0.0393 C   0  0  0  0  0  0  0  0  0  0  0  0
    2.5413   -0.6830    0.0198 N   0  0  0  0  0  0  0  0  0  0  0  0
    3.3265    0.4728   -0.0719 C   0  0  0  0  0  0  0  0  0  0  0  0
    4.7077    0.2808    0.0096 C   0  0  0  0  0  0  0  0  0  0  0  0
    5.5719    1.3579   -0.0757 C   0  0  0  0  0  0  0  0  0  0  0  0
    5.0756    2.6447   -0.2430 C   0  0  0  0  0  0  0  0  0  0  0  0
    3.7043    2.8323   -0.3247 C   0  0  0  0  0  0  0  0  0  0  0  0
    2.8228    1.7617   -0.2414 C   0  0  0  0  0  0  0  0  0  0  0  0
   -1.7518    0.9481   -0.0673 N   0  0  0  0  0  0  0  0  0  0  0  0
   -3.1348    1.1059   -0.0530 C   0  0  0  0  0  0  0  0  0  0  0  0
   -4.0615    0.0653    0.0397 C   0  0  0  0  0  0  0  0  0  0  0  0
   -5.4207    0.3550    0.0470 C   0  0  0  0  0  0  0  0  0  0  0  0
   -5.8844    1.6588   -0.0364 C   0  0  0  0  0  0  0  0  0  0  0  0
   -4.9608    2.6932   -0.1304 C   0  0  0  0  0  0  0  0  0  0  0  0
   -3.6046    2.4222   -0.1389 C   0  0  0  0  0  0  0  0  0  0  0  0
    0.9677   -5.2059    0.3777 H   0  0  0  0  0  0  0  0  0  0  0  0
   -1.6044   -4.3170    0.3318 H   0  0  0  0  0  0  0  0  0  0  0  0
    3.0537   -1.5524    0.1032 H   0  0  0  0  0  0  0  0  0  0  0  0
    5.1052   -0.7187    0.1414 H   0  0  0  0  0  0  0  0  0  0  0  0
    6.6385    1.1878   -0.0112 H   0  0  0  0  0  0  0  0  0  0  0  0
    5.7506    3.4872   -0.3094 H   0  0  0  0  0  0  0  0  0  0  0  0
    3.3018    3.8282   -0.4575 H   0  0  0  0  0  0  0  0  0  0  0  0
    1.7610    1.9332   -0.3080 H   0  0  0  0  0  0  0  0  0  0  0  0
   -1.2222    1.8036   -0.1408 H   0  0  0  0  0  0  0  0  0  0  0  0
   -3.7322   -0.9583    0.1051 H   0  0  0  0  0  0  0  0  0  0  0  0
   -6.1251   -0.4638    0.1191 H   0  0  0  0  0  0  0  0  0  0  0  0
   -6.9459    1.8668   -0.0289 H   0  0  0  0  0  0  0  0  0  0  0  0
   -5.2946    3.7207   -0.1972 H   0  0  0  0  0  0  0  0  0  0  0  0
   -2.8968    3.2398   -0.2116 H   0  0  0  0  0  0  0  0  0  0  0  0
  1  2  2  0
  1  5  1  0
  2  3  1  0
  2 24  1  0
  3  4  2  0
  3 25  1  0
  4  6  1  0
  4  5  1  0
  5  9  1  0
  6  7  2  0
  7 17  1  0
  7  8  1  0
  8  9  2  0
  9 10  1  0
 10 11  1  0
 10 26  1  0
 11 12  2  0
 11 16  1  0
 12 13  1  0
 12 27  1  0
 13 14  2  0
 13 28  1  0
 14 15  1  0
 14 29  1  0
 15 16  2  0
 15 30  1  0
 16 31  1  0
 17 18  1  0
 17 32  1  0
 18 23  1  0
 18 19  2  0
 19 20  1  0
 19 33  1  0
 20 21  2  0
 20 34  1  0
 21 22  1  0
 21 35  1  0
 22 23  2  0
 22 36  1  0
 23 37  1  0
M  END
