
     RDKit          3D

113119  0  0  0  0  0  0  0  0999 V2000
   -1.1431    2.4659    0.6342 O   0  0  0  0  0  0  0  0  0  0  0  0
   -0.0867    1.5905    0.9705 C   0  0  1  0  0  0  0  0  0  0  0  0
   -0.7049    0.5492    1.9875 C   0  0  1  0  0  0  0  0  0  0  0  0
   -1.9043    0.1295    1.3333 O   0  0  0  0  0  0  0  0  0  0  0  0
   -3.0776    0.6611    1.6755 C   0  0  0  0  0  0  0  0  0  0  0  0
   -3.2990    1.1958    2.7320 O   0  0  0  0  0  0  0  0  0  0  0  0
   -4.0877    0.4731    0.6060 C   0  0  0  0  0  0  0  0  0  0  0  0
   -5.4311    0.6820    0.9128 C   0  0  0  0  0  0  0  0  0  0  0  0
   -6.3982    0.5412   -0.0692 C   0  0  0  0  0  0  0  0  0  0  0  0
   -6.0294    0.2095   -1.3675 C   0  0  0  0  0  0  0  0  0  0  0  0
   -4.6909    0.0135   -1.6808 C   0  0  0  0  0  0  0  0  0  0  0  0
   -3.7215    0.1390   -0.6983 C   0  0  0  0  0  0  0  0  0  0  0  0
    0.1100   -0.7292    2.4076 C   0  0  2  0  0  0  0  0  0  0  0  0
   -0.7349   -2.0036    2.1591 C   0  0  2  0  0  0  0  0  0  0  0  0
   -0.7700   -2.1348    0.7407 O   0  0  0  0  0  0  0  0  0  0  0  0
   -1.4726   -3.0814    0.1101 C   0  0  0  0  0  0  0  0  0  0  0  0
   -2.2223   -3.8480    0.6565 O   0  0  0  0  0  0  0  0  0  0  0  0
   -1.1776   -3.0766   -1.3572 C   0  0  0  0  0  0  0  0  0  0  0  0
   -2.0340   -2.1554    2.9628 C   0  0  0  0  0  0  0  0  0  0  0  0
   -1.5445   -3.3479    3.5945 O   0  0  0  0  0  0  0  0  0  0  0  0
   -0.2997   -3.3019    2.8594 C   0  0  2  0  0  0  0  0  0  0  0  0
    0.9211   -3.2163    3.7278 C   0  0  0  0  0  0  0  0  0  0  0  0
    0.8579   -2.0168    4.6500 C   0  0  2  0  0  0  0  0  0  0  0  0
   -0.1742   -2.1804    5.5950 O   0  0  0  0  0  0  0  0  0  0  0  0
    0.7780   -0.6395    3.8704 C   0  0  2  0  0  0  0  0  0  0  0  0
    0.0857    0.3324    4.8305 C   0  0  0  0  0  0  0  0  0  0  0  0
    2.2526   -0.2500    3.6079 C   0  0  0  0  0  0  0  0  0  0  0  0
    3.0916   -1.1148    3.5324 O   0  0  0  0  0  0  0  0  0  0  0  0
    2.7423    1.1795    3.2582 C   0  0  2  0  0  0  0  0  0  0  0  0
    2.4560    2.1858    4.2060 O   0  0  0  0  0  0  0  0  0  0  0  0
    2.8588    1.9949    5.4649 C   0  0  0  0  0  0  0  0  0  0  0  0
    3.3885    0.9772    5.8301 O   0  0  0  0  0  0  0  0  0  0  0  0
    2.5399    3.1789    6.3208 C   0  0  0  0  0  0  0  0  0  0  0  0
    2.1898    1.5163    1.8882 C   0  0  0  0  0  0  0  0  0  0  0  0
    2.6960    0.8244    0.8469 C   0  0  0  0  0  0  0  0  0  0  0  0
    1.9691    0.8939   -0.4723 C   0  0  1  0  0  0  0  0  0  0  0  0
    2.2541   -0.2425   -1.3077 O   0  0  0  0  0  0  0  0  0  0  0  0
    2.9313   -0.0450   -2.4344 C   0  0  0  0  0  0  0  0  0  0  0  0
    3.6191    0.9141   -2.6613 O   0  0  0  0  0  0  0  0  0  0  0  0
    2.6933   -1.1677   -3.4400 C   0  0  2  0  0  0  0  0  0  0  0  0
    3.3920   -0.9316   -4.6187 O   0  0  0  0  0  0  0  0  0  0  0  0
    1.1914   -1.2024   -3.7774 C   0  0  1  0  0  0  0  0  0  0  0  0
    0.7422    0.1444   -4.0474 N   0  0  0  0  0  0  0  0  0  0  0  0
   -0.4985    0.5649   -3.7178 C   0  0  0  0  0  0  0  0  0  0  0  0
   -1.3618   -0.1994   -3.3120 O   0  0  0  0  0  0  0  0  0  0  0  0
   -0.7538    2.0311   -3.8158 C   0  0  0  0  0  0  0  0  0  0  0  0
   -2.0754    2.4642   -3.9076 C   0  0  0  0  0  0  0  0  0  0  0  0
   -2.3663    3.8182   -3.9390 C   0  0  0  0  0  0  0  0  0  0  0  0
   -1.3410    4.7527   -3.8576 C   0  0  0  0  0  0  0  0  0  0  0  0
   -0.0242    4.3286   -3.7472 C   0  0  0  0  0  0  0  0  0  0  0  0
    0.2708    2.9731   -3.7294 C   0  0  0  0  0  0  0  0  0  0  0  0
    0.9021   -2.1895   -4.8859 C   0  0  0  0  0  0  0  0  0  0  0  0
    0.9261   -3.5512   -4.5964 C   0  0  0  0  0  0  0  0  0  0  0  0
    0.6762   -4.4913   -5.5850 C   0  0  0  0  0  0  0  0  0  0  0  0
    0.3965   -4.0780   -6.8816 C   0  0  0  0  0  0  0  0  0  0  0  0
    0.3683   -2.7221   -7.1761 C   0  0  0  0  0  0  0  0  0  0  0  0
    0.6214   -1.7830   -6.1839 C   0  0  0  0  0  0  0  0  0  0  0  0
    0.4479    0.8949   -0.2964 C   0  0  0  0  0  0  0  0  0  0  0  0
    3.9279   -0.0290    0.8519 C   0  0  0  0  0  0  0  0  0  0  0  0
    1.0138    2.4717    1.6214 C   0  0  1  0  0  0  0  0  0  0  0  0
    1.4769    3.5902    0.6526 C   0  0  0  0  0  0  0  0  0  0  0  0
    0.4292    3.2987    2.7804 C   0  0  0  0  0  0  0  0  0  0  0  0
   -1.5323    2.2202   -0.2093 H   0  0  0  0  0  0  0  0  0  0  0  0
   -1.0010    1.0926    2.8816 H   0  0  0  0  0  0  0  0  0  0  0  0
   -5.7210    0.9483    1.9203 H   0  0  0  0  0  0  0  0  0  0  0  0
   -7.4404    0.6937    0.1772 H   0  0  0  0  0  0  0  0  0  0  0  0
   -6.7858    0.1072   -2.1345 H   0  0  0  0  0  0  0  0  0  0  0  0
   -4.3944   -0.2358   -2.6908 H   0  0  0  0  0  0  0  0  0  0  0  0
   -2.6862   -0.0217   -0.9659 H   0  0  0  0  0  0  0  0  0  0  0  0
    0.9353   -0.8422    1.7021 H   0  0  0  0  0  0  0  0  0  0  0  0
   -1.8320   -3.7711   -1.8762 H   0  0  0  0  0  0  0  0  0  0  0  0
   -1.2905   -2.0839   -1.7902 H   0  0  0  0  0  0  0  0  0  0  0  0
   -0.1440   -3.3908   -1.5141 H   0  0  0  0  0  0  0  0  0  0  0  0
   -2.9572   -2.3144    2.4095 H   0  0  0  0  0  0  0  0  0  0  0  0
   -2.2050   -1.3624    3.6967 H   0  0  0  0  0  0  0  0  0  0  0  0
   -0.2124   -4.1559    2.1848 H   0  0  0  0  0  0  0  0  0  0  0  0
    1.7944   -3.1642    3.0768 H   0  0  0  0  0  0  0  0  0  0  0  0
    1.0236   -4.1335    4.3147 H   0  0  0  0  0  0  0  0  0  0  0  0
    1.7746   -1.9724    5.2399 H   0  0  0  0  0  0  0  0  0  0  0  0
   -0.8987   -2.6633    5.1715 H   0  0  0  0  0  0  0  0  0  0  0  0
    0.1716    1.3710    4.5462 H   0  0  0  0  0  0  0  0  0  0  0  0
   -0.9768    0.1163    4.9247 H   0  0  0  0  0  0  0  0  0  0  0  0
    0.5130    0.2442    5.8289 H   0  0  0  0  0  0  0  0  0  0  0  0
    3.8284    1.0799    3.1972 H   0  0  0  0  0  0  0  0  0  0  0  0
    2.8797    3.0147    7.3390 H   0  0  0  0  0  0  0  0  0  0  0  0
    3.0115    4.0772    5.9222 H   0  0  0  0  0  0  0  0  0  0  0  0
    1.4634    3.3566    6.3283 H   0  0  0  0  0  0  0  0  0  0  0  0
    2.3063    1.7751   -1.0162 H   0  0  0  0  0  0  0  0  0  0  0  0
    2.9622   -2.1247   -2.9716 H   0  0  0  0  0  0  0  0  0  0  0  0
    4.3365   -0.8925   -4.4355 H   0  0  0  0  0  0  0  0  0  0  0  0
    0.6699   -1.5390   -2.8809 H   0  0  0  0  0  0  0  0  0  0  0  0
    1.3458    0.7532   -4.5795 H   0  0  0  0  0  0  0  0  0  0  0  0
   -2.8759    1.7384   -3.9574 H   0  0  0  0  0  0  0  0  0  0  0  0
   -3.3942    4.1454   -4.0227 H   0  0  0  0  0  0  0  0  0  0  0  0
   -1.5683    5.8105   -3.8741 H   0  0  0  0  0  0  0  0  0  0  0  0
    0.7757    5.0523   -3.6683 H   0  0  0  0  0  0  0  0  0  0  0  0
    1.3041    2.6680   -3.6184 H   0  0  0  0  0  0  0  0  0  0  0  0
    1.1408   -3.8854   -3.5873 H   0  0  0  0  0  0  0  0  0  0  0  0
    0.6948   -5.5457   -5.3416 H   0  0  0  0  0  0  0  0  0  0  0  0
    0.1975   -4.8083   -7.6551 H   0  0  0  0  0  0  0  0  0  0  0  0
    0.1470   -2.3906   -8.1824 H   0  0  0  0  0  0  0  0  0  0  0  0
    0.5844   -0.7298   -6.4313 H   0  0  0  0  0  0  0  0  0  0  0  0
    0.1190   -0.1434   -0.3276 H   0  0  0  0  0  0  0  0  0  0  0  0
    0.0169    1.3758   -1.1768 H   0  0  0  0  0  0  0  0  0  0  0  0
    4.5112    0.1574   -0.0514 H   0  0  0  0  0  0  0  0  0  0  0  0
    4.5831    0.1649    1.6957 H   0  0  0  0  0  0  0  0  0  0  0  0
    3.6940   -1.0955    0.8627 H   0  0  0  0  0  0  0  0  0  0  0  0
    1.6938    3.2830   -0.3645 H   0  0  0  0  0  0  0  0  0  0  0  0
    0.7176    4.3665    0.5791 H   0  0  0  0  0  0  0  0  0  0  0  0
    2.3815    4.0505    1.0501 H   0  0  0  0  0  0  0  0  0  0  0  0
    1.1609    4.0097    3.1557 H   0  0  0  0  0  0  0  0  0  0  0  0
   -0.4045    3.8777    2.3888 H   0  0  0  0  0  0  0  0  0  0  0  0
    0.0468    2.7451    3.6266 H   0  0  0  0  0  0  0  0  0  0  0  0
  2  1  1  6
  1 63  1  0
  2  3  1  0
  2 58  1  0
  2 60  1  0
  3  4  1  0
  3 13  1  0
  3 64  1  1
  4  5  1  0
  5  6  2  0
  5  7  1  0
  7  8  2  0
  7 12  1  0
  8  9  1  0
  8 65  1  0
  9 10  2  0
  9 66  1  0
 10 11  1  0
 10 67  1  0
 11 12  2  0
 11 68  1  0
 12 69  1  0
 13 14  1  0
 13 25  1  0
 13 70  1  6
 14 15  1  6
 14 19  1  0
 14 21  1  0
 15 16  1  0
 16 17  2  0
 16 18  1  0
 18 71  1  0
 18 72  1  0
 18 73  1  0
 19 20  1  0
 19 74  1  0
 19 75  1  0
 20 21  1  0
 21 22  1  0
 21 76  1  6
 22 23  1  0
 22 77  1  0
 22 78  1  0
 23 24  1  0
 23 25  1  0
 23 79  1  1
 24 80  1  0
 25 26  1  1
 25 27  1  0
 26 81  1  0
 26 82  1  0
 26 83  1  0
 27 28  2  0
 27 29  1  0
 29 30  1  0
 29 34  1  0
 29 84  1  6
 30 31  1  0
 31 32  2  0
 31 33  1  0
 33 85  1  0
 33 86  1  0
 33 87  1  0
 34 35  2  0
 34 60  1  0
 35 36  1  0
 35 59  1  0
 36 37  1  0
 36 58  1  0
 36 88  1  6
 37 38  1  0
 38 39  2  0
 38 40  1  0
 40 41  1  0
 40 42  1  0
 40 89  1  1
 41 90  1  0
 42 43  1  0
 42 52  1  0
 42 91  1  1
 43 44  1  0
 43 92  1  0
 44 45  2  0
 44 46  1  0
 46 47  2  0
 46 51  1  0
 47 48  1  0
 47 93  1  0
 48 49  2  0
 48 94  1  0
 49 50  1  0
 49 95  1  0
 50 51  2  0
 50 96  1  0
 51 97  1  0
 52 53  2  0
 52 57  1  0
 53 54  1  0
 53 98  1  0
 54 55  2  0
 54 99  1  0
 55 56  1  0
 55100  1  0
 56 57  2  0
 56101  1  0
 57102  1  0
 58103  1  0
 58104  1  0
 59105  1  0
 59106  1  0
 59107  1  0
 60 61  1  6
 60 62  1  0
 61108  1  0
 61109  1  0
 61110  1  0
 62111  1  0
 62112  1  0
 62113  1  0
M  END
