
     RDKit          3D

 53 54  0  0  0  0  0  0  0  0999 V2000
   -5.5589   -3.5327    0.4697 O   0  0  0  0  0  0  0  0  0  0  0  0
   -4.6782   -3.0639   -0.6269 P   0  0  1  0  0  0  0  0  0  0  0  0
   -4.3189   -4.1443   -1.7600 O   0  0  0  0  0  0  0  0  0  0  0  0
   -5.3852   -1.8221   -1.3683 O   0  0  0  0  0  0  0  0  0  0  0  0
   -3.0321   -2.5183   -0.1391 C   0  0  0  0  0  0  0  0  0  0  0  0
   -3.0859   -1.4548    0.9461 C   0  0  0  0  0  0  0  0  0  0  0  0
   -1.7698   -1.0677    1.2355 O   0  0  0  0  0  0  0  0  0  0  0  0
   -1.6828   -0.0977    2.2496 C   0  0  0  0  0  0  0  0  0  0  0  0
   -0.2822    0.4779    2.2528 C   0  0  0  0  0  0  0  0  0  0  0  0
   -0.0134    1.2609    1.0618 N   0  0  0  0  0  0  0  0  0  0  0  0
   -0.3809    2.6555    1.1709 C   0  0  0  0  0  0  0  0  0  0  0  0
   -0.8261    3.2153   -0.1803 C   0  0  0  0  0  0  0  0  0  0  0  0
   -1.3126    4.9460   -0.0807 P   0  0  1  0  0  0  0  0  0  0  0  0
   -1.8367    5.2085   -1.5777 O   0  0  0  0  0  0  0  0  0  0  0  0
   -2.6013    5.0150    0.8840 O   0  0  0  0  0  0  0  0  0  0  0  0
   -0.2847    5.8888    0.4227 O   0  0  0  0  0  0  0  0  0  0  0  0
    1.2590    1.0021    0.4349 C   0  0  0  0  0  0  0  0  0  0  0  0
    1.1231   -0.1670   -0.5392 C   0  0  0  0  0  0  0  0  0  0  0  0
    2.3982   -0.5415   -1.1200 N   0  0  0  0  0  0  0  0  0  0  0  0
    3.3773   -1.2792   -0.5566 C   0  0  0  0  0  0  0  0  0  0  0  0
    3.3983   -1.9196    0.6404 N   0  0  0  0  0  0  0  0  0  0  0  0
    4.5445   -2.6033    0.9369 C   0  0  0  0  0  0  0  0  0  0  0  0
    4.5811   -3.2058    2.1355 N   0  0  0  0  0  0  0  0  0  0  0  0
    5.5794   -2.6648    0.1445 N   0  0  0  0  0  0  0  0  0  0  0  0
    5.6225   -2.0402   -1.0809 C   0  0  0  0  0  0  0  0  0  0  0  0
    6.6121   -2.1240   -1.7991 O   0  0  0  0  0  0  0  0  0  0  0  0
    4.4300   -1.3019   -1.4318 C   0  0  0  0  0  0  0  0  0  0  0  0
    4.1103   -0.5691   -2.5457 N   0  0  0  0  0  0  0  0  0  0  0  0
    2.9083   -0.1302   -2.3267 C   0  0  0  0  0  0  0  0  0  0  0  0
   -5.0780   -4.6560   -2.0725 H   0  0  0  0  0  0  0  0  0  0  0  0
   -4.9093   -1.4643   -2.1291 H   0  0  0  0  0  0  0  0  0  0  0  0
   -2.4825   -3.3925    0.2187 H   0  0  0  0  0  0  0  0  0  0  0  0
   -2.5046   -2.1366   -1.0172 H   0  0  0  0  0  0  0  0  0  0  0  0
   -3.6744   -0.5909    0.6076 H   0  0  0  0  0  0  0  0  0  0  0  0
   -3.5877   -1.8541    1.8373 H   0  0  0  0  0  0  0  0  0  0  0  0
   -2.4155    0.7062    2.0879 H   0  0  0  0  0  0  0  0  0  0  0  0
   -1.9053   -0.5356    3.2327 H   0  0  0  0  0  0  0  0  0  0  0  0
   -0.1436    1.0648    3.1710 H   0  0  0  0  0  0  0  0  0  0  0  0
    0.4336   -0.3462    2.3166 H   0  0  0  0  0  0  0  0  0  0  0  0
   -1.2152    2.7313    1.8707 H   0  0  0  0  0  0  0  0  0  0  0  0
    0.4305    3.2703    1.5873 H   0  0  0  0  0  0  0  0  0  0  0  0
   -0.0193    3.1510   -0.9144 H   0  0  0  0  0  0  0  0  0  0  0  0
   -1.6579    2.6198   -0.5641 H   0  0  0  0  0  0  0  0  0  0  0  0
   -2.0044    6.1393   -1.7801 H   0  0  0  0  0  0  0  0  0  0  0  0
   -3.3498    4.4666    0.6149 H   0  0  0  0  0  0  0  0  0  0  0  0
    1.5888    1.8812   -0.1221 H   0  0  0  0  0  0  0  0  0  0  0  0
    2.0544    0.8003    1.1680 H   0  0  0  0  0  0  0  0  0  0  0  0
    0.6822   -1.0371   -0.0507 H   0  0  0  0  0  0  0  0  0  0  0  0
    0.4499    0.1050   -1.3507 H   0  0  0  0  0  0  0  0  0  0  0  0
    2.6213   -1.8946    1.2846 H   0  0  0  0  0  0  0  0  0  0  0  0
    5.3459   -3.8353    2.3090 H   0  0  0  0  0  0  0  0  0  0  0  0
    3.7382   -3.3724    2.6588 H   0  0  0  0  0  0  0  0  0  0  0  0
    2.3235    0.4877   -2.9916 H   0  0  0  0  0  0  0  0  0  0  0  0
  1  2  2  0
  2  3  1  6
  4  2  1  0
  2  5  1  0
 23 22  1  0
 22 24  2  0
 22 21  1  0
 24 25  1  0
 21 20  1  0
 25 26  2  0
 25 27  1  0
 20 27  2  0
 20 19  1  0
 27 28  1  0
  5  6  1  0
  6  7  1  0
 19 18  1  0
 19 29  1  0
 28 29  2  0
 18 17  1  0
  7  8  1  0
 17 10  1  0
 10 11  1  0
 10  9  1  0
  8  9  1  0
 11 12  1  0
 16 13  2  0
 12 13  1  0
 13 14  1  6
 13 15  1  0
  3 30  1  0
  4 31  1  0
  5 32  1  0
  5 33  1  0
  6 34  1  0
  6 35  1  0
  8 36  1  0
  8 37  1  0
  9 38  1  0
  9 39  1  0
 11 40  1  0
 11 41  1  0
 12 42  1  0
 12 43  1  0
 14 44  1  0
 15 45  1  0
 17 46  1  0
 17 47  1  0
 18 48  1  0
 18 49  1  0
 21 50  1  0
 23 51  1  0
 23 52  1  0
 29 53  1  0
M  END
