
     RDKit          3D

 59 63  0  0  0  0  0  0  0  0999 V2000
   -1.6432    0.2207   -2.8109 O   0  0  0  0  0  0  0  0  0  0  0  0
   -1.2640    1.2332   -2.2450 C   0  0  0  0  0  0  0  0  0  0  0  0
   -2.0867    2.1195   -1.6617 N   0  0  0  0  0  0  0  0  0  0  0  0
   -3.4482    1.7911   -1.3361 C   0  0  0  0  0  0  0  0  0  0  0  0
   -3.5657    0.9558   -0.0782 C   0  0  0  0  0  0  0  0  0  0  0  0
   -4.7243    0.2269    0.1686 C   0  0  0  0  0  0  0  0  0  0  0  0
   -4.8224   -0.4887    1.3492 C   0  0  0  0  0  0  0  0  0  0  0  0
   -3.7574   -0.4596    2.2373 C   0  0  0  0  0  0  0  0  0  0  0  0
   -2.6384    0.2797    1.8924 C   0  0  0  0  0  0  0  0  0  0  0  0
   -2.5458    0.9804    0.7681 N   0  0  0  0  0  0  0  0  0  0  0  0
    0.1900    1.5646   -2.1291 C   0  0  0  0  0  0  0  0  0  0  0  0
    0.7620    1.7537   -0.8755 C   0  0  0  0  0  0  0  0  0  0  0  0
    1.0191    1.5980   -3.2386 C   0  0  0  0  0  0  0  0  0  0  0  0
    0.4847    1.4407   -4.4564 F   0  0  0  0  0  0  0  0  0  0  0  0
    2.3741    1.8270   -3.1269 C   0  0  0  0  0  0  0  0  0  0  0  0
    2.9269    1.9886   -1.8640 C   0  0  0  0  0  0  0  0  0  0  0  0
    2.1323    1.9432   -0.7253 C   0  0  0  0  0  0  0  0  0  0  0  0
    2.7216    1.9947    0.6777 C   0  0  2  0  0  0  0  0  0  0  0  0
    3.9876    2.6819    0.7503 N   0  0  0  0  0  0  0  0  0  0  0  0
    5.2039    2.0972    0.6832 C   0  0  0  0  0  0  0  0  0  0  0  0
    6.2459    2.7197    0.5468 O   0  0  0  0  0  0  0  0  0  0  0  0
    5.1924    0.7293    0.8088 N   0  0  0  0  0  0  0  0  0  0  0  0
    4.0800   -0.0020    1.1958 C   0  0  0  0  0  0  0  0  0  0  0  0
    4.3915   -1.4002    1.6194 C   0  0  0  0  0  0  0  0  0  0  0  0
    2.8749    0.5799    1.1825 C   0  0  0  0  0  0  0  0  0  0  0  0
    1.6125   -0.0723    1.6193 C   0  0  0  0  0  0  0  0  0  0  0  0
    0.9217    0.4076    2.5041 O   0  0  0  0  0  0  0  0  0  0  0  0
    1.2698   -1.1789    0.9219 N   0  0  0  0  0  0  0  0  0  0  0  0
    0.0339   -1.8516    1.0694 C   0  0  0  0  0  0  0  0  0  0  0  0
   -0.8197   -1.9216   -0.0070 C   0  0  0  0  0  0  0  0  0  0  0  0
   -0.2963   -2.4534    2.3036 C   0  0  0  0  0  0  0  0  0  0  0  0
   -1.4802   -3.1273    2.4824 C   0  0  0  0  0  0  0  0  0  0  0  0
   -2.3453   -3.1976    1.3845 C   0  0  0  0  0  0  0  0  0  0  0  0
   -2.0261   -2.6098    0.1501 C   0  0  0  0  0  0  0  0  0  0  0  0
   -3.5666   -3.7553    1.2235 N   0  0  0  0  0  0  0  0  0  0  0  0
   -4.0535   -3.5649   -0.0056 N   0  0  0  0  0  0  0  0  0  0  0  0
   -3.1540   -2.8820   -0.6675 C   0  0  0  0  0  0  0  0  0  0  0  0
   -1.6739    2.8938   -1.1676 H   0  0  0  0  0  0  0  0  0  0  0  0
   -3.9963    2.7256   -1.2027 H   0  0  0  0  0  0  0  0  0  0  0  0
   -3.9152    1.2743   -2.1739 H   0  0  0  0  0  0  0  0  0  0  0  0
   -5.5287    0.2175   -0.5563 H   0  0  0  0  0  0  0  0  0  0  0  0
   -5.7098   -1.0679    1.5689 H   0  0  0  0  0  0  0  0  0  0  0  0
   -3.7820   -1.0101    3.1676 H   0  0  0  0  0  0  0  0  0  0  0  0
   -1.7716    0.3008    2.5416 H   0  0  0  0  0  0  0  0  0  0  0  0
    0.1155    1.7174   -0.0039 H   0  0  0  0  0  0  0  0  0  0  0  0
    2.9937    1.8760   -4.0125 H   0  0  0  0  0  0  0  0  0  0  0  0
    3.9925    2.1582   -1.7883 H   0  0  0  0  0  0  0  0  0  0  0  0
    2.0195    2.5323    1.3208 H   0  0  0  0  0  0  0  0  0  0  0  0
    3.9763    3.6836    0.6348 H   0  0  0  0  0  0  0  0  0  0  0  0
    6.0985    0.2916    0.8754 H   0  0  0  0  0  0  0  0  0  0  0  0
    4.7851   -1.9719    0.7766 H   0  0  0  0  0  0  0  0  0  0  0  0
    5.1559   -1.3965    2.3977 H   0  0  0  0  0  0  0  0  0  0  0  0
    3.5212   -1.9234    2.0028 H   0  0  0  0  0  0  0  0  0  0  0  0
    1.8140   -1.3910    0.0999 H   0  0  0  0  0  0  0  0  0  0  0  0
   -0.5676   -1.4478   -0.9466 H   0  0  0  0  0  0  0  0  0  0  0  0
    0.4084   -2.3940    3.1220 H   0  0  0  0  0  0  0  0  0  0  0  0
   -1.7252   -3.5837    3.4323 H   0  0  0  0  0  0  0  0  0  0  0  0
   -4.1133   -4.2562    1.9039 H   0  0  0  0  0  0  0  0  0  0  0  0
   -3.3250   -2.5906   -1.6924 H   0  0  0  0  0  0  0  0  0  0  0  0
 21 20  2  0
 20 19  1  0
 20 22  1  0
 19 18  1  0
 22 23  1  0
 18 25  1  0
 18 17  1  0
 23 25  2  0
 23 24  1  0
 27 26  2  0
 25 26  1  0
 26 28  1  0
 17 12  2  0
 17 16  1  0
 12 11  1  0
 16 15  2  0
 30 29  2  0
 30 34  1  0
 28 29  1  0
 37 34  1  0
 37 36  2  0
 11  2  1  0
 11 13  2  0
 29 31  1  0
 34 33  2  0
 15 13  1  0
  2  1  2  0
  2  3  1  0
  3  4  1  0
 13 14  1  0
 36 35  1  0
  4  5  1  0
 31 32  2  0
 33 35  1  0
 33 32  1  0
  5  6  2  0
  5 10  1  0
  6  7  1  0
 10  9  2  0
  7  8  2  0
  9  8  1  0
  3 38  1  0
  4 39  1  0
  4 40  1  0
  6 41  1  0
  7 42  1  0
  8 43  1  0
  9 44  1  0
 12 45  1  0
 15 46  1  0
 16 47  1  0
 18 48  1  1
 19 49  1  0
 22 50  1  0
 24 51  1  0
 24 52  1  0
 24 53  1  0
 28 54  1  0
 30 55  1  0
 31 56  1  0
 32 57  1  0
 35 58  1  0
 37 59  1  0
M  END
