
     RDKit          3D

 57 60  0  0  0  0  0  0  0  0999 V2000
    0.4580   -0.2768    5.7979 C   0  0  0  0  0  0  0  0  0  0  0  0
   -0.9433   -0.2731    5.5353 C   0  0  0  0  0  0  0  0  0  0  0  0
   -1.4214   -0.1395    4.2407 C   0  0  0  0  0  0  0  0  0  0  0  0
   -0.5111   -0.0057    3.1975 C   0  0  0  0  0  0  0  0  0  0  0  0
    0.8442   -0.0071    3.4586 C   0  0  0  0  0  0  0  0  0  0  0  0
    1.3487   -0.1385    4.7571 C   0  0  0  0  0  0  0  0  0  0  0  0
    1.5889    0.1501    2.2111 C   0  0  0  0  0  0  0  0  0  0  0  0
    0.5861    0.1118    1.0649 C   0  0  1  0  0  0  0  0  0  0  0  0
   -0.7958    0.1819    1.7367 C   0  0  0  0  0  0  0  0  0  0  0  0
    0.8277    1.1839    0.0076 C   0  0  0  0  0  0  0  0  0  0  0  0
   -0.0690    1.0371   -1.2209 C   0  0  1  0  0  0  0  0  0  0  0  0
   -0.0106    2.2801   -2.1043 C   0  0  0  0  0  0  0  0  0  0  0  0
   -0.8667    2.1147   -3.3490 C   0  0  0  0  0  0  0  0  0  0  0  0
   -0.4562    0.9517   -4.1126 N   0  0  0  0  0  0  0  0  0  0  0  0
   -0.5599   -0.2619   -3.3238 C   0  0  0  0  0  0  0  0  0  0  0  0
    0.2910   -0.1812   -2.0664 C   0  0  0  0  0  0  0  0  0  0  0  0
   -1.1709    0.8412   -5.3644 C   0  0  0  0  0  0  0  0  0  0  0  0
   -0.5003   -0.0963   -6.3364 C   0  0  0  0  0  0  0  0  0  0  0  0
   -1.2513   -0.9640   -7.1225 C   0  0  0  0  0  0  0  0  0  0  0  0
   -0.6386   -1.7917   -8.0563 C   0  0  0  0  0  0  0  0  0  0  0  0
    0.7403   -1.7649   -8.2099 C   0  0  0  0  0  0  0  0  0  0  0  0
    1.5000   -0.9064   -7.4227 C   0  0  0  0  0  0  0  0  0  0  0  0
    0.8845   -0.0798   -6.4944 C   0  0  0  0  0  0  0  0  0  0  0  0
    2.7912    0.2721    2.0944 O   0  0  0  0  0  0  0  0  0  0  0  0
    0.7882   -0.4202    7.0928 O   0  0  0  0  0  0  0  0  0  0  0  0
    2.1616   -0.4344    7.4247 C   0  0  0  0  0  0  0  0  0  0  0  0
   -1.7129   -0.4058    6.6188 O   0  0  0  0  0  0  0  0  0  0  0  0
   -3.1198   -0.3704    6.4601 C   0  0  0  0  0  0  0  0  0  0  0  0
   -2.4843   -0.1357    4.0376 H   0  0  0  0  0  0  0  0  0  0  0  0
    2.4191   -0.1371    4.9182 H   0  0  0  0  0  0  0  0  0  0  0  0
    0.7089   -0.8797    0.6117 H   0  0  0  0  0  0  0  0  0  0  0  0
   -1.4913   -0.5655    1.3522 H   0  0  0  0  0  0  0  0  0  0  0  0
   -1.2603    1.1573    1.5644 H   0  0  0  0  0  0  0  0  0  0  0  0
    0.6573    2.1666    0.4604 H   0  0  0  0  0  0  0  0  0  0  0  0
    1.8750    1.1640   -0.3092 H   0  0  0  0  0  0  0  0  0  0  0  0
   -1.1083    0.9226   -0.8821 H   0  0  0  0  0  0  0  0  0  0  0  0
   -0.3518    3.1575   -1.5488 H   0  0  0  0  0  0  0  0  0  0  0  0
    1.0260    2.4714   -2.4023 H   0  0  0  0  0  0  0  0  0  0  0  0
   -1.9295    2.0531   -3.0517 H   0  0  0  0  0  0  0  0  0  0  0  0
   -0.7722    2.9989   -3.9849 H   0  0  0  0  0  0  0  0  0  0  0  0
   -1.6100   -0.4637   -3.0437 H   0  0  0  0  0  0  0  0  0  0  0  0
   -0.2306   -1.1079   -3.9309 H   0  0  0  0  0  0  0  0  0  0  0  0
    1.3472   -0.1222   -2.3511 H   0  0  0  0  0  0  0  0  0  0  0  0
    0.1672   -1.1070   -1.4990 H   0  0  0  0  0  0  0  0  0  0  0  0
   -2.2205    0.5308   -5.2234 H   0  0  0  0  0  0  0  0  0  0  0  0
   -1.2131    1.8370   -5.8181 H   0  0  0  0  0  0  0  0  0  0  0  0
   -2.3282   -0.9965   -7.0012 H   0  0  0  0  0  0  0  0  0  0  0  0
   -1.2406   -2.4613   -8.6572 H   0  0  0  0  0  0  0  0  0  0  0  0
    1.2222   -2.4093   -8.9341 H   0  0  0  0  0  0  0  0  0  0  0  0
    2.5768   -0.8815   -7.5348 H   0  0  0  0  0  0  0  0  0  0  0  0
    1.4793    0.5799   -5.8751 H   0  0  0  0  0  0  0  0  0  0  0  0
    2.2182   -0.5421    8.5049 H   0  0  0  0  0  0  0  0  0  0  0  0
    2.6848   -1.2740    6.9589 H   0  0  0  0  0  0  0  0  0  0  0  0
    2.6593    0.4949    7.1349 H   0  0  0  0  0  0  0  0  0  0  0  0
   -3.5426   -0.4565    7.4574 H   0  0  0  0  0  0  0  0  0  0  0  0
   -3.4520    0.5693    6.0126 H   0  0  0  0  0  0  0  0  0  0  0  0
   -3.4799   -1.2017    5.8493 H   0  0  0  0  0  0  0  0  0  0  0  0
  1  2  2  0
  1  6  1  0
  1 25  1  0
  2  3  1  0
  2 27  1  0
  3  4  2  0
  3 29  1  0
  4  5  1  0
  4  9  1  0
  5  6  2  0
  5  7  1  0
  6 30  1  0
  7  8  1  0
  7 24  2  0
  8  9  1  0
  8 10  1  0
  8 31  1  6
  9 32  1  0
  9 33  1  0
 10 11  1  0
 10 34  1  0
 10 35  1  0
 11 12  1  0
 11 16  1  0
 11 36  1  1
 12 13  1  0
 12 37  1  0
 12 38  1  0
 13 14  1  0
 13 39  1  0
 13 40  1  0
 14 15  1  0
 14 17  1  0
 15 16  1  0
 15 41  1  0
 15 42  1  0
 16 43  1  0
 16 44  1  0
 17 18  1  0
 17 45  1  0
 17 46  1  0
 18 19  2  0
 18 23  1  0
 19 20  1  0
 19 47  1  0
 20 21  2  0
 20 48  1  0
 21 22  1  0
 21 49  1  0
 22 23  2  0
 22 50  1  0
 23 51  1  0
 25 26  1  0
 26 52  1  0
 26 53  1  0
 26 54  1  0
 27 28  1  0
 28 55  1  0
 28 56  1  0
 28 57  1  0
M  END
