
     RDKit          3D

 47 48  0  0  0  0  0  0  0  0999 V2000
   -3.9495    1.2492   -1.5622 N   0  0  0  0  0  0  0  0  0  0  0  0
   -5.1272    0.8154   -1.1135 C   0  0  0  0  0  0  0  0  0  0  0  0
   -5.3324    0.0478   -0.0358 N   0  0  0  0  0  0  0  0  0  0  0  0
   -4.2568   -0.3174    0.6502 C   0  0  0  0  0  0  0  0  0  0  0  0
   -2.9708    0.0723    0.2831 C   0  0  0  0  0  0  0  0  0  0  0  0
   -2.8717    0.8863   -0.8776 C   0  0  0  0  0  0  0  0  0  0  0  0
   -4.3162   -2.6880    1.4375 C   0  0  0  0  0  0  0  0  0  0  0  0
    3.5604    3.1529    1.6379 C   0  0  0  0  0  0  0  0  0  0  0  0
    3.0103   -3.1025   -1.7846 C   0  0  0  0  0  0  0  0  0  0  0  0
    6.0311    0.1887   -0.8508 C   0  0  0  0  0  0  0  0  0  0  0  0
   -6.2142    1.1871   -1.8062 N   0  0  0  0  0  0  0  0  0  0  0  0
   -1.6807    1.3037   -1.3215 N   0  0  0  0  0  0  0  0  0  0  0  0
   -0.7675   -0.6011    1.5369 C   0  0  0  0  0  0  0  0  0  0  0  0
   -1.8032   -0.3099    0.9880 C   0  0  0  0  0  0  0  0  0  0  0  0
    2.2638    0.6743    1.4256 C   0  0  0  0  0  0  0  0  0  0  0  0
    2.0817   -1.4380    0.2744 C   0  0  0  0  0  0  0  0  0  0  0  0
   -4.4780   -1.2184    1.8274 C   0  0  0  0  0  0  0  0  0  0  0  0
    0.5030   -0.9525    2.1609 C   0  0  0  0  0  0  0  0  0  0  0  0
    3.9593    2.2208    0.6524 O   0  0  0  0  0  0  0  0  0  0  0  0
    3.6075   -1.8403   -1.5625 O   0  0  0  0  0  0  0  0  0  0  0  0
    4.7267    0.5586   -1.2770 O   0  0  0  0  0  0  0  0  0  0  0  0
    1.6606   -0.5650    1.2676 C   0  0  0  0  0  0  0  0  0  0  0  0
    3.3069    1.0480    0.5795 C   0  0  0  0  0  0  0  0  0  0  0  0
    3.1225   -1.0683   -0.5749 C   0  0  0  0  0  0  0  0  0  0  0  0
    3.7323    0.1811   -0.4298 C   0  0  0  0  0  0  0  0  0  0  0  0
   -4.5157   -3.3335    2.2927 H   0  0  0  0  0  0  0  0  0  0  0  0
   -5.0097   -2.9618    0.6422 H   0  0  0  0  0  0  0  0  0  0  0  0
   -3.3041   -2.8958    1.0900 H   0  0  0  0  0  0  0  0  0  0  0  0
    2.5206    3.4652    1.5099 H   0  0  0  0  0  0  0  0  0  0  0  0
    3.6883    2.7594    2.6497 H   0  0  0  0  0  0  0  0  0  0  0  0
    4.2031    4.0213    1.5169 H   0  0  0  0  0  0  0  0  0  0  0  0
    1.9565   -3.0122   -2.0600 H   0  0  0  0  0  0  0  0  0  0  0  0
    3.5508   -3.5569   -2.6110 H   0  0  0  0  0  0  0  0  0  0  0  0
    3.0908   -3.7543   -0.9111 H   0  0  0  0  0  0  0  0  0  0  0  0
    6.2945    0.6564    0.1011 H   0  0  0  0  0  0  0  0  0  0  0  0
    6.1341   -0.8944   -0.7505 H   0  0  0  0  0  0  0  0  0  0  0  0
    6.7284    0.5356   -1.6118 H   0  0  0  0  0  0  0  0  0  0  0  0
   -6.1256    1.7517   -2.6314 H   0  0  0  0  0  0  0  0  0  0  0  0
   -7.1273    0.8825   -1.5213 H   0  0  0  0  0  0  0  0  0  0  0  0
   -0.8378    1.1133   -0.8085 H   0  0  0  0  0  0  0  0  0  0  0  0
   -1.6271    1.9183   -2.1147 H   0  0  0  0  0  0  0  0  0  0  0  0
    1.9131    1.3348    2.2075 H   0  0  0  0  0  0  0  0  0  0  0  0
    1.5959   -2.3996    0.1755 H   0  0  0  0  0  0  0  0  0  0  0  0
   -3.7729   -0.9738    2.6238 H   0  0  0  0  0  0  0  0  0  0  0  0
   -5.4843   -1.0485    2.2116 H   0  0  0  0  0  0  0  0  0  0  0  0
    0.5941   -0.4546    3.1297 H   0  0  0  0  0  0  0  0  0  0  0  0
    0.5268   -2.0269    2.3615 H   0  0  0  0  0  0  0  0  0  0  0  0
  2  1  2  0
  6  1  1  0
  3  2  1  0
  2 11  1  0
  4  3  2  0
 17  4  1  0
  4  5  1  0
 14  5  1  0
  5  6  2  0
  6 12  1  0
  7 17  1  0
  7 26  1  0
  7 27  1  0
  7 28  1  0
 19  8  1  0
  8 29  1  0
  8 30  1  0
  8 31  1  0
 20  9  1  0
  9 32  1  0
  9 33  1  0
  9 34  1  0
 10 21  1  0
 10 35  1  0
 10 36  1  0
 10 37  1  0
 11 38  1  0
 11 39  1  0
 12 40  1  0
 12 41  1  0
 18 13  1  0
 13 14  3  0
 23 15  2  0
 15 22  1  0
 15 42  1  0
 24 16  1  0
 16 22  2  0
 16 43  1  0
 17 44  1  0
 17 45  1  0
 22 18  1  0
 18 46  1  0
 18 47  1  0
 19 23  1  0
 20 24  1  0
 21 25  1  0
 25 23  1  0
 25 24  2  0
M  END
