
     RDKit          3D

 53 57  0  0  0  0  0  0  0  0999 V2000
   -5.4502   -3.5810    0.4673 C   0  0  0  0  0  0  0  0  0  0  0  0
   -4.8097   -3.1195   -0.8360 C   0  0  0  0  0  0  0  0  0  0  0  0
   -3.3050   -2.8791   -0.7913 C   0  0  0  0  0  0  0  0  0  0  0  0
   -2.9633   -1.6772   -0.0229 N   0  0  0  0  0  0  0  0  0  0  0  0
   -2.6733   -1.9191    1.3918 C   0  0  0  0  0  0  0  0  0  0  0  0
   -3.6332   -2.8720    2.0935 C   0  0  0  0  0  0  0  0  0  0  0  0
   -5.1053   -2.7496    1.7002 C   0  0  0  0  0  0  0  0  0  0  0  0
   -1.8887   -0.8921   -0.6317 C   0  0  0  0  0  0  0  0  0  0  0  0
   -1.8955    0.5323   -0.1423 C   0  0  0  0  0  0  0  0  0  0  0  0
   -0.7446    1.2737    0.0254 C   0  0  0  0  0  0  0  0  0  0  0  0
   -0.7291    2.6137    0.3972 C   0  0  0  0  0  0  0  0  0  0  0  0
   -1.9317    3.2793    0.6237 C   0  0  0  0  0  0  0  0  0  0  0  0
   -3.1087    2.5802    0.4794 C   0  0  0  0  0  0  0  0  0  0  0  0
   -3.0974    1.2221    0.1010 C   0  0  0  0  0  0  0  0  0  0  0  0
    0.5041    0.7824   -0.1687 O   0  0  0  0  0  0  0  0  0  0  0  0
    1.3967    1.7986    0.0830 C   0  0  0  0  0  0  0  0  0  0  0  0
    0.6619    3.0236    0.4556 C   0  0  0  0  0  0  0  0  0  0  0  0
    2.7238    1.6354   -0.0130 C   0  0  0  0  0  0  0  0  0  0  0  0
    3.4562    0.4597   -0.3714 C   0  0  0  0  0  0  0  0  0  0  0  0
    4.8929    0.3691   -0.4444 C   0  0  0  0  0  0  0  0  0  0  0  0
    5.2030   -0.9486   -0.8287 C   0  0  0  0  0  0  0  0  0  0  0  0
    4.0165   -1.6174   -0.9796 N   0  0  0  0  0  0  0  0  0  0  0  0
    2.9811   -0.7947   -0.7117 C   0  0  0  0  0  0  0  0  0  0  0  0
    5.9341    1.2743   -0.2213 C   0  0  0  0  0  0  0  0  0  0  0  0
    7.2365    0.8433   -0.3862 C   0  0  0  0  0  0  0  0  0  0  0  0
    7.5223   -0.4762   -0.7707 C   0  0  0  0  0  0  0  0  0  0  0  0
    6.5119   -1.3910   -0.9978 C   0  0  0  0  0  0  0  0  0  0  0  0
    1.1471    4.1070    0.7391 O   0  0  0  0  0  0  0  0  0  0  0  0
   -4.2633    0.5942   -0.0188 O   0  0  0  0  0  0  0  0  0  0  0  0
   -6.5347   -3.5994    0.3311 H   0  0  0  0  0  0  0  0  0  0  0  0
   -5.1521   -4.6167    0.6632 H   0  0  0  0  0  0  0  0  0  0  0  0
   -5.0104   -3.8686   -1.6070 H   0  0  0  0  0  0  0  0  0  0  0  0
   -5.2878   -2.1967   -1.1791 H   0  0  0  0  0  0  0  0  0  0  0  0
   -2.7716   -3.7609   -0.4141 H   0  0  0  0  0  0  0  0  0  0  0  0
   -2.9592   -2.7337   -1.8154 H   0  0  0  0  0  0  0  0  0  0  0  0
   -1.6492   -2.3026    1.5068 H   0  0  0  0  0  0  0  0  0  0  0  0
   -2.6956   -0.9543    1.9058 H   0  0  0  0  0  0  0  0  0  0  0  0
   -3.3163   -3.9063    1.9331 H   0  0  0  0  0  0  0  0  0  0  0  0
   -3.5155   -2.6946    3.1647 H   0  0  0  0  0  0  0  0  0  0  0  0
   -5.3853   -1.7010    1.5544 H   0  0  0  0  0  0  0  0  0  0  0  0
   -5.7169   -3.1074    2.5318 H   0  0  0  0  0  0  0  0  0  0  0  0
   -0.9086   -1.3526   -0.4542 H   0  0  0  0  0  0  0  0  0  0  0  0
   -2.0415   -0.8887   -1.7141 H   0  0  0  0  0  0  0  0  0  0  0  0
   -1.9424    4.3226    0.9113 H   0  0  0  0  0  0  0  0  0  0  0  0
   -4.0625    3.0601    0.6561 H   0  0  0  0  0  0  0  0  0  0  0  0
    3.3024    2.5235    0.2169 H   0  0  0  0  0  0  0  0  0  0  0  0
    3.9200   -2.5832   -1.2493 H   0  0  0  0  0  0  0  0  0  0  0  0
    1.9702   -1.1589   -0.7826 H   0  0  0  0  0  0  0  0  0  0  0  0
    5.7312    2.2967    0.0740 H   0  0  0  0  0  0  0  0  0  0  0  0
    8.0533    1.5327   -0.2170 H   0  0  0  0  0  0  0  0  0  0  0  0
    8.5530   -0.7825   -0.8920 H   0  0  0  0  0  0  0  0  0  0  0  0
    6.7308   -2.4086   -1.2943 H   0  0  0  0  0  0  0  0  0  0  0  0
   -4.0522   -0.3893   -0.0824 H   0  0  0  0  0  0  0  0  0  0  0  0
  1  2  1  0
  1  7  1  0
  2  3  1  0
  3  4  1  0
  4  5  1  0
  4  8  1  0
  5  6  1  0
  6  7  1  0
  8  9  1  0
  9 10  2  0
  9 14  1  0
 10 11  1  0
 10 15  1  0
 11 12  2  0
 11 17  1  0
 12 13  1  0
 13 14  2  0
 14 29  1  0
 15 16  1  0
 16 17  1  0
 16 18  2  0
 17 28  2  0
 18 19  1  0
 19 20  1  0
 19 23  2  0
 20 21  2  0
 20 24  1  0
 21 22  1  0
 21 27  1  0
 22 23  1  0
 24 25  2  0
 25 26  1  0
 26 27  2  0
  1 30  1  0
  1 31  1  0
  2 32  1  0
  2 33  1  0
  3 34  1  0
  3 35  1  0
  5 36  1  0
  5 37  1  0
  6 38  1  0
  6 39  1  0
  7 40  1  0
  7 41  1  0
  8 42  1  0
  8 43  1  0
 12 44  1  0
 13 45  1  0
 18 46  1  0
 22 47  1  0
 23 48  1  0
 24 49  1  0
 25 50  1  0
 26 51  1  0
 27 52  1  0
 29 53  1  0
M  END
