
     RDKit          3D

 41 43  0  0  0  0  0  0  0  0999 V2000
    0.7626   -0.6711   -0.0903 C   0  0  0  0  0  0  0  0  0  0  0  0
    0.3911    1.6521   -0.3529 C   0  0  1  0  0  0  0  0  0  0  0  0
   -1.5670    2.9164    0.6600 C   0  0  0  0  0  0  0  0  0  0  0  0
   -1.5285    0.0415   -0.5420 C   0  0  0  0  0  0  0  0  0  0  0  0
   -4.2133   -0.4592   -1.0696 C   0  0  0  0  0  0  0  0  0  0  0  0
   -3.6160   -0.9853    0.0739 C   0  0  0  0  0  0  0  0  0  0  0  0
   -2.2711   -0.7272    0.3369 C   0  0  0  0  0  0  0  0  0  0  0  0
   -5.6262   -2.0283    0.7808 C   0  0  0  0  0  0  0  0  0  0  0  0
   -3.4502    0.3093   -1.9400 C   0  0  0  0  0  0  0  0  0  0  0  0
    4.4183    0.4009    0.0793 C   0  0  0  0  0  0  0  0  0  0  0  0
    4.2003    1.7598   -0.1352 C   0  0  0  0  0  0  0  0  0  0  0  0
    2.9164    2.2643   -0.2798 C   0  0  0  0  0  0  0  0  0  0  0  0
    1.8569    1.3751   -0.2206 C   0  0  0  0  0  0  0  0  0  0  0  0
    2.0663    0.0270    0.0045 C   0  0  0  0  0  0  0  0  0  0  0  0
    3.3502   -0.4847    0.1679 C   0  0  0  0  0  0  0  0  0  0  0  0
    3.5988   -1.9076    0.5323 C   0  0  0  0  0  0  0  0  0  0  0  0
    4.5484   -2.4487   -0.2161 O   0  0  0  0  0  0  0  0  0  0  0  0
    3.0344   -2.4766    1.4291 O   0  0  0  0  0  0  0  0  0  0  0  0
    0.5484   -1.8654   -0.0746 O   0  0  0  0  0  0  0  0  0  0  0  0
   -0.1721    0.3104   -0.2650 N   0  0  0  0  0  0  0  0  0  0  0  0
   -0.1099    2.5921    0.7506 C   0  0  0  0  0  0  0  0  0  0  0  0
   -2.4427    2.7028    1.6331 C   0  0  0  0  0  0  0  0  0  0  0  0
   -2.1116    0.5575   -1.6967 C   0  0  0  0  0  0  0  0  0  0  0  0
   -4.2578   -1.7390    0.9865 O   0  0  0  0  0  0  0  0  0  0  0  0
    0.1687    2.0898   -1.3317 H   0  0  0  0  0  0  0  0  0  0  0  0
   -1.9019    3.3651   -0.2710 H   0  0  0  0  0  0  0  0  0  0  0  0
   -5.2558   -0.6349   -1.2966 H   0  0  0  0  0  0  0  0  0  0  0  0
   -1.8263   -1.1049    1.2482 H   0  0  0  0  0  0  0  0  0  0  0  0
   -6.2372   -1.1221    0.7610 H   0  0  0  0  0  0  0  0  0  0  0  0
   -5.7905   -2.5840   -0.1461 H   0  0  0  0  0  0  0  0  0  0  0  0
   -5.9411   -2.6451    1.6188 H   0  0  0  0  0  0  0  0  0  0  0  0
   -3.9142    0.7123   -2.8306 H   0  0  0  0  0  0  0  0  0  0  0  0
    5.4323    0.0442    0.2009 H   0  0  0  0  0  0  0  0  0  0  0  0
    5.0486    2.4285   -0.1880 H   0  0  0  0  0  0  0  0  0  0  0  0
    2.7581    3.3219   -0.4474 H   0  0  0  0  0  0  0  0  0  0  0  0
    4.7379   -3.3512    0.0842 H   0  0  0  0  0  0  0  0  0  0  0  0
    0.1305    2.1616    1.7259 H   0  0  0  0  0  0  0  0  0  0  0  0
    0.4656    3.5189    0.6593 H   0  0  0  0  0  0  0  0  0  0  0  0
   -3.4865    2.9659    1.5246 H   0  0  0  0  0  0  0  0  0  0  0  0
   -2.1485    2.2445    2.5701 H   0  0  0  0  0  0  0  0  0  0  0  0
   -1.5306    1.1458   -2.3945 H   0  0  0  0  0  0  0  0  0  0  0  0
 18 16  2  0
 10 11  2  0
 10 15  1  0
 16 17  1  0
 16 15  1  0
 11 12  1  0
 15 14  2  0
 12 13  2  0
 14 13  1  0
 14  1  1  0
 13  2  1  0
  3 22  2  0
  3 21  1  0
 19  1  2  0
  1 20  1  0
  2 21  1  0
  2 20  1  0
 20  4  1  0
  4  7  2  0
  4 23  1  0
  7  6  1  0
  8 24  1  0
 23  9  2  0
  6 24  1  0
  6  5  2  0
  9  5  1  0
  2 25  1  6
  3 26  1  0
  5 27  1  0
  7 28  1  0
  8 29  1  0
  8 30  1  0
  8 31  1  0
  9 32  1  0
 10 33  1  0
 11 34  1  0
 12 35  1  0
 17 36  1  0
 21 37  1  0
 21 38  1  0
 22 39  1  0
 22 40  1  0
 23 41  1  0
M  END
