
     RDKit          3D

 24 24  0  0  0  0  0  0  0  0999 V2000
    1.4374   -0.9388    0.6705 C   0  0  0  0  0  0  0  0  0  0  0  0
    2.7862   -0.7396    0.9240 C   0  0  0  0  0  0  0  0  0  0  0  0
    3.5340    0.0990    0.1049 C   0  0  0  0  0  0  0  0  0  0  0  0
    4.8534    0.3309    0.3791 O   0  0  0  0  0  0  0  0  0  0  0  0
    2.9215    0.7280   -0.9723 C   0  0  0  0  0  0  0  0  0  0  0  0
    1.5715    0.5240   -1.2152 C   0  0  0  0  0  0  0  0  0  0  0  0
    0.8121   -0.3127   -0.4031 C   0  0  0  0  0  0  0  0  0  0  0  0
   -0.6618   -0.5029   -0.6927 C   0  0  1  0  0  0  0  0  0  0  0  0
   -1.2365   -1.8084   -0.4554 N   0  0  0  0  0  0  0  0  0  0  0  0
   -1.5035    0.4963    0.0938 C   0  0  1  0  0  0  0  0  0  0  0  0
   -2.9886    0.3496   -0.2545 C   0  0  0  0  0  0  0  0  0  0  0  0
   -3.3926    0.6315   -1.3493 O   0  0  0  0  0  0  0  0  0  0  0  0
   -3.7135   -0.0874    0.7492 O   0  0  0  0  0  0  0  0  0  0  0  0
   -1.3126    0.3350    1.4260 F   0  0  0  0  0  0  0  0  0  0  0  0
   -1.1364    1.7690   -0.1994 F   0  0  0  0  0  0  0  0  0  0  0  0
    0.8834   -1.6065    1.3185 H   0  0  0  0  0  0  0  0  0  0  0  0
    3.2598   -1.2291    1.7659 H   0  0  0  0  0  0  0  0  0  0  0  0
    5.4022   -0.3217   -0.0698 H   0  0  0  0  0  0  0  0  0  0  0  0
    3.4994    1.3801   -1.6155 H   0  0  0  0  0  0  0  0  0  0  0  0
    1.1092    1.0134   -2.0641 H   0  0  0  0  0  0  0  0  0  0  0  0
   -0.8292   -0.2669   -1.7475 H   0  0  0  0  0  0  0  0  0  0  0  0
   -0.8389   -2.4819   -1.0963 H   0  0  0  0  0  0  0  0  0  0  0  0
   -1.0485   -2.1473    0.4798 H   0  0  0  0  0  0  0  0  0  0  0  0
   -4.6424   -0.1708    0.4813 H   0  0  0  0  0  0  0  0  0  0  0  0
  5  6  2  0
  5  3  1  0
  6  7  1  0
  4  3  1  0
  3  2  2  0
  7  8  1  0
  7  1  2  0
  9  8  1  0
  8 10  1  0
  2  1  1  0
 12 11  2  0
 10 14  1  1
 10 11  1  0
 10 15  1  0
 11 13  1  0
  1 16  1  0
  2 17  1  0
  4 18  1  0
  5 19  1  0
  6 20  1  0
  8 21  1  6
  9 22  1  0
  9 23  1  0
 13 24  1  0
M  END
