
     RDKit          3D

 30 30  0  0  0  0  0  0  0  0999 V2000
   -5.3301   -0.4289   -0.1223 S   0  0  1  0  0  0  0  0  0  0  0  0
    1.3341    0.4375   -0.5752 N   0  0  0  0  0  0  0  0  0  0  0  0
    0.8585    1.9045    1.0820 O   0  0  0  0  0  0  0  0  0  0  0  0
   -0.9372    0.6520    0.1754 C   0  0  0  0  0  0  0  0  0  0  0  0
   -2.6518   -0.9971   -0.2091 C   0  0  0  0  0  0  0  0  0  0  0  0
   -1.3101   -0.6507   -0.1346 C   0  0  0  0  0  0  0  0  0  0  0  0
   -3.6090   -0.0245    0.0230 C   0  0  0  0  0  0  0  0  0  0  0  0
   -1.9156    1.6110    0.4309 C   0  0  0  0  0  0  0  0  0  0  0  0
   -3.2545    1.2810    0.3420 C   0  0  0  0  0  0  0  0  0  0  0  0
    3.0675   -0.3744    1.4618 F   0  0  0  0  0  0  0  0  0  0  0  0
    5.6384   -1.0691    0.9049 F   0  0  0  0  0  0  0  0  0  0  0  0
    3.3068   -1.5693   -0.3389 F   0  0  0  0  0  0  0  0  0  0  0  0
    5.2982    1.0580    0.8231 F   0  0  0  0  0  0  0  0  0  0  0  0
    5.5276   -0.0705   -1.0022 F   0  0  0  0  0  0  0  0  0  0  0  0
    2.7429    0.7045   -0.6170 C   0  0  0  0  0  0  0  0  0  0  0  0
   -6.0190    0.6645   -0.7910 O   0  0  0  0  0  0  0  0  0  0  0  0
    3.5081   -0.3362    0.1838 C   0  0  1  0  0  0  0  0  0  0  0  0
   -5.4223   -1.7643   -0.6944 O   0  0  0  0  0  0  0  0  0  0  0  0
    5.0263   -0.1022    0.2308 C   0  0  1  0  0  0  0  0  0  0  0  0
   -5.8044   -0.3674    1.4554 N   0  0  0  0  0  0  0  0  0  0  0  0
    0.9489   -0.1437   -1.3019 H   0  0  0  0  0  0  0  0  0  0  0  0
   -2.9319   -2.0136   -0.4465 H   0  0  0  0  0  0  0  0  0  0  0  0
   -0.5648   -1.4176   -0.3010 H   0  0  0  0  0  0  0  0  0  0  0  0
   -1.6306    2.6228    0.6843 H   0  0  0  0  0  0  0  0  0  0  0  0
   -4.0079    2.0360    0.5218 H   0  0  0  0  0  0  0  0  0  0  0  0
    3.0786    0.6835   -1.6535 H   0  0  0  0  0  0  0  0  0  0  0  0
    2.9452    1.7009   -0.2253 H   0  0  0  0  0  0  0  0  0  0  0  0
   -5.5062   -1.1760    1.9911 H   0  0  0  0  0  0  0  0  0  0  0  0
   -6.8079   -0.2344    1.5400 H   0  0  0  0  0  0  0  0  0  0  0  0
    0.4981    1.0587    0.2833 C   0  0  0  0  0  0  0  0  0  0  0  0
  7  1  1  0
  1 20  1  1
 16  1  2  0
  1 18  2  0
 15  2  1  0
  2 30  1  0
  2 21  1  0
  3 30  2  0
 30  4  1  0
  4  8  2  0
  4  6  1  0
  6  5  2  0
  5  7  1  0
  5 22  1  0
  6 23  1  0
  9  7  2  0
  8  9  1  0
  8 24  1  0
  9 25  1  0
 17 10  1  1
 19 11  1  1
 17 12  1  0
 19 13  1  0
 19 14  1  0
 15 17  1  0
 15 26  1  0
 15 27  1  0
 19 17  1  0
 20 28  1  0
 20 29  1  0
M  END
