
     RDKit          3D

 27 29  0  0  0  0  0  0  0  0999 V2000
    1.7782    0.2868    0.0823 C   0  0  0  0  0  0  0  0  0  0  0  0
    0.4251    0.6245    0.1305 C   0  0  0  0  0  0  0  0  0  0  0  0
    3.0085    0.9960    0.2574 C   0  0  0  0  0  0  0  0  0  0  0  0
    3.1417    2.3203    0.6079 N   0  0  0  0  0  0  0  0  0  0  0  0
   -0.5223   -0.3594   -0.0940 C   0  0  0  0  0  0  0  0  0  0  0  0
   -0.0929   -1.6834   -0.3629 C   0  0  0  0  0  0  0  0  0  0  0  0
    1.2333   -2.0422   -0.4127 C   0  0  0  0  0  0  0  0  0  0  0  0
    2.1773   -1.0336   -0.1840 C   0  0  0  0  0  0  0  0  0  0  0  0
    3.5226   -1.0362   -0.1493 N   0  0  0  0  0  0  0  0  0  0  0  0
    4.0297    0.1923    0.1059 N   0  0  0  0  0  0  0  0  0  0  0  0
   -1.9642   -0.0413   -0.0537 C   0  0  0  0  0  0  0  0  0  0  0  0
   -2.8843   -0.9401    0.4912 C   0  0  0  0  0  0  0  0  0  0  0  0
   -4.2378   -0.6381    0.5327 C   0  0  0  0  0  0  0  0  0  0  0  0
   -4.7012    0.5717    0.0327 C   0  0  0  0  0  0  0  0  0  0  0  0
   -3.7972    1.4749   -0.5114 C   0  0  0  0  0  0  0  0  0  0  0  0
   -2.4446    1.1704   -0.5563 C   0  0  0  0  0  0  0  0  0  0  0  0
    0.1194    1.6377    0.3627 H   0  0  0  0  0  0  0  0  0  0  0  0
    2.4430    2.9264    0.2055 H   0  0  0  0  0  0  0  0  0  0  0  0
    4.0661    2.6931    0.4509 H   0  0  0  0  0  0  0  0  0  0  0  0
   -0.8390   -2.4441   -0.5563 H   0  0  0  0  0  0  0  0  0  0  0  0
    1.5290   -3.0600   -0.6293 H   0  0  0  0  0  0  0  0  0  0  0  0
    4.1482   -1.8050   -0.3166 H   0  0  0  0  0  0  0  0  0  0  0  0
   -2.5397   -1.8788    0.9073 H   0  0  0  0  0  0  0  0  0  0  0  0
   -4.9310   -1.3486    0.9648 H   0  0  0  0  0  0  0  0  0  0  0  0
   -5.7568    0.8080    0.0648 H   0  0  0  0  0  0  0  0  0  0  0  0
   -4.1465    2.4172   -0.9133 H   0  0  0  0  0  0  0  0  0  0  0  0
   -1.7571    1.8762   -1.0065 H   0  0  0  0  0  0  0  0  0  0  0  0
  1  2  2  0
  1  3  1  0
  1  8  1  0
  2  5  1  0
  3  4  1  0
  3 10  2  0
  5  6  2  0
  5 11  1  0
  6  7  1  0
  7  8  2  0
  8  9  1  0
  9 10  1  0
 11 12  2  0
 11 16  1  0
 12 13  1  0
 13 14  2  0
 14 15  1  0
 15 16  2  0
  2 17  1  0
  4 18  1  0
  4 19  1  0
  6 20  1  0
  7 21  1  0
  9 22  1  0
 12 23  1  0
 13 24  1  0
 14 25  1  0
 15 26  1  0
 16 27  1  0
M  END
