
     RDKit          3D

 18 18  0  0  0  0  0  0  0  0999 V2000
    2.7726   -1.4239   -0.2710 N   0  0  0  0  0  0  0  0  0  0  0  0
    1.7932   -0.4705   -0.1056 C   0  0  0  0  0  0  0  0  0  0  0  0
    0.4463   -0.8384   -0.0359 C   0  0  0  0  0  0  0  0  0  0  0  0
    2.1167    0.8906   -0.0469 C   0  0  0  0  0  0  0  0  0  0  0  0
    1.1174    1.8411    0.0722 C   0  0  0  0  0  0  0  0  0  0  0  0
   -0.2195    1.4730    0.1284 C   0  0  0  0  0  0  0  0  0  0  0  0
   -0.5539    0.1212    0.0663 C   0  0  0  0  0  0  0  0  0  0  0  0
   -1.9693   -0.3671    0.1353 C   0  0  0  0  0  0  0  0  0  0  0  0
   -2.2279   -1.5185    0.4620 O   0  0  0  0  0  0  0  0  0  0  0  0
   -2.9224    0.5180   -0.1895 N   0  0  0  0  0  0  0  0  0  0  0  0
    2.5497   -2.3487    0.0598 H   0  0  0  0  0  0  0  0  0  0  0  0
    3.7046   -1.1460   -0.0093 H   0  0  0  0  0  0  0  0  0  0  0  0
    0.1803   -1.8877   -0.0688 H   0  0  0  0  0  0  0  0  0  0  0  0
    3.1542    1.2002   -0.0886 H   0  0  0  0  0  0  0  0  0  0  0  0
    1.3864    2.8880    0.1296 H   0  0  0  0  0  0  0  0  0  0  0  0
   -0.9689    2.2426    0.2549 H   0  0  0  0  0  0  0  0  0  0  0  0
   -2.7236    1.4471   -0.5157 H   0  0  0  0  0  0  0  0  0  0  0  0
   -3.8915    0.2470   -0.1517 H   0  0  0  0  0  0  0  0  0  0  0  0
  2  1  1  0
  1 11  1  0
  1 12  1  0
  4  2  2  0
  3  2  1  0
  7  3  2  0
  3 13  1  0
  5  4  1  0
  4 14  1  0
  6  5  2  0
  5 15  1  0
  6  7  1  0
  6 16  1  0
  8  7  1  0
  9  8  2  0
  8 10  1  0
 10 17  1  0
 10 18  1  0
M  END
