
     RDKit          3D

 28 28  0  0  0  0  0  0  0  0999 V2000
   -1.1122   -0.5909   -1.1670 C   0  0  0  0  0  0  0  0  0  0  0  0
   -1.2524    0.8656   -1.5861 C   0  0  0  0  0  0  0  0  0  0  0  0
   -0.5391    1.1132   -2.9118 C   0  0  0  0  0  0  0  0  0  0  0  0
    0.9087    0.6344   -2.8560 C   0  0  0  0  0  0  0  0  0  0  0  0
    0.9890   -0.8155   -2.3944 C   0  0  0  0  0  0  0  0  0  0  0  0
    0.2919   -0.9734   -1.1248 N   0  0  0  0  0  0  0  0  0  0  0  0
    0.9542   -1.2827   -0.0101 C   0  0  0  0  0  0  0  0  0  0  0  0
    2.1433   -1.5530    0.0717 O   0  0  0  0  0  0  0  0  0  0  0  0
    0.1522   -1.3316    1.2843 C   0  0  0  0  0  0  0  0  0  0  0  0
   -0.2694   -2.3537    1.7573 O   0  0  0  0  0  0  0  0  0  0  0  0
    0.0827   -0.1379    1.8303 O   0  0  0  0  0  0  0  0  0  0  0  0
   -0.5649   -0.0089    3.1149 C   0  0  0  0  0  0  0  0  0  0  0  0
   -0.4990    1.4433    3.5147 C   0  0  0  0  0  0  0  0  0  0  0  0
   -1.6137   -1.2398   -1.8906 H   0  0  0  0  0  0  0  0  0  0  0  0
   -1.5970   -0.7727   -0.2093 H   0  0  0  0  0  0  0  0  0  0  0  0
   -2.3129    1.1106   -1.6685 H   0  0  0  0  0  0  0  0  0  0  0  0
   -0.8327    1.5044   -0.8033 H   0  0  0  0  0  0  0  0  0  0  0  0
   -1.0660    0.5778   -3.7085 H   0  0  0  0  0  0  0  0  0  0  0  0
   -0.5773    2.1731   -3.1696 H   0  0  0  0  0  0  0  0  0  0  0  0
    1.3794    0.7216   -3.8370 H   0  0  0  0  0  0  0  0  0  0  0  0
    1.4837    1.2603   -2.1676 H   0  0  0  0  0  0  0  0  0  0  0  0
    2.0202   -1.1392   -2.2802 H   0  0  0  0  0  0  0  0  0  0  0  0
    0.5144   -1.4744   -3.1279 H   0  0  0  0  0  0  0  0  0  0  0  0
   -0.0545   -0.6436    3.8409 H   0  0  0  0  0  0  0  0  0  0  0  0
   -1.5985   -0.3485    3.0305 H   0  0  0  0  0  0  0  0  0  0  0  0
   -0.9961    1.5685    4.4761 H   0  0  0  0  0  0  0  0  0  0  0  0
    0.5304    1.7842    3.6231 H   0  0  0  0  0  0  0  0  0  0  0  0
   -1.0050    2.0817    2.7908 H   0  0  0  0  0  0  0  0  0  0  0  0
  1  2  1  0
  1  6  1  0
  1 14  1  0
  1 15  1  0
  2  3  1  0
  2 16  1  0
  2 17  1  0
  3  4  1  0
  3 18  1  0
  3 19  1  0
  4  5  1  0
  4 20  1  0
  4 21  1  0
  5  6  1  0
  5 22  1  0
  5 23  1  0
  6  7  1  0
  7  8  2  0
  7  9  1  0
  9 10  2  0
  9 11  1  0
 11 12  1  0
 12 13  1  0
 12 24  1  0
 12 25  1  0
 13 26  1  0
 13 27  1  0
 13 28  1  0
M  END
