
     RDKit          3D

 39 42  0  0  0  0  0  0  0  0999 V2000
   -4.7440   -2.1853    0.2051 O   0  0  0  0  0  0  0  0  0  0  0  0
   -4.9486   -1.1009   -0.2950 C   0  0  0  0  0  0  0  0  0  0  0  0
   -5.6025   -0.8070   -1.4310 N   0  0  0  0  0  0  0  0  0  0  0  0
   -5.6631    0.6033   -1.6942 C   0  0  0  0  0  0  0  0  0  0  0  0
   -4.8860    1.1778   -0.5314 C   0  0  0  0  0  0  0  0  0  0  0  0
   -4.6330    2.3406   -0.3217 O   0  0  0  0  0  0  0  0  0  0  0  0
   -4.5215    0.1192    0.2474 N   0  0  0  0  0  0  0  0  0  0  0  0
   -3.7194    0.2192    1.4501 C   0  0  0  0  0  0  0  0  0  0  0  0
   -2.2463    0.1275    1.1481 C   0  0  0  0  0  0  0  0  0  0  0  0
   -1.5088    1.2743    0.8639 C   0  0  0  0  0  0  0  0  0  0  0  0
   -0.1639    1.1913    0.5497 C   0  0  0  0  0  0  0  0  0  0  0  0
   -1.6043   -1.1058    1.1207 C   0  0  0  0  0  0  0  0  0  0  0  0
   -0.2597   -1.1959    0.7986 C   0  0  0  0  0  0  0  0  0  0  0  0
    0.4732   -0.0481    0.5033 C   0  0  0  0  0  0  0  0  0  0  0  0
    1.9077   -0.1051    0.1682 C   0  0  0  0  0  0  0  0  0  0  0  0
    2.3788   -1.2593   -0.3884 N   0  0  0  0  0  0  0  0  0  0  0  0
    3.6944   -1.4794   -0.7347 C   0  0  0  0  0  0  0  0  0  0  0  0
    4.0486   -2.5362   -1.2242 O   0  0  0  0  0  0  0  0  0  0  0  0
    2.6577    0.9128    0.4048 N   0  0  0  0  0  0  0  0  0  0  0  0
    3.9905    0.8220    0.0887 C   0  0  0  0  0  0  0  0  0  0  0  0
    4.5576   -0.3374   -0.4641 C   0  0  0  0  0  0  0  0  0  0  0  0
    4.8180    1.9261    0.3390 C   0  0  0  0  0  0  0  0  0  0  0  0
    6.1624    1.8637    0.0457 C   0  0  0  0  0  0  0  0  0  0  0  0
    6.7218    0.7050   -0.5053 C   0  0  0  0  0  0  0  0  0  0  0  0
    5.9226   -0.3880   -0.7590 C   0  0  0  0  0  0  0  0  0  0  0  0
   -6.0385   -1.5096   -2.0045 H   0  0  0  0  0  0  0  0  0  0  0  0
   -5.1923    0.8800   -2.6399 H   0  0  0  0  0  0  0  0  0  0  0  0
   -6.6845    0.9911   -1.6935 H   0  0  0  0  0  0  0  0  0  0  0  0
   -3.9577    1.1680    1.9288 H   0  0  0  0  0  0  0  0  0  0  0  0
   -4.0267   -0.5739    2.1301 H   0  0  0  0  0  0  0  0  0  0  0  0
   -1.9902    2.2436    0.8890 H   0  0  0  0  0  0  0  0  0  0  0  0
   -2.1530   -2.0073    1.3593 H   0  0  0  0  0  0  0  0  0  0  0  0
    0.3967    2.0900    0.3318 H   0  0  0  0  0  0  0  0  0  0  0  0
    0.2077   -2.1725    0.8137 H   0  0  0  0  0  0  0  0  0  0  0  0
    1.7299   -2.0056   -0.6033 H   0  0  0  0  0  0  0  0  0  0  0  0
    4.3813    2.8195    0.7657 H   0  0  0  0  0  0  0  0  0  0  0  0
    6.3439   -1.2885   -1.1855 H   0  0  0  0  0  0  0  0  0  0  0  0
    6.7939    2.7196    0.2454 H   0  0  0  0  0  0  0  0  0  0  0  0
    7.7792    0.6694   -0.7296 H   0  0  0  0  0  0  0  0  0  0  0  0
  1  2  2  0
  2  3  1  0
  2  7  1  0
  3  4  1  0
  4  5  1  0
  5  6  2  0
  5  7  1  0
  7  8  1  0
  8  9  1  0
  9 10  2  0
  9 12  1  0
 10 11  1  0
 11 14  2  0
 12 13  2  0
 13 14  1  0
 14 15  1  0
 15 16  1  0
 15 19  2  0
 16 17  1  0
 17 18  2  0
 17 21  1  0
 19 20  1  0
 20 21  2  0
 20 22  1  0
 21 25  1  0
 22 23  2  0
 23 24  1  0
 24 25  2  0
  3 26  1  0
  4 27  1  0
  4 28  1  0
  8 29  1  0
  8 30  1  0
 10 31  1  0
 12 32  1  0
 11 33  1  0
 13 34  1  0
 16 35  1  0
 22 36  1  0
 25 37  1  0
 23 38  1  0
 24 39  1  0
M  END
