
     RDKit          3D

 19 19  0  0  0  0  0  0  0  0999 V2000
   -4.3129    0.3344   -0.1102 O   0  0  0  0  0  0  0  0  0  0  0  0
   -3.0880   -0.1789   -0.1576 C   0  0  0  0  0  0  0  0  0  0  0  0
   -2.8232   -1.2061   -0.7290 O   0  0  0  0  0  0  0  0  0  0  0  0
   -2.0967    0.6813    0.5843 C   0  0  0  0  0  0  0  0  0  0  0  0
   -0.7095    0.1340    0.5503 C   0  0  0  0  0  0  0  0  0  0  0  0
    0.3204    0.7843    0.0080 C   0  0  0  0  0  0  0  0  0  0  0  0
    1.6903    0.3059   -0.0200 C   0  0  0  0  0  0  0  0  0  0  0  0
    2.7710    0.9392   -0.5822 C   0  0  0  0  0  0  0  0  0  0  0  0
    3.8308    0.1149   -0.3607 N   0  0  0  0  0  0  0  0  0  0  0  0
    3.3754   -0.9625    0.3101 C   0  0  0  0  0  0  0  0  0  0  0  0
    2.0910   -0.8831    0.5335 N   0  0  0  0  0  0  0  0  0  0  0  0
   -4.9286   -0.2311   -0.5999 H   0  0  0  0  0  0  0  0  0  0  0  0
   -2.1315    1.6910    0.1652 H   0  0  0  0  0  0  0  0  0  0  0  0
   -2.4504    0.7776    1.6171 H   0  0  0  0  0  0  0  0  0  0  0  0
   -0.5455   -0.8310    1.0179 H   0  0  0  0  0  0  0  0  0  0  0  0
    0.1508    1.7512   -0.4576 H   0  0  0  0  0  0  0  0  0  0  0  0
    2.8635    1.8767   -1.1044 H   0  0  0  0  0  0  0  0  0  0  0  0
    4.7828    0.2782   -0.6471 H   0  0  0  0  0  0  0  0  0  0  0  0
    4.0234   -1.7714    0.6108 H   0  0  0  0  0  0  0  0  0  0  0  0
  4  2  1  0
  4  5  1  0
  2  3  2  0
  2  1  1  0
  5  6  2  0
  6  7  1  0
 11  7  1  0
 11 10  2  0
  7  8  2  0
 10  9  1  0
  8  9  1  0
  1 12  1  0
  4 13  1  0
  4 14  1  0
  5 15  1  0
  6 16  1  0
  8 17  1  0
  9 18  1  0
 10 19  1  0
M  END
