
     RDKit          3D

 43 46  0  0  0  0  0  0  0  0999 V2000
    4.7477    2.2375   -2.1447 O   0  0  0  0  0  0  0  0  0  0  0  0
    3.7912    1.5791   -1.5213 C   0  0  0  0  0  0  0  0  0  0  0  0
    2.6429    1.9840   -1.4897 O   0  0  0  0  0  0  0  0  0  0  0  0
    4.2530    0.3284   -0.8823 C   0  0  0  0  0  0  0  0  0  0  0  0
    3.3573   -0.5180   -0.1897 C   0  0  0  0  0  0  0  0  0  0  0  0
    3.8401   -1.6892    0.3940 C   0  0  0  0  0  0  0  0  0  0  0  0
    5.1817   -2.0140    0.3009 C   0  0  0  0  0  0  0  0  0  0  0  0
    6.0709   -1.1906   -0.3748 C   0  0  0  0  0  0  0  0  0  0  0  0
    5.6004   -0.0312   -0.9594 C   0  0  0  0  0  0  0  0  0  0  0  0
    2.0177   -0.1506   -0.1043 N   0  0  0  0  0  0  0  0  0  0  0  0
    1.0095   -0.8424    0.4368 C   0  0  0  0  0  0  0  0  0  0  0  0
    0.9328   -2.0062    0.9065 N   0  0  0  0  0  0  0  0  0  0  0  0
   -0.3674   -2.3369    1.4203 C   0  0  0  0  0  0  0  0  0  0  0  0
   -0.5902    0.0806    0.5660 S   0  0  0  0  0  0  0  0  0  0  0  0
   -0.5842   -3.4748    1.8218 O   0  0  0  0  0  0  0  0  0  0  0  0
   -1.2913   -1.2743    1.3356 C   0  0  0  0  0  0  0  0  0  0  0  0
   -2.7713   -1.3931    1.5421 C   0  0  0  0  0  0  0  0  0  0  0  0
   -3.5695   -0.9036    0.3604 C   0  0  0  0  0  0  0  0  0  0  0  0
   -3.9718   -1.7854   -0.6110 C   0  0  0  0  0  0  0  0  0  0  0  0
   -4.6577   -1.3538   -1.7625 C   0  0  0  0  0  0  0  0  0  0  0  0
   -4.9293   -0.0266   -1.9444 C   0  0  0  0  0  0  0  0  0  0  0  0
   -4.5343    0.9209   -0.9726 C   0  0  0  0  0  0  0  0  0  0  0  0
   -3.8594    0.4822    0.1995 C   0  0  0  0  0  0  0  0  0  0  0  0
   -4.7936    2.3010   -1.1481 C   0  0  0  0  0  0  0  0  0  0  0  0
   -4.4058    3.2151   -0.2081 C   0  0  0  0  0  0  0  0  0  0  0  0
   -3.7476    2.7848    0.9614 C   0  0  0  0  0  0  0  0  0  0  0  0
   -3.4850    1.4562    1.1599 C   0  0  0  0  0  0  0  0  0  0  0  0
    4.3921    3.0487   -2.5379 H   0  0  0  0  0  0  0  0  0  0  0  0
    3.1668   -2.3470    0.9195 H   0  0  0  0  0  0  0  0  0  0  0  0
    5.5312   -2.9270    0.7643 H   0  0  0  0  0  0  0  0  0  0  0  0
    7.1178   -1.4491   -0.4467 H   0  0  0  0  0  0  0  0  0  0  0  0
    6.2947    0.6068   -1.4864 H   0  0  0  0  0  0  0  0  0  0  0  0
    1.8117    0.7443   -0.5517 H   0  0  0  0  0  0  0  0  0  0  0  0
   -2.9737   -2.4547    1.6942 H   0  0  0  0  0  0  0  0  0  0  0  0
   -3.1035   -0.8986    2.4600 H   0  0  0  0  0  0  0  0  0  0  0  0
   -3.7494   -2.8396   -0.4937 H   0  0  0  0  0  0  0  0  0  0  0  0
   -4.9631   -2.0807   -2.5040 H   0  0  0  0  0  0  0  0  0  0  0  0
   -5.4462    0.3150   -2.8329 H   0  0  0  0  0  0  0  0  0  0  0  0
   -5.3044    2.6243   -2.0471 H   0  0  0  0  0  0  0  0  0  0  0  0
   -4.6062    4.2680   -0.3566 H   0  0  0  0  0  0  0  0  0  0  0  0
   -3.4525    3.5102    1.7083 H   0  0  0  0  0  0  0  0  0  0  0  0
   -3.0019    1.1512    2.0798 H   0  0  0  0  0  0  0  0  0  0  0  0
   -0.1096    0.9268    1.5198 H   0  0  0  0  0  0  0  0  0  0  0  0
  3  2  2  0
  1  2  1  0
  2  4  1  0
 20 21  1  0
 20 19  2  0
 21 22  2  0
 14 11  1  0
 14 16  2  0
  4  9  2  0
  4  5  1  0
 10 11  1  0
 10  5  1  0
 19 18  1  0
  9  8  1  0
 11 12  2  0
  5  6  2  0
 22 24  1  0
 22 23  1  0
 18 23  2  0
 18 17  1  0
 16 17  1  0
 16 13  1  0
 24 25  2  0
 12 13  1  0
  8  7  2  0
 23 27  1  0
  6  7  1  0
 13 15  2  0
 25 26  1  0
 27 26  2  0
  1 28  1  0
  6 29  1  0
  7 30  1  0
  8 31  1  0
  9 32  1  0
 10 33  1  0
 17 34  1  0
 17 35  1  0
 19 36  1  0
 20 37  1  0
 21 38  1  0
 24 39  1  0
 25 40  1  0
 26 41  1  0
 27 42  1  0
 14 43  1  1
M  END
