
     RDKit          3D

 45 46  0  0  0  0  0  0  0  0999 V2000
   -0.3447    0.4929   -1.0586 O   0  0  0  0  0  0  0  0  0  0  0  0
    0.4765    0.9352   -0.2991 C   0  0  0  0  0  0  0  0  0  0  0  0
    0.2942    2.0193    0.4531 O   0  0  0  0  0  0  0  0  0  0  0  0
   -0.9631    2.7553    0.4615 C   0  0  1  0  0  0  0  0  0  0  0  0
   -1.1754    3.5161   -0.8333 C   0  0  0  0  0  0  0  0  0  0  0  0
   -2.1502    1.9019    0.9409 C   0  0  0  0  0  0  0  0  0  0  0  0
    1.8286    0.3562   -0.0981 C   0  0  0  0  0  0  0  0  0  0  0  0
    2.9700    1.1721   -0.1981 C   0  0  0  0  0  0  0  0  0  0  0  0
    2.9083    2.5011   -0.3951 O   0  0  0  0  0  0  0  0  0  0  0  0
    4.2413    0.6197   -0.1426 C   0  0  0  0  0  0  0  0  0  0  0  0
    4.3914   -0.7437    0.0682 C   0  0  0  0  0  0  0  0  0  0  0  0
    5.6416   -1.2283    0.1143 O   0  0  0  0  0  0  0  0  0  0  0  0
    3.2702   -1.5521    0.2444 C   0  0  0  0  0  0  0  0  0  0  0  0
    1.9938   -1.0160    0.1492 C   0  0  0  0  0  0  0  0  0  0  0  0
    0.8578   -1.9163    0.4661 C   0  0  0  0  0  0  0  0  0  0  0  0
    0.0085   -2.4565   -0.4002 C   0  0  0  0  0  0  0  0  0  0  0  0
   -1.1019   -3.3856   -0.0232 C   0  0  0  0  0  0  0  0  0  0  0  0
   -2.4825   -2.8249   -0.3785 C   0  0  0  0  0  0  0  0  0  0  0  0
   -2.8215   -1.5826    0.4298 C   0  0  0  0  0  0  0  0  0  0  0  0
   -4.0883   -0.8788    0.0168 C   0  0  0  0  0  0  0  0  0  0  0  0
   -4.9197   -1.4159   -0.6830 O   0  0  0  0  0  0  0  0  0  0  0  0
   -4.2625    0.5393    0.5071 C   0  0  0  0  0  0  0  0  0  0  0  0
   -3.1951    1.4846   -0.0917 C   0  0  0  0  0  0  0  0  0  0  0  0
   -0.7573    3.4865    1.2422 H   0  0  0  0  0  0  0  0  0  0  0  0
   -1.3518    2.8690   -1.6899 H   0  0  0  0  0  0  0  0  0  0  0  0
   -2.0405    4.1707   -0.7213 H   0  0  0  0  0  0  0  0  0  0  0  0
   -0.3161    4.1520   -1.0501 H   0  0  0  0  0  0  0  0  0  0  0  0
   -1.7690    1.0245    1.4711 H   0  0  0  0  0  0  0  0  0  0  0  0
   -2.6688    2.4864    1.7059 H   0  0  0  0  0  0  0  0  0  0  0  0
    2.0400    2.8449   -0.1488 H   0  0  0  0  0  0  0  0  0  0  0  0
    5.1094    1.2579   -0.2505 H   0  0  0  0  0  0  0  0  0  0  0  0
    5.6315   -2.1815    0.2579 H   0  0  0  0  0  0  0  0  0  0  0  0
    3.3878   -2.6082    0.4590 H   0  0  0  0  0  0  0  0  0  0  0  0
    0.7714   -2.1769    1.5191 H   0  0  0  0  0  0  0  0  0  0  0  0
    0.0952   -2.2161   -1.4557 H   0  0  0  0  0  0  0  0  0  0  0  0
   -0.9676   -4.3340   -0.5522 H   0  0  0  0  0  0  0  0  0  0  0  0
   -1.0536   -3.6124    1.0457 H   0  0  0  0  0  0  0  0  0  0  0  0
   -2.5095   -2.5899   -1.4462 H   0  0  0  0  0  0  0  0  0  0  0  0
   -3.2342   -3.5992   -0.2150 H   0  0  0  0  0  0  0  0  0  0  0  0
   -2.9312   -1.8321    1.4930 H   0  0  0  0  0  0  0  0  0  0  0  0
   -1.9951   -0.8705    0.3944 H   0  0  0  0  0  0  0  0  0  0  0  0
   -5.2664    0.8744    0.2453 H   0  0  0  0  0  0  0  0  0  0  0  0
   -4.1957    0.5474    1.5999 H   0  0  0  0  0  0  0  0  0  0  0  0
   -3.7002    2.3740   -0.4707 H   0  0  0  0  0  0  0  0  0  0  0  0
   -2.7206    1.0205   -0.9558 H   0  0  0  0  0  0  0  0  0  0  0  0
 18 17  1  0
 18 19  1  0
 17 16  1  0
 16 15  2  0
 19 20  1  0
 21 20  2  0
 20 22  1  0
 12 11  1  0
 13 11  2  0
 13 14  1  0
 15 14  1  0
 11 10  1  0
 14  7  2  0
 22 23  1  0
 23  6  1  0
 10  8  2  0
  7  8  1  0
  7  2  1  0
  3  2  1  0
  3  4  1  0
  8  9  1  0
  2  1  2  0
  6  4  1  0
  4  5  1  0
  4 24  1  1
  5 25  1  0
  5 26  1  0
  5 27  1  0
  6 28  1  0
  6 29  1  0
  9 30  1  0
 10 31  1  0
 12 32  1  0
 13 33  1  0
 15 34  1  0
 16 35  1  0
 17 36  1  0
 17 37  1  0
 18 38  1  0
 18 39  1  0
 19 40  1  0
 19 41  1  0
 22 42  1  0
 22 43  1  0
 23 44  1  0
 23 45  1  0
M  END
