
     RDKit          3D

 21 23  0  0  0  0  0  0  0  0999 V2000
    0.7134    0.7734    0.0011 C   0  0  0  0  0  0  0  0  0  0  0  0
    1.4033   -0.4525   -0.0065 C   0  0  0  0  0  0  0  0  0  0  0  0
    2.7998   -0.4707   -0.0063 C   0  0  0  0  0  0  0  0  0  0  0  0
    3.5131    0.7089    0.0020 C   0  0  0  0  0  0  0  0  0  0  0  0
    2.8329    1.9273    0.0114 C   0  0  0  0  0  0  0  0  0  0  0  0
    1.4548    1.9609    0.0109 C   0  0  0  0  0  0  0  0  0  0  0  0
   -2.9556    1.3930    0.0028 C   0  0  0  0  0  0  0  0  0  0  0  0
   -1.6724    1.8195    0.0053 C   0  0  0  0  0  0  0  0  0  0  0  0
   -0.7276    0.7481   -0.0003 C   0  0  0  0  0  0  0  0  0  0  0  0
   -1.3579   -0.4691   -0.0076 C   0  0  0  0  0  0  0  0  0  0  0  0
   -0.6821   -1.6538   -0.0143 N   0  0  0  0  0  0  0  0  0  0  0  0
   -3.0702   -0.3328   -0.0064 S   0  0  0  0  0  0  0  0  0  0  0  0
    0.6948   -1.7450   -0.0139 C   0  0  0  0  0  0  0  0  0  0  0  0
    1.2408   -2.8282   -0.0193 O   0  0  0  0  0  0  0  0  0  0  0  0
    0.9493    2.9172    0.0216 H   0  0  0  0  0  0  0  0  0  0  0  0
   -1.4072    2.8663    0.0112 H   0  0  0  0  0  0  0  0  0  0  0  0
   -3.8555    1.9856    0.0084 H   0  0  0  0  0  0  0  0  0  0  0  0
    3.3896    2.8547    0.0190 H   0  0  0  0  0  0  0  0  0  0  0  0
    4.5940    0.6910    0.0009 H   0  0  0  0  0  0  0  0  0  0  0  0
    3.3139   -1.4223   -0.0125 H   0  0  0  0  0  0  0  0  0  0  0  0
   -1.1804   -2.5313   -0.0186 H   0  0  0  0  0  0  0  0  0  0  0  0
  1  9  1  0
  1  6  1  0
  1  2  2  0
  9  8  1  0
  9 10  2  0
  8  7  2  0
  6  5  2  0
  5  4  1  0
  4  3  2  0
  3  2  1  0
  2 13  1  0
 13 14  2  0
 13 11  1  0
 11 10  1  0
  7 12  1  0
 10 12  1  0
  6 15  1  0
  8 16  1  0
  7 17  1  0
  5 18  1  0
  4 19  1  0
  3 20  1  0
 11 21  1  0
M  END
