
     RDKit          3D

 45 48  0  0  0  0  0  0  0  0999 V2000
    5.6191    2.6256    0.7903 C   0  0  0  0  0  0  0  0  0  0  0  0
    6.5186    2.8527   -0.2570 C   0  0  0  0  0  0  0  0  0  0  0  0
    6.9698    1.9074   -1.0700 N   0  0  0  0  0  0  0  0  0  0  0  0
    5.1445    1.3461    1.0264 C   0  0  0  0  0  0  0  0  0  0  0  0
    6.8221   -0.4366   -1.5174 N   0  0  0  0  0  0  0  0  0  0  0  0
    6.1500   -1.4973   -0.9684 C   0  0  0  0  0  0  0  0  0  0  0  0
    5.3852   -1.0848    0.0849 C   0  0  0  0  0  0  0  0  0  0  0  0
    5.5959    0.3267    0.1925 C   0  0  0  0  0  0  0  0  0  0  0  0
    6.5051    0.6918   -0.8291 C   0  0  0  0  0  0  0  0  0  0  0  0
    4.4868   -1.9232    0.9356 C   0  0  0  0  0  0  0  0  0  0  0  0
    3.0285   -1.6050    0.7300 C   0  0  0  0  0  0  0  0  0  0  0  0
    2.2481   -1.0448    1.7272 C   0  0  0  0  0  0  0  0  0  0  0  0
    0.9611   -0.7429    1.6024 N   0  0  0  0  0  0  0  0  0  0  0  0
    0.3549   -0.9928    0.4435 C   0  0  0  0  0  0  0  0  0  0  0  0
    1.0461   -1.5654   -0.6388 C   0  0  0  0  0  0  0  0  0  0  0  0
    2.3833   -1.8588   -0.4803 C   0  0  0  0  0  0  0  0  0  0  0  0
   -0.9623   -0.6404    0.3633 N   0  0  0  0  0  0  0  0  0  0  0  0
   -1.8267   -1.1346   -0.6870 C   0  0  0  0  0  0  0  0  0  0  0  0
   -3.2239   -0.6249   -0.4713 C   0  0  0  0  0  0  0  0  0  0  0  0
   -3.5963    0.6361   -0.9240 C   0  0  0  0  0  0  0  0  0  0  0  0
   -4.8737    1.1237   -0.6967 C   0  0  0  0  0  0  0  0  0  0  0  0
   -5.7935    0.3504    0.0009 C   0  0  0  0  0  0  0  0  0  0  0  0
   -5.4326   -0.9115    0.4597 C   0  0  0  0  0  0  0  0  0  0  0  0
   -4.1541   -1.3904    0.2238 C   0  0  0  0  0  0  0  0  0  0  0  0
   -7.1903    0.8382    0.2212 C   0  0  1  0  0  0  0  0  0  0  0  0
   -7.2936    2.1664    0.1085 F   0  0  0  0  0  0  0  0  0  0  0  0
   -8.0456    0.3082   -0.6679 F   0  0  0  0  0  0  0  0  0  0  0  0
   -7.6521    0.5098    1.4347 F   0  0  0  0  0  0  0  0  0  0  0  0
    5.3046    3.4556    1.4079 H   0  0  0  0  0  0  0  0  0  0  0  0
    6.8886    3.8560   -0.4360 H   0  0  0  0  0  0  0  0  0  0  0  0
    4.4485    1.1547    1.8336 H   0  0  0  0  0  0  0  0  0  0  0  0
    7.4453   -0.4840   -2.3064 H   0  0  0  0  0  0  0  0  0  0  0  0
    6.2680   -2.4891   -1.3761 H   0  0  0  0  0  0  0  0  0  0  0  0
    4.6684   -2.9785    0.7150 H   0  0  0  0  0  0  0  0  0  0  0  0
    4.7369   -1.7884    1.9923 H   0  0  0  0  0  0  0  0  0  0  0  0
    2.6899   -0.8271    2.6963 H   0  0  0  0  0  0  0  0  0  0  0  0
    0.5508   -1.7784   -1.5760 H   0  0  0  0  0  0  0  0  0  0  0  0
    2.9324   -2.2958   -1.3067 H   0  0  0  0  0  0  0  0  0  0  0  0
   -1.3979   -0.4707    1.2572 H   0  0  0  0  0  0  0  0  0  0  0  0
   -1.4607   -0.7877   -1.6565 H   0  0  0  0  0  0  0  0  0  0  0  0
   -1.8348   -2.2309   -0.7247 H   0  0  0  0  0  0  0  0  0  0  0  0
   -2.8855    1.2448   -1.4686 H   0  0  0  0  0  0  0  0  0  0  0  0
   -5.1351    2.1049   -1.0688 H   0  0  0  0  0  0  0  0  0  0  0  0
   -6.1350   -1.5289    1.0039 H   0  0  0  0  0  0  0  0  0  0  0  0
   -3.8810   -2.3736    0.5863 H   0  0  0  0  0  0  0  0  0  0  0  0
 24 23  2  0
 24 19  1  0
 18 17  1  0
 18 19  1  0
 23 22  1  0
 17 14  1  0
 13 14  1  0
 13 12  2  0
 19 20  2  0
 14 15  2  0
 12 11  1  0
 11 16  2  0
 11 10  1  0
 15 16  1  0
 25 28  1  1
 10  7  1  0
 22 25  1  0
 22 21  2  0
 20 21  1  0
 25 27  1  0
 25 26  1  0
  7  8  1  0
  7  6  2  0
  4  8  1  0
  4  1  2  0
  8  9  2  0
  6  5  1  0
  1  2  1  0
  9  5  1  0
  9  3  1  0
  2  3  2  0
  1 29  1  0
  2 30  1  0
  4 31  1  0
  5 32  1  0
  6 33  1  0
 10 34  1  0
 10 35  1  0
 12 36  1  0
 15 37  1  0
 16 38  1  0
 17 39  1  0
 18 40  1  0
 18 41  1  0
 20 42  1  0
 21 43  1  0
 23 44  1  0
 24 45  1  0
M  END
