
     RDKit          3D

 68 67  0  0  0  0  0  0  0  0999 V2000
   -0.3738   -0.0301   13.3416 C   0  0  0  0  0  0  0  0  0  0  0  0
    0.4795   -0.0103   12.0807 C   0  0  0  0  0  0  0  0  0  0  0  0
   -0.3548   -0.0210   10.8054 C   0  0  0  0  0  0  0  0  0  0  0  0
    0.4828   -0.0037    9.5328 C   0  0  0  0  0  0  0  0  0  0  0  0
   -0.3573   -0.0149    8.2617 C   0  0  0  0  0  0  0  0  0  0  0  0
    0.4764   -0.0107    6.9862 C   0  0  0  0  0  0  0  0  0  0  0  0
   -0.3675   -0.0187    5.7175 C   0  0  0  0  0  0  0  0  0  0  0  0
    0.4630   -0.0148    4.4401 C   0  0  0  0  0  0  0  0  0  0  0  0
   -0.3831   -0.0242    3.1729 C   0  0  0  0  0  0  0  0  0  0  0  0
    0.4456   -0.0141    1.8943 C   0  0  0  0  0  0  0  0  0  0  0  0
   -0.4019   -0.0243    0.6279 C   0  0  0  0  0  0  0  0  0  0  0  0
    0.4261   -0.0137   -0.6511 C   0  0  0  0  0  0  0  0  0  0  0  0
   -0.4215   -0.0248   -1.9174 C   0  0  0  0  0  0  0  0  0  0  0  0
    0.4072   -0.0137   -3.1960 C   0  0  0  0  0  0  0  0  0  0  0  0
   -0.4391   -0.0229   -4.4631 C   0  0  0  0  0  0  0  0  0  0  0  0
    0.3913   -0.0123   -5.7406 C   0  0  0  0  0  0  0  0  0  0  0  0
   -0.4527   -0.0234   -7.0093 C   0  0  0  0  0  0  0  0  0  0  0  0
    0.3807   -0.0109   -8.2848 C   0  0  0  0  0  0  0  0  0  0  0  0
   -0.4595   -0.0226   -9.5560 C   0  0  0  0  0  0  0  0  0  0  0  0
    0.3782   -0.0100  -10.8286 C   0  0  0  0  0  0  0  0  0  0  0  0
   -0.4561   -0.0186  -12.1040 C   0  0  0  0  0  0  0  0  0  0  0  0
    0.3978   -0.0081  -13.3646 C   0  0  0  0  0  0  0  0  0  0  0  0
    0.2380   -0.0227   14.2445 H   0  0  0  0  0  0  0  0  0  0  0  0
   -1.0341    0.8384   13.3824 H   0  0  0  0  0  0  0  0  0  0  0  0
   -1.0022   -0.9224   13.3759 H   0  0  0  0  0  0  0  0  0  0  0  0
    1.1220    0.8759   12.0851 H   0  0  0  0  0  0  0  0  0  0  0  0
    1.1534   -0.8728   12.0792 H   0  0  0  0  0  0  0  0  0  0  0  0
   -1.0000   -0.9073   10.8031 H   0  0  0  0  0  0  0  0  0  0  0  0
   -1.0294    0.8429   10.8079 H   0  0  0  0  0  0  0  0  0  0  0  0
    1.1271    0.8828    9.5342 H   0  0  0  0  0  0  0  0  0  0  0  0
    1.1571   -0.8676    9.5301 H   0  0  0  0  0  0  0  0  0  0  0  0
   -1.0093   -0.8959    8.2656 H   0  0  0  0  0  0  0  0  0  0  0  0
   -1.0246    0.8545    8.2610 H   0  0  0  0  0  0  0  0  0  0  0  0
    1.1291    0.8698    6.9824 H   0  0  0  0  0  0  0  0  0  0  0  0
    1.1425   -0.8809    6.9850 H   0  0  0  0  0  0  0  0  0  0  0  0
   -1.0212   -0.8983    5.7226 H   0  0  0  0  0  0  0  0  0  0  0  0
   -1.0329    0.8522    5.7197 H   0  0  0  0  0  0  0  0  0  0  0  0
    1.1156    0.8656    4.4342 H   0  0  0  0  0  0  0  0  0  0  0  0
    1.1293   -0.8848    4.4379 H   0  0  0  0  0  0  0  0  0  0  0  0
   -1.0328   -0.9067    3.1772 H   0  0  0  0  0  0  0  0  0  0  0  0
   -1.0525    0.8436    3.1777 H   0  0  0  0  0  0  0  0  0  0  0  0
    1.0941    0.8695    1.8894 H   0  0  0  0  0  0  0  0  0  0  0  0
    1.1160   -0.8810    1.8894 H   0  0  0  0  0  0  0  0  0  0  0  0
   -1.0509   -0.9075    0.6330 H   0  0  0  0  0  0  0  0  0  0  0  0
   -1.0718    0.8430    0.6333 H   0  0  0  0  0  0  0  0  0  0  0  0
    1.0742    0.8701   -0.6564 H   0  0  0  0  0  0  0  0  0  0  0  0
    1.0971   -0.8803   -0.6562 H   0  0  0  0  0  0  0  0  0  0  0  0
   -1.0695   -0.9087   -1.9126 H   0  0  0  0  0  0  0  0  0  0  0  0
   -1.0924    0.8417   -1.9124 H   0  0  0  0  0  0  0  0  0  0  0  0
    1.0564    0.8693   -3.1999 H   0  0  0  0  0  0  0  0  0  0  0  0
    1.0771   -0.8811   -3.2013 H   0  0  0  0  0  0  0  0  0  0  0  0
   -1.0885   -0.9058   -4.4595 H   0  0  0  0  0  0  0  0  0  0  0  0
   -1.1086    0.8448   -4.4583 H   0  0  0  0  0  0  0  0  0  0  0  0
    1.0395    0.8715   -5.7443 H   0  0  0  0  0  0  0  0  0  0  0  0
    1.0623   -0.8787   -5.7441 H   0  0  0  0  0  0  0  0  0  0  0  0
   -1.0997   -0.9080   -7.0070 H   0  0  0  0  0  0  0  0  0  0  0  0
   -1.1245    0.8425   -7.0057 H   0  0  0  0  0  0  0  0  0  0  0  0
    1.0275    0.8739   -8.2863 H   0  0  0  0  0  0  0  0  0  0  0  0
    1.0530   -0.8764   -8.2868 H   0  0  0  0  0  0  0  0  0  0  0  0
   -1.1064   -0.9073   -9.5555 H   0  0  0  0  0  0  0  0  0  0  0  0
   -1.1313    0.8434   -9.5550 H   0  0  0  0  0  0  0  0  0  0  0  0
    1.0270    0.8736  -10.8273 H   0  0  0  0  0  0  0  0  0  0  0  0
    1.0493   -0.8765  -10.8302 H   0  0  0  0  0  0  0  0  0  0  0  0
   -1.1046   -0.9003  -12.1060 H   0  0  0  0  0  0  0  0  0  0  0  0
   -1.1241    0.8485  -12.1051 H   0  0  0  0  0  0  0  0  0  0  0  0
   -0.2136   -0.0142  -14.2678 H   0  0  0  0  0  0  0  0  0  0  0  0
    1.0325    0.8796  -13.4010 H   0  0  0  0  0  0  0  0  0  0  0  0
    1.0519   -0.8814  -13.4028 H   0  0  0  0  0  0  0  0  0  0  0  0
  1  2  1  0
  1 23  1  0
  1 24  1  0
  1 25  1  0
  2  3  1  0
  2 26  1  0
  2 27  1  0
  3  4  1  0
  3 28  1  0
  3 29  1  0
  4  5  1  0
  4 30  1  0
  4 31  1  0
  5  6  1  0
  5 32  1  0
  5 33  1  0
  6  7  1  0
  6 34  1  0
  6 35  1  0
  7  8  1  0
  7 36  1  0
  7 37  1  0
  8  9  1  0
  8 38  1  0
  8 39  1  0
  9 10  1  0
  9 40  1  0
  9 41  1  0
 10 11  1  0
 10 42  1  0
 10 43  1  0
 11 12  1  0
 11 44  1  0
 11 45  1  0
 12 13  1  0
 12 46  1  0
 12 47  1  0
 13 14  1  0
 13 48  1  0
 13 49  1  0
 14 15  1  0
 14 50  1  0
 14 51  1  0
 15 16  1  0
 15 52  1  0
 15 53  1  0
 16 17  1  0
 16 54  1  0
 16 55  1  0
 17 18  1  0
 17 56  1  0
 17 57  1  0
 18 19  1  0
 18 58  1  0
 18 59  1  0
 19 20  1  0
 19 60  1  0
 19 61  1  0
 20 21  1  0
 20 62  1  0
 20 63  1  0
 21 22  1  0
 21 64  1  0
 21 65  1  0
 22 66  1  0
 22 67  1  0
 22 68  1  0
M  END
