
     RDKit          3D

 36 38  0  0  0  0  0  0  0  0999 V2000
   -2.7206    0.4989   -0.3483 C   0  0  0  0  0  0  0  0  0  0  0  0
   -4.0154    0.9816   -0.2229 C   0  0  0  0  0  0  0  0  0  0  0  0
   -4.8784    0.3566    0.6674 C   0  0  0  0  0  0  0  0  0  0  0  0
   -4.3983   -0.7277    1.3895 C   0  0  0  0  0  0  0  0  0  0  0  0
   -3.1663   -1.1925    1.2707 N   0  0  0  0  0  0  0  0  0  0  0  0
   -2.3375   -0.5942    0.4204 C   0  0  0  0  0  0  0  0  0  0  0  0
   -4.4231    2.1505   -1.0554 C   0  0  0  0  0  0  0  0  0  0  0  0
   -5.6734    2.5165   -0.8388 O   0  0  0  0  0  0  0  0  0  0  0  0
   -3.6843    2.6931   -1.8374 O   0  0  0  0  0  0  0  0  0  0  0  0
   -0.9669   -1.1519    0.3170 C   0  0  0  0  0  0  0  0  0  0  0  0
   -0.1239   -0.5162   -0.4795 N   0  0  0  0  0  0  0  0  0  0  0  0
    1.1137   -1.0099   -0.5899 C   0  0  0  0  0  0  0  0  0  0  0  0
    1.5731   -2.0911    0.0468 N   0  0  0  0  0  0  0  0  0  0  0  0
    0.7125   -2.7112    0.8376 C   0  0  0  0  0  0  0  0  0  0  0  0
   -0.5925   -2.2909    1.0240 C   0  0  0  0  0  0  0  0  0  0  0  0
    1.9420   -0.3619   -1.4325 N   0  0  0  0  0  0  0  0  0  0  0  0
    3.3511   -0.6488   -1.5724 C   0  0  0  0  0  0  0  0  0  0  0  0
    4.1927   -0.0291   -0.4854 C   0  0  0  0  0  0  0  0  0  0  0  0
    4.6491    1.2797   -0.6075 C   0  0  0  0  0  0  0  0  0  0  0  0
    5.3679    1.9073    0.3142 N   0  0  0  0  0  0  0  0  0  0  0  0
    5.6721    1.2394    1.4214 C   0  0  0  0  0  0  0  0  0  0  0  0
    5.2800   -0.0714    1.6471 C   0  0  0  0  0  0  0  0  0  0  0  0
    4.5277   -0.7148    0.6763 C   0  0  0  0  0  0  0  0  0  0  0  0
   -2.0165    0.9554   -1.0287 H   0  0  0  0  0  0  0  0  0  0  0  0
   -5.8980    0.6831    0.8110 H   0  0  0  0  0  0  0  0  0  0  0  0
   -5.0449   -1.2379    2.0934 H   0  0  0  0  0  0  0  0  0  0  0  0
   -5.9056    3.2717   -1.4003 H   0  0  0  0  0  0  0  0  0  0  0  0
    1.0822   -3.5903    1.3542 H   0  0  0  0  0  0  0  0  0  0  0  0
   -1.2715   -2.8135    1.6782 H   0  0  0  0  0  0  0  0  0  0  0  0
    1.5999    0.5091   -1.8044 H   0  0  0  0  0  0  0  0  0  0  0  0
    3.4996   -1.7275   -1.5939 H   0  0  0  0  0  0  0  0  0  0  0  0
    3.6598   -0.2636   -2.5442 H   0  0  0  0  0  0  0  0  0  0  0  0
    4.4214    1.8457   -1.5067 H   0  0  0  0  0  0  0  0  0  0  0  0
    6.2605    1.7693    2.1622 H   0  0  0  0  0  0  0  0  0  0  0  0
    5.5630   -0.5743    2.5618 H   0  0  0  0  0  0  0  0  0  0  0  0
    4.2061   -1.7384    0.8161 H   0  0  0  0  0  0  0  0  0  0  0  0
  2  1  2  0
  1  6  1  0
  1 24  1  0
  7  2  1  0
  3  2  1  0
  3  4  2  0
  3 25  1  0
  4  5  1  0
  4 26  1  0
  5  6  2  0
  6 10  1  0
  9  7  2  0
  7  8  1  0
  8 27  1  0
 10 11  2  0
 10 15  1  0
 11 12  1  0
 12 16  1  0
 12 13  2  0
 14 13  1  0
 15 14  2  0
 14 28  1  0
 15 29  1  0
 16 17  1  0
 16 30  1  0
 18 17  1  0
 17 31  1  0
 17 32  1  0
 19 18  2  0
 18 23  1  0
 20 19  1  0
 19 33  1  0
 20 21  2  0
 21 22  1  0
 21 34  1  0
 22 23  2  0
 22 35  1  0
 23 36  1  0
M  END
