
     RDKit          3D

 51 54  0  0  0  0  0  0  0  0999 V2000
   -0.4770    0.8651    0.9297 C   0  0  0  0  0  0  0  0  0  0  0  0
   -0.0284   -0.5357    1.3282 C   0  0  2  0  0  0  0  0  0  0  0  0
    1.4843   -0.6288    1.5081 C   0  0  0  0  0  0  0  0  0  0  0  0
    2.1548   -0.4582    0.2295 N   0  0  0  0  0  0  0  0  0  0  0  0
    1.7804   -1.5139   -0.6992 C   0  0  0  0  0  0  0  0  0  0  0  0
    0.2813   -1.4973   -0.9294 C   0  0  0  0  0  0  0  0  0  0  0  0
   -0.4000   -1.5794    0.3597 N   0  0  0  0  0  0  0  0  0  0  0  0
   -1.8575   -2.3238    0.4323 S   0  0  1  0  0  0  0  0  0  0  0  0
   -1.7326   -3.5867   -0.2758 O   0  0  0  0  0  0  0  0  0  0  0  0
   -2.2818   -2.3142    1.8225 O   0  0  0  0  0  0  0  0  0  0  0  0
   -3.0071   -1.3318   -0.4945 C   0  0  0  0  0  0  0  0  0  0  0  0
   -3.0959   -1.4985   -1.8698 C   0  0  0  0  0  0  0  0  0  0  0  0
   -3.9606   -0.6832   -2.5840 C   0  0  0  0  0  0  0  0  0  0  0  0
   -4.7200    0.2788   -1.9388 C   0  0  0  0  0  0  0  0  0  0  0  0
   -4.6312    0.4112   -0.5586 C   0  0  0  0  0  0  0  0  0  0  0  0
   -3.7759   -0.3950    0.1775 C   0  0  0  0  0  0  0  0  0  0  0  0
   -5.4136    1.3719    0.1079 N   0  0  0  0  0  0  0  0  0  0  0  0
   -6.5907    1.9082   -0.2589 C   0  0  0  0  0  0  0  0  0  0  0  0
   -6.9934    2.7599    0.6492 N   0  0  0  0  0  0  0  0  0  0  0  0
   -6.0093    2.7073    1.5755 C   0  0  0  0  0  0  0  0  0  0  0  0
   -5.0373    1.8804    1.2890 N   0  0  0  0  0  0  0  0  0  0  0  0
    3.5564   -0.2677    0.3200 C   0  0  0  0  0  0  0  0  0  0  0  0
    4.3726   -1.1637    1.0043 C   0  0  0  0  0  0  0  0  0  0  0  0
    5.7440   -0.9829    1.0769 C   0  0  0  0  0  0  0  0  0  0  0  0
    6.2935    0.1118    0.4428 C   0  0  0  0  0  0  0  0  0  0  0  0
    5.5234    1.0262   -0.2464 C   0  0  0  0  0  0  0  0  0  0  0  0
    4.1483    0.8347   -0.3033 C   0  0  0  0  0  0  0  0  0  0  0  0
    3.2901    1.8447   -1.0104 C   0  0  1  0  0  0  0  0  0  0  0  0
    4.0244    2.8192   -1.5643 F   0  0  0  0  0  0  0  0  0  0  0  0
    2.5709    1.3086   -2.0028 F   0  0  0  0  0  0  0  0  0  0  0  0
    2.4357    2.4454   -0.1753 F   0  0  0  0  0  0  0  0  0  0  0  0
    7.6186    0.3016    0.4995 F   0  0  0  0  0  0  0  0  0  0  0  0
   -0.0385    1.1825   -0.0132 H   0  0  0  0  0  0  0  0  0  0  0  0
   -1.5610    0.9353    0.8475 H   0  0  0  0  0  0  0  0  0  0  0  0
   -0.1632    1.5749    1.6953 H   0  0  0  0  0  0  0  0  0  0  0  0
   -0.4744   -0.7984    2.2865 H   0  0  0  0  0  0  0  0  0  0  0  0
    1.8036    0.1599    2.1906 H   0  0  0  0  0  0  0  0  0  0  0  0
    1.7216   -1.5949    1.9780 H   0  0  0  0  0  0  0  0  0  0  0  0
    2.2795   -1.3575   -1.6553 H   0  0  0  0  0  0  0  0  0  0  0  0
    2.0754   -2.5075   -0.3287 H   0  0  0  0  0  0  0  0  0  0  0  0
   -0.0076   -0.5913   -1.4702 H   0  0  0  0  0  0  0  0  0  0  0  0
    0.0209   -2.3550   -1.5463 H   0  0  0  0  0  0  0  0  0  0  0  0
   -2.5134   -2.2481   -2.3869 H   0  0  0  0  0  0  0  0  0  0  0  0
   -4.0381   -0.7920   -3.6567 H   0  0  0  0  0  0  0  0  0  0  0  0
   -5.3660    0.9244   -2.5178 H   0  0  0  0  0  0  0  0  0  0  0  0
   -3.7207   -0.2897    1.2518 H   0  0  0  0  0  0  0  0  0  0  0  0
   -7.1117    1.6403   -1.1648 H   0  0  0  0  0  0  0  0  0  0  0  0
   -6.0114    3.2946    2.4806 H   0  0  0  0  0  0  0  0  0  0  0  0
    3.9311   -2.0238    1.4910 H   0  0  0  0  0  0  0  0  0  0  0  0
    6.3706   -1.6841    1.6120 H   0  0  0  0  0  0  0  0  0  0  0  0
    6.0043    1.8717   -0.7182 H   0  0  0  0  0  0  0  0  0  0  0  0
  1  2  1  0
  2  3  1  0
  2  7  1  0
  3  4  1  0
  4  5  1  0
  4 22  1  0
  5  6  1  0
  6  7  1  0
  7  8  1  0
  8  9  2  0
  8 10  2  0
  8 11  1  6
 11 12  2  0
 11 16  1  0
 12 13  1  0
 13 14  2  0
 14 15  1  0
 15 16  2  0
 15 17  1  0
 17 18  1  0
 17 21  1  0
 18 19  2  0
 19 20  1  0
 20 21  2  0
 22 23  2  0
 22 27  1  0
 23 24  1  0
 24 25  2  0
 25 26  1  0
 25 32  1  0
 26 27  2  0
 27 28  1  0
 28 29  1  6
 28 30  1  0
 28 31  1  0
  1 33  1  0
  1 34  1  0
  1 35  1  0
  2 36  1  1
  3 37  1  0
  3 38  1  0
  5 39  1  0
  5 40  1  0
  6 41  1  0
  6 42  1  0
 12 43  1  0
 13 44  1  0
 14 45  1  0
 16 46  1  0
 18 47  1  0
 20 48  1  0
 23 49  1  0
 24 50  1  0
 26 51  1  0
M  END
