
     RDKit          3D

 48 51  0  0  0  0  0  0  0  0999 V2000
    2.7403   -0.3218    1.2497 C   0  0  0  0  0  0  0  0  0  0  0  0
   -1.1737   -4.2303    0.7302 C   0  0  0  0  0  0  0  0  0  0  0  0
    0.2764   -3.2074   -0.9064 C   0  0  0  0  0  0  0  0  0  0  0  0
    1.7869   -1.3214    1.2914 C   0  0  0  0  0  0  0  0  0  0  0  0
   -1.7220    2.4892    1.8494 C   0  0  0  0  0  0  0  0  0  0  0  0
   -2.8497    3.2538    2.0377 C   0  0  0  0  0  0  0  0  0  0  0  0
    2.3801    0.9546    0.8271 C   0  0  0  0  0  0  0  0  0  0  0  0
    0.4727   -1.0530    0.9294 C   0  0  0  0  0  0  0  0  0  0  0  0
   -1.9613   -0.1253   -0.8378 C   0  0  0  0  0  0  0  0  0  0  0  0
   -3.8718   -0.6194   -2.2752 C   0  0  0  0  0  0  0  0  0  0  0  0
    3.6497    2.2194   -1.9238 C   0  0  0  0  0  0  0  0  0  0  0  0
   -0.4924   -5.4756   -1.2190 C   0  0  0  0  0  0  0  0  0  0  0  0
   -1.2019   -5.3908   -0.0266 C   0  0  0  0  0  0  0  0  0  0  0  0
    0.2409   -4.3805   -1.6506 C   0  0  0  0  0  0  0  0  0  0  0  0
    1.0671    1.2130    0.4625 C   0  0  0  0  0  0  0  0  0  0  0  0
   -2.0187    1.5870    0.7970 C   0  0  0  0  0  0  0  0  0  0  0  0
    0.0904    0.2184    0.5058 C   0  0  0  0  0  0  0  0  0  0  0  0
   -0.4320   -3.1399    0.2877 C   0  0  0  0  0  0  0  0  0  0  0  0
   -3.3243    1.8500    0.3978 C   0  0  0  0  0  0  0  0  0  0  0  0
   -1.3011    0.5404    0.1414 C   0  0  0  0  0  0  0  0  0  0  0  0
   -4.0201    1.1471   -0.6301 C   0  0  0  0  0  0  0  0  0  0  0  0
   -3.8075    2.8655    1.1638 N   0  0  0  0  0  0  0  0  0  0  0  0
   -3.2515    0.1532   -1.2088 N   0  0  0  0  0  0  0  0  0  0  0  0
    3.3463    1.9921    0.8021 N   0  0  0  0  0  0  0  0  0  0  0  0
   -5.1738    1.3674   -0.9928 O   0  0  0  0  0  0  0  0  0  0  0  0
    5.1216    0.6746   -0.3967 O   0  0  0  0  0  0  0  0  0  0  0  0
    5.3322    3.1660   -0.1316 O   0  0  0  0  0  0  0  0  0  0  0  0
   -0.4833   -2.0205    1.0649 O   0  0  0  0  0  0  0  0  0  0  0  0
    4.5138    1.9937   -0.3874 S   0  0  1  0  0  0  0  0  0  0  0  0
    3.7513   -0.5298    1.5683 H   0  0  0  0  0  0  0  0  0  0  0  0
    0.8553   -2.3660   -1.2653 H   0  0  0  0  0  0  0  0  0  0  0  0
    2.0606   -2.3107    1.6357 H   0  0  0  0  0  0  0  0  0  0  0  0
   -0.8017    2.5721    2.4048 H   0  0  0  0  0  0  0  0  0  0  0  0
   -3.0322    4.0506    2.7401 H   0  0  0  0  0  0  0  0  0  0  0  0
   -1.4876   -0.9125   -1.4072 H   0  0  0  0  0  0  0  0  0  0  0  0
   -4.7770   -1.1084   -1.9208 H   0  0  0  0  0  0  0  0  0  0  0  0
   -4.1262    0.0185   -3.1198 H   0  0  0  0  0  0  0  0  0  0  0  0
   -3.1768   -1.3817   -2.6142 H   0  0  0  0  0  0  0  0  0  0  0  0
   -0.5114   -6.3850   -1.8044 H   0  0  0  0  0  0  0  0  0  0  0  0
   -1.7808   -6.2360    0.3225 H   0  0  0  0  0  0  0  0  0  0  0  0
    0.7953   -4.4293   -2.5787 H   0  0  0  0  0  0  0  0  0  0  0  0
    0.7915    2.2056    0.1259 H   0  0  0  0  0  0  0  0  0  0  0  0
   -4.7314    3.2607    1.0954 H   0  0  0  0  0  0  0  0  0  0  0  0
    3.1519    3.1862   -1.9133 H   0  0  0  0  0  0  0  0  0  0  0  0
    4.3827    2.1848   -2.7280 H   0  0  0  0  0  0  0  0  0  0  0  0
    2.9226    1.4204   -2.0535 H   0  0  0  0  0  0  0  0  0  0  0  0
    2.9658    2.9222    0.9462 H   0  0  0  0  0  0  0  0  0  0  0  0
   -1.7251   -4.1642    1.6596 H   0  0  0  0  0  0  0  0  0  0  0  0
  1  4  2  0
  1  7  1  0
  2 13  2  0
  2 18  1  0
  3 14  1  0
  3 18  2  0
  4  8  1  0
  5  6  2  0
  5 16  1  0
  6 22  1  0
  7 15  2  0
  7 24  1  0
  8 17  2  0
  8 28  1  0
  9 20  2  0
  9 23  1  0
 10 23  1  0
 11 29  1  0
 12 13  1  0
 12 14  2  0
 15 17  1  0
 16 19  2  0
 16 20  1  0
 17 20  1  0
 18 28  1  0
 19 21  1  0
 19 22  1  0
 21 23  1  0
 21 25  2  0
 29 24  1  1
 26 29  2  0
 27 29  2  0
  1 30  1  0
  2 48  1  0
  3 31  1  0
  4 32  1  0
  5 33  1  0
  6 34  1  0
  9 35  1  0
 10 36  1  0
 10 37  1  0
 10 38  1  0
 12 39  1  0
 13 40  1  0
 14 41  1  0
 15 42  1  0
 22 43  1  0
 11 44  1  0
 11 45  1  0
 11 46  1  0
 24 47  1  0
M  END
