
     RDKit          3D

 24 25  0  0  0  0  0  0  0  0999 V2000
   -2.6817   -1.7200    0.0156 C   0  0  0  0  0  0  0  0  0  0  0  0
   -3.9417   -1.1418    0.0007 C   0  0  0  0  0  0  0  0  0  0  0  0
   -4.0500    0.2445   -0.0110 C   0  0  0  0  0  0  0  0  0  0  0  0
   -2.9171    1.0406   -0.0092 C   0  0  0  0  0  0  0  0  0  0  0  0
   -1.6558    0.4490    0.0063 C   0  0  0  0  0  0  0  0  0  0  0  0
   -1.5333   -0.9360    0.0188 C   0  0  0  0  0  0  0  0  0  0  0  0
   -0.5958    1.3041    0.0131 O   0  0  0  0  0  0  0  0  0  0  0  0
    0.6786    0.7881   -0.0297 C   0  0  0  0  0  0  0  0  0  0  0  0
    1.2808    0.5322   -1.2530 C   0  0  0  0  0  0  0  0  0  0  0  0
    2.5784    0.0501   -1.2991 C   0  0  0  0  0  0  0  0  0  0  0  0
    3.2814   -0.1833   -0.1184 C   0  0  0  0  0  0  0  0  0  0  0  0
    2.6710    0.0788    1.1053 C   0  0  0  0  0  0  0  0  0  0  0  0
    1.3704    0.5601    1.1480 C   0  0  0  0  0  0  0  0  0  0  0  0
    4.5399   -0.6555   -0.2185 O   0  0  0  0  0  0  0  0  0  0  0  0
   -2.5792   -2.7974    0.0252 H   0  0  0  0  0  0  0  0  0  0  0  0
   -4.8280   -1.7618   -0.0021 H   0  0  0  0  0  0  0  0  0  0  0  0
   -5.0257    0.7130   -0.0235 H   0  0  0  0  0  0  0  0  0  0  0  0
   -3.0028    2.1199   -0.0190 H   0  0  0  0  0  0  0  0  0  0  0  0
   -0.5626   -1.4133    0.0326 H   0  0  0  0  0  0  0  0  0  0  0  0
    0.7416    0.7142   -2.1742 H   0  0  0  0  0  0  0  0  0  0  0  0
    3.0492   -0.1473   -2.2537 H   0  0  0  0  0  0  0  0  0  0  0  0
    3.2057   -0.0925    2.0324 H   0  0  0  0  0  0  0  0  0  0  0  0
    0.9024    0.7617    2.1032 H   0  0  0  0  0  0  0  0  0  0  0  0
    4.9176   -0.7967    0.6565 H   0  0  0  0  0  0  0  0  0  0  0  0
  1  2  2  0
  1  6  1  0
  2  3  1  0
  6  5  2  0
 14 11  1  0
  3  4  2  0
 10 11  1  0
 10  9  2  0
 11 12  2  0
  9  8  1  0
  5  4  1  0
  5  7  1  0
 12 13  1  0
  8 13  2  0
  8  7  1  0
  1 15  1  0
  2 16  1  0
  3 17  1  0
  4 18  1  0
  6 19  1  0
  9 20  1  0
 10 21  1  0
 12 22  1  0
 13 23  1  0
 14 24  1  0
M  END
