
     RDKit          3D

 36 39  0  0  0  0  0  0  0  0999 V2000
   -5.2556    2.8883    0.2160 F   0  0  0  0  0  0  0  0  0  0  0  0
    0.5814   -1.8708   -0.4781 N   0  0  0  0  0  0  0  0  0  0  0  0
    1.4775   -3.8116   -0.0141 N   0  0  0  0  0  0  0  0  0  0  0  0
   -2.4219   -0.0723    0.1803 C   0  0  0  0  0  0  0  0  0  0  0  0
   -3.3311    0.0240    1.2330 C   0  0  0  0  0  0  0  0  0  0  0  0
   -4.2898    1.0240    1.2536 C   0  0  0  0  0  0  0  0  0  0  0  0
   -1.3914   -1.1181    0.1669 C   0  0  0  0  0  0  0  0  0  0  0  0
   -1.5909   -2.3832    0.8456 C   0  0  0  0  0  0  0  0  0  0  0  0
    0.4181   -3.0712    0.1670 C   0  0  0  0  0  0  0  0  0  0  0  0
    2.7468    0.3694   -0.9573 C   0  0  0  0  0  0  0  0  0  0  0  0
    4.1338    1.3991    0.7384 C   0  0  0  0  0  0  0  0  0  0  0  0
   -0.7148   -3.3312    0.8434 N   0  0  0  0  0  0  0  0  0  0  0  0
    2.2806    2.6174   -0.1912 C   0  0  0  0  0  0  0  0  0  0  0  0
    3.8223    0.3220   -0.0766 C   0  0  0  0  0  0  0  0  0  0  0  0
    3.3621    2.5577    0.6839 C   0  0  0  0  0  0  0  0  0  0  0  0
    3.6163    3.6398    1.4467 O   0  0  0  0  0  0  0  0  0  0  0  0
    1.9817    1.5302   -0.9969 C   0  0  0  0  0  0  0  0  0  0  0  0
    1.8057   -1.9266   -1.0566 C   0  0  0  0  0  0  0  0  0  0  0  0
   -0.3021   -0.8829   -0.4963 N   0  0  0  0  0  0  0  0  0  0  0  0
    2.3311   -3.0912   -0.7724 N   0  0  0  0  0  0  0  0  0  0  0  0
   -2.4872    0.8589   -0.8581 C   0  0  0  0  0  0  0  0  0  0  0  0
   -3.4414    1.8598   -0.8527 C   0  0  0  0  0  0  0  0  0  0  0  0
   -4.3287    1.9238    0.2067 C   0  0  0  0  0  0  0  0  0  0  0  0
   -4.9898    1.1022    2.0743 H   0  0  0  0  0  0  0  0  0  0  0  0
   -3.4985    2.5750   -1.6621 H   0  0  0  0  0  0  0  0  0  0  0  0
   -3.2938   -0.6642    2.0667 H   0  0  0  0  0  0  0  0  0  0  0  0
   -1.7950    0.7958   -1.6865 H   0  0  0  0  0  0  0  0  0  0  0  0
   -2.5222   -2.5686    1.3658 H   0  0  0  0  0  0  0  0  0  0  0  0
    1.7501   -0.5217   -2.6401 H   0  0  0  0  0  0  0  0  0  0  0  0
    3.3237   -1.2155   -2.2947 H   0  0  0  0  0  0  0  0  0  0  0  0
    4.4349   -0.5706   -0.0235 H   0  0  0  0  0  0  0  0  0  0  0  0
    1.1337    1.5912   -1.6674 H   0  0  0  0  0  0  0  0  0  0  0  0
    4.9802    1.3358    1.4126 H   0  0  0  0  0  0  0  0  0  0  0  0
    4.3896    3.4884    2.0015 H   0  0  0  0  0  0  0  0  0  0  0  0
    1.6766    3.5150   -0.2390 H   0  0  0  0  0  0  0  0  0  0  0  0
    2.4198   -0.8196   -1.8302 C   0  0  0  0  0  0  0  0  0  0  0  0
  1 23  1  0
 23  6  1  0
 23 22  2  0
  6  5  2  0
  5  4  1  0
 22 21  1  0
 21  4  2  0
  4  7  1  0
  7  8  1  0
  7 19  2  0
  8 12  2  0
 12  9  1  0
 19  2  1  0
  2  9  1  0
  2 18  1  0
  9  3  2  0
  3 20  1  0
 20 18  2  0
 18 36  1  0
 36 10  1  0
 10 14  1  0
 10 17  2  0
 14 11  2  0
 11 15  1  0
 15 16  1  0
 15 13  2  0
 13 17  1  0
  6 24  1  0
 22 25  1  0
  5 26  1  0
 21 27  1  0
  8 28  1  0
 36 29  1  0
 36 30  1  0
 14 31  1  0
 17 32  1  0
 11 33  1  0
 16 34  1  0
 13 35  1  0
M  END
