
     RDKit          3D

 51 54  0  0  0  0  0  0  0  0999 V2000
   -3.9360    0.5741   -2.3094 F   0  0  0  0  0  0  0  0  0  0  0  0
   -2.9020    0.5890   -1.4621 C   0  0  1  0  0  0  0  0  0  0  0  0
   -1.8623    0.0644   -2.1140 F   0  0  0  0  0  0  0  0  0  0  0  0
   -2.6193    1.8771   -1.2273 F   0  0  0  0  0  0  0  0  0  0  0  0
   -3.2013   -0.1533   -0.1883 C   0  0  0  0  0  0  0  0  0  0  0  0
   -4.5134   -0.4172    0.1312 C   0  0  0  0  0  0  0  0  0  0  0  0
   -4.7974   -1.1244    1.3148 C   0  0  0  0  0  0  0  0  0  0  0  0
   -6.0762   -1.3582    1.6926 N   0  0  0  0  0  0  0  0  0  0  0  0
   -3.8274   -1.5610    2.1133 N   0  0  0  0  0  0  0  0  0  0  0  0
   -2.5728   -1.2947    1.7840 C   0  0  0  0  0  0  0  0  0  0  0  0
   -2.1717   -0.5850    0.6611 C   0  0  0  0  0  0  0  0  0  0  0  0
   -0.7257   -0.3460    0.4477 C   0  0  0  0  0  0  0  0  0  0  0  0
   -0.2061    0.9353    0.5564 C   0  0  0  0  0  0  0  0  0  0  0  0
    0.1077   -1.4282    0.2089 C   0  0  0  0  0  0  0  0  0  0  0  0
    1.4815   -1.1767    0.0664 C   0  0  0  0  0  0  0  0  0  0  0  0
    2.3870   -2.1734   -0.2089 N   0  0  0  0  0  0  0  0  0  0  0  0
    3.8036   -1.9177   -0.0045 C   0  0  0  0  0  0  0  0  0  0  0  0
    4.6361   -2.8789   -0.8282 C   0  0  0  0  0  0  0  0  0  0  0  0
    4.3074   -4.2229   -0.5589 O   0  0  0  0  0  0  0  0  0  0  0  0
    2.9508   -4.4559   -0.8519 C   0  0  0  0  0  0  0  0  0  0  0  0
    2.0271   -3.5678   -0.0373 C   0  0  0  0  0  0  0  0  0  0  0  0
    1.9739    0.0535    0.1660 N   0  0  0  0  0  0  0  0  0  0  0  0
    1.1785    1.0944    0.3915 C   0  0  0  0  0  0  0  0  0  0  0  0
    1.7882    2.3252    0.4366 N   0  0  0  0  0  0  0  0  0  0  0  0
    1.0729    3.4870    0.9277 C   0  0  0  0  0  0  0  0  0  0  0  0
    1.7188    4.7609    0.4130 C   0  0  0  0  0  0  0  0  0  0  0  0
    3.0912    4.8205    0.7188 O   0  0  0  0  0  0  0  0  0  0  0  0
    3.7630    3.7217    0.1451 C   0  0  0  0  0  0  0  0  0  0  0  0
    3.2238    2.4011    0.6557 C   0  0  0  0  0  0  0  0  0  0  0  0
   -5.3287   -0.1060   -0.5071 H   0  0  0  0  0  0  0  0  0  0  0  0
   -6.8140   -1.2589    1.0169 H   0  0  0  0  0  0  0  0  0  0  0  0
   -6.2337   -2.0447    2.4111 H   0  0  0  0  0  0  0  0  0  0  0  0
   -1.8142   -1.6657    2.4658 H   0  0  0  0  0  0  0  0  0  0  0  0
   -0.8589    1.7592    0.7954 H   0  0  0  0  0  0  0  0  0  0  0  0
   -0.3149   -2.4182    0.1352 H   0  0  0  0  0  0  0  0  0  0  0  0
    4.0377   -0.9004   -0.3052 H   0  0  0  0  0  0  0  0  0  0  0  0
    4.0645   -2.0130    1.0589 H   0  0  0  0  0  0  0  0  0  0  0  0
    4.4994   -2.6588   -1.8966 H   0  0  0  0  0  0  0  0  0  0  0  0
    5.6920   -2.7430   -0.5903 H   0  0  0  0  0  0  0  0  0  0  0  0
    2.7562   -4.2916   -1.9214 H   0  0  0  0  0  0  0  0  0  0  0  0
    2.7369   -5.5018   -0.6288 H   0  0  0  0  0  0  0  0  0  0  0  0
    2.0628   -3.8551    1.0227 H   0  0  0  0  0  0  0  0  0  0  0  0
    1.0147   -3.7517   -0.3916 H   0  0  0  0  0  0  0  0  0  0  0  0
    0.0436    3.4831    0.5731 H   0  0  0  0  0  0  0  0  0  0  0  0
    1.0433    3.4960    2.0260 H   0  0  0  0  0  0  0  0  0  0  0  0
    1.5645    4.8303   -0.6732 H   0  0  0  0  0  0  0  0  0  0  0  0
    1.2373    5.6233    0.8757 H   0  0  0  0  0  0  0  0  0  0  0  0
    3.6771    3.7515   -0.9505 H   0  0  0  0  0  0  0  0  0  0  0  0
    4.8195    3.8096    0.4019 H   0  0  0  0  0  0  0  0  0  0  0  0
    3.4567    2.2898    1.7241 H   0  0  0  0  0  0  0  0  0  0  0  0
    3.7196    1.5896    0.1297 H   0  0  0  0  0  0  0  0  0  0  0  0
  8  7  1  0
  7  6  1  0
  7  9  2  0
  6  5  2  0
  9 10  1  0
  2  1  1  6
  5  2  1  0
  5 11  1  0
 10 11  2  0
  2  3  1  0
  2  4  1  0
 11 12  1  0
 12 14  1  0
 12 13  2  0
 14 15  2  0
 13 23  1  0
 21 20  1  0
 21 16  1  0
 20 19  1  0
 15 16  1  0
 15 22  1  0
 16 17  1  0
 23 22  2  0
 23 24  1  0
 19 18  1  0
 25 24  1  0
 25 26  1  0
 24 29  1  0
 17 18  1  0
 26 27  1  0
 29 28  1  0
 27 28  1  0
  6 30  1  0
  8 31  1  0
  8 32  1  0
 10 33  1  0
 13 34  1  0
 14 35  1  0
 17 36  1  0
 17 37  1  0
 18 38  1  0
 18 39  1  0
 20 40  1  0
 20 41  1  0
 21 42  1  0
 21 43  1  0
 25 44  1  0
 25 45  1  0
 26 46  1  0
 26 47  1  0
 28 48  1  0
 28 49  1  0
 29 50  1  0
 29 51  1  0
M  END
