
     RDKit          3D

 34 34  0  0  0  0  0  0  0  0999 V2000
   -2.7392   -0.4401   -0.4610 C   0  0  0  0  0  0  0  0  0  0  0  0
   -1.3823   -0.1485   -0.9305 C   0  0  0  0  0  0  0  0  0  0  0  0
   -1.0931   -0.2620   -2.3002 C   0  0  0  0  0  0  0  0  0  0  0  0
    0.1787   -0.0549   -2.7786 C   0  0  0  0  0  0  0  0  0  0  0  0
    1.2107    0.2889   -1.8689 C   0  0  0  0  0  0  0  0  0  0  0  0
    0.9234    0.4245   -0.5218 C   0  0  0  0  0  0  0  0  0  0  0  0
   -0.3688    0.2096   -0.0480 C   0  0  0  0  0  0  0  0  0  0  0  0
   -0.0257   -0.3288    2.2966 C   0  0  0  0  0  0  0  0  0  0  0  0
   -0.3284    0.1162    3.6985 C   0  0  0  0  0  0  0  0  0  0  0  0
   -0.4916    1.3994    4.0264 C   0  0  0  0  0  0  0  0  0  0  0  0
   -0.4231   -0.5103   -5.0181 C   0  0  0  0  0  0  0  0  0  0  0  0
    3.4945    0.8318   -1.5691 C   0  0  0  0  0  0  0  0  0  0  0  0
   -0.4966   -0.6819    5.9032 C   0  0  0  0  0  0  0  0  0  0  0  0
   -0.6312    0.3962    1.3261 N   0  0  0  0  0  0  0  0  0  0  0  0
   -3.6642   -0.7215   -1.1923 O   0  0  0  0  0  0  0  0  0  0  0  0
    0.5541   -0.1450   -4.0628 O   0  0  0  0  0  0  0  0  0  0  0  0
    2.4130    0.4752   -2.4130 O   0  0  0  0  0  0  0  0  0  0  0  0
    0.7063   -1.2722    2.0763 O   0  0  0  0  0  0  0  0  0  0  0  0
   -0.3279   -0.9371    4.5227 O   0  0  0  0  0  0  0  0  0  0  0  0
   -2.8852   -0.4061    0.6295 H   0  0  0  0  0  0  0  0  0  0  0  0
   -1.8996   -0.5290   -2.9703 H   0  0  0  0  0  0  0  0  0  0  0  0
    1.6919    0.7202    0.1790 H   0  0  0  0  0  0  0  0  0  0  0  0
   -0.4284    2.1688    3.2716 H   0  0  0  0  0  0  0  0  0  0  0  0
   -0.6624    1.7346    5.0393 H   0  0  0  0  0  0  0  0  0  0  0  0
    0.0798   -0.5254   -5.9816 H   0  0  0  0  0  0  0  0  0  0  0  0
   -0.8351   -1.5028   -4.8190 H   0  0  0  0  0  0  0  0  0  0  0  0
   -1.2431    0.2111   -5.0586 H   0  0  0  0  0  0  0  0  0  0  0  0
    4.3667    0.9188   -2.2110 H   0  0  0  0  0  0  0  0  0  0  0  0
    3.3210    1.7899   -1.0742 H   0  0  0  0  0  0  0  0  0  0  0  0
    3.6857    0.0672   -0.8129 H   0  0  0  0  0  0  0  0  0  0  0  0
   -0.4482   -1.6439    6.4067 H   0  0  0  0  0  0  0  0  0  0  0  0
    0.2947   -0.0344    6.2900 H   0  0  0  0  0  0  0  0  0  0  0  0
   -1.4641   -0.2184    6.1128 H   0  0  0  0  0  0  0  0  0  0  0  0
   -1.3220    1.0810    1.5921 H   0  0  0  0  0  0  0  0  0  0  0  0
  1  2  1  0
  1 15  2  0
  1 20  1  0
  2  3  2  0
  2  7  1  0
  3  4  1  0
  3 21  1  0
  4  5  2  0
  4 16  1  0
  5  6  1  0
  5 17  1  0
  6  7  2  0
  6 22  1  0
  7 14  1  0
  8  9  1  0
  8 14  1  0
  8 18  2  0
  9 10  2  0
  9 19  1  0
 10 23  1  0
 10 24  1  0
 11 16  1  0
 11 25  1  0
 11 26  1  0
 11 27  1  0
 12 17  1  0
 12 28  1  0
 12 29  1  0
 12 30  1  0
 13 19  1  0
 13 31  1  0
 13 32  1  0
 13 33  1  0
 14 34  1  0
M  END
