
     RDKit          3D

 48 51  0  0  0  0  0  0  0  0999 V2000
   -1.1744    0.5419   -0.0177 N   0  0  0  0  0  0  0  0  0  0  0  0
   -3.4148    1.3518    0.2053 C   0  0  0  0  0  0  0  0  0  0  0  0
   -1.5373   -4.4881    0.3572 C   0  0  0  0  0  0  0  0  0  0  0  0
   -2.1223   -2.0973    0.1355 C   0  0  0  0  0  0  0  0  0  0  0  0
    2.8444   -0.9068   -0.4483 C   0  0  0  0  0  0  0  0  0  0  0  0
    4.0866   -0.3133   -0.3442 C   0  0  0  0  0  0  0  0  0  0  0  0
    4.1525    1.0705   -0.0765 C   0  0  0  0  0  0  0  0  0  0  0  0
   -3.7882   -3.7016   -0.5172 C   0  0  0  0  0  0  0  0  0  0  0  0
   -4.6407   -2.6616   -0.8573 C   0  0  0  0  0  0  0  0  0  0  0  0
   -4.2425   -1.3451   -0.6919 C   0  0  0  0  0  0  0  0  0  0  0  0
    1.6638   -0.1768   -0.2963 C   0  0  0  0  0  0  0  0  0  0  0  0
    2.9874    1.7955    0.0778 C   0  0  0  0  0  0  0  0  0  0  0  0
   -2.4984    4.7309    0.6762 C   0  0  0  0  0  0  0  0  0  0  0  0
   -3.5203    3.8181    0.5833 C   0  0  0  0  0  0  0  0  0  0  0  0
   -2.9771   -1.0467   -0.1847 C   0  0  0  0  0  0  0  0  0  0  0  0
   -2.5216   -3.4207   -0.0108 C   0  0  0  0  0  0  0  0  0  0  0  0
    1.7288    1.1817   -0.0299 C   0  0  0  0  0  0  0  0  0  0  0  0
   -1.5659    2.8601    0.3491 C   0  0  0  0  0  0  0  0  0  0  0  0
   -2.5247    0.3462    0.0030 C   0  0  0  0  0  0  0  0  0  0  0  0
   -0.6949    1.7412    0.1476 C   0  0  0  0  0  0  0  0  0  0  0  0
    5.2516   -2.3319   -0.7344 C   0  0  0  0  0  0  0  0  0  0  0  0
    5.5238    2.9701    0.2724 C   0  0  0  0  0  0  0  0  0  0  0  0
   -1.2913    4.1332    0.5309 N   0  0  0  0  0  0  0  0  0  0  0  0
   -2.9087    2.6180    0.3717 N   0  0  0  0  0  0  0  0  0  0  0  0
   -2.0486   -5.6972    0.6337 N   0  0  0  0  0  0  0  0  0  0  0  0
    0.6277    2.0214    0.1387 N   0  0  0  0  0  0  0  0  0  0  0  0
   -0.3379   -4.2504    0.3934 O   0  0  0  0  0  0  0  0  0  0  0  0
    5.3904    1.5878    0.0107 O   0  0  0  0  0  0  0  0  0  0  0  0
   -4.4856    1.2378    0.2639 H   0  0  0  0  0  0  0  0  0  0  0  0
   -1.1375   -1.8791    0.5237 H   0  0  0  0  0  0  0  0  0  0  0  0
    2.7577   -1.9655   -0.6532 H   0  0  0  0  0  0  0  0  0  0  0  0
   -4.1146   -4.7206   -0.6805 H   0  0  0  0  0  0  0  0  0  0  0  0
   -5.6162   -2.8804   -1.2703 H   0  0  0  0  0  0  0  0  0  0  0  0
   -4.9168   -0.5503   -0.9845 H   0  0  0  0  0  0  0  0  0  0  0  0
    0.7173   -0.6798   -0.3958 H   0  0  0  0  0  0  0  0  0  0  0  0
    3.0337    2.8575    0.2849 H   0  0  0  0  0  0  0  0  0  0  0  0
   -2.5911    5.7932    0.8406 H   0  0  0  0  0  0  0  0  0  0  0  0
   -4.5903    3.9180    0.6450 H   0  0  0  0  0  0  0  0  0  0  0  0
    4.7694   -2.8900    0.0734 H   0  0  0  0  0  0  0  0  0  0  0  0
    4.7461   -2.5709   -1.6745 H   0  0  0  0  0  0  0  0  0  0  0  0
    6.2894   -2.6484   -0.8063 H   0  0  0  0  0  0  0  0  0  0  0  0
    5.0796    3.5803   -0.5188 H   0  0  0  0  0  0  0  0  0  0  0  0
    5.0727    3.2498    1.2280 H   0  0  0  0  0  0  0  0  0  0  0  0
    6.5906    3.1743    0.3147 H   0  0  0  0  0  0  0  0  0  0  0  0
   -1.4330   -6.4440    0.9125 H   0  0  0  0  0  0  0  0  0  0  0  0
   -3.0342   -5.8563    0.7471 H   0  0  0  0  0  0  0  0  0  0  0  0
    0.8463    2.9954    0.2931 H   0  0  0  0  0  0  0  0  0  0  0  0
    5.2710   -0.9436   -0.4801 O   0  0  0  0  0  0  0  0  0  0  0  0
 21 48  1  0
 23 13  1  0
 23 18  2  0
 13 14  2  0
 11  5  2  0
 11 17  1  0
  5  6  1  0
 26 17  1  0
 26 20  1  0
 17 12  2  0
  6 48  1  0
  6  7  2  0
 18 20  1  0
 18 24  1  0
 14 24  1  0
 20  1  2  0
 12  7  1  0
 24  2  1  0
  7 28  1  0
  1 19  1  0
 28 22  1  0
  2 19  2  0
 19 15  1  0
 15  4  2  0
 15 10  1  0
  4 16  1  0
 10  9  2  0
 16  8  2  0
 16  3  1  0
  9  8  1  0
 25  3  1  0
  3 27  2  0
  2 29  1  0
  4 30  1  0
  5 31  1  0
  8 32  1  0
  9 33  1  0
 10 34  1  0
 11 35  1  0
 12 36  1  0
 13 37  1  0
 14 38  1  0
 21 39  1  0
 21 40  1  0
 21 41  1  0
 22 42  1  0
 22 43  1  0
 22 44  1  0
 25 45  1  0
 25 46  1  0
 26 47  1  0
M  END
