
     RDKit          3D

 53 54  0  0  0  0  0  0  0  0999 V2000
    6.6873   -1.6294    0.8409 C   0  0  0  0  0  0  0  0  0  0  0  0
    6.1968   -1.7552   -0.5963 C   0  0  1  0  0  0  0  0  0  0  0  0
    7.0099   -0.8890   -1.5506 C   0  0  0  0  0  0  0  0  0  0  0  0
    6.2586   -3.2116   -1.0388 C   0  0  0  0  0  0  0  0  0  0  0  0
    4.7792   -1.4420   -0.6896 O   0  0  0  0  0  0  0  0  0  0  0  0
    4.2909   -0.2479   -0.3752 C   0  0  0  0  0  0  0  0  0  0  0  0
    4.9259    0.7139    0.0085 O   0  0  0  0  0  0  0  0  0  0  0  0
    2.9498   -0.2198   -0.5358 N   0  0  0  0  0  0  0  0  0  0  0  0
    2.2195    0.9884   -0.2736 C   0  0  2  0  0  0  0  0  0  0  0  0
    2.4098    1.4184    1.1883 C   0  0  0  0  0  0  0  0  0  0  0  0
    2.4491    0.6227    2.1045 O   0  0  0  0  0  0  0  0  0  0  0  0
    2.4635    2.7492    1.3326 N   0  0  0  0  0  0  0  0  0  0  0  0
    2.4038    3.3118    2.5690 O   0  0  0  0  0  0  0  0  0  0  0  0
    0.7409    0.7845   -0.4998 C   0  0  0  0  0  0  0  0  0  0  0  0
    0.0258    1.6802   -1.2853 C   0  0  0  0  0  0  0  0  0  0  0  0
   -1.3402    1.5298   -1.4656 C   0  0  0  0  0  0  0  0  0  0  0  0
    0.0601   -0.2707    0.1027 C   0  0  0  0  0  0  0  0  0  0  0  0
   -1.3034   -0.4238   -0.0836 C   0  0  0  0  0  0  0  0  0  0  0  0
   -2.0287    0.4751   -0.8676 C   0  0  0  0  0  0  0  0  0  0  0  0
   -3.4852    0.3205   -1.0549 C   0  0  0  0  0  0  0  0  0  0  0  0
   -4.2888   -0.1339   -0.0128 C   0  0  0  0  0  0  0  0  0  0  0  0
   -4.0842    0.6279   -2.2784 C   0  0  0  0  0  0  0  0  0  0  0  0
   -5.4515    0.4850   -2.4453 C   0  0  0  0  0  0  0  0  0  0  0  0
   -6.2443    0.0348   -1.3997 C   0  0  0  0  0  0  0  0  0  0  0  0
   -5.6647   -0.2786   -0.1720 C   0  0  0  0  0  0  0  0  0  0  0  0
   -6.5013   -0.7361    0.9590 C   0  0  0  0  0  0  0  0  0  0  0  0
   -7.6680   -1.3757    0.6591 N   0  0  0  0  0  0  0  0  0  0  0  0
   -6.0938   -0.4395    2.1374 N   0  0  0  0  0  0  0  0  0  0  0  0
   -6.9492   -0.9367    3.1056 O   0  0  0  0  0  0  0  0  0  0  0  0
    6.0668   -2.2157    1.5205 H   0  0  0  0  0  0  0  0  0  0  0  0
    7.7047   -2.0167    0.9064 H   0  0  0  0  0  0  0  0  0  0  0  0
    6.7022   -0.5978    1.1857 H   0  0  0  0  0  0  0  0  0  0  0  0
    8.0352   -1.2591   -1.5816 H   0  0  0  0  0  0  0  0  0  0  0  0
    6.6108   -0.9413   -2.5648 H   0  0  0  0  0  0  0  0  0  0  0  0
    7.0422    0.1530   -1.2415 H   0  0  0  0  0  0  0  0  0  0  0  0
    5.6570   -3.8511   -0.3913 H   0  0  0  0  0  0  0  0  0  0  0  0
    5.9078   -3.3325   -2.0647 H   0  0  0  0  0  0  0  0  0  0  0  0
    7.2885   -3.5654   -0.9945 H   0  0  0  0  0  0  0  0  0  0  0  0
    2.4689   -1.0165   -0.9216 H   0  0  0  0  0  0  0  0  0  0  0  0
    2.5629    1.7905   -0.9361 H   0  0  0  0  0  0  0  0  0  0  0  0
    2.4045    3.3967    0.5602 H   0  0  0  0  0  0  0  0  0  0  0  0
    3.3178    3.4363    2.8570 H   0  0  0  0  0  0  0  0  0  0  0  0
    0.5357    2.5107   -1.7578 H   0  0  0  0  0  0  0  0  0  0  0  0
   -1.8745    2.2564   -2.0647 H   0  0  0  0  0  0  0  0  0  0  0  0
    0.5896   -0.9811    0.7249 H   0  0  0  0  0  0  0  0  0  0  0  0
   -1.8044   -1.2648    0.3784 H   0  0  0  0  0  0  0  0  0  0  0  0
   -3.8454   -0.3699    0.9458 H   0  0  0  0  0  0  0  0  0  0  0  0
   -3.4787    0.9613   -3.1117 H   0  0  0  0  0  0  0  0  0  0  0  0
   -5.9049    0.7270   -3.3974 H   0  0  0  0  0  0  0  0  0  0  0  0
   -7.3137   -0.0520   -1.5409 H   0  0  0  0  0  0  0  0  0  0  0  0
   -7.6882   -1.9131   -0.1920 H   0  0  0  0  0  0  0  0  0  0  0  0
   -6.5357   -0.6764    3.9337 H   0  0  0  0  0  0  0  0  0  0  0  0
   -8.1609   -1.8128    1.4206 H   0  0  0  0  0  0  0  0  0  0  0  0
  4  2  1  0
  3  2  1  0
  2  1  1  0
  2  5  1  1
 13 12  1  0
  5  6  1  0
 12 10  1  0
 11 10  2  0
  7  6  2  0
 10  9  1  0
  6  8  1  0
  8  9  1  0
  9 14  1  0
 14 15  2  0
 14 17  1  0
 15 16  1  0
 17 18  2  0
 16 19  2  0
 18 19  1  0
 19 20  1  0
 20 22  1  0
 20 21  2  0
 22 23  2  0
 21 25  1  0
 23 24  1  0
 25 24  2  0
 25 26  1  0
 26 28  2  0
 26 27  1  0
 28 29  1  0
  1 30  1  0
  1 31  1  0
  1 32  1  0
  3 33  1  0
  3 34  1  0
  3 35  1  0
  4 36  1  0
  4 37  1  0
  4 38  1  0
  8 39  1  0
  9 40  1  6
 12 41  1  0
 13 42  1  0
 15 43  1  0
 16 44  1  0
 17 45  1  0
 18 46  1  0
 21 47  1  0
 22 48  1  0
 23 49  1  0
 24 50  1  0
 27 51  1  0
 29 52  1  0
 27 53  1  0
M  END
