
     RDKit          3D

 30 30  0  0  0  0  0  0  0  0999 V2000
   -1.7763    2.2878   -1.5676 O   0  0  0  0  0  0  0  0  0  0  0  0
   -0.4153    2.2524   -1.5740 C   0  0  1  0  0  0  0  0  0  0  0  0
    0.0862    2.3001   -0.1407 C   0  0  0  0  0  0  0  0  0  0  0  0
   -0.2526    1.0715    0.6070 C   0  0  2  0  0  0  0  0  0  0  0  0
   -1.6480    1.0127    0.7811 O   0  0  0  0  0  0  0  0  0  0  0  0
    0.4550    1.1285    2.0374 C   0  0  0  0  0  0  0  0  0  0  0  0
    0.1999   -0.1659   -0.1094 C   0  0  1  0  0  0  0  0  0  0  0  0
   -0.2964   -1.3123    0.5888 O   0  0  0  0  0  0  0  0  0  0  0  0
    0.3354   -3.4395    1.8247 C   0  0  0  0  0  0  0  0  0  0  0  0
    0.7102   -2.1709    1.0583 C   0  0  0  0  0  0  0  0  0  0  0  0
    1.8467   -1.9475    0.8020 O   0  0  0  0  0  0  0  0  0  0  0  0
   -0.3025   -0.2098   -1.5511 C   0  0  1  0  0  0  0  0  0  0  0  0
    0.0368    1.0095   -2.2910 O   0  0  0  0  0  0  0  0  0  0  0  0
    0.3169   -1.3902   -2.2479 C   0  0  0  0  0  0  0  0  0  0  0  0
   -2.0773    2.9410   -2.1814 H   0  0  0  0  0  0  0  0  0  0  0  0
   -0.0383    3.1187   -2.1053 H   0  0  0  0  0  0  0  0  0  0  0  0
   -0.3628    3.1494    0.3590 H   0  0  0  0  0  0  0  0  0  0  0  0
    1.1654    2.4193   -0.1499 H   0  0  0  0  0  0  0  0  0  0  0  0
   -1.8679    1.2841    1.6609 H   0  0  0  0  0  0  0  0  0  0  0  0
    1.5258    0.9762    1.9190 H   0  0  0  0  0  0  0  0  0  0  0  0
    0.2750    2.1012    2.4924 H   0  0  0  0  0  0  0  0  0  0  0  0
    0.0455    0.3477    2.6765 H   0  0  0  0  0  0  0  0  0  0  0  0
    1.2803   -0.1919   -0.1149 H   0  0  0  0  0  0  0  0  0  0  0  0
   -0.6843   -3.3589    2.1796 H   0  0  0  0  0  0  0  0  0  0  0  0
    0.4228   -4.2998    1.1657 H   0  0  0  0  0  0  0  0  0  0  0  0
    1.0060   -3.5625    2.6730 H   0  0  0  0  0  0  0  0  0  0  0  0
   -1.3793   -0.3251   -1.5427 H   0  0  0  0  0  0  0  0  0  0  0  0
    0.0526   -1.3679   -3.3048 H   0  0  0  0  0  0  0  0  0  0  0  0
   -0.0534   -2.3118   -1.8003 H   0  0  0  0  0  0  0  0  0  0  0  0
    1.3939   -1.3459   -2.1442 H   0  0  0  0  0  0  0  0  0  0  0  0
  1  2  1  0
  1 15  1  0
  2  3  1  0
  2 13  1  0
  2 16  1  6
  3  4  1  0
  3 17  1  0
  3 18  1  0
  4  5  1  1
  4  6  1  0
  4  7  1  0
  5 19  1  0
  6 20  1  0
  6 21  1  0
  6 22  1  0
  7  8  1  0
  7 12  1  0
  7 23  1  6
  8 10  1  0
  9 10  1  0
  9 24  1  0
  9 25  1  0
  9 26  1  0
 10 11  2  0
 12 13  1  0
 12 14  1  0
 12 27  1  1
 14 28  1  0
 14 29  1  0
 14 30  1  0
M  END
