
     RDKit          3D

 45 48  0  0  0  0  0  0  0  0999 V2000
   -0.5964    1.4567    0.3352 N   0  0  0  0  0  0  0  0  0  0  0  0
   -1.2899   -0.6619   -0.4168 N   0  0  0  0  0  0  0  0  0  0  0  0
    0.4830    3.3909    0.9967 N   0  0  0  0  0  0  0  0  0  0  0  0
   -7.4978   -1.4208    1.1933 N   0  0  0  0  0  0  0  0  0  0  0  0
    1.7418    1.4355    0.2974 C   0  0  0  0  0  0  0  0  0  0  0  0
    0.5568    2.1385    0.5580 C   0  0  0  0  0  0  0  0  0  0  0  0
   -0.3539    0.2579   -0.1064 C   0  0  0  0  0  0  0  0  0  0  0  0
   -2.6740   -0.5760   -0.3422 C   0  0  0  0  0  0  0  0  0  0  0  0
    3.0600    1.9594    0.3946 C   0  0  0  0  0  0  0  0  0  0  0  0
    4.2203    1.0677    0.0998 C   0  0  0  0  0  0  0  0  0  0  0  0
    5.2662    1.5687   -0.7136 C   0  0  0  0  0  0  0  0  0  0  0  0
    6.3662    0.8047   -0.9771 C   0  0  0  0  0  0  0  0  0  0  0  0
    6.5027   -0.4896   -0.4199 C   0  0  0  0  0  0  0  0  0  0  0  0
    5.4716   -0.9850    0.4178 C   0  0  0  0  0  0  0  0  0  0  0  0
    4.3332   -0.1811    0.6567 C   0  0  0  0  0  0  0  0  0  0  0  0
   -3.3846   -1.7269   -0.7082 C   0  0  0  0  0  0  0  0  0  0  0  0
   -4.7607   -1.7465   -0.6714 C   0  0  0  0  0  0  0  0  0  0  0  0
   -5.4502   -0.6072   -0.2701 C   0  0  0  0  0  0  0  0  0  0  0  0
   -4.7609    0.5388    0.0904 C   0  0  0  0  0  0  0  0  0  0  0  0
   -3.3756    0.5614    0.0607 C   0  0  0  0  0  0  0  0  0  0  0  0
    7.6362   -1.2979   -0.6647 C   0  0  0  0  0  0  0  0  0  0  0  0
    7.7399   -2.5399   -0.0985 C   0  0  0  0  0  0  0  0  0  0  0  0
    6.7161   -3.0308    0.7388 C   0  0  0  0  0  0  0  0  0  0  0  0
    5.6073   -2.2701    0.9926 C   0  0  0  0  0  0  0  0  0  0  0  0
    3.2763    3.1381    0.6920 O   0  0  0  0  0  0  0  0  0  0  0  0
   -7.7016   -1.5312   -1.2750 O   0  0  0  0  0  0  0  0  0  0  0  0
   -7.6851    0.7404   -0.2256 O   0  0  0  0  0  0  0  0  0  0  0  0
    1.3188   -0.1634   -0.2910 S   0  0  0  0  0  0  0  0  0  0  0  0
   -7.2118   -0.6377   -0.2345 S   0  0  1  0  0  0  0  0  0  0  0  0
   -0.9414   -1.5513   -0.7439 H   0  0  0  0  0  0  0  0  0  0  0  0
   -0.4127    3.8223    1.1451 H   0  0  0  0  0  0  0  0  0  0  0  0
    1.3248    3.9243    1.1336 H   0  0  0  0  0  0  0  0  0  0  0  0
   -7.3292   -0.8320    2.0027 H   0  0  0  0  0  0  0  0  0  0  0  0
   -8.4415   -1.7961    1.2260 H   0  0  0  0  0  0  0  0  0  0  0  0
    5.1812    2.5597   -1.1398 H   0  0  0  0  0  0  0  0  0  0  0  0
    7.1542    1.1888   -1.6134 H   0  0  0  0  0  0  0  0  0  0  0  0
    3.5663   -0.5651    1.3200 H   0  0  0  0  0  0  0  0  0  0  0  0
   -2.8511   -2.6131   -1.0280 H   0  0  0  0  0  0  0  0  0  0  0  0
   -5.2853   -2.6465   -0.9619 H   0  0  0  0  0  0  0  0  0  0  0  0
   -5.2888    1.4303    0.4000 H   0  0  0  0  0  0  0  0  0  0  0  0
   -2.8550    1.4597    0.3480 H   0  0  0  0  0  0  0  0  0  0  0  0
    8.4240   -0.9192   -1.3047 H   0  0  0  0  0  0  0  0  0  0  0  0
    8.6105   -3.1530   -0.2914 H   0  0  0  0  0  0  0  0  0  0  0  0
    6.8127   -4.0142    1.1796 H   0  0  0  0  0  0  0  0  0  0  0  0
    4.8187   -2.6463    1.6330 H   0  0  0  0  0  0  0  0  0  0  0  0
  6  1  1  0
  1  7  2  0
  7  2  1  0
  2  8  1  0
  2 30  1  0
  3  6  1  0
  3 31  1  0
  3 32  1  0
 29  4  1  1
  4 33  1  0
  4 34  1  0
  6  5  2  0
  9  5  1  0
  5 28  1  0
  7 28  1  0
  8 16  2  0
  8 20  1  0
 25  9  2  0
  9 10  1  0
 10 11  2  0
 10 15  1  0
 11 12  1  0
 11 35  1  0
 12 13  2  0
 12 36  1  0
 14 13  1  0
 13 21  1  0
 15 14  2  0
 14 24  1  0
 15 37  1  0
 16 17  1  0
 16 38  1  0
 17 18  2  0
 17 39  1  0
 19 18  1  0
 18 29  1  0
 20 19  2  0
 19 40  1  0
 20 41  1  0
 21 22  2  0
 21 42  1  0
 23 22  1  0
 22 43  1  0
 24 23  2  0
 23 44  1  0
 24 45  1  0
 26 29  2  0
 29 27  2  0
M  END
