
     RDKit          3D

 28 29  0  0  0  0  0  0  0  0999 V2000
    1.3422    1.2265    1.2827 N   0  0  0  0  0  0  0  0  0  0  0  0
    0.2026    0.5650    1.8685 C   0  0  1  0  0  0  0  0  0  0  0  0
   -0.3577   -0.6594    1.0728 C   0  0  1  0  0  0  0  0  0  0  0  0
   -1.4126   -1.2697    1.7938 O   0  0  0  0  0  0  0  0  0  0  0  0
   -0.7671   -0.2353   -0.2826 C   0  0  0  0  0  0  0  0  0  0  0  0
   -2.0104    0.2673   -0.6705 C   0  0  0  0  0  0  0  0  0  0  0  0
   -2.0082    0.5542   -2.0346 N   0  0  0  0  0  0  0  0  0  0  0  0
   -0.7486    0.2369   -2.5515 C   0  0  0  0  0  0  0  0  0  0  0  0
   -0.2381    0.3390   -3.8555 C   0  0  0  0  0  0  0  0  0  0  0  0
    1.0723   -0.0599   -4.0670 C   0  0  0  0  0  0  0  0  0  0  0  0
    1.8723   -0.5515   -3.0191 C   0  0  0  0  0  0  0  0  0  0  0  0
    1.3823   -0.6581   -1.7270 C   0  0  0  0  0  0  0  0  0  0  0  0
    0.0664   -0.2675   -1.4674 C   0  0  0  0  0  0  0  0  0  0  0  0
    0.5066    0.0791    3.2742 C   0  0  0  0  0  0  0  0  0  0  0  0
    1.5229   -0.4535    3.7200 O   0  0  0  0  0  0  0  0  0  0  0  0
   -0.5289    0.2843    4.1348 O   0  0  0  0  0  0  0  0  0  0  0  0
    1.0397    1.8487    0.5564 H   0  0  0  0  0  0  0  0  0  0  0  0
    1.9955    0.5629    0.9129 H   0  0  0  0  0  0  0  0  0  0  0  0
   -0.6275    1.3327    1.9410 H   0  0  0  0  0  0  0  0  0  0  0  0
    0.4284   -1.4682    1.0027 H   0  0  0  0  0  0  0  0  0  0  0  0
   -2.0179   -0.5726    2.0783 H   0  0  0  0  0  0  0  0  0  0  0  0
   -2.9010    0.4407   -0.0630 H   0  0  0  0  0  0  0  0  0  0  0  0
   -2.7635    0.9187   -2.5513 H   0  0  0  0  0  0  0  0  0  0  0  0
   -0.8569    0.7218   -4.6778 H   0  0  0  0  0  0  0  0  0  0  0  0
    1.5017    0.0081   -5.0786 H   0  0  0  0  0  0  0  0  0  0  0  0
    2.9067   -0.8556   -3.2372 H   0  0  0  0  0  0  0  0  0  0  0  0
    2.0148   -1.0436   -0.9138 H   0  0  0  0  0  0  0  0  0  0  0  0
   -0.2889   -0.0410    5.0176 H   0  0  0  0  0  0  0  0  0  0  0  0
  1  2  1  0
  1 17  1  0
  1 18  1  0
  2  3  1  0
  2 14  1  0
  2 19  1  1
  3  4  1  0
  3  5  1  0
  3 20  1  6
  4 21  1  0
  5  6  2  0
  5 13  1  0
  6  7  1  0
  6 22  1  0
  7  8  1  0
  7 23  1  0
  8  9  1  0
  8 13  2  0
  9 10  2  0
  9 24  1  0
 10 11  1  0
 10 25  1  0
 11 12  2  0
 11 26  1  0
 12 13  1  0
 12 27  1  0
 14 15  2  0
 14 16  1  0
 16 28  1  0
M  END
