
     RDKit          3D

 66 71  0  0  0  0  0  0  0  0999 V2000
    0.5876    0.3722   -2.0771 C   0  0  0  0  0  0  0  0  0  0  0  0
    1.6328    1.2258   -1.4701 C   0  0  0  0  0  0  0  0  0  0  0  0
    3.6534    1.6094   -0.1831 C   0  0  0  0  0  0  0  0  0  0  0  0
    2.6848    0.7476   -0.6828 C   0  0  0  0  0  0  0  0  0  0  0  0
    3.2832   -0.6174    2.3754 C   0  0  0  0  0  0  0  0  0  0  0  0
    3.7648   -1.5908    3.4334 C   0  0  0  0  0  0  0  0  0  0  0  0
    5.7066   -2.5535    4.4620 C   0  0  0  0  0  0  0  0  0  0  0  0
   -1.7294   -0.2000   -2.3851 C   0  0  0  0  0  0  0  0  0  0  0  0
   -3.1132   -0.0816   -2.1114 C   0  0  0  0  0  0  0  0  0  0  0  0
   -2.3280   -1.9362   -3.9475 N   0  0  0  0  0  0  0  0  0  0  0  0
    0.9284   -0.6000   -3.0473 C   0  0  0  0  0  0  0  0  0  0  0  0
   -3.5731   -1.7248   -3.6008 C   0  0  0  0  0  0  0  0  0  0  0  0
   -4.2808   -0.8105    0.3920 C   0  0  0  0  0  0  0  0  0  0  0  0
   -4.7205    1.5389    0.9130 C   0  0  0  0  0  0  0  0  0  0  0  0
   -5.1184    0.6590    2.0551 C   0  0  0  0  0  0  0  0  0  0  0  0
    3.7687   -1.0550    1.0716 N   0  0  0  0  0  0  0  0  0  0  0  0
    1.5652    2.5974   -1.7042 C   0  0  0  0  0  0  0  0  0  0  0  0
    2.5164    3.4515   -1.1934 C   0  0  0  0  0  0  0  0  0  0  0  0
    3.5684    2.9572   -0.4435 C   0  0  0  0  0  0  0  0  0  0  0  0
    2.8059   -0.9814   -0.2460 S   0  0  1  0  0  0  0  0  0  0  0  0
    1.4814   -1.4188    0.1290 O   0  0  0  0  0  0  0  0  0  0  0  0
    3.5210   -1.6580   -1.3220 O   0  0  0  0  0  0  0  0  0  0  0  0
    2.4281    4.7609   -1.4143 F   0  0  0  0  0  0  0  0  0  0  0  0
    4.4835    3.7961    0.0315 F   0  0  0  0  0  0  0  0  0  0  0  0
    5.2060   -1.7267    3.3879 N   0  0  0  0  0  0  0  0  0  0  0  0
    5.6346   -2.2089    2.0964 C   0  0  0  0  0  0  0  0  0  0  0  0
    5.2075   -1.2471    1.0021 C   0  0  0  0  0  0  0  0  0  0  0  0
   -4.1871    0.5783   -0.0453 N   0  0  0  0  0  0  0  0  0  0  0  0
   -3.4980    2.1574   -1.5062 O   0  0  0  0  0  0  0  0  0  0  0  0
   -1.3897   -1.1855   -3.3380 C   0  0  0  0  0  0  0  0  0  0  0  0
   -0.7306    0.5754   -1.7697 C   0  0  0  0  0  0  0  0  0  0  0  0
   -4.0132   -0.8201   -2.6878 N   0  0  0  0  0  0  0  0  0  0  0  0
   -0.0271   -1.3594   -3.6610 C   0  0  0  0  0  0  0  0  0  0  0  0
   -4.5448   -2.4565   -4.1865 N   0  0  0  0  0  0  0  0  0  0  0  0
   -4.8676   -0.6703    1.7607 C   0  0  0  0  0  0  0  0  0  0  0  0
   -5.1611   -1.6679    2.6741 C   0  0  0  0  0  0  0  0  0  0  0  0
   -5.7103   -1.3097    3.8984 C   0  0  0  0  0  0  0  0  0  0  0  0
   -5.9631    0.0249    4.1945 C   0  0  0  0  0  0  0  0  0  0  0  0
   -5.6696    1.0195    3.2730 C   0  0  0  0  0  0  0  0  0  0  0  0
    4.4788    1.2604    0.4204 H   0  0  0  0  0  0  0  0  0  0  0  0
    2.1962   -0.5845    2.3828 H   0  0  0  0  0  0  0  0  0  0  0  0
    3.6527    0.3909    2.5946 H   0  0  0  0  0  0  0  0  0  0  0  0
    3.4732   -1.2091    4.4134 H   0  0  0  0  0  0  0  0  0  0  0  0
    3.2488   -2.5550    3.2896 H   0  0  0  0  0  0  0  0  0  0  0  0
    5.3622   -3.5970    4.4091 H   0  0  0  0  0  0  0  0  0  0  0  0
    6.7970   -2.5625    4.4504 H   0  0  0  0  0  0  0  0  0  0  0  0
    5.3894   -2.1473    5.4224 H   0  0  0  0  0  0  0  0  0  0  0  0
    1.9633   -0.7212   -3.3388 H   0  0  0  0  0  0  0  0  0  0  0  0
   -4.9203   -1.3995   -0.2693 H   0  0  0  0  0  0  0  0  0  0  0  0
   -3.2987   -1.2919    0.4189 H   0  0  0  0  0  0  0  0  0  0  0  0
   -5.5669    2.0876    0.4923 H   0  0  0  0  0  0  0  0  0  0  0  0
   -3.9647    2.2777    1.1926 H   0  0  0  0  0  0  0  0  0  0  0  0
    0.7629    3.0034   -2.3058 H   0  0  0  0  0  0  0  0  0  0  0  0
    6.7253   -2.2820    2.0881 H   0  0  0  0  0  0  0  0  0  0  0  0
    5.2374   -3.2138    1.8711 H   0  0  0  0  0  0  0  0  0  0  0  0
    5.4833   -1.6436    0.0280 H   0  0  0  0  0  0  0  0  0  0  0  0
    5.7307   -0.2928    1.1437 H   0  0  0  0  0  0  0  0  0  0  0  0
   -1.0003    1.3320   -1.0430 H   0  0  0  0  0  0  0  0  0  0  0  0
    0.2419   -2.0929   -4.4087 H   0  0  0  0  0  0  0  0  0  0  0  0
   -4.3173   -3.0531   -4.9588 H   0  0  0  0  0  0  0  0  0  0  0  0
   -5.5036   -2.2130   -4.0304 H   0  0  0  0  0  0  0  0  0  0  0  0
   -4.9580   -2.7051    2.4417 H   0  0  0  0  0  0  0  0  0  0  0  0
   -5.9416   -2.0736    4.6293 H   0  0  0  0  0  0  0  0  0  0  0  0
   -6.3914    0.2913    5.1512 H   0  0  0  0  0  0  0  0  0  0  0  0
   -5.8654    2.0578    3.5078 H   0  0  0  0  0  0  0  0  0  0  0  0
   -3.6177    0.9930   -1.1827 C   0  0  0  0  0  0  0  0  0  0  0  0
 24 19  1  0
 19  3  2  0
 19 18  1  0
 23 18  1  0
  3  4  1  0
 18 17  2  0
 21 20  2  0
 22 20  2  0
 20  4  1  6
  4  2  2  0
 17  2  1  0
 20 16  1  0
  2  1  1  0
 11  1  1  0
 11 33  2  0
  1 31  2  0
 33 30  1  0
 16  5  1  0
 16 27  1  0
 31  8  1  0
 30  8  1  0
 30 10  2  0
  5  6  1  0
 27 26  1  0
  8  9  2  0
 10 12  1  0
 39 38  1  0
 39 15  2  0
 38 37  2  0
  6 25  1  0
 26 25  1  0
  9 32  1  0
  9 66  1  0
 12 32  2  0
 12 34  1  0
 15 14  1  0
 15 35  1  0
 14 28  1  0
 37 36  1  0
 25  7  1  0
 66 28  1  0
 66 29  2  0
 28 13  1  0
 35 36  2  0
 35 13  1  0
  3 40  1  0
  5 41  1  0
  5 42  1  0
  6 43  1  0
  6 44  1  0
  7 45  1  0
  7 46  1  0
  7 47  1  0
 11 48  1  0
 13 49  1  0
 13 50  1  0
 14 51  1  0
 14 52  1  0
 17 53  1  0
 26 54  1  0
 26 55  1  0
 27 56  1  0
 27 57  1  0
 31 58  1  0
 33 59  1  0
 34 60  1  0
 34 61  1  0
 36 62  1  0
 37 63  1  0
 38 64  1  0
 39 65  1  0
M  END
