
     RDKit          3D

 62 66  0  0  0  0  0  0  0  0999 V2000
    8.2834    0.3440   -0.2056 C   0  0  0  0  0  0  0  0  0  0  0  0
    7.6865   -0.8447    0.2170 C   0  0  0  0  0  0  0  0  0  0  0  0
    6.2233   -0.9692    0.2375 C   0  0  0  0  0  0  0  0  0  0  0  0
    4.1831   -0.1231    0.1180 C   0  0  0  0  0  0  0  0  0  0  0  0
    3.5117    2.2382   -0.2104 C   0  0  0  0  0  0  0  0  0  0  0  0
    0.8021    1.5401   -0.0632 C   0  0  0  0  0  0  0  0  0  0  0  0
   -1.4192    2.0591   -0.0859 C   0  0  0  0  0  0  0  0  0  0  0  0
   -3.3258    0.4600   -0.0034 C   0  0  0  0  0  0  0  0  0  0  0  0
   -7.0176   -0.7883    0.0529 C   0  0  1  0  0  0  0  0  0  0  0  0
   -7.6827   -2.1352   -0.2495 C   0  0  0  0  0  0  0  0  0  0  0  0
   -9.2026   -2.0636   -0.1463 C   0  0  0  0  0  0  0  0  0  0  0  0
   -9.0086   -0.2125    1.5243 C   0  0  0  0  0  0  0  0  0  0  0  0
   -5.0355   -1.4985   -1.3006 C   0  0  0  0  0  0  0  0  0  0  0  0
   -9.6520   -1.5581    1.2170 C   0  0  0  0  0  0  0  0  0  0  0  0
   -7.4882   -0.2738    1.4170 C   0  0  0  0  0  0  0  0  0  0  0  0
   -5.4739   -0.8765    0.0057 C   0  0  1  0  0  0  0  0  0  0  0  0
   -4.7091   -2.7792   -1.1903 O   0  0  0  0  0  0  0  0  0  0  0  0
   -4.8317    0.5002    0.1430 C   0  0  0  0  0  0  0  0  0  0  0  0
   -2.7054   -0.5755   -0.1032 O   0  0  0  0  0  0  0  0  0  0  0  0
   -2.7578    1.7061   -0.0043 N   0  0  0  0  0  0  0  0  0  0  0  0
   -1.1436    3.4449   -0.2724 C   0  0  0  0  0  0  0  0  0  0  0  0
    0.1524    3.8451   -0.3536 C   0  0  0  0  0  0  0  0  0  0  0  0
   -0.4930    1.1520    0.0189 N   0  0  0  0  0  0  0  0  0  0  0  0
    1.8008    0.5541    0.0550 C   0  0  0  0  0  0  0  0  0  0  0  0
    1.1879    2.8864   -0.2523 C   0  0  0  0  0  0  0  0  0  0  0  0
    2.5582    3.2100   -0.3266 C   0  0  0  0  0  0  0  0  0  0  0  0
    3.1346    0.8877   -0.0132 C   0  0  0  0  0  0  0  0  0  0  0  0
    5.4498    0.1438    0.0779 N   0  0  0  0  0  0  0  0  0  0  0  0
    3.8380   -1.8039    0.3556 S   0  0  0  0  0  0  0  0  0  0  0  0
    5.5127   -2.1254    0.3982 C   0  0  0  0  0  0  0  0  0  0  0  0
    8.5078   -1.9013    0.6151 C   0  0  0  0  0  0  0  0  0  0  0  0
    9.8874   -1.7757    0.5830 C   0  0  0  0  0  0  0  0  0  0  0  0
   10.4733   -0.5899    0.1568 C   0  0  0  0  0  0  0  0  0  0  0  0
    9.6648    0.4680   -0.2360 C   0  0  0  0  0  0  0  0  0  0  0  0
    7.6635    1.1747   -0.5155 H   0  0  0  0  0  0  0  0  0  0  0  0
    4.5609    2.4921   -0.2690 H   0  0  0  0  0  0  0  0  0  0  0  0
   -7.3358   -0.0704   -0.7146 H   0  0  0  0  0  0  0  0  0  0  0  0
   -7.4202   -2.4837   -1.2513 H   0  0  0  0  0  0  0  0  0  0  0  0
   -7.3031   -2.8885    0.4506 H   0  0  0  0  0  0  0  0  0  0  0  0
   -9.5859   -1.3951   -0.9252 H   0  0  0  0  0  0  0  0  0  0  0  0
   -9.6284   -3.0490   -0.3503 H   0  0  0  0  0  0  0  0  0  0  0  0
   -9.3898    0.5395    0.8250 H   0  0  0  0  0  0  0  0  0  0  0  0
   -9.2889    0.1273    2.5242 H   0  0  0  0  0  0  0  0  0  0  0  0
  -10.7410   -1.4749    1.2524 H   0  0  0  0  0  0  0  0  0  0  0  0
   -9.3708   -2.2842    1.9878 H   0  0  0  0  0  0  0  0  0  0  0  0
   -7.0913   -0.9343    2.1975 H   0  0  0  0  0  0  0  0  0  0  0  0
   -7.0816    0.7196    1.6170 H   0  0  0  0  0  0  0  0  0  0  0  0
   -5.1457   -1.5141    0.8310 H   0  0  0  0  0  0  0  0  0  0  0  0
   -4.4782   -3.1364   -2.0612 H   0  0  0  0  0  0  0  0  0  0  0  0
   -5.0557    0.9187    1.1267 H   0  0  0  0  0  0  0  0  0  0  0  0
   -5.2553    1.1977   -0.5853 H   0  0  0  0  0  0  0  0  0  0  0  0
   -3.4030    2.4812    0.0216 H   0  0  0  0  0  0  0  0  0  0  0  0
   -1.9540    4.1580   -0.3501 H   0  0  0  0  0  0  0  0  0  0  0  0
    0.3965    4.8901   -0.4970 H   0  0  0  0  0  0  0  0  0  0  0  0
    1.4744   -0.4686    0.2051 H   0  0  0  0  0  0  0  0  0  0  0  0
    2.8497    4.2421   -0.4776 H   0  0  0  0  0  0  0  0  0  0  0  0
    5.8765   -3.1323    0.5288 H   0  0  0  0  0  0  0  0  0  0  0  0
    8.0742   -2.8293    0.9659 H   0  0  0  0  0  0  0  0  0  0  0  0
   10.5064   -2.6058    0.8980 H   0  0  0  0  0  0  0  0  0  0  0  0
   11.5507   -0.4917    0.1334 H   0  0  0  0  0  0  0  0  0  0  0  0
   10.1095    1.3962   -0.5704 H   0  0  0  0  0  0  0  0  0  0  0  0
   -5.0222   -0.9036   -2.3520 O   0  0  0  0  0  0  0  0  0  0  0  0
  1  2  2  0
  1 34  1  0
  2  3  1  0
  2 31  1  0
  3 28  1  0
  3 30  2  0
  4 27  1  0
  4 28  2  0
  4 29  1  0
  5 26  2  0
  5 27  1  0
  6 23  1  0
  6 24  1  0
  6 25  2  0
  7 20  1  0
  7 21  1  0
  7 23  2  0
  8 18  1  0
  8 19  2  0
  8 20  1  0
  9 10  1  0
  9 15  1  0
  9 16  1  0
 10 11  1  0
 11 14  1  0
 12 14  1  0
 12 15  1  0
 13 16  1  0
 13 62  2  0
 13 17  1  0
 16 18  1  0
 21 22  2  0
 22 25  1  0
 24 27  2  0
 25 26  1  0
 29 30  1  0
 31 32  2  0
 32 33  1  0
 33 34  2  0
  1 35  1  0
  5 36  1  0
  9 37  1  6
 10 38  1  0
 10 39  1  0
 11 40  1  0
 11 41  1  0
 12 42  1  0
 12 43  1  0
 14 44  1  0
 14 45  1  0
 15 46  1  0
 15 47  1  0
 16 48  1  1
 17 49  1  0
 18 50  1  0
 18 51  1  0
 20 52  1  0
 21 53  1  0
 22 54  1  0
 24 55  1  0
 26 56  1  0
 30 57  1  0
 31 58  1  0
 32 59  1  0
 33 60  1  0
 34 61  1  0
M  END
