
     RDKit          3D

 21 20  0  0  0  0  0  0  0  0999 V2000
   -1.6265   -0.3295    0.0075 C   0  0  0  0  0  0  0  0  0  0  0  0
   -2.8198    0.4282    0.0700 O   0  0  0  0  0  0  0  0  0  0  0  0
    0.9438   -0.0110    0.0028 C   0  0  1  0  0  0  0  0  0  0  0  0
    1.1680   -0.8858    1.2388 C   0  0  0  0  0  0  0  0  0  0  0  0
    1.1412   -0.8527   -1.2602 C   0  0  0  0  0  0  0  0  0  0  0  0
   -0.4526    0.6329    0.0279 C   0  0  0  0  0  0  0  0  0  0  0  0
    1.9791    1.1153    0.0079 C   0  0  0  0  0  0  0  0  0  0  0  0
   -1.5599   -1.0230    0.8543 H   0  0  0  0  0  0  0  0  0  0  0  0
   -1.5978   -0.9386   -0.9042 H   0  0  0  0  0  0  0  0  0  0  0  0
   -3.5611   -0.1828    0.0438 H   0  0  0  0  0  0  0  0  0  0  0  0
   -0.5421    1.3097   -0.8297 H   0  0  0  0  0  0  0  0  0  0  0  0
   -0.5306    1.2586    0.9247 H   0  0  0  0  0  0  0  0  0  0  0  0
    0.4655   -1.7093   -1.2954 H   0  0  0  0  0  0  0  0  0  0  0  0
    0.9760   -0.2602   -2.1632 H   0  0  0  0  0  0  0  0  0  0  0  0
    2.1602   -1.2433   -1.3060 H   0  0  0  0  0  0  0  0  0  0  0  0
    1.8666    1.7605   -0.8661 H   0  0  0  0  0  0  0  0  0  0  0  0
    1.8781    1.7418    0.8969 H   0  0  0  0  0  0  0  0  0  0  0  0
    2.9945    0.7134   -0.0032 H   0  0  0  0  0  0  0  0  0  0  0  0
    2.1877   -1.2770    1.2527 H   0  0  0  0  0  0  0  0  0  0  0  0
    1.0226   -0.3158    2.1594 H   0  0  0  0  0  0  0  0  0  0  0  0
    0.4936   -1.7434    1.2683 H   0  0  0  0  0  0  0  0  0  0  0  0
  1  2  1  0
  1  6  1  0
  3  5  1  6
  3  4  1  0
  3  7  1  0
  3  6  1  0
  1  8  1  0
  1  9  1  0
  2 10  1  0
  6 11  1  0
  6 12  1  0
  5 13  1  0
  5 14  1  0
  5 15  1  0
  4 19  1  0
  4 20  1  0
  4 21  1  0
  7 16  1  0
  7 17  1  0
  7 18  1  0
M  END
