
     RDKit          3D

 52 55  0  0  0  0  0  0  0  0999 V2000
   -5.9494   -0.7113   -2.6900 C   0  0  0  0  0  0  0  0  0  0  0  0
   -5.3639   -0.7668   -1.4142 O   0  0  0  0  0  0  0  0  0  0  0  0
   -6.0287    0.0388   -0.4810 C   0  0  0  0  0  0  0  0  0  0  0  0
   -5.2877   -0.0135    0.8390 C   0  0  0  0  0  0  0  0  0  0  0  0
   -3.9132    0.4465    0.7158 N   0  0  0  0  0  0  0  0  0  0  0  0
   -3.6088    1.7842    0.6751 C   0  0  0  0  0  0  0  0  0  0  0  0
   -4.4285    2.6690    0.7900 O   0  0  0  0  0  0  0  0  0  0  0  0
   -2.1607    1.9785    0.4748 C   0  0  0  0  0  0  0  0  0  0  0  0
   -1.6128    3.2051    0.3980 C   0  0  0  0  0  0  0  0  0  0  0  0
   -0.2325    3.4881    0.2097 C   0  0  0  0  0  0  0  0  0  0  0  0
    0.4785    4.6513    0.0850 C   0  0  0  0  0  0  0  0  0  0  0  0
    1.8312    4.2781   -0.0858 C   0  0  0  0  0  0  0  0  0  0  0  0
    1.8638    2.9112   -0.0520 C   0  0  0  0  0  0  0  0  0  0  0  0
    0.6167    2.4410    0.1242 O   0  0  0  0  0  0  0  0  0  0  0  0
    2.9167    1.9216   -0.1521 C   0  0  0  0  0  0  0  0  0  0  0  0
    4.2372    2.2890   -0.4125 C   0  0  0  0  0  0  0  0  0  0  0  0
    5.2255    1.3287   -0.5055 C   0  0  0  0  0  0  0  0  0  0  0  0
    4.9151   -0.0171   -0.3568 C   0  0  0  0  0  0  0  0  0  0  0  0
    6.2103   -1.1497   -0.4578 Cl  0  0  0  0  0  0  0  0  0  0  0  0
    3.6039   -0.4108   -0.0892 C   0  0  0  0  0  0  0  0  0  0  0  0
    2.6249    0.5708    0.0162 C   0  0  0  0  0  0  0  0  0  0  0  0
    3.1858   -1.8362    0.0345 C   0  0  0  0  0  0  0  0  0  0  0  0
    3.7067   -2.7551   -0.5423 O   0  0  0  0  0  0  0  0  0  0  0  0
    2.1418   -1.9627    0.8392 O   0  0  0  0  0  0  0  0  0  0  0  0
   -1.3391    0.4398    0.3427 S   0  0  0  0  0  0  0  0  0  0  0  0
   -2.8649   -0.4324    0.5665 C   0  0  0  0  0  0  0  0  0  0  0  0
   -2.9941   -1.6834    0.6349 N   0  0  0  0  0  0  0  0  0  0  0  0
   -1.9122   -2.5360    0.4168 C   0  0  0  0  0  0  0  0  0  0  0  0
   -1.4931   -3.3865    1.4404 C   0  0  0  0  0  0  0  0  0  0  0  0
   -0.4653   -4.2910    1.2196 C   0  0  0  0  0  0  0  0  0  0  0  0
    0.1525   -4.3682   -0.0251 C   0  0  0  0  0  0  0  0  0  0  0  0
   -0.2669   -3.5243   -1.0475 C   0  0  0  0  0  0  0  0  0  0  0  0
   -1.2902   -2.6133   -0.8321 C   0  0  0  0  0  0  0  0  0  0  0  0
   -5.3698   -1.3517   -3.3538 H   0  0  0  0  0  0  0  0  0  0  0  0
   -6.9863   -1.0678   -2.6843 H   0  0  0  0  0  0  0  0  0  0  0  0
   -5.9463    0.3061   -3.0994 H   0  0  0  0  0  0  0  0  0  0  0  0
   -6.0978    1.0768   -0.8337 H   0  0  0  0  0  0  0  0  0  0  0  0
   -7.0578   -0.3057   -0.3062 H   0  0  0  0  0  0  0  0  0  0  0  0
   -5.7999    0.6142    1.5669 H   0  0  0  0  0  0  0  0  0  0  0  0
   -5.2632   -1.0276    1.2318 H   0  0  0  0  0  0  0  0  0  0  0  0
   -2.2705    4.0614    0.4855 H   0  0  0  0  0  0  0  0  0  0  0  0
    0.0749    5.6505    0.1151 H   0  0  0  0  0  0  0  0  0  0  0  0
    2.6725    4.9399   -0.2106 H   0  0  0  0  0  0  0  0  0  0  0  0
    4.5053    3.3286   -0.5476 H   0  0  0  0  0  0  0  0  0  0  0  0
    6.2463    1.6266   -0.6996 H   0  0  0  0  0  0  0  0  0  0  0  0
    1.6110    0.2638    0.2247 H   0  0  0  0  0  0  0  0  0  0  0  0
    1.7873   -2.8666    0.8026 H   0  0  0  0  0  0  0  0  0  0  0  0
   -1.9816   -3.3377    2.4051 H   0  0  0  0  0  0  0  0  0  0  0  0
   -0.1498   -4.9458    2.0217 H   0  0  0  0  0  0  0  0  0  0  0  0
    0.9384   -5.0924   -0.1989 H   0  0  0  0  0  0  0  0  0  0  0  0
    0.2006   -3.5789   -2.0220 H   0  0  0  0  0  0  0  0  0  0  0  0
   -1.6287   -1.9791   -1.6420 H   0  0  0  0  0  0  0  0  0  0  0  0
  1  2  1  0
  1 34  1  0
  1 35  1  0
  1 36  1  0
  2  3  1  0
  3  4  1  0
  3 37  1  0
  3 38  1  0
  4  5  1  0
  4 39  1  0
  4 40  1  0
  5  6  1  0
  5 26  1  0
  6  7  2  0
  6  8  1  0
  8  9  2  0
  8 25  1  0
  9 10  1  0
  9 41  1  0
 10 11  2  0
 10 14  1  0
 11 12  1  0
 11 42  1  0
 12 13  2  0
 12 43  1  0
 13 14  1  0
 13 15  1  0
 15 16  2  0
 15 21  1  0
 16 17  1  0
 16 44  1  0
 17 18  2  0
 17 45  1  0
 18 19  1  0
 18 20  1  0
 20 21  2  0
 20 22  1  0
 21 46  1  0
 22 23  2  0
 22 24  1  0
 24 47  1  0
 25 26  1  0
 26 27  2  0
 27 28  1  0
 28 29  2  0
 28 33  1  0
 29 30  1  0
 29 48  1  0
 30 31  2  0
 30 49  1  0
 31 32  1  0
 31 50  1  0
 32 33  2  0
 32 51  1  0
 33 52  1  0
M  END
