
     RDKit          3D

 63 64  0  0  0  0  0  0  0  0999 V2000
   -5.7740   -2.3610    1.5426 C   0  0  0  0  0  0  0  0  0  0  0  0
   -5.8306   -3.6527    2.0496 C   0  0  0  0  0  0  0  0  0  0  0  0
   -5.3405   -4.7160    1.3031 C   0  0  0  0  0  0  0  0  0  0  0  0
   -4.7938   -4.4801    0.0479 C   0  0  0  0  0  0  0  0  0  0  0  0
   -4.7388   -3.1876   -0.4554 C   0  0  0  0  0  0  0  0  0  0  0  0
   -5.2307   -2.1148    0.2848 C   0  0  0  0  0  0  0  0  0  0  0  0
   -5.1370   -0.7113   -0.2490 C   0  0  0  0  0  0  0  0  0  0  0  0
   -3.7644   -0.1265    0.0756 C   0  0  0  0  0  0  0  0  0  0  0  0
   -3.5758    1.5261   -0.5874 S   0  0  1  0  0  0  0  0  0  0  0  0
   -3.5976    1.4309   -2.0403 O   0  0  0  0  0  0  0  0  0  0  0  0
   -4.5318    2.3884    0.0908 O   0  0  0  0  0  0  0  0  0  0  0  0
   -2.0848    2.0427   -0.1489 N   0  0  0  0  0  0  0  0  0  0  0  0
   -0.8674    1.7670   -0.8908 C   0  0  1  0  0  0  0  0  0  0  0  0
   -0.1996    3.0545   -1.4035 C   0  0  1  0  0  0  0  0  0  0  0  0
   -1.1153    3.7715   -2.3895 C   0  0  0  0  0  0  0  0  0  0  0  0
    0.2248    3.9973   -0.2809 C   0  0  0  0  0  0  0  0  0  0  0  0
    0.2025    0.7381    0.2063 P   0  0  2  0  0  0  0  0  0  0  0  0
   -0.3753   -0.7690    0.0890 O   0  0  0  0  0  0  0  0  0  0  0  0
    0.1469    1.1699    1.6333 O   0  0  0  0  0  0  0  0  0  0  0  0
    1.8793    0.6602   -0.4821 C   0  0  0  0  0  0  0  0  0  0  0  0
    2.8254   -0.0122    0.5165 C   0  0  2  0  0  0  0  0  0  0  0  0
    3.1143    0.9049    1.6906 C   0  0  0  0  0  0  0  0  0  0  0  0
    3.2276    2.1010    1.6044 O   0  0  0  0  0  0  0  0  0  0  0  0
    3.3073    0.2243    2.8094 O   0  0  0  0  0  0  0  0  0  0  0  0
    4.1524   -0.3839   -0.1170 C   0  0  0  0  0  0  0  0  0  0  0  0
    4.6452   -1.6762    0.0321 C   0  0  0  0  0  0  0  0  0  0  0  0
    4.8918    0.5419   -0.8462 C   0  0  0  0  0  0  0  0  0  0  0  0
    6.0953    0.1622   -1.4242 C   0  0  0  0  0  0  0  0  0  0  0  0
    6.5744   -1.1311   -1.2740 C   0  0  0  0  0  0  0  0  0  0  0  0
    5.8546   -2.0655   -0.5344 C   0  0  0  0  0  0  0  0  0  0  0  0
    6.3759   -3.4648   -0.3256 C   0  0  0  0  0  0  0  0  0  0  0  0
    6.9634   -4.0089   -1.5371 N   0  0  0  0  0  0  0  0  0  0  0  0
   -6.1617   -1.5356    2.1288 H   0  0  0  0  0  0  0  0  0  0  0  0
   -6.2619   -3.8296    3.0265 H   0  0  0  0  0  0  0  0  0  0  0  0
   -5.3882   -5.7237    1.6950 H   0  0  0  0  0  0  0  0  0  0  0  0
   -4.4141   -5.3045   -0.5421 H   0  0  0  0  0  0  0  0  0  0  0  0
   -4.3137   -3.0101   -1.4369 H   0  0  0  0  0  0  0  0  0  0  0  0
   -5.2913   -0.7119   -1.3294 H   0  0  0  0  0  0  0  0  0  0  0  0
   -5.9175   -0.0915    0.1941 H   0  0  0  0  0  0  0  0  0  0  0  0
   -3.6035   -0.0559    1.1528 H   0  0  0  0  0  0  0  0  0  0  0  0
   -2.9642   -0.7320   -0.3507 H   0  0  0  0  0  0  0  0  0  0  0  0
   -1.9970    2.3195    0.8217 H   0  0  0  0  0  0  0  0  0  0  0  0
   -1.1200    1.1556   -1.7615 H   0  0  0  0  0  0  0  0  0  0  0  0
    0.6947    2.7430   -1.9529 H   0  0  0  0  0  0  0  0  0  0  0  0
   -2.0411    4.0892   -1.9090 H   0  0  0  0  0  0  0  0  0  0  0  0
   -0.6198    4.6620   -2.7772 H   0  0  0  0  0  0  0  0  0  0  0  0
   -1.3745    3.1362   -3.2367 H   0  0  0  0  0  0  0  0  0  0  0  0
    0.9121    3.5358    0.4289 H   0  0  0  0  0  0  0  0  0  0  0  0
    0.7283    4.8699   -0.6976 H   0  0  0  0  0  0  0  0  0  0  0  0
   -0.6408    4.3597    0.2768 H   0  0  0  0  0  0  0  0  0  0  0  0
   -0.2576   -1.1954   -0.7697 H   0  0  0  0  0  0  0  0  0  0  0  0
    1.8560    0.0977   -1.4180 H   0  0  0  0  0  0  0  0  0  0  0  0
    2.2264    1.6655   -0.7212 H   0  0  0  0  0  0  0  0  0  0  0  0
    2.3724   -0.9320    0.8941 H   0  0  0  0  0  0  0  0  0  0  0  0
    3.5449    0.8289    3.5290 H   0  0  0  0  0  0  0  0  0  0  0  0
    4.0684   -2.4005    0.5977 H   0  0  0  0  0  0  0  0  0  0  0  0
    4.5366    1.5565   -0.9770 H   0  0  0  0  0  0  0  0  0  0  0  0
    6.6628    0.8829   -1.9989 H   0  0  0  0  0  0  0  0  0  0  0  0
    7.5089   -1.4209   -1.7369 H   0  0  0  0  0  0  0  0  0  0  0  0
    7.1579   -3.4324    0.4388 H   0  0  0  0  0  0  0  0  0  0  0  0
    5.5693   -4.0788    0.0968 H   0  0  0  0  0  0  0  0  0  0  0  0
    7.3937   -4.9007   -1.3297 H   0  0  0  0  0  0  0  0  0  0  0  0
    6.2327   -4.1998   -2.2113 H   0  0  0  0  0  0  0  0  0  0  0  0
  1  2  2  0
  1  6  1  0
  1 33  1  0
  2  3  1  0
  2 34  1  0
  3  4  2  0
  3 35  1  0
  4  5  1  0
  4 36  1  0
  5  6  2  0
  5 37  1  0
  6  7  1  0
  7  8  1  0
  7 38  1  0
  7 39  1  0
  8  9  1  0
  8 40  1  0
  8 41  1  0
  9 12  1  6
  9 11  2  0
  9 10  2  0
 12 13  1  0
 12 42  1  0
 13 17  1  0
 13 14  1  0
 13 43  1  6
 14 15  1  0
 14 16  1  0
 14 44  1  6
 15 45  1  0
 15 46  1  0
 15 47  1  0
 16 48  1  0
 16 49  1  0
 16 50  1  0
 17 20  1  0
 17 19  2  0
 17 18  1  1
 18 51  1  0
 20 21  1  0
 20 52  1  0
 20 53  1  0
 21 25  1  0
 21 22  1  0
 21 54  1  1
 22 23  2  0
 22 24  1  0
 24 55  1  0
 25 27  1  0
 25 26  2  0
 26 30  1  0
 26 56  1  0
 27 28  2  0
 27 57  1  0
 28 29  1  0
 28 58  1  0
 29 30  2  0
 29 59  1  0
 30 31  1  0
 31 32  1  0
 31 60  1  0
 31 61  1  0
 32 62  1  0
 32 63  1  0
M  END
