
     RDKit          3D

 61 64  0  0  0  0  0  0  0  0999 V2000
    6.7547   -2.9480    1.7454 C   0  0  0  0  0  0  0  0  0  0  0  0
    6.5005   -1.7680    0.8662 C   0  0  0  0  0  0  0  0  0  0  0  0
    5.3857   -1.0196    0.9460 C   0  0  0  0  0  0  0  0  0  0  0  0
    5.1147    0.0674    0.1563 N   0  0  0  0  0  0  0  0  0  0  0  0
    6.0106    0.4677   -0.8057 C   0  0  0  0  0  0  0  0  0  0  0  0
    5.8360    1.4169   -1.5436 O   0  0  0  0  0  0  0  0  0  0  0  0
    7.1484   -0.2965   -0.8805 N   0  0  0  0  0  0  0  0  0  0  0  0
    7.4903   -1.4007   -0.1232 C   0  0  0  0  0  0  0  0  0  0  0  0
    8.5456   -1.9805   -0.3100 O   0  0  0  0  0  0  0  0  0  0  0  0
    3.8584    0.8015    0.3745 C   0  0  1  0  0  0  0  0  0  0  0  0
    4.0501    2.2415    0.8309 C   0  0  0  0  0  0  0  0  0  0  0  0
    2.6762    2.8279    1.1362 C   0  0  0  0  0  0  0  0  0  0  0  0
    1.7345    2.6651   -0.0470 C   0  0  0  0  0  0  0  0  0  0  0  0
    1.6211    1.2677   -0.4318 N   0  0  0  0  0  0  0  0  0  0  0  0
    2.9074    0.7154   -0.8167 C   0  0  0  0  0  0  0  0  0  0  0  0
    0.6372    1.0667   -1.4780 C   0  0  0  0  0  0  0  0  0  0  0  0
   -0.7659    1.2757   -0.9757 C   0  0  0  0  0  0  0  0  0  0  0  0
   -1.5171    2.3660   -1.3941 C   0  0  0  0  0  0  0  0  0  0  0  0
   -2.7975    2.5825   -0.9165 C   0  0  0  0  0  0  0  0  0  0  0  0
   -3.3586    1.7200    0.0213 C   0  0  0  0  0  0  0  0  0  0  0  0
   -2.6131    0.6123    0.4378 C   0  0  0  0  0  0  0  0  0  0  0  0
   -1.3312    0.3847   -0.0617 C   0  0  0  0  0  0  0  0  0  0  0  0
   -0.6356   -0.6955    0.3669 O   0  0  0  0  0  0  0  0  0  0  0  0
   -0.8479   -1.8857   -0.3833 C   0  0  0  0  0  0  0  0  0  0  0  0
   -3.0797   -0.2728    1.3619 O   0  0  0  0  0  0  0  0  0  0  0  0
   -4.1472   -1.0663    1.0785 C   0  0  0  0  0  0  0  0  0  0  0  0
   -4.7419   -1.7092    2.1577 C   0  0  0  0  0  0  0  0  0  0  0  0
   -5.8100   -2.5596    1.9344 C   0  0  0  0  0  0  0  0  0  0  0  0
   -6.3028   -2.7775    0.6532 C   0  0  0  0  0  0  0  0  0  0  0  0
   -5.6884   -2.1259   -0.4011 C   0  0  0  0  0  0  0  0  0  0  0  0
   -4.6114   -1.2710   -0.2145 C   0  0  0  0  0  0  0  0  0  0  0  0
   -6.2682   -2.3808   -2.0142 Cl  0  0  0  0  0  0  0  0  0  0  0  0
   -4.6913    2.0166    0.6083 C   0  0  0  0  0  0  0  0  0  0  0  0
   -5.4477    2.7298   -0.2148 O   0  0  0  0  0  0  0  0  0  0  0  0
   -5.0487    1.6716    1.7067 O   0  0  0  0  0  0  0  0  0  0  0  0
    6.8446   -3.8668    1.1642 H   0  0  0  0  0  0  0  0  0  0  0  0
    7.6805   -2.8323    2.3103 H   0  0  0  0  0  0  0  0  0  0  0  0
    5.9433   -3.0829    2.4590 H   0  0  0  0  0  0  0  0  0  0  0  0
    4.6188   -1.2529    1.6717 H   0  0  0  0  0  0  0  0  0  0  0  0
    7.8163   -0.0012   -1.5819 H   0  0  0  0  0  0  0  0  0  0  0  0
    3.3643    0.2674    1.1893 H   0  0  0  0  0  0  0  0  0  0  0  0
    4.6906    2.2721    1.7149 H   0  0  0  0  0  0  0  0  0  0  0  0
    4.5337    2.8309    0.0512 H   0  0  0  0  0  0  0  0  0  0  0  0
    2.2458    2.3281    2.0085 H   0  0  0  0  0  0  0  0  0  0  0  0
    2.7662    3.8865    1.3852 H   0  0  0  0  0  0  0  0  0  0  0  0
    0.7455    3.0387    0.2252 H   0  0  0  0  0  0  0  0  0  0  0  0
    2.0885    3.2849   -0.8907 H   0  0  0  0  0  0  0  0  0  0  0  0
    3.3306    1.2314   -1.6903 H   0  0  0  0  0  0  0  0  0  0  0  0
    2.7692   -0.3343   -1.0874 H   0  0  0  0  0  0  0  0  0  0  0  0
    0.8072    1.7335   -2.3387 H   0  0  0  0  0  0  0  0  0  0  0  0
    0.7443    0.0482   -1.8591 H   0  0  0  0  0  0  0  0  0  0  0  0
   -1.0890    3.0618   -2.1046 H   0  0  0  0  0  0  0  0  0  0  0  0
   -3.3473    3.4483   -1.2572 H   0  0  0  0  0  0  0  0  0  0  0  0
   -1.8798   -2.2386   -0.3141 H   0  0  0  0  0  0  0  0  0  0  0  0
   -0.5988   -1.7478   -1.4386 H   0  0  0  0  0  0  0  0  0  0  0  0
   -0.1920   -2.6457    0.0357 H   0  0  0  0  0  0  0  0  0  0  0  0
   -4.3684   -1.5401    3.1589 H   0  0  0  0  0  0  0  0  0  0  0  0
   -6.2746   -3.0611    2.7726 H   0  0  0  0  0  0  0  0  0  0  0  0
   -7.1416   -3.4383    0.4870 H   0  0  0  0  0  0  0  0  0  0  0  0
   -4.1499   -0.7897   -1.0664 H   0  0  0  0  0  0  0  0  0  0  0  0
   -6.2865    2.9516    0.2169 H   0  0  0  0  0  0  0  0  0  0  0  0
  9  8  2  0
  7  8  1  0
  7  5  1  0
  8  2  1  0
  6  5  2  0
  5  4  1  0
  2  1  1  0
  2  3  2  0
 32 30  1  0
  4  3  1  0
  4 10  1  0
 30 29  2  0
 30 31  1  0
 29 28  1  0
 10 15  1  0
 10 11  1  0
 31 26  2  0
 28 27  2  0
 15 14  1  0
 11 12  1  0
 24 23  1  0
 23 22  1  0
 26 27  1  0
 26 25  1  0
 14 16  1  0
 14 13  1  0
 12 13  1  0
 25 21  1  0
 22 21  2  0
 22 17  1  0
 16 17  1  0
 21 20  1  0
 17 18  2  0
 20 33  1  0
 20 19  2  0
 18 19  1  0
 35 33  2  0
 33 34  1  0
  1 36  1  0
  1 37  1  0
  1 38  1  0
  3 39  1  0
  7 40  1  0
 10 41  1  1
 11 42  1  0
 11 43  1  0
 12 44  1  0
 12 45  1  0
 13 46  1  0
 13 47  1  0
 15 48  1  0
 15 49  1  0
 16 50  1  0
 16 51  1  0
 18 52  1  0
 19 53  1  0
 24 54  1  0
 24 55  1  0
 24 56  1  0
 27 57  1  0
 28 58  1  0
 29 59  1  0
 31 60  1  0
 34 61  1  0
M  END
