
     RDKit          3D

 42 45  0  0  0  0  0  0  0  0999 V2000
   -0.2829   -2.0918    0.2552 C   0  0  0  0  0  0  0  0  0  0  0  0
    0.3112   -1.3153   -0.7366 C   0  0  0  0  0  0  0  0  0  0  0  0
   -0.5183   -0.3326   -1.5228 C   0  0  0  0  0  0  0  0  0  0  0  0
   -2.0364    0.9165    0.0709 C   0  0  0  0  0  0  0  0  0  0  0  0
   -0.7067    2.4151    0.7900 C   0  0  0  0  0  0  0  0  0  0  0  0
    1.8345    3.1559    0.0358 C   0  0  0  0  0  0  0  0  0  0  0  0
    1.2422    2.1158   -0.6630 C   0  0  0  0  0  0  0  0  0  0  0  0
   -4.8445   -1.2990    0.8914 C   0  0  0  0  0  0  0  0  0  0  0  0
   -3.9839   -0.0610    1.0620 C   0  0  0  0  0  0  0  0  0  0  0  0
    2.4312   -2.3339   -0.2305 C   0  0  0  0  0  0  0  0  0  0  0  0
   -0.0843    3.4575    1.4663 C   0  0  0  0  0  0  0  0  0  0  0  0
    1.1956    3.8244    1.0816 C   0  0  0  0  0  0  0  0  0  0  0  0
   -0.0368    1.7667   -0.2592 C   0  0  0  0  0  0  0  0  0  0  0  0
   -3.8338    0.1205   -1.3462 C   0  0  0  0  0  0  0  0  0  0  0  0
   -4.6907   -1.1216   -1.4857 C   0  0  0  0  0  0  0  0  0  0  0  0
    1.8239   -3.0904    0.7560 C   0  0  0  0  0  0  0  0  0  0  0  0
    1.6721   -1.4444   -0.9769 C   0  0  0  0  0  0  0  0  0  0  0  0
    0.4698   -2.9793    1.0052 C   0  0  0  0  0  0  0  0  0  0  0  0
    2.5625   -3.9384    1.4732 F   0  0  0  0  0  0  0  0  0  0  0  0
   -3.0910    0.0550   -0.0840 N   0  0  0  0  0  0  0  0  0  0  0  0
   -5.5879   -1.2112   -0.3508 N   0  0  0  0  0  0  0  0  0  0  0  0
   -0.9096    0.8047   -0.7106 N   0  0  0  0  0  0  0  0  0  0  0  0
   -1.9540    1.8666    0.9612 N   0  0  0  0  0  0  0  0  0  0  0  0
    4.1212   -2.5064   -0.5138 Cl  0  0  0  0  0  0  0  0  0  0  0  0
   -1.3467   -2.0091    0.4414 H   0  0  0  0  0  0  0  0  0  0  0  0
    0.0266    0.0295   -2.3950 H   0  0  0  0  0  0  0  0  0  0  0  0
   -1.4128   -0.8216   -1.8995 H   0  0  0  0  0  0  0  0  0  0  0  0
    1.7594    1.6194   -1.4728 H   0  0  0  0  0  0  0  0  0  0  0  0
   -4.1938   -2.1869    0.9377 H   0  0  0  0  0  0  0  0  0  0  0  0
   -5.5431   -1.3610    1.7276 H   0  0  0  0  0  0  0  0  0  0  0  0
   -4.6224    0.8263    1.1598 H   0  0  0  0  0  0  0  0  0  0  0  0
   -3.3897   -0.1475    1.9707 H   0  0  0  0  0  0  0  0  0  0  0  0
   -0.5836    3.9732    2.2760 H   0  0  0  0  0  0  0  0  0  0  0  0
    1.7046    4.6299    1.5931 H   0  0  0  0  0  0  0  0  0  0  0  0
   -3.1499    0.1971   -2.1903 H   0  0  0  0  0  0  0  0  0  0  0  0
   -4.4710    1.0148   -1.3619 H   0  0  0  0  0  0  0  0  0  0  0  0
   -5.2732   -1.0506   -2.4057 H   0  0  0  0  0  0  0  0  0  0  0  0
   -4.0270   -1.9960   -1.5795 H   0  0  0  0  0  0  0  0  0  0  0  0
    2.1524   -0.8578   -1.7498 H   0  0  0  0  0  0  0  0  0  0  0  0
    0.0134   -3.5855    1.7767 H   0  0  0  0  0  0  0  0  0  0  0  0
   -6.1897   -2.0177   -0.4492 H   0  0  0  0  0  0  0  0  0  0  0  0
    3.4402    3.6484   -0.4099 Cl  0  0  0  0  0  0  0  0  0  0  0  0
 19 16  1  0
 18 16  1  0
 18  1  2  0
 21  8  1  0
 21 15  1  0
  8  9  1  0
 16 10  2  0
 15 14  1  0
  1  2  1  0
 10 24  1  0
 10 17  1  0
  9 20  1  0
 20 14  1  0
 20  4  1  0
  2 17  2  0
  2  3  1  0
  3 22  1  0
  4 22  1  0
  4 23  2  0
 22 13  1  0
 23  5  1  0
 13  5  2  0
 13  7  1  0
  5 11  1  0
  7  6  2  0
 11 12  2  0
  6 12  1  0
  6 42  1  0
  1 25  1  0
  3 26  1  0
  3 27  1  0
  7 28  1  0
  8 29  1  0
  8 30  1  0
  9 31  1  0
  9 32  1  0
 11 33  1  0
 12 34  1  0
 14 35  1  0
 14 36  1  0
 15 37  1  0
 15 38  1  0
 17 39  1  0
 18 40  1  0
 21 41  1  0
M  END
