
     RDKit          3D

 46 49  0  0  0  0  0  0  0  0999 V2000
   -1.8154   -1.4073   -1.1355 C   0  0  0  0  0  0  0  0  0  0  0  0
    3.9397   -1.4797    0.0709 C   0  0  0  0  0  0  0  0  0  0  0  0
    1.9738    2.4548   -0.8329 C   0  0  0  0  0  0  0  0  0  0  0  0
    1.0375    3.4770   -0.7941 C   0  0  0  0  0  0  0  0  0  0  0  0
    0.1504    3.5740    0.2700 C   0  0  0  0  0  0  0  0  0  0  0  0
    1.1553    1.6359    1.2875 C   0  0  0  0  0  0  0  0  0  0  0  0
   -3.7623    2.6559    0.0316 C   0  0  0  0  0  0  0  0  0  0  0  0
   -3.0257    1.5543   -0.3578 C   0  0  0  0  0  0  0  0  0  0  0  0
   -3.6361    0.2942   -0.3569 C   0  0  0  0  0  0  0  0  0  0  0  0
   -4.9880    0.1878    0.0404 C   0  0  0  0  0  0  0  0  0  0  0  0
   -5.7359    1.2977    0.4325 C   0  0  0  0  0  0  0  0  0  0  0  0
   -5.1056    2.5275    0.4233 C   0  0  0  0  0  0  0  0  0  0  0  0
   -5.3351   -1.1275   -0.0505 N   0  0  0  0  0  0  0  0  0  0  0  0
   -4.2581   -1.8501   -0.4865 C   0  0  0  0  0  0  0  0  0  0  0  0
   -3.1881   -1.0266   -0.6912 C   0  0  0  0  0  0  0  0  0  0  0  0
   -0.7909   -1.3091   -0.0028 C   0  0  0  0  0  0  0  0  0  0  0  0
    0.6186   -1.4744   -0.5218 C   0  0  0  0  0  0  0  0  0  0  0  0
    1.5328   -1.3016    0.5828 O   0  0  0  0  0  0  0  0  0  0  0  0
    2.7336   -0.8350    0.2837 C   0  0  0  0  0  0  0  0  0  0  0  0
    4.8472   -0.4297   -0.1875 C   0  0  0  0  0  0  0  0  0  0  0  0
    4.2597    0.7397   -0.1463 N   0  0  0  0  0  0  0  0  0  0  0  0
    2.9722    0.4869    0.1507 N   0  0  0  0  0  0  0  0  0  0  0  0
    2.0245    1.5373    0.2087 C   0  0  0  0  0  0  0  0  0  0  0  0
    0.2124    2.6537    1.3074 C   0  0  0  0  0  0  0  0  0  0  0  0
    3.3011   -3.7457    0.2682 O   0  0  0  0  0  0  0  0  0  0  0  0
    5.4415   -3.2209   -0.1150 O   0  0  0  0  0  0  0  0  0  0  0  0
   -1.8226   -2.4223   -1.5401 H   0  0  0  0  0  0  0  0  0  0  0  0
   -1.5029   -0.7551   -1.9587 H   0  0  0  0  0  0  0  0  0  0  0  0
    2.6564    2.3670   -1.6676 H   0  0  0  0  0  0  0  0  0  0  0  0
    0.9952    4.1917   -1.6049 H   0  0  0  0  0  0  0  0  0  0  0  0
   -0.5882    4.3645    0.2906 H   0  0  0  0  0  0  0  0  0  0  0  0
    1.2119    0.9348    2.1086 H   0  0  0  0  0  0  0  0  0  0  0  0
   -3.3016    3.6358    0.0354 H   0  0  0  0  0  0  0  0  0  0  0  0
   -1.9897    1.6728   -0.6533 H   0  0  0  0  0  0  0  0  0  0  0  0
   -6.7723    1.2010    0.7309 H   0  0  0  0  0  0  0  0  0  0  0  0
   -5.6572    3.4097    0.7219 H   0  0  0  0  0  0  0  0  0  0  0  0
   -6.2379   -1.5128    0.1691 H   0  0  0  0  0  0  0  0  0  0  0  0
   -4.3353   -2.9179   -0.6223 H   0  0  0  0  0  0  0  0  0  0  0  0
   -0.8721   -0.3337    0.4831 H   0  0  0  0  0  0  0  0  0  0  0  0
   -1.0068   -2.0647    0.7563 H   0  0  0  0  0  0  0  0  0  0  0  0
    0.7822   -2.4635   -0.9568 H   0  0  0  0  0  0  0  0  0  0  0  0
    0.8242   -0.7266   -1.2933 H   0  0  0  0  0  0  0  0  0  0  0  0
    5.9035   -0.4989   -0.3973 H   0  0  0  0  0  0  0  0  0  0  0  0
   -0.4727    2.7271    2.1413 H   0  0  0  0  0  0  0  0  0  0  0  0
    5.5571   -4.1825   -0.1021 H   0  0  0  0  0  0  0  0  0  0  0  0
    4.1632   -2.9168    0.0914 C   0  0  0  0  0  0  0  0  0  0  0  0
 25 46  2  0
 46 26  1  0
 46  2  1  0
 20  2  1  0
 20 21  2  0
  2 19  2  0
 21 22  1  0
 13 14  1  0
 13 10  1  0
 14 15  2  0
 19 22  1  0
 19 18  1  0
 10 11  2  0
 10  9  1  0
 11 12  1  0
 22 23  1  0
 15  9  1  0
 15  1  1  0
 17 18  1  0
 17 16  1  0
  9  8  2  0
 12  7  2  0
  1 16  1  0
 23  6  1  0
 23  3  2  0
  8  7  1  0
  6 24  2  0
  3  4  1  0
 24  5  1  0
  4  5  2  0
  1 27  1  0
  1 28  1  0
  3 29  1  0
  4 30  1  0
  5 31  1  0
  6 32  1  0
  7 33  1  0
  8 34  1  0
 11 35  1  0
 12 36  1  0
 13 37  1  0
 14 38  1  0
 16 39  1  0
 16 40  1  0
 17 41  1  0
 17 42  1  0
 20 43  1  0
 24 44  1  0
 26 45  1  0
M  END
