
     RDKit          3D

 33 34  0  0  0  0  0  0  0  0999 V2000
    6.2676   -0.0852   -0.1139 C   0  0  0  0  0  0  0  0  0  0  0  0
    4.7837   -0.1777    0.0602 C   0  0  0  0  0  0  0  0  0  0  0  0
    4.0773    1.0742   -0.4778 C   0  0  0  0  0  0  0  0  0  0  0  0
    2.5839    0.9368   -0.3908 C   0  0  0  0  0  0  0  0  0  0  0  0
    1.8989    1.3076    0.7630 C   0  0  0  0  0  0  0  0  0  0  0  0
    0.5262    1.1394    0.8610 C   0  0  0  0  0  0  0  0  0  0  0  0
   -0.1952    0.5904   -0.1947 C   0  0  0  0  0  0  0  0  0  0  0  0
    0.4816    0.2264   -1.3539 C   0  0  0  0  0  0  0  0  0  0  0  0
    1.8549    0.3992   -1.4473 C   0  0  0  0  0  0  0  0  0  0  0  0
   -1.6719    0.4580   -0.0958 C   0  0  0  0  0  0  0  0  0  0  0  0
   -2.3192   -0.7519    0.1844 C   0  0  0  0  0  0  0  0  0  0  0  0
   -3.7067   -0.7977    0.2625 C   0  0  0  0  0  0  0  0  0  0  0  0
   -4.4695    0.3422    0.0697 C   0  0  0  0  0  0  0  0  0  0  0  0
   -3.8148    1.5256   -0.1975 C   0  0  0  0  0  0  0  0  0  0  0  0
   -2.4382    1.6021   -0.2825 C   0  0  0  0  0  0  0  0  0  0  0  0
   -1.5261   -2.0034    0.4125 C   0  0  1  0  0  0  0  0  0  0  0  0
   -4.5319    2.6387   -0.3842 F   0  0  0  0  0  0  0  0  0  0  0  0
   -2.2931   -3.0186    0.8252 F   0  0  0  0  0  0  0  0  0  0  0  0
   -0.9080   -2.4233   -0.7013 F   0  0  0  0  0  0  0  0  0  0  0  0
   -0.5762   -1.8383    1.3417 F   0  0  0  0  0  0  0  0  0  0  0  0
    7.0828   -0.2833    0.7524 O   0  0  0  0  0  0  0  0  0  0  0  0
    6.5890    0.1814   -1.1380 H   0  0  0  0  0  0  0  0  0  0  0  0
    4.4483   -1.0485   -0.5152 H   0  0  0  0  0  0  0  0  0  0  0  0
    4.5361   -0.3550    1.1079 H   0  0  0  0  0  0  0  0  0  0  0  0
    4.4067    1.9473    0.0897 H   0  0  0  0  0  0  0  0  0  0  0  0
    4.3738    1.2419   -1.5161 H   0  0  0  0  0  0  0  0  0  0  0  0
    2.4421    1.7366    1.5968 H   0  0  0  0  0  0  0  0  0  0  0  0
    0.0125    1.4389    1.7659 H   0  0  0  0  0  0  0  0  0  0  0  0
   -0.0631   -0.1774   -2.1973 H   0  0  0  0  0  0  0  0  0  0  0  0
    2.3642    0.1136   -2.3602 H   0  0  0  0  0  0  0  0  0  0  0  0
   -4.2201   -1.7229    0.4813 H   0  0  0  0  0  0  0  0  0  0  0  0
   -5.5485    0.3039    0.1310 H   0  0  0  0  0  0  0  0  0  0  0  0
   -1.9594    2.5481   -0.5004 H   0  0  0  0  0  0  0  0  0  0  0  0
 13 12  1  0
 13 14  2  0
 12 11  2  0
 16 20  1  1
 17 14  1  0
 14 15  1  0
 19 16  1  0
 11 16  1  0
 11 10  1  0
 16 18  1  0
 15 10  2  0
 10  7  1  0
  8  7  2  0
  8  9  1  0
  7  6  1  0
  9  4  2  0
  6  5  2  0
  4  5  1  0
  4  3  1  0
  3  2  1  0
  2  1  1  0
  1 21  2  0
  1 22  1  0
  2 23  1  0
  2 24  1  0
  3 25  1  0
  3 26  1  0
  5 27  1  0
  6 28  1  0
  8 29  1  0
  9 30  1  0
 12 31  1  0
 13 32  1  0
 15 33  1  0
M  END
