
     RDKit          3D

 38 38  0  0  0  0  0  0  0  0999 V2000
    0.7386    0.0475   -3.1385 C   0  0  0  0  0  0  0  0  0  0  0  0
    0.7197    1.2352   -3.8581 C   0  0  0  0  0  0  0  0  0  0  0  0
    0.5231    1.2036   -5.2259 C   0  0  0  0  0  0  0  0  0  0  0  0
    0.3408   -0.0215   -5.8521 C   0  0  0  0  0  0  0  0  0  0  0  0
    0.3607   -1.2123   -5.1395 C   0  0  0  0  0  0  0  0  0  0  0  0
    0.5583   -1.1759   -3.7718 C   0  0  0  0  0  0  0  0  0  0  0  0
   -0.2601   -0.0789   -0.7270 P   0  0  1  0  0  0  0  0  0  0  0  0
    0.9701    0.0971   -1.7933 O   0  0  0  0  0  0  0  0  0  0  0  0
   -1.1787    1.2182   -0.9368 O   0  0  0  0  0  0  0  0  0  0  0  0
   -1.0657   -1.3017   -0.9328 O   0  0  0  0  0  0  0  0  0  0  0  0
    0.6133    0.0888    0.8312 C   0  0  0  0  0  0  0  0  0  0  0  0
   -0.3479    0.0466    2.0203 C   0  0  0  0  0  0  0  0  0  0  0  0
    0.4154    0.1865    3.3274 C   0  0  0  0  0  0  0  0  0  0  0  0
   -0.4872    0.1675    4.5436 C   0  0  0  0  0  0  0  0  0  0  0  0
    0.1443   -0.0575    5.7076 N   0  0  0  0  0  0  0  0  0  0  0  0
   -1.6929    0.3599    4.4826 O   0  0  0  0  0  0  0  0  0  0  0  0
   -0.5508   -0.0491    6.9636 C   0  0  0  0  0  0  0  0  0  0  0  0
    0.4264   -0.1553    8.1054 C   0  0  0  0  0  0  0  0  0  0  0  0
   -0.2000   -0.1275    9.2689 O   0  0  0  0  0  0  0  0  0  0  0  0
    1.6202   -0.2552    7.9782 O   0  0  0  0  0  0  0  0  0  0  0  0
    0.1279   -0.0575   -7.2883 N   0  0  0  0  0  0  0  0  0  0  0  0
   -0.0241   -1.1353   -7.8141 O   0  0  0  0  0  0  0  0  0  0  0  0
    0.1124    0.9923   -7.8870 O   0  0  0  0  0  0  0  0  0  0  0  0
    0.8713    2.1801   -3.3541 H   0  0  0  0  0  0  0  0  0  0  0  0
    0.5098    2.1274   -5.7852 H   0  0  0  0  0  0  0  0  0  0  0  0
    0.2228   -2.1633   -5.6326 H   0  0  0  0  0  0  0  0  0  0  0  0
    0.5885   -2.0953   -3.2042 H   0  0  0  0  0  0  0  0  0  0  0  0
   -0.7600    2.0713   -0.7591 H   0  0  0  0  0  0  0  0  0  0  0  0
    1.1829    1.0220    0.8224 H   0  0  0  0  0  0  0  0  0  0  0  0
    1.3377   -0.7271    0.8914 H   0  0  0  0  0  0  0  0  0  0  0  0
   -0.9031   -0.8934    2.0120 H   0  0  0  0  0  0  0  0  0  0  0  0
   -1.0814    0.8493    1.9352 H   0  0  0  0  0  0  0  0  0  0  0  0
    0.9703    1.1308    3.3370 H   0  0  0  0  0  0  0  0  0  0  0  0
    1.1667   -0.6031    3.4168 H   0  0  0  0  0  0  0  0  0  0  0  0
    1.1405   -0.2132    5.7165 H   0  0  0  0  0  0  0  0  0  0  0  0
   -1.2610   -0.8790    7.0397 H   0  0  0  0  0  0  0  0  0  0  0  0
   -1.1348    0.8675    7.0878 H   0  0  0  0  0  0  0  0  0  0  0  0
    0.4352   -0.2043    9.9969 H   0  0  0  0  0  0  0  0  0  0  0  0
  1  2  2  0
  1  6  1  0
  1  8  1  0
  2  3  1  0
  2 24  1  0
  3  4  2  0
  3 25  1  0
  4  5  1  0
  4 21  1  0
  5  6  2  0
  5 26  1  0
  6 27  1  0
  7  8  1  6
  7  9  1  0
  7 10  2  0
  7 11  1  0
  9 28  1  0
 11 12  1  0
 11 29  1  0
 11 30  1  0
 12 13  1  0
 12 31  1  0
 12 32  1  0
 13 14  1  0
 13 33  1  0
 13 34  1  0
 14 15  1  0
 14 16  2  0
 15 17  1  0
 15 35  1  0
 17 18  1  0
 17 36  1  0
 17 37  1  0
 18 19  1  0
 18 20  2  0
 19 38  1  0
 21 22  2  0
 21 23  1  0
M  CHG  2  21   1  23  -1
M  END
