
     RDKit          3D

 40 42  0  0  0  0  0  0  0  0999 V2000
   -1.0278    1.0730    0.0862 C   0  0  0  0  0  0  0  0  0  0  0  0
    2.9733    0.1781   -0.1478 C   0  0  0  0  0  0  0  0  0  0  0  0
    5.1243   -0.6317    0.5708 C   0  0  0  0  0  0  0  0  0  0  0  0
    3.6042    0.8483   -1.1974 C   0  0  0  0  0  0  0  0  0  0  0  0
   -4.4431    0.9455   -1.4574 O   0  0  0  0  0  0  0  0  0  0  0  0
   -3.8853   -0.1489   -0.7607 C   0  0  1  0  0  0  0  0  0  0  0  0
   -2.7977   -0.8513   -1.5742 C   0  0  0  0  0  0  0  0  0  0  0  0
   -2.0211   -1.8745   -0.7463 C   0  0  0  0  0  0  0  0  0  0  0  0
   -1.5887   -1.3294    0.6162 C   0  0  2  0  0  0  0  0  0  0  0  0
   -2.8079   -0.8304    1.3738 C   0  0  0  0  0  0  0  0  0  0  0  0
   -3.4213    0.3377    0.6129 C   0  0  1  0  0  0  0  0  0  0  0  0
   -2.4100    1.4814    0.6041 C   0  0  1  0  0  0  0  0  0  0  0  0
   -2.3419    1.9428    1.9407 O   0  0  0  0  0  0  0  0  0  0  0  0
   -0.5940   -0.2568    0.4991 N   0  0  0  0  0  0  0  0  0  0  0  0
    0.7160   -0.6346    0.4217 C   0  0  0  0  0  0  0  0  0  0  0  0
    1.1010   -1.7542    0.7319 O   0  0  0  0  0  0  0  0  0  0  0  0
    1.5899    0.3352   -0.0154 N   0  0  0  0  0  0  0  0  0  0  0  0
    3.7497   -0.5593    0.7475 C   0  0  0  0  0  0  0  0  0  0  0  0
    5.7503    0.0312   -0.4763 C   0  0  0  0  0  0  0  0  0  0  0  0
    4.9794    0.7794   -1.3557 C   0  0  0  0  0  0  0  0  0  0  0  0
   -1.0155    1.1776   -1.0038 H   0  0  0  0  0  0  0  0  0  0  0  0
   -0.3259    1.8162    0.4725 H   0  0  0  0  0  0  0  0  0  0  0  0
    5.7124   -1.2094    1.2725 H   0  0  0  0  0  0  0  0  0  0  0  0
    3.0104    1.4245   -1.8979 H   0  0  0  0  0  0  0  0  0  0  0  0
   -4.7571    0.6319   -2.3115 H   0  0  0  0  0  0  0  0  0  0  0  0
   -4.6636   -0.9006   -0.5543 H   0  0  0  0  0  0  0  0  0  0  0  0
   -3.2655   -1.3584   -2.4234 H   0  0  0  0  0  0  0  0  0  0  0  0
   -2.1200   -0.1148   -2.0101 H   0  0  0  0  0  0  0  0  0  0  0  0
   -2.6492   -2.7520   -0.5648 H   0  0  0  0  0  0  0  0  0  0  0  0
   -1.1535   -2.2306   -1.3060 H   0  0  0  0  0  0  0  0  0  0  0  0
   -1.1267   -2.1333    1.1847 H   0  0  0  0  0  0  0  0  0  0  0  0
   -3.5253   -1.6505    1.4649 H   0  0  0  0  0  0  0  0  0  0  0  0
   -2.5377   -0.5356    2.3884 H   0  0  0  0  0  0  0  0  0  0  0  0
   -4.3088    0.6996    1.1426 H   0  0  0  0  0  0  0  0  0  0  0  0
   -2.7578    2.2866   -0.0538 H   0  0  0  0  0  0  0  0  0  0  0  0
   -1.7833    2.7258    1.9632 H   0  0  0  0  0  0  0  0  0  0  0  0
    1.2132    1.1112   -0.5346 H   0  0  0  0  0  0  0  0  0  0  0  0
    3.2946   -1.0656    1.5844 H   0  0  0  0  0  0  0  0  0  0  0  0
    6.8230   -0.0307   -0.6030 H   0  0  0  0  0  0  0  0  0  0  0  0
    5.4461    1.3074   -2.1772 H   0  0  0  0  0  0  0  0  0  0  0  0
 13 12  1  0
 12 11  1  0
 12  1  1  0
 11  6  1  0
 11 10  1  0
  5  6  1  0
  6  7  1  0
 10  9  1  0
  1 14  1  0
  7  8  1  0
 14  9  1  0
 14 15  1  0
  9  8  1  0
 18  3  2  0
 18  2  1  0
 17 15  1  0
 17  2  1  0
  3 19  1  0
 15 16  2  0
  2  4  2  0
 19 20  2  0
  4 20  1  0
  1 21  1  0
  1 22  1  0
  3 23  1  0
  4 24  1  0
  5 25  1  0
  6 26  1  1
  7 27  1  0
  7 28  1  0
  8 29  1  0
  8 30  1  0
  9 31  1  1
 10 32  1  0
 10 33  1  0
 11 34  1  1
 12 35  1  6
 13 36  1  0
 17 37  1  0
 18 38  1  0
 19 39  1  0
 20 40  1  0
M  END
