
     RDKit          3D

 26 25  0  0  0  0  0  0  0  0999 V2000
    4.5984    1.2877    0.0484 O   0  0  0  0  0  0  0  0  0  0  0  0
   -4.6001   -1.3051   -0.0355 O   0  0  0  0  0  0  0  0  0  0  0  0
    0.6111   -0.4648   -0.0070 C   0  0  0  0  0  0  0  0  0  0  0  0
   -0.6108    0.4445   -0.0095 C   0  0  0  0  0  0  0  0  0  0  0  0
    1.9225    0.3101   -0.0005 C   0  0  0  0  0  0  0  0  0  0  0  0
   -1.9227   -0.3300   -0.0176 C   0  0  0  0  0  0  0  0  0  0  0  0
    3.1248   -0.6199    0.0041 C   0  0  0  0  0  0  0  0  0  0  0  0
   -3.1241    0.6012   -0.0190 C   0  0  0  0  0  0  0  0  0  0  0  0
    4.4488    0.0916    0.0103 C   0  0  0  0  0  0  0  0  0  0  0  0
   -4.4490   -0.1086   -0.0253 C   0  0  0  0  0  0  0  0  0  0  0  0
    0.5701   -1.1242    0.8670 H   0  0  0  0  0  0  0  0  0  0  0  0
    0.5772   -1.1209   -0.8837 H   0  0  0  0  0  0  0  0  0  0  0  0
   -0.5772    1.0993    0.8682 H   0  0  0  0  0  0  0  0  0  0  0  0
   -0.5699    1.1048   -0.8828 H   0  0  0  0  0  0  0  0  0  0  0  0
    1.9622    0.9645   -0.8758 H   0  0  0  0  0  0  0  0  0  0  0  0
    1.9547    0.9632    0.8759 H   0  0  0  0  0  0  0  0  0  0  0  0
   -1.9558   -0.9804   -0.8960 H   0  0  0  0  0  0  0  0  0  0  0  0
   -1.9626   -0.9867    0.8558 H   0  0  0  0  0  0  0  0  0  0  0  0
    3.0931   -1.2803    0.8772 H   0  0  0  0  0  0  0  0  0  0  0  0
    3.0982   -1.2862   -0.8640 H   0  0  0  0  0  0  0  0  0  0  0  0
   -3.0972    1.2628    0.8530 H   0  0  0  0  0  0  0  0  0  0  0  0
   -3.0914    1.2663   -0.8883 H   0  0  0  0  0  0  0  0  0  0  0  0
    5.4688   -0.7623   -0.0294 O   0  0  0  0  0  0  0  0  0  0  0  0
   -5.4679    0.7474   -0.0189 O   0  0  0  0  0  0  0  0  0  0  0  0
    6.3068   -0.2761   -0.0212 H   0  0  0  0  0  0  0  0  0  0  0  0
   -6.3066    0.2624   -0.0222 H   0  0  0  0  0  0  0  0  0  0  0  0
  1  9  2  0
  2 10  2  0
  3  4  1  0
  3  5  1  0
  3 11  1  0
  3 12  1  0
  4  6  1  0
  4 13  1  0
  4 14  1  0
  5  7  1  0
  5 15  1  0
  5 16  1  0
  6  8  1  0
  6 17  1  0
  6 18  1  0
  7  9  1  0
  7 19  1  0
  7 20  1  0
  8 10  1  0
  8 21  1  0
  8 22  1  0
  9 23  1  0
 10 24  1  0
 23 25  1  0
 24 26  1  0
M  END
