
     RDKit          3D

 43 45  0  0  0  0  0  0  0  0999 V2000
   -3.2299    3.0056   -0.6775 C   0  0  0  0  0  0  0  0  0  0  0  0
   -2.9660    1.6310   -0.3256 N   0  0  0  0  0  0  0  0  0  0  0  0
   -3.9346    0.6821   -0.0166 C   0  0  0  0  0  0  0  0  0  0  0  0
   -5.3119    0.8346    0.0123 C   0  0  0  0  0  0  0  0  0  0  0  0
   -6.0750   -0.2713    0.3535 C   0  0  0  0  0  0  0  0  0  0  0  0
   -5.4590   -1.4816    0.6535 C   0  0  0  0  0  0  0  0  0  0  0  0
   -6.2383   -2.5262    0.9793 F   0  0  0  0  0  0  0  0  0  0  0  0
   -4.0924   -1.6556    0.6303 C   0  0  0  0  0  0  0  0  0  0  0  0
   -3.3268   -0.5487    0.2875 C   0  0  0  0  0  0  0  0  0  0  0  0
   -1.9148   -0.3171    0.1504 C   0  0  0  0  0  0  0  0  0  0  0  0
   -1.7579    1.0477   -0.2257 C   0  0  0  0  0  0  0  0  0  0  0  0
   -0.5806    1.5826   -0.4271 N   0  0  0  0  0  0  0  0  0  0  0  0
    0.4169    0.7136   -0.2440 C   0  0  0  0  0  0  0  0  0  0  0  0
    2.0014    1.4020   -0.4958 S   0  0  0  0  0  0  0  0  0  0  0  0
    3.1171    0.0065   -0.1707 C   0  0  0  0  0  0  0  0  0  0  0  0
    4.5491    0.5279   -0.2301 C   0  0  0  0  0  0  0  0  0  0  0  0
    5.4827   -0.5740   -0.1026 N   0  0  0  0  0  0  0  0  0  0  0  0
    5.7254   -1.2346   -1.3781 C   0  0  0  0  0  0  0  0  0  0  0  0
    6.1318   -2.6898   -1.2138 C   0  0  0  0  0  0  0  0  0  0  0  0
    6.7195   -0.1855    0.5604 C   0  0  0  0  0  0  0  0  0  0  0  0
    6.5527   -0.0010    2.0598 C   0  0  0  0  0  0  0  0  0  0  0  0
    0.3208   -0.5673    0.0990 N   0  0  0  0  0  0  0  0  0  0  0  0
   -0.8744   -1.0916    0.3014 N   0  0  0  0  0  0  0  0  0  0  0  0
   -3.6840    3.5362    0.1584 H   0  0  0  0  0  0  0  0  0  0  0  0
   -2.2922    3.4894   -0.9338 H   0  0  0  0  0  0  0  0  0  0  0  0
   -3.8972    3.0544   -1.5365 H   0  0  0  0  0  0  0  0  0  0  0  0
   -5.7902    1.7761   -0.2220 H   0  0  0  0  0  0  0  0  0  0  0  0
   -7.1537   -0.1967    0.3884 H   0  0  0  0  0  0  0  0  0  0  0  0
   -3.6418   -2.6098    0.8700 H   0  0  0  0  0  0  0  0  0  0  0  0
    2.9063   -0.4054    0.8144 H   0  0  0  0  0  0  0  0  0  0  0  0
    2.9407   -0.7687   -0.9162 H   0  0  0  0  0  0  0  0  0  0  0  0
    4.7135    1.1039   -1.1547 H   0  0  0  0  0  0  0  0  0  0  0  0
    4.6952    1.2266    0.5943 H   0  0  0  0  0  0  0  0  0  0  0  0
    4.8076   -1.1969   -1.9685 H   0  0  0  0  0  0  0  0  0  0  0  0
    6.4835   -0.6947   -1.9682 H   0  0  0  0  0  0  0  0  0  0  0  0
    7.0424   -2.7976   -0.6229 H   0  0  0  0  0  0  0  0  0  0  0  0
    5.3418   -3.2559   -0.7195 H   0  0  0  0  0  0  0  0  0  0  0  0
    6.3192   -3.1456   -2.1866 H   0  0  0  0  0  0  0  0  0  0  0  0
    7.4542   -0.9751    0.3946 H   0  0  0  0  0  0  0  0  0  0  0  0
    7.1474    0.7259    0.1122 H   0  0  0  0  0  0  0  0  0  0  0  0
    5.8349    0.7827    2.3070 H   0  0  0  0  0  0  0  0  0  0  0  0
    6.2119   -0.9259    2.5263 H   0  0  0  0  0  0  0  0  0  0  0  0
    7.5038    0.2768    2.5149 H   0  0  0  0  0  0  0  0  0  0  0  0
  7  6  1  0
  6  8  2  0
  6  5  1  0
  8  9  1  0
  5  4  2  0
 23 10  1  0
 23 22  2  0
  9 10  1  0
  9  3  2  0
 10 11  2  0
 22 13  1  0
  4  3  1  0
  3  2  1  0
 11  2  1  0
 11 12  1  0
 13 12  2  0
 13 14  1  0
  2  1  1  0
 14 15  1  0
 15 16  1  0
 16 17  1  0
 20 17  1  0
 20 21  1  0
 17 18  1  0
 18 19  1  0
  1 24  1  0
  1 25  1  0
  1 26  1  0
  4 27  1  0
  5 28  1  0
  8 29  1  0
 15 30  1  0
 15 31  1  0
 16 32  1  0
 16 33  1  0
 18 34  1  0
 18 35  1  0
 19 36  1  0
 19 37  1  0
 19 38  1  0
 20 39  1  0
 20 40  1  0
 21 41  1  0
 21 42  1  0
 21 43  1  0
M  END
