
     RDKit          3D

 30 32  0  0  0  0  0  0  0  0999 V2000
    1.4138    0.1655   -2.5242 C   0  0  0  0  0  0  0  0  0  0  0  0
    0.7102    0.1437   -1.3134 C   0  0  0  0  0  0  0  0  0  0  0  0
   -0.7023    0.1424   -1.3158 C   0  0  0  0  0  0  0  0  0  0  0  0
   -1.4022    0.1622   -2.5289 C   0  0  0  0  0  0  0  0  0  0  0  0
   -0.6787    0.1823   -3.7289 C   0  0  0  0  0  0  0  0  0  0  0  0
    0.6940    0.1844   -3.7265 C   0  0  0  0  0  0  0  0  0  0  0  0
   -1.4433    0.1199   -0.0561 C   0  0  0  0  0  0  0  0  0  0  0  0
   -0.7222    0.0972    1.1912 C   0  0  0  0  0  0  0  0  0  0  0  0
    0.7221    0.0981    1.1935 C   0  0  0  0  0  0  0  0  0  0  0  0
    1.4470    0.1220   -0.0514 C   0  0  0  0  0  0  0  0  0  0  0  0
    1.4284    0.0769    2.4092 C   0  0  0  0  0  0  0  0  0  0  0  0
    0.6706    0.0550    3.6203 C   0  0  0  0  0  0  0  0  0  0  0  0
   -0.6783    0.0542    3.6182 C   0  0  0  0  0  0  0  0  0  0  0  0
   -1.4324    0.0753    2.4046 C   0  0  0  0  0  0  0  0  0  0  0  0
    2.6984    0.1247   -0.0866 O   0  0  0  0  0  0  0  0  0  0  0  0
   -2.6945    0.1208   -0.0954 O   0  0  0  0  0  0  0  0  0  0  0  0
    2.7452    0.1695   -2.5935 O   0  0  0  0  0  0  0  0  0  0  0  0
    2.7630    0.0732    2.5307 N   0  0  0  0  0  0  0  0  0  0  0  0
   -2.7673    0.0680    2.5221 N   0  0  0  0  0  0  0  0  0  0  0  0
   -2.7334    0.1629   -2.6018 O   0  0  0  0  0  0  0  0  0  0  0  0
   -1.2189    0.1973   -4.6671 H   0  0  0  0  0  0  0  0  0  0  0  0
    1.2375    0.2009   -4.6628 H   0  0  0  0  0  0  0  0  0  0  0  0
    1.2038    0.0382    4.5633 H   0  0  0  0  0  0  0  0  0  0  0  0
   -1.2145    0.0365    4.5595 H   0  0  0  0  0  0  0  0  0  0  0  0
    3.0677    0.1537   -1.6568 H   0  0  0  0  0  0  0  0  0  0  0  0
    3.1827    0.0742    3.4436 H   0  0  0  0  0  0  0  0  0  0  0  0
    3.3503    0.1048    1.7157 H   0  0  0  0  0  0  0  0  0  0  0  0
   -3.3524    0.1098    1.7059 H   0  0  0  0  0  0  0  0  0  0  0  0
   -3.1895    0.0832    3.4338 H   0  0  0  0  0  0  0  0  0  0  0  0
   -3.0581    0.1474   -1.6658 H   0  0  0  0  0  0  0  0  0  0  0  0
  1  2  2  0
  1  6  1  0
  1 17  1  0
  2  3  1  0
  2 10  1  0
  3  4  2  0
  3  7  1  0
  4  5  1  0
  4 20  1  0
  5  6  2  0
  5 21  1  0
  6 22  1  0
  7  8  1  0
  7 16  2  0
  8  9  2  0
  8 14  1  0
  9 10  1  0
  9 11  1  0
 10 15  2  0
 11 12  2  0
 11 18  1  0
 12 13  1  0
 12 23  1  0
 13 14  2  0
 13 24  1  0
 14 19  1  0
 17 25  1  0
 18 26  1  0
 18 27  1  0
 19 28  1  0
 19 29  1  0
 20 30  1  0
M  END
