
     RDKit          3D

 23 23  0  0  0  0  0  0  0  0999 V2000
   -3.0986   -1.5305    0.4777 O   0  0  0  0  0  0  0  0  0  0  0  0
   -2.7491   -0.4899   -0.0119 C   0  0  0  0  0  0  0  0  0  0  0  0
   -3.5829    0.4527   -0.4275 O   0  0  0  0  0  0  0  0  0  0  0  0
   -1.3080   -0.0881   -0.2611 C   0  0  2  0  0  0  0  0  0  0  0  0
   -0.3400   -0.8812    0.6274 C   0  0  0  0  0  0  0  0  0  0  0  0
    1.0939   -0.5381    0.3259 C   0  0  0  0  0  0  0  0  0  0  0  0
    1.7367   -1.1004   -0.7753 C   0  0  0  0  0  0  0  0  0  0  0  0
    3.0488   -0.7665   -1.0784 C   0  0  0  0  0  0  0  0  0  0  0  0
    3.7393    0.1399   -0.2828 C   0  0  0  0  0  0  0  0  0  0  0  0
    3.1090    0.7058    0.8165 C   0  0  0  0  0  0  0  0  0  0  0  0
    1.7954    0.3675    1.1169 C   0  0  0  0  0  0  0  0  0  0  0  0
   -1.1327    1.3949   -0.0226 C   0  0  0  0  0  0  0  0  0  0  0  0
   -0.7990    2.1855   -0.8646 O   0  0  0  0  0  0  0  0  0  0  0  0
   -4.5037    0.1837   -0.2834 H   0  0  0  0  0  0  0  0  0  0  0  0
   -1.0978   -0.2924   -1.3173 H   0  0  0  0  0  0  0  0  0  0  0  0
   -0.5620   -0.6833    1.6785 H   0  0  0  0  0  0  0  0  0  0  0  0
   -0.5130   -1.9453    0.4628 H   0  0  0  0  0  0  0  0  0  0  0  0
    1.2070   -1.8123   -1.3987 H   0  0  0  0  0  0  0  0  0  0  0  0
    3.5348   -1.2171   -1.9342 H   0  0  0  0  0  0  0  0  0  0  0  0
    4.7635    0.3997   -0.5169 H   0  0  0  0  0  0  0  0  0  0  0  0
    3.6403    1.4095    1.4442 H   0  0  0  0  0  0  0  0  0  0  0  0
    1.3135    0.8103    1.9811 H   0  0  0  0  0  0  0  0  0  0  0  0
   -1.3118    1.7100    1.0213 H   0  0  0  0  0  0  0  0  0  0  0  0
  8  9  2  0
  8  7  1  0
  9 10  1  0
  7  6  2  0
 10 11  2  0
  1  2  2  0
  3  2  1  0
  2  4  1  0
  6 11  1  0
  6  5  1  0
  4  5  1  0
  4 12  1  0
 12 13  2  0
  3 14  1  0
  4 15  1  6
  5 16  1  0
  5 17  1  0
  7 18  1  0
  8 19  1  0
  9 20  1  0
 10 21  1  0
 11 22  1  0
 12 23  1  0
M  END
