
     RDKit          3D

 19 20  0  0  0  0  0  0  0  0999 V2000
    2.8453   -0.8678    0.0750 C   0  0  0  0  0  0  0  0  0  0  0  0
    3.0089    0.5169   -0.0227 C   0  0  0  0  0  0  0  0  0  0  0  0
    1.9169    1.3500   -0.0955 C   0  0  0  0  0  0  0  0  0  0  0  0
    0.6530    0.7884   -0.0684 C   0  0  0  0  0  0  0  0  0  0  0  0
    0.4756   -0.6008    0.0285 C   0  0  0  0  0  0  0  0  0  0  0  0
    1.5921   -1.4307    0.1008 C   0  0  0  0  0  0  0  0  0  0  0  0
   -1.5993    0.0024   -0.0427 C   0  0  0  0  0  0  0  0  0  0  0  0
    3.9269   -1.6330    0.1451 F   0  0  0  0  0  0  0  0  0  0  0  0
    4.2369    1.0150   -0.0423 F   0  0  0  0  0  0  0  0  0  0  0  0
    2.0713    2.6641   -0.1907 F   0  0  0  0  0  0  0  0  0  0  0  0
    1.4491   -2.7440    0.1952 F   0  0  0  0  0  0  0  0  0  0  0  0
   -0.8271   -1.0118    0.0407 N   0  0  0  0  0  0  0  0  0  0  0  0
   -3.7385   -0.4080    1.5077 N   0  0  0  0  0  0  0  0  0  0  0  0
   -3.8169    1.2110   -0.4003 O   0  0  0  0  0  0  0  0  0  0  0  0
   -3.7084   -1.2872   -0.8310 O   0  0  0  0  0  0  0  0  0  0  0  0
   -3.3798   -0.1235   -0.0391 S   0  0  1  0  0  0  0  0  0  0  0  0
   -0.8779    1.5734   -0.1549 S   0  0  0  0  0  0  0  0  0  0  0  0
   -4.1240    0.3514    2.0522 H   0  0  0  0  0  0  0  0  0  0  0  0
   -4.0338   -1.3417    1.7570 H   0  0  0  0  0  0  0  0  0  0  0  0
  9  2  1  0
 10  3  1  0
  2  3  1  0
  2  1  2  0
  3  4  2  0
  8  1  1  0
  1  6  1  0
  4 17  1  0
  4  5  1  0
 17  7  1  0
  6  5  2  0
  6 11  1  0
  5 12  1  0
 12  7  2  0
  7 16  1  0
 16 13  1  1
 14 16  2  0
 16 15  2  0
 13 18  1  0
 13 19  1  0
M  END
