
     RDKit          3D

 41 43  0  0  0  0  0  0  0  0999 V2000
    2.9457   -3.4463   -0.1625 C   0  0  0  0  0  0  0  0  0  0  0  0
    3.0992   -2.3995   -1.0611 C   0  0  0  0  0  0  0  0  0  0  0  0
    2.4015   -1.2112   -0.8832 C   0  0  0  0  0  0  0  0  0  0  0  0
    1.3110    1.4738   -0.1763 C   0  0  1  0  0  0  0  0  0  0  0  0
   -5.4114   -0.0637    0.7688 C   0  0  0  0  0  0  0  0  0  0  0  0
   -3.0933   -0.0559    0.2636 C   0  0  0  0  0  0  0  0  0  0  0  0
   -3.3136   -0.3487   -1.0779 C   0  0  0  0  0  0  0  0  0  0  0  0
   -2.2199   -0.4684   -1.9310 C   0  0  0  0  0  0  0  0  0  0  0  0
   -0.9266   -0.3043   -1.4705 C   0  0  0  0  0  0  0  0  0  0  0  0
   -0.7019   -0.0067   -0.1247 C   0  0  0  0  0  0  0  0  0  0  0  0
    0.7029    0.1997    0.4043 C   0  0  1  0  0  0  0  0  0  0  0  0
    1.5326   -1.0499    0.1923 C   0  0  0  0  0  0  0  0  0  0  0  0
    1.3883   -2.1074    1.0887 C   0  0  0  0  0  0  0  0  0  0  0  0
    2.0855   -3.2949    0.9175 C   0  0  0  0  0  0  0  0  0  0  0  0
    2.8854    3.1390    0.0169 C   0  0  0  0  0  0  0  0  0  0  0  0
    1.5274    3.8744    0.0879 C   0  0  0  0  0  0  0  0  0  0  0  0
    0.4848    2.7428    0.1007 C   0  0  0  0  0  0  0  0  0  0  0  0
   -1.7857    0.1129    0.7287 C   0  0  0  0  0  0  0  0  0  0  0  0
    2.6411    1.7421    0.3556 N   0  0  0  0  0  0  0  0  0  0  0  0
    3.4932   -4.3699   -0.3003 H   0  0  0  0  0  0  0  0  0  0  0  0
    3.7704   -2.5032   -1.9042 H   0  0  0  0  0  0  0  0  0  0  0  0
    2.5497   -0.4079   -1.5935 H   0  0  0  0  0  0  0  0  0  0  0  0
    1.4106    1.3640   -1.2637 H   0  0  0  0  0  0  0  0  0  0  0  0
   -6.0276    0.1028    1.6490 H   0  0  0  0  0  0  0  0  0  0  0  0
   -5.6860    0.6681    0.0047 H   0  0  0  0  0  0  0  0  0  0  0  0
   -5.6134   -1.0663    0.3824 H   0  0  0  0  0  0  0  0  0  0  0  0
   -4.3100   -0.4894   -1.4740 H   0  0  0  0  0  0  0  0  0  0  0  0
   -2.3940   -0.6962   -2.9750 H   0  0  0  0  0  0  0  0  0  0  0  0
   -0.0960   -0.4115   -2.1567 H   0  0  0  0  0  0  0  0  0  0  0  0
    0.6191    0.3528    1.4871 H   0  0  0  0  0  0  0  0  0  0  0  0
    0.7158   -2.0012    1.9329 H   0  0  0  0  0  0  0  0  0  0  0  0
    1.9572   -4.1012    1.6285 H   0  0  0  0  0  0  0  0  0  0  0  0
    3.2831    3.1898   -1.0005 H   0  0  0  0  0  0  0  0  0  0  0  0
    3.6404    3.5652    0.6776 H   0  0  0  0  0  0  0  0  0  0  0  0
    1.4561    4.4846    0.9887 H   0  0  0  0  0  0  0  0  0  0  0  0
    1.3970    4.5464   -0.7612 H   0  0  0  0  0  0  0  0  0  0  0  0
   -0.3104    2.8874   -0.6303 H   0  0  0  0  0  0  0  0  0  0  0  0
    0.0080    2.6682    1.0821 H   0  0  0  0  0  0  0  0  0  0  0  0
   -1.6267    0.3418    1.7765 H   0  0  0  0  0  0  0  0  0  0  0  0
    2.6018    1.6577    1.3670 H   0  0  0  0  0  0  0  0  0  0  0  0
   -4.0684    0.0827    1.1834 O   0  0  0  0  0  0  0  0  0  0  0  0
  1 14  2  0
  1  2  1  0
 14 13  1  0
  2  3  2  0
 13 12  2  0
  3 12  1  0
 12 11  1  0
  9  8  2  0
  9 10  1  0
  8  7  1  0
 11 10  1  0
 11  4  1  0
 10 18  2  0
  7  6  2  0
  4 19  1  0
  4 17  1  0
 18  6  1  0
 19 15  1  0
  6 41  1  0
 41  5  1  0
 17 16  1  0
 15 16  1  0
  1 20  1  0
  2 21  1  0
  3 22  1  0
  4 23  1  6
  5 24  1  0
  5 25  1  0
  5 26  1  0
  7 27  1  0
  8 28  1  0
  9 29  1  0
 11 30  1  1
 13 31  1  0
 14 32  1  0
 15 33  1  0
 15 34  1  0
 16 35  1  0
 16 36  1  0
 17 37  1  0
 17 38  1  0
 18 39  1  0
 19 40  1  0
M  END
