
     RDKit          3D

 28 30  0  0  0  0  0  0  0  0999 V2000
   -2.2696   -2.0127   -0.0274 O   0  0  0  0  0  0  0  0  0  0  0  0
   -1.9850   -0.8156   -0.0534 C   0  0  0  0  0  0  0  0  0  0  0  0
   -0.6574   -0.4225   -0.2663 N   0  0  0  0  0  0  0  0  0  0  0  0
    0.2807   -1.5386   -0.4788 C   0  0  0  0  0  0  0  0  0  0  0  0
    1.7462   -1.1385   -0.5613 C   0  0  2  0  0  0  0  0  0  0  0  0
    2.4110   -0.9566    0.8080 C   0  0  0  0  0  0  0  0  0  0  0  0
    1.9337    0.1790    1.5764 N   0  0  0  0  0  0  0  0  0  0  0  0
    1.8727    1.3923    0.7920 C   0  0  0  0  0  0  0  0  0  0  0  0
    1.1658    1.2254   -0.5695 C   0  0  1  0  0  0  0  0  0  0  0  0
    1.8750    0.1430   -1.3699 C   0  0  0  0  0  0  0  0  0  0  0  0
   -0.2806    0.8848   -0.3579 C   0  0  0  0  0  0  0  0  0  0  0  0
   -1.2064    1.8792   -0.2134 C   0  0  0  0  0  0  0  0  0  0  0  0
   -2.5491    1.5480    0.0363 C   0  0  0  0  0  0  0  0  0  0  0  0
   -2.9300    0.2455    0.1190 C   0  0  0  0  0  0  0  0  0  0  0  0
   -3.9584   -0.0350    0.3011 H   0  0  0  0  0  0  0  0  0  0  0  0
    0.1295   -2.2620    0.3227 H   0  0  0  0  0  0  0  0  0  0  0  0
   -0.0115   -2.0335   -1.4071 H   0  0  0  0  0  0  0  0  0  0  0  0
    2.2574   -1.9614   -1.0675 H   0  0  0  0  0  0  0  0  0  0  0  0
    2.2873   -1.8593    1.4101 H   0  0  0  0  0  0  0  0  0  0  0  0
    3.4882   -0.8350    0.6447 H   0  0  0  0  0  0  0  0  0  0  0  0
    2.9249    0.4117   -1.5108 H   0  0  0  0  0  0  0  0  0  0  0  0
    1.4355    0.0318   -2.3647 H   0  0  0  0  0  0  0  0  0  0  0  0
    1.0305   -0.0216    1.9866 H   0  0  0  0  0  0  0  0  0  0  0  0
    1.3819    2.1706    1.3790 H   0  0  0  0  0  0  0  0  0  0  0  0
    2.8927    1.7391    0.5922 H   0  0  0  0  0  0  0  0  0  0  0  0
    1.2024    2.1841   -1.0911 H   0  0  0  0  0  0  0  0  0  0  0  0
   -3.2820    2.3357    0.1569 H   0  0  0  0  0  0  0  0  0  0  0  0
   -0.8888    2.9090   -0.2923 H   0  0  0  0  0  0  0  0  0  0  0  0
  1  2  2  0
  2  3  1  0
  2 14  1  0
  3  4  1  0
  3 11  1  0
  4  5  1  0
  5  6  1  0
  5 10  1  0
  6  7  1  0
  7  8  1  0
  8  9  1  0
  9 10  1  0
  9 11  1  0
 11 12  2  0
 12 13  1  0
 13 14  2  0
 14 15  1  0
  4 16  1  0
  4 17  1  0
  5 18  1  6
  6 19  1  0
  6 20  1  0
 10 21  1  0
 10 22  1  0
  7 23  1  0
  8 24  1  0
  8 25  1  0
  9 26  1  6
 12 28  1  0
 13 27  1  0
M  END
