
     RDKit          3D

105110  0  0  0  0  0  0  0  0999 V2000
    4.8811    1.2688   -0.4961 C   0  0  0  0  0  0  0  0  0  0  0  0
    5.4631    2.3139   -0.2695 O   0  0  0  0  0  0  0  0  0  0  0  0
    3.5976   -0.3348   -1.6316 C   0  0  1  0  0  0  0  0  0  0  0  0
    4.4192   -1.0208   -0.5431 C   0  0  0  0  0  0  0  0  0  0  0  0
    5.3164    0.0396   -0.1431 N   0  0  0  0  0  0  0  0  0  0  0  0
    6.5278   -0.1910    0.6051 C   0  0  1  0  0  0  0  0  0  0  0  0
    6.3031   -1.1678    1.7278 C   0  0  0  0  0  0  0  0  0  0  0  0
    6.8753   -2.4016    1.4390 C   0  0  0  0  0  0  0  0  0  0  0  0
    7.5523   -2.3810    0.0995 C   0  0  0  0  0  0  0  0  0  0  0  0
    7.6499   -0.8759   -0.2171 C   0  0  1  0  0  0  0  0  0  0  0  0
    7.5333   -0.5334   -1.5682 O   0  0  0  0  0  0  0  0  0  0  0  0
    6.7582   -3.4511    2.3398 C   0  0  0  0  0  0  0  0  0  0  0  0
    6.0535   -3.2505    3.5209 C   0  0  0  0  0  0  0  0  0  0  0  0
    5.4747   -2.0155    3.8021 C   0  0  0  0  0  0  0  0  0  0  0  0
    5.5961   -0.9638    2.9025 C   0  0  0  0  0  0  0  0  0  0  0  0
    2.3590   -0.9218   -1.8918 O   0  0  0  0  0  0  0  0  0  0  0  0
    1.0132    1.1756   -0.2999 C   0  0  0  0  0  0  0  0  0  0  0  0
    0.1811    1.6866    0.8647 C   0  0  0  0  0  0  0  0  0  0  0  0
    3.2865    2.0678   -2.3409 C   0  0  0  0  0  0  0  0  0  0  0  0
    3.3408    3.5531   -2.0895 C   0  0  0  0  0  0  0  0  0  0  0  0
    2.2556    4.2591   -1.5724 C   0  0  0  0  0  0  0  0  0  0  0  0
    2.3158    5.6346   -1.3836 C   0  0  0  0  0  0  0  0  0  0  0  0
    3.4631    6.3370   -1.7232 C   0  0  0  0  0  0  0  0  0  0  0  0
    4.5468    5.6499   -2.2561 C   0  0  0  0  0  0  0  0  0  0  0  0
    4.4823    4.2758   -2.4333 C   0  0  0  0  0  0  0  0  0  0  0  0
   -7.5701    0.5625    0.6520 C   0  0  0  0  0  0  0  0  0  0  0  0
   -6.1827    0.9854    0.9101 C   0  0  0  0  0  0  0  0  0  0  0  0
   -5.5360    0.6143    2.0869 C   0  0  0  0  0  0  0  0  0  0  0  0
   -4.2284    1.0054    2.3266 C   0  0  0  0  0  0  0  0  0  0  0  0
   -3.5304    1.7687    1.3994 C   0  0  0  0  0  0  0  0  0  0  0  0
   -4.1742    2.1400    0.2227 C   0  0  0  0  0  0  0  0  0  0  0  0
   -5.4841    1.7628   -0.0159 C   0  0  0  0  0  0  0  0  0  0  0  0
   -2.0899    2.1260    1.6257 C   0  0  0  0  0  0  0  0  0  0  0  0
   -1.2358    1.3987    0.6918 N   0  0  0  0  0  0  0  0  0  0  0  0
   -1.4962    0.0461    0.7649 N   0  0  0  0  0  0  0  0  0  0  0  0
   -1.9811   -0.6374   -0.2887 C   0  0  0  0  0  0  0  0  0  0  0  0
   -2.3444   -2.0942    0.0154 C   0  0  1  0  0  0  0  0  0  0  0  0
   -3.4929   -2.4186   -0.7911 N   0  0  0  0  0  0  0  0  0  0  0  0
   -4.6506   -2.8931   -0.2942 C   0  0  0  0  0  0  0  0  0  0  0  0
   -5.5444   -3.0476   -1.2779 O   0  0  0  0  0  0  0  0  0  0  0  0
   -6.7925   -3.6345   -0.9326 C   0  0  0  0  0  0  0  0  0  0  0  0
   -4.8702   -3.1645    0.8679 O   0  0  0  0  0  0  0  0  0  0  0  0
   -1.1679   -3.0890   -0.2079 C   0  0  1  0  0  0  0  0  0  0  0  0
   -0.0029   -2.7451    0.7230 C   0  0  0  0  0  0  0  0  0  0  0  0
   -1.6649   -4.4930    0.1417 C   0  0  0  0  0  0  0  0  0  0  0  0
   -0.6819   -3.0690   -1.6570 C   0  0  0  0  0  0  0  0  0  0  0  0
   -2.1282   -0.1623   -1.3985 O   0  0  0  0  0  0  0  0  0  0  0  0
   -8.0490   -0.6672    1.1009 C   0  0  0  0  0  0  0  0  0  0  0  0
   -9.3630   -1.0201    0.8403 C   0  0  0  0  0  0  0  0  0  0  0  0
  -10.2157   -0.2492    0.1746 N   0  0  0  0  0  0  0  0  0  0  0  0
   -9.7607    0.9219   -0.2566 C   0  0  0  0  0  0  0  0  0  0  0  0
    3.5027    1.1209   -1.1469 C   0  0  2  0  0  0  0  0  0  0  0  0
   -8.4664    1.3693   -0.0470 C   0  0  0  0  0  0  0  0  0  0  0  0
    2.4987    1.3417    0.0057 C   0  0  0  0  0  0  0  0  0  0  0  0
    4.2181   -0.3247   -2.5405 H   0  0  0  0  0  0  0  0  0  0  0  0
    3.7910   -1.3593    0.2879 H   0  0  0  0  0  0  0  0  0  0  0  0
    4.9614   -1.8855   -0.9266 H   0  0  0  0  0  0  0  0  0  0  0  0
    2.5086   -1.7780   -2.3042 H   0  0  0  0  0  0  0  0  0  0  0  0
    6.8631    0.7815    0.9675 H   0  0  0  0  0  0  0  0  0  0  0  0
    8.5982   -0.5153    0.2028 H   0  0  0  0  0  0  0  0  0  0  0  0
    5.1499   -0.0010    3.1220 H   0  0  0  0  0  0  0  0  0  0  0  0
    8.5305   -2.8653    0.1138 H   0  0  0  0  0  0  0  0  0  0  0  0
    6.9503   -2.9034   -0.6509 H   0  0  0  0  0  0  0  0  0  0  0  0
    7.2049   -4.4150    2.1274 H   0  0  0  0  0  0  0  0  0  0  0  0
    8.2972   -0.8867   -2.0347 H   0  0  0  0  0  0  0  0  0  0  0  0
    5.9543   -4.0618    4.2306 H   0  0  0  0  0  0  0  0  0  0  0  0
    4.9311   -1.8748    4.7276 H   0  0  0  0  0  0  0  0  0  0  0  0
    0.7919    0.1281   -0.4873 H   0  0  0  0  0  0  0  0  0  0  0  0
    0.7211    1.7133   -1.2044 H   0  0  0  0  0  0  0  0  0  0  0  0
    0.5599    1.2746    1.8145 H   0  0  0  0  0  0  0  0  0  0  0  0
    0.2807    2.7728    0.9395 H   0  0  0  0  0  0  0  0  0  0  0  0
    2.6742    2.3509    0.3925 H   0  0  0  0  0  0  0  0  0  0  0  0
    2.7533    0.6681    0.8310 H   0  0  0  0  0  0  0  0  0  0  0  0
    2.3214    1.8124   -2.7864 H   0  0  0  0  0  0  0  0  0  0  0  0
    4.0364    1.8226   -3.0980 H   0  0  0  0  0  0  0  0  0  0  0  0
    5.3346    3.7540   -2.8500 H   0  0  0  0  0  0  0  0  0  0  0  0
    1.3383    3.7413   -1.3214 H   0  0  0  0  0  0  0  0  0  0  0  0
    5.4447    6.1857   -2.5375 H   0  0  0  0  0  0  0  0  0  0  0  0
    3.5102    7.4093   -1.5834 H   0  0  0  0  0  0  0  0  0  0  0  0
    1.4577    6.1555   -0.9782 H   0  0  0  0  0  0  0  0  0  0  0  0
   -8.1753    2.3452   -0.4120 H   0  0  0  0  0  0  0  0  0  0  0  0
   -7.4043   -1.3592    1.6274 H   0  0  0  0  0  0  0  0  0  0  0  0
   -6.0576    0.0284    2.8330 H   0  0  0  0  0  0  0  0  0  0  0  0
   -5.9572    2.0547   -0.9454 H   0  0  0  0  0  0  0  0  0  0  0  0
   -3.7451    0.7059    3.2488 H   0  0  0  0  0  0  0  0  0  0  0  0
   -3.6408    2.7191   -0.5207 H   0  0  0  0  0  0  0  0  0  0  0  0
   -1.9248    3.1920    1.4543 H   0  0  0  0  0  0  0  0  0  0  0  0
   -1.8141    1.9237    2.6721 H   0  0  0  0  0  0  0  0  0  0  0  0
   -1.4237   -0.4089    1.6685 H   0  0  0  0  0  0  0  0  0  0  0  0
   -2.6463   -2.1793    1.0624 H   0  0  0  0  0  0  0  0  0  0  0  0
   -3.4625   -2.1563   -1.7640 H   0  0  0  0  0  0  0  0  0  0  0  0
   -7.3513   -3.7126   -1.8612 H   0  0  0  0  0  0  0  0  0  0  0  0
   -6.6678   -4.6306   -0.5076 H   0  0  0  0  0  0  0  0  0  0  0  0
   -7.3521   -3.0149   -0.2327 H   0  0  0  0  0  0  0  0  0  0  0  0
   -0.3202   -2.7159    1.7685 H   0  0  0  0  0  0  0  0  0  0  0  0
    0.7743   -3.5063    0.6409 H   0  0  0  0  0  0  0  0  0  0  0  0
    0.4610   -1.7896    0.4790 H   0  0  0  0  0  0  0  0  0  0  0  0
   -2.4707   -4.8189   -0.5162 H   0  0  0  0  0  0  0  0  0  0  0  0
   -0.8502   -5.2118    0.0397 H   0  0  0  0  0  0  0  0  0  0  0  0
   -2.0262   -4.5448    1.1706 H   0  0  0  0  0  0  0  0  0  0  0  0
   -0.2621   -2.1033   -1.9379 H   0  0  0  0  0  0  0  0  0  0  0  0
    0.1015   -3.8169   -1.7943 H   0  0  0  0  0  0  0  0  0  0  0  0
   -1.4817   -3.3097   -2.3599 H   0  0  0  0  0  0  0  0  0  0  0  0
  -10.4640    1.5471   -0.7955 H   0  0  0  0  0  0  0  0  0  0  0  0
   -9.7398   -1.9773    1.1840 H   0  0  0  0  0  0  0  0  0  0  0  0
  1  2  2  0
  1  5  1  0
  1 52  1  0
  3  4  1  0
  3 16  1  0
  3 52  1  0
  4  5  1  0
  5  6  1  0
  6  7  1  0
  6 10  1  0
  7  8  2  0
  7 15  1  0
  8  9  1  0
  8 12  1  0
  9 10  1  0
 10 11  1  0
 12 13  2  0
 13 14  1  0
 14 15  2  0
 17 18  1  0
 17 54  1  0
 18 34  1  0
 19 20  1  0
 52 19  1  6
 20 25  1  0
 20 21  2  0
 25 24  2  0
 24 23  1  0
 23 22  2  0
 22 21  1  0
 26 27  1  0
 26 53  1  0
 26 48  2  0
 27 28  2  0
 27 32  1  0
 28 29  1  0
 29 30  2  0
 30 31  1  0
 30 33  1  0
 31 32  2  0
 33 34  1  0
 34 35  1  0
 35 36  1  0
 36 37  1  0
 36 47  2  0
 37 38  1  0
 37 43  1  0
 38 39  1  0
 39 40  1  0
 39 42  2  0
 40 41  1  0
 43 44  1  1
 43 45  1  0
 43 46  1  0
 53 51  2  0
 51 50  1  0
 50 49  2  0
 49 48  1  0
 52 54  1  0
  3 55  1  6
  4 56  1  0
  4 57  1  0
 16 58  1  0
  6 59  1  1
 10 60  1  1
 15 61  1  0
  9 62  1  0
  9 63  1  0
 12 64  1  0
 11 65  1  0
 13 66  1  0
 14 67  1  0
 17 68  1  0
 17 69  1  0
 18 70  1  0
 18 71  1  0
 54 72  1  0
 54 73  1  0
 19 74  1  0
 19 75  1  0
 25 76  1  0
 21 77  1  0
 24 78  1  0
 23 79  1  0
 22 80  1  0
 53 81  1  0
 48 82  1  0
 28 83  1  0
 32 84  1  0
 29 85  1  0
 31 86  1  0
 33 87  1  0
 33 88  1  0
 35 89  1  0
 37 90  1  1
 38 91  1  0
 41 92  1  0
 41 93  1  0
 41 94  1  0
 44 95  1  0
 44 96  1  0
 44 97  1  0
 45 98  1  0
 45 99  1  0
 45100  1  0
 46101  1  0
 46102  1  0
 46103  1  0
 51104  1  0
 49105  1  0
M  END
