
     RDKit          3D

 50 52  0  0  0  0  0  0  0  0999 V2000
    3.2273   -0.1015    0.5521 C   0  0  0  0  0  0  0  0  0  0  0  0
    4.5295    0.3891    0.5743 C   0  0  0  0  0  0  0  0  0  0  0  0
    3.0187   -1.4707    0.4389 C   0  0  0  0  0  0  0  0  0  0  0  0
    2.0674    0.8395    0.6213 C   0  0  0  0  0  0  0  0  0  0  0  0
    5.5787   -0.5023    0.5021 C   0  0  0  0  0  0  0  0  0  0  0  0
    5.4109   -1.8763    0.3994 C   0  0  0  0  0  0  0  0  0  0  0  0
    4.0985   -2.3385    0.3697 C   0  0  0  0  0  0  0  0  0  0  0  0
   -4.1602   -2.5969   -0.7967 C   0  0  0  0  0  0  0  0  0  0  0  0
   -5.0419   -1.3556   -0.7594 C   0  0  0  0  0  0  0  0  0  0  0  0
   -0.9538    1.6520   -0.5972 C   0  0  0  0  0  0  0  0  0  0  0  0
   -1.6409    1.0299   -1.6283 C   0  0  0  0  0  0  0  0  0  0  0  0
   -1.4880    1.6247    0.6857 C   0  0  0  0  0  0  0  0  0  0  0  0
   -2.6830    0.9772    0.9504 C   0  0  0  0  0  0  0  0  0  0  0  0
   -3.3701    0.3389   -0.0887 C   0  0  0  0  0  0  0  0  0  0  0  0
   -3.2726    0.9213    2.3237 C   0  0  0  0  0  0  0  0  0  0  0  0
   -2.8354    0.3766   -1.3756 C   0  0  0  0  0  0  0  0  0  0  0  0
    6.5866   -2.8022    0.3348 C   0  0  0  0  0  0  0  0  0  0  0  0
   -4.7839    0.9984    2.2092 C   0  0  0  0  0  0  0  0  0  0  0  0
   -5.3184   -0.0781    1.3007 C   0  0  0  0  0  0  0  0  0  0  0  0
   -4.6908   -3.6132   -1.7975 C   0  0  0  0  0  0  0  0  0  0  0  0
    6.8323   -0.0173    0.5341 F   0  0  0  0  0  0  0  0  0  0  0  0
   -4.5702   -0.3456    0.1828 N   0  0  0  0  0  0  0  0  0  0  0  0
    0.2677    2.3231   -0.8695 N   0  0  0  0  0  0  0  0  0  0  0  0
    2.6942    2.3657   -1.4497 O   0  0  0  0  0  0  0  0  0  0  0  0
   -6.3615   -0.6621    1.5350 O   0  0  0  0  0  0  0  0  0  0  0  0
    1.3477    0.2828   -1.8589 O   0  0  0  0  0  0  0  0  0  0  0  0
    1.6610    1.4337   -1.0315 S   0  0  1  0  0  0  0  0  0  0  0  0
    4.7256    1.4504    0.6617 H   0  0  0  0  0  0  0  0  0  0  0  0
    2.0107   -1.8646    0.4181 H   0  0  0  0  0  0  0  0  0  0  0  0
    1.1748    0.3492    1.0126 H   0  0  0  0  0  0  0  0  0  0  0  0
    2.2775    1.7221    1.2270 H   0  0  0  0  0  0  0  0  0  0  0  0
    3.9227   -3.4042    0.2921 H   0  0  0  0  0  0  0  0  0  0  0  0
   -3.1339   -2.3288   -1.0583 H   0  0  0  0  0  0  0  0  0  0  0  0
   -4.1228   -3.0369    0.2030 H   0  0  0  0  0  0  0  0  0  0  0  0
   -5.1312   -0.9151   -1.7550 H   0  0  0  0  0  0  0  0  0  0  0  0
   -6.0501   -1.6322   -0.4636 H   0  0  0  0  0  0  0  0  0  0  0  0
   -1.2561    1.0651   -2.6377 H   0  0  0  0  0  0  0  0  0  0  0  0
   -0.9642    2.1144    1.4992 H   0  0  0  0  0  0  0  0  0  0  0  0
   -2.9840   -0.0145    2.8138 H   0  0  0  0  0  0  0  0  0  0  0  0
   -2.8905    1.7324    2.9430 H   0  0  0  0  0  0  0  0  0  0  0  0
   -3.3420   -0.0922   -2.2066 H   0  0  0  0  0  0  0  0  0  0  0  0
    7.2250   -2.7041    1.2135 H   0  0  0  0  0  0  0  0  0  0  0  0
    6.2544   -3.8369    0.2794 H   0  0  0  0  0  0  0  0  0  0  0  0
    7.2082   -2.6056   -0.5397 H   0  0  0  0  0  0  0  0  0  0  0  0
   -5.2685    0.8985    3.1787 H   0  0  0  0  0  0  0  0  0  0  0  0
   -5.0758    1.9694    1.7952 H   0  0  0  0  0  0  0  0  0  0  0  0
   -5.6975   -3.9428   -1.5351 H   0  0  0  0  0  0  0  0  0  0  0  0
   -4.7327   -3.1923   -2.8038 H   0  0  0  0  0  0  0  0  0  0  0  0
   -4.0527   -4.4957   -1.8362 H   0  0  0  0  0  0  0  0  0  0  0  0
    0.4202    3.1825   -0.3509 H   0  0  0  0  0  0  0  0  0  0  0  0
 26 27  2  0
  4 27  1  0
  4  1  1  0
  3  1  1  0
  3  7  2  0
 27 24  2  0
 27 23  1  1
  1  2  2  0
  7  6  1  0
 23 10  1  0
  2  5  1  0
  6  5  2  0
  6 17  1  0
  5 21  1  0
 10 12  1  0
 10 11  2  0
 12 13  2  0
 11 16  1  0
 13 15  1  0
 13 14  1  0
 15 18  1  0
 16 14  2  0
 18 19  1  0
 14 22  1  0
 19 22  1  0
 19 25  2  0
 22  9  1  0
  9  8  1  0
  8 20  1  0
  2 28  1  0
  3 29  1  0
  4 30  1  0
  4 31  1  0
  7 32  1  0
  8 33  1  0
  8 34  1  0
  9 35  1  0
  9 36  1  0
 11 37  1  0
 12 38  1  0
 15 39  1  0
 15 40  1  0
 16 41  1  0
 17 42  1  0
 17 43  1  0
 17 44  1  0
 18 45  1  0
 18 46  1  0
 20 47  1  0
 20 48  1  0
 20 49  1  0
 23 50  1  0
M  END
