
     RDKit          3D

 36 38  0  0  0  0  0  0  0  0999 V2000
   -2.8063   -1.8926    0.2885 C   0  0  0  0  0  0  0  0  0  0  0  0
   -3.4871   -2.8111    1.1444 C   0  0  0  0  0  0  0  0  0  0  0  0
   -2.7395   -0.5479    0.6432 C   0  0  0  0  0  0  0  0  0  0  0  0
    1.6009   -1.7926    0.8092 C   0  0  0  0  0  0  0  0  0  0  0  0
    2.5921   -1.4044   -0.0613 C   0  0  0  0  0  0  0  0  0  0  0  0
    3.5909   -2.2629   -0.5622 C   0  0  0  0  0  0  0  0  0  0  0  0
    3.0624    0.9333   -1.1365 C   0  0  0  0  0  0  0  0  0  0  0  0
    2.5519    2.2200   -1.1495 C   0  0  0  0  0  0  0  0  0  0  0  0
    1.4238    2.5895   -0.4080 C   0  0  0  0  0  0  0  0  0  0  0  0
    0.7561    1.6741    0.3790 C   0  0  0  0  0  0  0  0  0  0  0  0
   -0.4142    2.0400    1.0871 N   0  0  0  0  0  0  0  0  0  0  0  0
   -1.8662    2.0146    0.2852 S   0  0  1  0  0  0  0  0  0  0  0  0
   -2.8731    2.3541    1.2715 O   0  0  0  0  0  0  0  0  0  0  0  0
   -1.7065    2.8003   -0.9211 O   0  0  0  0  0  0  0  0  0  0  0  0
   -2.0813    0.3237   -0.2077 C   0  0  0  0  0  0  0  0  0  0  0  0
   -1.5039   -0.1136   -1.3943 C   0  0  0  0  0  0  0  0  0  0  0  0
   -1.5709   -1.4582   -1.7256 C   0  0  0  0  0  0  0  0  0  0  0  0
   -2.2170   -2.3523   -0.8891 C   0  0  0  0  0  0  0  0  0  0  0  0
   -4.0360   -3.5543    1.8315 N   0  0  0  0  0  0  0  0  0  0  0  0
    1.2633    0.3706    0.4074 C   0  0  0  0  0  0  0  0  0  0  0  0
    0.8151   -0.7331    1.0822 N   0  0  0  0  0  0  0  0  0  0  0  0
    4.4063   -2.9726   -0.9676 N   0  0  0  0  0  0  0  0  0  0  0  0
    2.3963   -0.0050   -0.3338 C   0  0  0  0  0  0  0  0  0  0  0  0
   -3.1932   -0.2054    1.5636 H   0  0  0  0  0  0  0  0  0  0  0  0
    1.4160   -2.7589    1.2493 H   0  0  0  0  0  0  0  0  0  0  0  0
    4.0399   -0.2105   -2.6748 H   0  0  0  0  0  0  0  0  0  0  0  0
    4.6559    1.4270   -2.4799 H   0  0  0  0  0  0  0  0  0  0  0  0
    5.0706    0.1803   -1.3075 H   0  0  0  0  0  0  0  0  0  0  0  0
    3.0404    2.9720   -1.7562 H   0  0  0  0  0  0  0  0  0  0  0  0
    1.0675    3.6096   -0.4487 H   0  0  0  0  0  0  0  0  0  0  0  0
   -0.4860    1.7620    2.0604 H   0  0  0  0  0  0  0  0  0  0  0  0
   -1.0036    0.5786   -2.0578 H   0  0  0  0  0  0  0  0  0  0  0  0
   -1.1186   -1.8085   -2.6423 H   0  0  0  0  0  0  0  0  0  0  0  0
   -2.2710   -3.4009   -1.1472 H   0  0  0  0  0  0  0  0  0  0  0  0
    0.0438   -0.7603    1.7293 H   0  0  0  0  0  0  0  0  0  0  0  0
    4.2691    0.5639   -1.9408 C   0  0  0  0  0  0  0  0  0  0  0  0
 19  2  3  0
  2  1  1  0
  1 18  2  0
  1  3  1  0
 18 17  1  0
  3 15  2  0
 17 16  2  0
 15 16  1  0
 15 12  1  0
 14 12  2  0
 13 12  2  0
 12 11  1  1
 11 10  1  0
  9 10  1  0
  9  8  2  0
 10 20  2  0
  8  7  1  0
 20 21  1  0
 20 23  1  0
  7 23  2  0
  7 36  1  0
 21  4  1  0
 23  5  1  0
  4  5  2  0
  5  6  1  0
  6 22  3  0
  3 24  1  0
  4 25  1  0
 36 26  1  0
 36 27  1  0
 36 28  1  0
  8 29  1  0
  9 30  1  0
 11 31  1  0
 16 32  1  0
 17 33  1  0
 18 34  1  0
 21 35  1  0
M  END
