
     RDKit          3D

 41 44  0  0  0  0  0  0  0  0999 V2000
   -3.2482   -0.0089   -0.2463 C   0  0  2  0  0  0  0  0  0  0  0  0
   -2.4186   -1.2456    0.0622 C   0  0  0  0  0  0  0  0  0  0  0  0
   -1.0903   -1.2357   -0.6884 C   0  0  0  0  0  0  0  0  0  0  0  0
   -0.2186    0.0018   -0.4027 C   0  0  1  0  0  0  0  0  0  0  0  0
   -1.0994    1.2294   -0.7039 C   0  0  0  0  0  0  0  0  0  0  0  0
   -2.4285    1.2383    0.0452 C   0  0  0  0  0  0  0  0  0  0  0  0
    1.8840    1.2442   -1.1044 C   0  0  0  0  0  0  0  0  0  0  0  0
    1.1886    1.2533    1.3036 C   0  0  0  0  0  0  0  0  0  0  0  0
    2.3807    1.2644    0.3433 C   0  0  1  0  0  0  0  0  0  0  0  0
    0.3222    0.0127    1.0503 C   0  0  2  0  0  0  0  0  0  0  0  0
    1.1966   -1.2195    1.3179 C   0  0  0  0  0  0  0  0  0  0  0  0
    1.0166    0.0008   -1.3363 C   0  0  1  0  0  0  0  0  0  0  0  0
    1.8926   -1.2339   -1.0903 C   0  0  0  0  0  0  0  0  0  0  0  0
    2.3887   -1.2342    0.3578 C   0  0  1  0  0  0  0  0  0  0  0  0
    3.2361    0.0192    0.5902 C   0  0  0  0  0  0  0  0  0  0  0  0
   -4.4685   -0.0081    0.5507 N   0  0  0  0  0  0  0  0  0  0  0  0
   -3.4605   -0.0173   -1.3295 H   0  0  0  0  0  0  0  0  0  0  0  0
   -2.2506   -1.3000    1.1432 H   0  0  0  0  0  0  0  0  0  0  0  0
   -2.9780   -2.1472   -0.2073 H   0  0  0  0  0  0  0  0  0  0  0  0
   -0.5594   -2.1616   -0.4695 H   0  0  0  0  0  0  0  0  0  0  0  0
   -1.2908   -1.2624   -1.7670 H   0  0  0  0  0  0  0  0  0  0  0  0
   -0.5756    2.1613   -0.4941 H   0  0  0  0  0  0  0  0  0  0  0  0
   -1.2985    1.2423   -1.7830 H   0  0  0  0  0  0  0  0  0  0  0  0
   -2.9951    2.1315   -0.2372 H   0  0  0  0  0  0  0  0  0  0  0  0
   -2.2613    1.3092    1.1255 H   0  0  0  0  0  0  0  0  0  0  0  0
    1.3414    2.1622   -1.3427 H   0  0  0  0  0  0  0  0  0  0  0  0
    2.7426    1.2173   -1.7842 H   0  0  0  0  0  0  0  0  0  0  0  0
    1.5506    1.2301    2.3370 H   0  0  0  0  0  0  0  0  0  0  0  0
    0.6084    2.1746    1.2122 H   0  0  0  0  0  0  0  0  0  0  0  0
    2.9833    2.1625    0.5121 H   0  0  0  0  0  0  0  0  0  0  0  0
   -0.5120    0.0141    1.7583 H   0  0  0  0  0  0  0  0  0  0  0  0
    1.5589   -1.1825    2.3509 H   0  0  0  0  0  0  0  0  0  0  0  0
    0.6221   -2.1453    1.2367 H   0  0  0  0  0  0  0  0  0  0  0  0
    0.6609   -0.0064   -2.3739 H   0  0  0  0  0  0  0  0  0  0  0  0
    1.3568   -2.1584   -1.3187 H   0  0  0  0  0  0  0  0  0  0  0  0
    2.7515   -1.2085   -1.7700 H   0  0  0  0  0  0  0  0  0  0  0  0
    2.9970   -2.1264    0.5371 H   0  0  0  0  0  0  0  0  0  0  0  0
    4.0986    0.0181   -0.0860 H   0  0  0  0  0  0  0  0  0  0  0  0
    3.6336    0.0263    1.6107 H   0  0  0  0  0  0  0  0  0  0  0  0
   -5.0320    0.7950    0.2971 H   0  0  0  0  0  0  0  0  0  0  0  0
   -5.0288   -0.8157    0.3042 H   0  0  0  0  0  0  0  0  0  0  0  0
  8 10  1  0
  8  9  1  0
 10 11  1  0
 10  4  1  0
 11 14  1  0
  6  5  1  0
  6  1  1  0
 16  1  1  0
  9 15  1  0
  9  7  1  0
  4  5  1  6
  4  3  1  0
  4 12  1  0
 15 14  1  0
  3  2  1  0
 14 13  1  0
  1  2  1  0
  7 12  1  0
 12 13  1  0
  1 17  1  6
  2 18  1  0
  2 19  1  0
  3 20  1  0
  3 21  1  0
  5 22  1  0
  5 23  1  0
  6 24  1  0
  6 25  1  0
  7 26  1  0
  7 27  1  0
  8 28  1  0
  8 29  1  0
  9 30  1  6
 10 31  1  1
 11 32  1  0
 11 33  1  0
 12 34  1  6
 13 35  1  0
 13 36  1  0
 14 37  1  1
 15 38  1  0
 15 39  1  0
 16 40  1  0
 16 41  1  0
M  END
