
     RDKit          3D

 55 57  0  0  0  0  0  0  0  0999 V2000
   -5.5989   -0.9669    0.3767 C   0  0  0  0  0  0  0  0  0  0  0  0
   -4.4212   -0.2977    0.0507 C   0  0  0  0  0  0  0  0  0  0  0  0
   -4.4783    0.5527   -1.0853 C   0  0  0  0  0  0  0  0  0  0  0  0
   -5.5959    0.6963   -1.7861 N   0  0  0  0  0  0  0  0  0  0  0  0
   -6.7151   -0.8170   -0.3251 N   0  0  0  0  0  0  0  0  0  0  0  0
   -5.1583   -3.3209    1.0841 C   0  0  0  0  0  0  0  0  0  0  0  0
   -5.6415   -1.9369    1.5183 C   0  0  0  0  0  0  0  0  0  0  0  0
   -6.6618    0.0118   -1.3740 C   0  0  0  0  0  0  0  0  0  0  0  0
   -7.8033    0.1889   -2.0642 N   0  0  0  0  0  0  0  0  0  0  0  0
   -3.4041    1.2569   -1.4712 N   0  0  0  0  0  0  0  0  0  0  0  0
   -3.2138   -0.4273    0.7796 C   0  0  0  0  0  0  0  0  0  0  0  0
   -2.1492   -0.4822    1.3470 C   0  0  0  0  0  0  0  0  0  0  0  0
   -0.8581   -0.4969    2.0305 C   0  0  2  0  0  0  0  0  0  0  0  0
   -0.9885    0.0019    3.4763 C   0  0  0  0  0  0  0  0  0  0  0  0
    0.1576    0.3233    1.2574 C   0  0  0  0  0  0  0  0  0  0  0  0
    1.4297   -0.1866    1.0244 C   0  0  0  0  0  0  0  0  0  0  0  0
   -0.1640    1.5961    0.8140 C   0  0  0  0  0  0  0  0  0  0  0  0
    0.7759    2.3622    0.1255 C   0  0  0  0  0  0  0  0  0  0  0  0
    0.3670    3.5782   -0.2770 O   0  0  0  0  0  0  0  0  0  0  0  0
    1.2585    4.3833   -1.0234 C   0  0  0  0  0  0  0  0  0  0  0  0
    2.0461    1.8473   -0.1140 C   0  0  0  0  0  0  0  0  0  0  0  0
    2.3781    0.5698    0.3410 C   0  0  0  0  0  0  0  0  0  0  0  0
    3.7294    0.0291    0.0935 C   0  0  0  0  0  0  0  0  0  0  0  0
    3.9197   -1.3279   -0.1764 C   0  0  0  0  0  0  0  0  0  0  0  0
    5.1860   -1.8360   -0.3991 C   0  0  0  0  0  0  0  0  0  0  0  0
    6.3001   -1.0001   -0.3610 C   0  0  0  0  0  0  0  0  0  0  0  0
    7.6376   -1.5923   -0.6014 C   0  0  0  0  0  0  0  0  0  0  0  0
    7.8232   -2.7668   -0.8157 O   0  0  0  0  0  0  0  0  0  0  0  0
    8.6166   -0.6997   -0.5557 O   0  0  0  0  0  0  0  0  0  0  0  0
    6.1199    0.3562   -0.0956 C   0  0  0  0  0  0  0  0  0  0  0  0
    4.8507    0.8600    0.1287 C   0  0  0  0  0  0  0  0  0  0  0  0
   -5.7648   -3.7070    0.2645 H   0  0  0  0  0  0  0  0  0  0  0  0
   -4.1207   -3.2910    0.7518 H   0  0  0  0  0  0  0  0  0  0  0  0
   -5.2248   -4.0259    1.9122 H   0  0  0  0  0  0  0  0  0  0  0  0
   -5.0247   -1.5754    2.3430 H   0  0  0  0  0  0  0  0  0  0  0  0
   -6.6682   -2.0026    1.8803 H   0  0  0  0  0  0  0  0  0  0  0  0
   -7.7735    0.6618   -2.9502 H   0  0  0  0  0  0  0  0  0  0  0  0
   -8.5784   -0.4266   -1.8909 H   0  0  0  0  0  0  0  0  0  0  0  0
   -3.4302    1.7447   -2.3504 H   0  0  0  0  0  0  0  0  0  0  0  0
   -2.4987    1.0548   -1.0830 H   0  0  0  0  0  0  0  0  0  0  0  0
   -0.5003   -1.5308    2.0640 H   0  0  0  0  0  0  0  0  0  0  0  0
   -1.3343    1.0350    3.5024 H   0  0  0  0  0  0  0  0  0  0  0  0
   -1.6982   -0.6118    4.0302 H   0  0  0  0  0  0  0  0  0  0  0  0
   -0.0240   -0.0516    3.9807 H   0  0  0  0  0  0  0  0  0  0  0  0
    1.6833   -1.1707    1.3993 H   0  0  0  0  0  0  0  0  0  0  0  0
   -1.1503    2.0084    0.9960 H   0  0  0  0  0  0  0  0  0  0  0  0
    2.1589    4.6332   -0.4565 H   0  0  0  0  0  0  0  0  0  0  0  0
    1.5528    3.9034   -1.9600 H   0  0  0  0  0  0  0  0  0  0  0  0
    0.7249    5.3022   -1.2526 H   0  0  0  0  0  0  0  0  0  0  0  0
    2.7765    2.4131   -0.6765 H   0  0  0  0  0  0  0  0  0  0  0  0
    3.0689   -1.9939   -0.2329 H   0  0  0  0  0  0  0  0  0  0  0  0
    5.3059   -2.8901   -0.6096 H   0  0  0  0  0  0  0  0  0  0  0  0
    9.4687   -1.1348   -0.7069 H   0  0  0  0  0  0  0  0  0  0  0  0
    6.9632    1.0309   -0.0518 H   0  0  0  0  0  0  0  0  0  0  0  0
    4.7383    1.9120    0.3561 H   0  0  0  0  0  0  0  0  0  0  0  0
 10  3  1  0
 14 13  1  0
  3  4  2  0
  3  2  1  0
  4  8  1  0
 12 13  1  0
 12 11  3  0
 13 15  1  0
 11  2  1  0
  2  1  2  0
  8  9  1  0
  8  5  2  0
 15 16  2  0
 15 17  1  0
 16 22  1  0
  1  5  1  0
  1  7  1  0
 17 18  2  0
 24 25  2  0
 24 23  1  0
 25 26  1  0
 22 23  1  0
 22 21  2  0
  7  6  1  0
 28 27  2  0
 23 31  2  0
 18 21  1  0
 18 19  1  0
 26 27  1  0
 26 30  2  0
 27 29  1  0
 31 30  1  0
 19 20  1  0
  6 32  1  0
  6 33  1  0
  6 34  1  0
  7 35  1  0
  7 36  1  0
  9 37  1  0
  9 38  1  0
 10 39  1  0
 10 40  1  0
 13 41  1  1
 14 42  1  0
 14 43  1  0
 14 44  1  0
 16 45  1  0
 17 46  1  0
 20 47  1  0
 20 48  1  0
 20 49  1  0
 21 50  1  0
 24 51  1  0
 25 52  1  0
 29 53  1  0
 30 54  1  0
 31 55  1  0
M  END
