
     RDKit          3D

 30 30  0  0  0  0  0  0  0  0999 V2000
   -0.9073    1.2266   -0.2308 N   0  0  0  0  0  0  0  0  0  0  0  0
   -0.2598    2.5261   -0.0901 C   0  0  0  0  0  0  0  0  0  0  0  0
   -2.9852    2.1716   -0.1523 O   0  0  0  0  0  0  0  0  0  0  0  0
   -2.7497   -2.3273   -0.3752 O   0  0  0  0  0  0  0  0  0  0  0  0
   -2.8137   -0.0755   -0.2667 N   0  0  0  0  0  0  0  0  0  0  0  0
   -2.2802    1.1828   -0.2154 C   0  0  0  0  0  0  0  0  0  0  0  0
   -2.1358   -1.2737   -0.3454 C   0  0  0  0  0  0  0  0  0  0  0  0
   -0.6948   -1.1543   -0.4038 C   0  0  0  0  0  0  0  0  0  0  0  0
    0.0772   -2.4275   -0.5568 C   0  0  0  0  0  0  0  0  0  0  0  0
   -0.1392    0.0845   -0.3445 C   0  0  0  0  0  0  0  0  0  0  0  0
    1.3093    0.3045   -0.4983 C   0  0  0  0  0  0  0  0  0  0  0  0
    2.2519   -0.0110    0.3851 C   0  0  0  0  0  0  0  0  0  0  0  0
    2.0062   -0.5863    1.7558 C   0  0  0  0  0  0  0  0  0  0  0  0
    3.7082    0.1932    0.0956 C   0  0  0  0  0  0  0  0  0  0  0  0
    0.7670   -0.2678    2.3311 O   0  0  0  0  0  0  0  0  0  0  0  0
    3.9257    0.4969   -1.2532 O   0  0  0  0  0  0  0  0  0  0  0  0
   -0.9921    3.2552    0.2358 H   0  0  0  0  0  0  0  0  0  0  0  0
    0.5281    2.4625    0.6549 H   0  0  0  0  0  0  0  0  0  0  0  0
    0.1662    2.8577   -1.0356 H   0  0  0  0  0  0  0  0  0  0  0  0
   -3.8247   -0.1205   -0.2459 H   0  0  0  0  0  0  0  0  0  0  0  0
   -0.3281   -3.0287   -1.3712 H   0  0  0  0  0  0  0  0  0  0  0  0
    1.1267   -2.2435   -0.7692 H   0  0  0  0  0  0  0  0  0  0  0  0
    0.0210   -3.0430    0.3440 H   0  0  0  0  0  0  0  0  0  0  0  0
    1.5972    0.7591   -1.4411 H   0  0  0  0  0  0  0  0  0  0  0  0
    2.1740   -1.6711    1.7117 H   0  0  0  0  0  0  0  0  0  0  0  0
    2.7767   -0.1974    2.4287 H   0  0  0  0  0  0  0  0  0  0  0  0
    4.0709    0.9913    0.7592 H   0  0  0  0  0  0  0  0  0  0  0  0
    4.2467   -0.7162    0.4030 H   0  0  0  0  0  0  0  0  0  0  0  0
    0.1047   -0.8891    2.0176 H   0  0  0  0  0  0  0  0  0  0  0  0
    4.8505    0.7365   -1.3612 H   0  0  0  0  0  0  0  0  0  0  0  0
 15 13  1  0
  9  8  1  0
 14 12  1  0
 14 16  1  0
  4  7  2  0
 12 13  1  0
 12 11  2  0
  8  7  1  0
  8 10  2  0
  7  5  1  0
 11 10  1  0
 10  1  1  0
  5  6  1  0
  1  6  1  0
  1  2  1  0
  6  3  2  0
  2 17  1  0
  2 18  1  0
  2 19  1  0
  5 20  1  0
  9 21  1  0
  9 22  1  0
  9 23  1  0
 11 24  1  0
 13 25  1  0
 13 26  1  0
 14 27  1  0
 14 28  1  0
 15 29  1  0
 16 30  1  0
M  END
