
     RDKit          3D

 43 45  0  0  0  0  0  0  0  0999 V2000
   -0.8477    0.8115    0.9387 C   0  0  0  0  0  0  0  0  0  0  0  0
   -0.9840    1.8674   -0.1563 C   0  0  0  0  0  0  0  0  0  0  0  0
   -1.9032    4.1271   -0.3783 C   0  0  0  0  0  0  0  0  0  0  0  0
   -1.3817    4.2923   -1.4748 O   0  0  0  0  0  0  0  0  0  0  0  0
   -2.7559    5.1907    0.2673 C   0  0  0  0  0  0  0  0  0  0  0  0
   -1.7515    2.9957    0.3257 N   0  0  0  0  0  0  0  0  0  0  0  0
    3.6747    0.4013    0.0804 C   0  0  0  0  0  0  0  0  0  0  0  0
    2.3586    0.6847    0.4112 C   0  0  0  0  0  0  0  0  0  0  0  0
    1.3873   -0.3039    0.2344 C   0  0  0  0  0  0  0  0  0  0  0  0
    5.9244    1.1707   -0.0371 C   0  0  0  0  0  0  0  0  0  0  0  0
   -2.2414   -2.9327   -0.9611 C   0  0  0  0  0  0  0  0  0  0  0  0
   -3.4981   -3.5189   -0.9403 C   0  0  0  0  0  0  0  0  0  0  0  0
   -4.3120   -3.3874    0.1774 C   0  0  0  0  0  0  0  0  0  0  0  0
   -3.8573   -2.6726    1.2779 C   0  0  0  0  0  0  0  0  0  0  0  0
   -2.5976   -2.0918    1.2625 C   0  0  0  0  0  0  0  0  0  0  0  0
   -1.7775   -2.2069    0.1389 C   0  0  0  0  0  0  0  0  0  0  0  0
    0.6240   -2.3196   -0.3652 N   0  0  0  0  0  0  0  0  0  0  0  0
   -0.0224   -0.3462    0.4833 C   0  0  0  0  0  0  0  0  0  0  0  0
   -0.4427   -1.6037    0.1142 C   0  0  0  0  0  0  0  0  0  0  0  0
    1.7575   -1.5601   -0.2871 C   0  0  0  0  0  0  0  0  0  0  0  0
    3.0750   -1.8491   -0.6147 C   0  0  0  0  0  0  0  0  0  0  0  0
    4.0290   -0.8630   -0.4281 C   0  0  0  0  0  0  0  0  0  0  0  0
   -0.3930    1.2683    1.8241 H   0  0  0  0  0  0  0  0  0  0  0  0
   -1.8444    0.4829    1.2380 H   0  0  0  0  0  0  0  0  0  0  0  0
    0.0029    2.2087   -0.4754 H   0  0  0  0  0  0  0  0  0  0  0  0
   -1.4659    1.4224   -1.0320 H   0  0  0  0  0  0  0  0  0  0  0  0
   -3.1383    4.9096    1.2466 H   0  0  0  0  0  0  0  0  0  0  0  0
   -2.1747    6.1065    0.3738 H   0  0  0  0  0  0  0  0  0  0  0  0
   -3.6032    5.4189   -0.3795 H   0  0  0  0  0  0  0  0  0  0  0  0
   -2.2330    2.9014    1.2049 H   0  0  0  0  0  0  0  0  0  0  0  0
    2.0980    1.6600    0.8062 H   0  0  0  0  0  0  0  0  0  0  0  0
    6.4573    2.0904    0.1942 H   0  0  0  0  0  0  0  0  0  0  0  0
    6.3545    0.3607    0.5586 H   0  0  0  0  0  0  0  0  0  0  0  0
    6.0699    0.9408   -1.0964 H   0  0  0  0  0  0  0  0  0  0  0  0
   -1.6224   -3.0264   -1.8451 H   0  0  0  0  0  0  0  0  0  0  0  0
   -3.8439   -4.0751   -1.8018 H   0  0  0  0  0  0  0  0  0  0  0  0
   -5.2926   -3.8448    0.1936 H   0  0  0  0  0  0  0  0  0  0  0  0
   -4.4804   -2.5784    2.1578 H   0  0  0  0  0  0  0  0  0  0  0  0
   -2.2397   -1.5688    2.1399 H   0  0  0  0  0  0  0  0  0  0  0  0
    0.5949   -3.2985   -0.5982 H   0  0  0  0  0  0  0  0  0  0  0  0
    3.3630   -2.8158   -1.0072 H   0  0  0  0  0  0  0  0  0  0  0  0
    5.0551   -1.0907   -0.6821 H   0  0  0  0  0  0  0  0  0  0  0  0
    4.5689    1.4015    0.2770 O   0  0  0  0  0  0  0  0  0  0  0  0
 13 14  2  0
 13 12  1  0
 14 15  1  0
 12 11  2  0
 15 16  2  0
  4  3  2  0
 11 16  1  0
 16 19  1  0
  5  3  1  0
  3  6  1  0
  6  2  1  0
  2  1  1  0
  1 18  1  0
 19 18  2  0
 19 17  1  0
 18  9  1  0
 17 20  1  0
  9 20  2  0
  9  8  1  0
 20 21  1  0
  8  7  2  0
 21 22  2  0
  7 22  1  0
  7 43  1  0
 43 10  1  0
  1 23  1  0
  1 24  1  0
  2 25  1  0
  2 26  1  0
  5 27  1  0
  5 28  1  0
  5 29  1  0
  6 30  1  0
  8 31  1  0
 10 32  1  0
 10 33  1  0
 10 34  1  0
 11 35  1  0
 12 36  1  0
 13 37  1  0
 14 38  1  0
 15 39  1  0
 17 40  1  0
 21 41  1  0
 22 42  1  0
M  END
