
     RDKit          3D

 45 46  0  0  0  0  0  0  0  0999 V2000
   -4.8424    3.3523   -0.2714 C   0  0  0  0  0  0  0  0  0  0  0  0
   -2.8242    0.1590   -0.3906 C   0  0  0  0  0  0  0  0  0  0  0  0
   -3.1337    1.5073   -0.4214 C   0  0  0  0  0  0  0  0  0  0  0  0
   -4.4570    1.9060   -0.2028 C   0  0  0  0  0  0  0  0  0  0  0  0
   -5.3972    0.9273    0.0486 C   0  0  0  0  0  0  0  0  0  0  0  0
   -4.9933   -0.4185    0.0686 C   0  0  0  0  0  0  0  0  0  0  0  0
   -5.8857   -1.4085    0.3638 N   0  0  0  0  0  0  0  0  0  0  0  0
   -3.7350   -0.7858   -0.1519 N   0  0  0  0  0  0  0  0  0  0  0  0
   -0.8264   -0.9927    0.6281 C   0  0  0  0  0  0  0  0  0  0  0  0
    3.0602   -2.4227   -0.1979 C   0  0  0  0  0  0  0  0  0  0  0  0
    2.9645   -1.1842    0.4264 C   0  0  0  0  0  0  0  0  0  0  0  0
    1.6848   -0.7186    0.7114 C   0  0  0  0  0  0  0  0  0  0  0  0
    0.5710   -1.4777    0.3788 C   0  0  0  0  0  0  0  0  0  0  0  0
    0.8037   -2.7037   -0.2400 C   0  0  0  0  0  0  0  0  0  0  0  0
    2.0118   -3.1698   -0.5226 N   0  0  0  0  0  0  0  0  0  0  0  0
    4.3462    0.7867   -0.2379 C   0  0  0  0  0  0  0  0  0  0  0  0
    5.5738    1.5338   -0.0490 N   0  0  0  0  0  0  0  0  0  0  0  0
    5.8099    2.4220   -1.1674 C   0  0  0  0  0  0  0  0  0  0  0  0
    5.5926    2.2703    1.1972 C   0  0  0  0  0  0  0  0  0  0  0  0
   -5.0732    3.6339   -1.3007 H   0  0  0  0  0  0  0  0  0  0  0  0
   -5.7245    3.5649    0.3309 H   0  0  0  0  0  0  0  0  0  0  0  0
   -4.0315    3.9974    0.0653 H   0  0  0  0  0  0  0  0  0  0  0  0
   -2.3604    2.2409   -0.6122 H   0  0  0  0  0  0  0  0  0  0  0  0
   -1.4095   -1.0326   -1.4454 H   0  0  0  0  0  0  0  0  0  0  0  0
   -0.7858    0.5205   -0.9140 H   0  0  0  0  0  0  0  0  0  0  0  0
   -6.4334    1.1851    0.2336 H   0  0  0  0  0  0  0  0  0  0  0  0
   -6.8629   -1.2144    0.2240 H   0  0  0  0  0  0  0  0  0  0  0  0
   -5.6109   -2.3441    0.1139 H   0  0  0  0  0  0  0  0  0  0  0  0
   -0.8288   -0.2850    1.4605 H   0  0  0  0  0  0  0  0  0  0  0  0
   -1.4664   -1.8286    0.9191 H   0  0  0  0  0  0  0  0  0  0  0  0
    4.0383   -2.8287   -0.4393 H   0  0  0  0  0  0  0  0  0  0  0  0
    1.5545    0.2392    1.2053 H   0  0  0  0  0  0  0  0  0  0  0  0
    4.1197   -0.0069    1.7703 H   0  0  0  0  0  0  0  0  0  0  0  0
    5.0768   -1.0076    0.6895 H   0  0  0  0  0  0  0  0  0  0  0  0
   -0.0357   -3.3380   -0.5119 H   0  0  0  0  0  0  0  0  0  0  0  0
    4.3561    0.3743   -1.2509 H   0  0  0  0  0  0  0  0  0  0  0  0
    3.4569    1.4395   -0.1785 H   0  0  0  0  0  0  0  0  0  0  0  0
    5.0318    3.1935   -1.2819 H   0  0  0  0  0  0  0  0  0  0  0  0
    6.7654    2.9338   -1.0433 H   0  0  0  0  0  0  0  0  0  0  0  0
    5.8547    1.8540   -2.0977 H   0  0  0  0  0  0  0  0  0  0  0  0
    5.5213    1.6000    2.0532 H   0  0  0  0  0  0  0  0  0  0  0  0
    6.5352    2.8117    1.2894 H   0  0  0  0  0  0  0  0  0  0  0  0
    4.7758    3.0058    1.2764 H   0  0  0  0  0  0  0  0  0  0  0  0
   -1.4176   -0.3191   -0.6162 C   0  0  0  0  0  0  0  0  0  0  0  0
    4.1876   -0.3755    0.7440 C   0  0  0  0  0  0  0  0  0  0  0  0
  1  4  1  0
  2  3  2  0
  2  8  1  0
  2 44  1  0
  3  4  1  0
  4  5  2  0
  5  6  1  0
  6  7  1  0
  6  8  2  0
 44  9  1  0
  9 13  1  0
 10 11  2  0
 10 15  1  0
 11 12  1  0
 11 45  1  0
 12 13  2  0
 13 14  1  0
 14 15  2  0
 45 16  1  0
 16 17  1  0
 17 18  1  0
 17 19  1  0
  1 20  1  0
  1 21  1  0
  1 22  1  0
  3 23  1  0
 44 24  1  0
 44 25  1  0
  5 26  1  0
  7 27  1  0
  7 28  1  0
  9 29  1  0
  9 30  1  0
 10 31  1  0
 12 32  1  0
 45 33  1  0
 45 34  1  0
 14 35  1  0
 16 36  1  0
 16 37  1  0
 18 38  1  0
 18 39  1  0
 18 40  1  0
 19 41  1  0
 19 42  1  0
 19 43  1  0
M  END
