
     RDKit          3D

 29 30  0  0  0  0  0  0  0  0999 V2000
    4.8110   -1.6512    0.0398 C   0  0  0  0  0  0  0  0  0  0  0  0
    1.3062    0.6605   -0.0125 C   0  0  0  0  0  0  0  0  0  0  0  0
   -1.0620    2.1093   -0.0332 C   0  0  0  0  0  0  0  0  0  0  0  0
    0.2019    0.1014    0.3715 N   0  0  0  0  0  0  0  0  0  0  0  0
    0.1784    2.7256   -0.4403 C   0  0  0  0  0  0  0  0  0  0  0  0
    1.3282    2.0241   -0.4378 C   0  0  0  0  0  0  0  0  0  0  0  0
   -0.9228    0.7958    0.3766 N   0  0  0  0  0  0  0  0  0  0  0  0
   -2.1020    0.0474    0.7951 C   0  0  0  0  0  0  0  0  0  0  0  0
   -2.8026   -0.5655   -0.4085 C   0  0  0  0  0  0  0  0  0  0  0  0
   -4.0120   -1.3641   -0.0119 C   0  0  0  0  0  0  0  0  0  0  0  0
   -4.4097   -1.4926    1.1189 O   0  0  0  0  0  0  0  0  0  0  0  0
   -4.6032   -1.9167   -1.0632 O   0  0  0  0  0  0  0  0  0  0  0  0
   -2.1558    2.6590   -0.0399 O   0  0  0  0  0  0  0  0  0  0  0  0
    2.5144   -0.1811   -0.0019 C   0  0  0  0  0  0  0  0  0  0  0  0
    2.4320   -1.5712   -0.0710 C   0  0  0  0  0  0  0  0  0  0  0  0
    3.7868    0.3794    0.0920 C   0  0  0  0  0  0  0  0  0  0  0  0
    4.9068   -0.3299    0.1116 N   0  0  0  0  0  0  0  0  0  0  0  0
    3.5958   -2.3165   -0.0492 C   0  0  0  0  0  0  0  0  0  0  0  0
    5.7411   -2.2084    0.0531 H   0  0  0  0  0  0  0  0  0  0  0  0
    0.1422    3.7564   -0.7652 H   0  0  0  0  0  0  0  0  0  0  0  0
    2.2493    2.4818   -0.7715 H   0  0  0  0  0  0  0  0  0  0  0  0
   -1.7607   -0.7219    1.4831 H   0  0  0  0  0  0  0  0  0  0  0  0
   -2.7653    0.7177    1.3364 H   0  0  0  0  0  0  0  0  0  0  0  0
   -3.1169    0.2135   -1.1080 H   0  0  0  0  0  0  0  0  0  0  0  0
   -2.1155   -1.2137   -0.9597 H   0  0  0  0  0  0  0  0  0  0  0  0
   -5.3862   -2.4130   -0.7813 H   0  0  0  0  0  0  0  0  0  0  0  0
    1.4696   -2.0589   -0.1521 H   0  0  0  0  0  0  0  0  0  0  0  0
    3.9114    1.4540    0.1703 H   0  0  0  0  0  0  0  0  0  0  0  0
    3.5673   -3.3956   -0.1065 H   0  0  0  0  0  0  0  0  0  0  0  0
  1 18  2  0
  1 17  1  0
 18 15  1  0
 17 16  2  0
 15 14  2  0
 16 14  1  0
 14  2  1  0
  2  4  2  0
  2  6  1  0
  4  7  1  0
  6  5  2  0
 11 10  2  0
  9 10  1  0
  9  8  1  0
  7  8  1  0
  7  3  1  0
 10 12  1  0
  5  3  1  0
  3 13  2  0
  1 19  1  0
  5 20  1  0
  6 21  1  0
  8 22  1  0
  8 23  1  0
  9 24  1  0
  9 25  1  0
 12 26  1  0
 15 27  1  0
 16 28  1  0
 18 29  1  0
M  END
