
     RDKit          3D

 33 35  0  0  0  0  0  0  0  0999 V2000
   -4.3965    1.2787   -0.2365 C   0  0  0  0  0  0  0  0  0  0  0  0
   -5.1659    1.5559    0.8874 C   0  0  0  0  0  0  0  0  0  0  0  0
   -5.4254    0.5591    1.8176 C   0  0  0  0  0  0  0  0  0  0  0  0
   -4.9131   -0.7169    1.6142 C   0  0  0  0  0  0  0  0  0  0  0  0
   -4.1446   -0.9886    0.4914 C   0  0  0  0  0  0  0  0  0  0  0  0
   -3.8758    0.0055   -0.4473 C   0  0  0  0  0  0  0  0  0  0  0  0
   -3.0066   -0.2911   -1.6452 C   0  0  0  0  0  0  0  0  0  0  0  0
   -1.5451   -0.2897   -1.2758 C   0  0  0  0  0  0  0  0  0  0  0  0
   -0.8749   -1.4778   -0.9952 C   0  0  0  0  0  0  0  0  0  0  0  0
    0.4565   -1.4762   -0.6142 C   0  0  0  0  0  0  0  0  0  0  0  0
   -0.8354    0.9021   -1.1675 C   0  0  0  0  0  0  0  0  0  0  0  0
    0.4976    0.9101   -0.7881 C   0  0  0  0  0  0  0  0  0  0  0  0
    1.1677   -0.2806   -0.5007 C   0  0  0  0  0  0  0  0  0  0  0  0
    2.5793   -0.2594   -0.0967 C   0  0  0  0  0  0  0  0  0  0  0  0
    3.2466    0.9409   -0.0692 N   0  0  0  0  0  0  0  0  0  0  0  0
    4.4768    0.7932    0.3075 C   0  0  0  0  0  0  0  0  0  0  0  0
    5.3863    1.7923    0.3719 N   0  0  0  0  0  0  0  0  0  0  0  0
    4.9254   -0.8538    0.6657 S   0  0  0  0  0  0  0  0  0  0  0  0
    3.3177   -1.3403    0.2699 C   0  0  0  0  0  0  0  0  0  0  0  0
   -4.2046    2.0630   -0.9598 H   0  0  0  0  0  0  0  0  0  0  0  0
   -5.5644    2.5519    1.0334 H   0  0  0  0  0  0  0  0  0  0  0  0
   -6.0262    0.7720    2.6924 H   0  0  0  0  0  0  0  0  0  0  0  0
   -5.1156   -1.5033    2.3304 H   0  0  0  0  0  0  0  0  0  0  0  0
   -3.7510   -1.9876    0.3418 H   0  0  0  0  0  0  0  0  0  0  0  0
   -3.2759   -1.2643   -2.0614 H   0  0  0  0  0  0  0  0  0  0  0  0
   -3.1921    0.4502   -2.4251 H   0  0  0  0  0  0  0  0  0  0  0  0
   -1.3987   -2.4223   -1.0837 H   0  0  0  0  0  0  0  0  0  0  0  0
    0.9397   -2.4235   -0.4104 H   0  0  0  0  0  0  0  0  0  0  0  0
   -1.3273    1.8431   -1.3850 H   0  0  0  0  0  0  0  0  0  0  0  0
    1.0260    1.8509   -0.7129 H   0  0  0  0  0  0  0  0  0  0  0  0
    5.0099    2.7272    0.3862 H   0  0  0  0  0  0  0  0  0  0  0  0
    6.1977    1.6671    0.9539 H   0  0  0  0  0  0  0  0  0  0  0  0
    3.0264   -2.3755    0.3399 H   0  0  0  0  0  0  0  0  0  0  0  0
  2  3  1  0
  2  1  2  0
  3  4  2  0
  1  6  1  0
  4  5  1  0
 11 12  2  0
 11  8  1  0
 12 13  1  0
  6  5  2  0
  6  7  1  0
 17 16  1  0
 15 16  2  0
 15 14  1  0
  7  8  1  0
 16 18  1  0
  8  9  2  0
 13 14  1  0
 13 10  2  0
 14 19  2  0
  9 10  1  0
 18 19  1  0
  1 20  1  0
  2 21  1  0
  3 22  1  0
  4 23  1  0
  5 24  1  0
  7 25  1  0
  7 26  1  0
  9 27  1  0
 10 28  1  0
 11 29  1  0
 12 30  1  0
 17 31  1  0
 17 32  1  0
 19 33  1  0
M  END
