
     RDKit          3D

 40 42  0  0  0  0  0  0  0  0999 V2000
    1.9610   -1.1857   -0.5656 C   0  0  0  0  0  0  0  0  0  0  0  0
    1.8850    0.1827   -0.3163 C   0  0  0  0  0  0  0  0  0  0  0  0
    0.7299    1.0005   -0.8141 C   0  0  0  0  0  0  0  0  0  0  0  0
   -0.4156    1.0320    0.2129 C   0  0  0  0  0  0  0  0  0  0  0  0
   -1.5630    1.8496   -0.2688 C   0  0  0  0  0  0  0  0  0  0  0  0
   -2.8320    3.5011   -0.7519 C   0  0  0  0  0  0  0  0  0  0  0  0
   -3.4163    2.4022   -1.3077 C   0  0  0  0  0  0  0  0  0  0  0  0
   -3.4339   -0.7883   -0.1175 C   0  0  0  0  0  0  0  0  0  0  0  0
   -4.6087   -0.3501    0.4900 C   0  0  0  0  0  0  0  0  0  0  0  0
   -5.1444   -1.0397    1.5669 C   0  0  0  0  0  0  0  0  0  0  0  0
   -4.5139   -2.1811    2.0495 C   0  0  0  0  0  0  0  0  0  0  0  0
   -3.3450   -2.6249    1.4493 C   0  0  0  0  0  0  0  0  0  0  0  0
   -2.8082   -1.9294    0.3720 C   0  0  0  0  0  0  0  0  0  0  0  0
    2.8976    0.7561    0.4494 C   0  0  0  0  0  0  0  0  0  0  0  0
    3.9648    0.0013    0.9353 C   0  0  0  0  0  0  0  0  0  0  0  0
    4.0164   -1.3578    0.6601 C   0  0  0  0  0  0  0  0  0  0  0  0
    3.0162   -1.9619   -0.0879 C   0  0  0  0  0  0  0  0  0  0  0  0
   -1.6799    3.1459   -0.1108 N   0  0  0  0  0  0  0  0  0  0  0  0
   -2.5933    1.3528   -0.9985 N   0  0  0  0  0  0  0  0  0  0  0  0
    4.9023    0.6265    1.6559 O   0  0  0  0  0  0  0  0  0  0  0  0
    3.0175   -3.2686   -0.3734 O   0  0  0  0  0  0  0  0  0  0  0  0
    0.7343   -1.9924   -1.4870 Cl  0  0  0  0  0  0  0  0  0  0  0  0
    2.8657    2.4425    0.8421 Cl  0  0  0  0  0  0  0  0  0  0  0  0
    1.0525    2.0213   -1.0160 H   0  0  0  0  0  0  0  0  0  0  0  0
    0.3717    0.5981   -1.7617 H   0  0  0  0  0  0  0  0  0  0  0  0
   -0.7323    0.0144    0.4495 H   0  0  0  0  0  0  0  0  0  0  0  0
   -0.0549    1.4697    1.1446 H   0  0  0  0  0  0  0  0  0  0  0  0
   -3.1785    4.5227   -0.7811 H   0  0  0  0  0  0  0  0  0  0  0  0
   -4.3169    2.2712   -1.8845 H   0  0  0  0  0  0  0  0  0  0  0  0
   -1.9437   -0.5203   -1.6418 H   0  0  0  0  0  0  0  0  0  0  0  0
   -3.5552   -0.0641   -2.1364 H   0  0  0  0  0  0  0  0  0  0  0  0
   -5.1135    0.5354    0.1216 H   0  0  0  0  0  0  0  0  0  0  0  0
   -6.0582   -0.6890    2.0289 H   0  0  0  0  0  0  0  0  0  0  0  0
   -4.9336   -2.7208    2.8886 H   0  0  0  0  0  0  0  0  0  0  0  0
   -2.8450   -3.5108    1.8190 H   0  0  0  0  0  0  0  0  0  0  0  0
   -1.8917   -2.2805   -0.0876 H   0  0  0  0  0  0  0  0  0  0  0  0
    4.8400   -1.9537    1.0387 H   0  0  0  0  0  0  0  0  0  0  0  0
    5.5886    0.0051    1.9264 H   0  0  0  0  0  0  0  0  0  0  0  0
    3.7869   -3.6998    0.0171 H   0  0  0  0  0  0  0  0  0  0  0  0
   -2.8599   -0.0419   -1.2965 C   0  0  0  0  0  0  0  0  0  0  0  0
 21 17  1  0
 16 17  1  0
 16 15  2  0
 20 15  1  0
 17  1  2  0
 15 14  1  0
  1 22  1  0
  1  2  1  0
 14  2  2  0
 14 23  1  0
  2  3  1  0
 11 12  2  0
 11 10  1  0
 12 13  1  0
  3  4  1  0
 10  9  2  0
 13  8  2  0
  9  8  1  0
  8 40  1  0
  4  5  1  0
 40 19  1  0
  5 19  1  0
  5 18  2  0
 19  7  1  0
 18  6  1  0
  7  6  2  0
  3 24  1  0
  3 25  1  0
  4 26  1  0
  4 27  1  0
  6 28  1  0
  7 29  1  0
 40 30  1  0
 40 31  1  0
  9 32  1  0
 10 33  1  0
 11 34  1  0
 12 35  1  0
 13 36  1  0
 16 37  1  0
 20 38  1  0
 21 39  1  0
M  END
