
     RDKit          3D

 43 45  0  0  0  0  0  0  0  0999 V2000
    4.4739    2.8535    0.3299 C   0  0  0  0  0  0  0  0  0  0  0  0
    4.8858    1.5838    0.7075 C   0  0  0  0  0  0  0  0  0  0  0  0
   -2.5449   -0.4180   -1.1657 C   0  0  0  0  0  0  0  0  0  0  0  0
    3.2061    3.0312   -0.2070 C   0  0  0  0  0  0  0  0  0  0  0  0
    4.0270    0.5047    0.5484 C   0  0  0  0  0  0  0  0  0  0  0  0
   -1.4569    0.4137   -1.2086 C   0  0  0  0  0  0  0  0  0  0  0  0
   -2.8746    0.2083    1.0927 C   0  0  0  0  0  0  0  0  0  0  0  0
   -3.2872   -0.5631    0.0127 C   0  0  0  0  0  0  0  0  0  0  0  0
    2.3387    1.9559   -0.3720 C   0  0  0  0  0  0  0  0  0  0  0  0
    2.7524    0.6783    0.0157 C   0  0  0  0  0  0  0  0  0  0  0  0
   -1.1114    1.1348   -0.0450 C   0  0  0  0  0  0  0  0  0  0  0  0
    2.3514   -1.4339   -1.0669 C   0  0  0  0  0  0  0  0  0  0  0  0
    1.4437   -1.0090    1.1162 C   0  0  0  0  0  0  0  0  0  0  0  0
    1.2911   -2.5022   -1.2530 C   0  0  0  0  0  0  0  0  0  0  0  0
    0.4303   -2.1114    0.8694 C   0  0  0  0  0  0  0  0  0  0  0  0
    0.9687    2.1724   -0.9596 C   0  0  0  0  0  0  0  0  0  0  0  0
   -1.8373    1.0261    1.0763 N   0  0  0  0  0  0  0  0  0  0  0  0
    1.8587   -0.4176   -0.1488 N   0  0  0  0  0  0  0  0  0  0  0  0
   -4.9593   -1.7986    1.2327 N   0  0  0  0  0  0  0  0  0  0  0  0
   -0.0705    1.9851    0.0227 N   0  0  0  0  0  0  0  0  0  0  0  0
   -4.9579   -1.8757   -1.0167 O   0  0  0  0  0  0  0  0  0  0  0  0
    0.9273   -3.0863   -0.0217 O   0  0  0  0  0  0  0  0  0  0  0  0
    5.1343    3.7019    0.4526 H   0  0  0  0  0  0  0  0  0  0  0  0
    5.8721    1.4310    1.1266 H   0  0  0  0  0  0  0  0  0  0  0  0
   -2.8241   -0.9738   -2.0512 H   0  0  0  0  0  0  0  0  0  0  0  0
    2.8818    4.0220   -0.5031 H   0  0  0  0  0  0  0  0  0  0  0  0
    4.3557   -0.4850    0.8421 H   0  0  0  0  0  0  0  0  0  0  0  0
   -0.8885    0.5062   -2.1218 H   0  0  0  0  0  0  0  0  0  0  0  0
   -3.4193    0.1888    2.0317 H   0  0  0  0  0  0  0  0  0  0  0  0
    3.2834   -1.9047   -0.7144 H   0  0  0  0  0  0  0  0  0  0  0  0
    2.5668   -0.9741   -2.0339 H   0  0  0  0  0  0  0  0  0  0  0  0
    0.9834   -0.2401    1.7408 H   0  0  0  0  0  0  0  0  0  0  0  0
    2.2967   -1.4195    1.6804 H   0  0  0  0  0  0  0  0  0  0  0  0
    0.4124   -2.0627   -1.7455 H   0  0  0  0  0  0  0  0  0  0  0  0
    1.6737   -3.2994   -1.8923 H   0  0  0  0  0  0  0  0  0  0  0  0
    0.1998   -2.6153    1.8097 H   0  0  0  0  0  0  0  0  0  0  0  0
   -0.5006   -1.6787    0.4807 H   0  0  0  0  0  0  0  0  0  0  0  0
    0.9124    3.1810   -1.3792 H   0  0  0  0  0  0  0  0  0  0  0  0
    0.8133    1.4809   -1.7833 H   0  0  0  0  0  0  0  0  0  0  0  0
   -4.4776   -1.6058    2.0928 H   0  0  0  0  0  0  0  0  0  0  0  0
   -5.7472   -2.4230    1.2860 H   0  0  0  0  0  0  0  0  0  0  0  0
    0.0505    2.4445    0.9123 H   0  0  0  0  0  0  0  0  0  0  0  0
   -4.4630   -1.4651    0.0277 C   0  0  0  0  0  0  0  0  0  0  0  0
  2  5  1  0
  2  1  2  0
  5 10  2  0
  1  4  1  0
 12 18  1  0
 12 14  1  0
 10  9  1  0
 10 18  1  0
  4  9  2  0
 13 18  1  0
 13 15  1  0
  9 16  1  0
 14 22  1  0
 22 15  1  0
 16 20  1  0
 20 11  1  0
  6 11  1  0
  6  3  2  0
 11 17  2  0
  3  8  1  0
 17  7  1  0
  8  7  2  0
  8 43  1  0
 21 43  2  0
 43 19  1  0
  1 23  1  0
  2 24  1  0
  3 25  1  0
  4 26  1  0
  5 27  1  0
  6 28  1  0
  7 29  1  0
 12 30  1  0
 12 31  1  0
 13 32  1  0
 13 33  1  0
 14 34  1  0
 14 35  1  0
 15 36  1  0
 15 37  1  0
 16 38  1  0
 16 39  1  0
 19 40  1  0
 19 41  1  0
 20 42  1  0
M  END
