
     RDKit          3D

 26 26  0  0  0  0  0  0  0  0999 V2000
    1.4548   -1.2657    0.2303 C   0  0  0  0  0  0  0  0  0  0  0  0
    2.4011   -0.2559    0.1314 C   0  0  0  0  0  0  0  0  0  0  0  0
    1.9499    1.0322   -0.0994 C   0  0  0  0  0  0  0  0  0  0  0  0
    0.5997    1.3199   -0.2311 C   0  0  0  0  0  0  0  0  0  0  0  0
   -2.3520    0.4241    1.1681 C   0  0  0  0  0  0  0  0  0  0  0  0
   -1.8072    0.5846   -0.2473 C   0  0  1  0  0  0  0  0  0  0  0  0
   -0.3242    0.2909   -0.1287 C   0  0  0  0  0  0  0  0  0  0  0  0
    0.1008   -1.0125    0.1079 C   0  0  0  0  0  0  0  0  0  0  0  0
    1.9912   -2.8849    0.5179 Cl  0  0  0  0  0  0  0  0  0  0  0  0
    3.1039    2.3133   -0.2319 Cl  0  0  0  0  0  0  0  0  0  0  0  0
   -2.4628   -0.3061   -1.1789 N   0  0  0  0  0  0  0  0  0  0  0  0
    3.4564   -0.4688    0.2285 H   0  0  0  0  0  0  0  0  0  0  0  0
    0.2723    2.3325   -0.4256 H   0  0  0  0  0  0  0  0  0  0  0  0
   -4.0870    1.0107   -1.6170 H   0  0  0  0  0  0  0  0  0  0  0  0
   -4.3325   -0.6946   -2.0112 H   0  0  0  0  0  0  0  0  0  0  0  0
   -4.3964   -0.1774   -0.3379 H   0  0  0  0  0  0  0  0  0  0  0  0
   -1.8837    0.7854   -2.9238 H   0  0  0  0  0  0  0  0  0  0  0  0
   -0.8101   -0.5462   -2.4678 H   0  0  0  0  0  0  0  0  0  0  0  0
   -2.3795   -0.8941   -3.1759 H   0  0  0  0  0  0  0  0  0  0  0  0
   -1.9259    1.6413   -0.5410 H   0  0  0  0  0  0  0  0  0  0  0  0
   -0.6189   -1.8168    0.1774 H   0  0  0  0  0  0  0  0  0  0  0  0
   -2.2167    1.5489    1.8529 O   0  0  0  0  0  0  0  0  0  0  0  0
   -2.4923    1.4165    2.7728 H   0  0  0  0  0  0  0  0  0  0  0  0
   -2.7877   -0.5984    1.6274 O   0  0  0  0  0  0  0  0  0  0  0  0
   -3.8837   -0.0178   -1.2847 C   0  0  0  0  0  0  0  0  0  0  0  0
   -1.8506   -0.2273   -2.4955 C   0  0  0  0  0  0  0  0  0  0  0  0
  5 24  2  0
  5  6  1  0
 25 11  1  0
 11  6  1  0
 11 26  1  0
 10  3  1  0
  4  3  2  0
  4  7  1  0
  6  7  1  0
  3  2  1  0
  7  8  2  0
  2  1  2  0
  8  1  1  0
  1  9  1  0
  2 12  1  0
  4 13  1  0
 25 14  1  0
 25 15  1  0
 25 16  1  0
 26 17  1  0
 26 18  1  0
 26 19  1  0
  6 20  1  6
  8 21  1  0
  5 22  1  0
 22 23  1  0
M  END
