
     RDKit          3D

 69 73  0  0  0  0  0  0  0  0999 V2000
    4.0256    0.9099   -0.0671 N   0  0  0  0  0  0  0  0  0  0  0  0
    3.6745    0.9045    1.2712 C   0  0  0  0  0  0  0  0  0  0  0  0
    4.3092    1.5354    2.3231 C   0  0  0  0  0  0  0  0  0  0  0  0
    3.7370    1.3721    3.5805 C   0  0  0  0  0  0  0  0  0  0  0  0
    4.4920    2.1466    4.9366 Cl  0  0  0  0  0  0  0  0  0  0  0  0
    3.1520    0.2006   -0.8343 C   0  0  0  0  0  0  0  0  0  0  0  0
    3.2031    0.1069   -2.0396 O   0  0  0  0  0  0  0  0  0  0  0  0
    2.1153   -0.4286    0.1061 C   0  0  2  0  0  0  0  0  0  0  0  0
    2.1332   -1.9882    0.1716 C   0  0  2  0  0  0  0  0  0  0  0  0
    2.4102   -2.7116   -1.1499 C   0  0  0  0  0  0  0  0  0  0  0  0
    2.7054   -4.2257   -1.0711 C   0  0  1  0  0  0  0  0  0  0  0  0
    3.9769   -4.4855   -0.2611 C   0  0  0  0  0  0  0  0  0  0  0  0
    1.5536   -5.0370   -0.4715 C   0  0  0  0  0  0  0  0  0  0  0  0
    2.9345   -4.7008   -2.5088 C   0  0  0  0  0  0  0  0  0  0  0  0
    0.8139   -2.1978    0.7511 N   0  0  0  0  0  0  0  0  0  0  0  0
    0.6229   -0.0856   -0.2422 C   0  0  1  0  0  0  0  0  0  0  0  0
    0.3862    0.5837   -1.5733 C   0  0  0  0  0  0  0  0  0  0  0  0
   -0.0432   -0.0554   -2.7313 C   0  0  0  0  0  0  0  0  0  0  0  0
   -0.2429    0.6448   -3.9124 C   0  0  0  0  0  0  0  0  0  0  0  0
   -0.0103    2.0086   -3.9728 C   0  0  0  0  0  0  0  0  0  0  0  0
    0.6224    1.9481   -1.6661 C   0  0  0  0  0  0  0  0  0  0  0  0
    1.0782    2.5973   -0.5881 F   0  0  0  0  0  0  0  0  0  0  0  0
    0.4323    2.6624   -2.8344 C   0  0  0  0  0  0  0  0  0  0  0  0
    0.7552    4.3545   -2.8498 Cl  0  0  0  0  0  0  0  0  0  0  0  0
   -0.1223   -1.4239   -0.0138 C   0  0  2  0  0  0  0  0  0  0  0  0
   -1.4112   -1.1690    0.7605 C   0  0  0  0  0  0  0  0  0  0  0  0
   -2.4714   -0.9301   -0.0548 N   0  0  0  0  0  0  0  0  0  0  0  0
   -3.7771   -0.5635    0.2660 C   0  0  0  0  0  0  0  0  0  0  0  0
   -4.6531   -0.3736   -0.8059 C   0  0  0  0  0  0  0  0  0  0  0  0
   -4.2501   -0.3705    1.5657 C   0  0  0  0  0  0  0  0  0  0  0  0
   -5.5690    0.0021    1.7650 C   0  0  0  0  0  0  0  0  0  0  0  0
   -6.4525    0.1722    0.7040 C   0  0  0  0  0  0  0  0  0  0  0  0
   -7.8601    0.5714    1.0010 C   0  0  0  0  0  0  0  0  0  0  0  0
   -8.1610    1.0736    2.0762 O   0  0  0  0  0  0  0  0  0  0  0  0
   -8.7599    0.3524    0.0287 N   0  0  0  0  0  0  0  0  0  0  0  0
   -5.9681   -0.0147   -0.5897 C   0  0  0  0  0  0  0  0  0  0  0  0
   -1.4547   -1.1397    1.9725 O   0  0  0  0  0  0  0  0  0  0  0  0
    2.5263    0.1354    1.4411 C   0  0  0  0  0  0  0  0  0  0  0  0
    1.9791   -0.0048    2.6987 C   0  0  0  0  0  0  0  0  0  0  0  0
    2.5909    0.6208    3.7849 C   0  0  0  0  0  0  0  0  0  0  0  0
    4.8022    1.4242   -0.4554 H   0  0  0  0  0  0  0  0  0  0  0  0
    5.2010    2.1300    2.1807 H   0  0  0  0  0  0  0  0  0  0  0  0
    2.8891   -2.2897    0.9013 H   0  0  0  0  0  0  0  0  0  0  0  0
    1.5833   -2.5547   -1.8507 H   0  0  0  0  0  0  0  0  0  0  0  0
    3.2816   -2.2613   -1.6268 H   0  0  0  0  0  0  0  0  0  0  0  0
    3.8660   -4.1961    0.7853 H   0  0  0  0  0  0  0  0  0  0  0  0
    4.2289   -5.5479   -0.2752 H   0  0  0  0  0  0  0  0  0  0  0  0
    4.8297   -3.9393   -0.6707 H   0  0  0  0  0  0  0  0  0  0  0  0
    0.5947   -4.7727   -0.9240 H   0  0  0  0  0  0  0  0  0  0  0  0
    1.7108   -6.1039   -0.6432 H   0  0  0  0  0  0  0  0  0  0  0  0
    1.4742   -4.9088    0.6105 H   0  0  0  0  0  0  0  0  0  0  0  0
    3.7463   -4.1448   -2.9833 H   0  0  0  0  0  0  0  0  0  0  0  0
    3.1988   -5.7601   -2.5332 H   0  0  0  0  0  0  0  0  0  0  0  0
    2.0388   -4.5669   -3.1196 H   0  0  0  0  0  0  0  0  0  0  0  0
    0.5512   -3.1707    0.8154 H   0  0  0  0  0  0  0  0  0  0  0  0
    0.2892    0.6151    0.5248 H   0  0  0  0  0  0  0  0  0  0  0  0
   -0.2216   -1.1219   -2.7357 H   0  0  0  0  0  0  0  0  0  0  0  0
   -0.5816    0.1222   -4.7960 H   0  0  0  0  0  0  0  0  0  0  0  0
   -0.1650    2.5604   -4.8896 H   0  0  0  0  0  0  0  0  0  0  0  0
   -0.3789   -1.8968   -0.9706 H   0  0  0  0  0  0  0  0  0  0  0  0
   -2.3030   -1.0559   -1.0417 H   0  0  0  0  0  0  0  0  0  0  0  0
   -4.3007   -0.5047   -1.8221 H   0  0  0  0  0  0  0  0  0  0  0  0
   -3.6077   -0.5055    2.4195 H   0  0  0  0  0  0  0  0  0  0  0  0
   -5.9153    0.1521    2.7787 H   0  0  0  0  0  0  0  0  0  0  0  0
   -8.5525   -0.1942   -0.7885 H   0  0  0  0  0  0  0  0  0  0  0  0
   -9.7284    0.5756    0.1901 H   0  0  0  0  0  0  0  0  0  0  0  0
   -6.6004    0.1371   -1.4548 H   0  0  0  0  0  0  0  0  0  0  0  0
    1.0828   -0.5928    2.8428 H   0  0  0  0  0  0  0  0  0  0  0  0
    2.1727    0.5204    4.7766 H   0  0  0  0  0  0  0  0  0  0  0  0
 11 14  1  6
 12 11  1  0
 11 10  1  0
 11 13  1  0
 10  9  1  0
  7  6  2  0
 15  9  1  0
 15 25  1  0
  6  1  1  0
  8  6  1  6
  9  8  1  0
  1  2  1  0
 30 31  2  0
 30 28  1  0
 31 32  1  0
  8 38  1  0
  8 16  1  0
  2  3  1  0
  2 38  2  0
 25 26  1  0
 25 16  1  0
 27 28  1  0
 27 26  1  0
 35 33  1  0
  3  4  2  0
 28 29  2  0
 38 39  1  0
 26 37  2  0
 16 17  1  0
 32 33  1  0
 32 36  2  0
 18 17  2  0
 18 19  1  0
 33 34  2  0
  4  5  1  0
  4 40  1  0
 39 40  2  0
 29 36  1  0
 17 21  1  0
 19 20  2  0
 21 22  1  0
 21 23  2  0
 20 23  1  0
 23 24  1  0
  1 41  1  0
  3 42  1  0
  9 43  1  1
 10 44  1  0
 10 45  1  0
 12 46  1  0
 12 47  1  0
 12 48  1  0
 13 49  1  0
 13 50  1  0
 13 51  1  0
 14 52  1  0
 14 53  1  0
 14 54  1  0
 15 55  1  0
 16 56  1  1
 18 57  1  0
 19 58  1  0
 20 59  1  0
 25 60  1  6
 27 61  1  0
 29 62  1  0
 30 63  1  0
 31 64  1  0
 35 65  1  0
 35 66  1  0
 36 67  1  0
 39 68  1  0
 40 69  1  0
M  END
