
     RDKit          3D

 34 36  0  0  0  0  0  0  0  0999 V2000
   -3.3937    0.9913    0.4248 C   0  0  0  0  0  0  0  0  0  0  0  0
   -4.2599    0.1422   -0.0838 N   0  0  0  0  0  0  0  0  0  0  0  0
   -3.7842   -1.0076   -0.6075 C   0  0  0  0  0  0  0  0  0  0  0  0
   -2.5240   -1.3910   -0.6627 N   0  0  0  0  0  0  0  0  0  0  0  0
   -1.6182   -0.5318   -0.1449 C   0  0  0  0  0  0  0  0  0  0  0  0
   -1.9810    0.7067    0.4226 C   0  0  0  0  0  0  0  0  0  0  0  0
   -0.2501   -0.8789   -0.1707 C   0  0  0  0  0  0  0  0  0  0  0  0
    0.7162   -0.0372    0.3326 C   0  0  0  0  0  0  0  0  0  0  0  0
    0.3348    1.2029    0.8887 C   0  0  0  0  0  0  0  0  0  0  0  0
   -0.9886    1.5583    0.9355 C   0  0  0  0  0  0  0  0  0  0  0  0
   -3.8700    2.1250    0.9457 N   0  0  0  0  0  0  0  0  0  0  0  0
   -4.7155   -1.8275   -1.1268 N   0  0  0  0  0  0  0  0  0  0  0  0
    2.1338   -0.4629    0.3300 C   0  0  0  0  0  0  0  0  0  0  0  0
    2.4985   -1.6601    0.9348 C   0  0  0  0  0  0  0  0  0  0  0  0
    3.8179   -2.0942    0.9506 C   0  0  0  0  0  0  0  0  0  0  0  0
    4.7897   -1.3168    0.3435 C   0  0  0  0  0  0  0  0  0  0  0  0
    4.4528   -0.1202   -0.2781 C   0  0  0  0  0  0  0  0  0  0  0  0
    3.1286    0.3106   -0.2913 C   0  0  0  0  0  0  0  0  0  0  0  0
    2.7153    1.4405   -0.8929 O   0  0  0  0  0  0  0  0  0  0  0  0
    3.6641    2.2328   -1.5786 C   0  0  0  0  0  0  0  0  0  0  0  0
    0.0258   -1.8300   -0.6099 H   0  0  0  0  0  0  0  0  0  0  0  0
    1.0839    1.8659    1.2995 H   0  0  0  0  0  0  0  0  0  0  0  0
   -1.2495    2.5107    1.3803 H   0  0  0  0  0  0  0  0  0  0  0  0
   -4.8597    2.3019    0.9258 H   0  0  0  0  0  0  0  0  0  0  0  0
   -3.2822    2.8326    1.3454 H   0  0  0  0  0  0  0  0  0  0  0  0
   -5.6898   -1.5955   -1.0633 H   0  0  0  0  0  0  0  0  0  0  0  0
   -4.4522   -2.7207   -1.5015 H   0  0  0  0  0  0  0  0  0  0  0  0
    1.7311   -2.2546    1.4153 H   0  0  0  0  0  0  0  0  0  0  0  0
    4.0788   -3.0252    1.4352 H   0  0  0  0  0  0  0  0  0  0  0  0
    5.8241   -1.6352    0.3456 H   0  0  0  0  0  0  0  0  0  0  0  0
    5.2319    0.4600   -0.7533 H   0  0  0  0  0  0  0  0  0  0  0  0
    3.1164    3.0720   -1.9999 H   0  0  0  0  0  0  0  0  0  0  0  0
    4.4375    2.6185   -0.9093 H   0  0  0  0  0  0  0  0  0  0  0  0
    4.1438    1.6807   -2.3909 H   0  0  0  0  0  0  0  0  0  0  0  0
  1  2  2  0
  1  6  1  0
  1 11  1  0
  2  3  1  0
  3  4  2  0
  3 12  1  0
  4  5  1  0
  5  6  2  0
  5  7  1  0
  6 10  1  0
  7  8  2  0
  8  9  1  0
  8 13  1  0
  9 10  2  0
 13 14  2  0
 13 18  1  0
 14 15  1  0
 15 16  2  0
 16 17  1  0
 17 18  2  0
 18 19  1  0
 19 20  1  0
  7 21  1  0
  9 22  1  0
 10 23  1  0
 11 24  1  0
 11 25  1  0
 12 26  1  0
 12 27  1  0
 14 28  1  0
 15 29  1  0
 16 30  1  0
 17 31  1  0
 20 32  1  0
 20 33  1  0
 20 34  1  0
M  END
