
     RDKit          3D

 16 15  0  0  0  0  0  0  0  0999 V2000
   -1.7777    0.7490   -0.3517 C   0  0  0  0  0  0  0  0  0  0  0  0
   -0.8187   -1.1654    0.7952 O   0  0  0  0  0  0  0  0  0  0  0  0
   -0.6965   -0.3224   -0.3329 C   0  0  2  0  0  0  0  0  0  0  0  0
    0.8547    1.1031    0.7837 O   0  0  0  0  0  0  0  0  0  0  0  0
    0.7095    0.2655   -0.3459 C   0  0  1  0  0  0  0  0  0  0  0  0
    1.7901   -0.8055   -0.3910 C   0  0  0  0  0  0  0  0  0  0  0  0
   -1.6712    1.3915   -1.2269 H   0  0  0  0  0  0  0  0  0  0  0  0
   -2.7686    0.2930   -0.4028 H   0  0  0  0  0  0  0  0  0  0  0  0
   -1.7367    1.3760    0.5387 H   0  0  0  0  0  0  0  0  0  0  0  0
   -1.6929   -1.5662    0.7738 H   0  0  0  0  0  0  0  0  0  0  0  0
   -0.7830   -0.9075   -1.2612 H   0  0  0  0  0  0  0  0  0  0  0  0
    1.7285    1.5030    0.7469 H   0  0  0  0  0  0  0  0  0  0  0  0
    0.7772    0.8556   -1.2726 H   0  0  0  0  0  0  0  0  0  0  0  0
    1.6696   -1.4433   -1.2678 H   0  0  0  0  0  0  0  0  0  0  0  0
    2.7798   -0.3486   -0.4565 H   0  0  0  0  0  0  0  0  0  0  0  0
    1.7656   -1.4368    0.4967 H   0  0  0  0  0  0  0  0  0  0  0  0
  1  3  1  0
  1  7  1  0
  1  8  1  0
  1  9  1  0
  2  3  1  0
  2 10  1  0
  3  5  1  0
  3 11  1  6
  5  4  1  0
  4 12  1  0
  5  6  1  0
  5 13  1  6
  6 14  1  0
  6 15  1  0
  6 16  1  0
M  END
