
     RDKit          3D

 16 16  0  0  0  0  0  0  0  0999 V2000
   -2.5087   -0.3812   -0.0474 O   0  0  0  0  0  0  0  0  0  0  0  0
   -1.6228    0.4580    0.0350 C   0  0  0  0  0  0  0  0  0  0  0  0
    1.9608    0.4650   -0.3320 C   0  0  0  0  0  0  0  0  0  0  0  0
    1.7213   -0.9539    0.1796 C   0  0  0  0  0  0  0  0  0  0  0  0
    0.7226    1.2098    0.1495 C   0  0  0  0  0  0  0  0  0  0  0  0
    0.2220   -1.1602   -0.0259 C   0  0  0  0  0  0  0  0  0  0  0  0
   -0.3191    0.1909    0.0679 N   0  0  0  0  0  0  0  0  0  0  0  0
   -1.8378    1.5371    0.0900 H   0  0  0  0  0  0  0  0  0  0  0  0
    2.0035    0.4742   -1.4233 H   0  0  0  0  0  0  0  0  0  0  0  0
    2.3130   -1.7054   -0.3411 H   0  0  0  0  0  0  0  0  0  0  0  0
    1.9664   -1.0164    1.2419 H   0  0  0  0  0  0  0  0  0  0  0  0
    0.8517    1.5522    1.1801 H   0  0  0  0  0  0  0  0  0  0  0  0
    0.4732    2.0749   -0.4651 H   0  0  0  0  0  0  0  0  0  0  0  0
    0.0058   -1.5845   -1.0100 H   0  0  0  0  0  0  0  0  0  0  0  0
   -0.2208   -1.8173    0.7235 H   0  0  0  0  0  0  0  0  0  0  0  0
    2.8810    0.9095    0.0443 H   0  0  0  0  0  0  0  0  0  0  0  0
  1  2  2  0
  2  7  1  0
  3  4  1  0
  3  5  1  0
  4  6  1  0
  5  7  1  0
  6  7  1  0
  2  8  1  0
  3 16  1  0
  3  9  1  0
  4 10  1  0
  4 11  1  0
  5 12  1  0
  5 13  1  0
  6 14  1  0
  6 15  1  0
M  END
