
     RDKit          3D

 27 28  0  0  0  0  0  0  0  0999 V2000
    4.3156    2.2143   -0.3387 C   0  0  0  0  0  0  0  0  0  0  0  0
   -0.5509    0.8116    0.0500 C   0  0  0  0  0  0  0  0  0  0  0  0
    0.7848   -1.3287    0.1815 C   0  0  0  0  0  0  0  0  0  0  0  0
    2.0214   -1.9525    0.1703 C   0  0  0  0  0  0  0  0  0  0  0  0
    1.8751    0.7997   -0.0749 C   0  0  0  0  0  0  0  0  0  0  0  0
   -2.9905    1.3248    0.1095 C   0  0  0  0  0  0  0  0  0  0  0  0
    0.6860    0.0579    0.0577 C   0  0  0  0  0  0  0  0  0  0  0  0
    3.1884   -1.2167    0.0372 C   0  0  0  0  0  0  0  0  0  0  0  0
    3.1087    0.1834   -0.0862 C   0  0  0  0  0  0  0  0  0  0  0  0
   -4.1564   -0.5518    0.3534 C   0  0  0  0  0  0  0  0  0  0  0  0
   -1.8313    0.4092    0.1446 C   0  0  0  0  0  0  0  0  0  0  0  0
   -4.1825    0.7916    0.2231 N   0  0  0  0  0  0  0  0  0  0  0  0
   -5.0953   -1.2958    0.4756 O   0  0  0  0  0  0  0  0  0  0  0  0
    4.2973    0.8054   -0.2106 O   0  0  0  0  0  0  0  0  0  0  0  0
   -2.4596   -1.2091    0.3265 S   0  0  0  0  0  0  0  0  0  0  0  0
    3.7752    2.5455   -1.2289 H   0  0  0  0  0  0  0  0  0  0  0  0
    3.8895    2.7052    0.5399 H   0  0  0  0  0  0  0  0  0  0  0  0
    5.3591    2.5021   -0.4323 H   0  0  0  0  0  0  0  0  0  0  0  0
   -0.3934    1.8800   -0.0516 H   0  0  0  0  0  0  0  0  0  0  0  0
   -0.0879   -1.9550    0.2894 H   0  0  0  0  0  0  0  0  0  0  0  0
    2.0856   -3.0290    0.2644 H   0  0  0  0  0  0  0  0  0  0  0  0
    1.8062    1.8759   -0.1690 H   0  0  0  0  0  0  0  0  0  0  0  0
   -1.9627    3.0814   -0.1400 H   0  0  0  0  0  0  0  0  0  0  0  0
   -3.6715    3.2144   -0.0593 H   0  0  0  0  0  0  0  0  0  0  0  0
    5.0915   -1.2197   -0.0701 H   0  0  0  0  0  0  0  0  0  0  0  0
    4.3677   -1.8516    0.0281 O   0  0  0  0  0  0  0  0  0  0  0  0
   -2.8530    2.6287   -0.0316 N   0  0  0  0  0  0  0  0  0  0  0  0
 13 10  2  0
  1 14  1  0
 10 15  1  0
 10 12  1  0
 15 11  1  0
 14  9  1  0
 12  6  2  0
  9  5  2  0
  9  8  1  0
  5  7  1  0
 26  8  1  0
 11  6  1  0
 11  2  2  0
  8  4  2  0
  6 27  1  0
  7  2  1  0
  7  3  2  0
  4  3  1  0
  1 16  1  0
  1 17  1  0
  1 18  1  0
  2 19  1  0
  3 20  1  0
  4 21  1  0
  5 22  1  0
 27 23  1  0
 27 24  1  0
 26 25  1  0
M  END
