
     RDKit          3D

 29 29  0  0  0  0  0  0  0  0999 V2000
    2.0822    1.2320    0.6408 N   0  0  0  0  0  0  0  0  0  0  0  0
    1.8673   -0.1380    0.2206 C   0  0  2  0  0  0  0  0  0  0  0  0
    3.1621   -0.8832   -0.0908 C   0  0  0  0  0  0  0  0  0  0  0  0
    4.2136   -0.4432   -0.5636 O   0  0  0  0  0  0  0  0  0  0  0  0
    2.4589    1.3890    2.0217 C   0  0  0  0  0  0  0  0  0  0  0  0
    0.9644   -0.2337   -1.0294 C   0  0  0  0  0  0  0  0  0  0  0  0
   -0.4699   -0.0576   -0.6826 C   0  0  0  0  0  0  0  0  0  0  0  0
   -1.1125    1.1923   -0.7232 C   0  0  0  0  0  0  0  0  0  0  0  0
   -1.2128   -1.1833   -0.2997 C   0  0  0  0  0  0  0  0  0  0  0  0
   -2.4714    1.3315   -0.3901 C   0  0  0  0  0  0  0  0  0  0  0  0
   -2.5590   -1.0610    0.0329 C   0  0  0  0  0  0  0  0  0  0  0  0
   -3.1964    0.2015   -0.0111 C   0  0  0  0  0  0  0  0  0  0  0  0
   -3.3516   -2.1266    0.4189 O   0  0  0  0  0  0  0  0  0  0  0  0
   -4.5197    0.3750    0.3069 O   0  0  0  0  0  0  0  0  0  0  0  0
    1.3578   -0.7041    1.0595 H   0  0  0  0  0  0  0  0  0  0  0  0
    1.6390    0.9935    2.6776 H   0  0  0  0  0  0  0  0  0  0  0  0
    3.4157    0.8606    2.2880 H   0  0  0  0  0  0  0  0  0  0  0  0
    2.5859    2.4847    2.2269 H   0  0  0  0  0  0  0  0  0  0  0  0
    1.2806    0.5149   -1.8030 H   0  0  0  0  0  0  0  0  0  0  0  0
    1.1103   -1.2548   -1.4785 H   0  0  0  0  0  0  0  0  0  0  0  0
   -0.7256   -2.1699   -0.2624 H   0  0  0  0  0  0  0  0  0  0  0  0
   -2.9536    2.3183   -0.4287 H   0  0  0  0  0  0  0  0  0  0  0  0
   -2.9813   -2.9267    0.0217 H   0  0  0  0  0  0  0  0  0  0  0  0
   -4.9170   -0.5019    0.4252 H   0  0  0  0  0  0  0  0  0  0  0  0
    2.7460    1.6815    0.0346 H   0  0  0  0  0  0  0  0  0  0  0  0
    3.1231   -2.2116    0.2026 O   0  0  0  0  0  0  0  0  0  0  0  0
   -0.4839    2.3610   -1.0834 O   0  0  0  0  0  0  0  0  0  0  0  0
    3.9759   -2.6217   -0.0195 H   0  0  0  0  0  0  0  0  0  0  0  0
   -0.1682    2.7985   -0.2798 H   0  0  0  0  0  0  0  0  0  0  0  0
  1  2  1  0
  1  5  1  0
  2  3  1  0
  2  6  1  0
  2 15  1  1
  3  4  2  0
  5 16  1  0
  5 17  1  0
  5 18  1  0
  6  7  1  0
  6 19  1  0
  6 20  1  0
  7  8  2  0
  7  9  1  0
  8 10  1  0
  9 11  2  0
  9 21  1  0
 10 12  2  0
 10 22  1  0
 11 12  1  0
 11 13  1  0
 12 14  1  0
 13 23  1  0
 14 24  1  0
  1 25  1  0
  3 26  1  0
  8 27  1  0
 26 28  1  0
 27 29  1  0
M  END
