
     RDKit          3D

 40 42  0  0  0  0  0  0  0  0999 V2000
    5.2857   -1.9162   -1.8047 C   0  0  0  0  0  0  0  0  0  0  0  0
    3.9962   -1.1456   -0.4929 S   0  0  2  0  0  0  0  0  0  0  0  0
    5.0475   -1.7032    0.8691 C   0  0  0  0  0  0  0  0  0  0  0  0
    2.9349    0.0158    0.8651 C   0  0  0  0  0  0  0  0  0  0  0  0
    2.0785    0.9524    0.0692 C   0  0  1  0  0  0  0  0  0  0  0  0
    1.2157    0.2102   -0.8127 O   0  0  0  0  0  0  0  0  0  0  0  0
   -0.0547    0.7698   -0.8756 C   0  0  1  0  0  0  0  0  0  0  0  0
   -0.9998   -0.1248   -0.2081 N   0  0  0  0  0  0  0  0  0  0  0  0
   -2.3578   -0.0287   -0.2718 C   0  0  0  0  0  0  0  0  0  0  0  0
   -3.0890    0.8775   -0.9196 N   0  0  0  0  0  0  0  0  0  0  0  0
   -4.3831    0.6608   -0.7631 C   0  0  0  0  0  0  0  0  0  0  0  0
   -4.9827   -0.3045   -0.0703 N   0  0  0  0  0  0  0  0  0  0  0  0
   -4.2345   -1.2060    0.5753 C   0  0  0  0  0  0  0  0  0  0  0  0
   -4.8339   -2.1668    1.2810 N   0  0  0  0  0  0  0  0  0  0  0  0
   -2.8351   -1.0865    0.4868 C   0  0  0  0  0  0  0  0  0  0  0  0
   -1.7996   -1.8203    1.0014 N   0  0  0  0  0  0  0  0  0  0  0  0
   -0.7296   -1.2197    0.5645 C   0  0  0  0  0  0  0  0  0  0  0  0
    0.0163    2.1247   -0.1731 C   0  0  2  0  0  0  0  0  0  0  0  0
    0.4278    3.0760   -1.1175 O   0  0  0  0  0  0  0  0  0  0  0  0
    1.1204    1.8542    0.8534 C   0  0  2  0  0  0  0  0  0  0  0  0
    1.7873    3.0089    1.2826 O   0  0  0  0  0  0  0  0  0  0  0  0
    5.2436   -3.0066   -1.7795 H   0  0  0  0  0  0  0  0  0  0  0  0
    4.9555   -1.5719   -2.7867 H   0  0  0  0  0  0  0  0  0  0  0  0
    6.3150   -1.5895   -1.6388 H   0  0  0  0  0  0  0  0  0  0  0  0
    4.4453   -1.7749    1.7703 H   0  0  0  0  0  0  0  0  0  0  0  0
    5.4661   -2.6706    0.6035 H   0  0  0  0  0  0  0  0  0  0  0  0
    5.8514   -0.9878    1.0205 H   0  0  0  0  0  0  0  0  0  0  0  0
    2.3366   -0.6362    1.5111 H   0  0  0  0  0  0  0  0  0  0  0  0
    3.6173    0.5976    1.4926 H   0  0  0  0  0  0  0  0  0  0  0  0
    2.7277    1.5948   -0.5486 H   0  0  0  0  0  0  0  0  0  0  0  0
   -0.3861    0.8710   -1.9134 H   0  0  0  0  0  0  0  0  0  0  0  0
   -5.0481    1.3575   -1.2623 H   0  0  0  0  0  0  0  0  0  0  0  0
   -5.8348   -2.2590    1.2594 H   0  0  0  0  0  0  0  0  0  0  0  0
   -4.3008   -2.9002    1.7140 H   0  0  0  0  0  0  0  0  0  0  0  0
    0.2805   -1.5382    0.7676 H   0  0  0  0  0  0  0  0  0  0  0  0
   -0.9396    2.4015    0.2879 H   0  0  0  0  0  0  0  0  0  0  0  0
    0.9575    3.7358   -0.6523 H   0  0  0  0  0  0  0  0  0  0  0  0
    0.7023    1.2960    1.7008 H   0  0  0  0  0  0  0  0  0  0  0  0
    1.2653    3.4303    1.9730 H   0  0  0  0  0  0  0  0  0  0  0  0
    4.3722    0.0467   -0.9880 H   0  0  0  0  0  0  0  0  0  0  0  0
  2  1  1  0
  1 22  1  0
  1 23  1  0
  1 24  1  0
  3  2  1  0
  2  4  1  0
  3 25  1  0
  3 26  1  0
  3 27  1  0
  5  4  1  0
  4 28  1  0
  4 29  1  0
  6  5  1  0
  5 20  1  0
  5 30  1  6
  7  6  1  0
  8  7  1  0
  7 18  1  0
  7 31  1  6
 17  8  1  0
  8  9  1  0
 15  9  1  0
  9 10  2  0
 10 11  1  0
 12 11  2  0
 11 32  1  0
 13 12  1  0
 15 13  2  0
 14 13  1  0
 14 33  1  0
 14 34  1  0
 16 15  1  0
 16 17  2  0
 17 35  1  0
 19 18  1  0
 18 20  1  0
 18 36  1  1
 19 37  1  0
 21 20  1  0
 20 38  1  1
 21 39  1  0
  2 40  1  1
M  END
