
     RDKit          3D

 85 85  0  0  0  0  0  0  0  0999 V2000
    5.5015    0.9264    1.3273 O   0  0  0  0  0  0  0  0  0  0  0  0
    5.2555    0.0650    0.2311 C   0  0  1  0  0  0  0  0  0  0  0  0
    3.8349    0.2594   -0.3351 C   0  0  0  0  0  0  0  0  0  0  0  0
    6.3118    0.2323   -0.8933 C   0  0  1  0  0  0  0  0  0  0  0  0
    6.4092    1.6070   -1.3422 N   0  0  0  0  0  0  0  0  0  0  0  0
    7.6215   -0.3993   -0.3945 C   0  0  0  0  0  0  0  0  0  0  0  0
    8.7789   -0.2961   -1.3738 C   0  0  1  0  0  0  0  0  0  0  0  0
   10.0134   -0.9347   -0.7662 C   0  0  0  0  0  0  0  0  0  0  0  0
    8.4561   -0.9481   -2.7016 C   0  0  0  0  0  0  0  0  0  0  0  0
    2.7718    0.2056    0.6434 N   0  0  0  0  0  0  0  0  0  0  0  0
    1.8517   -0.9119    0.5571 C   0  0  2  0  0  0  0  0  0  0  0  0
    0.5071   -0.5113    1.2257 C   0  0  0  0  0  0  0  0  0  0  0  0
   -0.0028   -1.1897    2.1393 O   0  0  0  0  0  0  0  0  0  0  0  0
    2.3063   -2.2682    1.1418 C   0  0  1  0  0  0  0  0  0  0  0  0
    3.1649   -3.0201    0.1487 C   0  0  0  0  0  0  0  0  0  0  0  0
    3.0133   -2.1226    2.4704 C   0  0  0  0  0  0  0  0  0  0  0  0
   -0.1178    0.6104    0.7294 N   0  0  0  0  0  0  0  0  0  0  0  0
   -1.3876    1.0765    1.2222 C   0  0  2  0  0  0  0  0  0  0  0  0
   -2.3987    1.1616    0.0493 C   0  0  0  0  0  0  0  0  0  0  0  0
   -2.0877    1.6368   -1.0596 O   0  0  0  0  0  0  0  0  0  0  0  0
   -1.3039    2.4466    1.9383 C   0  0  2  0  0  0  0  0  0  0  0  0
   -2.6271    2.8192    2.5914 C   0  0  0  0  0  0  0  0  0  0  0  0
   -0.8433    3.5526    1.0140 C   0  0  0  0  0  0  0  0  0  0  0  0
   -3.0051    1.9054    3.7289 C   0  0  0  0  0  0  0  0  0  0  0  0
   -3.6625    0.6483    0.2806 N   0  0  0  0  0  0  0  0  0  0  0  0
   -4.7239    0.7620   -0.6795 C   0  0  2  0  0  0  0  0  0  0  0  0
   -5.6421    1.9464   -0.3697 C   0  0  0  0  0  0  0  0  0  0  0  0
   -5.6145   -0.4944   -0.7621 C   0  0  0  0  0  0  0  0  0  0  0  0
   -4.8755   -1.6637   -1.3060 C   0  0  0  0  0  0  0  0  0  0  0  0
   -4.5015   -2.7207   -0.4690 C   0  0  0  0  0  0  0  0  0  0  0  0
   -4.5652   -1.7245   -2.6704 C   0  0  0  0  0  0  0  0  0  0  0  0
   -3.8264   -3.8238   -0.9903 C   0  0  0  0  0  0  0  0  0  0  0  0
   -3.8901   -2.8278   -3.1884 C   0  0  0  0  0  0  0  0  0  0  0  0
   -3.5206   -3.8796   -2.3496 C   0  0  0  0  0  0  0  0  0  0  0  0
   -5.7536    2.5908    0.6742 O   0  0  0  0  0  0  0  0  0  0  0  0
   -7.2981    3.4065   -1.2577 C   0  0  0  0  0  0  0  0  0  0  0  0
   -6.4225    2.2916   -1.4366 O   0  0  0  0  0  0  0  0  0  0  0  0
    3.7769    1.2875   -0.7989 H   0  0  0  0  0  0  0  0  0  0  0  0
    3.6798   -0.4945   -1.1562 H   0  0  0  0  0  0  0  0  0  0  0  0
    5.9473   -0.3742   -1.7768 H   0  0  0  0  0  0  0  0  0  0  0  0
    6.7970    2.1824   -0.6188 H   0  0  0  0  0  0  0  0  0  0  0  0
    7.0009    1.6621   -2.1489 H   0  0  0  0  0  0  0  0  0  0  0  0
    7.9110    0.0910    0.5732 H   0  0  0  0  0  0  0  0  0  0  0  0
    7.4274   -1.4825   -0.1765 H   0  0  0  0  0  0  0  0  0  0  0  0
    9.0108    0.7916   -1.5569 H   0  0  0  0  0  0  0  0  0  0  0  0
    9.8476   -2.0264   -0.5998 H   0  0  0  0  0  0  0  0  0  0  0  0
   10.8886   -0.8101   -1.4481 H   0  0  0  0  0  0  0  0  0  0  0  0
   10.2557   -0.4597    0.2148 H   0  0  0  0  0  0  0  0  0  0  0  0
    7.6399   -0.3952   -3.2262 H   0  0  0  0  0  0  0  0  0  0  0  0
    9.3586   -0.9497   -3.3599 H   0  0  0  0  0  0  0  0  0  0  0  0
    8.1280   -2.0047   -2.5508 H   0  0  0  0  0  0  0  0  0  0  0  0
    3.1335    0.3032    1.5754 H   0  0  0  0  0  0  0  0  0  0  0  0
    1.6155   -1.0859   -0.5381 H   0  0  0  0  0  0  0  0  0  0  0  0
    1.3691   -2.8748    1.3168 H   0  0  0  0  0  0  0  0  0  0  0  0
    4.1035   -2.4603   -0.0798 H   0  0  0  0  0  0  0  0  0  0  0  0
    3.4457   -4.0163    0.5692 H   0  0  0  0  0  0  0  0  0  0  0  0
    2.6103   -3.1842   -0.8069 H   0  0  0  0  0  0  0  0  0  0  0  0
    4.0162   -1.6446    2.3523 H   0  0  0  0  0  0  0  0  0  0  0  0
    2.3926   -1.5048    3.1649 H   0  0  0  0  0  0  0  0  0  0  0  0
    3.1630   -3.1289    2.9316 H   0  0  0  0  0  0  0  0  0  0  0  0
    0.3146    1.1528    0.0173 H   0  0  0  0  0  0  0  0  0  0  0  0
   -1.7497    0.3211    1.9882 H   0  0  0  0  0  0  0  0  0  0  0  0
   -0.5380    2.3330    2.7604 H   0  0  0  0  0  0  0  0  0  0  0  0
   -2.5311    3.8665    2.9892 H   0  0  0  0  0  0  0  0  0  0  0  0
   -3.4502    2.8423    1.8281 H   0  0  0  0  0  0  0  0  0  0  0  0
   -1.5144    3.6328    0.1238 H   0  0  0  0  0  0  0  0  0  0  0  0
   -0.8504    4.5308    1.5536 H   0  0  0  0  0  0  0  0  0  0  0  0
    0.1969    3.3635    0.6545 H   0  0  0  0  0  0  0  0  0  0  0  0
   -3.8858    2.3233    4.2750 H   0  0  0  0  0  0  0  0  0  0  0  0
   -3.2811    0.8881    3.3592 H   0  0  0  0  0  0  0  0  0  0  0  0
   -2.1599    1.7963    4.4509 H   0  0  0  0  0  0  0  0  0  0  0  0
   -3.9122    0.3700    1.2008 H   0  0  0  0  0  0  0  0  0  0  0  0
   -4.2654    0.9523   -1.7006 H   0  0  0  0  0  0  0  0  0  0  0  0
   -6.0348   -0.7331    0.2506 H   0  0  0  0  0  0  0  0  0  0  0  0
   -6.4766   -0.2449   -1.4400 H   0  0  0  0  0  0  0  0  0  0  0  0
   -4.7377   -2.6815    0.6047 H   0  0  0  0  0  0  0  0  0  0  0  0
   -4.8543   -0.8947   -3.3328 H   0  0  0  0  0  0  0  0  0  0  0  0
   -3.5337   -4.6496   -0.3254 H   0  0  0  0  0  0  0  0  0  0  0  0
   -3.6477   -2.8672   -4.2604 H   0  0  0  0  0  0  0  0  0  0  0  0
   -2.9882   -4.7500   -2.7596 H   0  0  0  0  0  0  0  0  0  0  0  0
   -8.0151    3.1982   -0.4276 H   0  0  0  0  0  0  0  0  0  0  0  0
   -6.7028    4.3228   -1.0289 H   0  0  0  0  0  0  0  0  0  0  0  0
   -7.8215    3.4912   -2.2417 H   0  0  0  0  0  0  0  0  0  0  0  0
    5.2278    1.8166    1.0717 H   0  0  0  0  0  0  0  0  0  0  0  0
    5.3685   -0.9668    0.6741 H   0  0  0  0  0  0  0  0  0  0  0  0
  1  2  1  0
  2  3  1  0
  2  4  1  0
  3 38  1  0
  3 39  1  0
  3 10  1  0
  4  5  1  0
  4  6  1  0
  4 40  1  6
  5 41  1  0
  5 42  1  0
  6  7  1  0
  6 43  1  0
  6 44  1  0
  7  8  1  0
  7  9  1  0
  7 45  1  6
  8 46  1  0
  8 47  1  0
  8 48  1  0
  9 49  1  0
  9 50  1  0
  9 51  1  0
 10 11  1  0
 10 52  1  0
 11 12  1  0
 11 14  1  0
 11 53  1  6
 12 13  2  0
 12 17  1  0
 14 15  1  0
 14 16  1  0
 14 54  1  1
 15 55  1  0
 15 56  1  0
 15 57  1  0
 16 58  1  0
 16 59  1  0
 16 60  1  0
 17 18  1  0
 17 61  1  0
 18 19  1  0
 18 21  1  0
 18 62  1  1
 19 20  2  0
 19 25  1  0
 21 22  1  0
 21 23  1  0
 21 63  1  1
 22 24  1  0
 22 64  1  0
 22 65  1  0
 23 66  1  0
 23 67  1  0
 23 68  1  0
 24 69  1  0
 24 70  1  0
 24 71  1  0
 25 26  1  0
 25 72  1  0
 26 27  1  0
 26 28  1  0
 26 73  1  6
 27 35  2  0
 27 37  1  0
 28 29  1  0
 28 74  1  0
 28 75  1  0
 29 30  2  0
 29 31  1  0
 30 32  1  0
 30 76  1  0
 31 33  2  0
 31 77  1  0
 32 34  2  0
 32 78  1  0
 33 34  1  0
 33 79  1  0
 34 80  1  0
 36 81  1  0
 36 82  1  0
 36 83  1  0
 37 36  1  0
  1 84  1  0
  2 85  1  1
M  END
