
     RDKit          3D

 56 58  0  0  0  0  0  0  0  0999 V2000
   -5.8994    4.2237   -0.4760 C   0  0  0  0  0  0  0  0  0  0  0  0
   -5.8457    2.7332   -0.3369 C   0  0  0  0  0  0  0  0  0  0  0  0
   -4.6690    2.0330   -0.6302 C   0  0  0  0  0  0  0  0  0  0  0  0
   -6.9422    2.0112    0.0855 C   0  0  0  0  0  0  0  0  0  0  0  0
   -4.6536    0.6581   -0.4858 C   0  0  0  0  0  0  0  0  0  0  0  0
   -6.8378    0.6135    0.2020 C   0  0  0  0  0  0  0  0  0  0  0  0
   -7.8910   -0.1265    0.6584 N   0  0  0  0  0  0  0  0  0  0  0  0
   -3.4043   -0.1341   -0.7461 C   0  0  0  0  0  0  0  0  0  0  0  0
   -5.7166   -0.0402   -0.0801 N   0  0  0  0  0  0  0  0  0  0  0  0
   -1.5176   -1.4139    0.3142 C   0  0  0  0  0  0  0  0  0  0  0  0
   -0.3236   -0.7531    0.0384 C   0  0  0  0  0  0  0  0  0  0  0  0
   -2.7772   -0.6346    0.5622 C   0  0  0  0  0  0  0  0  0  0  0  0
   -0.3438   -3.4962    0.0447 C   0  0  0  0  0  0  0  0  0  0  0  0
    0.8601   -1.4329   -0.2354 C   0  0  0  0  0  0  0  0  0  0  0  0
    0.8441   -2.8212   -0.2299 C   0  0  0  0  0  0  0  0  0  0  0  0
    2.7810   -0.2100    0.8261 C   0  0  0  0  0  0  0  0  0  0  0  0
    5.0561   -0.1140    0.0504 N   0  0  0  0  0  0  0  0  0  0  0  0
    6.1906    0.5302   -0.2258 C   0  0  0  0  0  0  0  0  0  0  0  0
    5.2910    2.6136    0.5655 C   0  0  0  0  0  0  0  0  0  0  0  0
    6.3457    1.9083    0.0193 C   0  0  0  0  0  0  0  0  0  0  0  0
    4.0407    0.5695    0.5733 C   0  0  0  0  0  0  0  0  0  0  0  0
   -0.3542   -4.9241    0.0490 C   0  0  0  0  0  0  0  0  0  0  0  0
    4.1074    1.9250    0.8489 C   0  0  0  0  0  0  0  0  0  0  0  0
    2.1312   -0.6730   -0.4848 C   0  0  0  0  0  0  0  0  0  0  0  0
   -1.5219   -2.8022    0.3153 C   0  0  0  0  0  0  0  0  0  0  0  0
    8.4321    0.3295   -1.2314 C   0  0  0  0  0  0  0  0  0  0  0  0
   -5.6737    4.5290   -1.4986 H   0  0  0  0  0  0  0  0  0  0  0  0
   -6.8783    4.6198   -0.2109 H   0  0  0  0  0  0  0  0  0  0  0  0
   -5.1575    4.6979    0.1683 H   0  0  0  0  0  0  0  0  0  0  0  0
   -3.7817    2.5558   -0.9650 H   0  0  0  0  0  0  0  0  0  0  0  0
   -7.8729    2.5090    0.3304 H   0  0  0  0  0  0  0  0  0  0  0  0
   -8.8119    0.2686    0.5658 H   0  0  0  0  0  0  0  0  0  0  0  0
   -7.8500   -1.1152    0.4723 H   0  0  0  0  0  0  0  0  0  0  0  0
   -3.6402   -0.9913   -1.3819 H   0  0  0  0  0  0  0  0  0  0  0  0
   -2.6811    0.4791   -1.2881 H   0  0  0  0  0  0  0  0  0  0  0  0
   -2.5582    0.2213    1.2057 H   0  0  0  0  0  0  0  0  0  0  0  0
   -3.5024   -1.2535    1.0938 H   0  0  0  0  0  0  0  0  0  0  0  0
   -0.3142    0.3321    0.0366 H   0  0  0  0  0  0  0  0  0  0  0  0
   -2.4339   -3.3461    0.5274 H   0  0  0  0  0  0  0  0  0  0  0  0
    1.7482   -3.3791   -0.4394 H   0  0  0  0  0  0  0  0  0  0  0  0
    2.8399   -1.2943   -1.0348 H   0  0  0  0  0  0  0  0  0  0  0  0
    1.9195    0.1991   -1.1086 H   0  0  0  0  0  0  0  0  0  0  0  0
    3.0112   -1.0850    1.4401 H   0  0  0  0  0  0  0  0  0  0  0  0
    2.0731    0.4004    1.3909 H   0  0  0  0  0  0  0  0  0  0  0  0
    3.2542    2.4388    1.2735 H   0  0  0  0  0  0  0  0  0  0  0  0
    4.6188    4.6392    0.3455 H   0  0  0  0  0  0  0  0  0  0  0  0
    5.2959    4.2734    1.9206 H   0  0  0  0  0  0  0  0  0  0  0  0
    6.3670    4.4804    0.5338 H   0  0  0  0  0  0  0  0  0  0  0  0
    7.2715    2.4143   -0.2215 H   0  0  0  0  0  0  0  0  0  0  0  0
    6.9475   -1.1525   -1.0195 H   0  0  0  0  0  0  0  0  0  0  0  0
    9.0322   -0.4809   -1.6365 H   0  0  0  0  0  0  0  0  0  0  0  0
    8.2857    1.0707   -2.0229 H   0  0  0  0  0  0  0  0  0  0  0  0
    9.0091    0.8010   -0.4330 H   0  0  0  0  0  0  0  0  0  0  0  0
    7.1950   -0.2175   -0.7434 N   0  0  0  0  0  0  0  0  0  0  0  0
    5.4060    4.0796    0.8526 C   0  0  0  0  0  0  0  0  0  0  0  0
   -0.3621   -6.0765    0.0526 N   0  0  0  0  0  0  0  0  0  0  0  0
  1  2  1  0
  2  3  2  0
  2  4  1  0
  3  5  1  0
  4  6  2  0
  6  7  1  0
  6  9  1  0
  9  5  2  0
  5  8  1  0
  8 12  1  0
 12 10  1  0
 10 11  2  0
 10 25  1  0
 11 14  1  0
 25 13  2  0
 13 22  1  0
 13 15  1  0
 22 56  3  0
 15 14  2  0
 14 24  1  0
 24 16  1  0
 16 21  1  0
 21 17  2  0
 21 23  1  0
 17 18  1  0
 23 19  2  0
 19 55  1  0
 19 20  1  0
 20 18  2  0
 18 54  1  0
 54 26  1  0
  1 27  1  0
  1 28  1  0
  1 29  1  0
  3 30  1  0
  4 31  1  0
  7 32  1  0
  7 33  1  0
  8 34  1  0
  8 35  1  0
 12 36  1  0
 12 37  1  0
 11 38  1  0
 25 39  1  0
 15 40  1  0
 24 41  1  0
 24 42  1  0
 16 43  1  0
 16 44  1  0
 23 45  1  0
 55 46  1  0
 55 47  1  0
 55 48  1  0
 20 49  1  0
 54 50  1  0
 26 51  1  0
 26 52  1  0
 26 53  1  0
M  END
