
     RDKit          3D

 22 23  0  0  0  0  0  0  0  0999 V2000
   -0.3459    0.5418   -0.0808 C   0  0  0  0  0  0  0  0  0  0  0  0
    0.5826    1.5865   -0.0030 C   0  0  0  0  0  0  0  0  0  0  0  0
    1.9364    1.3450    0.0005 C   0  0  0  0  0  0  0  0  0  0  0  0
   -0.8460   -1.9290   -0.2382 C   0  0  0  0  0  0  0  0  0  0  0  0
   -2.1913   -1.5852    0.3794 C   0  0  0  0  0  0  0  0  0  0  0  0
   -1.7881    0.8556   -0.1028 C   0  0  0  0  0  0  0  0  0  0  0  0
   -2.7413   -0.3061   -0.2321 C   0  0  0  0  0  0  0  0  0  0  0  0
    0.1168   -0.7792   -0.1481 C   0  0  0  0  0  0  0  0  0  0  0  0
    1.4843   -1.0218   -0.1426 C   0  0  0  0  0  0  0  0  0  0  0  0
    2.3946    0.0266   -0.0728 C   0  0  0  0  0  0  0  0  0  0  0  0
    3.7217   -0.1670   -0.0655 O   0  0  0  0  0  0  0  0  0  0  0  0
   -2.1925    2.0017   -0.0472 O   0  0  0  0  0  0  0  0  0  0  0  0
    0.2283    2.6072    0.0533 H   0  0  0  0  0  0  0  0  0  0  0  0
    2.6464    2.1590    0.0601 H   0  0  0  0  0  0  0  0  0  0  0  0
   -0.4172   -2.8110    0.2402 H   0  0  0  0  0  0  0  0  0  0  0  0
   -0.9834   -2.1918   -1.2930 H   0  0  0  0  0  0  0  0  0  0  0  0
   -2.8956   -2.4036    0.2285 H   0  0  0  0  0  0  0  0  0  0  0  0
   -2.0788   -1.4606    1.4594 H   0  0  0  0  0  0  0  0  0  0  0  0
   -2.9161   -0.4595   -1.3043 H   0  0  0  0  0  0  0  0  0  0  0  0
   -3.7022   -0.0267    0.2015 H   0  0  0  0  0  0  0  0  0  0  0  0
    1.8404   -2.0459   -0.1917 H   0  0  0  0  0  0  0  0  0  0  0  0
    3.9295   -1.1048   -0.1192 H   0  0  0  0  0  0  0  0  0  0  0  0
  4  8  1  0
  4  5  1  0
  9  8  2  0
  9 10  1  0
 11 10  1  0
  8  1  1  0
 10  3  2  0
  5  7  1  0
  7  6  1  0
  1  6  1  0
  1  2  2  0
  3  2  1  0
  6 12  2  0
  2 13  1  0
  3 14  1  0
  4 15  1  0
  4 16  1  0
  5 17  1  0
  5 18  1  0
  7 19  1  0
  7 20  1  0
  9 21  1  0
 11 22  1  0
M  END
