
     RDKit          3D

 16 17  0  0  0  0  0  0  0  0999 V2000
   -3.5180    1.1791    0.0472 N   0  0  0  0  0  0  0  0  0  0  0  0
   -2.5462    0.5559    0.0351 C   0  0  0  0  0  0  0  0  0  0  0  0
   -1.3471   -0.1810    0.0233 C   0  0  0  0  0  0  0  0  0  0  0  0
   -0.0122    0.3412    0.0047 C   0  0  0  0  0  0  0  0  0  0  0  0
    0.5790    1.6001   -0.0099 C   0  0  0  0  0  0  0  0  0  0  0  0
    1.9612    1.6450   -0.0288 C   0  0  0  0  0  0  0  0  0  0  0  0
    2.7014    0.4567   -0.0319 C   0  0  0  0  0  0  0  0  0  0  0  0
    2.1632   -0.7539   -0.0180 N   0  0  0  0  0  0  0  0  0  0  0  0
    0.8434   -0.7766   -0.0004 C   0  0  0  0  0  0  0  0  0  0  0  0
    0.0626   -1.9011    0.0145 N   0  0  0  0  0  0  0  0  0  0  0  0
   -1.2394   -1.5536    0.0285 C   0  0  0  0  0  0  0  0  0  0  0  0
   -0.0127    2.5065   -0.0073 H   0  0  0  0  0  0  0  0  0  0  0  0
    2.4824    2.5921   -0.0419 H   0  0  0  0  0  0  0  0  0  0  0  0
    3.7839    0.5018   -0.0465 H   0  0  0  0  0  0  0  0  0  0  0  0
    0.4059   -2.8496    0.0136 H   0  0  0  0  0  0  0  0  0  0  0  0
   -2.0194   -2.2966    0.0410 H   0  0  0  0  0  0  0  0  0  0  0  0
  1  2  3  0
  2  3  1  0
 11  3  2  0
 11 10  1  0
  3  4  1  0
 10  9  1  0
  4  9  2  0
  4  5  1  0
  9  8  1  0
  5  6  2  0
  8  7  2  0
  6  7  1  0
  5 12  1  0
  6 13  1  0
  7 14  1  0
 10 15  1  0
 11 16  1  0
M  END
