
     RDKit          3D

 43 45  0  0  0  0  0  0  0  0999 V2000
   -1.7286    0.9428   -0.4188 C   0  0  0  0  0  0  0  0  0  0  0  0
   -1.3934    2.3832   -0.5497 C   0  0  0  0  0  0  0  0  0  0  0  0
   -2.7018    3.1488   -0.7062 C   0  0  0  0  0  0  0  0  0  0  0  0
   -3.9545    1.4272    0.5446 C   0  0  0  0  0  0  0  0  0  0  0  0
    6.3501    0.1457    1.7684 O   0  0  0  0  0  0  0  0  0  0  0  0
    6.3794    0.1279    0.5434 C   0  0  0  0  0  0  0  0  0  0  0  0
    7.6761    0.2054   -0.2234 C   0  0  0  0  0  0  0  0  0  0  0  0
    5.2664    0.0456   -0.1993 N   0  0  0  0  0  0  0  0  0  0  0  0
    3.9409   -0.0161    0.3793 C   0  0  0  0  0  0  0  0  0  0  0  0
    2.8798   -0.0070   -0.7078 C   0  0  0  0  0  0  0  0  0  0  0  0
    1.4756   -0.0585   -0.1217 C   0  0  0  0  0  0  0  0  0  0  0  0
   -0.9306   -0.1137   -0.7063 N   0  0  0  0  0  0  0  0  0  0  0  0
   -2.9283    0.5031    0.0861 C   0  0  0  0  0  0  0  0  0  0  0  0
   -4.9594    1.0718    1.1543 O   0  0  0  0  0  0  0  0  0  0  0  0
   -3.6840    2.7318    0.2800 N   0  0  0  0  0  0  0  0  0  0  0  0
   -2.8713   -0.9256    0.1276 C   0  0  0  0  0  0  0  0  0  0  0  0
   -1.6011   -1.2750   -0.3776 C   0  0  0  0  0  0  0  0  0  0  0  0
   -1.1861   -2.5976   -0.4931 C   0  0  0  0  0  0  0  0  0  0  0  0
   -2.0736   -3.5810   -0.0930 C   0  0  0  0  0  0  0  0  0  0  0  0
   -3.3406   -3.2545    0.4101 C   0  0  0  0  0  0  0  0  0  0  0  0
   -3.7482   -1.9380    0.5253 C   0  0  0  0  0  0  0  0  0  0  0  0
   -0.8538    2.7201    0.3415 H   0  0  0  0  0  0  0  0  0  0  0  0
   -0.7514    2.5868   -1.4079 H   0  0  0  0  0  0  0  0  0  0  0  0
   -2.5256    4.2149   -0.5780 H   0  0  0  0  0  0  0  0  0  0  0  0
   -3.0840    2.9978   -1.7216 H   0  0  0  0  0  0  0  0  0  0  0  0
    8.3395   -0.5955    0.1018 H   0  0  0  0  0  0  0  0  0  0  0  0
    7.5514    0.1354   -1.3021 H   0  0  0  0  0  0  0  0  0  0  0  0
    8.1729    1.1487    0.0046 H   0  0  0  0  0  0  0  0  0  0  0  0
    5.3490    0.0300   -1.2026 H   0  0  0  0  0  0  0  0  0  0  0  0
    3.8390   -0.9193    0.9884 H   0  0  0  0  0  0  0  0  0  0  0  0
    3.7916    0.8340    1.0503 H   0  0  0  0  0  0  0  0  0  0  0  0
    2.9889    0.8942   -1.3196 H   0  0  0  0  0  0  0  0  0  0  0  0
    3.0302   -0.8603   -1.3768 H   0  0  0  0  0  0  0  0  0  0  0  0
    1.3608   -0.9557    0.4936 H   0  0  0  0  0  0  0  0  0  0  0  0
    1.3183    0.7986    0.5399 H   0  0  0  0  0  0  0  0  0  0  0  0
    0.5136    0.8488   -1.8277 H   0  0  0  0  0  0  0  0  0  0  0  0
    0.5669   -0.8933   -1.8984 H   0  0  0  0  0  0  0  0  0  0  0  0
   -4.4166    3.3900    0.4988 H   0  0  0  0  0  0  0  0  0  0  0  0
   -0.2079   -2.8601   -0.8754 H   0  0  0  0  0  0  0  0  0  0  0  0
   -1.7818   -4.6202   -0.1692 H   0  0  0  0  0  0  0  0  0  0  0  0
   -4.0091   -4.0498    0.7144 H   0  0  0  0  0  0  0  0  0  0  0  0
   -4.7256   -1.6923    0.9172 H   0  0  0  0  0  0  0  0  0  0  0  0
    0.4213   -0.0513   -1.2195 C   0  0  0  0  0  0  0  0  0  0  0  0
 14  4  2  0
 15  4  1  0
 15  3  1  0
  4 13  1  0
  3  2  1  0
 13 16  1  0
 13  1  2  0
 21 16  2  0
 21 20  1  0
 16 17  1  0
  2  1  1  0
 20 19  2  0
  1 12  1  0
 17 12  1  0
 17 18  2  0
 12 43  1  0
 19 18  1  0
 43 11  1  0
 10 11  1  0
 10  9  1  0
  9  8  1  0
  5  6  2  0
  8  6  1  0
  6  7  1  0
  2 22  1  0
  2 23  1  0
  3 24  1  0
  3 25  1  0
  7 26  1  0
  7 27  1  0
  7 28  1  0
  8 29  1  0
  9 30  1  0
  9 31  1  0
 10 32  1  0
 10 33  1  0
 11 34  1  0
 11 35  1  0
 43 36  1  0
 43 37  1  0
 15 38  1  0
 18 39  1  0
 19 40  1  0
 20 41  1  0
 21 42  1  0
M  END
