
     RDKit          3D

 60 64  0  0  0  0  0  0  0  0999 V2000
    2.9292    1.9473   -0.6795 C   0  0  0  0  0  0  0  0  0  0  0  0
    1.8239    2.6351   -0.1644 C   0  0  0  0  0  0  0  0  0  0  0  0
    1.9373    4.0423   -0.1871 C   0  0  0  0  0  0  0  0  0  0  0  0
    3.0761    4.5989   -0.6097 N   0  0  0  0  0  0  0  0  0  0  0  0
    4.0666    2.4950   -1.1132 N   0  0  0  0  0  0  0  0  0  0  0  0
    3.6187   -0.3944   -1.0592 C   0  0  1  0  0  0  0  0  0  0  0  0
    2.6540    0.6177   -0.6772 N   0  0  0  0  0  0  0  0  0  0  0  0
    1.3995    0.4420   -0.1518 C   0  0  0  0  0  0  0  0  0  0  0  0
    4.0599    3.8092   -1.0325 C   0  0  0  0  0  0  0  0  0  0  0  0
    0.9567    4.8682    0.2078 N   0  0  0  0  0  0  0  0  0  0  0  0
    0.8424    1.6478    0.1790 C   0  0  0  0  0  0  0  0  0  0  0  0
   -0.4820    1.8209    0.7849 C   0  0  0  0  0  0  0  0  0  0  0  0
   -1.5799    1.1459    0.2642 C   0  0  0  0  0  0  0  0  0  0  0  0
   -0.6571    2.6366    1.9090 C   0  0  0  0  0  0  0  0  0  0  0  0
   -1.9122    2.7656    2.4765 C   0  0  0  0  0  0  0  0  0  0  0  0
   -3.0128    2.0919    1.9588 C   0  0  0  0  0  0  0  0  0  0  0  0
   -2.8420    1.2712    0.8467 C   0  0  0  0  0  0  0  0  0  0  0  0
   -3.8314    0.5719    0.2564 O   0  0  0  0  0  0  0  0  0  0  0  0
   -5.1486    0.6771    0.7827 C   0  0  0  0  0  0  0  0  0  0  0  0
   -6.0365   -0.1817   -0.0651 C   0  0  0  0  0  0  0  0  0  0  0  0
   -6.2576   -1.5143    0.2691 C   0  0  0  0  0  0  0  0  0  0  0  0
   -7.0559   -2.3191   -0.5324 C   0  0  0  0  0  0  0  0  0  0  0  0
   -7.6383   -1.7963   -1.6798 C   0  0  0  0  0  0  0  0  0  0  0  0
   -7.4206   -0.4676   -2.0219 C   0  0  0  0  0  0  0  0  0  0  0  0
   -6.6225    0.3340   -1.2175 C   0  0  0  0  0  0  0  0  0  0  0  0
    0.9787   -0.5416   -0.0196 H   0  0  0  0  0  0  0  0  0  0  0  0
    4.9615    4.3179   -1.3585 H   0  0  0  0  0  0  0  0  0  0  0  0
    0.0254    4.5286    0.3717 H   0  0  0  0  0  0  0  0  0  0  0  0
    1.0640    5.8556    0.0486 H   0  0  0  0  0  0  0  0  0  0  0  0
   -1.4669    0.5228   -0.6150 H   0  0  0  0  0  0  0  0  0  0  0  0
    0.1909    3.1434    2.3512 H   0  0  0  0  0  0  0  0  0  0  0  0
   -2.0432    3.3940    3.3479 H   0  0  0  0  0  0  0  0  0  0  0  0
   -3.9775    2.2174    2.4308 H   0  0  0  0  0  0  0  0  0  0  0  0
   -5.1711    0.3418    1.8249 H   0  0  0  0  0  0  0  0  0  0  0  0
   -5.4848    1.7189    0.7587 H   0  0  0  0  0  0  0  0  0  0  0  0
   -5.8071   -1.9243    1.1654 H   0  0  0  0  0  0  0  0  0  0  0  0
   -7.2252   -3.3529   -0.2608 H   0  0  0  0  0  0  0  0  0  0  0  0
   -8.2645   -2.4213   -2.3031 H   0  0  0  0  0  0  0  0  0  0  0  0
   -7.8749   -0.0550   -2.9132 H   0  0  0  0  0  0  0  0  0  0  0  0
   -6.4597    1.3717   -1.4845 H   0  0  0  0  0  0  0  0  0  0  0  0
    4.5198   -0.8641    0.1053 C   0  0  0  0  0  0  0  0  0  0  0  0
    3.6360   -2.1178    0.2512 C   0  0  1  0  0  0  0  0  0  0  0  0
    3.0584   -1.8245   -1.1478 C   0  0  0  0  0  0  0  0  0  0  0  0
    4.3307   -3.4426    0.4641 C   0  0  0  0  0  0  0  0  0  0  0  0
    3.3689   -4.5223    0.3988 N   0  0  0  0  0  0  0  0  0  0  0  0
    3.7076   -5.8084    0.2198 C   0  0  0  0  0  0  0  0  0  0  0  0
    4.8678   -6.1706    0.0668 O   0  0  0  0  0  0  0  0  0  0  0  0
    2.5601   -6.7880    0.2184 C   0  0  0  0  0  0  0  0  0  0  0  0
    4.1376   -0.0305   -1.9439 H   0  0  0  0  0  0  0  0  0  0  0  0
    5.5233   -1.1063   -0.2480 H   0  0  0  0  0  0  0  0  0  0  0  0
    4.5993   -0.1969    0.9629 H   0  0  0  0  0  0  0  0  0  0  0  0
    2.8803   -1.9664    1.0282 H   0  0  0  0  0  0  0  0  0  0  0  0
    1.9896   -1.9588   -1.3128 H   0  0  0  0  0  0  0  0  0  0  0  0
    3.5886   -2.3784   -1.9242 H   0  0  0  0  0  0  0  0  0  0  0  0
    5.0873   -3.5883   -0.3099 H   0  0  0  0  0  0  0  0  0  0  0  0
    4.8527   -3.4408    1.4274 H   0  0  0  0  0  0  0  0  0  0  0  0
    2.4055   -4.3018    0.5919 H   0  0  0  0  0  0  0  0  0  0  0  0
    1.5817   -6.3141    0.2746 H   0  0  0  0  0  0  0  0  0  0  0  0
    2.6001   -7.3929   -0.6868 H   0  0  0  0  0  0  0  0  0  0  0  0
    2.6625   -7.4654    1.0664 H   0  0  0  0  0  0  0  0  0  0  0  0
  6  7  1  0
  5  9  2  0
  5  1  1  0
  9  4  1  0
  7  1  1  0
  7  8  1  0
  1  2  2  0
 24 23  2  0
 24 25  1  0
  4  3  2  0
  8 11  2  0
 23 22  1  0
  2  3  1  0
  2 11  1  0
  3 10  1  0
 25 20  2  0
 11 12  1  0
 13 12  2  0
 13 17  1  0
 18 17  1  0
 18 19  1  0
 22 21  2  0
 20 21  1  0
 20 19  1  0
 12 14  1  0
 17 16  2  0
 14 15  2  0
 16 15  1  0
  8 26  1  0
  9 27  1  0
 10 28  1  0
 10 29  1  0
 13 30  1  0
 14 31  1  0
 15 32  1  0
 16 33  1  0
 19 34  1  0
 19 35  1  0
 21 36  1  0
 22 37  1  0
 23 38  1  0
 24 39  1  0
 25 40  1  0
  6 41  1  0
 41 42  1  0
 42 43  1  0
 43  6  1  0
 42 44  1  0
 44 45  1  0
 45 46  1  0
 46 47  2  0
 46 48  1  0
  6 49  1  6
 41 50  1  0
 41 51  1  0
 42 52  1  1
 43 53  1  0
 43 54  1  0
 44 55  1  0
 44 56  1  0
 45 57  1  0
 48 58  1  0
 48 59  1  0
 48 60  1  0
M  END
