
     RDKit          3D

 27 29  0  0  0  0  0  0  0  0999 V2000
   -0.5364    1.8658    0.9487 C   0  0  0  0  0  0  0  0  0  0  0  0
   -1.6845    1.8487   -0.0525 C   0  0  0  0  0  0  0  0  0  0  0  0
   -2.2114    0.4529   -0.1096 C   0  0  0  0  0  0  0  0  0  0  0  0
   -3.7583    0.0160   -0.7230 S   0  0  0  0  0  0  0  0  0  0  0  0
   -3.4968   -1.6443   -0.3687 C   0  0  0  0  0  0  0  0  0  0  0  0
   -2.2767   -1.8489    0.1929 C   0  0  0  0  0  0  0  0  0  0  0  0
   -1.5346   -0.6405    0.3384 C   0  0  0  0  0  0  0  0  0  0  0  0
   -0.1502   -0.5514    0.9135 C   0  0  0  0  0  0  0  0  0  0  0  0
    0.4012    0.7804    0.6885 N   0  0  0  0  0  0  0  0  0  0  0  0
    1.4822    1.0453   -0.0687 C   0  0  0  0  0  0  0  0  0  0  0  0
    1.6852    2.0822   -0.6620 O   0  0  0  0  0  0  0  0  0  0  0  0
    2.4632    0.0220   -0.1086 N   0  0  0  0  0  0  0  0  0  0  0  0
    3.2926   -0.2253   -1.1786 C   0  0  0  0  0  0  0  0  0  0  0  0
    4.1673   -1.1687   -0.7442 C   0  0  0  0  0  0  0  0  0  0  0  0
    3.9193   -1.4864    0.5685 N   0  0  0  0  0  0  0  0  0  0  0  0
    2.9015   -0.7616    0.9208 C   0  0  0  0  0  0  0  0  0  0  0  0
   -0.0112    2.8167    0.9327 H   0  0  0  0  0  0  0  0  0  0  0  0
   -2.4540    2.5536    0.2679 H   0  0  0  0  0  0  0  0  0  0  0  0
   -4.2541   -2.3777   -0.5985 H   0  0  0  0  0  0  0  0  0  0  0  0
   -1.9105   -2.8225    0.4884 H   0  0  0  0  0  0  0  0  0  0  0  0
   -0.1661   -0.7702    1.9854 H   0  0  0  0  0  0  0  0  0  0  0  0
    3.1739    0.2674   -2.1280 H   0  0  0  0  0  0  0  0  0  0  0  0
    4.9609   -1.6387   -1.3032 H   0  0  0  0  0  0  0  0  0  0  0  0
    2.4538   -0.7321    1.9028 H   0  0  0  0  0  0  0  0  0  0  0  0
   -0.9259    1.7234    1.9590 H   0  0  0  0  0  0  0  0  0  0  0  0
   -1.3385    2.1797   -1.0353 H   0  0  0  0  0  0  0  0  0  0  0  0
    0.4773   -1.3055    0.4428 H   0  0  0  0  0  0  0  0  0  0  0  0
  5  4  1  0
  5  6  2  0
  4  3  1  0
  6  7  1  0
  3  7  2  0
  3  2  1  0
  7  8  1  0
  2  1  1  0
  8  9  1  0
  1  9  1  0
  9 10  1  0
 16 12  1  0
 16 15  2  0
 10 12  1  0
 10 11  2  0
 12 13  1  0
 15 14  1  0
 13 14  2  0
  1 17  1  0
  2 18  1  0
  5 19  1  0
  6 20  1  0
  8 21  1  0
 13 22  1  0
 14 23  1  0
 16 24  1  0
  1 25  1  0
  2 26  1  0
  8 27  1  0
M  END
