
     RDKit          3D

 33 34  0  0  0  0  0  0  0  0999 V2000
    0.6953    0.1102    1.6869 C   0  0  0  0  0  0  0  0  0  0  0  0
    5.4197   -0.2102    0.4275 C   0  0  0  0  0  0  0  0  0  0  0  0
    4.2605   -0.9470    0.6425 C   0  0  0  0  0  0  0  0  0  0  0  0
    5.3942    0.8963   -0.4093 C   0  0  0  0  0  0  0  0  0  0  0  0
    3.0501    0.5201   -0.8149 C   0  0  0  0  0  0  0  0  0  0  0  0
   -3.0757   -1.2841    0.0700 C   0  0  0  0  0  0  0  0  0  0  0  0
    1.8216   -1.4190    0.2194 C   0  0  0  0  0  0  0  0  0  0  0  0
   -0.5690   -1.3495    0.2752 C   0  0  0  0  0  0  0  0  0  0  0  0
    3.0674   -0.5942    0.0219 C   0  0  0  0  0  0  0  0  0  0  0  0
   -1.7892   -0.5335   -0.0229 C   0  0  0  0  0  0  0  0  0  0  0  0
    4.2035    1.2603   -1.0286 C   0  0  0  0  0  0  0  0  0  0  0  0
   -4.2717   -0.5470   -0.4480 C   0  0  0  0  0  0  0  0  0  0  0  0
   -2.8276    1.4261   -0.6568 C   0  0  0  0  0  0  0  0  0  0  0  0
   -1.6872    0.6961   -0.3362 N   0  0  0  0  0  0  0  0  0  0  0  0
   -4.0436    0.7694   -0.7349 N   0  0  0  0  0  0  0  0  0  0  0  0
    0.6442   -0.5963    0.4229 N   0  0  0  0  0  0  0  0  0  0  0  0
   -5.3613   -1.0537   -0.5803 O   0  0  0  0  0  0  0  0  0  0  0  0
   -2.7608    2.6092   -0.8859 O   0  0  0  0  0  0  0  0  0  0  0  0
    0.6997   -0.5691    2.5529 H   0  0  0  0  0  0  0  0  0  0  0  0
    1.5967    0.7203    1.7365 H   0  0  0  0  0  0  0  0  0  0  0  0
   -0.1562    0.7816    1.7836 H   0  0  0  0  0  0  0  0  0  0  0  0
    4.2845   -1.8033    1.3067 H   0  0  0  0  0  0  0  0  0  0  0  0
    6.2938    1.4753   -0.5747 H   0  0  0  0  0  0  0  0  0  0  0  0
    2.1204    0.8124   -1.2875 H   0  0  0  0  0  0  0  0  0  0  0  0
   -2.9913   -2.2493   -0.4352 H   0  0  0  0  0  0  0  0  0  0  0  0
   -3.2588   -1.5244    1.1238 H   0  0  0  0  0  0  0  0  0  0  0  0
    1.6616   -2.0256   -0.6775 H   0  0  0  0  0  0  0  0  0  0  0  0
    1.9821   -2.1326    1.0445 H   0  0  0  0  0  0  0  0  0  0  0  0
   -0.7933   -1.9973    1.1413 H   0  0  0  0  0  0  0  0  0  0  0  0
   -0.4705   -2.0403   -0.5713 H   0  0  0  0  0  0  0  0  0  0  0  0
    4.1748    2.1249   -1.6796 H   0  0  0  0  0  0  0  0  0  0  0  0
   -4.8366    1.3246   -1.0344 H   0  0  0  0  0  0  0  0  0  0  0  0
    6.3392   -0.4967    0.9219 H   0  0  0  0  0  0  0  0  0  0  0  0
 17 12  2  0
 12 15  1  0
 12  6  1  0
 15 13  1  0
  6 10  1  0
 13 18  2  0
 13 14  1  0
 10 14  2  0
 10  8  1  0
  2  3  2  0
  2  4  1  0
  3  9  1  0
  8 16  1  0
 16  1  1  0
 16  7  1  0
  4 11  2  0
  9  7  1  0
  9  5  2  0
 11  5  1  0
  1 19  1  0
  1 20  1  0
  1 21  1  0
  2 33  1  0
  3 22  1  0
  4 23  1  0
  5 24  1  0
  6 25  1  0
  6 26  1  0
  7 27  1  0
  7 28  1  0
  8 29  1  0
  8 30  1  0
 11 31  1  0
 15 32  1  0
M  END
