
     RDKit          3D

 13 12  0  0  0  0  0  0  0  0999 V2000
    2.7719    0.1726   -0.0493 C   0  0  0  0  0  0  0  0  0  0  0  0
    1.3732    0.7609   -0.0252 C   0  0  0  0  0  0  0  0  0  0  0  0
    0.2899   -0.2699   -0.0133 C   0  0  0  0  0  0  0  0  0  0  0  0
    0.4714   -1.4582   -0.0226 O   0  0  0  0  0  0  0  0  0  0  0  0
   -1.1488    0.2747    0.0114 C   0  0  0  0  0  0  0  0  0  0  0  0
   -2.0362   -0.6948    0.0292 O   0  0  0  0  0  0  0  0  0  0  0  0
   -1.3949    1.4513    0.0133 O   0  0  0  0  0  0  0  0  0  0  0  0
    2.9629   -0.4480    0.8258 H   0  0  0  0  0  0  0  0  0  0  0  0
    2.9356   -0.4387   -0.9363 H   0  0  0  0  0  0  0  0  0  0  0  0
    3.5097    0.9731   -0.0563 H   0  0  0  0  0  0  0  0  0  0  0  0
    1.2339    1.4101    0.8451 H   0  0  0  0  0  0  0  0  0  0  0  0
    1.2080    1.4155   -0.8872 H   0  0  0  0  0  0  0  0  0  0  0  0
   -2.9352   -0.3307    0.0440 H   0  0  0  0  0  0  0  0  0  0  0  0
  1  2  1  0
  1  8  1  0
  1  9  1  0
  1 10  1  0
  2  3  1  0
  2 11  1  0
  2 12  1  0
  3  4  2  0
  3  5  1  0
  5  6  1  0
  5  7  2  0
  6 13  1  0
M  END
