
     RDKit          3D

 52 53  0  0  0  0  0  0  0  0999 V2000
    4.3560   -3.1682   -0.0546 C   0  0  0  0  0  0  0  0  0  0  0  0
    2.4153   -2.5574    1.3738 N   0  0  0  0  0  0  0  0  0  0  0  0
    5.0067   -3.8320    0.7555 O   0  0  0  0  0  0  0  0  0  0  0  0
   -0.9646    2.3631    1.6723 C   0  0  0  0  0  0  0  0  0  0  0  0
   -1.3945    0.9206    1.7701 C   0  0  0  0  0  0  0  0  0  0  0  0
   -2.2576    0.5275    0.5855 C   0  0  0  0  0  0  0  0  0  0  0  0
   -2.7464   -0.9011    0.7323 C   0  0  0  0  0  0  0  0  0  0  0  0
   -3.6511   -1.2894   -0.3836 C   0  0  0  0  0  0  0  0  0  0  0  0
   -3.2006   -2.1350   -1.4032 C   0  0  0  0  0  0  0  0  0  0  0  0
   -4.0529   -2.4954   -2.4459 C   0  0  0  0  0  0  0  0  0  0  0  0
   -5.3611   -2.0147   -2.4788 C   0  0  0  0  0  0  0  0  0  0  0  0
   -5.8163   -1.1713   -1.4650 C   0  0  0  0  0  0  0  0  0  0  0  0
    3.1771   -2.2307    0.1963 C   0  0  1  0  0  0  0  0  0  0  0  0
    3.7075   -0.7784    0.1966 C   0  0  0  0  0  0  0  0  0  0  0  0
    2.6842    0.1723   -0.3110 C   0  0  0  0  0  0  0  0  0  0  0  0
    0.7457    1.9791   -1.2339 C   0  0  0  0  0  0  0  0  0  0  0  0
   -4.9662   -0.8101   -0.4223 C   0  0  0  0  0  0  0  0  0  0  0  0
   -1.6653    3.3696    2.2800 C   0  0  0  0  0  0  0  0  0  0  0  0
   -3.0548    3.3040    2.7081 C   0  0  0  0  0  0  0  0  0  0  0  0
   -3.5512    4.1596    3.4509 O   0  0  0  0  0  0  0  0  0  0  0  0
    3.0553   -0.4249   -2.6651 O   0  0  0  0  0  0  0  0  0  0  0  0
    0.2828    2.6658    1.1081 N   0  0  0  0  0  0  0  0  0  0  0  0
   -0.2137    2.8776   -1.6372 O   0  0  0  0  0  0  0  0  0  0  0  0
    1.9689    0.9637    0.5911 C   0  0  0  0  0  0  0  0  0  0  0  0
    2.4174    0.2968   -1.6879 C   0  0  0  0  0  0  0  0  0  0  0  0
    0.9893    1.8771    0.1655 C   0  0  0  0  0  0  0  0  0  0  0  0
    1.4485    1.1989   -2.1524 C   0  0  0  0  0  0  0  0  0  0  0  0
    4.7144   -3.2621   -1.3663 O   0  0  0  0  0  0  0  0  0  0  0  0
    1.8922   -3.3998    1.2367 H   0  0  0  0  0  0  0  0  0  0  0  0
    3.0057   -2.6598    2.1756 H   0  0  0  0  0  0  0  0  0  0  0  0
   -0.5097    0.2294    1.8215 H   0  0  0  0  0  0  0  0  0  0  0  0
   -1.9622    0.7685    2.7269 H   0  0  0  0  0  0  0  0  0  0  0  0
   -3.1359    1.2208    0.5069 H   0  0  0  0  0  0  0  0  0  0  0  0
   -1.6665    0.6295   -0.3615 H   0  0  0  0  0  0  0  0  0  0  0  0
   -1.8636   -1.5941    0.7723 H   0  0  0  0  0  0  0  0  0  0  0  0
   -3.2955   -1.0072    1.7074 H   0  0  0  0  0  0  0  0  0  0  0  0
   -2.1693   -2.5169   -1.3819 H   0  0  0  0  0  0  0  0  0  0  0  0
   -3.6910   -3.1606   -3.2438 H   0  0  0  0  0  0  0  0  0  0  0  0
   -6.0331   -2.2995   -3.3018 H   0  0  0  0  0  0  0  0  0  0  0  0
   -6.8480   -0.7902   -1.4878 H   0  0  0  0  0  0  0  0  0  0  0  0
    2.4894   -2.3605   -0.6973 H   0  0  0  0  0  0  0  0  0  0  0  0
    4.0301   -0.4808    1.2303 H   0  0  0  0  0  0  0  0  0  0  0  0
    4.6231   -0.7236   -0.4546 H   0  0  0  0  0  0  0  0  0  0  0  0
   -5.3263   -0.1450    0.3764 H   0  0  0  0  0  0  0  0  0  0  0  0
   -1.1804    4.3388    2.4903 H   0  0  0  0  0  0  0  0  0  0  0  0
   -3.7246    2.6183    2.1390 H   0  0  0  0  0  0  0  0  0  0  0  0
    3.9354   -0.0452   -2.8202 H   0  0  0  0  0  0  0  0  0  0  0  0
    0.1654    3.4334   -2.3346 H   0  0  0  0  0  0  0  0  0  0  0  0
    2.1803    0.8633    1.6701 H   0  0  0  0  0  0  0  0  0  0  0  0
    1.2570    1.2790   -3.2317 H   0  0  0  0  0  0  0  0  0  0  0  0
    5.4667   -3.8698   -1.4639 H   0  0  0  0  0  0  0  0  0  0  0  0
    0.7280    3.5192    1.3901 H   0  0  0  0  0  0  0  0  0  0  0  0
 13  1  1  0
  1  3  2  0
  1 28  1  0
  2 13  1  0
  2 29  1  0
  2 30  1  0
  5  4  1  0
 22  4  1  0
  4 18  2  0
  6  5  1  0
  5 31  1  0
  5 32  1  0
  7  6  1  0
  6 33  1  0
  6 34  1  0
  8  7  1  0
  7 35  1  0
  7 36  1  0
 17  8  1  0
  8  9  2  0
 10  9  1  0
  9 37  1  0
 11 10  2  0
 10 38  1  0
 12 11  1  0
 11 39  1  0
 12 17  2  0
 12 40  1  0
 13 14  1  0
 13 41  1  6
 15 14  1  0
 14 42  1  0
 14 43  1  0
 24 15  2  0
 25 15  1  0
 23 16  1  0
 16 26  2  0
 16 27  1  0
 17 44  1  0
 18 19  1  0
 18 45  1  0
 19 20  2  0
 19 46  1  0
 25 21  1  0
 21 47  1  0
 22 26  1  0
 23 48  1  0
 26 24  1  0
 24 49  1  0
 27 25  2  0
 27 50  1  0
 28 51  1  0
 22 52  1  0
M  END
