
     RDKit          3D

 49 52  0  0  0  0  0  0  0  0999 V2000
    1.3835   -0.8453    2.6643 C   0  0  0  0  0  0  0  0  0  0  0  0
    1.6522    0.5915    3.1106 C   0  0  0  0  0  0  0  0  0  0  0  0
    0.4351    1.1715    3.7754 C   0  0  0  0  0  0  0  0  0  0  0  0
    0.4806    1.7402    4.8456 O   0  0  0  0  0  0  0  0  0  0  0  0
   -0.8432    0.9994    3.0029 C   0  0  0  0  0  0  0  0  0  0  0  0
   -1.0656   -0.4341    2.4863 C   0  0  1  0  0  0  0  0  0  0  0  0
   -2.3282   -0.4975    1.6279 C   0  0  0  0  0  0  0  0  0  0  0  0
   -2.1445    0.1880    0.2804 C   0  0  0  0  0  0  0  0  0  0  0  0
   -0.9324   -0.3519   -0.4748 C   0  0  2  0  0  0  0  0  0  0  0  0
    0.3412   -0.2567    0.3958 C   0  0  1  0  0  0  0  0  0  0  0  0
    0.1653   -1.0045    1.7425 C   0  0  1  0  0  0  0  0  0  0  0  0
    1.6146   -0.6577   -0.3655 C   0  0  0  0  0  0  0  0  0  0  0  0
    1.7714    0.0563   -1.7117 C   0  0  0  0  0  0  0  0  0  0  0  0
    0.5174   -0.1276   -2.5478 C   0  0  1  0  0  0  0  0  0  0  0  0
   -0.6949    0.4004   -1.7705 C   0  0  1  0  0  0  0  0  0  0  0  0
   -1.8032    0.4744   -2.8219 C   0  0  0  0  0  0  0  0  0  0  0  0
   -1.0604    0.9925   -4.0621 C   0  0  0  0  0  0  0  0  0  0  0  0
    0.4112    0.6814   -3.8217 C   0  0  0  0  0  0  0  0  0  0  0  0
    1.3257    1.0220   -4.5330 O   0  0  0  0  0  0  0  0  0  0  0  0
    0.3604   -1.5913   -3.0027 C   0  0  0  0  0  0  0  0  0  0  0  0
   -0.0218   -2.5117    1.5255 C   0  0  0  0  0  0  0  0  0  0  0  0
    1.2161   -1.4612    3.5549 H   0  0  0  0  0  0  0  0  0  0  0  0
    2.2804   -1.2504    2.1923 H   0  0  0  0  0  0  0  0  0  0  0  0
    2.5049    0.6372    3.7897 H   0  0  0  0  0  0  0  0  0  0  0  0
    1.8988    1.2156    2.2441 H   0  0  0  0  0  0  0  0  0  0  0  0
   -1.6880    1.3074    3.6221 H   0  0  0  0  0  0  0  0  0  0  0  0
   -0.7960    1.7046    2.1657 H   0  0  0  0  0  0  0  0  0  0  0  0
   -1.2262   -1.0630    3.3709 H   0  0  0  0  0  0  0  0  0  0  0  0
   -2.6043   -1.5435    1.4687 H   0  0  0  0  0  0  0  0  0  0  0  0
   -3.1641   -0.0451    2.1691 H   0  0  0  0  0  0  0  0  0  0  0  0
   -3.0471    0.0575   -0.3223 H   0  0  0  0  0  0  0  0  0  0  0  0
   -2.0300    1.2695    0.4175 H   0  0  0  0  0  0  0  0  0  0  0  0
   -1.1325   -1.4017   -0.7181 H   0  0  0  0  0  0  0  0  0  0  0  0
    0.4577    0.8143    0.6176 H   0  0  0  0  0  0  0  0  0  0  0  0
    2.4905   -0.4249    0.2452 H   0  0  0  0  0  0  0  0  0  0  0  0
    1.6396   -1.7397   -0.5204 H   0  0  0  0  0  0  0  0  0  0  0  0
    1.9369    1.1248   -1.5400 H   0  0  0  0  0  0  0  0  0  0  0  0
    2.6559   -0.3202   -2.2312 H   0  0  0  0  0  0  0  0  0  0  0  0
   -0.4528    1.4401   -1.4970 H   0  0  0  0  0  0  0  0  0  0  0  0
   -2.2376   -0.5114   -3.0031 H   0  0  0  0  0  0  0  0  0  0  0  0
   -2.6188    1.1343   -2.5265 H   0  0  0  0  0  0  0  0  0  0  0  0
   -1.3951    0.5468   -5.0009 H   0  0  0  0  0  0  0  0  0  0  0  0
   -1.1703    2.0743   -4.1744 H   0  0  0  0  0  0  0  0  0  0  0  0
    0.2307   -2.2698   -2.1613 H   0  0  0  0  0  0  0  0  0  0  0  0
   -0.4907   -1.7401   -3.6686 H   0  0  0  0  0  0  0  0  0  0  0  0
    1.2538   -1.9074   -3.5435 H   0  0  0  0  0  0  0  0  0  0  0  0
   -0.2651   -3.0018    2.4708 H   0  0  0  0  0  0  0  0  0  0  0  0
   -0.8174   -2.7519    0.8221 H   0  0  0  0  0  0  0  0  0  0  0  0
    0.8910   -2.9766    1.1500 H   0  0  0  0  0  0  0  0  0  0  0  0
  1  2  1  0
  1 11  1  0
  1 22  1  0
  1 23  1  0
  2  3  1  0
  2 24  1  0
  2 25  1  0
  3  4  2  0
  3  5  1  0
  5  6  1  0
  5 26  1  0
  5 27  1  0
  6  7  1  0
  6 11  1  0
  6 28  1  1
  7  8  1  0
  7 29  1  0
  7 30  1  0
  8  9  1  0
  8 31  1  0
  8 32  1  0
  9 10  1  0
  9 15  1  0
  9 33  1  6
 10 11  1  0
 10 12  1  0
 10 34  1  1
 11 21  1  6
 12 13  1  0
 12 35  1  0
 12 36  1  0
 13 14  1  0
 13 37  1  0
 13 38  1  0
 14 15  1  0
 14 18  1  0
 14 20  1  6
 15 16  1  0
 15 39  1  1
 16 17  1  0
 16 40  1  0
 16 41  1  0
 17 18  1  0
 17 42  1  0
 17 43  1  0
 18 19  2  0
 20 44  1  0
 20 45  1  0
 20 46  1  0
 21 47  1  0
 21 48  1  0
 21 49  1  0
M  END
