
     RDKit          3D

 95 94  0  0  0  0  0  0  0  0999 V2000
    0.9100   -4.6537    1.6087 O   0  0  0  0  0  0  0  0  0  0  0  0
   -1.3580   -4.3340    0.5753 O   0  0  0  0  0  0  0  0  0  0  0  0
   -0.1083   -3.6357    0.9174 P   0  0  2  0  0  0  0  0  0  0  0  0
    0.6782   -2.9496   -0.2979 O   0  0  0  0  0  0  0  0  0  0  0  0
    0.8940   -3.6943   -1.4961 C   0  0  0  0  0  0  0  0  0  0  0  0
    1.7467   -2.9087   -2.4586 C   0  0  0  0  0  0  0  0  0  0  0  0
    3.1862   -2.6752   -2.0757 N   0  0  1  0  0  0  0  0  0  0  0  0
    3.8402   -3.9370   -1.6330 C   0  0  0  0  0  0  0  0  0  0  0  0
    3.8863   -2.1634   -3.2910 C   0  0  0  0  0  0  0  0  0  0  0  0
    3.3151   -1.6464   -1.0042 C   0  0  0  0  0  0  0  0  0  0  0  0
   -0.1966   -2.3453    1.8379 O   0  0  0  0  0  0  0  0  0  0  0  0
   -0.8583   -2.4118    3.1033 C   0  0  0  0  0  0  0  0  0  0  0  0
   -1.2161   -1.0135    3.5706 C   0  0  1  0  0  0  0  0  0  0  0  0
   -0.0417   -0.1468    3.9661 C   0  0  0  0  0  0  0  0  0  0  0  0
    0.7355    0.1426    2.8100 O   0  0  0  0  0  0  0  0  0  0  0  0
    1.8545    0.8399    2.9714 C   0  0  0  0  0  0  0  0  0  0  0  0
    2.2702    1.1845    4.0492 O   0  0  0  0  0  0  0  0  0  0  0  0
    2.4938    1.1604    1.6485 C   0  0  0  0  0  0  0  0  0  0  0  0
    3.9418    1.6114    1.7536 C   0  0  0  0  0  0  0  0  0  0  0  0
    4.5069    2.0137    0.3970 C   0  0  0  0  0  0  0  0  0  0  0  0
    5.9611    2.4604    0.4638 C   0  0  0  0  0  0  0  0  0  0  0  0
    6.5158    2.8822   -0.8912 C   0  0  0  0  0  0  0  0  0  0  0  0
    7.9703    3.3316   -0.8347 C   0  0  0  0  0  0  0  0  0  0  0  0
    8.5156    3.7686   -2.1886 C   0  0  0  0  0  0  0  0  0  0  0  0
    9.9712    4.2168   -2.1389 C   0  0  0  0  0  0  0  0  0  0  0  0
   10.4975    4.6635   -3.4961 C   0  0  0  0  0  0  0  0  0  0  0  0
   -1.9427   -0.3045    2.5694 O   0  0  0  0  0  0  0  0  0  0  0  0
   -3.2442   -0.5494    2.4054 C   0  0  0  0  0  0  0  0  0  0  0  0
   -3.8578   -1.3439    3.0702 O   0  0  0  0  0  0  0  0  0  0  0  0
   -3.8113    0.2870    1.2934 C   0  0  0  0  0  0  0  0  0  0  0  0
   -5.3127    0.1385    1.1083 C   0  0  0  0  0  0  0  0  0  0  0  0
   -5.8212    1.0088   -0.0344 C   0  0  0  0  0  0  0  0  0  0  0  0
   -7.3248    0.8980   -0.2515 C   0  0  0  0  0  0  0  0  0  0  0  0
   -7.8252    1.7765   -1.3914 C   0  0  0  0  0  0  0  0  0  0  0  0
   -9.3290    1.6805   -1.6170 C   0  0  0  0  0  0  0  0  0  0  0  0
   -9.8209    2.5641   -2.7566 C   0  0  0  0  0  0  0  0  0  0  0  0
  -11.3254    2.4788   -2.9836 C   0  0  0  0  0  0  0  0  0  0  0  0
  -11.8025    3.3608   -4.1293 C   0  0  0  0  0  0  0  0  0  0  0  0
    1.7246   -4.2814    1.9722 H   0  0  0  0  0  0  0  0  0  0  0  0
    1.3315   -4.6714   -1.2808 H   0  0  0  0  0  0  0  0  0  0  0  0
   -0.0534   -3.8696   -2.0093 H   0  0  0  0  0  0  0  0  0  0  0  0
    1.7638   -3.4697   -3.3929 H   0  0  0  0  0  0  0  0  0  0  0  0
    1.3069   -1.9324   -2.6614 H   0  0  0  0  0  0  0  0  0  0  0  0
    3.6940   -4.7034   -2.3894 H   0  0  0  0  0  0  0  0  0  0  0  0
    4.9023   -3.7513   -1.5009 H   0  0  0  0  0  0  0  0  0  0  0  0
    3.4172   -4.2607   -0.6866 H   0  0  0  0  0  0  0  0  0  0  0  0
    4.9158   -1.9313   -3.0340 H   0  0  0  0  0  0  0  0  0  0  0  0
    3.8638   -2.9231   -4.0673 H   0  0  0  0  0  0  0  0  0  0  0  0
    3.3823   -1.2644   -3.6353 H   0  0  0  0  0  0  0  0  0  0  0  0
    2.8690   -2.0059   -0.0850 H   0  0  0  0  0  0  0  0  0  0  0  0
    4.3716   -1.4527   -0.8396 H   0  0  0  0  0  0  0  0  0  0  0  0
    2.8196   -0.7357   -1.3302 H   0  0  0  0  0  0  0  0  0  0  0  0
   -0.2063   -2.8746    3.8481 H   0  0  0  0  0  0  0  0  0  0  0  0
   -1.7636   -3.0177    3.0321 H   0  0  0  0  0  0  0  0  0  0  0  0
   -1.8200   -1.1400    4.4751 H   0  0  0  0  0  0  0  0  0  0  0  0
    0.5489   -0.6744    4.7192 H   0  0  0  0  0  0  0  0  0  0  0  0
   -0.4059    0.7797    4.4172 H   0  0  0  0  0  0  0  0  0  0  0  0
    1.8886    1.9480    1.1843 H   0  0  0  0  0  0  0  0  0  0  0  0
    2.3968    0.2950    0.9880 H   0  0  0  0  0  0  0  0  0  0  0  0
    4.5511    0.8105    2.1818 H   0  0  0  0  0  0  0  0  0  0  0  0
    4.0161    2.4583    2.4394 H   0  0  0  0  0  0  0  0  0  0  0  0
    3.8960    2.8196   -0.0243 H   0  0  0  0  0  0  0  0  0  0  0  0
    4.4207    1.1746   -0.3023 H   0  0  0  0  0  0  0  0  0  0  0  0
    6.5738    1.6490    0.8721 H   0  0  0  0  0  0  0  0  0  0  0  0
    6.0525    3.2941    1.1683 H   0  0  0  0  0  0  0  0  0  0  0  0
    5.9002    3.6933   -1.2961 H   0  0  0  0  0  0  0  0  0  0  0  0
    6.4204    2.0492   -1.5964 H   0  0  0  0  0  0  0  0  0  0  0  0
    8.5881    2.5173   -0.4395 H   0  0  0  0  0  0  0  0  0  0  0  0
    8.0675    4.1581   -0.1222 H   0  0  0  0  0  0  0  0  0  0  0  0
    7.8980    4.5844   -2.5813 H   0  0  0  0  0  0  0  0  0  0  0  0
    8.4157    2.9438   -2.9031 H   0  0  0  0  0  0  0  0  0  0  0  0
   10.5886    3.3984   -1.7550 H   0  0  0  0  0  0  0  0  0  0  0  0
   10.0735    5.0356   -1.4198 H   0  0  0  0  0  0  0  0  0  0  0  0
   11.5399    4.9792   -3.4404 H   0  0  0  0  0  0  0  0  0  0  0  0
   10.4347    3.8563   -4.2280 H   0  0  0  0  0  0  0  0  0  0  0  0
    9.9175    5.5031   -3.8834 H   0  0  0  0  0  0  0  0  0  0  0  0
   -3.5472    1.3319    1.4825 H   0  0  0  0  0  0  0  0  0  0  0  0
   -3.2850    0.0175    0.3713 H   0  0  0  0  0  0  0  0  0  0  0  0
   -5.5628   -0.9070    0.9106 H   0  0  0  0  0  0  0  0  0  0  0  0
   -5.8290    0.4123    2.0326 H   0  0  0  0  0  0  0  0  0  0  0  0
   -5.5599    2.0543    0.1623 H   0  0  0  0  0  0  0  0  0  0  0  0
   -5.3014    0.7359   -0.9594 H   0  0  0  0  0  0  0  0  0  0  0  0
   -7.5886   -0.1458   -0.4538 H   0  0  0  0  0  0  0  0  0  0  0  0
   -7.8459    1.1692    0.6733 H   0  0  0  0  0  0  0  0  0  0  0  0
   -7.5552    2.8188   -1.1885 H   0  0  0  0  0  0  0  0  0  0  0  0
   -7.3031    1.5038   -2.3154 H   0  0  0  0  0  0  0  0  0  0  0  0
   -9.6007    0.6392   -1.8224 H   0  0  0  0  0  0  0  0  0  0  0  0
   -9.8520    1.9532   -0.6934 H   0  0  0  0  0  0  0  0  0  0  0  0
   -9.5442    3.6048   -2.5537 H   0  0  0  0  0  0  0  0  0  0  0  0
   -9.3004    2.2884   -3.6808 H   0  0  0  0  0  0  0  0  0  0  0  0
  -11.6031    1.4392   -3.1834 H   0  0  0  0  0  0  0  0  0  0  0  0
  -11.8461    2.7593   -2.0627 H   0  0  0  0  0  0  0  0  0  0  0  0
  -11.5538    4.4088   -3.9515 H   0  0  0  0  0  0  0  0  0  0  0  0
  -11.3353    3.0690   -5.0719 H   0  0  0  0  0  0  0  0  0  0  0  0
  -12.8830    3.2955   -4.2629 H   0  0  0  0  0  0  0  0  0  0  0  0
  3  1  1  1
  1 39  1  0
  2  3  2  0
  3  4  1  0
  3 11  1  0
  4  5  1  0
  5  6  1  0
  5 40  1  0
  5 41  1  0
  7  6  1  6
  6 42  1  0
  6 43  1  0
  7  8  1  0
  7  9  1  0
  7 10  1  0
  8 44  1  0
  8 45  1  0
  8 46  1  0
  9 47  1  0
  9 48  1  0
  9 49  1  0
 10 50  1  0
 10 51  1  0
 10 52  1  0
 11 12  1  0
 12 13  1  0
 12 53  1  0
 12 54  1  0
 13 14  1  0
 13 27  1  0
 13 55  1  1
 14 15  1  0
 14 56  1  0
 14 57  1  0
 15 16  1  0
 16 17  2  0
 16 18  1  0
 18 19  1  0
 18 58  1  0
 18 59  1  0
 19 20  1  0
 19 60  1  0
 19 61  1  0
 20 21  1  0
 20 62  1  0
 20 63  1  0
 21 22  1  0
 21 64  1  0
 21 65  1  0
 22 23  1  0
 22 66  1  0
 22 67  1  0
 23 24  1  0
 23 68  1  0
 23 69  1  0
 24 25  1  0
 24 70  1  0
 24 71  1  0
 25 26  1  0
 25 72  1  0
 25 73  1  0
 26 74  1  0
 26 75  1  0
 26 76  1  0
 27 28  1  0
 28 29  2  0
 28 30  1  0
 30 31  1  0
 30 77  1  0
 30 78  1  0
 31 32  1  0
 31 79  1  0
 31 80  1  0
 32 33  1  0
 32 81  1  0
 32 82  1  0
 33 34  1  0
 33 83  1  0
 33 84  1  0
 34 35  1  0
 34 85  1  0
 34 86  1  0
 35 36  1  0
 35 87  1  0
 35 88  1  0
 36 37  1  0
 36 89  1  0
 36 90  1  0
 37 38  1  0
 37 91  1  0
 37 92  1  0
 38 93  1  0
 38 94  1  0
 38 95  1  0
M  CHG  1   7   1
M  END
