
     RDKit          3D

 43 42  0  0  0  0  0  0  0  0999 V2000
   -6.7805   -1.5434   -0.3963 C   0  0  0  0  0  0  0  0  0  0  0  0
   -5.8855   -0.7375   -1.3109 C   0  0  0  0  0  0  0  0  0  0  0  0
   -5.0472    0.0872   -0.5343 O   0  0  0  0  0  0  0  0  0  0  0  0
   -4.1649    0.8518   -1.3136 C   0  0  0  0  0  0  0  0  0  0  0  0
   -3.3172    1.7250   -0.4244 C   0  0  0  0  0  0  0  0  0  0  0  0
   -2.4935    0.9257    0.3860 O   0  0  0  0  0  0  0  0  0  0  0  0
   -1.6267    1.6843    1.1893 C   0  0  0  0  0  0  0  0  0  0  0  0
   -0.8085    0.7712    2.0658 C   0  0  0  0  0  0  0  0  0  0  0  0
    0.0179   -0.0407    1.2713 O   0  0  0  0  0  0  0  0  0  0  0  0
    0.8550   -0.8700    2.0360 C   0  0  0  0  0  0  0  0  0  0  0  0
    1.6693   -1.7552    1.1279 C   0  0  0  0  0  0  0  0  0  0  0  0
    2.5242   -0.9707    0.3364 O   0  0  0  0  0  0  0  0  0  0  0  0
    3.3530   -1.7433   -0.4941 C   0  0  0  0  0  0  0  0  0  0  0  0
    4.1868   -0.8414   -1.3678 C   0  0  0  0  0  0  0  0  0  0  0  0
    5.0578   -0.0775   -0.5748 O   0  0  0  0  0  0  0  0  0  0  0  0
    5.8937    0.7627   -1.3371 C   0  0  0  0  0  0  0  0  0  0  0  0
    6.7736    1.5684   -0.4076 C   0  0  0  0  0  0  0  0  0  0  0  0
   -7.4098   -0.8967    0.2158 H   0  0  0  0  0  0  0  0  0  0  0  0
   -7.4351   -2.1815   -0.9895 H   0  0  0  0  0  0  0  0  0  0  0  0
   -6.1989   -2.1855    0.2660 H   0  0  0  0  0  0  0  0  0  0  0  0
   -5.2855   -1.4107   -1.9389 H   0  0  0  0  0  0  0  0  0  0  0  0
   -6.4948   -0.1300   -1.9946 H   0  0  0  0  0  0  0  0  0  0  0  0
   -3.5202    0.2065   -1.9278 H   0  0  0  0  0  0  0  0  0  0  0  0
   -4.7118    1.5056   -2.0078 H   0  0  0  0  0  0  0  0  0  0  0  0
   -2.7187    2.3840   -1.0687 H   0  0  0  0  0  0  0  0  0  0  0  0
   -3.9592    2.3757    0.1870 H   0  0  0  0  0  0  0  0  0  0  0  0
   -0.9624    2.3069    0.5725 H   0  0  0  0  0  0  0  0  0  0  0  0
   -2.1863    2.3680    1.8430 H   0  0  0  0  0  0  0  0  0  0  0  0
   -0.2141    1.3986    2.7445 H   0  0  0  0  0  0  0  0  0  0  0  0
   -1.4714    0.1606    2.6958 H   0  0  0  0  0  0  0  0  0  0  0  0
    1.5212   -0.2735    2.6759 H   0  0  0  0  0  0  0  0  0  0  0  0
    0.2700   -1.5181    2.7035 H   0  0  0  0  0  0  0  0  0  0  0  0
    2.2387   -2.4526    1.7582 H   0  0  0  0  0  0  0  0  0  0  0  0
    1.0030   -2.3651    0.5009 H   0  0  0  0  0  0  0  0  0  0  0  0
    4.0049   -2.3993    0.1008 H   0  0  0  0  0  0  0  0  0  0  0  0
    2.7594   -2.3955   -1.1499 H   0  0  0  0  0  0  0  0  0  0  0  0
    4.7430   -1.4743   -2.0740 H   0  0  0  0  0  0  0  0  0  0  0  0
    3.5321   -0.1947   -1.9699 H   0  0  0  0  0  0  0  0  0  0  0  0
    6.5144    0.1677   -2.0216 H   0  0  0  0  0  0  0  0  0  0  0  0
    5.2923    1.4361   -1.9633 H   0  0  0  0  0  0  0  0  0  0  0  0
    7.4016    0.9216    0.2056 H   0  0  0  0  0  0  0  0  0  0  0  0
    7.4295    2.2158   -0.9893 H   0  0  0  0  0  0  0  0  0  0  0  0
    6.1804    2.2007    0.2538 H   0  0  0  0  0  0  0  0  0  0  0  0
  1  2  1  0
  2  3  1  0
  3  4  1  0
  4  5  1  0
  5  6  1  0
  6  7  1  0
  7  8  1  0
  8  9  1  0
  9 10  1  0
 10 11  1  0
 11 12  1  0
 12 13  1  0
 13 14  1  0
 14 15  1  0
 15 16  1  0
 16 17  1  0
  1 18  1  0
  1 19  1  0
  1 20  1  0
  2 21  1  0
  2 22  1  0
  4 23  1  0
  4 24  1  0
  5 25  1  0
  5 26  1  0
  7 27  1  0
  7 28  1  0
  8 29  1  0
  8 30  1  0
 10 31  1  0
 10 32  1  0
 11 33  1  0
 11 34  1  0
 13 35  1  0
 13 36  1  0
 14 37  1  0
 14 38  1  0
 16 39  1  0
 16 40  1  0
 17 41  1  0
 17 42  1  0
 17 43  1  0
M  END
