
     RDKit          3D

 19 18  0  0  0  0  0  0  0  0999 V2000
   -1.4972   -0.3322    0.0103 P   0  0  1  0  0  0  0  0  0  0  0  0
   -1.5060   -1.3610   -1.0528 O   0  0  0  0  0  0  0  0  0  0  0  0
   -2.6469    0.7811   -0.0442 O   0  0  0  0  0  0  0  0  0  0  0  0
   -1.5801   -1.0206    1.4538 O   0  0  0  0  0  0  0  0  0  0  0  0
   -0.0071    0.7603   -0.0192 C   0  0  1  0  0  0  0  0  0  0  0  0
    1.5123   -0.2819   -0.1298 P   0  0  1  0  0  0  0  0  0  0  0  0
    1.5561   -1.3698    0.8735 O   0  0  0  0  0  0  0  0  0  0  0  0
    1.4810   -0.6800   -1.6762 O   0  0  0  0  0  0  0  0  0  0  0  0
    2.7442    0.7451   -0.0838 O   0  0  0  0  0  0  0  0  0  0  0  0
   -0.0975    1.6358   -1.1160 O   0  0  0  0  0  0  0  0  0  0  0  0
    0.0792    1.6134    1.2447 C   0  0  0  0  0  0  0  0  0  0  0  0
   -3.5430    0.4310   -0.1491 H   0  0  0  0  0  0  0  0  0  0  0  0
   -1.7994   -0.4406    2.1946 H   0  0  0  0  0  0  0  0  0  0  0  0
    2.2983   -1.0597   -2.0282 H   0  0  0  0  0  0  0  0  0  0  0  0
    3.1696    0.8181    0.7808 H   0  0  0  0  0  0  0  0  0  0  0  0
   -0.0819    1.1443   -1.9460 H   0  0  0  0  0  0  0  0  0  0  0  0
    0.2364    1.0061    2.1348 H   0  0  0  0  0  0  0  0  0  0  0  0
    0.9092    2.3140    1.1636 H   0  0  0  0  0  0  0  0  0  0  0  0
   -0.8324    2.1939    1.3848 H   0  0  0  0  0  0  0  0  0  0  0  0
  2  1  2  0
  1  4  1  1
  1  5  1  0
  1  3  1  0
  3 12  1  0
  4 13  1  0
 11  5  1  0
  5 10  1  6
  5  6  1  0
  6  7  2  0
  6  8  1  6
  6  9  1  0
  8 14  1  0
  9 15  1  0
 10 16  1  0
 11 17  1  0
 11 18  1  0
 11 19  1  0
M  END
