
     RDKit          3D

 39 42  0  0  0  0  0  0  0  0999 V2000
   -0.3225   -0.9033    1.8196 F   0  0  0  0  0  0  0  0  0  0  0  0
    0.1707   -1.8313    0.9817 C   0  0  0  0  0  0  0  0  0  0  0  0
    0.4709   -3.0665    1.5326 C   0  0  0  0  0  0  0  0  0  0  0  0
    0.9500   -4.0753    0.7164 C   0  0  0  0  0  0  0  0  0  0  0  0
    1.1193   -3.8390   -0.6425 C   0  0  0  0  0  0  0  0  0  0  0  0
    0.8152   -2.5939   -1.1624 C   0  0  0  0  0  0  0  0  0  0  0  0
    0.3393   -1.5502   -0.3653 C   0  0  0  0  0  0  0  0  0  0  0  0
    0.0815   -0.2212   -1.0815 C   0  0  2  0  0  0  0  0  0  0  0  0
    1.3031    0.3446   -1.5993 N   0  0  0  0  0  0  0  0  0  0  0  0
    2.1707    0.8107   -0.6417 C   0  0  0  0  0  0  0  0  0  0  0  0
    3.5573    0.8012   -0.8044 C   0  0  0  0  0  0  0  0  0  0  0  0
    4.3680    1.2934    0.2013 C   0  0  0  0  0  0  0  0  0  0  0  0
    3.8224    1.8017    1.3801 C   0  0  0  0  0  0  0  0  0  0  0  0
    2.4494    1.8332    1.5314 C   0  0  0  0  0  0  0  0  0  0  0  0
    1.6144    1.3401    0.5304 C   0  0  0  0  0  0  0  0  0  0  0  0
    0.1495    1.4966    0.6402 C   0  0  0  0  0  0  0  0  0  0  0  0
   -0.3672    2.2206    1.4724 O   0  0  0  0  0  0  0  0  0  0  0  0
   -0.5784    0.8052   -0.2948 N   0  0  0  0  0  0  0  0  0  0  0  0
   -1.9858    0.9213   -0.3694 C   0  0  0  0  0  0  0  0  0  0  0  0
   -2.5901    2.1765   -0.4217 C   0  0  0  0  0  0  0  0  0  0  0  0
   -3.9675    2.2787   -0.5346 C   0  0  0  0  0  0  0  0  0  0  0  0
   -4.7587    1.1391   -0.6097 C   0  0  0  0  0  0  0  0  0  0  0  0
   -4.1561   -0.1090   -0.5749 C   0  0  0  0  0  0  0  0  0  0  0  0
   -2.7778   -0.2207   -0.4493 C   0  0  0  0  0  0  0  0  0  0  0  0
    0.3245   -3.2256    2.5931 H   0  0  0  0  0  0  0  0  0  0  0  0
    1.1869   -5.0423    1.1393 H   0  0  0  0  0  0  0  0  0  0  0  0
    1.4834   -4.6215   -1.2943 H   0  0  0  0  0  0  0  0  0  0  0  0
    0.9426   -2.4268   -2.2261 H   0  0  0  0  0  0  0  0  0  0  0  0
   -0.5593   -0.4377   -1.9370 H   0  0  0  0  0  0  0  0  0  0  0  0
    1.7122   -0.1589   -2.3715 H   0  0  0  0  0  0  0  0  0  0  0  0
    3.9879    0.3934   -1.7105 H   0  0  0  0  0  0  0  0  0  0  0  0
    5.4424    1.2715    0.0711 H   0  0  0  0  0  0  0  0  0  0  0  0
    4.4668    2.1753    2.1640 H   0  0  0  0  0  0  0  0  0  0  0  0
    2.0109    2.2420    2.4321 H   0  0  0  0  0  0  0  0  0  0  0  0
   -1.9904    3.0749   -0.3933 H   0  0  0  0  0  0  0  0  0  0  0  0
   -4.4230    3.2594   -0.5821 H   0  0  0  0  0  0  0  0  0  0  0  0
   -5.8330    1.2252   -0.7043 H   0  0  0  0  0  0  0  0  0  0  0  0
   -4.7582   -1.0062   -0.6327 H   0  0  0  0  0  0  0  0  0  0  0  0
   -2.3352   -1.2080   -0.4106 H   0  0  0  0  0  0  0  0  0  0  0  0
 17 16  2  0
 14 13  1  0
 14 15  2  0
 13 12  2  0
 16 15  1  0
 16 18  1  0
 15 10  1  0
 22 21  1  0
 22 23  2  0
 21 20  2  0
 12 11  1  0
 23 24  1  0
 20 19  1  0
 24 19  2  0
 19 18  1  0
 18  8  1  0
 10 11  2  0
 10  9  1  0
  6  7  1  0
  6  5  2  0
  9  8  1  0
  8  7  1  0
  7  2  2  0
  5  4  1  0
  2  1  1  0
  2  3  1  0
  4  3  2  0
  3 25  1  0
  4 26  1  0
  5 27  1  0
  6 28  1  0
  8 29  1  6
  9 30  1  0
 11 31  1  0
 12 32  1  0
 13 33  1  0
 14 34  1  0
 20 35  1  0
 21 36  1  0
 22 37  1  0
 23 38  1  0
 24 39  1  0
M  END
