
     RDKit          3D

 25 25  0  0  0  0  0  0  0  0999 V2000
   -0.4210    1.4648   -0.0390 C   0  0  0  0  0  0  0  0  0  0  0  0
   -0.9345    0.0658   -0.3726 C   0  0  1  0  0  0  0  0  0  0  0  0
   -0.1468   -0.9668    0.4339 C   0  0  0  0  0  0  0  0  0  0  0  0
   -2.4219   -0.0640   -0.1689 C   0  0  0  0  0  0  0  0  0  0  0  0
   -3.2242   -0.3161   -1.2007 C   0  0  0  0  0  0  0  0  0  0  0  0
   -2.9693    0.1024    1.2277 C   0  0  0  0  0  0  0  0  0  0  0  0
    1.0677    1.5426   -0.1010 C   0  0  0  0  0  0  0  0  0  0  0  0
    1.3409   -0.8567    0.2071 C   0  0  0  0  0  0  0  0  0  0  0  0
    2.0656   -1.8326    0.2589 O   0  0  0  0  0  0  0  0  0  0  0  0
    1.8961    0.4916   -0.0229 C   0  0  0  0  0  0  0  0  0  0  0  0
   -0.8501    2.1975   -0.7267 H   0  0  0  0  0  0  0  0  0  0  0  0
   -0.7449    1.7755    0.9619 H   0  0  0  0  0  0  0  0  0  0  0  0
   -0.7275   -0.1133   -1.4333 H   0  0  0  0  0  0  0  0  0  0  0  0
   -0.3155   -0.8176    1.5078 H   0  0  0  0  0  0  0  0  0  0  0  0
   -0.4695   -1.9827    0.1994 H   0  0  0  0  0  0  0  0  0  0  0  0
    3.8844    0.2792    0.7781 H   0  0  0  0  0  0  0  0  0  0  0  0
    3.7740    0.0087   -0.9502 H   0  0  0  0  0  0  0  0  0  0  0  0
    3.6762    1.6491   -0.3137 H   0  0  0  0  0  0  0  0  0  0  0  0
   -4.2971   -0.4098   -1.0799 H   0  0  0  0  0  0  0  0  0  0  0  0
   -2.8363   -0.4371   -2.2049 H   0  0  0  0  0  0  0  0  0  0  0  0
   -2.1917    0.3046    1.9634 H   0  0  0  0  0  0  0  0  0  0  0  0
   -3.6806    0.9274    1.2779 H   0  0  0  0  0  0  0  0  0  0  0  0
   -3.4940   -0.7960    1.5548 H   0  0  0  0  0  0  0  0  0  0  0  0
    1.4936    2.5340   -0.2232 H   0  0  0  0  0  0  0  0  0  0  0  0
    3.3845    0.6158   -0.1317 C   0  0  0  0  0  0  0  0  0  0  0  0
 25 10  1  0
  7 10  2  0
  7  1  1  0
 10  8  1  0
  1  2  1  0
  8  9  2  0
  8  3  1  0
  5  4  2  0
  2  3  1  0
  2  4  1  0
  4  6  1  0
  1 11  1  0
  1 12  1  0
  2 13  1  6
  3 14  1  0
  3 15  1  0
 25 16  1  0
 25 17  1  0
 25 18  1  0
  5 19  1  0
  5 20  1  0
  6 21  1  0
  6 22  1  0
  6 23  1  0
  7 24  1  0
M  END
