
     RDKit          3D

 30 31  0  0  0  0  0  0  0  0999 V2000
   -0.5878    0.0930    0.0330 C   0  0  0  0  0  0  0  0  0  0  0  0
    0.8920    0.1341    0.0471 C   0  0  0  0  0  0  0  0  0  0  0  0
   -1.3259   -1.0956   -0.1941 C   0  0  0  0  0  0  0  0  0  0  0  0
    3.0168   -0.6742    0.8758 C   0  0  0  0  0  0  0  0  0  0  0  0
   -3.2162    0.2904    0.1298 C   0  0  0  0  0  0  0  0  0  0  0  0
    3.6645    0.2967    0.1286 C   0  0  0  0  0  0  0  0  0  0  0  0
   -5.1004    1.6928    0.4113 C   0  0  0  0  0  0  0  0  0  0  0  0
    2.9513    1.1927   -0.6527 C   0  0  0  0  0  0  0  0  0  0  0  0
    1.5684    1.1087   -0.6835 C   0  0  0  0  0  0  0  0  0  0  0  0
    1.6333   -0.7488    0.8295 C   0  0  0  0  0  0  0  0  0  0  0  0
   -2.6992   -0.9995   -0.1109 C   0  0  0  0  0  0  0  0  0  0  0  0
   -0.6598   -2.3912   -0.5487 C   0  0  0  0  0  0  0  0  0  0  0  0
   -1.1653    1.2573    0.2425 N   0  0  0  0  0  0  0  0  0  0  0  0
   -2.4760    1.3616    0.2781 N   0  0  0  0  0  0  0  0  0  0  0  0
   -4.5393    0.4052    0.1895 O   0  0  0  0  0  0  0  0  0  0  0  0
    5.3937    0.3950    0.1747 Cl  0  0  0  0  0  0  0  0  0  0  0  0
    3.5791   -1.3623    1.4920 H   0  0  0  0  0  0  0  0  0  0  0  0
   -4.3763   -2.1753    0.5150 H   0  0  0  0  0  0  0  0  0  0  0  0
   -4.1873   -2.0689   -1.2257 H   0  0  0  0  0  0  0  0  0  0  0  0
   -3.1196   -3.1052   -0.2850 H   0  0  0  0  0  0  0  0  0  0  0  0
   -4.7705    2.1205    1.3586 H   0  0  0  0  0  0  0  0  0  0  0  0
   -4.8512    2.3857   -0.3931 H   0  0  0  0  0  0  0  0  0  0  0  0
   -6.1766    1.5442    0.4379 H   0  0  0  0  0  0  0  0  0  0  0  0
    3.4648    1.9492   -1.2302 H   0  0  0  0  0  0  0  0  0  0  0  0
    1.0116    1.8093   -1.2919 H   0  0  0  0  0  0  0  0  0  0  0  0
    1.1343   -1.4989    1.4298 H   0  0  0  0  0  0  0  0  0  0  0  0
   -0.5951   -3.0559    0.3150 H   0  0  0  0  0  0  0  0  0  0  0  0
   -1.2197   -2.9175   -1.3201 H   0  0  0  0  0  0  0  0  0  0  0  0
    0.3492   -2.2402   -0.9236 H   0  0  0  0  0  0  0  0  0  0  0  0
   -3.6375   -2.1505   -0.2859 C   0  0  0  0  0  0  0  0  0  0  0  0
 16  6  1  0
  4  6  2  0
  4 10  1  0
  6  8  1  0
 10  2  2  0
  8  9  2  0
  2  9  1  0
  2  1  1  0
 13  1  1  0
 13 14  2  0
  1  3  2  0
 14  5  1  0
  3 12  1  0
  3 11  1  0
  5 11  2  0
  5 15  1  0
 11 30  1  0
 15  7  1  0
  4 17  1  0
 30 18  1  0
 30 19  1  0
 30 20  1  0
  7 21  1  0
  7 22  1  0
  7 23  1  0
  8 24  1  0
  9 25  1  0
 10 26  1  0
 12 27  1  0
 12 28  1  0
 12 29  1  0
M  END
