
     RDKit          3D

 32 33  0  0  0  0  0  0  0  0999 V2000
    0.1970   -0.5272    1.1932 C   0  0  2  0  0  0  0  0  0  0  0  0
    0.0255    0.9918    1.0369 C   0  0  1  0  0  0  0  0  0  0  0  0
    0.8268    1.5270   -0.1504 C   0  0  2  0  0  0  0  0  0  0  0  0
    2.2286    0.9320   -0.1811 C   0  0  1  0  0  0  0  0  0  0  0  0
    2.1224   -0.5941   -0.1981 C   0  0  1  0  0  0  0  0  0  0  0  0
    3.4758   -1.2692   -0.2212 C   0  0  0  0  0  0  0  0  0  0  0  0
   -2.0005    0.3075    0.3233 C   0  0  0  0  0  0  0  0  0  0  0  0
   -5.4031   -0.3148   -1.0532 C   0  0  0  0  0  0  0  0  0  0  0  0
   -1.3785    1.2752    0.8817 N   0  0  0  0  0  0  0  0  0  0  0  0
    0.8527    2.9269   -0.0486 O   0  0  0  0  0  0  0  0  0  0  0  0
    2.8596    1.4236   -1.3426 O   0  0  0  0  0  0  0  0  0  0  0  0
    1.4560   -1.0309    0.9765 O   0  0  0  0  0  0  0  0  0  0  0  0
   -3.2790    0.3709   -0.0880 N   0  0  0  0  0  0  0  0  0  0  0  0
    3.2907   -2.6606   -0.3173 O   0  0  0  0  0  0  0  0  0  0  0  0
   -1.1070   -1.2074    0.0522 S   0  0  0  0  0  0  0  0  0  0  0  0
   -4.1104   -0.7746   -0.4062 C   0  0  0  0  0  0  0  0  0  0  0  0
    4.1531   -3.0661   -0.4418 H   0  0  0  0  0  0  0  0  0  0  0  0
    4.0358   -0.8789   -1.0782 H   0  0  0  0  0  0  0  0  0  0  0  0
    4.0334   -0.9906    0.6840 H   0  0  0  0  0  0  0  0  0  0  0  0
    1.5555   -0.9028   -1.0898 H   0  0  0  0  0  0  0  0  0  0  0  0
    2.7701    1.2402    0.7250 H   0  0  0  0  0  0  0  0  0  0  0  0
   -0.0898   -0.8353    2.1997 H   0  0  0  0  0  0  0  0  0  0  0  0
    3.8093    1.4563   -1.1976 H   0  0  0  0  0  0  0  0  0  0  0  0
    0.3206    1.2099   -1.0769 H   0  0  0  0  0  0  0  0  0  0  0  0
    1.3317    3.2690   -0.8108 H   0  0  0  0  0  0  0  0  0  0  0  0
    0.4081    1.4673    1.9469 H   0  0  0  0  0  0  0  0  0  0  0  0
   -4.3313   -1.3663    0.4880 H   0  0  0  0  0  0  0  0  0  0  0  0
   -3.5742   -1.4267   -1.0991 H   0  0  0  0  0  0  0  0  0  0  0  0
   -5.9772    0.3248   -0.3811 H   0  0  0  0  0  0  0  0  0  0  0  0
   -5.2079    0.2396   -1.9711 H   0  0  0  0  0  0  0  0  0  0  0  0
   -6.0220   -1.1758   -1.3011 H   0  0  0  0  0  0  0  0  0  0  0  0
   -3.7574    1.2214    0.1716 H   0  0  0  0  0  0  0  0  0  0  0  0
 14  6  1  0
  6  5  1  0
  5 12  1  0
  5  4  1  0
 12  1  1  0
  4 11  1  0
  4  3  1  0
  3 10  1  0
  3  2  1  0
  2  9  1  0
  2  1  1  0
  9  7  2  0
  1 15  1  0
 15  7  1  0
  7 13  1  0
 13 16  1  0
 16  8  1  0
 14 17  1  0
  6 18  1  0
  6 19  1  0
  5 20  1  6
  4 21  1  1
  1 22  1  1
 11 23  1  0
  3 24  1  6
 10 25  1  0
  2 26  1  1
 16 27  1  0
 16 28  1  0
  8 29  1  0
  8 30  1  0
  8 31  1  0
 13 32  1  0
M  END
