
     RDKit          3D

 48 51  0  0  0  0  0  0  0  0999 V2000
    0.8660    2.2936   -0.3065 C   0  0  0  0  0  0  0  0  0  0  0  0
   -0.2611    0.1737   -0.2568 C   0  0  0  0  0  0  0  0  0  0  0  0
   -1.4890    0.8081   -0.1028 C   0  0  0  0  0  0  0  0  0  0  0  0
   -2.6732   -1.2608   -0.1146 C   0  0  0  0  0  0  0  0  0  0  0  0
   -4.1019   -1.7001   -0.0412 C   0  0  0  0  0  0  0  0  0  0  0  0
   -5.0629   -1.2029   -0.9154 C   0  0  0  0  0  0  0  0  0  0  0  0
   -4.5128   -2.6315    0.9034 C   0  0  0  0  0  0  0  0  0  0  0  0
   -3.8512    2.7785   -0.7170 N   0  0  0  0  0  0  0  0  0  0  0  0
   -2.8501    3.9092    1.0091 N   0  0  0  0  0  0  0  0  0  0  0  0
   -1.5468    2.2092   -0.0596 C   0  0  0  0  0  0  0  0  0  0  0  0
   -0.3593    2.9252   -0.1489 C   0  0  0  0  0  0  0  0  0  0  0  0
    0.9152    0.9088   -0.3637 C   0  0  0  0  0  0  0  0  0  0  0  0
   -2.6548    0.1501    0.0301 O   0  0  0  0  0  0  0  0  0  0  0  0
   -6.3660   -1.6558   -0.8083 C   0  0  0  0  0  0  0  0  0  0  0  0
   -6.6636   -2.5956    0.1698 C   0  0  0  0  0  0  0  0  0  0  0  0
   -5.7589   -3.0777    1.0113 N   0  0  0  0  0  0  0  0  0  0  0  0
    2.2172    0.1589   -0.4705 C   0  0  2  0  0  0  0  0  0  0  0  0
    2.7576   -0.1787    0.9175 C   0  0  0  0  0  0  0  0  0  0  0  0
    4.1013   -0.8491    0.8402 C   0  0  0  0  0  0  0  0  0  0  0  0
    4.4881   -1.8148    1.7626 C   0  0  0  0  0  0  0  0  0  0  0  0
    5.7458   -2.3967    1.6778 C   0  0  0  0  0  0  0  0  0  0  0  0
    6.6267   -2.0186    0.6711 C   0  0  0  0  0  0  0  0  0  0  0  0
    6.2417   -1.0548   -0.2490 C   0  0  0  0  0  0  0  0  0  0  0  0
    4.9809   -0.4616   -0.1777 C   0  0  0  0  0  0  0  0  0  0  0  0
    4.4740    0.6197   -1.1764 B   0  0  0  0  0  0  0  0  0  0  0  0
    5.3360    1.2691   -1.9969 O   0  0  0  0  0  0  0  0  0  0  0  0
    3.1452    0.9273   -1.2155 O   0  0  0  0  0  0  0  0  0  0  0  0
    1.7653    2.8885   -0.3861 H   0  0  0  0  0  0  0  0  0  0  0  0
   -0.1984   -0.9064   -0.2944 H   0  0  0  0  0  0  0  0  0  0  0  0
   -2.0864   -1.7436    0.6740 H   0  0  0  0  0  0  0  0  0  0  0  0
   -2.2355   -1.5484   -1.0769 H   0  0  0  0  0  0  0  0  0  0  0  0
   -4.7998   -0.4756   -1.6738 H   0  0  0  0  0  0  0  0  0  0  0  0
   -3.7933   -3.0381    1.6078 H   0  0  0  0  0  0  0  0  0  0  0  0
   -3.6540    2.0840   -1.4263 H   0  0  0  0  0  0  0  0  0  0  0  0
   -3.7343    4.3567    1.1927 H   0  0  0  0  0  0  0  0  0  0  0  0
   -2.2662    3.7829    1.8182 H   0  0  0  0  0  0  0  0  0  0  0  0
   -0.3951    4.0065   -0.1129 H   0  0  0  0  0  0  0  0  0  0  0  0
   -7.1400   -1.2948   -1.4712 H   0  0  0  0  0  0  0  0  0  0  0  0
   -7.6749   -2.9724    0.2751 H   0  0  0  0  0  0  0  0  0  0  0  0
    2.0342   -0.7824   -1.0045 H   0  0  0  0  0  0  0  0  0  0  0  0
    2.8299    0.7408    1.5102 H   0  0  0  0  0  0  0  0  0  0  0  0
    2.0366   -0.8179    1.4314 H   0  0  0  0  0  0  0  0  0  0  0  0
    3.8047   -2.1198    2.5464 H   0  0  0  0  0  0  0  0  0  0  0  0
    6.0376   -3.1511    2.3975 H   0  0  0  0  0  0  0  0  0  0  0  0
    7.6059   -2.4751    0.6063 H   0  0  0  0  0  0  0  0  0  0  0  0
    6.9321   -0.7650   -1.0321 H   0  0  0  0  0  0  0  0  0  0  0  0
    4.9110    1.8948   -2.5936 H   0  0  0  0  0  0  0  0  0  0  0  0
   -2.8422    2.9426    0.0475 C   0  0  0  0  0  0  0  0  0  0  0  0
  8 48  2  0
 11  1  2  0
 11 10  1  0
 48  9  1  0
 48 10  1  0
  1 12  1  0
 10  3  2  0
 26 25  1  0
 27 25  1  0
 27 17  1  0
 12 17  1  0
 12  2  2  0
 25 24  1  0
  3  2  1  0
  3 13  1  0
 17 18  1  0
 13  4  1  0
 24 23  1  0
 24 19  2  0
 18 19  1  0
 23 22  2  0
 19 20  1  0
  4  5  1  0
  7  5  1  0
  7 16  2  0
  5  6  2  0
 16 15  1  0
 22 21  1  0
 20 21  2  0
  6 14  1  0
 15 14  2  0
  1 28  1  0
  2 29  1  0
  4 30  1  0
  4 31  1  0
  6 32  1  0
  7 33  1  0
  8 34  1  0
  9 35  1  0
  9 36  1  0
 11 37  1  0
 14 38  1  0
 15 39  1  0
 17 40  1  6
 18 41  1  0
 18 42  1  0
 20 43  1  0
 21 44  1  0
 22 45  1  0
 23 46  1  0
 26 47  1  0
M  END
