
     RDKit          3D

 42 44  0  0  0  0  0  0  0  0999 V2000
    2.1662    1.8244    0.7440 N   0  0  0  0  0  0  0  0  0  0  0  0
    2.6198    0.2688    2.5911 C   0  0  0  0  0  0  0  0  0  0  0  0
    3.1641    2.8390    0.9779 C   0  0  0  0  0  0  0  0  0  0  0  0
    0.6923   -1.3274    0.8466 O   0  0  0  0  0  0  0  0  0  0  0  0
    1.0144   -0.1735    0.7455 C   0  0  0  0  0  0  0  0  0  0  0  0
    0.4308    3.1447    0.0015 O   0  0  0  0  0  0  0  0  0  0  0  0
    0.9218    2.0862    0.3151 C   0  0  0  0  0  0  0  0  0  0  0  0
    2.3719    0.4301    1.0921 C   0  0  1  0  0  0  0  0  0  0  0  0
    3.4298   -0.2162    0.2134 C   0  0  0  0  0  0  0  0  0  0  0  0
    4.2427   -1.2454    0.6785 C   0  0  0  0  0  0  0  0  0  0  0  0
    5.1728   -1.8571   -0.1455 C   0  0  0  0  0  0  0  0  0  0  0  0
    5.3077   -1.4493   -1.4696 C   0  0  0  0  0  0  0  0  0  0  0  0
    4.4969   -0.4233   -1.9501 C   0  0  0  0  0  0  0  0  0  0  0  0
    3.5704    0.1778   -1.1148 C   0  0  0  0  0  0  0  0  0  0  0  0
    6.2275   -2.0690   -2.2302 O   0  0  0  0  0  0  0  0  0  0  0  0
    0.2309    0.8547    0.2881 N   0  0  0  0  0  0  0  0  0  0  0  0
   -1.0966    0.7215   -0.1539 C   0  0  0  0  0  0  0  0  0  0  0  0
   -1.4612    1.1942   -1.4050 C   0  0  0  0  0  0  0  0  0  0  0  0
   -2.7687    1.0529   -1.8341 C   0  0  0  0  0  0  0  0  0  0  0  0
   -3.7069    0.4275   -1.0210 C   0  0  0  0  0  0  0  0  0  0  0  0
   -3.3328   -0.0527    0.2395 C   0  0  0  0  0  0  0  0  0  0  0  0
   -2.0302    0.1012    0.6707 C   0  0  0  0  0  0  0  0  0  0  0  0
   -5.0413    0.2907   -1.5116 C   0  0  0  0  0  0  0  0  0  0  0  0
   -6.1065    0.1989   -1.9382 N   0  0  0  0  0  0  0  0  0  0  0  0
   -4.3547   -0.7210    1.1135 C   0  0  1  0  0  0  0  0  0  0  0  0
   -4.8519   -1.8135    0.5232 F   0  0  0  0  0  0  0  0  0  0  0  0
   -3.8533   -1.0933    2.2880 F   0  0  0  0  0  0  0  0  0  0  0  0
   -5.3869    0.0939    1.3579 F   0  0  0  0  0  0  0  0  0  0  0  0
    1.8596    0.8080    3.1558 H   0  0  0  0  0  0  0  0  0  0  0  0
    2.5791   -0.7769    2.8882 H   0  0  0  0  0  0  0  0  0  0  0  0
    3.5982    0.6632    2.8634 H   0  0  0  0  0  0  0  0  0  0  0  0
    4.1301    2.4962    0.6097 H   0  0  0  0  0  0  0  0  0  0  0  0
    2.8938    3.7433    0.4401 H   0  0  0  0  0  0  0  0  0  0  0  0
    3.2555    3.0778    2.0379 H   0  0  0  0  0  0  0  0  0  0  0  0
    4.1676   -1.5894    1.7007 H   0  0  0  0  0  0  0  0  0  0  0  0
    5.7975   -2.6533    0.2395 H   0  0  0  0  0  0  0  0  0  0  0  0
    4.5871   -0.0892   -2.9774 H   0  0  0  0  0  0  0  0  0  0  0  0
    2.9607    0.9757   -1.5210 H   0  0  0  0  0  0  0  0  0  0  0  0
    6.2250   -1.7094   -3.1245 H   0  0  0  0  0  0  0  0  0  0  0  0
   -0.7340    1.6594   -2.0548 H   0  0  0  0  0  0  0  0  0  0  0  0
   -3.0592    1.4184   -2.8086 H   0  0  0  0  0  0  0  0  0  0  0  0
   -1.7304   -0.2436    1.6496 H   0  0  0  0  0  0  0  0  0  0  0  0
  6  7  2  0
  3  1  1  0
  7  1  1  0
  7 16  1  0
 25 26  1  6
  1  8  1  0
 24 23  3  0
 23 20  1  0
 19 18  2  0
 19 20  1  0
 18 17  1  0
 20 21  2  0
 28 25  1  0
 17 16  1  0
 17 22  2  0
 16  5  1  0
  8  2  1  1
 21 22  1  0
 21 25  1  0
 25 27  1  0
  8  5  1  0
  8  9  1  0
  5  4  2  0
  9 14  1  0
  9 10  2  0
 14 13  2  0
 10 11  1  0
 13 12  1  0
 11 12  2  0
 12 15  1  0
  2 29  1  0
  2 30  1  0
  2 31  1  0
  3 32  1  0
  3 33  1  0
  3 34  1  0
 10 35  1  0
 11 36  1  0
 13 37  1  0
 14 38  1  0
 15 39  1  0
 18 40  1  0
 19 41  1  0
 22 42  1  0
M  END
