
     RDKit          3D

 36 38  0  0  0  0  0  0  0  0999 V2000
    6.9843   -0.1139   -0.5097 C   0  0  0  0  0  0  0  0  0  0  0  0
    5.5770    0.3080   -0.2087 C   0  0  0  0  0  0  0  0  0  0  0  0
    1.1948   -1.0815    0.0831 C   0  0  0  0  0  0  0  0  0  0  0  0
    1.0524    0.2429    0.3170 C   0  0  0  0  0  0  0  0  0  0  0  0
   -0.2397    0.9554    0.5436 C   0  0  0  0  0  0  0  0  0  0  0  0
   -1.1141   -1.3327    0.8538 C   0  0  0  0  0  0  0  0  0  0  0  0
    0.0233   -2.0016    0.0961 C   0  0  0  0  0  0  0  0  0  0  0  0
   -5.0822    1.3761   -0.4119 C   0  0  0  0  0  0  0  0  0  0  0  0
   -4.7814    0.0156   -0.2736 C   0  0  0  0  0  0  0  0  0  0  0  0
    5.2459    1.4544    0.0330 O   0  0  0  0  0  0  0  0  0  0  0  0
    4.6520   -0.6919   -0.2565 N   0  0  0  0  0  0  0  0  0  0  0  0
    3.3026   -0.5196   -0.0720 C   0  0  0  0  0  0  0  0  0  0  0  0
    2.4757   -1.5102   -0.1407 N   0  0  0  0  0  0  0  0  0  0  0  0
    2.5939    1.0258    0.2690 S   0  0  0  0  0  0  0  0  0  0  0  0
   -1.3365    0.0236    0.3726 N   0  0  0  0  0  0  0  0  0  0  0  0
   -2.5927    0.4919    0.1383 C   0  0  0  0  0  0  0  0  0  0  0  0
   -2.8953    1.8638    0.0317 C   0  0  0  0  0  0  0  0  0  0  0  0
   -4.1241    2.2667   -0.2470 N   0  0  0  0  0  0  0  0  0  0  0  0
   -3.5703   -0.4063   -0.0058 N   0  0  0  0  0  0  0  0  0  0  0  0
   -5.4765   -2.2405   -0.2656 C   0  0  0  0  0  0  0  0  0  0  0  0
    7.1701    0.0102   -1.5783 H   0  0  0  0  0  0  0  0  0  0  0  0
    7.6864    0.5186    0.0278 H   0  0  0  0  0  0  0  0  0  0  0  0
    7.1720   -1.1557   -0.2569 H   0  0  0  0  0  0  0  0  0  0  0  0
   -0.2586    1.4259    1.5364 H   0  0  0  0  0  0  0  0  0  0  0  0
   -0.3314    1.7607   -0.1882 H   0  0  0  0  0  0  0  0  0  0  0  0
   -2.0324   -1.8994    0.7412 H   0  0  0  0  0  0  0  0  0  0  0  0
   -0.8714   -1.3029    1.9225 H   0  0  0  0  0  0  0  0  0  0  0  0
   -0.2890   -2.2473   -0.9230 H   0  0  0  0  0  0  0  0  0  0  0  0
    0.2833   -2.9421    0.5863 H   0  0  0  0  0  0  0  0  0  0  0  0
   -6.0846    1.7186   -0.6373 H   0  0  0  0  0  0  0  0  0  0  0  0
    4.9461   -1.6383   -0.4515 H   0  0  0  0  0  0  0  0  0  0  0  0
   -2.1547    2.6364    0.1833 H   0  0  0  0  0  0  0  0  0  0  0  0
   -5.1139   -2.4636    0.7385 H   0  0  0  0  0  0  0  0  0  0  0  0
   -6.4120   -2.7663   -0.4374 H   0  0  0  0  0  0  0  0  0  0  0  0
   -4.7331   -2.5789   -0.9880 H   0  0  0  0  0  0  0  0  0  0  0  0
   -5.7730   -0.8586   -0.4217 O   0  0  0  0  0  0  0  0  0  0  0  0
 20 36  1  0
 36  9  1  0
  9  8  2  0
  9 19  1  0
  8 18  1  0
 19 16  2  0
 18 17  2  0
  5  4  1  0
  5 15  1  0
 16 17  1  0
 16 15  1  0
 14  4  1  0
 14 12  1  0
 10  2  2  0
  4  3  2  0
 15  6  1  0
  2  1  1  0
  2 11  1  0
  6  7  1  0
 12 11  1  0
 12 13  2  0
  3 13  1  0
  3  7  1  0
  1 21  1  0
  1 22  1  0
  1 23  1  0
  5 24  1  0
  5 25  1  0
  6 26  1  0
  6 27  1  0
  7 28  1  0
  7 29  1  0
  8 30  1  0
 11 31  1  0
 17 32  1  0
 20 33  1  0
 20 34  1  0
 20 35  1  0
M  END
