
     RDKit          3D

 51 54  0  0  0  0  0  0  0  0999 V2000
    3.5355   -0.6000    0.6357 C   0  0  1  0  0  0  0  0  0  0  0  0
   -4.9659    2.1250    0.6885 C   0  0  0  0  0  0  0  0  0  0  0  0
   -3.7786    1.4995    0.3316 C   0  0  0  0  0  0  0  0  0  0  0  0
   -7.4772   -0.6918    0.2810 C   0  0  0  0  0  0  0  0  0  0  0  0
    6.4804   -0.7358    0.1746 C   0  0  0  0  0  0  0  0  0  0  0  0
    5.6950    0.5220   -0.0998 C   0  0  0  0  0  0  0  0  0  0  0  0
    4.3108    0.5856    0.0858 C   0  0  0  0  0  0  0  0  0  0  0  0
    3.6394    1.7750   -0.1999 C   0  0  0  0  0  0  0  0  0  0  0  0
    4.3159    2.8886   -0.6689 C   0  0  0  0  0  0  0  0  0  0  0  0
    5.6910    2.8263   -0.8577 C   0  0  0  0  0  0  0  0  0  0  0  0
    6.3651    1.6514   -0.5721 C   0  0  0  0  0  0  0  0  0  0  0  0
   -0.1585   -0.9033   -0.1454 C   0  0  0  0  0  0  0  0  0  0  0  0
   -1.3457   -0.2834    0.2314 C   0  0  0  0  0  0  0  0  0  0  0  0
   -2.5303   -0.5123   -0.4634 C   0  0  0  0  0  0  0  0  0  0  0  0
   -2.5096   -1.4012   -1.5400 C   0  0  0  0  0  0  0  0  0  0  0  0
    0.9782   -0.3524    1.8595 O   0  0  0  0  0  0  0  0  0  0  0  0
    2.2341   -0.7149    0.0120 N   0  0  0  0  0  0  0  0  0  0  0  0
    5.7215   -1.7313    1.0378 C   0  0  0  0  0  0  0  0  0  0  0  0
    4.3077   -1.9089    0.5099 C   0  0  0  0  0  0  0  0  0  0  0  0
   -0.1579   -1.7897   -1.2192 C   0  0  0  0  0  0  0  0  0  0  0  0
   -1.3353   -2.0368   -1.9094 C   0  0  0  0  0  0  0  0  0  0  0  0
   -3.7813    0.1642   -0.0657 C   0  0  0  0  0  0  0  0  0  0  0  0
   -6.1641    1.4287    0.6595 C   0  0  0  0  0  0  0  0  0  0  0  0
   -6.1880    0.0880    0.2782 C   0  0  0  0  0  0  0  0  0  0  0  0
   -4.9963   -0.5240   -0.0874 C   0  0  0  0  0  0  0  0  0  0  0  0
   -8.5331    0.0235   -0.4169 N   0  0  0  0  0  0  0  0  0  0  0  0
    3.3523   -0.4152    1.6969 H   0  0  0  0  0  0  0  0  0  0  0  0
   -4.9528    3.1662    0.9845 H   0  0  0  0  0  0  0  0  0  0  0  0
   -2.8536    2.0628    0.3429 H   0  0  0  0  0  0  0  0  0  0  0  0
   -7.2804   -1.6971   -0.1145 H   0  0  0  0  0  0  0  0  0  0  0  0
   -7.8003   -0.8345    1.3162 H   0  0  0  0  0  0  0  0  0  0  0  0
    6.7332   -1.2066   -0.7815 H   0  0  0  0  0  0  0  0  0  0  0  0
    7.4338   -0.4747    0.6394 H   0  0  0  0  0  0  0  0  0  0  0  0
    2.5670    1.8317   -0.0571 H   0  0  0  0  0  0  0  0  0  0  0  0
    3.7735    3.7996   -0.8865 H   0  0  0  0  0  0  0  0  0  0  0  0
    6.2330    3.6895   -1.2221 H   0  0  0  0  0  0  0  0  0  0  0  0
    7.4385    1.6018   -0.7165 H   0  0  0  0  0  0  0  0  0  0  0  0
   -1.3454    0.3790    1.0878 H   0  0  0  0  0  0  0  0  0  0  0  0
   -3.4159   -1.5879   -2.1024 H   0  0  0  0  0  0  0  0  0  0  0  0
    2.2217   -0.8659   -0.9850 H   0  0  0  0  0  0  0  0  0  0  0  0
    6.2479   -2.6869    1.0556 H   0  0  0  0  0  0  0  0  0  0  0  0
    5.6824   -1.3765    2.0723 H   0  0  0  0  0  0  0  0  0  0  0  0
    3.7754   -2.6881    1.0584 H   0  0  0  0  0  0  0  0  0  0  0  0
    4.3396   -2.2203   -0.5398 H   0  0  0  0  0  0  0  0  0  0  0  0
    0.7424   -2.3167   -1.5090 H   0  0  0  0  0  0  0  0  0  0  0  0
   -1.3366   -2.7293   -2.7404 H   0  0  0  0  0  0  0  0  0  0  0  0
   -7.0875    1.9235    0.9325 H   0  0  0  0  0  0  0  0  0  0  0  0
   -5.0128   -1.5690   -0.3774 H   0  0  0  0  0  0  0  0  0  0  0  0
   -8.3268    0.0438   -1.4078 H   0  0  0  0  0  0  0  0  0  0  0  0
   -9.4001   -0.4900   -0.3233 H   0  0  0  0  0  0  0  0  0  0  0  0
    1.0657   -0.6339    0.6718 C   0  0  0  0  0  0  0  0  0  0  0  0
 19 18  1  0
 19  1  1  0
 18  5  1  0
 16 51  2  0
 20 21  2  0
 20 12  1  0
 21 15  1  0
 51 12  1  0
 51 17  1  0
  5  6  1  0
  1 17  1  0
  1  7  1  0
 12 13  2  0
 15 14  2  0
  7  6  2  0
  7  8  1  0
  6 11  1  0
 13 14  1  0
 14 22  1  0
  8  9  2  0
 11 10  2  0
 22 25  2  0
 22  3  1  0
 25 24  1  0
 10  9  1  0
  3  2  2  0
 26  4  1  0
 24  4  1  0
 24 23  2  0
  2 23  1  0
  1 27  1  1
  2 28  1  0
  3 29  1  0
  4 30  1  0
  4 31  1  0
  5 32  1  0
  5 33  1  0
  8 34  1  0
  9 35  1  0
 10 36  1  0
 11 37  1  0
 13 38  1  0
 15 39  1  0
 17 40  1  0
 18 41  1  0
 18 42  1  0
 19 43  1  0
 19 44  1  0
 20 45  1  0
 21 46  1  0
 23 47  1  0
 25 48  1  0
 26 49  1  0
 26 50  1  0
M  END
