
     RDKit          3D

 22 22  0  0  0  0  0  0  0  0999 V2000
    2.2351   -1.5069   -0.6403 O   0  0  0  0  0  0  0  0  0  0  0  0
    1.9076   -0.4046   -0.2260 C   0  0  0  0  0  0  0  0  0  0  0  0
    2.7953    0.5301    0.1741 N   0  0  0  0  0  0  0  0  0  0  0  0
    4.1577    0.3030    0.0889 N   0  0  0  0  0  0  0  0  0  0  0  0
    0.4782   -0.0018   -0.1131 C   0  0  0  0  0  0  0  0  0  0  0  0
   -0.4816   -1.0106   -0.0080 C   0  0  0  0  0  0  0  0  0  0  0  0
   -1.8347   -0.7349    0.1060 C   0  0  0  0  0  0  0  0  0  0  0  0
   -2.7711   -1.7506    0.3100 N   0  0  0  0  0  0  0  0  0  0  0  0
   -2.2630    0.6127    0.0797 C   0  0  0  0  0  0  0  0  0  0  0  0
   -3.5908    0.9300    0.2663 N   0  0  0  0  0  0  0  0  0  0  0  0
   -1.3045    1.6131   -0.0753 C   0  0  0  0  0  0  0  0  0  0  0  0
    0.0472    1.3197   -0.1615 C   0  0  0  0  0  0  0  0  0  0  0  0
    2.4702    1.3598    0.6469 H   0  0  0  0  0  0  0  0  0  0  0  0
    4.5850    1.0750   -0.4059 H   0  0  0  0  0  0  0  0  0  0  0  0
    4.5509    0.2876    1.0214 H   0  0  0  0  0  0  0  0  0  0  0  0
   -0.1607   -2.0461    0.0006 H   0  0  0  0  0  0  0  0  0  0  0  0
   -3.5840   -1.6988   -0.2892 H   0  0  0  0  0  0  0  0  0  0  0  0
   -2.3692   -2.6717    0.2163 H   0  0  0  0  0  0  0  0  0  0  0  0
   -4.2762    0.2481   -0.0119 H   0  0  0  0  0  0  0  0  0  0  0  0
   -3.8573    1.8549   -0.0313 H   0  0  0  0  0  0  0  0  0  0  0  0
   -1.6286    2.6462   -0.1215 H   0  0  0  0  0  0  0  0  0  0  0  0
    0.7419    2.1386   -0.2976 H   0  0  0  0  0  0  0  0  0  0  0  0
  8  7  1  0
 10  9  1  0
  7  9  2  0
  7  6  1  0
  9 11  1  0
  6  5  2  0
 11 12  2  0
  5 12  1  0
  5  2  1  0
  1  2  2  0
  2  3  1  0
  3  4  1  0
  3 13  1  0
  4 14  1  0
  4 15  1  0
  6 16  1  0
  8 17  1  0
  8 18  1  0
 10 19  1  0
 10 20  1  0
 11 21  1  0
 12 22  1  0
M  END
