
     RDKit          3D

 30 31  0  0  0  0  0  0  0  0999 V2000
    2.1659    0.2686   -0.1962 C   0  0  0  0  0  0  0  0  0  0  0  0
    0.9686   -0.1275    0.3557 N   0  0  0  0  0  0  0  0  0  0  0  0
    2.2838    1.2661   -0.8930 O   0  0  0  0  0  0  0  0  0  0  0  0
   -0.2441    0.5585    0.2511 C   0  0  0  0  0  0  0  0  0  0  0  0
    3.2030   -0.5419    0.1085 N   0  0  0  0  0  0  0  0  0  0  0  0
   -1.4407   -0.2022    0.0778 C   0  0  0  0  0  0  0  0  0  0  0  0
   -2.6881    0.4788    0.0511 C   0  0  0  0  0  0  0  0  0  0  0  0
   -2.7196    1.8883    0.1498 C   0  0  0  0  0  0  0  0  0  0  0  0
   -1.5546    2.5895    0.2830 C   0  0  0  0  0  0  0  0  0  0  0  0
   -0.3151    1.9276    0.3501 C   0  0  0  0  0  0  0  0  0  0  0  0
    4.5280   -0.3321   -0.4375 C   0  0  0  0  0  0  0  0  0  0  0  0
    5.5354   -1.2147    0.2753 C   0  0  0  0  0  0  0  0  0  0  0  0
   -3.8465   -1.6309   -0.2206 C   0  0  0  0  0  0  0  0  0  0  0  0
   -2.6096   -2.3052   -0.2194 C   0  0  0  0  0  0  0  0  0  0  0  0
   -1.4390   -1.6102   -0.0760 C   0  0  0  0  0  0  0  0  0  0  0  0
   -3.8802   -0.2701   -0.0925 C   0  0  0  0  0  0  0  0  0  0  0  0
    0.9503   -1.0042    0.8522 H   0  0  0  0  0  0  0  0  0  0  0  0
    3.0386   -1.3958    0.6174 H   0  0  0  0  0  0  0  0  0  0  0  0
   -3.6736    2.4001    0.1183 H   0  0  0  0  0  0  0  0  0  0  0  0
   -1.5749    3.6687    0.3600 H   0  0  0  0  0  0  0  0  0  0  0  0
    0.5819    2.5095    0.4996 H   0  0  0  0  0  0  0  0  0  0  0  0
    4.5462   -0.5409   -1.5116 H   0  0  0  0  0  0  0  0  0  0  0  0
    4.8056    0.7159   -0.3143 H   0  0  0  0  0  0  0  0  0  0  0  0
    6.5336   -1.0349   -0.1210 H   0  0  0  0  0  0  0  0  0  0  0  0
    5.5547   -1.0075    1.3456 H   0  0  0  0  0  0  0  0  0  0  0  0
    5.3105   -2.2733    0.1362 H   0  0  0  0  0  0  0  0  0  0  0  0
   -4.7648   -2.1923   -0.3328 H   0  0  0  0  0  0  0  0  0  0  0  0
   -2.5842   -3.3802   -0.3398 H   0  0  0  0  0  0  0  0  0  0  0  0
   -0.5061   -2.1579   -0.0985 H   0  0  0  0  0  0  0  0  0  0  0  0
   -4.8262    0.2581   -0.1039 H   0  0  0  0  0  0  0  0  0  0  0  0
  1  2  1  0
  1  3  2  0
  1  5  1  0
  2  4  1  0
  4  6  2  0
  4 10  1  0
  5 11  1  0
  6  7  1  0
  6 15  1  0
  7  8  2  0
  7 16  1  0
  8  9  1  0
  9 10  2  0
 11 12  1  0
 13 14  1  0
 13 16  2  0
 14 15  2  0
  2 17  1  0
  5 18  1  0
  8 19  1  0
  9 20  1  0
 10 21  1  0
 11 22  1  0
 11 23  1  0
 12 24  1  0
 12 25  1  0
 12 26  1  0
 13 27  1  0
 14 28  1  0
 15 29  1  0
 16 30  1  0
M  END
