
     RDKit          3D

 46 50  0  0  0  0  0  0  0  0999 V2000
    0.3335   -0.9053    0.4638 C   0  0  0  0  0  0  0  0  0  0  0  0
    1.1665    0.2820    0.2319 C   0  0  0  0  0  0  0  0  0  0  0  0
    3.3095    1.0906    0.0997 C   0  0  0  0  0  0  0  0  0  0  0  0
    1.5084    2.5798   -0.3294 C   0  0  0  0  0  0  0  0  0  0  0  0
   -2.8369    2.1438   -0.9039 C   0  0  0  0  0  0  0  0  0  0  0  0
   -3.1299    2.2708    0.4198 C   0  0  0  0  0  0  0  0  0  0  0  0
   -3.8671    2.2395   -1.9530 C   0  0  0  0  0  0  0  0  0  0  0  0
   -5.7930   -0.5808   -2.5636 N   0  0  0  0  0  0  0  0  0  0  0  0
   -4.9623   -1.6122   -0.5284 C   0  0  0  0  0  0  0  0  0  0  0  0
   -3.7277   -1.2629   -0.4006 N   0  0  0  0  0  0  0  0  0  0  0  0
   -2.9849   -2.2499    0.1796 C   0  0  0  0  0  0  0  0  0  0  0  0
   -3.6700   -3.3869    0.4996 C   0  0  0  0  0  0  0  0  0  0  0  0
   -5.3060   -3.2068    0.0570 S   0  0  0  0  0  0  0  0  0  0  0  0
   -1.5683   -2.0090    0.4135 C   0  0  0  0  0  0  0  0  0  0  0  0
   -0.9911   -0.8821    0.1597 N   0  0  0  0  0  0  0  0  0  0  0  0
    0.7894   -2.0918    0.9641 C   0  0  0  0  0  0  0  0  0  0  0  0
   -0.4948   -3.2103    1.0582 S   0  0  0  0  0  0  0  0  0  0  0  0
    2.4747    0.0882    0.3234 N   0  0  0  0  0  0  0  0  0  0  0  0
    2.8704    2.3641   -0.2500 C   0  0  0  0  0  0  0  0  0  0  0  0
    0.6235    1.5394   -0.0784 C   0  0  0  0  0  0  0  0  0  0  0  0
   -0.8248    1.8066   -0.1240 C   0  0  0  0  0  0  0  0  0  0  0  0
   -1.5281    1.8997   -1.1991 N   0  0  0  0  0  0  0  0  0  0  0  0
   -1.7167    2.0617    1.3381 S   0  0  0  0  0  0  0  0  0  0  0  0
   -3.4003    1.9439   -3.1534 O   0  0  0  0  0  0  0  0  0  0  0  0
   -5.0105    2.5590   -1.7286 O   0  0  0  0  0  0  0  0  0  0  0  0
    4.7398    0.7782    0.2280 C   0  0  0  0  0  0  0  0  0  0  0  0
    5.2130   -0.4193    0.3404 N   0  0  0  0  0  0  0  0  0  0  0  0
    6.5675   -0.4066    0.4390 C   0  0  0  0  0  0  0  0  0  0  0  0
    7.1509    0.8272    0.4056 C   0  0  0  0  0  0  0  0  0  0  0  0
    5.9548    2.0188    0.2463 S   0  0  0  0  0  0  0  0  0  0  0  0
    7.3511   -1.6521    0.5681 C   0  0  0  0  0  0  0  0  0  0  0  0
    8.5549   -1.6641    0.6491 O   0  0  0  0  0  0  0  0  0  0  0  0
    6.5877   -2.7295    0.5825 O   0  0  0  0  0  0  0  0  0  0  0  0
    1.1287    3.5607   -0.5825 H   0  0  0  0  0  0  0  0  0  0  0  0
   -4.0869    2.4665    0.8767 H   0  0  0  0  0  0  0  0  0  0  0  0
   -6.0973   -1.4052   -3.0658 H   0  0  0  0  0  0  0  0  0  0  0  0
   -6.3654    0.1827   -2.8976 H   0  0  0  0  0  0  0  0  0  0  0  0
   -5.9734    0.2212   -0.6621 H   0  0  0  0  0  0  0  0  0  0  0  0
   -7.0127   -1.1725   -0.8923 H   0  0  0  0  0  0  0  0  0  0  0  0
   -3.3062   -4.2887    0.9682 H   0  0  0  0  0  0  0  0  0  0  0  0
    1.7902   -2.3504    1.2702 H   0  0  0  0  0  0  0  0  0  0  0  0
    3.5576    3.1730   -0.4591 H   0  0  0  0  0  0  0  0  0  0  0  0
   -4.1183    1.9946   -3.8017 H   0  0  0  0  0  0  0  0  0  0  0  0
    8.1984    1.0770    0.4685 H   0  0  0  0  0  0  0  0  0  0  0  0
    7.1385   -3.5229    0.6636 H   0  0  0  0  0  0  0  0  0  0  0  0
   -6.0289   -0.7563   -1.1416 C   0  0  0  0  0  0  0  0  0  0  0  0
 32 31  2  0
 33 31  1  0
 31 28  1  0
 28 29  2  0
 28 27  1  0
 29 30  1  0
 27 26  2  0
 30 26  1  0
 26  3  1  0
  3 19  1  0
  3 18  2  0
 19  4  2  0
 18  2  1  0
  4 20  1  0
  2 20  2  0
  2  1  1  0
 20 21  1  0
 16  1  2  0
 16 17  1  0
  1 15  1  0
 21 23  1  0
 21 22  2  0
 23  6  1  0
 17 14  1  0
 22  5  1  0
 15 14  2  0
 14 11  1  0
  6  5  2  0
  5  7  1  0
 25  7  2  0
  7 24  1  0
 11 12  2  0
 11 10  1  0
 12 13  1  0
 10  9  2  0
  9 13  1  0
  9 46  1  0
  8 46  1  0
  4 34  1  0
  6 35  1  0
  8 36  1  0
  8 37  1  0
 46 38  1  0
 46 39  1  0
 12 40  1  0
 16 41  1  0
 19 42  1  0
 24 43  1  0
 29 44  1  0
 33 45  1  0
M  END
