
     RDKit          3D

 42 44  0  0  0  0  0  0  0  0999 V2000
   -2.5773    0.3331    0.4196 N   0  0  0  0  0  0  0  0  0  0  0  0
   -2.6363    0.4182   -0.9807 C   0  0  0  0  0  0  0  0  0  0  0  0
   -2.2072   -0.5092   -1.6521 O   0  0  0  0  0  0  0  0  0  0  0  0
   -3.1774    1.5222   -1.5328 N   0  0  0  0  0  0  0  0  0  0  0  0
   -3.6530    2.4970   -0.7828 C   0  0  0  0  0  0  0  0  0  0  0  0
   -4.1769    3.5611   -1.3881 N   0  0  0  0  0  0  0  0  0  0  0  0
   -3.6189    2.4421    0.6446 C   0  0  0  0  0  0  0  0  0  0  0  0
   -3.0602    1.3425    1.1851 C   0  0  0  0  0  0  0  0  0  0  0  0
    2.3239    0.1994   -0.5691 C   0  0  0  0  0  0  0  0  0  0  0  0
    4.0848    0.3556    1.2608 C   0  0  0  0  0  0  0  0  0  0  0  0
    5.2169    0.9851    1.7586 C   0  0  0  0  0  0  0  0  0  0  0  0
   -1.9192   -0.7894    1.0717 C   0  0  1  0  0  0  0  0  0  0  0  0
    5.8379    1.9769    1.1343 N   0  0  0  0  0  0  0  0  0  0  0  0
    5.3300    2.3885   -0.0223 C   0  0  0  0  0  0  0  0  0  0  0  0
    4.1960    1.8390   -0.5984 C   0  0  0  0  0  0  0  0  0  0  0  0
    3.5608    0.7857    0.0479 C   0  0  0  0  0  0  0  0  0  0  0  0
    1.6017    0.8873   -1.2724 O   0  0  0  0  0  0  0  0  0  0  0  0
   -2.4412   -2.1939    0.7252 C   0  0  2  0  0  0  0  0  0  0  0  0
   -2.6340   -2.8846    1.9340 O   0  0  0  0  0  0  0  0  0  0  0  0
   -1.2866   -2.8290   -0.0743 C   0  0  2  0  0  0  0  0  0  0  0  0
   -1.0912   -4.1861    0.2437 O   0  0  0  0  0  0  0  0  0  0  0  0
   -0.0688   -2.0183    0.3705 C   0  0  2  0  0  0  0  0  0  0  0  0
   -0.5493   -0.7579    0.7925 O   0  0  0  0  0  0  0  0  0  0  0  0
    0.9472   -1.8302   -0.7412 C   0  0  0  0  0  0  0  0  0  0  0  0
    2.1148   -1.0998   -0.3094 N   0  0  0  0  0  0  0  0  0  0  0  0
   -4.1976    3.6135   -2.3923 H   0  0  0  0  0  0  0  0  0  0  0  0
   -4.5544    4.3319   -0.8662 H   0  0  0  0  0  0  0  0  0  0  0  0
   -4.0064    3.2372    1.2630 H   0  0  0  0  0  0  0  0  0  0  0  0
   -2.9764    1.2162    2.2559 H   0  0  0  0  0  0  0  0  0  0  0  0
    5.6344    0.6696    2.7079 H   0  0  0  0  0  0  0  0  0  0  0  0
   -2.0889   -0.6292    2.1409 H   0  0  0  0  0  0  0  0  0  0  0  0
    5.8495    3.1994   -0.5199 H   0  0  0  0  0  0  0  0  0  0  0  0
    3.8264    2.2230   -1.5390 H   0  0  0  0  0  0  0  0  0  0  0  0
   -3.3710   -2.1547    0.1477 H   0  0  0  0  0  0  0  0  0  0  0  0
   -2.2974   -3.7813    1.7969 H   0  0  0  0  0  0  0  0  0  0  0  0
   -1.4644   -2.6997   -1.1414 H   0  0  0  0  0  0  0  0  0  0  0  0
   -1.5901   -4.7253   -0.3780 H   0  0  0  0  0  0  0  0  0  0  0  0
    0.4105   -2.5321    1.2167 H   0  0  0  0  0  0  0  0  0  0  0  0
    1.2615   -2.8134   -1.0961 H   0  0  0  0  0  0  0  0  0  0  0  0
    0.4851   -1.3025   -1.5739 H   0  0  0  0  0  0  0  0  0  0  0  0
    2.8081   -1.6109    0.2122 H   0  0  0  0  0  0  0  0  0  0  0  0
    3.6269   -0.4354    1.8404 H   0  0  0  0  0  0  0  0  0  0  0  0
  8  1  1  0
  1 12  1  0
  1  2  1  0
  4  2  1  0
  2  3  2  0
  5  4  2  0
  7  5  1  0
  6  5  1  0
  6 26  1  0
  6 27  1  0
  7  8  2  0
  7 28  1  0
  8 29  1  0
 17  9  2  0
 16  9  1  0
  9 25  1  0
 11 10  2  0
 16 10  1  0
 10 42  1  0
 13 11  1  0
 11 30  1  0
 18 12  1  0
 12 23  1  0
 12 31  1  1
 14 13  2  0
 14 15  1  0
 14 32  1  0
 15 16  2  0
 15 33  1  0
 20 18  1  0
 18 19  1  0
 18 34  1  6
 19 35  1  0
 21 20  1  0
 20 22  1  0
 20 36  1  6
 21 37  1  0
 24 22  1  0
 22 23  1  0
 22 38  1  1
 25 24  1  0
 24 39  1  0
 24 40  1  0
 25 41  1  0
M  END
