
     RDKit          3D

 24 24  0  0  0  0  0  0  0  0999 V2000
   -2.5510    0.9898   -0.0098 N   0  0  0  0  0  0  0  0  0  0  0  0
    4.5806   -0.9573   -0.0287 C   0  0  0  0  0  0  0  0  0  0  0  0
    3.5159    0.1058   -0.0204 C   0  0  0  0  0  0  0  0  0  0  0  0
    2.1313   -0.3971   -0.0194 C   0  0  0  0  0  0  0  0  0  0  0  0
    1.0925    0.4571   -0.0110 C   0  0  0  0  0  0  0  0  0  0  0  0
   -0.3246    0.1810   -0.0098 C   0  0  0  0  0  0  0  0  0  0  0  0
   -1.2192    1.2246   -0.0104 C   0  0  0  0  0  0  0  0  0  0  0  0
   -0.8252    2.6648   -0.0123 C   0  0  0  0  0  0  0  0  0  0  0  0
   -3.1356   -0.2549   -0.0071 C   0  0  0  0  0  0  0  0  0  0  0  0
   -0.8491   -1.1766   -0.0083 C   0  0  0  0  0  0  0  0  0  0  0  0
   -2.2319   -1.2755   -0.0052 N   0  0  0  0  0  0  0  0  0  0  0  0
   -4.3361   -0.4126   -0.0064 O   0  0  0  0  0  0  0  0  0  0  0  0
   -0.1852   -2.1956   -0.0097 O   0  0  0  0  0  0  0  0  0  0  0  0
   -3.1884    1.7740   -0.0137 H   0  0  0  0  0  0  0  0  0  0  0  0
    5.5790   -0.5257   -0.0227 H   0  0  0  0  0  0  0  0  0  0  0  0
    4.4660   -1.6095    0.8396 H   0  0  0  0  0  0  0  0  0  0  0  0
    4.4692   -1.5920   -0.9104 H   0  0  0  0  0  0  0  0  0  0  0  0
    1.9984   -1.4680   -0.0262 H   0  0  0  0  0  0  0  0  0  0  0  0
    1.3517    1.5109   -0.0041 H   0  0  0  0  0  0  0  0  0  0  0  0
   -1.6952    3.3173   -0.0200 H   0  0  0  0  0  0  0  0  0  0  0  0
   -0.2349    2.9037    0.8717 H   0  0  0  0  0  0  0  0  0  0  0  0
   -0.2212    2.8996   -0.8878 H   0  0  0  0  0  0  0  0  0  0  0  0
   -2.6161   -2.2127   -0.0015 H   0  0  0  0  0  0  0  0  0  0  0  0
    3.7921    1.2924   -0.0152 O   0  0  0  0  0  0  0  0  0  0  0  0
 12  9  2  0
  8  7  1  0
  1  9  1  0
  1  7  1  0
  9 11  1  0
  7  6  2  0
 11 10  1  0
  6  5  1  0
  6 10  1  0
  5  4  2  0
 10 13  2  0
  2  3  1  0
  4  3  1  0
  1 14  1  0
  2 15  1  0
  2 16  1  0
  2 17  1  0
  4 18  1  0
  5 19  1  0
  8 20  1  0
  8 21  1  0
  8 22  1  0
 11 23  1  0
  3 24  2  0
M  END
