
     RDKit          3D

 24 24  0  0  0  0  0  0  0  0999 V2000
    1.9540   -3.6456    4.2173 O   0  0  0  0  0  0  0  0  0  0  0  0
    1.2865   -2.5264    4.8297 S   0  0  2  0  0  0  0  0  0  0  0  0
    1.3643   -2.2835    6.2505 O   0  0  0  0  0  0  0  0  0  0  0  0
   -0.2436   -2.7369    4.4106 O   0  0  0  0  0  0  0  0  0  0  0  0
    1.7947   -1.1532    4.0856 N   0  0  0  0  0  0  0  0  0  0  0  0
    1.7977   -1.1058    2.6615 C   0  0  0  0  0  0  0  0  0  0  0  0
    0.7578   -0.5018    1.9668 C   0  0  0  0  0  0  0  0  0  0  0  0
    0.7993   -0.4365    0.5820 C   0  0  0  0  0  0  0  0  0  0  0  0
    1.8611   -0.9858   -0.1327 C   0  0  0  0  0  0  0  0  0  0  0  0
    1.8780   -0.9685   -1.6355 C   0  0  0  0  0  0  0  0  0  0  0  0
    1.2220   -2.2153   -2.2265 C   0  0  0  0  0  0  0  0  0  0  0  0
    2.8920   -1.5922    0.5825 C   0  0  0  0  0  0  0  0  0  0  0  0
    2.8706   -1.6481    1.9669 C   0  0  0  0  0  0  0  0  0  0  0  0
   -0.8410   -2.1335    4.8822 H   0  0  0  0  0  0  0  0  0  0  0  0
    1.4655   -0.3142    4.5533 H   0  0  0  0  0  0  0  0  0  0  0  0
   -0.0788   -0.0742    2.5054 H   0  0  0  0  0  0  0  0  0  0  0  0
   -0.0134    0.0445    0.0510 H   0  0  0  0  0  0  0  0  0  0  0  0
    1.3621   -0.0783   -2.0014 H   0  0  0  0  0  0  0  0  0  0  0  0
    2.9094   -0.8990   -1.9880 H   0  0  0  0  0  0  0  0  0  0  0  0
    1.7235   -3.1225   -1.8871 H   0  0  0  0  0  0  0  0  0  0  0  0
    1.2643   -2.1969   -3.3160 H   0  0  0  0  0  0  0  0  0  0  0  0
    0.1736   -2.2847   -1.9337 H   0  0  0  0  0  0  0  0  0  0  0  0
    3.7347   -2.0172    0.0505 H   0  0  0  0  0  0  0  0  0  0  0  0
    3.6923   -2.0988    2.5066 H   0  0  0  0  0  0  0  0  0  0  0  0
  1  2  2  0
  2  5  1  0
  2  3  2  0
  2  4  1  6
  4 14  1  0
  5  6  1  0
  5 15  1  0
  6 13  2  0
  6  7  1  0
  7  8  2  0
  7 16  1  0
  8  9  1  0
  8 17  1  0
  9 12  2  0
  9 10  1  0
 10 11  1  0
 10 18  1  0
 10 19  1  0
 11 20  1  0
 11 21  1  0
 11 22  1  0
 12 13  1  0
 12 23  1  0
 13 24  1  0
M  END
