
     RDKit          3D

 30 31  0  0  0  0  0  0  0  0999 V2000
    1.2864   -1.4979   -0.5554 O   0  0  0  0  0  0  0  0  0  0  0  0
    1.6740   -0.2992   -0.1241 C   0  0  0  0  0  0  0  0  0  0  0  0
    3.0173    0.1108   -0.0858 C   0  0  0  0  0  0  0  0  0  0  0  0
    4.0477   -0.8291   -0.5461 C   0  0  0  0  0  0  0  0  0  0  0  0
    5.2750   -0.3559   -0.5032 O   0  0  0  0  0  0  0  0  0  0  0  0
    3.7950   -1.9587   -0.9368 O   0  0  0  0  0  0  0  0  0  0  0  0
    3.3379    1.3909    0.3791 C   0  0  0  0  0  0  0  0  0  0  0  0
    2.3453    2.2411    0.8143 C   0  0  0  0  0  0  0  0  0  0  0  0
    1.0153    1.8301    0.7941 C   0  0  0  0  0  0  0  0  0  0  0  0
    0.6684    0.5760    0.3214 C   0  0  0  0  0  0  0  0  0  0  0  0
   -0.6548    0.1157    0.2913 N   0  0  0  0  0  0  0  0  0  0  0  0
   -1.7282    0.8510   -0.0975 C   0  0  0  0  0  0  0  0  0  0  0  0
   -1.6451    2.0068   -0.4742 O   0  0  0  0  0  0  0  0  0  0  0  0
   -3.0399    0.1408   -0.0438 C   0  0  0  0  0  0  0  0  0  0  0  0
   -4.0610    0.5885   -0.8802 C   0  0  0  0  0  0  0  0  0  0  0  0
   -5.3013   -0.0291   -0.8622 C   0  0  0  0  0  0  0  0  0  0  0  0
   -5.5414   -1.0866    0.0064 C   0  0  0  0  0  0  0  0  0  0  0  0
   -4.5347   -1.5251    0.8555 C   0  0  0  0  0  0  0  0  0  0  0  0
   -3.2882   -0.9165    0.8302 C   0  0  0  0  0  0  0  0  0  0  0  0
    5.9046   -1.0267   -0.8088 H   0  0  0  0  0  0  0  0  0  0  0  0
    4.3688    1.7141    0.4074 H   0  0  0  0  0  0  0  0  0  0  0  0
    2.5960    3.2248    1.1855 H   0  0  0  0  0  0  0  0  0  0  0  0
    0.2487    2.4953    1.1639 H   0  0  0  0  0  0  0  0  0  0  0  0
   -3.8835    1.4161   -1.5538 H   0  0  0  0  0  0  0  0  0  0  0  0
   -6.0830    0.3175   -1.5251 H   0  0  0  0  0  0  0  0  0  0  0  0
   -6.5121   -1.5646    0.0245 H   0  0  0  0  0  0  0  0  0  0  0  0
   -4.7181   -2.3392    1.5441 H   0  0  0  0  0  0  0  0  0  0  0  0
   -2.5267   -1.2615    1.5187 H   0  0  0  0  0  0  0  0  0  0  0  0
    2.0895   -2.0077   -0.8014 H   0  0  0  0  0  0  0  0  0  0  0  0
   -0.7851   -0.8780    0.4059 H   0  0  0  0  0  0  0  0  0  0  0  0
  6  4  2  0
  7  8  2  0
  7  3  1  0
  4  5  1  0
  4  3  1  0
  8  9  1  0
  3  2  2  0
  9 10  2  0
  2 10  1  0
  2  1  1  0
 10 11  1  0
 11 12  1  0
 13 12  2  0
 12 14  1  0
 19 14  1  0
 19 18  2  0
 14 15  2  0
 18 17  1  0
 15 16  1  0
 17 16  2  0
  5 20  1  0
  7 21  1  0
  8 22  1  0
  9 23  1  0
 15 24  1  0
 16 25  1  0
 17 26  1  0
 18 27  1  0
 19 28  1  0
  1 29  1  0
 11 30  1  0
M  END
