
     RDKit          3D

 72 74  0  0  0  0  0  0  0  0999 V2000
    0.4115    2.4506   -1.4879 P   0  0  1  0  0  0  0  0  0  0  0  0
  -15.0185   -2.8852    1.3930 C   0  0  0  0  0  0  0  0  0  0  0  0
    5.1436   -1.0163    0.3542 N   0  0  0  0  0  0  0  0  0  0  0  0
   -2.3685    2.5255   -2.2354 O   0  0  0  0  0  0  0  0  0  0  0  0
  -14.1076   -1.9512    0.6081 C   0  0  0  0  0  0  0  0  0  0  0  0
    5.3474   -2.1131   -1.5775 N   0  0  0  0  0  0  0  0  0  0  0  0
   -0.8605    1.6756   -0.8203 O   0  0  0  0  0  0  0  0  0  0  0  0
  -12.6360   -2.1192    0.9666 C   0  0  0  0  0  0  0  0  0  0  0  0
    6.9696   -2.0309    1.5829 N   0  0  0  0  0  0  0  0  0  0  0  0
    0.7025    2.1501   -2.8960 O   0  0  0  0  0  0  0  0  0  0  0  0
  -11.7137   -1.1873    0.1903 C   0  0  0  0  0  0  0  0  0  0  0  0
    8.1393   -3.6493    0.2728 N   0  0  0  0  0  0  0  0  0  0  0  0
    0.1838    4.0036   -1.2570 O   0  0  0  0  0  0  0  0  0  0  0  0
  -10.2450   -1.3486    0.5622 C   0  0  0  0  0  0  0  0  0  0  0  0
    7.5804   -4.1907   -1.8983 N   0  0  0  0  0  0  0  0  0  0  0  0
    1.4588    1.9459   -0.4026 O   0  0  0  0  0  0  0  0  0  0  0  0
   -9.3199   -0.4163   -0.2103 C   0  0  0  0  0  0  0  0  0  0  0  0
    3.4271    0.4326    0.9562 O   0  0  0  0  0  0  0  0  0  0  0  0
   -7.8533   -0.5765    0.1699 C   0  0  0  0  0  0  0  0  0  0  0  0
    5.3740    1.4804    2.9546 O   0  0  0  0  0  0  0  0  0  0  0  0
   -6.9245    0.3528   -0.6017 C   0  0  0  0  0  0  0  0  0  0  0  0
    5.3586    3.3973    0.9618 O   0  0  0  0  0  0  0  0  0  0  0  0
   -5.4614    0.1909   -0.2106 C   0  0  0  0  0  0  0  0  0  0  0  0
   -4.5328    1.1136   -0.9903 C   0  0  0  0  0  0  0  0  0  0  0  0
   -3.0849    0.9374   -0.5629 C   0  0  0  0  0  0  0  0  0  0  0  0
   -2.1239    1.8024   -1.3147 C   0  0  0  0  0  0  0  0  0  0  0  0
    2.8584    2.1971   -0.5821 C   0  0  0  0  0  0  0  0  0  0  0  0
    3.5658    1.8254    0.6939 C   0  0  2  0  0  0  0  0  0  0  0  0
    5.0715    2.0708    0.6280 C   0  0  2  0  0  0  0  0  0  0  0  0
    5.5886    1.0445    1.6418 C   0  0  2  0  0  0  0  0  0  0  0  0
    4.6342   -0.1210    1.3878 C   0  0  2  0  0  0  0  0  0  0  0  0
    4.6731   -1.2194   -0.9142 C   0  0  0  0  0  0  0  0  0  0  0  0
    6.3134   -2.5312   -0.7014 C   0  0  0  0  0  0  0  0  0  0  0  0
    6.2003   -1.8649    0.5084 C   0  0  0  0  0  0  0  0  0  0  0  0
    7.9064   -2.9396    1.3740 C   0  0  0  0  0  0  0  0  0  0  0  0
    7.3561   -3.4720   -0.7971 C   0  0  0  0  0  0  0  0  0  0  0  0
  -14.9154   -2.7253    2.4680 H   0  0  0  0  0  0  0  0  0  0  0  0
  -16.0676   -2.7331    1.1367 H   0  0  0  0  0  0  0  0  0  0  0  0
  -14.7790   -3.9312    1.1923 H   0  0  0  0  0  0  0  0  0  0  0  0
  -14.2414   -2.1251   -0.4642 H   0  0  0  0  0  0  0  0  0  0  0  0
  -14.4068   -0.9135    0.7862 H   0  0  0  0  0  0  0  0  0  0  0  0
  -12.5045   -1.9465    2.0406 H   0  0  0  0  0  0  0  0  0  0  0  0
  -12.3362   -3.1580    0.7879 H   0  0  0  0  0  0  0  0  0  0  0  0
  -11.8382   -1.3656   -0.8836 H   0  0  0  0  0  0  0  0  0  0  0  0
  -12.0196   -0.1493    0.3632 H   0  0  0  0  0  0  0  0  0  0  0  0
    0.0445    4.2927   -0.3442 H   0  0  0  0  0  0  0  0  0  0  0  0
  -10.1221   -1.1712    1.6364 H   0  0  0  0  0  0  0  0  0  0  0  0
   -9.9389   -2.3865    0.3894 H   0  0  0  0  0  0  0  0  0  0  0  0
    8.3808   -4.7970   -1.9511 H   0  0  0  0  0  0  0  0  0  0  0  0
    7.0542   -4.0254   -2.7382 H   0  0  0  0  0  0  0  0  0  0  0  0
    5.5995    2.4177    2.9981 H   0  0  0  0  0  0  0  0  0  0  0  0
   -7.0366    0.1682   -1.6756 H   0  0  0  0  0  0  0  0  0  0  0  0
   -7.2317    1.3915   -0.4372 H   0  0  0  0  0  0  0  0  0  0  0  0
    6.2344    3.6212    0.6306 H   0  0  0  0  0  0  0  0  0  0  0  0
   -5.3492    0.3821    0.8620 H   0  0  0  0  0  0  0  0  0  0  0  0
   -5.1559   -0.8492   -0.3686 H   0  0  0  0  0  0  0  0  0  0  0  0
   -4.6330    0.9113   -2.0596 H   0  0  0  0  0  0  0  0  0  0  0  0
   -4.8384    2.1523   -0.8377 H   0  0  0  0  0  0  0  0  0  0  0  0
   -2.9649    1.1431    0.5051 H   0  0  0  0  0  0  0  0  0  0  0  0
   -2.7636   -0.1015   -0.6971 H   0  0  0  0  0  0  0  0  0  0  0  0
    3.2363    1.6190   -1.4288 H   0  0  0  0  0  0  0  0  0  0  0  0
    3.0415    3.2559   -0.7843 H   0  0  0  0  0  0  0  0  0  0  0  0
    3.1350    2.3978    1.5241 H   0  0  0  0  0  0  0  0  0  0  0  0
    5.4548    1.8122   -0.3683 H   0  0  0  0  0  0  0  0  0  0  0  0
    6.6348    0.7695    1.4646 H   0  0  0  0  0  0  0  0  0  0  0  0
    4.4801   -0.7173    2.2913 H   0  0  0  0  0  0  0  0  0  0  0  0
    3.8163   -0.6901   -1.2982 H   0  0  0  0  0  0  0  0  0  0  0  0
    8.5752   -3.1361    2.2050 H   0  0  0  0  0  0  0  0  0  0  0  0
   -9.4385   -0.5962   -1.2846 H   0  0  0  0  0  0  0  0  0  0  0  0
   -9.6276    0.6216   -0.0404 H   0  0  0  0  0  0  0  0  0  0  0  0
   -7.7357   -0.3954    1.2440 H   0  0  0  0  0  0  0  0  0  0  0  0
   -7.5464   -1.6149    0.0017 H   0  0  0  0  0  0  0  0  0  0  0  0
  1 10  2  0
  1 13  1  6
  3 31  1  0
  3 32  1  0
  4 26  2  0
  5  2  1  0
  6 32  2  0
  7  1  1  0
  8  5  1  0
  9 34  1  0
 11  8  1  0
 12 35  1  0
 12 36  2  0
 14 11  1  0
 15 36  1  0
 16  1  1  0
 17 14  1  0
 18 28  1  0
 19 17  1  0
 20 30  1  0
 21 19  1  0
 21 23  1  0
 23 24  1  0
 24 25  1  0
 26  7  1  0
 26 25  1  0
 27 16  1  0
 28 27  1  0
 29 22  1  0
 29 28  1  0
 30 29  1  0
 30 31  1  0
 31 18  1  0
 33  6  1  0
 33 34  2  0
 34  3  1  0
 35  9  2  0
 36 33  1  0
  2 37  1  0
  2 38  1  0
  2 39  1  0
  5 40  1  0
  5 41  1  0
  8 42  1  0
  8 43  1  0
 11 44  1  0
 11 45  1  0
 13 46  1  0
 14 47  1  0
 14 48  1  0
 15 49  1  0
 15 50  1  0
 20 51  1  0
 21 52  1  0
 21 53  1  0
 22 54  1  0
 23 55  1  0
 23 56  1  0
 24 57  1  0
 24 58  1  0
 25 59  1  0
 25 60  1  0
 27 61  1  0
 27 62  1  0
 28 63  1  1
 29 64  1  6
 30 65  1  6
 31 66  1  1
 32 67  1  0
 35 68  1  0
 17 69  1  0
 17 70  1  0
 19 71  1  0
 19 72  1  0
M  END
