
     RDKit          3D

 36 39  0  0  0  0  0  0  0  0999 V2000
   -1.5839    2.7006    1.0511 O   0  0  0  0  0  0  0  0  0  0  0  0
   -2.4415    1.9774    0.3467 C   0  0  0  0  0  0  0  0  0  0  0  0
   -3.5124    2.3941   -0.0191 O   0  0  0  0  0  0  0  0  0  0  0  0
   -1.9704    0.5965    0.0808 C   0  0  0  0  0  0  0  0  0  0  0  0
   -0.6176    0.2054   -0.1135 C   0  0  0  0  0  0  0  0  0  0  0  0
    0.5046    1.2293   -0.0807 C   0  0  0  0  0  0  0  0  0  0  0  0
    1.7784    0.7034   -0.4916 N   0  0  0  0  0  0  0  0  0  0  0  0
    2.2326    0.7334   -1.7830 C   0  0  0  0  0  0  0  0  0  0  0  0
    1.6177    1.1910   -2.7223 O   0  0  0  0  0  0  0  0  0  0  0  0
    3.6122    0.1028   -1.7973 C   0  0  0  0  0  0  0  0  0  0  0  0
    3.8352   -0.2685   -0.3675 C   0  0  0  0  0  0  0  0  0  0  0  0
    4.8944   -0.8802    0.2682 C   0  0  0  0  0  0  0  0  0  0  0  0
    4.8170   -1.1092    1.6426 C   0  0  0  0  0  0  0  0  0  0  0  0
    3.6870   -0.7302    2.3541 C   0  0  0  0  0  0  0  0  0  0  0  0
    2.6075   -0.1149    1.7223 C   0  0  0  0  0  0  0  0  0  0  0  0
    2.7089    0.1098    0.3623 C   0  0  0  0  0  0  0  0  0  0  0  0
   -0.3289   -1.1218   -0.3757 C   0  0  0  0  0  0  0  0  0  0  0  0
   -1.3139   -2.1162   -0.4469 C   0  0  0  0  0  0  0  0  0  0  0  0
   -2.6078   -1.7207   -0.2617 C   0  0  0  0  0  0  0  0  0  0  0  0
   -3.7387   -2.4617   -0.2964 O   0  0  0  0  0  0  0  0  0  0  0  0
   -4.7869   -1.6042    0.1265 C   0  0  0  0  0  0  0  0  0  0  0  0
   -4.2657   -0.2792    0.1054 O   0  0  0  0  0  0  0  0  0  0  0  0
   -2.9307   -0.3922   -0.0219 C   0  0  0  0  0  0  0  0  0  0  0  0
    0.2683    2.0701   -0.7334 H   0  0  0  0  0  0  0  0  0  0  0  0
    0.6225    1.6396    0.9218 H   0  0  0  0  0  0  0  0  0  0  0  0
    3.6191   -0.7562   -2.4729 H   0  0  0  0  0  0  0  0  0  0  0  0
    4.3442    0.8167   -2.1828 H   0  0  0  0  0  0  0  0  0  0  0  0
    5.7730   -1.1816   -0.2884 H   0  0  0  0  0  0  0  0  0  0  0  0
    5.6414   -1.5869    2.1546 H   0  0  0  0  0  0  0  0  0  0  0  0
    3.6361   -0.9163    3.4189 H   0  0  0  0  0  0  0  0  0  0  0  0
    1.7292    0.1688    2.2877 H   0  0  0  0  0  0  0  0  0  0  0  0
    0.6937   -1.4272   -0.5434 H   0  0  0  0  0  0  0  0  0  0  0  0
   -1.0510   -3.1457   -0.6468 H   0  0  0  0  0  0  0  0  0  0  0  0
   -5.6285   -1.6764   -0.5614 H   0  0  0  0  0  0  0  0  0  0  0  0
   -5.0956   -1.8613    1.1445 H   0  0  0  0  0  0  0  0  0  0  0  0
   -1.9280    3.5994    1.1689 H   0  0  0  0  0  0  0  0  0  0  0  0
  1  2  1  0
  2  3  2  0
  2  4  1  0
  4  5  2  0
  4 23  1  0
  5  6  1  0
  5 17  1  0
  6  7  1  0
  7  8  1  0
  7 16  1  0
  8  9  2  0
  8 10  1  0
 10 11  1  0
 11 12  1  0
 11 16  2  0
 12 13  2  0
 13 14  1  0
 14 15  2  0
 15 16  1  0
 17 18  2  0
 18 19  1  0
 19 20  1  0
 19 23  2  0
 20 21  1  0
 21 22  1  0
 22 23  1  0
  6 24  1  0
  6 25  1  0
 10 26  1  0
 10 27  1  0
 12 28  1  0
 13 29  1  0
 14 30  1  0
 15 31  1  0
 17 32  1  0
 18 33  1  0
 21 34  1  0
 21 35  1  0
  1 36  1  0
M  END
