
     RDKit          3D

 36 39  0  0  0  0  0  0  0  0999 V2000
   -3.9643   -2.4129   -0.0288 N   0  0  0  0  0  0  0  0  0  0  0  0
   -4.9231    2.8922    0.0694 N   0  0  0  0  0  0  0  0  0  0  0  0
   -3.6629    3.2818    0.0755 N   0  0  0  0  0  0  0  0  0  0  0  0
   -2.8926    2.2565    0.0557 N   0  0  0  0  0  0  0  0  0  0  0  0
    0.0549   -1.3519   -0.0134 N   0  0  0  0  0  0  0  0  0  0  0  0
    6.0969    0.3501   -1.4861 N   0  0  0  0  0  0  0  0  0  0  0  0
    6.4129   -0.2025    0.9098 O   0  0  0  0  0  0  0  0  0  0  0  0
    5.5778    2.0896    0.3688 O   0  0  0  0  0  0  0  0  0  0  0  0
    2.4037   -1.7457   -0.0120 C   0  0  0  0  0  0  0  0  0  0  0  0
    1.5862    0.5314    0.0181 C   0  0  0  0  0  0  0  0  0  0  0  0
    3.7023   -1.2839    0.0014 C   0  0  0  0  0  0  0  0  0  0  0  0
    2.8904    0.9894    0.0331 C   0  0  0  0  0  0  0  0  0  0  0  0
   -6.0902    0.6461    0.0284 C   0  0  0  0  0  0  0  0  0  0  0  0
   -5.7888   -0.7002    0.0035 C   0  0  0  0  0  0  0  0  0  0  0  0
    1.3371   -0.8416   -0.0030 C   0  0  0  0  0  0  0  0  0  0  0  0
    3.9445    0.0858    0.0235 C   0  0  0  0  0  0  0  0  0  0  0  0
   -2.6061   -2.4434   -0.0302 C   0  0  0  0  0  0  0  0  0  0  0  0
   -2.1741   -1.0158   -0.0051 C   0  0  0  0  0  0  0  0  0  0  0  0
   -5.0158    1.5415    0.0443 C   0  0  0  0  0  0  0  0  0  0  0  0
   -4.4486   -1.1066   -0.0053 C   0  0  0  0  0  0  0  0  0  0  0  0
   -3.6745    1.1420    0.0355 C   0  0  0  0  0  0  0  0  0  0  0  0
   -3.3782   -0.2231    0.0099 C   0  0  0  0  0  0  0  0  0  0  0  0
    5.6071    0.6651    0.0616 S   0  0  1  0  0  0  0  0  0  0  0  0
   -4.5445   -3.2380   -0.0453 H   0  0  0  0  0  0  0  0  0  0  0  0
   -5.6599    3.5816    0.0828 H   0  0  0  0  0  0  0  0  0  0  0  0
    7.1098    0.3781   -1.5646 H   0  0  0  0  0  0  0  0  0  0  0  0
    5.6801    0.9812   -2.1632 H   0  0  0  0  0  0  0  0  0  0  0  0
    2.2149   -2.8118   -0.0252 H   0  0  0  0  0  0  0  0  0  0  0  0
    0.7684    1.2373    0.0258 H   0  0  0  0  0  0  0  0  0  0  0  0
    4.5169   -1.9954   -0.0042 H   0  0  0  0  0  0  0  0  0  0  0  0
    3.0728    2.0548    0.0538 H   0  0  0  0  0  0  0  0  0  0  0  0
   -7.1160    0.9869    0.0359 H   0  0  0  0  0  0  0  0  0  0  0  0
   -6.5819   -1.4355   -0.0093 H   0  0  0  0  0  0  0  0  0  0  0  0
   -0.0766   -2.3598   -0.0295 H   0  0  0  0  0  0  0  0  0  0  0  0
   -0.9742   -0.5513    0.0017 N   0  0  0  0  0  0  0  0  0  0  0  0
   -1.8880   -3.4304   -0.0483 O   0  0  0  0  0  0  0  0  0  0  0  0
 23  6  1  6
  7 23  2  0
 23  8  2  0
 23 16  1  0
 16 11  1  0
 16 12  2  0
 11  9  2  0
 12 10  1  0
  9 15  1  0
 10 15  2  0
 15  5  1  0
  3  4  2  0
  3  2  1  0
  4 21  1  0
  5 35  1  0
 35 18  2  0
  2 19  1  0
 21 19  1  0
 21 22  2  0
 19 13  2  0
 18 22  1  0
 18 17  1  0
 22 20  1  0
 17 36  2  0
 17  1  1  0
 13 14  1  0
 20 14  2  0
 20  1  1  0
  1 24  1  0
  2 25  1  0
  6 26  1  0
  6 27  1  0
  9 28  1  0
 10 29  1  0
 11 30  1  0
 12 31  1  0
 13 32  1  0
 14 33  1  0
  5 34  1  0
M  END
