
     RDKit          3D

 53 56  0  0  0  0  0  0  0  0999 V2000
   -4.3188   -0.6523   -0.5749 C   0  0  0  0  0  0  0  0  0  0  0  0
   -5.6411   -0.3855   -0.8591 C   0  0  0  0  0  0  0  0  0  0  0  0
   -6.2867    0.7110   -0.2918 C   0  0  0  0  0  0  0  0  0  0  0  0
   -7.7307    0.9473   -0.5676 C   0  0  1  0  0  0  0  0  0  0  0  0
   -8.5248    0.1778    0.1996 F   0  0  0  0  0  0  0  0  0  0  0  0
   -8.0986    2.2145   -0.3398 F   0  0  0  0  0  0  0  0  0  0  0  0
   -8.0563    0.6655   -1.8378 F   0  0  0  0  0  0  0  0  0  0  0  0
   -5.5709    1.5307    0.5677 C   0  0  0  0  0  0  0  0  0  0  0  0
   -4.2401    1.2728    0.8508 C   0  0  0  0  0  0  0  0  0  0  0  0
   -3.5797    0.1677    0.2956 C   0  0  0  0  0  0  0  0  0  0  0  0
   -2.2652   -0.1382    0.6067 N   0  0  0  0  0  0  0  0  0  0  0  0
   -1.5769    0.6682    1.5957 C   0  0  0  0  0  0  0  0  0  0  0  0
   -0.3593   -0.0632    2.1363 C   0  0  0  0  0  0  0  0  0  0  0  0
   -1.3872   -0.6021   -0.4564 C   0  0  0  0  0  0  0  0  0  0  0  0
   -0.1786   -1.3252    0.1108 C   0  0  0  0  0  0  0  0  0  0  0  0
    0.5159   -0.4745    1.0554 N   0  0  0  0  0  0  0  0  0  0  0  0
    1.7842   -0.0246    0.9756 C   0  0  0  0  0  0  0  0  0  0  0  0
    2.2770    0.7067    1.8182 O   0  0  0  0  0  0  0  0  0  0  0  0
    2.6188   -0.4994   -0.2222 C   0  0  1  0  0  0  0  0  0  0  0  0
    3.8252    0.3886   -0.4134 C   0  0  0  0  0  0  0  0  0  0  0  0
    3.8286    1.3400   -1.4249 C   0  0  0  0  0  0  0  0  0  0  0  0
    4.9177    2.1767   -1.6249 C   0  0  0  0  0  0  0  0  0  0  0  0
    6.0187    2.0547   -0.7959 C   0  0  0  0  0  0  0  0  0  0  0  0
    7.3893    3.0852   -1.0352 Cl  0  0  0  0  0  0  0  0  0  0  0  0
    6.0421    1.1104    0.2202 C   0  0  0  0  0  0  0  0  0  0  0  0
    4.9457    0.2854    0.4042 C   0  0  0  0  0  0  0  0  0  0  0  0
    3.0053   -1.9556   -0.0868 C   0  0  0  0  0  0  0  0  0  0  0  0
    3.2139   -2.7354   -1.2189 C   0  0  0  0  0  0  0  0  0  0  0  0
    3.6013   -4.0553   -1.0742 C   0  0  0  0  0  0  0  0  0  0  0  0
    3.7695   -4.5563    0.2082 C   0  0  0  0  0  0  0  0  0  0  0  0
    3.5745   -3.8287    1.2989 N   0  0  0  0  0  0  0  0  0  0  0  0
    3.2023   -2.5643    1.1482 C   0  0  0  0  0  0  0  0  0  0  0  0
   -3.8694   -1.5281   -1.0206 H   0  0  0  0  0  0  0  0  0  0  0  0
   -6.1696   -1.0542   -1.5263 H   0  0  0  0  0  0  0  0  0  0  0  0
   -6.0296    2.3986    1.0219 H   0  0  0  0  0  0  0  0  0  0  0  0
   -3.7225    1.9642    1.4993 H   0  0  0  0  0  0  0  0  0  0  0  0
   -1.2727    1.6431    1.1888 H   0  0  0  0  0  0  0  0  0  0  0  0
   -2.2388    0.8555    2.4409 H   0  0  0  0  0  0  0  0  0  0  0  0
   -1.9080   -1.2928   -1.1150 H   0  0  0  0  0  0  0  0  0  0  0  0
   -1.0469    0.2428   -1.0717 H   0  0  0  0  0  0  0  0  0  0  0  0
    0.1770    0.5813    2.8263 H   0  0  0  0  0  0  0  0  0  0  0  0
   -0.6833   -0.9533    2.6840 H   0  0  0  0  0  0  0  0  0  0  0  0
   -0.5011   -2.2340    0.6273 H   0  0  0  0  0  0  0  0  0  0  0  0
    0.4587   -1.6413   -0.7093 H   0  0  0  0  0  0  0  0  0  0  0  0
    2.0115   -0.4043   -1.1268 H   0  0  0  0  0  0  0  0  0  0  0  0
    2.9711    1.4408   -2.0787 H   0  0  0  0  0  0  0  0  0  0  0  0
    4.9843   -0.4517    1.1949 H   0  0  0  0  0  0  0  0  0  0  0  0
    4.9036    2.9092   -2.4195 H   0  0  0  0  0  0  0  0  0  0  0  0
    6.9070    1.0171    0.8621 H   0  0  0  0  0  0  0  0  0  0  0  0
    3.0711   -2.3170   -2.2079 H   0  0  0  0  0  0  0  0  0  0  0  0
    3.0569   -2.0065    2.0681 H   0  0  0  0  0  0  0  0  0  0  0  0
    3.7676   -4.6858   -1.9358 H   0  0  0  0  0  0  0  0  0  0  0  0
    4.0711   -5.5864    0.3579 H   0  0  0  0  0  0  0  0  0  0  0  0
  1  2  2  0
  1 10  1  0
  2  3  1  0
  3  4  1  0
  3  8  2  0
  4  5  1  1
  4  6  1  0
  4  7  1  0
  8  9  1  0
  9 10  2  0
 10 11  1  0
 11 12  1  0
 11 14  1  0
 12 13  1  0
 13 16  1  0
 14 15  1  0
 15 16  1  0
 16 17  1  0
 17 18  2  0
 17 19  1  0
 19 20  1  0
 19 27  1  0
 20 21  2  0
 20 26  1  0
 21 22  1  0
 22 23  2  0
 23 24  1  0
 23 25  1  0
 25 26  2  0
 27 28  2  0
 27 32  1  0
 28 29  1  0
 29 30  2  0
 30 31  1  0
 31 32  2  0
  1 33  1  0
  2 34  1  0
  8 35  1  0
  9 36  1  0
 12 37  1  0
 12 38  1  0
 14 39  1  0
 14 40  1  0
 13 41  1  0
 13 42  1  0
 15 43  1  0
 15 44  1  0
 19 45  1  6
 21 46  1  0
 26 47  1  0
 22 48  1  0
 25 49  1  0
 28 50  1  0
 32 51  1  0
 29 52  1  0
 30 53  1  0
M  END
