
     RDKit          3D

 51 54  0  0  0  0  0  0  0  0999 V2000
   -4.2792    2.5027    0.5543 O   0  0  0  0  0  0  0  0  0  0  0  0
   -3.3225    1.7905    0.3339 C   0  0  0  0  0  0  0  0  0  0  0  0
   -2.4790    1.2083    1.4365 C   0  0  0  0  0  0  0  0  0  0  0  0
   -1.9346   -0.1973    1.1299 C   0  0  1  0  0  0  0  0  0  0  0  0
   -2.8412    1.4894   -1.0588 C   0  0  0  0  0  0  0  0  0  0  0  0
   -2.2929    0.0629   -1.2321 C   0  0  2  0  0  0  0  0  0  0  0  0
   -3.3844   -1.0061   -1.2385 C   0  0  0  0  0  0  0  0  0  0  0  0
   -4.0562   -1.1597    0.1213 C   0  0  0  0  0  0  0  0  0  0  0  0
   -3.0111   -1.2785    1.2247 C   0  0  0  0  0  0  0  0  0  0  0  0
   -1.3336   -0.3033   -0.1939 N   0  0  0  0  0  0  0  0  0  0  0  0
   -0.2319    0.5672   -0.2831 O   0  0  0  0  0  0  0  0  0  0  0  0
    0.9704   -0.1121   -0.5920 C   0  0  2  0  0  0  0  0  0  0  0  0
    2.0319    0.9789   -0.8108 C   0  0  0  0  0  0  0  0  0  0  0  0
    2.3642    1.8482    0.4173 C   0  0  2  0  0  0  0  0  0  0  0  0
    1.4035    2.8572    0.7988 N   0  0  0  0  0  0  0  0  0  0  0  0
    3.7162    2.4625    0.1742 C   0  0  0  0  0  0  0  0  0  0  0  0
    3.9515    3.6431    0.1845 O   0  0  0  0  0  0  0  0  0  0  0  0
    0.8656   -1.0208   -1.8509 C   0  0  1  0  0  0  0  0  0  0  0  0
    1.0526   -0.3103   -3.0273 O   0  0  0  0  0  0  0  0  0  0  0  0
    1.9017   -2.0221   -1.6118 N   0  0  0  0  0  0  0  0  0  0  0  0
    1.9831   -2.2038   -0.2406 C   0  0  0  0  0  0  0  0  0  0  0  0
    1.4331   -1.1143    0.4369 C   0  0  0  0  0  0  0  0  0  0  0  0
    2.5283   -3.2746    0.4546 C   0  0  0  0  0  0  0  0  0  0  0  0
    2.5247   -3.2256    1.8455 C   0  0  0  0  0  0  0  0  0  0  0  0
    1.9901   -2.1402    2.5285 C   0  0  0  0  0  0  0  0  0  0  0  0
    1.4442   -1.0723    1.8169 C   0  0  0  0  0  0  0  0  0  0  0  0
   -1.6392    1.8984    1.5772 H   0  0  0  0  0  0  0  0  0  0  0  0
   -3.0343    1.2095    2.3762 H   0  0  0  0  0  0  0  0  0  0  0  0
   -1.1641   -0.4288    1.8651 H   0  0  0  0  0  0  0  0  0  0  0  0
   -3.6301    1.6929   -1.7852 H   0  0  0  0  0  0  0  0  0  0  0  0
   -2.0323    2.2002   -1.2653 H   0  0  0  0  0  0  0  0  0  0  0  0
   -1.7765    0.0230   -2.1936 H   0  0  0  0  0  0  0  0  0  0  0  0
   -4.1188   -0.7679   -2.0107 H   0  0  0  0  0  0  0  0  0  0  0  0
   -2.9248   -1.9563   -1.5241 H   0  0  0  0  0  0  0  0  0  0  0  0
   -4.7321   -0.3217    0.3142 H   0  0  0  0  0  0  0  0  0  0  0  0
   -4.6939   -2.0456    0.1205 H   0  0  0  0  0  0  0  0  0  0  0  0
   -2.5178   -2.2518    1.1572 H   0  0  0  0  0  0  0  0  0  0  0  0
   -3.4796   -1.2316    2.2101 H   0  0  0  0  0  0  0  0  0  0  0  0
    2.9395    0.4694   -1.1504 H   0  0  0  0  0  0  0  0  0  0  0  0
    1.7251    1.6361   -1.6286 H   0  0  0  0  0  0  0  0  0  0  0  0
    2.5274    1.1761    1.2709 H   0  0  0  0  0  0  0  0  0  0  0  0
    1.3012    3.5360    0.0538 H   0  0  0  0  0  0  0  0  0  0  0  0
    0.4968    2.4242    0.9034 H   0  0  0  0  0  0  0  0  0  0  0  0
    4.5120    1.7230   -0.0306 H   0  0  0  0  0  0  0  0  0  0  0  0
   -0.1163   -1.5114   -1.8477 H   0  0  0  0  0  0  0  0  0  0  0  0
    0.5902   -0.7596   -3.7405 H   0  0  0  0  0  0  0  0  0  0  0  0
    1.8202   -2.8634   -2.1662 H   0  0  0  0  0  0  0  0  0  0  0  0
    2.9422   -4.1285   -0.0667 H   0  0  0  0  0  0  0  0  0  0  0  0
    2.9424   -4.0554    2.4016 H   0  0  0  0  0  0  0  0  0  0  0  0
    1.9920   -2.1246    3.6102 H   0  0  0  0  0  0  0  0  0  0  0  0
    1.0218   -0.2306    2.3530 H   0  0  0  0  0  0  0  0  0  0  0  0
 19 18  1  0
 15 14  1  0
 18 20  1  0
 18 12  1  0
 20 21  1  0
 16 14  1  0
 16 17  2  0
 13 14  1  0
 13 12  1  0
 21 23  2  0
 21 22  1  0
 23 24  1  0
 12 22  1  0
 12 11  1  1
 22 26  2  0
 24 25  2  0
 26 25  1  0
 11 10  1  0
 10  6  1  0
 10  4  1  0
  6  7  1  0
  6  5  1  0
  4  9  1  0
  4  3  1  0
  7  8  1  0
  9  8  1  0
  5  2  1  0
  3  2  1  0
  2  1  2  0
  3 27  1  0
  3 28  1  0
  4 29  1  1
  5 30  1  0
  5 31  1  0
  6 32  1  6
  7 33  1  0
  7 34  1  0
  8 35  1  0
  8 36  1  0
  9 37  1  0
  9 38  1  0
 13 39  1  0
 13 40  1  0
 14 41  1  1
 15 42  1  0
 15 43  1  0
 16 44  1  0
 18 45  1  6
 19 46  1  0
 20 47  1  0
 23 48  1  0
 24 49  1  0
 25 50  1  0
 26 51  1  0
M  END
