
     RDKit          3D

 50 54  0  0  0  0  0  0  0  0999 V2000
    5.5369    1.0264    0.4109 C   0  0  0  0  0  0  0  0  0  0  0  0
    5.4411    0.0153   -0.7288 C   0  0  0  0  0  0  0  0  0  0  0  0
    3.9186   -3.5994    0.4267 C   0  0  0  0  0  0  0  0  0  0  0  0
    3.1938    0.7328   -1.2607 C   0  0  0  0  0  0  0  0  0  0  0  0
    3.2104    1.7725   -0.1434 C   0  0  0  0  0  0  0  0  0  0  0  0
    3.5707   -1.5427   -0.4354 C   0  0  0  0  0  0  0  0  0  0  0  0
    2.5708   -3.8622    0.4621 C   0  0  0  0  0  0  0  0  0  0  0  0
    1.7409   -2.8197    0.0089 C   0  0  0  0  0  0  0  0  0  0  0  0
    4.6411    2.2269    0.1398 C   0  0  1  0  0  0  0  0  0  0  0  0
    4.7355    3.0965    1.2465 O   0  0  0  0  0  0  0  0  0  0  0  0
    4.0643   -0.3829   -0.9445 N   0  0  0  0  0  0  0  0  0  0  0  0
    4.4462   -2.4607   -0.0136 N   0  0  0  0  0  0  0  0  0  0  0  0
    2.2427   -1.6766   -0.4211 N   0  0  0  0  0  0  0  0  0  0  0  0
    0.3892   -2.9781    0.0314 N   0  0  0  0  0  0  0  0  0  0  0  0
   -0.5602   -2.0140   -0.3413 C   0  0  0  0  0  0  0  0  0  0  0  0
   -1.5916   -1.7237    0.5415 C   0  0  0  0  0  0  0  0  0  0  0  0
   -2.5429   -0.8073    0.1058 C   0  0  0  0  0  0  0  0  0  0  0  0
   -2.3830   -0.2245   -1.1609 C   0  0  0  0  0  0  0  0  0  0  0  0
   -1.3134   -0.5741   -1.9664 C   0  0  0  0  0  0  0  0  0  0  0  0
   -0.4338   -1.4712   -1.5538 N   0  0  0  0  0  0  0  0  0  0  0  0
   -3.4454    0.6299   -1.2891 N   0  0  0  0  0  0  0  0  0  0  0  0
   -4.1718    0.5373   -0.1463 C   0  0  0  0  0  0  0  0  0  0  0  0
   -3.6616   -0.3159    0.7144 N   0  0  0  0  0  0  0  0  0  0  0  0
   -5.3701    1.3051    0.0782 C   0  0  0  0  0  0  0  0  0  0  0  0
   -6.1388    1.2992    1.2277 C   0  0  0  0  0  0  0  0  0  0  0  0
   -7.1406    2.1510    1.0062 N   0  0  0  0  0  0  0  0  0  0  0  0
   -7.0988    2.7199   -0.1956 N   0  0  0  0  0  0  0  0  0  0  0  0
   -6.0292    2.2174   -0.7737 C   0  0  0  0  0  0  0  0  0  0  0  0
    5.2377    0.5463    1.3482 H   0  0  0  0  0  0  0  0  0  0  0  0
    6.5742    1.3508    0.5242 H   0  0  0  0  0  0  0  0  0  0  0  0
    5.8143    0.4660   -1.6538 H   0  0  0  0  0  0  0  0  0  0  0  0
    6.0499   -0.8599   -0.5247 H   0  0  0  0  0  0  0  0  0  0  0  0
    4.6236   -4.3498    0.7702 H   0  0  0  0  0  0  0  0  0  0  0  0
    2.1856    0.3695   -1.4369 H   0  0  0  0  0  0  0  0  0  0  0  0
    3.5490    1.1848   -2.1929 H   0  0  0  0  0  0  0  0  0  0  0  0
    2.5804    2.6159   -0.4382 H   0  0  0  0  0  0  0  0  0  0  0  0
    2.7761    1.3404    0.7640 H   0  0  0  0  0  0  0  0  0  0  0  0
    2.1781   -4.8016    0.8237 H   0  0  0  0  0  0  0  0  0  0  0  0
    5.0188    2.7394   -0.7616 H   0  0  0  0  0  0  0  0  0  0  0  0
    4.4714    4.9996    1.8850 H   0  0  0  0  0  0  0  0  0  0  0  0
    4.7298    4.8554    0.1376 H   0  0  0  0  0  0  0  0  0  0  0  0
    3.1654    4.4200    0.8436 H   0  0  0  0  0  0  0  0  0  0  0  0
    0.0448   -3.7553    0.5727 H   0  0  0  0  0  0  0  0  0  0  0  0
   -1.6443   -2.1832    1.5197 H   0  0  0  0  0  0  0  0  0  0  0  0
   -1.1696   -0.1465   -2.9524 H   0  0  0  0  0  0  0  0  0  0  0  0
   -3.6425    1.2218   -2.0809 H   0  0  0  0  0  0  0  0  0  0  0  0
   -6.0318    0.7597    2.1538 H   0  0  0  0  0  0  0  0  0  0  0  0
   -7.8821    2.3886    1.6471 H   0  0  0  0  0  0  0  0  0  0  0  0
   -5.7624    2.5173   -1.7760 H   0  0  0  0  0  0  0  0  0  0  0  0
    4.2477    4.3930    1.0077 C   0  0  0  0  0  0  0  0  0  0  0  0
 26 27  1  0
 26 25  1  0
 27 28  2  0
 25 24  2  0
 28 24  1  0
 24 22  1  0
 22 21  1  0
 22 23  2  0
 21 18  1  0
 23 17  1  0
 18 19  2  0
 18 17  1  0
 19 20  1  0
 17 16  2  0
 20 15  2  0
 16 15  1  0
 15 14  1  0
 50 10  1  0
  1  2  1  0
  1  9  1  0
  2 11  1  0
 14  8  1  0
 10  9  1  0
  9  5  1  0
 13  8  2  0
 13  6  1  0
  8  7  1  0
 11  6  1  0
 11  4  1  0
  6 12  2  0
  5  4  1  0
  7  3  2  0
 12  3  1  0
  1 29  1  0
  1 30  1  0
  2 31  1  0
  2 32  1  0
  3 33  1  0
  4 34  1  0
  4 35  1  0
  5 36  1  0
  5 37  1  0
  7 38  1  0
  9 39  1  6
 50 40  1  0
 50 41  1  0
 50 42  1  0
 14 43  1  0
 16 44  1  0
 19 45  1  0
 21 46  1  0
 25 47  1  0
 26 48  1  0
 28 49  1  0
M  END
