
     RDKit          3D

 64 67  0  0  0  0  0  0  0  0999 V2000
    6.6391   -0.2821   -0.4203 C   0  0  0  0  0  0  0  0  0  0  0  0
    0.8912    3.0646   -0.5298 C   0  0  0  0  0  0  0  0  0  0  0  0
    8.8301    0.3244   -1.5091 C   0  0  0  0  0  0  0  0  0  0  0  0
    7.6653   -2.5701    0.6233 C   0  0  0  0  0  0  0  0  0  0  0  0
    8.4681   -1.7491   -0.1350 C   0  0  0  0  0  0  0  0  0  0  0  0
    0.7400    5.4921   -0.6987 C   0  0  0  0  0  0  0  0  0  0  0  0
   -0.9659    0.2328    0.2789 C   0  0  0  0  0  0  0  0  0  0  0  0
   -0.8614   -0.0224   -1.0874 C   0  0  0  0  0  0  0  0  0  0  0  0
   -1.9555   -0.4729   -1.8065 C   0  0  0  0  0  0  0  0  0  0  0  0
   -3.1757   -0.6794   -1.1819 C   0  0  0  0  0  0  0  0  0  0  0  0
   -3.2956   -0.4330    0.1830 C   0  0  0  0  0  0  0  0  0  0  0  0
    1.3942    0.8048    0.5301 C   0  0  0  0  0  0  0  0  0  0  0  0
    5.8815   -1.1665    0.3553 C   0  0  0  0  0  0  0  0  0  0  0  0
   -4.6453   -0.5484    0.8191 C   0  0  0  0  0  0  0  0  0  0  0  0
   -7.5291   -1.3657   -0.0683 C   0  0  0  0  0  0  0  0  0  0  0  0
   -8.8909   -1.2501    0.2002 C   0  0  0  0  0  0  0  0  0  0  0  0
   -6.9983   -0.9892   -1.2221 N   0  0  0  0  0  0  0  0  0  0  0  0
   -6.6105   -1.9656    0.9755 C   0  0  0  0  0  0  0  0  0  0  0  0
   -9.7220   -0.7276   -0.7746 C   0  0  0  0  0  0  0  0  0  0  0  0
   -7.8011   -0.4827   -2.1533 C   0  0  0  0  0  0  0  0  0  0  0  0
   -5.2173   -1.7594    0.6987 N   0  0  0  0  0  0  0  0  0  0  0  0
   -9.1670   -0.3322   -1.9848 C   0  0  0  0  0  0  0  0  0  0  0  0
    1.7972    1.9190   -0.2330 C   0  0  0  0  0  0  0  0  0  0  0  0
    3.1124    1.9313   -0.6687 C   0  0  0  0  0  0  0  0  0  0  0  0
    4.0148    0.9967   -0.4014 N   0  0  0  0  0  0  0  0  0  0  0  0
    3.6450   -0.0250    0.3572 C   0  0  0  0  0  0  0  0  0  0  0  0
    2.3307   -0.1595    0.8339 C   0  0  0  0  0  0  0  0  0  0  0  0
    4.5467   -0.9974    0.6838 N   0  0  0  0  0  0  0  0  0  0  0  0
    7.9702   -0.5739   -0.6784 C   0  0  0  0  0  0  0  0  0  0  0  0
    6.3948   -2.2826    0.8629 N   0  0  0  0  0  0  0  0  0  0  0  0
    9.7496   -2.0909   -0.3507 F   0  0  0  0  0  0  0  0  0  0  0  0
    1.4670    4.2752   -0.4254 N   0  0  0  0  0  0  0  0  0  0  0  0
   -0.2778    2.9219   -0.8551 O   0  0  0  0  0  0  0  0  0  0  0  0
   -2.1984    0.0163    0.9106 C   0  0  0  0  0  0  0  0  0  0  0  0
   -2.2767    0.2476    2.2507 O   0  0  0  0  0  0  0  0  0  0  0  0
   -2.3602   -0.9199    3.0609 C   0  0  0  0  0  0  0  0  0  0  0  0
   -5.1807    0.3920    1.3837 O   0  0  0  0  0  0  0  0  0  0  0  0
    6.1955    0.6163   -0.8171 H   0  0  0  0  0  0  0  0  0  0  0  0
    9.1421   -0.1747   -2.4273 H   0  0  0  0  0  0  0  0  0  0  0  0
    8.2935    1.2294   -1.7842 H   0  0  0  0  0  0  0  0  0  0  0  0
    9.7353    0.6148   -0.9757 H   0  0  0  0  0  0  0  0  0  0  0  0
    8.0593   -3.4867    1.0488 H   0  0  0  0  0  0  0  0  0  0  0  0
    0.2944    5.4692   -1.6923 H   0  0  0  0  0  0  0  0  0  0  0  0
   -0.0550    5.6683    0.0282 H   0  0  0  0  0  0  0  0  0  0  0  0
    1.4359    6.3250   -0.6549 H   0  0  0  0  0  0  0  0  0  0  0  0
    0.0826    0.1241   -1.5943 H   0  0  0  0  0  0  0  0  0  0  0  0
   -1.8521   -0.6592   -2.8673 H   0  0  0  0  0  0  0  0  0  0  0  0
   -4.0402   -1.0039   -1.7478 H   0  0  0  0  0  0  0  0  0  0  0  0
   -9.2857   -1.5650    1.1580 H   0  0  0  0  0  0  0  0  0  0  0  0
   -6.8624   -1.5640    1.9579 H   0  0  0  0  0  0  0  0  0  0  0  0
   -6.7845   -3.0414    1.0299 H   0  0  0  0  0  0  0  0  0  0  0  0
  -10.7841   -0.6257   -0.5936 H   0  0  0  0  0  0  0  0  0  0  0  0
   -7.3290   -0.1815   -3.0820 H   0  0  0  0  0  0  0  0  0  0  0  0
   -4.7394   -2.4599    0.1560 H   0  0  0  0  0  0  0  0  0  0  0  0
   -9.7740    0.0839   -2.7770 H   0  0  0  0  0  0  0  0  0  0  0  0
    3.4661    2.7519   -1.2839 H   0  0  0  0  0  0  0  0  0  0  0  0
    2.0488   -1.0202    1.4279 H   0  0  0  0  0  0  0  0  0  0  0  0
    4.1926   -1.7507    1.2550 H   0  0  0  0  0  0  0  0  0  0  0  0
    2.3777    4.3549   -0.0057 H   0  0  0  0  0  0  0  0  0  0  0  0
    0.0830    0.3594    2.0034 H   0  0  0  0  0  0  0  0  0  0  0  0
   -1.5036   -1.5805    2.9025 H   0  0  0  0  0  0  0  0  0  0  0  0
   -2.3635   -0.5883    4.0968 H   0  0  0  0  0  0  0  0  0  0  0  0
   -3.2735   -1.4890    2.8748 H   0  0  0  0  0  0  0  0  0  0  0  0
    0.0980    0.6906    1.0501 N   0  0  0  0  0  0  0  0  0  0  0  0
 22 19  1  0
 22 20  2  0
 19 16  2  0
 20 17  1  0
 16 15  1  0
 17 15  2  0
 15 18  1  0
 37 14  2  0
 18 21  1  0
 14 21  1  0
 14 11  1  0
 36 35  1  0
 11 10  2  0
 11 34  1  0
 10  9  1  0
 35 34  1  0
 34  7  2  0
  9  8  2  0
  7  8  1  0
  7 64  1  0
 33  2  2  0
 64 12  1  0
 12 27  1  0
 12 23  2  0
  2 23  1  0
  2 32  1  0
  4 30  1  0
  4  5  2  0
 31  5  1  0
 27 26  2  0
 23 24  1  0
 30 13  2  0
  5 29  1  0
 32  6  1  0
 26 28  1  0
 26 25  1  0
 29  3  1  0
 29  1  2  0
 13 28  1  0
 13  1  1  0
 24 25  2  0
  1 38  1  0
  3 39  1  0
  3 40  1  0
  3 41  1  0
  4 42  1  0
  6 43  1  0
  6 44  1  0
  6 45  1  0
  8 46  1  0
  9 47  1  0
 10 48  1  0
 16 49  1  0
 18 50  1  0
 18 51  1  0
 19 52  1  0
 20 53  1  0
 21 54  1  0
 22 55  1  0
 24 56  1  0
 27 57  1  0
 28 58  1  0
 32 59  1  0
 64 60  1  0
 36 61  1  0
 36 62  1  0
 36 63  1  0
M  END
