
     RDKit          3D

 61 63  0  0  0  0  0  0  0  0999 V2000
    0.6407    1.3205    1.2365 C   0  0  0  0  0  0  0  0  0  0  0  0
    0.2302   -0.0332    0.6497 C   0  0  1  0  0  0  0  0  0  0  0  0
   -1.1614    0.2402    0.0261 C   0  0  2  0  0  0  0  0  0  0  0  0
   -1.3923    1.7389    0.2647 C   0  0  0  0  0  0  0  0  0  0  0  0
   -2.2303   -0.6376    0.6376 C   0  0  0  0  0  0  0  0  0  0  0  0
   -0.0419    2.2595    0.3673 N   0  0  0  0  0  0  0  0  0  0  0  0
    1.1936   -0.5153   -0.4287 C   0  0  0  0  0  0  0  0  0  0  0  0
    2.4958   -0.9094    0.0978 N   0  0  0  0  0  0  0  0  0  0  0  0
    2.5498   -2.0071    1.0571 C   0  0  0  0  0  0  0  0  0  0  0  0
    1.9785   -3.3253    0.5366 C   0  0  1  0  0  0  0  0  0  0  0  0
    2.7086   -3.8207   -0.7051 C   0  0  0  0  0  0  0  0  0  0  0  0
    2.0242   -4.3607    1.6551 C   0  0  0  0  0  0  0  0  0  0  0  0
    3.8332   -0.4070   -0.7090 S   0  0  1  0  0  0  0  0  0  0  0  0
    4.9806   -1.1096   -0.1528 O   0  0  0  0  0  0  0  0  0  0  0  0
    3.6075   -0.4632   -2.1480 O   0  0  0  0  0  0  0  0  0  0  0  0
    3.9671    1.3043   -0.2646 C   0  0  0  0  0  0  0  0  0  0  0  0
    4.5452    1.6280    0.9580 C   0  0  0  0  0  0  0  0  0  0  0  0
    4.5932    2.9560    1.3475 C   0  0  0  0  0  0  0  0  0  0  0  0
    4.0628    3.9448    0.5260 C   0  0  0  0  0  0  0  0  0  0  0  0
    3.4924    3.6088   -0.6925 C   0  0  0  0  0  0  0  0  0  0  0  0
    3.4440    2.2818   -1.0978 C   0  0  0  0  0  0  0  0  0  0  0  0
   -3.4723   -0.3197    0.0595 O   0  0  0  0  0  0  0  0  0  0  0  0
   -4.5454   -1.0098    0.6462 C   0  0  0  0  0  0  0  0  0  0  0  0
   -5.8428   -0.4737    0.1111 C   0  0  0  0  0  0  0  0  0  0  0  0
   -6.8756   -1.3392   -0.2337 C   0  0  0  0  0  0  0  0  0  0  0  0
   -8.0937   -0.8471   -0.6868 C   0  0  0  0  0  0  0  0  0  0  0  0
   -8.2879    0.5213   -0.8088 C   0  0  0  0  0  0  0  0  0  0  0  0
   -7.2585    1.3931   -0.4726 C   0  0  0  0  0  0  0  0  0  0  0  0
   -6.0453    0.8998   -0.0150 C   0  0  0  0  0  0  0  0  0  0  0  0
    0.3069    1.3839    2.2835 H   0  0  0  0  0  0  0  0  0  0  0  0
    1.7201    1.4802    1.2276 H   0  0  0  0  0  0  0  0  0  0  0  0
    0.1505   -0.7847    1.4402 H   0  0  0  0  0  0  0  0  0  0  0  0
   -1.1231    0.0457   -1.0517 H   0  0  0  0  0  0  0  0  0  0  0  0
   -1.9443    2.2167   -0.5462 H   0  0  0  0  0  0  0  0  0  0  0  0
   -1.9771    1.8781    1.1892 H   0  0  0  0  0  0  0  0  0  0  0  0
   -1.9876   -1.6990    0.4794 H   0  0  0  0  0  0  0  0  0  0  0  0
   -2.2594   -0.4774    1.7270 H   0  0  0  0  0  0  0  0  0  0  0  0
   -0.0197    3.2030    0.7304 H   0  0  0  0  0  0  0  0  0  0  0  0
    0.7479   -1.3506   -0.9792 H   0  0  0  0  0  0  0  0  0  0  0  0
    1.3179    0.2922   -1.1522 H   0  0  0  0  0  0  0  0  0  0  0  0
    3.5830   -2.1530    1.3686 H   0  0  0  0  0  0  0  0  0  0  0  0
    2.0052   -1.6997    1.9537 H   0  0  0  0  0  0  0  0  0  0  0  0
    0.9249   -3.1706    0.2760 H   0  0  0  0  0  0  0  0  0  0  0  0
    3.7642   -4.0037   -0.4929 H   0  0  0  0  0  0  0  0  0  0  0  0
    2.2735   -4.7572   -1.0562 H   0  0  0  0  0  0  0  0  0  0  0  0
    2.6541   -3.1090   -1.5302 H   0  0  0  0  0  0  0  0  0  0  0  0
    1.4885   -4.0175    2.5422 H   0  0  0  0  0  0  0  0  0  0  0  0
    1.5672   -5.2979    1.3357 H   0  0  0  0  0  0  0  0  0  0  0  0
    3.0532   -4.5778    1.9506 H   0  0  0  0  0  0  0  0  0  0  0  0
    4.9539    0.8600    1.6012 H   0  0  0  0  0  0  0  0  0  0  0  0
    5.0440    3.2205    2.2944 H   0  0  0  0  0  0  0  0  0  0  0  0
    4.0997    4.9802    0.8377 H   0  0  0  0  0  0  0  0  0  0  0  0
    3.0843    4.3784   -1.3337 H   0  0  0  0  0  0  0  0  0  0  0  0
    3.0038    2.0222   -2.0505 H   0  0  0  0  0  0  0  0  0  0  0  0
   -4.4761   -2.0896    0.4540 H   0  0  0  0  0  0  0  0  0  0  0  0
   -4.5231   -0.8877    1.7395 H   0  0  0  0  0  0  0  0  0  0  0  0
   -6.7278   -2.4098   -0.1512 H   0  0  0  0  0  0  0  0  0  0  0  0
   -8.8867   -1.5348   -0.9513 H   0  0  0  0  0  0  0  0  0  0  0  0
   -9.2333    0.9078   -1.1665 H   0  0  0  0  0  0  0  0  0  0  0  0
   -7.4029    2.4619   -0.5663 H   0  0  0  0  0  0  0  0  0  0  0  0
   -5.2523    1.5897    0.2455 H   0  0  0  0  0  0  0  0  0  0  0  0
  1  2  1  0
  1  6  1  0
  2  3  1  0
  2  7  1  0
  3  4  1  0
  3  5  1  0
  4  6  1  0
  5 22  1  0
  7  8  1  0
  8  9  1  0
 13  8  1  1
  9 10  1  0
 10 11  1  0
 10 12  1  0
 13 14  2  0
 13 15  2  0
 13 16  1  0
 16 17  2  0
 16 21  1  0
 17 18  1  0
 18 19  2  0
 19 20  1  0
 20 21  2  0
 22 23  1  0
 23 24  1  0
 24 25  2  0
 24 29  1  0
 25 26  1  0
 26 27  2  0
 27 28  1  0
 28 29  2  0
  1 30  1  0
  1 31  1  0
  2 32  1  1
  3 33  1  6
  4 34  1  0
  4 35  1  0
  5 36  1  0
  5 37  1  0
  6 38  1  0
  7 39  1  0
  7 40  1  0
  9 41  1  0
  9 42  1  0
 10 43  1  6
 11 44  1  0
 11 45  1  0
 11 46  1  0
 12 47  1  0
 12 48  1  0
 12 49  1  0
 17 50  1  0
 18 51  1  0
 19 52  1  0
 20 53  1  0
 21 54  1  0
 23 55  1  0
 23 56  1  0
 25 57  1  0
 26 58  1  0
 27 59  1  0
 28 60  1  0
 29 61  1  0
M  END
