
     RDKit          3D

 33 34  0  0  0  0  0  0  0  0999 V2000
   -4.5957    0.1744    0.1029 C   0  0  0  0  0  0  0  0  0  0  0  0
   -6.6505    1.2132    1.3969 N   0  0  0  0  0  0  0  0  0  0  0  0
   -7.0781    0.1035   -0.7777 O   0  0  0  0  0  0  0  0  0  0  0  0
   -6.3037   -0.0902    0.4408 S   0  0  1  0  0  0  0  0  0  0  0  0
   -3.6306   -0.6497    0.6571 C   0  0  0  0  0  0  0  0  0  0  0  0
   -6.4348   -1.3592    1.1451 O   0  0  0  0  0  0  0  0  0  0  0  0
   -2.2880   -0.4447    0.3794 C   0  0  0  0  0  0  0  0  0  0  0  0
   -1.9044    0.6002   -0.4641 C   0  0  0  0  0  0  0  0  0  0  0  0
   -2.8948    1.4215   -1.0217 C   0  0  0  0  0  0  0  0  0  0  0  0
   -4.2270    1.2138   -0.7451 C   0  0  0  0  0  0  0  0  0  0  0  0
   -0.5958    0.8957   -0.8142 N   0  0  0  0  0  0  0  0  0  0  0  0
    0.5575    0.3399   -0.3327 C   0  0  0  0  0  0  0  0  0  0  0  0
    0.6101   -0.5657    0.4744 O   0  0  0  0  0  0  0  0  0  0  0  0
    1.6842    0.9103   -0.8677 N   0  0  0  0  0  0  0  0  0  0  0  0
    2.9494    0.4725   -0.4769 C   0  0  0  0  0  0  0  0  0  0  0  0
    3.3980   -0.8012   -0.8005 C   0  0  0  0  0  0  0  0  0  0  0  0
    2.6212   -1.6128   -1.5032 F   0  0  0  0  0  0  0  0  0  0  0  0
    4.6496   -1.2395   -0.4145 C   0  0  0  0  0  0  0  0  0  0  0  0
    5.0600   -2.4623   -0.7302 F   0  0  0  0  0  0  0  0  0  0  0  0
    5.4880   -0.3906    0.2848 C   0  0  0  0  0  0  0  0  0  0  0  0
    6.6949   -0.8010    0.6463 F   0  0  0  0  0  0  0  0  0  0  0  0
    5.0683    0.8865    0.6054 C   0  0  0  0  0  0  0  0  0  0  0  0
    5.8720    1.6972    1.2834 F   0  0  0  0  0  0  0  0  0  0  0  0
    3.8035    1.3025    0.2354 C   0  0  0  0  0  0  0  0  0  0  0  0
    3.4032    2.5229    0.5685 F   0  0  0  0  0  0  0  0  0  0  0  0
   -7.6508    1.3863    1.4380 H   0  0  0  0  0  0  0  0  0  0  0  0
   -3.9065   -1.4669    1.3094 H   0  0  0  0  0  0  0  0  0  0  0  0
   -1.5598   -1.1045    0.8192 H   0  0  0  0  0  0  0  0  0  0  0  0
   -2.6122    2.2350   -1.6785 H   0  0  0  0  0  0  0  0  0  0  0  0
   -4.9671    1.8658   -1.1894 H   0  0  0  0  0  0  0  0  0  0  0  0
   -0.4988    1.6430   -1.4853 H   0  0  0  0  0  0  0  0  0  0  0  0
    1.6251    1.7506   -1.4245 H   0  0  0  0  0  0  0  0  0  0  0  0
   -6.2721    1.1228    2.3343 H   0  0  0  0  0  0  0  0  0  0  0  0
 10  1  2  0
  5  1  1  0
  1  4  1  0
  2 26  1  0
  4  2  1  1
  2 33  1  0
  4  3  2  0
  6  4  2  0
  7  5  2  0
  5 27  1  0
  8  7  1  0
 28  7  1  0
 11  8  1  0
  8  9  2  0
 29  9  1  0
  9 10  1  0
 10 30  1  0
 12 11  1  0
 11 31  1  0
 14 12  1  0
 13 12  2  0
 32 14  1  0
 14 15  1  0
 24 15  1  0
 15 16  2  0
 16 18  1  0
 16 17  1  0
 20 18  2  0
 18 19  1  0
 22 20  1  0
 20 21  1  0
 23 22  1  0
 24 22  2  0
 25 24  1  0
M  END
