
     RDKit          3D

 61 64  0  0  0  0  0  0  0  0999 V2000
   -1.0153    4.4848    2.7471 C   0  0  0  0  0  0  0  0  0  0  0  0
    1.2429   -6.6281   -0.8059 C   0  0  0  0  0  0  0  0  0  0  0  0
   -5.2565   -1.2807   -2.4057 C   0  0  0  0  0  0  0  0  0  0  0  0
    2.7092   -2.8356    2.3063 C   0  0  0  0  0  0  0  0  0  0  0  0
    6.1586    4.0976   -0.9169 C   0  0  0  0  0  0  0  0  0  0  0  0
    4.9641    4.6232   -1.2869 C   0  0  0  0  0  0  0  0  0  0  0  0
    5.8764    2.8019   -0.4064 C   0  0  0  0  0  0  0  0  0  0  0  0
   -5.0792    1.9025   -0.2638 C   0  0  0  0  0  0  0  0  0  0  0  0
   -4.1763    2.6141    0.5023 C   0  0  0  0  0  0  0  0  0  0  0  0
    0.0306    1.2769   -0.1549 C   0  0  0  0  0  0  0  0  0  0  0  0
    1.5145   -0.5868    0.2023 C   0  0  0  0  0  0  0  0  0  0  0  0
   -0.8719   -0.8731    0.4090 C   0  0  0  0  0  0  0  0  0  0  0  0
   -3.3846    0.2942   -0.7729 C   0  0  0  0  0  0  0  0  0  0  0  0
   -2.2567    4.0104    2.0318 C   0  0  0  0  0  0  0  0  0  0  0  0
    0.2589   -6.3761    0.3252 C   0  0  0  0  0  0  0  0  0  0  0  0
    3.6905    1.4983   -0.1330 C   0  0  0  0  0  0  0  0  0  0  0  0
    1.3235    0.7609   -0.0949 C   0  0  0  0  0  0  0  0  0  0  0  0
   -4.7032    0.7280   -0.9123 C   0  0  0  0  0  0  0  0  0  0  0  0
   -1.0716    0.4671    0.0922 C   0  0  0  0  0  0  0  0  0  0  0  0
    0.4153   -1.4020    0.4653 C   0  0  0  0  0  0  0  0  0  0  0  0
    1.5826   -3.3910    1.5259 C   0  0  0  0  0  0  0  0  0  0  0  0
   -2.8610    2.1644    0.6395 C   0  0  0  0  0  0  0  0  0  0  0  0
    4.5305    2.6423   -0.5065 C   0  0  0  0  0  0  0  0  0  0  0  0
   -2.4521    0.9892   -0.0189 C   0  0  0  0  0  0  0  0  0  0  0  0
    0.6115   -2.8139    0.7827 C   0  0  0  0  0  0  0  0  0  0  0  0
   -0.2113   -3.9015    0.2778 C   0  0  0  0  0  0  0  0  0  0  0  0
    0.3114   -5.0318    0.8515 N   0  0  0  0  0  0  0  0  0  0  0  0
   -6.8402    0.3874   -1.8241 O   0  0  0  0  0  0  0  0  0  0  0  0
    4.1999    0.5068    0.3625 O   0  0  0  0  0  0  0  0  0  0  0  0
   -1.1690   -3.8959   -0.4813 O   0  0  0  0  0  0  0  0  0  0  0  0
   -1.9428    2.7794    1.3861 O   0  0  0  0  0  0  0  0  0  0  0  0
    3.9726    3.7509   -1.0423 O   0  0  0  0  0  0  0  0  0  0  0  0
    1.4523   -4.7258    1.5540 O   0  0  0  0  0  0  0  0  0  0  0  0
   -0.1865    4.6228    2.0527 H   0  0  0  0  0  0  0  0  0  0  0  0
   -1.2187    5.4432    3.2234 H   0  0  0  0  0  0  0  0  0  0  0  0
   -0.7075    3.7841    3.5231 H   0  0  0  0  0  0  0  0  0  0  0  0
    2.2744   -6.5028   -0.4779 H   0  0  0  0  0  0  0  0  0  0  0  0
    1.1298   -7.6500   -1.1666 H   0  0  0  0  0  0  0  0  0  0  0  0
    1.0604   -5.9549   -1.6436 H   0  0  0  0  0  0  0  0  0  0  0  0
   -4.4397   -1.0861   -3.1030 H   0  0  0  0  0  0  0  0  0  0  0  0
   -4.8904   -2.0076   -1.6787 H   0  0  0  0  0  0  0  0  0  0  0  0
   -6.0847   -1.7237   -2.9533 H   0  0  0  0  0  0  0  0  0  0  0  0
    2.8755   -3.4109    3.2163 H   0  0  0  0  0  0  0  0  0  0  0  0
    3.6334   -2.8551    1.7260 H   0  0  0  0  0  0  0  0  0  0  0  0
    2.5064   -1.8026    2.5798 H   0  0  0  0  0  0  0  0  0  0  0  0
    4.6810    5.5679   -1.7216 H   0  0  0  0  0  0  0  0  0  0  0  0
    6.5797    2.0827   -0.0196 H   0  0  0  0  0  0  0  0  0  0  0  0
   -6.0929    2.2691   -0.3537 H   0  0  0  0  0  0  0  0  0  0  0  0
   -4.5088    3.5161    0.9965 H   0  0  0  0  0  0  0  0  0  0  0  0
   -0.1107    2.3183   -0.4151 H   0  0  0  0  0  0  0  0  0  0  0  0
    2.5043   -1.0119    0.2030 H   0  0  0  0  0  0  0  0  0  0  0  0
   -1.7230   -1.5036    0.6287 H   0  0  0  0  0  0  0  0  0  0  0  0
   -3.0539   -0.6071   -1.2736 H   0  0  0  0  0  0  0  0  0  0  0  0
   -3.0790    3.8651    2.7392 H   0  0  0  0  0  0  0  0  0  0  0  0
   -2.5787    4.7485    1.2909 H   0  0  0  0  0  0  0  0  0  0  0  0
   -0.7665   -6.5153   -0.0143 H   0  0  0  0  0  0  0  0  0  0  0  0
    0.4125   -7.0710    1.1509 H   0  0  0  0  0  0  0  0  0  0  0  0
   -5.6979   -0.0153   -1.7218 C   0  0  0  0  0  0  0  0  0  0  0  0
    2.3653    1.6486   -0.3829 N   0  0  0  0  0  0  0  0  0  0  0  0
    7.1209    4.5748   -1.0007 H   0  0  0  0  0  0  0  0  0  0  0  0
    2.0686    2.5374   -0.7584 H   0  0  0  0  0  0  0  0  0  0  0  0
  5  7  1  0
  5  6  2  0
  7 23  2  0
  6 32  1  0
  2 15  1  0
 23 32  1  0
 23 16  1  0
 15 27  1  0
 27 33  1  0
 27 26  1  0
 33 21  1  0
 59 16  1  0
 59 17  1  0
 16 29  2  0
 26 30  2  0
 26 25  1  0
 11 17  1  0
 11 20  2  0
 21 25  2  0
 21  4  1  0
 25 20  1  0
 17 10  2  0
 20 12  1  0
 10 19  1  0
 12 19  2  0
  3 58  1  0
 19 24  1  0
 13 24  2  0
 13 18  1  0
 24 22  1  0
 58 18  1  0
 58 28  2  0
 18  8  2  0
 22 31  1  0
 22  9  2  0
 31 14  1  0
  8  9  1  0
 14  1  1  0
  1 34  1  0
  1 35  1  0
  1 36  1  0
  2 37  1  0
  2 38  1  0
  2 39  1  0
  3 40  1  0
  3 41  1  0
  3 42  1  0
  4 43  1  0
  4 44  1  0
  4 45  1  0
  5 60  1  0
  6 46  1  0
  7 47  1  0
  8 48  1  0
  9 49  1  0
 10 50  1  0
 11 51  1  0
 12 52  1  0
 13 53  1  0
 14 54  1  0
 14 55  1  0
 15 56  1  0
 15 57  1  0
 59 61  1  0
M  END
