
     RDKit          3D

 70 72  0  0  0  0  0  0  0  0999 V2000
   -1.1475    0.2865    0.3054 O   0  0  0  0  0  0  0  0  0  0  0  0
   -2.1580   -0.2923   -0.0483 C   0  0  0  0  0  0  0  0  0  0  0  0
   -3.3327    0.3033   -0.3557 N   0  0  0  0  0  0  0  0  0  0  0  0
   -3.6578    1.6557   -0.3781 C   0  0  0  0  0  0  0  0  0  0  0  0
   -4.9954    1.9788   -0.6326 C   0  0  0  0  0  0  0  0  0  0  0  0
   -5.4060    3.2939   -0.6985 C   0  0  0  0  0  0  0  0  0  0  0  0
   -4.4975    4.3373   -0.5255 C   0  0  0  0  0  0  0  0  0  0  0  0
   -4.9644    5.7458   -0.6089 C   0  0  0  0  0  0  0  0  0  0  0  0
   -3.9947    6.6665   -0.8916 N   0  0  0  0  0  0  0  0  0  0  0  0
   -6.1944    6.0004   -0.3709 N   0  0  0  0  0  0  0  0  0  0  0  0
   -3.1713    4.0092   -0.2622 C   0  0  0  0  0  0  0  0  0  0  0  0
   -2.7442    2.6918   -0.1836 C   0  0  0  0  0  0  0  0  0  0  0  0
   -2.2036   -1.7857   -0.1923 C   0  0  0  0  0  0  0  0  0  0  0  0
   -3.3915   -2.2989   -0.5227 N   0  0  0  0  0  0  0  0  0  0  0  0
   -3.5262   -3.5919   -0.6753 C   0  0  0  0  0  0  0  0  0  0  0  0
   -4.7077   -4.1089   -1.0011 O   0  0  0  0  0  0  0  0  0  0  0  0
   -5.8096   -3.2239   -1.1550 C   0  0  0  0  0  0  0  0  0  0  0  0
   -2.4509   -4.4777   -0.5162 C   0  0  0  0  0  0  0  0  0  0  0  0
   -1.2335   -3.9449   -0.1777 C   0  0  0  0  0  0  0  0  0  0  0  0
   -1.0786   -2.5643    0.0060 C   0  0  0  0  0  0  0  0  0  0  0  0
    0.2727   -2.0460    0.3328 C   0  0  0  0  0  0  0  0  0  0  0  0
    1.1601   -1.8630   -0.7203 C   0  0  0  0  0  0  0  0  0  0  0  0
    2.4584   -1.4343   -0.4997 C   0  0  0  0  0  0  0  0  0  0  0  0
    0.7199   -1.8101    1.6396 C   0  0  0  0  0  0  0  0  0  0  0  0
   -0.2033   -1.9882    2.7905 C   0  0  0  0  0  0  0  0  0  0  0  0
   -1.2905   -2.5047    2.7199 O   0  0  0  0  0  0  0  0  0  0  0  0
    0.2973   -1.5130    3.9247 O   0  0  0  0  0  0  0  0  0  0  0  0
    2.0318   -1.4040    1.8549 C   0  0  0  0  0  0  0  0  0  0  0  0
    2.9052   -1.1992    0.7955 C   0  0  0  0  0  0  0  0  0  0  0  0
    4.3106   -0.7902    1.1046 C   0  0  0  0  0  0  0  0  0  0  0  0
    4.8516   -1.1589    2.1382 O   0  0  0  0  0  0  0  0  0  0  0  0
    4.9003   -0.0133    0.1816 N   0  0  0  0  0  0  0  0  0  0  0  0
    6.2530    0.4977    0.2931 C   0  0  2  0  0  0  0  0  0  0  0  0
    6.1975    2.0186    0.3816 C   0  0  0  0  0  0  0  0  0  0  0  0
    5.5158    2.5511   -0.7318 O   0  0  0  0  0  0  0  0  0  0  0  0
    7.1921   -0.1209   -0.7759 C   0  0  1  0  0  0  0  0  0  0  0  0
    8.6145    0.3968   -0.5535 C   0  0  0  0  0  0  0  0  0  0  0  0
    7.1974   -1.6407   -0.5815 C   0  0  0  0  0  0  0  0  0  0  0  0
    6.7603    0.1870   -2.2111 C   0  0  0  0  0  0  0  0  0  0  0  0
   -4.0723   -0.3463   -0.5959 H   0  0  0  0  0  0  0  0  0  0  0  0
   -5.7210    1.1875   -0.7810 H   0  0  0  0  0  0  0  0  0  0  0  0
   -6.4453    3.5179   -0.8965 H   0  0  0  0  0  0  0  0  0  0  0  0
   -3.2088    6.3762   -1.4503 H   0  0  0  0  0  0  0  0  0  0  0  0
   -4.3002    7.6054   -1.0935 H   0  0  0  0  0  0  0  0  0  0  0  0
   -6.3944    6.9899   -0.4920 H   0  0  0  0  0  0  0  0  0  0  0  0
   -2.4362    4.7856   -0.0929 H   0  0  0  0  0  0  0  0  0  0  0  0
   -1.7070    2.4897    0.0253 H   0  0  0  0  0  0  0  0  0  0  0  0
   -6.0423   -2.7057   -0.2237 H   0  0  0  0  0  0  0  0  0  0  0  0
   -5.6288   -2.4837   -1.9356 H   0  0  0  0  0  0  0  0  0  0  0  0
   -6.6536   -3.8469   -1.4385 H   0  0  0  0  0  0  0  0  0  0  0  0
   -2.5836   -5.5416   -0.6567 H   0  0  0  0  0  0  0  0  0  0  0  0
   -0.3811   -4.5990   -0.0472 H   0  0  0  0  0  0  0  0  0  0  0  0
    0.8286   -2.0595   -1.7314 H   0  0  0  0  0  0  0  0  0  0  0  0
    3.1231   -1.3198   -1.3468 H   0  0  0  0  0  0  0  0  0  0  0  0
   -0.3256   -1.6735    4.6491 H   0  0  0  0  0  0  0  0  0  0  0  0
    2.3891   -1.2356    2.8607 H   0  0  0  0  0  0  0  0  0  0  0  0
    4.3255    0.3849   -0.5445 H   0  0  0  0  0  0  0  0  0  0  0  0
    6.6334    0.1651    1.2621 H   0  0  0  0  0  0  0  0  0  0  0  0
    5.6819    2.2710    1.3159 H   0  0  0  0  0  0  0  0  0  0  0  0
    7.2138    2.4192    0.4681 H   0  0  0  0  0  0  0  0  0  0  0  0
    5.2796    3.4613   -0.5328 H   0  0  0  0  0  0  0  0  0  0  0  0
    8.9466    0.2312    0.4745 H   0  0  0  0  0  0  0  0  0  0  0  0
    9.3127   -0.1263   -1.2093 H   0  0  0  0  0  0  0  0  0  0  0  0
    8.7088    1.4621   -0.7674 H   0  0  0  0  0  0  0  0  0  0  0  0
    6.2203   -2.0799   -0.7909 H   0  0  0  0  0  0  0  0  0  0  0  0
    7.9160   -2.1046   -1.2602 H   0  0  0  0  0  0  0  0  0  0  0  0
    7.4789   -1.9137    0.4378 H   0  0  0  0  0  0  0  0  0  0  0  0
    6.8229    1.2487   -2.4426 H   0  0  0  0  0  0  0  0  0  0  0  0
    7.4070   -0.3453   -2.9119 H   0  0  0  0  0  0  0  0  0  0  0  0
    5.7388   -0.1437   -2.4099 H   0  0  0  0  0  0  0  0  0  0  0  0
 35 34  1  0
 34 33  1  0
 26 25  2  0
 36 38  1  6
 18 19  2  0
 18 15  1  0
 19 20  1  0
 33 32  1  0
 33 36  1  0
 32 30  1  0
 16 15  1  0
 16 17  1  0
 25 24  1  0
 25 27  1  0
 36 39  1  0
 36 37  1  0
 15 14  2  0
 24 28  2  0
 24 21  1  0
 20 21  1  0
 20 13  2  0
 28 29  1  0
 21 22  2  0
 29 30  1  0
 29 23  2  0
 30 31  2  0
 22 23  1  0
 14 13  1  0
 13  2  1  0
  2  3  1  0
  2  1  2  0
  3  4  1  0
 12  4  1  0
 12 11  2  0
  4  5  2  0
 11  7  1  0
  5  6  1  0
  7  6  2  0
  7  8  1  0
 10  8  2  0
  8  9  1  0
  3 40  1  0
  5 41  1  0
  6 42  1  0
  9 43  1  0
  9 44  1  0
 10 45  1  0
 11 46  1  0
 12 47  1  0
 17 48  1  0
 17 49  1  0
 17 50  1  0
 18 51  1  0
 19 52  1  0
 22 53  1  0
 23 54  1  0
 27 55  1  0
 28 56  1  0
 32 57  1  0
 33 58  1  1
 34 59  1  0
 34 60  1  0
 35 61  1  0
 37 62  1  0
 37 63  1  0
 37 64  1  0
 38 65  1  0
 38 66  1  0
 38 67  1  0
 39 68  1  0
 39 69  1  0
 39 70  1  0
M  END
