
     RDKit          3D

 29 29  0  0  0  0  0  0  0  0999 V2000
   -2.2924   -0.3277   -0.3661 C   0  0  0  0  0  0  0  0  0  0  0  0
   -2.0597   -0.7410   -1.5031 O   0  0  0  0  0  0  0  0  0  0  0  0
   -1.3865    0.4025    0.6134 C   0  0  2  0  0  0  0  0  0  0  0  0
   -0.9834    1.7815    0.0505 C   0  0  0  0  0  0  0  0  0  0  0  0
    0.5349    1.7533   -0.0671 C   0  0  0  0  0  0  0  0  0  0  0  0
    1.0025    0.4633    0.6508 C   0  0  2  0  0  0  0  0  0  0  0  0
    2.1732   -0.2920   -0.0416 C   0  0  1  0  0  0  0  0  0  0  0  0
    3.3426    0.6696   -0.2278 C   0  0  0  0  0  0  0  0  0  0  0  0
    2.6349   -1.4160    0.8786 C   0  0  0  0  0  0  0  0  0  0  0  0
    1.7885   -0.8992   -1.3824 C   0  0  0  0  0  0  0  0  0  0  0  0
   -0.1797   -0.3877    0.8385 N   0  0  0  0  0  0  0  0  0  0  0  0
   -1.9791    0.5296    1.5671 H   0  0  0  0  0  0  0  0  0  0  0  0
   -1.4583    1.9581   -0.9472 H   0  0  0  0  0  0  0  0  0  0  0  0
   -1.3220    2.5876    0.7456 H   0  0  0  0  0  0  0  0  0  0  0  0
    0.8353    1.7717   -1.1425 H   0  0  0  0  0  0  0  0  0  0  0  0
    0.9904    2.6460    0.4263 H   0  0  0  0  0  0  0  0  0  0  0  0
    1.4009    0.7621    1.6684 H   0  0  0  0  0  0  0  0  0  0  0  0
    3.4648    1.3162    0.6736 H   0  0  0  0  0  0  0  0  0  0  0  0
    4.2857    0.0896   -0.3752 H   0  0  0  0  0  0  0  0  0  0  0  0
    3.1913    1.3225   -1.1202 H   0  0  0  0  0  0  0  0  0  0  0  0
    1.8528   -2.2084    0.9555 H   0  0  0  0  0  0  0  0  0  0  0  0
    3.5664   -1.8814    0.4745 H   0  0  0  0  0  0  0  0  0  0  0  0
    2.8508   -1.0221    1.9002 H   0  0  0  0  0  0  0  0  0  0  0  0
    1.6577   -0.1071   -2.1590 H   0  0  0  0  0  0  0  0  0  0  0  0
    2.5962   -1.5888   -1.7283 H   0  0  0  0  0  0  0  0  0  0  0  0
    0.8366   -1.4785   -1.3064 H   0  0  0  0  0  0  0  0  0  0  0  0
   -3.5451   -0.5387    0.1250 O   0  0  0  0  0  0  0  0  0  0  0  0
   -4.0818   -1.0060   -0.5356 H   0  0  0  0  0  0  0  0  0  0  0  0
   -0.1873   -0.8111    1.7433 H   0  0  0  0  0  0  0  0  0  0  0  0
  1  2  2  0
  1  3  1  0
  3  4  1  0
  3 11  1  0
  4  5  1  0
  5  6  1  0
  6  7  1  0
  6 11  1  0
  7  8  1  6
  7  9  1  0
  7 10  1  0
  3 12  1  1
  4 13  1  0
  4 14  1  0
  5 15  1  0
  5 16  1  0
  6 17  1  1
  8 18  1  0
  8 19  1  0
  8 20  1  0
  9 21  1  0
  9 22  1  0
  9 23  1  0
 10 24  1  0
 10 25  1  0
 10 26  1  0
  1 27  1  0
 27 28  1  0
 11 29  1  0
M  END
