
     RDKit          3D

 31 32  0  0  0  0  0  0  0  0999 V2000
    1.3150   -2.7756    0.1276 C   0  0  0  0  0  0  0  0  0  0  0  0
    2.6959   -2.6630    0.0346 C   0  0  0  0  0  0  0  0  0  0  0  0
    2.4881   -0.2507    0.2201 C   0  0  0  0  0  0  0  0  0  0  0  0
    0.5237   -1.6494    0.2632 C   0  0  0  0  0  0  0  0  0  0  0  0
    4.6366    1.1610    0.0917 C   0  0  0  0  0  0  0  0  0  0  0  0
    2.4805    2.0773    0.4459 O   0  0  0  0  0  0  0  0  0  0  0  0
    3.1447    1.0735    0.2670 C   0  0  0  0  0  0  0  0  0  0  0  0
   -3.4293   -0.3103    1.9387 C   0  0  0  0  0  0  0  0  0  0  0  0
   -4.2106   -0.4921    0.8086 C   0  0  0  0  0  0  0  0  0  0  0  0
   -3.6809   -0.2324   -0.4460 C   0  0  0  0  0  0  0  0  0  0  0  0
   -2.3593    0.1860   -0.5902 C   0  0  0  0  0  0  0  0  0  0  0  0
   -1.8081    0.3830   -1.9589 C   0  0  0  0  0  0  0  0  0  0  0  0
    3.2642   -1.4061    0.0803 C   0  0  0  0  0  0  0  0  0  0  0  0
    1.0865   -0.3743    0.3156 C   0  0  0  0  0  0  0  0  0  0  0  0
   -1.5671    0.3588    0.5529 C   0  0  0  0  0  0  0  0  0  0  0  0
   -2.1187    0.1254    1.8076 C   0  0  0  0  0  0  0  0  0  0  0  0
   -2.7256    0.8371   -2.8035 O   0  0  0  0  0  0  0  0  0  0  0  0
   -0.6718    0.1435   -2.2761 O   0  0  0  0  0  0  0  0  0  0  0  0
    0.0693    1.0592    0.5099 S   0  0  0  0  0  0  0  0  0  0  0  0
    0.8434   -3.7492    0.0926 H   0  0  0  0  0  0  0  0  0  0  0  0
    3.3181   -3.5406   -0.0730 H   0  0  0  0  0  0  0  0  0  0  0  0
   -0.5466   -1.7769    0.3322 H   0  0  0  0  0  0  0  0  0  0  0  0
    5.1551    0.6446    0.9015 H   0  0  0  0  0  0  0  0  0  0  0  0
    4.9548    0.6976   -0.8427 H   0  0  0  0  0  0  0  0  0  0  0  0
    4.9471    2.2033    0.0916 H   0  0  0  0  0  0  0  0  0  0  0  0
   -3.8369   -0.5008    2.9225 H   0  0  0  0  0  0  0  0  0  0  0  0
   -5.2339   -0.8304    0.8994 H   0  0  0  0  0  0  0  0  0  0  0  0
   -4.3028   -0.3750   -1.3190 H   0  0  0  0  0  0  0  0  0  0  0  0
    4.3392   -1.3194    0.0072 H   0  0  0  0  0  0  0  0  0  0  0  0
   -1.5124    0.2845    2.6896 H   0  0  0  0  0  0  0  0  0  0  0  0
   -2.3518    0.8968   -3.6957 H   0  0  0  0  0  0  0  0  0  0  0  0
  5  7  1  0
  7  6  2  0
  7  3  1  0
  3 13  2  0
  3 14  1  0
 13  2  1  0
 19 14  1  0
 19 15  1  0
 14  4  2  0
  2  1  2  0
  4  1  1  0
 16 15  1  0
 16  8  2  0
 15 11  2  0
 18 12  2  0
  8  9  1  0
 11 12  1  0
 11 10  1  0
 12 17  1  0
  9 10  2  0
  1 20  1  0
  2 21  1  0
  4 22  1  0
  5 23  1  0
  5 24  1  0
  5 25  1  0
  8 26  1  0
  9 27  1  0
 10 28  1  0
 13 29  1  0
 16 30  1  0
 17 31  1  0
M  END
