
     RDKit          3D

 20 20  0  0  0  0  0  0  0  0999 V2000
   -0.4235    0.2354    2.9446 C   0  0  0  0  0  0  0  0  0  0  0  0
    0.0154   -0.9533    2.1236 C   0  0  0  0  0  0  0  0  0  0  0  0
    0.5235   -0.5484    0.7736 C   0  0  0  0  0  0  0  0  0  0  0  0
   -0.3459   -0.4614   -0.3040 C   0  0  0  0  0  0  0  0  0  0  0  0
    0.1424   -0.0718   -1.5423 C   0  0  0  0  0  0  0  0  0  0  0  0
   -0.7796    0.0163   -2.6663 N   0  0  0  0  0  0  0  0  0  0  0  0
   -0.3363    0.3453   -3.7408 O   0  0  0  0  0  0  0  0  0  0  0  0
   -1.9434   -0.2426   -2.4691 O   0  0  0  0  0  0  0  0  0  0  0  0
    1.4797    0.2359   -1.7422 C   0  0  0  0  0  0  0  0  0  0  0  0
    2.3412    0.1453   -0.6619 C   0  0  0  0  0  0  0  0  0  0  0  0
    1.8674   -0.2424    0.5830 C   0  0  0  0  0  0  0  0  0  0  0  0
   -0.3815    1.3805    2.5761 O   0  0  0  0  0  0  0  0  0  0  0  0
   -0.8661   -0.1403    4.1372 O   0  0  0  0  0  0  0  0  0  0  0  0
    0.7852   -1.4916    2.6833 H   0  0  0  0  0  0  0  0  0  0  0  0
   -0.8280   -1.6432    2.0352 H   0  0  0  0  0  0  0  0  0  0  0  0
   -1.3922   -0.6995   -0.1708 H   0  0  0  0  0  0  0  0  0  0  0  0
    1.8508    0.5368   -2.7104 H   0  0  0  0  0  0  0  0  0  0  0  0
    3.3887    0.3765   -0.7946 H   0  0  0  0  0  0  0  0  0  0  0  0
    2.5552   -0.3107    1.4167 H   0  0  0  0  0  0  0  0  0  0  0  0
   -1.1422    0.6340    4.6506 H   0  0  0  0  0  0  0  0  0  0  0  0
  1  2  1  0
  1 12  2  0
  1 13  1  0
  2  3  1  0
  2 14  1  0
  2 15  1  0
  3  4  2  0
  3 11  1  0
  4  5  1  0
  4 16  1  0
  5  6  1  0
  5  9  2  0
  6  7  1  0
  6  8  2  0
  9 10  1  0
  9 17  1  0
 10 11  2  0
 10 18  1  0
 11 19  1  0
 13 20  1  0
M  CHG  2   6   1   7  -1
M  END
