
     RDKit          3D

 40 41  0  0  0  0  0  0  0  0999 V2000
    1.4956   -1.4204    1.1652 O   0  0  0  0  0  0  0  0  0  0  0  0
    2.3682   -0.6845    0.7452 C   0  0  0  0  0  0  0  0  0  0  0  0
    3.6527   -1.0409    0.5904 N   0  0  0  0  0  0  0  0  0  0  0  0
    4.0891   -2.2387    1.0482 O   0  0  0  0  0  0  0  0  0  0  0  0
    4.0328   -3.2421    0.0337 C   0  0  0  0  0  0  0  0  0  0  0  0
    4.6080   -4.5188    0.6225 C   0  0  2  0  0  0  0  0  0  0  0  0
    4.6628   -5.5885   -0.4573 C   0  0  0  0  0  0  0  0  0  0  0  0
    5.2964   -6.7283    0.0677 O   0  0  0  0  0  0  0  0  0  0  0  0
    3.9098   -4.9392    1.7689 O   0  0  0  0  0  0  0  0  0  0  0  0
    2.1064    0.7380    0.3540 C   0  0  0  0  0  0  0  0  0  0  0  0
    2.8668    1.7477    0.9304 C   0  0  0  0  0  0  0  0  0  0  0  0
    2.5731    3.0790    0.6854 C   0  0  0  0  0  0  0  0  0  0  0  0
    3.5517    4.4561    1.4880 Br  0  0  0  0  0  0  0  0  0  0  0  0
    1.5315    3.3916   -0.1696 C   0  0  0  0  0  0  0  0  0  0  0  0
    1.2322    4.6528   -0.4488 F   0  0  0  0  0  0  0  0  0  0  0  0
    0.8037    2.3866   -0.7761 C   0  0  0  0  0  0  0  0  0  0  0  0
   -0.1476    2.7258   -1.6429 F   0  0  0  0  0  0  0  0  0  0  0  0
    1.0505    1.0426   -0.5144 C   0  0  0  0  0  0  0  0  0  0  0  0
    0.3222    0.0694   -1.1756 N   0  0  0  0  0  0  0  0  0  0  0  0
   -1.0625   -0.0046   -1.1538 C   0  0  0  0  0  0  0  0  0  0  0  0
   -1.7129   -0.8390   -2.0619 C   0  0  0  0  0  0  0  0  0  0  0  0
   -0.9577   -1.5523   -2.9114 F   0  0  0  0  0  0  0  0  0  0  0  0
   -1.8629    0.7109   -0.2673 C   0  0  0  0  0  0  0  0  0  0  0  0
   -3.2462    0.6155   -0.3078 C   0  0  0  0  0  0  0  0  0  0  0  0
   -3.8502   -0.2223   -1.2310 C   0  0  0  0  0  0  0  0  0  0  0  0
   -5.9423   -0.3791   -1.2973 I   0  0  0  0  0  0  0  0  0  0  0  0
   -3.0822   -0.9689   -2.1152 C   0  0  0  0  0  0  0  0  0  0  0  0
    4.3553   -0.4376    0.1828 H   0  0  0  0  0  0  0  0  0  0  0  0
    4.6209   -2.9312   -0.8355 H   0  0  0  0  0  0  0  0  0  0  0  0
    2.9978   -3.3957   -0.2914 H   0  0  0  0  0  0  0  0  0  0  0  0
    5.6311   -4.3143    0.9562 H   0  0  0  0  0  0  0  0  0  0  0  0
    5.2016   -5.1865   -1.3251 H   0  0  0  0  0  0  0  0  0  0  0  0
    3.6410   -5.8124   -0.7967 H   0  0  0  0  0  0  0  0  0  0  0  0
    5.2736   -7.4158   -0.6037 H   0  0  0  0  0  0  0  0  0  0  0  0
    3.0133   -5.1851    1.5152 H   0  0  0  0  0  0  0  0  0  0  0  0
    3.6721    1.4945    1.6071 H   0  0  0  0  0  0  0  0  0  0  0  0
    0.8084   -0.7899   -1.3783 H   0  0  0  0  0  0  0  0  0  0  0  0
   -1.4097    1.3418    0.4864 H   0  0  0  0  0  0  0  0  0  0  0  0
   -3.8324    1.1881    0.3972 H   0  0  0  0  0  0  0  0  0  0  0  0
   -3.5234   -1.6336   -2.8460 H   0  0  0  0  0  0  0  0  0  0  0  0
  1  2  2  0
  2  3  1  0
  2 10  1  0
  3  4  1  0
  3 28  1  0
  4  5  1  0
  5  6  1  0
  5 29  1  0
  5 30  1  0
  6  7  1  0
  6  9  1  0
  6 31  1  1
  7  8  1  0
  7 32  1  0
  7 33  1  0
  8 34  1  0
  9 35  1  0
 10 11  2  0
 10 18  1  0
 11 12  1  0
 11 36  1  0
 12 13  1  0
 12 14  2  0
 14 15  1  0
 14 16  1  0
 16 17  1  0
 16 18  2  0
 18 19  1  0
 19 20  1  0
 19 37  1  0
 20 21  2  0
 20 23  1  0
 21 22  1  0
 21 27  1  0
 23 24  2  0
 23 38  1  0
 24 25  1  0
 24 39  1  0
 25 26  1  0
 25 27  2  0
 27 40  1  0
M  END
