
     RDKit          3D

 47 50  0  0  0  0  0  0  0  0999 V2000
   -5.2440   -0.8913    0.0895 C   0  0  0  0  0  0  0  0  0  0  0  0
   -4.4283   -0.0060    0.7739 C   0  0  0  0  0  0  0  0  0  0  0  0
   -3.0497   -0.1778    0.7897 C   0  0  0  0  0  0  0  0  0  0  0  0
   -2.4873   -1.2523    0.1047 C   0  0  0  0  0  0  0  0  0  0  0  0
   -3.2865   -2.1457   -0.5826 C   0  0  0  0  0  0  0  0  0  0  0  0
   -4.6705   -1.9639   -0.5896 C   0  0  0  0  0  0  0  0  0  0  0  0
   -2.1664    0.8109    1.5304 C   0  0  1  0  0  0  0  0  0  0  0  0
    0.6433    0.5723    1.1438 N   0  0  0  0  0  0  0  0  0  0  0  0
   -1.2448    0.1451    2.4265 N   0  0  0  0  0  0  0  0  0  0  0  0
    2.0418    0.3786    0.9469 C   0  0  0  0  0  0  0  0  0  0  0  0
    2.9522    1.2566    1.5184 C   0  0  0  0  0  0  0  0  0  0  0  0
    4.3071    1.0752    1.2972 C   0  0  0  0  0  0  0  0  0  0  0  0
    4.7552    0.0192    0.5155 C   0  0  0  0  0  0  0  0  0  0  0  0
    3.8374   -0.8559   -0.0477 C   0  0  0  0  0  0  0  0  0  0  0  0
    2.4750   -0.6780    0.1668 C   0  0  0  0  0  0  0  0  0  0  0  0
    4.2751   -2.0087   -0.8973 C   0  0  1  0  0  0  0  0  0  0  0  0
    5.5999   -2.0650   -1.0467 F   0  0  0  0  0  0  0  0  0  0  0  0
    3.8872   -3.1801   -0.3735 F   0  0  0  0  0  0  0  0  0  0  0  0
    3.7418   -1.9464   -2.1253 F   0  0  0  0  0  0  0  0  0  0  0  0
    0.7530   -0.7542    2.9818 O   0  0  0  0  0  0  0  0  0  0  0  0
   -5.5036   -2.8836   -1.2944 C   0  0  0  0  0  0  0  0  0  0  0  0
   -6.1779   -3.6238   -1.8649 N   0  0  0  0  0  0  0  0  0  0  0  0
   -1.3891    1.6500    0.5646 C   0  0  0  0  0  0  0  0  0  0  0  0
   -2.0932    2.7168   -0.1441 C   0  0  0  0  0  0  0  0  0  0  0  0
   -1.3637    3.3709   -1.0843 N   0  0  0  0  0  0  0  0  0  0  0  0
   -0.2524    2.7001   -1.6642 N   0  0  0  0  0  0  0  0  0  0  0  0
    0.6628    2.3236   -0.6085 C   0  0  0  0  0  0  0  0  0  0  0  0
   -3.2411    3.0444    0.1327 O   0  0  0  0  0  0  0  0  0  0  0  0
    0.3923    3.5888   -2.6119 C   0  0  0  0  0  0  0  0  0  0  0  0
   -6.3165   -0.7525    0.0834 H   0  0  0  0  0  0  0  0  0  0  0  0
   -4.8740    0.8269    1.3012 H   0  0  0  0  0  0  0  0  0  0  0  0
   -1.4148   -1.4048    0.1002 H   0  0  0  0  0  0  0  0  0  0  0  0
   -2.8442   -2.9795   -1.1104 H   0  0  0  0  0  0  0  0  0  0  0  0
   -2.8104    1.4554    2.1331 H   0  0  0  0  0  0  0  0  0  0  0  0
   -1.6463   -0.3201    3.2268 H   0  0  0  0  0  0  0  0  0  0  0  0
    2.6018    2.0788    2.1290 H   0  0  0  0  0  0  0  0  0  0  0  0
    5.0212    1.7576    1.7366 H   0  0  0  0  0  0  0  0  0  0  0  0
    5.8167   -0.1047    0.3532 H   0  0  0  0  0  0  0  0  0  0  0  0
    1.7444   -1.3459   -0.2730 H   0  0  0  0  0  0  0  0  0  0  0  0
   -1.8937    3.9159   -1.7517 H   0  0  0  0  0  0  0  0  0  0  0  0
    1.1082    3.1917   -0.0925 H   0  0  0  0  0  0  0  0  0  0  0  0
    1.4771    1.7661   -1.0714 H   0  0  0  0  0  0  0  0  0  0  0  0
    0.7487    4.5195   -2.1536 H   0  0  0  0  0  0  0  0  0  0  0  0
    1.2407    3.0657   -3.0487 H   0  0  0  0  0  0  0  0  0  0  0  0
   -0.2998    3.8339   -3.4178 H   0  0  0  0  0  0  0  0  0  0  0  0
    0.0690   -0.0697    2.2449 C   0  0  0  0  0  0  0  0  0  0  0  0
   -0.0704    1.4772    0.3876 C   0  0  0  0  0  0  0  0  0  0  0  0
  1  2  2  0
  1  6  1  0
  2  3  1  0
  3  4  2  0
  3  7  1  0
  4  5  1  0
  5  6  2  0
  6 21  1  0
  7  9  1  0
  7 23  1  0
  8 46  1  0
  8 10  1  0
  8 47  1  0
 46  9  1  0
 46 20  2  0
 10 11  2  0
 10 15  1  0
 11 12  1  0
 12 13  2  0
 13 14  1  0
 14 15  2  0
 14 16  1  0
 16 17  1  6
 16 18  1  0
 16 19  1  0
 21 22  3  0
 47 23  2  0
 47 27  1  0
 23 24  1  0
 24 25  1  0
 24 28  2  0
 25 26  1  0
 26 27  1  0
 26 29  1  0
  1 30  1  0
  2 31  1  0
  4 32  1  0
  5 33  1  0
  7 34  1  1
  9 35  1  0
 11 36  1  0
 12 37  1  0
 13 38  1  0
 15 39  1  0
 25 40  1  0
 27 41  1  0
 27 42  1  0
 29 43  1  0
 29 44  1  0
 29 45  1  0
M  END
