
     RDKit          3D

 41 43  0  0  0  0  0  0  0  0999 V2000
    7.9730   -0.9715    0.0596 C   0  0  0  0  0  0  0  0  0  0  0  0
    6.5843   -1.5811    0.0392 C   0  0  0  0  0  0  0  0  0  0  0  0
    5.5820   -0.5324    0.0037 N   0  0  0  0  0  0  0  0  0  0  0  0
    4.2708   -0.8005    0.0513 C   0  0  0  0  0  0  0  0  0  0  0  0
    3.8084   -1.9295    0.1467 O   0  0  0  0  0  0  0  0  0  0  0  0
    3.4602    0.3213   -0.0128 N   0  0  0  0  0  0  0  0  0  0  0  0
    2.0979    0.3200    0.0058 C   0  0  0  0  0  0  0  0  0  0  0  0
    1.3382   -0.7939    0.0816 N   0  0  0  0  0  0  0  0  0  0  0  0
    0.0307   -0.3766    0.0629 C   0  0  0  0  0  0  0  0  0  0  0  0
   -1.1496   -1.0850    0.1138 C   0  0  0  0  0  0  0  0  0  0  0  0
   -2.3405   -0.3583    0.0740 C   0  0  0  0  0  0  0  0  0  0  0  0
   -2.2936    1.0364   -0.0165 C   0  0  0  0  0  0  0  0  0  0  0  0
   -1.1020    1.7607   -0.0564 C   0  0  0  0  0  0  0  0  0  0  0  0
   -1.1120    3.2412   -0.1356 C   0  0  0  0  0  0  0  0  0  0  0  0
   -0.0845    3.8798   -0.0334 O   0  0  0  0  0  0  0  0  0  0  0  0
   -2.4338    3.9355   -0.3434 C   0  0  0  0  0  0  0  0  0  0  0  0
    0.0973    1.0298   -0.0160 C   0  0  0  0  0  0  0  0  0  0  0  0
    1.4030    1.4310   -0.0528 N   0  0  0  0  0  0  0  0  0  0  0  0
   -3.6350   -1.0602    0.1246 C   0  0  0  0  0  0  0  0  0  0  0  0
   -3.8376   -2.2806   -0.5171 C   0  0  0  0  0  0  0  0  0  0  0  0
   -5.0736   -2.8983   -0.4311 C   0  0  0  0  0  0  0  0  0  0  0  0
   -6.0795   -2.2739    0.2908 C   0  0  0  0  0  0  0  0  0  0  0  0
   -5.9064   -1.1129    0.9117 N   0  0  0  0  0  0  0  0  0  0  0  0
   -4.7178   -0.5327    0.8308 C   0  0  0  0  0  0  0  0  0  0  0  0
    8.1146   -0.3374    0.9355 H   0  0  0  0  0  0  0  0  0  0  0  0
    8.7230   -1.7597    0.0908 H   0  0  0  0  0  0  0  0  0  0  0  0
    8.1564   -0.3702   -0.8319 H   0  0  0  0  0  0  0  0  0  0  0  0
    6.4771   -2.2350   -0.8298 H   0  0  0  0  0  0  0  0  0  0  0  0
    6.4380   -2.2006    0.9262 H   0  0  0  0  0  0  0  0  0  0  0  0
    5.8971    0.4168   -0.1178 H   0  0  0  0  0  0  0  0  0  0  0  0
    3.8741    1.2398   -0.0850 H   0  0  0  0  0  0  0  0  0  0  0  0
   -1.1509   -2.1641    0.2001 H   0  0  0  0  0  0  0  0  0  0  0  0
   -3.2316    1.5725   -0.0755 H   0  0  0  0  0  0  0  0  0  0  0  0
   -3.1091    3.7560    0.4948 H   0  0  0  0  0  0  0  0  0  0  0  0
   -2.2772    5.0079   -0.4345 H   0  0  0  0  0  0  0  0  0  0  0  0
   -2.9344    3.5749   -1.2429 H   0  0  0  0  0  0  0  0  0  0  0  0
   -3.0432   -2.7378   -1.0940 H   0  0  0  0  0  0  0  0  0  0  0  0
   -5.2598   -3.8433   -0.9224 H   0  0  0  0  0  0  0  0  0  0  0  0
   -7.0610   -2.7276    0.3705 H   0  0  0  0  0  0  0  0  0  0  0  0
   -4.6053    0.4012    1.3728 H   0  0  0  0  0  0  0  0  0  0  0  0
    1.6931   -1.7372    0.1311 H   0  0  0  0  0  0  0  0  0  0  0  0
  1  2  1  0
  1 25  1  0
  1 26  1  0
  1 27  1  0
  3  2  1  0
  2 28  1  0
  2 29  1  0
  3  4  1  0
  3 30  1  0
  6  4  1  0
  4  5  2  0
  6  7  1  0
  6 31  1  0
  8  7  1  0
  7 18  2  0
  8  9  1  0
 10  9  2  0
  9 17  1  0
 10 11  1  0
 10 32  1  0
 19 11  1  0
 11 12  2  0
 12 13  1  0
 12 33  1  0
 17 13  2  0
 13 14  1  0
 14 15  2  0
 14 16  1  0
 16 34  1  0
 16 35  1  0
 16 36  1  0
 17 18  1  0
 24 19  1  0
 19 20  2  0
 21 20  1  0
 20 37  1  0
 22 21  2  0
 21 38  1  0
 23 22  1  0
 22 39  1  0
 23 24  2  0
 24 40  1  0
  8 41  1  0
M  END
