
     RDKit          3D

 22 23  0  0  0  0  0  0  0  0999 V2000
   -1.9241    0.3845    0.0133 C   0  0  0  0  0  0  0  0  0  0  0  0
   -3.1970    0.9866    0.0261 C   0  0  0  0  0  0  0  0  0  0  0  0
    1.9227    0.1323    0.0134 C   0  0  0  0  0  0  0  0  0  0  0  0
    2.8537   -0.8466   -0.0408 N   0  0  0  0  0  0  0  0  0  0  0  0
    3.9858   -0.1825   -0.0101 C   0  0  0  0  0  0  0  0  0  0  0  0
    3.7367    1.1243    0.0576 N   0  0  0  0  0  0  0  0  0  0  0  0
    2.4285    1.3480    0.0743 N   0  0  0  0  0  0  0  0  0  0  0  0
   -4.2398    1.4815    0.0360 N   0  0  0  0  0  0  0  0  0  0  0  0
   -1.6578   -0.9604   -0.0125 C   0  0  0  0  0  0  0  0  0  0  0  0
   -2.6884   -2.0351   -0.0307 C   0  0  0  0  0  0  0  0  0  0  0  0
   -0.4967    1.3476    0.0333 S   0  0  0  0  0  0  0  0  0  0  0  0
    0.4841   -0.0675    0.0062 C   0  0  0  0  0  0  0  0  0  0  0  0
   -0.2557   -1.2239   -0.0168 C   0  0  0  0  0  0  0  0  0  0  0  0
    4.9803   -0.5985   -0.0351 H   0  0  0  0  0  0  0  0  0  0  0  0
   -0.0875   -3.1471   -0.9335 H   0  0  0  0  0  0  0  0  0  0  0  0
    1.3478   -2.6622   -0.0318 H   0  0  0  0  0  0  0  0  0  0  0  0
   -0.1057   -3.1838    0.8208 H   0  0  0  0  0  0  0  0  0  0  0  0
   -2.5765   -2.6631   -0.9157 H   0  0  0  0  0  0  0  0  0  0  0  0
   -2.5829   -2.6850    0.8393 H   0  0  0  0  0  0  0  0  0  0  0  0
   -3.7002   -1.6346   -0.0292 H   0  0  0  0  0  0  0  0  0  0  0  0
    4.3947    1.8883    0.0983 H   0  0  0  0  0  0  0  0  0  0  0  0
    0.2635   -2.6249   -0.0412 C   0  0  0  0  0  0  0  0  0  0  0  0
 22 13  1  0
 10  9  1  0
 13  9  1  0
 13 12  2  0
  9  1  2  0
  4  5  2  0
  4  3  1  0
 12  3  1  0
 12 11  1  0
  1  2  1  0
  1 11  1  0
  5  6  1  0
  3  7  2  0
  2  8  3  0
  6  7  1  0
  5 14  1  0
 22 15  1  0
 22 16  1  0
 22 17  1  0
 10 18  1  0
 10 19  1  0
 10 20  1  0
  6 21  1  0
M  END
