
     RDKit          3D

 17 16  0  0  0  0  0  0  0  0999 V2000
   -3.4903   -0.3748    0.0190 O   0  0  0  0  0  0  0  0  0  0  0  0
   -2.3896    0.3533   -0.0052 C   0  0  0  0  0  0  0  0  0  0  0  0
   -2.3652    1.5557   -0.0338 O   0  0  0  0  0  0  0  0  0  0  0  0
   -1.1310   -0.4950    0.0082 C   0  0  0  0  0  0  0  0  0  0  0  0
   -1.1421   -1.7567    0.0376 N   0  0  0  0  0  0  0  0  0  0  0  0
    0.1473    0.2853   -0.0150 C   0  0  0  0  0  0  0  0  0  0  0  0
    1.3782   -0.5987   -0.0015 C   0  0  0  0  0  0  0  0  0  0  0  0
    2.6563    0.1929   -0.0243 C   0  0  0  0  0  0  0  0  0  0  0  0
    3.7224   -0.6012   -0.0138 O   0  0  0  0  0  0  0  0  0  0  0  0
    2.7332    1.3961   -0.0488 O   0  0  0  0  0  0  0  0  0  0  0  0
   -4.2770    0.1914    0.0097 H   0  0  0  0  0  0  0  0  0  0  0  0
   -2.0853   -2.1360    0.0507 H   0  0  0  0  0  0  0  0  0  0  0  0
    0.1465    0.9294   -0.8985 H   0  0  0  0  0  0  0  0  0  0  0  0
    0.1551    0.9667    0.8400 H   0  0  0  0  0  0  0  0  0  0  0  0
    1.3874   -1.2412    0.8828 H   0  0  0  0  0  0  0  0  0  0  0  0
    1.3798   -1.2800   -0.8562 H   0  0  0  0  0  0  0  0  0  0  0  0
    4.5316   -0.0687   -0.0292 H   0  0  0  0  0  0  0  0  0  0  0  0
  5  4  2  0
  4  6  1  0
  4  2  1  0
  7  6  1  0
  7  8  1  0
  3  2  2  0
  2  1  1  0
  8 10  2  0
  8  9  1  0
  1 11  1  0
  5 12  1  0
  6 13  1  0
  6 14  1  0
  7 15  1  0
  7 16  1  0
  9 17  1  0
M  END
