
     RDKit          3D

 21 22  0  0  0  0  0  0  0  0999 V2000
   -1.7492   -1.0443   -0.3057 C   0  0  0  0  0  0  0  0  0  0  0  0
   -0.9762    0.0527   -0.4640 C   0  0  0  0  0  0  0  0  0  0  0  0
    2.7564    0.0788   -0.0159 C   0  0  0  0  0  0  0  0  0  0  0  0
    2.9519   -1.2649    0.3147 C   0  0  0  0  0  0  0  0  0  0  0  0
   -0.8910   -2.4894    0.1235 S   0  0  0  0  0  0  0  0  0  0  0  0
    0.4057   -0.2651   -0.2234 C   0  0  0  0  0  0  0  0  0  0  0  0
    0.6046   -1.6142    0.1069 C   0  0  0  0  0  0  0  0  0  0  0  0
   -1.4544    1.4118   -0.8337 C   0  0  0  0  0  0  0  0  0  0  0  0
   -1.4785    2.3521    0.3486 C   0  0  0  0  0  0  0  0  0  0  0  0
    1.5065    0.5939   -0.2825 C   0  0  0  0  0  0  0  0  0  0  0  0
   -3.4436   -1.1248   -0.4841 Cl  0  0  0  0  0  0  0  0  0  0  0  0
    1.8705   -2.1211    0.3770 C   0  0  0  0  0  0  0  0  0  0  0  0
   -1.8693    3.5663   -0.0134 O   0  0  0  0  0  0  0  0  0  0  0  0
   -1.1849    2.0493    1.4754 O   0  0  0  0  0  0  0  0  0  0  0  0
    4.1353    1.1262   -0.0880 Cl  0  0  0  0  0  0  0  0  0  0  0  0
    3.9465   -1.6349    0.5210 H   0  0  0  0  0  0  0  0  0  0  0  0
   -0.8195    1.8423   -1.6140 H   0  0  0  0  0  0  0  0  0  0  0  0
   -2.4576    1.3858   -1.2594 H   0  0  0  0  0  0  0  0  0  0  0  0
    1.3848    1.6381   -0.5396 H   0  0  0  0  0  0  0  0  0  0  0  0
    2.0163   -3.1623    0.6309 H   0  0  0  0  0  0  0  0  0  0  0  0
   -1.8871    4.1547    0.7566 H   0  0  0  0  0  0  0  0  0  0  0  0
  5  7  1  0
  5  1  1  0
 12  7  2  0
 12  4  1  0
  7  6  1  0
  4  3  2  0
  1 11  1  0
  1  2  2  0
  6  2  1  0
  6 10  2  0
  3 10  1  0
  3 15  1  0
  2  8  1  0
  8  9  1  0
  9 14  2  0
  9 13  1  0
  4 16  1  0
  8 17  1  0
  8 18  1  0
 10 19  1  0
 12 20  1  0
 13 21  1  0
M  END
