
     RDKit          3D

 38 40  0  0  0  0  0  0  0  0999 V2000
    5.3522    0.6953   -0.3359 O   0  0  0  0  0  0  0  0  0  0  0  0
    4.2612   -0.0629   -0.3168 C   0  0  0  0  0  0  0  0  0  0  0  0
    4.3791   -1.3431   -0.4969 N   0  0  0  0  0  0  0  0  0  0  0  0
    3.2569   -2.0924   -0.4723 C   0  0  0  0  0  0  0  0  0  0  0  0
    2.0043   -1.5939   -0.2757 C   0  0  0  0  0  0  0  0  0  0  0  0
    1.8481   -0.1981   -0.0782 C   0  0  0  0  0  0  0  0  0  0  0  0
    0.6096    0.4643    0.1439 C   0  0  0  0  0  0  0  0  0  0  0  0
    0.5590    1.8183    0.3478 C   0  0  0  0  0  0  0  0  0  0  0  0
    1.7306    2.5915    0.3282 C   0  0  0  0  0  0  0  0  0  0  0  0
    2.9408    1.9943    0.1076 C   0  0  0  0  0  0  0  0  0  0  0  0
    3.0159    0.6018   -0.0935 C   0  0  0  0  0  0  0  0  0  0  0  0
   -0.9025   -0.4867    0.1426 S   0  0  2  0  0  0  0  0  0  0  0  0
   -0.8633   -1.3646    1.3036 O   0  0  0  0  0  0  0  0  0  0  0  0
   -1.0052   -1.0758   -1.1858 O   0  0  0  0  0  0  0  0  0  0  0  0
   -2.0808    0.6064    0.3578 N   0  0  0  0  0  0  0  0  0  0  0  0
   -2.6884    1.2619   -0.8020 C   0  0  0  0  0  0  0  0  0  0  0  0
   -3.8937    0.5293   -1.3676 C   0  0  0  0  0  0  0  0  0  0  0  0
   -4.9267    0.1192   -0.3225 C   0  0  0  0  0  0  0  0  0  0  0  0
   -4.3966   -0.8809    0.5933 N   0  0  0  0  0  0  0  0  0  0  0  0
   -3.8637   -0.3764    1.8393 C   0  0  0  0  0  0  0  0  0  0  0  0
   -2.7874    0.6941    1.6283 C   0  0  0  0  0  0  0  0  0  0  0  0
    6.1237    0.1311   -0.4860 H   0  0  0  0  0  0  0  0  0  0  0  0
    3.3996   -3.1555   -0.6214 H   0  0  0  0  0  0  0  0  0  0  0  0
    1.1711   -2.2782   -0.2713 H   0  0  0  0  0  0  0  0  0  0  0  0
   -0.3881    2.3089    0.5274 H   0  0  0  0  0  0  0  0  0  0  0  0
    1.6650    3.6586    0.4862 H   0  0  0  0  0  0  0  0  0  0  0  0
    3.8390    2.5954    0.0907 H   0  0  0  0  0  0  0  0  0  0  0  0
   -2.9766    2.2606   -0.4656 H   0  0  0  0  0  0  0  0  0  0  0  0
   -1.9334    1.4092   -1.5752 H   0  0  0  0  0  0  0  0  0  0  0  0
   -4.3644    1.1844   -2.1058 H   0  0  0  0  0  0  0  0  0  0  0  0
   -3.5636   -0.3672   -1.8951 H   0  0  0  0  0  0  0  0  0  0  0  0
   -5.3157    1.0065    0.1999 H   0  0  0  0  0  0  0  0  0  0  0  0
   -5.7785   -0.3169   -0.8468 H   0  0  0  0  0  0  0  0  0  0  0  0
   -5.1082   -1.5656    0.8035 H   0  0  0  0  0  0  0  0  0  0  0  0
   -4.6280    0.0731    2.4916 H   0  0  0  0  0  0  0  0  0  0  0  0
   -3.4417   -1.2215    2.3857 H   0  0  0  0  0  0  0  0  0  0  0  0
   -2.0833    0.6826    2.4596 H   0  0  0  0  0  0  0  0  0  0  0  0
   -3.2370    1.6873    1.6339 H   0  0  0  0  0  0  0  0  0  0  0  0
  1  2  1  0
  1 22  1  0
  2  3  2  0
  2 11  1  0
  3  4  1  0
  4  5  2  0
  4 23  1  0
  5  6  1  0
  5 24  1  0
  6  7  1  0
  6 11  2  0
  7  8  2  0
 12  7  1  6
  8  9  1  0
  8 25  1  0
  9 10  2  0
  9 26  1  0
 10 11  1  0
 10 27  1  0
 12 13  2  0
 12 14  2  0
 12 15  1  0
 15 16  1  0
 15 21  1  0
 16 17  1  0
 16 28  1  0
 16 29  1  0
 17 18  1  0
 17 30  1  0
 17 31  1  0
 18 19  1  0
 18 32  1  0
 18 33  1  0
 19 20  1  0
 19 34  1  0
 20 21  1  0
 20 35  1  0
 20 36  1  0
 21 37  1  0
 21 38  1  0
M  END
