
     RDKit          3D

 67 71  0  0  0  0  0  0  0  0999 V2000
   -4.0307    0.6139   -0.8992 N   0  0  0  0  0  0  0  0  0  0  0  0
   -3.4918    0.6103    0.2695 C   0  0  0  0  0  0  0  0  0  0  0  0
   -4.5268    0.0544    1.5529 S   0  0  0  0  0  0  0  0  0  0  0  0
   -5.7769   -0.2028    0.3854 C   0  0  0  0  0  0  0  0  0  0  0  0
   -5.3246    0.1604   -0.8404 C   0  0  0  0  0  0  0  0  0  0  0  0
   -6.1658    0.0410   -2.0691 C   0  0  0  0  0  0  0  0  0  0  0  0
   -7.6290   -0.1926   -1.7004 C   0  0  0  0  0  0  0  0  0  0  0  0
   -7.7635   -1.2668   -0.6196 C   0  0  1  0  0  0  0  0  0  0  0  0
   -7.1206   -0.7712    0.6922 C   0  0  0  0  0  0  0  0  0  0  0  0
   -9.1306   -1.7401   -0.4877 N   0  0  0  0  0  0  0  0  0  0  0  0
    3.4820    2.6151   -0.9105 C   0  0  2  0  0  0  0  0  0  0  0  0
    2.3302    2.4180    0.0405 C   0  0  0  0  0  0  0  0  0  0  0  0
    2.5067    2.5391    1.4166 C   0  0  0  0  0  0  0  0  0  0  0  0
    1.4302    2.4015    2.2780 C   0  0  0  0  0  0  0  0  0  0  0  0
    0.1633    2.1317    1.7794 C   0  0  0  0  0  0  0  0  0  0  0  0
   -0.0250    2.0030    0.4061 C   0  0  0  0  0  0  0  0  0  0  0  0
    1.0616    2.1602   -0.4519 C   0  0  0  0  0  0  0  0  0  0  0  0
   -1.3549    1.7212   -0.2091 C   0  0  0  0  0  0  0  0  0  0  0  0
   -2.2051    0.9959    0.5841 N   0  0  0  0  0  0  0  0  0  0  0  0
   -1.6390    2.0939   -1.3268 O   0  0  0  0  0  0  0  0  0  0  0  0
    5.4162    3.9809   -1.3366 C   0  0  0  0  0  0  0  0  0  0  0  0
    5.8781    2.7838   -0.5152 C   0  0  0  0  0  0  0  0  0  0  0  0
    4.6977    1.9245   -0.4934 N   0  0  0  0  0  0  0  0  0  0  0  0
    4.6908    0.5756   -0.3804 C   0  0  0  0  0  0  0  0  0  0  0  0
    5.8733    0.0319    0.0694 N   0  0  0  0  0  0  0  0  0  0  0  0
    3.7053   -0.0973   -0.6449 O   0  0  0  0  0  0  0  0  0  0  0  0
    6.1812   -1.3123    0.2326 C   0  0  0  0  0  0  0  0  0  0  0  0
    5.4310   -2.3623   -0.2949 C   0  0  0  0  0  0  0  0  0  0  0  0
    5.8572   -3.6734   -0.0861 C   0  0  0  0  0  0  0  0  0  0  0  0
    7.0121   -3.9738    0.6297 C   0  0  0  0  0  0  0  0  0  0  0  0
    7.7520   -2.9211    1.1435 C   0  0  0  0  0  0  0  0  0  0  0  0
    7.3446   -1.6139    0.9510 C   0  0  0  0  0  0  0  0  0  0  0  0
    5.0763   -4.7381   -0.6323 C   0  0  0  0  0  0  0  0  0  0  0  0
    4.4474   -5.5977   -1.0720 N   0  0  0  0  0  0  0  0  0  0  0  0
    3.9352    4.0782   -0.9977 C   0  0  0  0  0  0  0  0  0  0  0  0
   -9.2393   -2.9475    0.3014 C   0  0  0  0  0  0  0  0  0  0  0  0
  -10.0965   -0.7461   -0.0730 C   0  0  0  0  0  0  0  0  0  0  0  0
   -6.0672    0.9433   -2.6772 H   0  0  0  0  0  0  0  0  0  0  0  0
   -5.7932   -0.7837   -2.6851 H   0  0  0  0  0  0  0  0  0  0  0  0
   -8.0635    0.7511   -1.3568 H   0  0  0  0  0  0  0  0  0  0  0  0
   -8.1900   -0.4990   -2.5852 H   0  0  0  0  0  0  0  0  0  0  0  0
   -7.1772   -2.1316   -0.9551 H   0  0  0  0  0  0  0  0  0  0  0  0
   -7.0328   -1.5927    1.4075 H   0  0  0  0  0  0  0  0  0  0  0  0
   -7.7530   -0.0135    1.1655 H   0  0  0  0  0  0  0  0  0  0  0  0
    3.1780    2.2687   -1.9043 H   0  0  0  0  0  0  0  0  0  0  0  0
    3.4914    2.7397    1.8224 H   0  0  0  0  0  0  0  0  0  0  0  0
    1.5742    2.5077    3.3448 H   0  0  0  0  0  0  0  0  0  0  0  0
   -0.6640    2.0526    2.4736 H   0  0  0  0  0  0  0  0  0  0  0  0
    0.9181    2.0588   -1.5209 H   0  0  0  0  0  0  0  0  0  0  0  0
   -1.8488    0.6726    1.4703 H   0  0  0  0  0  0  0  0  0  0  0  0
    5.9707    4.8854   -1.0909 H   0  0  0  0  0  0  0  0  0  0  0  0
    5.5536    3.7774   -2.4002 H   0  0  0  0  0  0  0  0  0  0  0  0
    6.7293    2.2812   -0.9768 H   0  0  0  0  0  0  0  0  0  0  0  0
    6.1687    3.0852    0.4964 H   0  0  0  0  0  0  0  0  0  0  0  0
    6.5696    0.6645    0.4313 H   0  0  0  0  0  0  0  0  0  0  0  0
    4.5338   -2.1747   -0.8614 H   0  0  0  0  0  0  0  0  0  0  0  0
    7.3212   -4.9988    0.7773 H   0  0  0  0  0  0  0  0  0  0  0  0
    8.6561   -3.1191    1.7028 H   0  0  0  0  0  0  0  0  0  0  0  0
    7.9382   -0.8068    1.3642 H   0  0  0  0  0  0  0  0  0  0  0  0
    3.3535    4.6285   -1.7360 H   0  0  0  0  0  0  0  0  0  0  0  0
    3.8001    4.5750   -0.0340 H   0  0  0  0  0  0  0  0  0  0  0  0
   -9.0371   -2.8085    1.3739 H   0  0  0  0  0  0  0  0  0  0  0  0
  -10.2483   -3.3541    0.2130 H   0  0  0  0  0  0  0  0  0  0  0  0
   -8.5448   -3.7025   -0.0713 H   0  0  0  0  0  0  0  0  0  0  0  0
  -10.0886    0.1114   -0.7451 H   0  0  0  0  0  0  0  0  0  0  0  0
  -11.0972   -1.1788   -0.1193 H   0  0  0  0  0  0  0  0  0  0  0  0
   -9.9539   -0.3727    0.9518 H   0  0  0  0  0  0  0  0  0  0  0  0
 31 30  2  0
 31 32  1  0
 30 29  1  0
 15 14  1  0
 15 16  2  0
 32 27  2  0
 29 33  1  0
 29 28  2  0
 33 34  3  0
 14 13  2  0
 20 18  2  0
 18 19  1  0
 18 16  1  0
 19  2  1  0
 16 17  1  0
 27 28  1  0
 27 25  1  0
 26 24  2  0
  2  3  1  0
  2  1  2  0
  3  4  1  0
  1  5  1  0
 13 12  1  0
  4  5  2  0
  4  9  1  0
  5  6  1  0
  8  9  1  0
  8 10  1  0
  8  7  1  0
  6  7  1  0
 17 12  2  0
 37 10  1  0
 25 24  1  0
 24 23  1  0
 10 36  1  0
 12 11  1  0
 23 11  1  0
 23 22  1  0
 11 35  1  0
 22 21  1  0
 35 21  1  0
  6 38  1  0
  6 39  1  0
  7 40  1  0
  7 41  1  0
  8 42  1  6
  9 43  1  0
  9 44  1  0
 11 45  1  6
 13 46  1  0
 14 47  1  0
 15 48  1  0
 17 49  1  0
 19 50  1  0
 21 51  1  0
 21 52  1  0
 22 53  1  0
 22 54  1  0
 25 55  1  0
 28 56  1  0
 30 57  1  0
 31 58  1  0
 32 59  1  0
 35 60  1  0
 35 61  1  0
 36 62  1  0
 36 63  1  0
 36 64  1  0
 37 65  1  0
 37 66  1  0
 37 67  1  0
M  END
