
     RDKit          3D

 60 63  0  0  0  0  0  0  0  0999 V2000
   -2.6217    4.7879   -0.8008 C   0  0  0  0  0  0  0  0  0  0  0  0
   -1.6742    3.6365   -1.0217 C   0  0  0  0  0  0  0  0  0  0  0  0
   -0.7272    3.6287    0.0657 O   0  0  0  0  0  0  0  0  0  0  0  0
    0.2884    2.7951   -0.0017 C   0  0  0  0  0  0  0  0  0  0  0  0
    0.5072    2.0251   -0.8971 O   0  0  0  0  0  0  0  0  0  0  0  0
    1.1729    2.9386    1.2240 C   0  0  0  0  0  0  0  0  0  0  0  0
    2.2088    1.9405    1.2203 N   0  0  0  0  0  0  0  0  0  0  0  0
    2.0612    0.6457    1.5821 C   0  0  0  0  0  0  0  0  0  0  0  0
    3.4675    2.0896    0.7289 C   0  0  0  0  0  0  0  0  0  0  0  0
    4.1424    0.9776    0.7747 N   0  0  0  0  0  0  0  0  0  0  0  0
    3.2732    0.0798    1.3086 C   0  0  0  0  0  0  0  0  0  0  0  0
    3.6804   -1.5858    1.5225 S   0  0  1  0  0  0  0  0  0  0  0  0
    5.0554   -1.7277    1.9467 O   0  0  0  0  0  0  0  0  0  0  0  0
    2.6018   -2.2253    2.2394 O   0  0  0  0  0  0  0  0  0  0  0  0
    3.6595   -2.1795   -0.0628 N   0  0  0  0  0  0  0  0  0  0  0  0
    2.5625   -2.1829   -0.8964 C   0  0  0  0  0  0  0  0  0  0  0  0
    1.3615   -1.7322   -0.6302 N   0  0  0  0  0  0  0  0  0  0  0  0
    4.7411   -2.7059   -0.7609 C   0  0  0  0  0  0  0  0  0  0  0  0
    4.3564   -3.0616   -2.0112 C   0  0  0  0  0  0  0  0  0  0  0  0
    2.9675   -2.7335   -2.1245 C   0  0  0  0  0  0  0  0  0  0  0  0
    2.0949   -2.8552   -3.1180 N   0  0  0  0  0  0  0  0  0  0  0  0
    0.8763   -2.4094   -2.8600 C   0  0  0  0  0  0  0  0  0  0  0  0
    0.4967   -1.8323   -1.6338 C   0  0  0  0  0  0  0  0  0  0  0  0
   -0.8800   -1.2704   -1.4440 C   0  0  0  0  0  0  0  0  0  0  0  0
   -1.4550   -1.5009   -0.0445 C   0  0  0  0  0  0  0  0  0  0  0  0
   -2.7883   -0.8236    0.1057 C   0  0  0  0  0  0  0  0  0  0  0  0
   -3.9358   -1.4324   -0.3874 C   0  0  0  0  0  0  0  0  0  0  0  0
   -2.8707    0.4322    0.6930 C   0  0  0  0  0  0  0  0  0  0  0  0
   -4.1005    1.0798    0.7880 C   0  0  0  0  0  0  0  0  0  0  0  0
   -4.0878    2.2907    1.3759 O   0  0  0  0  0  0  0  0  0  0  0  0
   -5.2968    3.0145    1.4835 C   0  0  0  0  0  0  0  0  0  0  0  0
   -5.2572    0.4784    0.2940 C   0  0  0  0  0  0  0  0  0  0  0  0
   -5.1640   -0.7835   -0.2937 C   0  0  0  0  0  0  0  0  0  0  0  0
   -6.2235   -1.4449   -0.7969 O   0  0  0  0  0  0  0  0  0  0  0  0
   -7.5019   -0.8459   -0.7304 C   0  0  0  0  0  0  0  0  0  0  0  0
   -3.3666    4.7902   -1.5959 H   0  0  0  0  0  0  0  0  0  0  0  0
   -3.1482    4.6970    0.1482 H   0  0  0  0  0  0  0  0  0  0  0  0
   -2.1033    5.7462   -0.8232 H   0  0  0  0  0  0  0  0  0  0  0  0
   -2.2055    2.6827   -1.0338 H   0  0  0  0  0  0  0  0  0  0  0  0
   -1.1423    3.7409   -1.9684 H   0  0  0  0  0  0  0  0  0  0  0  0
    1.6289    3.9298    1.2328 H   0  0  0  0  0  0  0  0  0  0  0  0
    0.5810    2.8549    2.1359 H   0  0  0  0  0  0  0  0  0  0  0  0
    1.1491    0.2428    1.9871 H   0  0  0  0  0  0  0  0  0  0  0  0
    3.8314    3.0386    0.3657 H   0  0  0  0  0  0  0  0  0  0  0  0
    5.7079   -2.7845   -0.2927 H   0  0  0  0  0  0  0  0  0  0  0  0
    4.9902   -3.5010   -2.7642 H   0  0  0  0  0  0  0  0  0  0  0  0
    0.1436   -2.4991   -3.6538 H   0  0  0  0  0  0  0  0  0  0  0  0
   -0.8374   -0.1938   -1.6354 H   0  0  0  0  0  0  0  0  0  0  0  0
   -1.5499   -1.6894   -2.1975 H   0  0  0  0  0  0  0  0  0  0  0  0
   -1.5554   -2.5736    0.1360 H   0  0  0  0  0  0  0  0  0  0  0  0
   -0.7560   -1.1170    0.6992 H   0  0  0  0  0  0  0  0  0  0  0  0
   -3.8839   -2.4132   -0.8465 H   0  0  0  0  0  0  0  0  0  0  0  0
   -1.9846    0.9132    1.0899 H   0  0  0  0  0  0  0  0  0  0  0  0
   -5.7319    3.2319    0.5046 H   0  0  0  0  0  0  0  0  0  0  0  0
   -6.0384    2.4897    2.0918 H   0  0  0  0  0  0  0  0  0  0  0  0
   -5.0501    3.9544    1.9709 H   0  0  0  0  0  0  0  0  0  0  0  0
   -6.2112    0.9789    0.3728 H   0  0  0  0  0  0  0  0  0  0  0  0
   -8.1957   -1.5505   -1.1823 H   0  0  0  0  0  0  0  0  0  0  0  0
   -7.8152   -0.6595    0.3002 H   0  0  0  0  0  0  0  0  0  0  0  0
   -7.5435    0.0936   -1.2878 H   0  0  0  0  0  0  0  0  0  0  0  0
 31 30  1  0
 30 29  1  0
 29 32  2  0
 29 28  1  0
 32 33  1  0
 22 21  2  0
 22 23  1  0
 28 26  2  0
 24 23  1  0
 24 25  1  0
 21 20  1  0
 33 34  1  0
 33 27  2  0
 26 27  1  0
 26 25  1  0
 23 17  2  0
 34 35  1  0
 20 19  1  0
 20 16  2  0
 17 16  1  0
 19 18  2  0
 16 15  1  0
 18 15  1  0
 15 12  1  0
  5  4  2  0
  1  2  1  0
  3  4  1  0
  3  2  1  0
 13 12  2  0
  4  6  1  0
 12 11  1  6
 12 14  2  0
  8 11  2  0
  8  7  1  0
 11 10  1  0
  6  7  1  0
  7  9  1  0
 10  9  2  0
  1 36  1  0
  1 37  1  0
  1 38  1  0
  2 39  1  0
  2 40  1  0
  6 41  1  0
  6 42  1  0
  8 43  1  0
  9 44  1  0
 18 45  1  0
 19 46  1  0
 22 47  1  0
 24 48  1  0
 24 49  1  0
 25 50  1  0
 25 51  1  0
 27 52  1  0
 28 53  1  0
 31 54  1  0
 31 55  1  0
 31 56  1  0
 32 57  1  0
 35 58  1  0
 35 59  1  0
 35 60  1  0
M  END
