
     RDKit          3D

 46 46  0  0  0  0  0  0  0  0999 V2000
   -3.1966    2.1177   -1.3484 O   0  0  0  0  0  0  0  0  0  0  0  0
   -4.0130    1.7913   -0.4999 C   0  0  0  0  0  0  0  0  0  0  0  0
   -5.1226    2.5393   -0.2854 N   0  0  0  0  0  0  0  0  0  0  0  0
   -6.1293    1.9950    0.4721 O   0  0  0  0  0  0  0  0  0  0  0  0
   -5.5415    3.6197   -1.1459 C   0  0  0  0  0  0  0  0  0  0  0  0
   -3.8571    0.5608    0.3685 C   0  0  0  0  0  0  0  0  0  0  0  0
   -2.4752   -0.0810    0.2616 C   0  0  2  0  0  0  0  0  0  0  0  0
   -2.4937   -1.4946    0.8668 C   0  0  0  0  0  0  0  0  0  0  0  0
   -3.1445   -2.7695   -0.2303 P   0  0  1  0  0  0  0  0  0  0  0  0
   -2.8543   -4.0916    0.6399 O   0  0  0  0  0  0  0  0  0  0  0  0
   -4.7498   -2.6313   -0.3089 O   0  0  0  0  0  0  0  0  0  0  0  0
   -2.6006   -2.7634   -1.6101 O   0  0  0  0  0  0  0  0  0  0  0  0
   -1.4193    0.7733    0.9733 C   0  0  0  0  0  0  0  0  0  0  0  0
    0.0139    0.4343    0.5803 C   0  0  0  0  0  0  0  0  0  0  0  0
    1.0363    1.2936    1.3270 C   0  0  0  0  0  0  0  0  0  0  0  0
    2.4398    1.0043    0.8801 C   0  0  0  0  0  0  0  0  0  0  0  0
    2.9494    1.5977   -0.2737 C   0  0  0  0  0  0  0  0  0  0  0  0
    4.2267    1.3109   -0.7233 C   0  0  0  0  0  0  0  0  0  0  0  0
    3.2498    0.1096    1.5730 C   0  0  0  0  0  0  0  0  0  0  0  0
    4.5315   -0.1860    1.1332 C   0  0  0  0  0  0  0  0  0  0  0  0
    5.0256    0.4174   -0.0166 C   0  0  0  0  0  0  0  0  0  0  0  0
    6.3873    0.0769   -0.5283 C   0  0  1  0  0  0  0  0  0  0  0  0
    6.9843    1.1232   -1.1142 F   0  0  0  0  0  0  0  0  0  0  0  0
    7.2079   -0.3497    0.4387 F   0  0  0  0  0  0  0  0  0  0  0  0
    6.3431   -0.8993   -1.4509 F   0  0  0  0  0  0  0  0  0  0  0  0
   -6.1044    2.4546    1.3225 H   0  0  0  0  0  0  0  0  0  0  0  0
   -6.2037    3.2710   -1.9415 H   0  0  0  0  0  0  0  0  0  0  0  0
   -6.0637    4.3700   -0.5543 H   0  0  0  0  0  0  0  0  0  0  0  0
   -4.6697    4.0849   -1.5943 H   0  0  0  0  0  0  0  0  0  0  0  0
   -4.0651    0.8043    1.4141 H   0  0  0  0  0  0  0  0  0  0  0  0
   -4.6377   -0.1458    0.0756 H   0  0  0  0  0  0  0  0  0  0  0  0
   -2.1954   -0.1539   -0.7928 H   0  0  0  0  0  0  0  0  0  0  0  0
   -1.4750   -1.8144    1.1016 H   0  0  0  0  0  0  0  0  0  0  0  0
   -3.0394   -1.5041    1.8146 H   0  0  0  0  0  0  0  0  0  0  0  0
   -3.0286   -4.9186    0.1695 H   0  0  0  0  0  0  0  0  0  0  0  0
   -5.2178   -2.7208    0.5314 H   0  0  0  0  0  0  0  0  0  0  0  0
   -1.5913    1.8278    0.7458 H   0  0  0  0  0  0  0  0  0  0  0  0
   -1.5440    0.6686    2.0571 H   0  0  0  0  0  0  0  0  0  0  0  0
    0.2321   -0.6205    0.7713 H   0  0  0  0  0  0  0  0  0  0  0  0
    0.1327    0.5835   -0.4973 H   0  0  0  0  0  0  0  0  0  0  0  0
    0.8097    2.3501    1.1588 H   0  0  0  0  0  0  0  0  0  0  0  0
    0.9428    1.1173    2.4015 H   0  0  0  0  0  0  0  0  0  0  0  0
    2.3382    2.3000   -0.8276 H   0  0  0  0  0  0  0  0  0  0  0  0
    4.5898    1.7938   -1.6212 H   0  0  0  0  0  0  0  0  0  0  0  0
    2.8800   -0.3630    2.4747 H   0  0  0  0  0  0  0  0  0  0  0  0
    5.1340   -0.8838    1.6990 H   0  0  0  0  0  0  0  0  0  0  0  0
 22 24  1  1
 23 22  1  0
 22 25  1  0
 22 21  1  0
 20 21  2  0
 20 19  1  0
 21 18  1  0
 19 16  2  0
 18 17  2  0
 16 17  1  0
 16 15  1  0
  5  3  1  0
  4  3  1  0
 15 14  1  0
  3  2  1  0
 13 14  1  0
 13  7  1  0
 12  9  2  0
  2  1  2  0
  2  6  1  0
  7  6  1  0
  7  8  1  0
  9  8  1  0
  9 11  1  6
  9 10  1  0
  4 26  1  0
  5 27  1  0
  5 28  1  0
  5 29  1  0
  6 30  1  0
  6 31  1  0
  7 32  1  6
  8 33  1  0
  8 34  1  0
 10 35  1  0
 11 36  1  0
 13 37  1  0
 13 38  1  0
 14 39  1  0
 14 40  1  0
 15 41  1  0
 15 42  1  0
 17 43  1  0
 18 44  1  0
 19 45  1  0
 20 46  1  0
M  END
