
     RDKit          3D

 17 16  0  0  0  0  0  0  0  0999 V2000
    2.8668   -0.1995    0.1018 C   0  0  0  0  0  0  0  0  0  0  0  0
    1.6043    0.4153   -0.4934 C   0  0  1  0  0  0  0  0  0  0  0  0
    0.3791   -0.2963    0.0732 C   0  0  0  0  0  0  0  0  0  0  0  0
    3.6525    0.4175    0.7698 O   0  0  0  0  0  0  0  0  0  0  0  0
    1.5687    1.7904   -0.3011 O   0  0  0  0  0  0  0  0  0  0  0  0
   -0.7563    0.2967   -0.5826 O   0  0  0  0  0  0  0  0  0  0  0  0
   -2.2164   -0.1270   -0.1415 S   0  0  1  0  0  0  0  0  0  0  0  0
   -3.0804    0.5868   -1.0356 O   0  0  0  0  0  0  0  0  0  0  0  0
   -2.2981   -1.5564    0.0173 O   0  0  0  0  0  0  0  0  0  0  0  0
   -2.3579    0.5741    1.2742 O   0  0  0  0  0  0  0  0  0  0  0  0
    2.9785   -1.4806   -0.2048 O   0  0  0  0  0  0  0  0  0  0  0  0
    1.6330    0.2437   -1.5748 H   0  0  0  0  0  0  0  0  0  0  0  0
    0.4121   -1.3654   -0.1340 H   0  0  0  0  0  0  0  0  0  0  0  0
    0.3154   -0.1424    1.1546 H   0  0  0  0  0  0  0  0  0  0  0  0
    1.6827    1.9888    0.6357 H   0  0  0  0  0  0  0  0  0  0  0  0
   -2.2727   -0.0466    2.0167 H   0  0  0  0  0  0  0  0  0  0  0  0
    3.7752   -1.8607    0.1969 H   0  0  0  0  0  0  0  0  0  0  0  0
  1  2  1  0
  1  4  2  0
  1 11  1  0
  2  3  1  0
  2  5  1  0
  2 12  1  6
  3  6  1  0
  3 13  1  0
  3 14  1  0
  5 15  1  0
  7  6  1  6
  7  8  2  0
  7  9  2  0
  7 10  1  0
 10 16  1  0
 11 17  1  0
M  END
