
     RDKit          3D

 63 66  0  0  0  0  0  0  0  0999 V2000
   -0.1553   -3.5472   -1.1910 C   0  0  0  0  0  0  0  0  0  0  0  0
    4.9143    5.0846   -0.2070 C   0  0  0  0  0  0  0  0  0  0  0  0
    4.4231    4.3737    0.8839 C   0  0  0  0  0  0  0  0  0  0  0  0
    4.5275    2.9949    0.9323 C   0  0  0  0  0  0  0  0  0  0  0  0
    0.4401   -1.9918    0.5344 C   0  0  0  0  0  0  0  0  0  0  0  0
   -0.0044   -1.2759    1.7771 C   0  0  2  0  0  0  0  0  0  0  0  0
   -3.2236    0.4637    0.7719 C   0  0  0  0  0  0  0  0  0  0  0  0
   -3.7100    1.0384   -0.5565 C   0  0  0  0  0  0  0  0  0  0  0  0
   -5.1545    1.4417   -0.4699 C   0  0  0  0  0  0  0  0  0  0  0  0
   -6.1488    0.5747   -0.9211 C   0  0  0  0  0  0  0  0  0  0  0  0
    1.2266   -3.4190   -1.6457 C   0  0  0  0  0  0  0  0  0  0  0  0
   -7.4949    0.8945   -0.8323 C   0  0  0  0  0  0  0  0  0  0  0  0
   -7.8793    2.1088   -0.2817 C   0  0  0  0  0  0  0  0  0  0  0  0
   -6.9153    2.9930    0.1779 C   0  0  0  0  0  0  0  0  0  0  0  0
   -5.5746    2.6501    0.0812 C   0  0  0  0  0  0  0  0  0  0  0  0
   -2.1381   -1.1304    2.9279 C   0  0  0  0  0  0  0  0  0  0  0  0
   -1.0527   -1.5567    3.9079 C   0  0  0  0  0  0  0  0  0  0  0  0
    0.0007   -2.1908    3.0095 C   0  0  0  0  0  0  0  0  0  0  0  0
    2.0711   -2.5985   -0.9605 C   0  0  0  0  0  0  0  0  0  0  0  0
    3.5030   -2.4018   -1.3515 C   0  0  0  0  0  0  0  0  0  0  0  0
    5.5738   -1.2734   -0.6597 C   0  0  0  0  0  0  0  0  0  0  0  0
    5.7332    0.1836   -1.0397 C   0  0  0  0  0  0  0  0  0  0  0  0
    5.1322    2.3002   -0.1178 C   0  0  0  0  0  0  0  0  0  0  0  0
    5.6277    3.0045   -1.2126 C   0  0  0  0  0  0  0  0  0  0  0  0
    5.5132    4.3908   -1.2460 C   0  0  0  0  0  0  0  0  0  0  0  0
    4.1943   -1.6486   -0.4836 N   0  0  0  0  0  0  0  0  0  0  0  0
    1.6531   -1.8905    0.1343 N   0  0  0  0  0  0  0  0  0  0  0  0
   -1.3844   -0.8199    1.7120 N   0  0  0  0  0  0  0  0  0  0  0  0
   -0.4552   -2.7995   -0.0900 N   0  0  0  0  0  0  0  0  0  0  0  0
   -0.9632   -4.2665   -1.7590 O   0  0  0  0  0  0  0  0  0  0  0  0
    1.5489   -4.1361   -2.7162 O   0  0  0  0  0  0  0  0  0  0  0  0
    5.1946    0.9598    0.0151 O   0  0  0  0  0  0  0  0  0  0  0  0
    3.9746   -2.8974   -2.3644 O   0  0  0  0  0  0  0  0  0  0  0  0
   -1.0214    0.3220   -0.1812 O   0  0  0  0  0  0  0  0  0  0  0  0
   -4.3972    3.7865    0.6710 Cl  0  0  0  0  0  0  0  0  0  0  0  0
    3.9523    4.8968    1.7063 H   0  0  0  0  0  0  0  0  0  0  0  0
    4.1409    2.4441    1.7809 H   0  0  0  0  0  0  0  0  0  0  0  0
    0.6848   -0.4390    1.9189 H   0  0  0  0  0  0  0  0  0  0  0  0
   -3.8671   -0.3674    1.0721 H   0  0  0  0  0  0  0  0  0  0  0  0
   -3.3147    1.2122    1.5661 H   0  0  0  0  0  0  0  0  0  0  0  0
   -3.0913    1.8857   -0.8533 H   0  0  0  0  0  0  0  0  0  0  0  0
   -3.6042    0.2844   -1.3381 H   0  0  0  0  0  0  0  0  0  0  0  0
   -5.8492   -0.3732   -1.3521 H   0  0  0  0  0  0  0  0  0  0  0  0
   -8.2405    0.1980   -1.1926 H   0  0  0  0  0  0  0  0  0  0  0  0
   -8.9254    2.3740   -0.2074 H   0  0  0  0  0  0  0  0  0  0  0  0
   -7.2040    3.9426    0.6078 H   0  0  0  0  0  0  0  0  0  0  0  0
   -2.8542   -1.9361    2.7466 H   0  0  0  0  0  0  0  0  0  0  0  0
   -2.6920   -0.2616    3.2819 H   0  0  0  0  0  0  0  0  0  0  0  0
   -0.6405   -0.6813    4.4135 H   0  0  0  0  0  0  0  0  0  0  0  0
   -1.4306   -2.2377    4.6686 H   0  0  0  0  0  0  0  0  0  0  0  0
   -0.2980   -3.2055    2.7344 H   0  0  0  0  0  0  0  0  0  0  0  0
    0.9892   -2.2448    3.4615 H   0  0  0  0  0  0  0  0  0  0  0  0
    6.0143   -1.8848   -1.4451 H   0  0  0  0  0  0  0  0  0  0  0  0
    6.1245   -1.4822    0.2600 H   0  0  0  0  0  0  0  0  0  0  0  0
    6.7954    0.4071   -1.1888 H   0  0  0  0  0  0  0  0  0  0  0  0
    5.2080    0.3870   -1.9791 H   0  0  0  0  0  0  0  0  0  0  0  0
    6.1029    2.4997   -2.0425 H   0  0  0  0  0  0  0  0  0  0  0  0
    5.9028    4.9259   -2.1026 H   0  0  0  0  0  0  0  0  0  0  0  0
    3.6831   -1.2692    0.2998 H   0  0  0  0  0  0  0  0  0  0  0  0
   -1.4087   -2.8436    0.2521 H   0  0  0  0  0  0  0  0  0  0  0  0
    0.7654   -4.6410   -2.9862 H   0  0  0  0  0  0  0  0  0  0  0  0
   -1.7866    0.0015    0.7172 C   0  0  0  0  0  0  0  0  0  0  0  0
    4.8301    6.1624   -0.2427 H   0  0  0  0  0  0  0  0  0  0  0  0
  2 25  2  0
  2  3  1  0
 25 24  1  0
  3  4  2  0
 24 23  2  0
  4 23  1  0
 23 32  1  0
 32 22  1  0
 22 21  1  0
  8  7  1  0
  8  9  1  0
 35 15  1  0
 34 62  2  0
  7 62  1  0
 21 26  1  0
  9 15  1  0
  9 10  2  0
 62 28  1  0
 15 14  2  0
 10 12  1  0
 26 20  1  0
 14 13  1  0
 28 16  1  0
 28  6  1  0
 12 13  2  0
 20 33  2  0
 20 19  1  0
 16 17  1  0
 27 19  1  0
 27  5  2  0
 19 11  2  0
  6  5  1  0
  6 18  1  0
  5 29  1  0
 11 31  1  0
 11  1  1  0
 29  1  1  0
 17 18  1  0
  1 30  2  0
  2 63  1  0
  3 36  1  0
  4 37  1  0
  6 38  1  1
  7 39  1  0
  7 40  1  0
  8 41  1  0
  8 42  1  0
 10 43  1  0
 12 44  1  0
 13 45  1  0
 14 46  1  0
 16 47  1  0
 16 48  1  0
 17 49  1  0
 17 50  1  0
 18 51  1  0
 18 52  1  0
 21 53  1  0
 21 54  1  0
 22 55  1  0
 22 56  1  0
 24 57  1  0
 25 58  1  0
 26 59  1  0
 29 60  1  0
 31 61  1  0
M  END
