
     RDKit          3D

 62 63  0  0  0  0  0  0  0  0999 V2000
   -2.0229   -1.3138    0.6416 C   0  0  1  0  0  0  0  0  0  0  0  0
   -2.6138   -2.4625   -0.1804 C   0  0  1  0  0  0  0  0  0  0  0  0
   -3.6218   -2.0189   -1.0566 O   0  0  0  0  0  0  0  0  0  0  0  0
   -1.5015   -3.2057   -0.9205 C   0  0  2  0  0  0  0  0  0  0  0  0
   -1.9978   -4.3158   -1.6254 O   0  0  0  0  0  0  0  0  0  0  0  0
   -0.4407   -3.6655    0.0683 C   0  0  2  0  0  0  0  0  0  0  0  0
   -1.0104   -4.6402    0.9097 O   0  0  0  0  0  0  0  0  0  0  0  0
    0.0698   -2.4427    0.8336 C   0  0  1  0  0  0  0  0  0  0  0  0
   -1.0018   -1.7589    1.4758 O   0  0  0  0  0  0  0  0  0  0  0  0
    1.0840   -2.7887    1.9037 C   0  0  0  0  0  0  0  0  0  0  0  0
    0.3736    5.5727   -0.8064 O   0  0  0  0  0  0  0  0  0  0  0  0
    7.8758   -1.5958   -0.0696 C   0  0  0  0  0  0  0  0  0  0  0  0
    6.9207   -0.4434   -0.3473 C   0  0  0  0  0  0  0  0  0  0  0  0
    5.4901   -0.7425    0.0830 C   0  0  0  0  0  0  0  0  0  0  0  0
    4.5244    0.3973   -0.2155 C   0  0  0  0  0  0  0  0  0  0  0  0
    3.0984    0.0983    0.2300 C   0  0  0  0  0  0  0  0  0  0  0  0
    2.1484    1.2199   -0.1363 C   0  0  0  0  0  0  0  0  0  0  0  0
   -0.1748    1.5848   -0.2534 C   0  0  2  0  0  0  0  0  0  0  0  0
   -0.1168    2.9416    0.1028 O   0  0  0  0  0  0  0  0  0  0  0  0
   -1.1046    3.7324   -0.5233 C   0  0  2  0  0  0  0  0  0  0  0  0
   -0.8331    5.1839   -0.1957 C   0  0  0  0  0  0  0  0  0  0  0  0
   -2.4954    3.2826   -0.0748 C   0  0  2  0  0  0  0  0  0  0  0  0
   -2.6886    3.4572    1.3083 O   0  0  0  0  0  0  0  0  0  0  0  0
   -2.6485    1.7985   -0.4098 C   0  0  2  0  0  0  0  0  0  0  0  0
   -3.8599    1.2594    0.0446 O   0  0  0  0  0  0  0  0  0  0  0  0
   -1.5078    0.9834    0.1945 C   0  0  1  0  0  0  0  0  0  0  0  0
   -1.5865   -0.3454   -0.2719 O   0  0  0  0  0  0  0  0  0  0  0  0
   -2.7859   -0.8949    1.3055 H   0  0  0  0  0  0  0  0  0  0  0  0
   -3.0963   -3.1542    0.5157 H   0  0  0  0  0  0  0  0  0  0  0  0
   -3.3209   -1.2007   -1.4687 H   0  0  0  0  0  0  0  0  0  0  0  0
   -1.0070   -2.5033   -1.6088 H   0  0  0  0  0  0  0  0  0  0  0  0
   -2.6582   -3.9904   -2.2458 H   0  0  0  0  0  0  0  0  0  0  0  0
    0.4091   -4.0783   -0.4953 H   0  0  0  0  0  0  0  0  0  0  0  0
   -0.3090   -5.0539    1.4207 H   0  0  0  0  0  0  0  0  0  0  0  0
    0.5517   -1.7794    0.1070 H   0  0  0  0  0  0  0  0  0  0  0  0
    0.6498   -3.3902    2.7039 H   0  0  0  0  0  0  0  0  0  0  0  0
    1.9160   -3.3452    1.4704 H   0  0  0  0  0  0  0  0  0  0  0  0
    1.4936   -1.8831    2.3500 H   0  0  0  0  0  0  0  0  0  0  0  0
    0.5466    6.4874   -0.5669 H   0  0  0  0  0  0  0  0  0  0  0  0
    7.9160   -1.8274    0.9963 H   0  0  0  0  0  0  0  0  0  0  0  0
    7.5604   -2.5024   -0.5900 H   0  0  0  0  0  0  0  0  0  0  0  0
    8.8902   -1.3637   -0.3959 H   0  0  0  0  0  0  0  0  0  0  0  0
    7.2721    0.4567    0.1667 H   0  0  0  0  0  0  0  0  0  0  0  0
    6.9346   -0.2066   -1.4158 H   0  0  0  0  0  0  0  0  0  0  0  0
    5.1424   -1.6520   -0.4193 H   0  0  0  0  0  0  0  0  0  0  0  0
    5.4714   -0.9641    1.1557 H   0  0  0  0  0  0  0  0  0  0  0  0
    4.8772    1.3108    0.2752 H   0  0  0  0  0  0  0  0  0  0  0  0
    4.5374    0.6066   -1.2908 H   0  0  0  0  0  0  0  0  0  0  0  0
    2.7555   -0.8334   -0.2308 H   0  0  0  0  0  0  0  0  0  0  0  0
    3.0768   -0.0605    1.3125 H   0  0  0  0  0  0  0  0  0  0  0  0
    2.1106    1.3342   -1.2279 H   0  0  0  0  0  0  0  0  0  0  0  0
    2.5126    2.1688    0.2731 H   0  0  0  0  0  0  0  0  0  0  0  0
   -0.0881    1.4923   -1.3548 H   0  0  0  0  0  0  0  0  0  0  0  0
   -1.0528    3.6112   -1.6184 H   0  0  0  0  0  0  0  0  0  0  0  0
   -0.7936    5.3123    0.8930 H   0  0  0  0  0  0  0  0  0  0  0  0
   -1.6830    5.7762   -0.5613 H   0  0  0  0  0  0  0  0  0  0  0  0
   -3.2411    3.8437   -0.6542 H   0  0  0  0  0  0  0  0  0  0  0  0
   -3.0452    4.3353    1.4653 H   0  0  0  0  0  0  0  0  0  0  0  0
   -2.5683    1.7122   -1.5042 H   0  0  0  0  0  0  0  0  0  0  0  0
   -4.5614    1.5260   -0.5571 H   0  0  0  0  0  0  0  0  0  0  0  0
   -1.5558    1.0220    1.2904 H   0  0  0  0  0  0  0  0  0  0  0  0
    0.8552    0.9246    0.3695 O   0  0  0  0  0  0  0  0  0  0  0  0
 10  8  1  0
  7  6  1  0
  8  9  1  0
  8  6  1  0
  9  1  1  0
  6  4  1  0
 23 22  1  0
 62 17  1  0
 62 18  1  0
  1  2  1  0
  1 27  1  0
 19 18  1  0
 19 20  1  0
 26 18  1  0
 26 27  1  0
 26 24  1  0
 17 16  1  0
 25 24  1  0
 21 20  1  0
 21 11  1  0
 22 24  1  0
 22 20  1  0
  4  2  1  0
  4  5  1  0
  2  3  1  0
 16 15  1  0
 15 14  1  0
 14 13  1  0
 13 12  1  0
  1 28  1  1
  2 29  1  1
  3 30  1  0
  4 31  1  6
  5 32  1  0
  6 33  1  6
  7 34  1  0
  8 35  1  6
 10 36  1  0
 10 37  1  0
 10 38  1  0
 11 39  1  0
 12 40  1  0
 12 41  1  0
 12 42  1  0
 13 43  1  0
 13 44  1  0
 14 45  1  0
 14 46  1  0
 15 47  1  0
 15 48  1  0
 16 49  1  0
 16 50  1  0
 17 51  1  0
 17 52  1  0
 18 53  1  6
 20 54  1  6
 21 55  1  0
 21 56  1  0
 22 57  1  6
 23 58  1  0
 24 59  1  6
 25 60  1  0
 26 61  1  1
M  END
