
     RDKit          3D

 17 18  0  0  0  0  0  0  0  0999 V2000
    3.1856   -0.6408   -0.1790 N   0  0  0  0  0  0  0  0  0  0  0  0
    1.6167    1.1857   -0.0753 C   0  0  0  0  0  0  0  0  0  0  0  0
    0.3392    1.6813   -0.0392 C   0  0  0  0  0  0  0  0  0  0  0  0
   -2.1538    0.8642    0.0259 C   0  0  0  0  0  0  0  0  0  0  0  0
    0.8285   -1.1200   -0.0541 C   0  0  0  0  0  0  0  0  0  0  0  0
   -2.6926   -0.3279    0.0405 N   0  0  0  0  0  0  0  0  0  0  0  0
   -1.6764   -1.2041    0.0123 N   0  0  0  0  0  0  0  0  0  0  0  0
    1.8793   -0.2146   -0.0850 C   0  0  0  0  0  0  0  0  0  0  0  0
   -0.7366    0.7821   -0.0129 C   0  0  0  0  0  0  0  0  0  0  0  0
   -0.4679   -0.5978   -0.0212 C   0  0  0  0  0  0  0  0  0  0  0  0
    3.8820    0.0008    0.1635 H   0  0  0  0  0  0  0  0  0  0  0  0
    3.3669   -1.5861    0.1177 H   0  0  0  0  0  0  0  0  0  0  0  0
    0.1707    2.7507   -0.0311 H   0  0  0  0  0  0  0  0  0  0  0  0
   -2.7749    1.7473    0.0439 H   0  0  0  0  0  0  0  0  0  0  0  0
    1.0069   -2.1881   -0.0560 H   0  0  0  0  0  0  0  0  0  0  0  0
   -1.8727   -2.1909    0.0169 H   0  0  0  0  0  0  0  0  0  0  0  0
    2.4571    1.8687   -0.0974 H   0  0  0  0  0  0  0  0  0  0  0  0
  1  8  1  0
  2  3  2  0
  2  8  1  0
  3  9  1  0
  4  6  2  0
  4  9  1  0
  5  8  2  0
  5 10  1  0
  6  7  1  0
  7 10  1  0
  9 10  2  0
  1 11  1  0
  1 12  1  0
  2 17  1  0
  3 13  1  0
  4 14  1  0
  5 15  1  0
  7 16  1  0
M  END
