
     RDKit          3D

 29 30  0  0  0  0  0  0  0  0999 V2000
    2.9230   -0.9016   -0.0442 C   0  0  0  0  0  0  0  0  0  0  0  0
   -4.4657   -0.2308   -0.0065 C   0  0  0  0  0  0  0  0  0  0  0  0
    5.1246   -0.0220   -0.0284 C   0  0  0  0  0  0  0  0  0  0  0  0
    5.7704    1.3351    0.1027 C   0  0  0  0  0  0  0  0  0  0  0  0
   -0.7345   -0.6039   -0.0247 C   0  0  0  0  0  0  0  0  0  0  0  0
   -0.3083    0.7439   -0.0342 C   0  0  0  0  0  0  0  0  0  0  0  0
    0.4386   -1.4073   -0.0279 C   0  0  0  0  0  0  0  0  0  0  0  0
   -2.1006   -0.8934   -0.0155 C   0  0  0  0  0  0  0  0  0  0  0  0
    1.0455    0.7503   -0.0391 N   0  0  0  0  0  0  0  0  0  0  0  0
   -1.2224    1.8001   -0.0393 C   0  0  0  0  0  0  0  0  0  0  0  0
    1.5015   -0.5458   -0.0368 C   0  0  0  0  0  0  0  0  0  0  0  0
   -3.0168    0.1425   -0.0181 C   0  0  0  0  0  0  0  0  0  0  0  0
   -2.5602    1.4819   -0.0324 C   0  0  0  0  0  0  0  0  0  0  0  0
    3.6987    0.1680   -0.0147 O   0  0  0  0  0  0  0  0  0  0  0  0
    3.3194   -2.0420   -0.0724 O   0  0  0  0  0  0  0  0  0  0  0  0
   -5.3628    0.7670    0.0061 N   0  0  0  0  0  0  0  0  0  0  0  0
   -4.8116   -1.4067   -0.0083 O   0  0  0  0  0  0  0  0  0  0  0  0
    5.4148   -0.5061   -0.9628 H   0  0  0  0  0  0  0  0  0  0  0  0
    5.4152   -0.6743    0.7968 H   0  0  0  0  0  0  0  0  0  0  0  0
    6.8531    1.2145    0.0883 H   0  0  0  0  0  0  0  0  0  0  0  0
    5.4966    1.9931   -0.7217 H   0  0  0  0  0  0  0  0  0  0  0  0
    5.5001    1.8182    1.0414 H   0  0  0  0  0  0  0  0  0  0  0  0
    0.4936   -2.4839   -0.0241 H   0  0  0  0  0  0  0  0  0  0  0  0
   -2.4400   -1.9207   -0.0050 H   0  0  0  0  0  0  0  0  0  0  0  0
    1.6275    1.5724   -0.0490 H   0  0  0  0  0  0  0  0  0  0  0  0
   -0.8969    2.8317   -0.0498 H   0  0  0  0  0  0  0  0  0  0  0  0
   -3.2587    2.3075   -0.0398 H   0  0  0  0  0  0  0  0  0  0  0  0
   -5.1202    1.7402    0.0220 H   0  0  0  0  0  0  0  0  0  0  0  0
   -6.3449    0.5463    0.0189 H   0  0  0  0  0  0  0  0  0  0  0  0
 17  2  2  0
  2 16  1  0
  2 12  1  0
 13 12  2  0
 13 10  1  0
 12  8  1  0
 10  6  2  0
  8  5  2  0
  6  5  1  0
  6  9  1  0
  5  7  1  0
  9 11  1  0
  7 11  2  0
 11  1  1  0
  1 15  2  0
  1 14  1  0
 14  3  1  0
  3  4  1  0
  3 18  1  0
  3 19  1  0
  4 20  1  0
  4 21  1  0
  4 22  1  0
  7 23  1  0
  8 24  1  0
  9 25  1  0
 10 26  1  0
 13 27  1  0
 16 28  1  0
 16 29  1  0
M  END
