
     RDKit          3D

 19 21  0  0  0  0  0  0  0  0999 V2000
    0.9486    0.9034   -0.0025 C   0  0  0  0  0  0  0  0  0  0  0  0
   -0.2734   -1.1872   -0.0131 C   0  0  0  0  0  0  0  0  0  0  0  0
    2.1855   -1.2425   -0.0068 C   0  0  0  0  0  0  0  0  0  0  0  0
   -1.2932    0.9733   -0.0057 C   0  0  0  0  0  0  0  0  0  0  0  0
    3.3635   -0.5611   -0.0011 C   0  0  0  0  0  0  0  0  0  0  0  0
    3.3656    0.8558    0.0028 C   0  0  0  0  0  0  0  0  0  0  0  0
    2.2023    1.5666    0.0020 C   0  0  0  0  0  0  0  0  0  0  0  0
    0.9587   -0.5292   -0.0076 C   0  0  0  0  0  0  0  0  0  0  0  0
   -1.3554   -0.4001   -0.0114 N   0  0  0  0  0  0  0  0  0  0  0  0
   -0.1703    1.6426   -0.0014 N   0  0  0  0  0  0  0  0  0  0  0  0
   -2.5599    1.3916   -0.0051 N   0  0  0  0  0  0  0  0  0  0  0  0
   -3.3087    0.3109   -0.0101 N   0  0  0  0  0  0  0  0  0  0  0  0
   -2.6468   -0.7822   -0.0142 N   0  0  0  0  0  0  0  0  0  0  0  0
   -0.3895   -2.4799   -0.0193 O   0  0  0  0  0  0  0  0  0  0  0  0
    2.1805   -2.3237   -0.0103 H   0  0  0  0  0  0  0  0  0  0  0  0
    4.3014   -1.0986    0.0004 H   0  0  0  0  0  0  0  0  0  0  0  0
    4.3113    1.3816    0.0070 H   0  0  0  0  0  0  0  0  0  0  0  0
    2.2071    2.6481    0.0055 H   0  0  0  0  0  0  0  0  0  0  0  0
   -1.3118   -2.7844   -0.0261 H   0  0  0  0  0  0  0  0  0  0  0  0
  5  6  1  0
  5  3  2  0
  6  7  2  0
  3  8  1  0
  7  1  1  0
  8  1  1  0
  8  2  2  0
  1 10  2  0
 14  2  1  0
  2  9  1  0
 10  4  1  0
  9  4  1  0
  9 13  1  0
  4 11  2  0
 13 12  2  0
 11 12  1  0
  3 15  1  0
  5 16  1  0
  6 17  1  0
  7 18  1  0
 14 19  1  0
M  END
