
     RDKit          3D

 19 19  0  0  0  0  0  0  0  0999 V2000
    2.8014    0.1158   -0.0231 C   0  0  0  0  0  0  0  0  0  0  0  0
    3.0052    1.2990   -0.0233 O   0  0  0  0  0  0  0  0  0  0  0  0
    1.4371   -0.5298   -0.0258 C   0  0  0  0  0  0  0  0  0  0  0  0
    0.4836    0.4944   -0.0216 O   0  0  0  0  0  0  0  0  0  0  0  0
   -0.8256    0.1570   -0.0236 C   0  0  0  0  0  0  0  0  0  0  0  0
   -1.7284    1.2216   -0.0128 C   0  0  0  0  0  0  0  0  0  0  0  0
   -3.0897    0.9738   -0.0139 C   0  0  0  0  0  0  0  0  0  0  0  0
   -3.5735   -0.3308   -0.0257 C   0  0  0  0  0  0  0  0  0  0  0  0
   -2.6725   -1.3827   -0.0370 C   0  0  0  0  0  0  0  0  0  0  0  0
   -1.3001   -1.1512   -0.0361 C   0  0  0  0  0  0  0  0  0  0  0  0
    1.3526   -1.1721   -0.9113 H   0  0  0  0  0  0  0  0  0  0  0  0
    1.3512   -1.1803    0.8536 H   0  0  0  0  0  0  0  0  0  0  0  0
   -1.3537    2.2377   -0.0038 H   0  0  0  0  0  0  0  0  0  0  0  0
   -3.7792    1.8079   -0.0053 H   0  0  0  0  0  0  0  0  0  0  0  0
   -4.6387   -0.5195   -0.0261 H   0  0  0  0  0  0  0  0  0  0  0  0
   -3.0294   -2.4045   -0.0460 H   0  0  0  0  0  0  0  0  0  0  0  0
   -0.6295   -1.9994   -0.0452 H   0  0  0  0  0  0  0  0  0  0  0  0
    3.7453   -0.8133   -0.0218 O   0  0  0  0  0  0  0  0  0  0  0  0
    4.6234   -0.4029   -0.0230 H   0  0  0  0  0  0  0  0  0  0  0  0
  9 10  1  0
  9  8  2  0
 10  5  2  0
  8  7  1  0
  5  4  1  0
  5  6  1  0
  4  3  1  0
  7  6  2  0
  1  3  1  0
  1  2  2  0
  3 11  1  0
  3 12  1  0
  6 13  1  0
  7 14  1  0
  8 15  1  0
  9 16  1  0
 10 17  1  0
  1 18  1  0
 18 19  1  0
M  END
