
     RDKit          3D

 27 28  0  0  0  0  0  0  0  0999 V2000
   -3.1622   -0.5771   -0.3163 C   0  0  1  0  0  0  0  0  0  0  0  0
   -3.7350   -0.2664    1.0535 C   0  0  0  0  0  0  0  0  0  0  0  0
    2.7191    0.4426   -0.7995 C   0  0  0  0  0  0  0  0  0  0  0  0
    3.8354   -0.3796   -0.7925 C   0  0  0  0  0  0  0  0  0  0  0  0
    3.9086   -1.4525    0.0865 C   0  0  0  0  0  0  0  0  0  0  0  0
    2.8679   -1.6999    0.9715 C   0  0  0  0  0  0  0  0  0  0  0  0
    1.7530   -0.8746    0.9871 C   0  0  0  0  0  0  0  0  0  0  0  0
    1.6890    0.1849    0.0938 C   0  0  0  0  0  0  0  0  0  0  0  0
    0.5522    1.0301    0.0947 N   0  0  0  0  0  0  0  0  0  0  0  0
   -0.7522    0.7292   -0.0242 C   0  0  0  0  0  0  0  0  0  0  0  0
   -1.4242    1.8562    0.0024 N   0  0  0  0  0  0  0  0  0  0  0  0
   -0.5150    2.8252    0.1322 N   0  0  0  0  0  0  0  0  0  0  0  0
    0.6615    2.3579    0.1871 N   0  0  0  0  0  0  0  0  0  0  0  0
   -1.3504   -0.8794   -0.2300 S   0  0  0  0  0  0  0  0  0  0  0  0
   -3.7627   -1.8354   -0.9252 C   0  0  0  0  0  0  0  0  0  0  0  0
   -3.6048   -1.1096    1.7319 H   0  0  0  0  0  0  0  0  0  0  0  0
   -3.2738    0.6133    1.4985 H   0  0  0  0  0  0  0  0  0  0  0  0
   -4.8045   -0.0686    0.9609 H   0  0  0  0  0  0  0  0  0  0  0  0
    4.6452   -0.1844   -1.4822 H   0  0  0  0  0  0  0  0  0  0  0  0
    4.7791   -2.0947    0.0833 H   0  0  0  0  0  0  0  0  0  0  0  0
    2.9252   -2.5302    1.6619 H   0  0  0  0  0  0  0  0  0  0  0  0
    0.9538   -1.0493    1.6956 H   0  0  0  0  0  0  0  0  0  0  0  0
   -4.8433   -1.7124   -1.0016 H   0  0  0  0  0  0  0  0  0  0  0  0
   -3.3754   -2.0286   -1.9249 H   0  0  0  0  0  0  0  0  0  0  0  0
   -3.5731   -2.7114   -0.3027 H   0  0  0  0  0  0  0  0  0  0  0  0
   -3.3056    0.2649   -0.9942 H   0  0  0  0  0  0  0  0  0  0  0  0
    2.6473    1.2712   -1.4911 H   0  0  0  0  0  0  0  0  0  0  0  0
  1  2  1  0
  1 14  1  0
  1 15  1  0
  3  4  2  0
  3  8  1  0
  4  5  1  0
  5  6  2  0
  6  7  1  0
  7  8  2  0
  8  9  1  0
  9 10  1  0
  9 13  1  0
 10 11  2  0
 10 14  1  0
 11 12  1  0
 12 13  2  0
  1 26  1  6
  2 16  1  0
  2 17  1  0
  2 18  1  0
  3 27  1  0
  4 19  1  0
  5 20  1  0
  6 21  1  0
  7 22  1  0
 15 23  1  0
 15 24  1  0
 15 25  1  0
M  END
