
     RDKit          3D

 46 45  0  0  0  0  0  0  0  0999 V2000
    1.2309   -0.0307   -0.4866 C   0  0  0  0  0  0  0  0  0  0  0  0
   -0.0959   -0.7453   -0.4530 C   0  0  0  0  0  0  0  0  0  0  0  0
   -1.2537    0.2170   -0.1822 C   0  0  1  0  0  0  0  0  0  0  0  0
   -2.5846   -0.5239   -0.2102 C   0  0  0  0  0  0  0  0  0  0  0  0
   -3.7998    0.3807   -0.0497 C   0  0  0  0  0  0  0  0  0  0  0  0
   -5.1121   -0.3871   -0.1500 C   0  0  0  0  0  0  0  0  0  0  0  0
   -6.3425    0.5027   -0.0254 C   0  0  0  0  0  0  0  0  0  0  0  0
   -7.6516   -0.2687   -0.1346 C   0  0  0  0  0  0  0  0  0  0  0  0
   -8.8873    0.6180   -0.0380 C   0  0  0  0  0  0  0  0  0  0  0  0
  -10.1864   -0.1669   -0.1561 C   0  0  0  0  0  0  0  0  0  0  0  0
    1.4431    0.9651   -1.1303 O   0  0  0  0  0  0  0  0  0  0  0  0
   -1.0458    0.9248    1.0215 O   0  0  0  0  0  0  0  0  0  0  0  0
    2.4626   -0.8186    0.5003 S   0  0  0  0  0  0  0  0  0  0  0  0
    3.9149    0.2205    0.1792 C   0  0  0  0  0  0  0  0  0  0  0  0
    5.1246   -0.4055    0.8688 C   0  0  0  0  0  0  0  0  0  0  0  0
    6.3116    0.3906    0.6776 N   0  0  0  0  0  0  0  0  0  0  0  0
    7.0772    0.3184   -0.4263 C   0  0  0  0  0  0  0  0  0  0  0  0
    8.2660    1.2457   -0.4519 C   0  0  0  0  0  0  0  0  0  0  0  0
    6.8372   -0.4530   -1.3453 O   0  0  0  0  0  0  0  0  0  0  0  0
   -0.2313   -1.2174   -1.4309 H   0  0  0  0  0  0  0  0  0  0  0  0
   -0.0879   -1.5528    0.2852 H   0  0  0  0  0  0  0  0  0  0  0  0
   -1.2622    0.9769   -0.9692 H   0  0  0  0  0  0  0  0  0  0  0  0
   -2.6572   -1.0599   -1.1620 H   0  0  0  0  0  0  0  0  0  0  0  0
   -2.5895   -1.2952    0.5702 H   0  0  0  0  0  0  0  0  0  0  0  0
   -3.7566    0.8996    0.9122 H   0  0  0  0  0  0  0  0  0  0  0  0
   -3.7764    1.1595   -0.8202 H   0  0  0  0  0  0  0  0  0  0  0  0
   -5.1476   -0.9205   -1.1067 H   0  0  0  0  0  0  0  0  0  0  0  0
   -5.1416   -1.1591    0.6271 H   0  0  0  0  0  0  0  0  0  0  0  0
   -6.3126    1.0356    0.9318 H   0  0  0  0  0  0  0  0  0  0  0  0
   -6.3108    1.2748   -0.8024 H   0  0  0  0  0  0  0  0  0  0  0  0
   -7.6725   -0.8139   -1.0853 H   0  0  0  0  0  0  0  0  0  0  0  0
   -7.6913   -1.0315    0.6512 H   0  0  0  0  0  0  0  0  0  0  0  0
   -8.8704    1.1614    0.9122 H   0  0  0  0  0  0  0  0  0  0  0  0
   -8.8468    1.3797   -0.8228 H   0  0  0  0  0  0  0  0  0  0  0  0
  -11.0589    0.4845   -0.0926 H   0  0  0  0  0  0  0  0  0  0  0  0
  -10.2390   -0.6971   -1.1091 H   0  0  0  0  0  0  0  0  0  0  0  0
  -10.2717   -0.9114    0.6380 H   0  0  0  0  0  0  0  0  0  0  0  0
   -1.1318    0.3072    1.7562 H   0  0  0  0  0  0  0  0  0  0  0  0
    4.0762    0.2799   -0.8964 H   0  0  0  0  0  0  0  0  0  0  0  0
    3.7299    1.2229    0.5645 H   0  0  0  0  0  0  0  0  0  0  0  0
    4.9490   -0.4866    1.9412 H   0  0  0  0  0  0  0  0  0  0  0  0
    5.2966   -1.4136    0.4902 H   0  0  0  0  0  0  0  0  0  0  0  0
    6.5332    1.0748    1.3815 H   0  0  0  0  0  0  0  0  0  0  0  0
    8.3252    1.9032    0.4131 H   0  0  0  0  0  0  0  0  0  0  0  0
    9.1824    0.6573   -0.5000 H   0  0  0  0  0  0  0  0  0  0  0  0
    8.2268    1.8582   -1.3523 H   0  0  0  0  0  0  0  0  0  0  0  0
  1  2  1  0
  1 11  2  0
  1 13  1  0
  2  3  1  0
  3  4  1  0
  3 12  1  0
  4  5  1  0
  5  6  1  0
  6  7  1  0
  7  8  1  0
  8  9  1  0
  9 10  1  0
 13 14  1  0
 14 15  1  0
 15 16  1  0
 16 17  1  0
 17 18  1  0
 17 19  2  0
  2 20  1  0
  2 21  1  0
  3 22  1  6
  4 23  1  0
  4 24  1  0
  5 25  1  0
  5 26  1  0
  6 27  1  0
  6 28  1  0
  7 29  1  0
  7 30  1  0
  8 31  1  0
  8 32  1  0
  9 33  1  0
  9 34  1  0
 10 35  1  0
 10 36  1  0
 10 37  1  0
 12 38  1  0
 14 39  1  0
 14 40  1  0
 15 41  1  0
 15 42  1  0
 16 43  1  0
 18 44  1  0
 18 45  1  0
 18 46  1  0
M  END
