
     RDKit          3D

 37 36  0  0  0  0  0  0  0  0999 V2000
    6.1185   -1.3510   -0.4834 C   0  0  0  0  0  0  0  0  0  0  0  0
   -6.0797    0.2909   -0.7022 C   0  0  0  0  0  0  0  0  0  0  0  0
   -0.0797   -0.7490    1.3766 C   0  0  0  0  0  0  0  0  0  0  0  0
   -4.7986   -1.2197    0.8289 N   0  0  0  0  0  0  0  0  0  0  0  0
    4.7236    0.3137    0.3699 C   0  0  0  0  0  0  0  0  0  0  0  0
    3.4668    1.1014    0.1059 C   0  0  0  0  0  0  0  0  0  0  0  0
   -3.6272    0.5271   -0.4070 C   0  0  0  0  0  0  0  0  0  0  0  0
    1.1401    0.9372   -0.0483 C   0  0  0  0  0  0  0  0  0  0  0  0
   -1.3074    0.7399   -0.2422 C   0  0  0  0  0  0  0  0  0  0  0  0
    4.9550   -0.5903   -0.6794 O   0  0  0  0  0  0  0  0  0  0  0  0
    2.3511    0.2483    0.1302 O   0  0  0  0  0  0  0  0  0  0  0  0
   -2.4013   -0.1390   -0.2641 O   0  0  0  0  0  0  0  0  0  0  0  0
   -4.7805   -0.4611   -0.4147 C   0  0  2  0  0  0  0  0  0  0  0  0
   -0.0267   -0.0368    0.0291 C   0  0  2  0  0  0  0  0  0  0  0  0
    6.0714   -1.9470    0.4362 H   0  0  0  0  0  0  0  0  0  0  0  0
    6.2245   -2.0307   -1.3282 H   0  0  0  0  0  0  0  0  0  0  0  0
    7.0182   -0.7256   -0.4289 H   0  0  0  0  0  0  0  0  0  0  0  0
   -6.0549    0.7924   -1.6716 H   0  0  0  0  0  0  0  0  0  0  0  0
   -6.9280   -0.3948   -0.7087 H   0  0  0  0  0  0  0  0  0  0  0  0
   -0.1904   -0.0266    2.1900 H   0  0  0  0  0  0  0  0  0  0  0  0
   -0.9224   -1.4373    1.4268 H   0  0  0  0  0  0  0  0  0  0  0  0
    0.8289   -1.3207    1.5616 H   0  0  0  0  0  0  0  0  0  0  0  0
   -4.9547   -0.5850    1.6050 H   0  0  0  0  0  0  0  0  0  0  0  0
   -5.5983   -1.8415    0.8243 H   0  0  0  0  0  0  0  0  0  0  0  0
    5.5548    1.0263    0.4694 H   0  0  0  0  0  0  0  0  0  0  0  0
    4.6409   -0.2123    1.3325 H   0  0  0  0  0  0  0  0  0  0  0  0
    3.3858    1.8781    0.8792 H   0  0  0  0  0  0  0  0  0  0  0  0
    3.5438    1.6226   -0.8595 H   0  0  0  0  0  0  0  0  0  0  0  0
   -3.7746    1.2471    0.4150 H   0  0  0  0  0  0  0  0  0  0  0  0
   -3.6475    1.1107   -1.3393 H   0  0  0  0  0  0  0  0  0  0  0  0
    1.0216    1.7134    0.7244 H   0  0  0  0  0  0  0  0  0  0  0  0
    1.1332    1.4549   -1.0195 H   0  0  0  0  0  0  0  0  0  0  0  0
   -1.2280    1.2784   -1.1993 H   0  0  0  0  0  0  0  0  0  0  0  0
   -1.4423    1.5051    0.5389 H   0  0  0  0  0  0  0  0  0  0  0  0
   -4.6125   -1.1739   -1.2297 H   0  0  0  0  0  0  0  0  0  0  0  0
    0.0971   -0.7780   -0.7692 H   0  0  0  0  0  0  0  0  0  0  0  0
   -6.2693    1.0488    0.0621 H   0  0  0  0  0  0  0  0  0  0  0  0
  1 10  1  0
  2 13  1  0
  3 14  1  0
  4 13  1  0
  5  6  1  0
  5 10  1  0
  6 11  1  0
  7 12  1  0
  7 13  1  0
  8 11  1  0
  8 14  1  0
  9 12  1  0
  9 14  1  0
  1 15  1  0
  1 16  1  0
  1 17  1  0
  2 37  1  0
  2 18  1  0
  2 19  1  0
  3 20  1  0
  3 21  1  0
  3 22  1  0
  4 23  1  0
  4 24  1  0
  5 25  1  0
  5 26  1  0
  6 27  1  0
  6 28  1  0
  7 29  1  0
  7 30  1  0
  8 31  1  0
  8 32  1  0
  9 33  1  0
  9 34  1  0
 13 35  1  6
 14 36  1  6
M  END
