
     RDKit          3D

 44 46  0  0  0  0  0  0  0  0999 V2000
    2.5466    0.4949    0.2227 C   0  0  0  0  0  0  0  0  0  0  0  0
    3.1529    2.6699    0.3678 C   0  0  0  0  0  0  0  0  0  0  0  0
    1.8260    3.0699    0.3011 C   0  0  0  0  0  0  0  0  0  0  0  0
    2.8429   -3.3605    0.0684 C   0  0  0  0  0  0  0  0  0  0  0  0
   -7.1722   -1.4727    0.2055 O   0  0  0  0  0  0  0  0  0  0  0  0
   -6.0693   -0.7668    0.4291 C   0  0  0  0  0  0  0  0  0  0  0  0
   -5.9076   -0.0796    1.4045 O   0  0  0  0  0  0  0  0  0  0  0  0
   -3.8359   -0.1125   -0.4917 C   0  0  0  0  0  0  0  0  0  0  0  0
   -3.7695    1.1871   -0.9824 C   0  0  0  0  0  0  0  0  0  0  0  0
   -2.6362    1.9603   -0.8022 C   0  0  0  0  0  0  0  0  0  0  0  0
   -2.7338   -0.6041    0.1968 C   0  0  0  0  0  0  0  0  0  0  0  0
   -1.5944    0.1610    0.3975 C   0  0  0  0  0  0  0  0  0  0  0  0
   -1.5318    1.4583   -0.1113 C   0  0  0  0  0  0  0  0  0  0  0  0
    0.8794    2.0280    0.1688 C   0  0  0  0  0  0  0  0  0  0  0  0
    1.4230    4.5168    0.3088 C   0  0  0  0  0  0  0  0  0  0  0  0
    1.2211    5.0829   -1.0984 C   0  0  0  0  0  0  0  0  0  0  0  0
    4.2656    3.6668    0.4868 C   0  0  0  0  0  0  0  0  0  0  0  0
    3.5172    1.3814    0.3346 N   0  0  0  0  0  0  0  0  0  0  0  0
    1.2506    0.7552    0.1332 N   0  0  0  0  0  0  0  0  0  0  0  0
    2.9139   -0.9153    0.1881 C   0  0  0  0  0  0  0  0  0  0  0  0
    4.1504   -1.4866    0.2814 C   0  0  0  0  0  0  0  0  0  0  0  0
    4.1161   -2.9008    0.2130 C   0  0  0  0  0  0  0  0  0  0  0  0
    1.6740   -2.1029    0.0142 S   0  0  0  0  0  0  0  0  0  0  0  0
   -7.8025   -1.3429    0.9301 H   0  0  0  0  0  0  0  0  0  0  0  0
   -4.8123   -2.0094   -0.7397 H   0  0  0  0  0  0  0  0  0  0  0  0
   -5.5564   -0.7084   -1.6312 H   0  0  0  0  0  0  0  0  0  0  0  0
   -4.6090    1.6042   -1.5256 H   0  0  0  0  0  0  0  0  0  0  0  0
   -2.6056    2.9649   -1.2078 H   0  0  0  0  0  0  0  0  0  0  0  0
   -2.7586   -1.6110    0.5970 H   0  0  0  0  0  0  0  0  0  0  0  0
   -0.7660   -0.2571    0.9457 H   0  0  0  0  0  0  0  0  0  0  0  0
   -0.6735    3.2972   -0.0279 H   0  0  0  0  0  0  0  0  0  0  0  0
    0.5127    4.6560    0.8995 H   0  0  0  0  0  0  0  0  0  0  0  0
    2.1802    5.1060    0.8256 H   0  0  0  0  0  0  0  0  0  0  0  0
    2.1402    5.0191   -1.6811 H   0  0  0  0  0  0  0  0  0  0  0  0
    0.4493    4.5448   -1.6511 H   0  0  0  0  0  0  0  0  0  0  0  0
    0.9237    6.1304   -1.0521 H   0  0  0  0  0  0  0  0  0  0  0  0
    4.2266    4.1877    1.4454 H   0  0  0  0  0  0  0  0  0  0  0  0
    5.2279    3.1657    0.4137 H   0  0  0  0  0  0  0  0  0  0  0  0
    4.2102    4.4276   -0.2922 H   0  0  0  0  0  0  0  0  0  0  0  0
    5.0567   -0.9105    0.3989 H   0  0  0  0  0  0  0  0  0  0  0  0
    4.9853   -3.5391    0.2686 H   0  0  0  0  0  0  0  0  0  0  0  0
   -0.4447    2.3211    0.0662 N   0  0  0  0  0  0  0  0  0  0  0  0
    2.3558   -4.9917   -0.0553 Cl  0  0  0  0  0  0  0  0  0  0  0  0
   -5.0653   -0.9465   -0.6837 C   0  0  0  0  0  0  0  0  0  0  0  0
 43  4  1  0
 22  4  2  0
 22 21  1  0
  4 23  1  0
 21 20  2  0
 20 23  1  0
 20  1  1  0
 18  1  1  0
 18  2  2  0
  1 19  2  0
 16 15  1  0
 17  2  1  0
  2  3  1  0
 19 14  1  0
 10  9  1  0
 10 13  2  0
  3 14  2  0
  3 15  1  0
 14 42  1  0
  9  8  2  0
 42 13  1  0
 13 12  1  0
  8 44  1  0
  8 11  1  0
  7  6  2  0
 44  6  1  0
 12 11  2  0
  6  5  1  0
  5 24  1  0
 44 25  1  0
 44 26  1  0
  9 27  1  0
 10 28  1  0
 11 29  1  0
 12 30  1  0
 42 31  1  0
 15 32  1  0
 15 33  1  0
 16 34  1  0
 16 35  1  0
 16 36  1  0
 17 37  1  0
 17 38  1  0
 17 39  1  0
 21 40  1  0
 22 41  1  0
M  END
