
     RDKit          3D

 56 59  0  0  0  0  0  0  0  0999 V2000
   -2.8480    0.0266   -1.1754 C   0  0  0  0  0  0  0  0  0  0  0  0
   -1.7304   -0.0294   -1.9885 C   0  0  0  0  0  0  0  0  0  0  0  0
   -1.8603    0.2445   -3.3643 C   0  0  0  0  0  0  0  0  0  0  0  0
   -3.0519    0.5297   -3.8938 N   0  0  0  0  0  0  0  0  0  0  0  0
   -4.1126    0.5835   -3.1023 C   0  0  0  0  0  0  0  0  0  0  0  0
   -4.0825    0.3489   -1.7417 C   0  0  0  0  0  0  0  0  0  0  0  0
   -2.7158   -0.2636    0.2716 C   0  0  0  0  0  0  0  0  0  0  0  0
   -3.8151   -0.5847    1.0673 C   0  0  0  0  0  0  0  0  0  0  0  0
   -3.5508   -0.8377    2.3993 C   0  0  0  0  0  0  0  0  0  0  0  0
   -2.3342   -0.7872    2.9230 N   0  0  0  0  0  0  0  0  0  0  0  0
   -1.3523   -0.4777    2.0827 C   0  0  0  0  0  0  0  0  0  0  0  0
   -1.4964   -0.2156    0.7828 N   0  0  0  0  0  0  0  0  0  0  0  0
   -0.0665   -0.4024    2.5237 N   0  0  0  0  0  0  0  0  0  0  0  0
    0.4912   -0.5870    3.7821 C   0  0  0  0  0  0  0  0  0  0  0  0
    1.8787   -0.4326    3.8673 C   0  0  0  0  0  0  0  0  0  0  0  0
    2.5234   -0.5937    5.0778 C   0  0  0  0  0  0  0  0  0  0  0  0
    1.8506   -0.9130    6.2553 C   0  0  0  0  0  0  0  0  0  0  0  0
    0.4725   -1.0596    6.1406 C   0  0  0  0  0  0  0  0  0  0  0  0
   -0.2126   -0.9050    4.9442 C   0  0  0  0  0  0  0  0  0  0  0  0
    2.5557   -1.0872    7.5650 C   0  0  0  0  0  0  0  0  0  0  0  0
    4.2478   -0.3866    5.1139 Cl  0  0  0  0  0  0  0  0  0  0  0  0
   -0.7847    0.2517   -4.2130 N   0  0  0  0  0  0  0  0  0  0  0  0
    0.5116   -0.2201   -3.7673 C   0  0  0  0  0  0  0  0  0  0  0  0
    1.6266    0.3505   -4.6243 C   0  0  0  0  0  0  0  0  0  0  0  0
    1.4065    0.0789   -6.0290 N   0  0  0  0  0  0  0  0  0  0  0  0
    0.1531    0.6824   -6.4321 C   0  0  0  0  0  0  0  0  0  0  0  0
   -1.0024    0.1022   -5.6426 C   0  0  0  0  0  0  0  0  0  0  0  0
    2.5185    0.4996   -6.8603 C   0  0  0  0  0  0  0  0  0  0  0  0
    3.6984   -0.4606   -6.7889 C   0  0  0  0  0  0  0  0  0  0  0  0
    4.7677    0.0032   -7.6604 N   0  0  0  0  0  0  0  0  0  0  0  0
   -0.7830   -0.2983   -1.5483 H   0  0  0  0  0  0  0  0  0  0  0  0
   -5.0521    0.8310   -3.5849 H   0  0  0  0  0  0  0  0  0  0  0  0
   -4.9888    0.4254   -1.1588 H   0  0  0  0  0  0  0  0  0  0  0  0
   -4.8209   -0.6512    0.6822 H   0  0  0  0  0  0  0  0  0  0  0  0
   -4.3558   -1.0963    3.0778 H   0  0  0  0  0  0  0  0  0  0  0  0
    0.5868   -0.1713    1.7896 H   0  0  0  0  0  0  0  0  0  0  0  0
    2.4510   -0.1847    2.9819 H   0  0  0  0  0  0  0  0  0  0  0  0
   -0.0964   -1.3061    7.0291 H   0  0  0  0  0  0  0  0  0  0  0  0
   -1.2819   -1.0312    4.9202 H   0  0  0  0  0  0  0  0  0  0  0  0
    3.3173   -1.8663    7.5108 H   0  0  0  0  0  0  0  0  0  0  0  0
    3.0581   -0.1699    7.8765 H   0  0  0  0  0  0  0  0  0  0  0  0
    1.8497   -1.3622    8.3468 H   0  0  0  0  0  0  0  0  0  0  0  0
    0.6974    0.1032   -2.7452 H   0  0  0  0  0  0  0  0  0  0  0  0
    0.5563   -1.3173   -3.7831 H   0  0  0  0  0  0  0  0  0  0  0  0
    2.5614   -0.1044   -4.2933 H   0  0  0  0  0  0  0  0  0  0  0  0
    1.7097    1.4347   -4.4339 H   0  0  0  0  0  0  0  0  0  0  0  0
   -0.0197    0.4791   -7.4912 H   0  0  0  0  0  0  0  0  0  0  0  0
    0.1652    1.7794   -6.3091 H   0  0  0  0  0  0  0  0  0  0  0  0
   -1.1199   -0.9600   -5.8976 H   0  0  0  0  0  0  0  0  0  0  0  0
   -1.9204    0.6096   -5.9241 H   0  0  0  0  0  0  0  0  0  0  0  0
    2.1668    0.5343   -7.8959 H   0  0  0  0  0  0  0  0  0  0  0  0
    2.8608    1.5181   -6.6128 H   0  0  0  0  0  0  0  0  0  0  0  0
    4.0906   -0.4999   -5.7699 H   0  0  0  0  0  0  0  0  0  0  0  0
    3.3358   -1.4709   -7.0228 H   0  0  0  0  0  0  0  0  0  0  0  0
    5.5754   -0.5956   -7.5489 H   0  0  0  0  0  0  0  0  0  0  0  0
    4.4832   -0.1027   -8.6266 H   0  0  0  0  0  0  0  0  0  0  0  0
  1  2  2  0
  1  6  1  0
  1  7  1  0
  2  3  1  0
  2 31  1  0
  3  4  2  0
  3 22  1  0
  4  5  1  0
  5  6  2  0
  5 32  1  0
  6 33  1  0
  7  8  2  0
  7 12  1  0
  8  9  1  0
  8 34  1  0
  9 10  2  0
  9 35  1  0
 10 11  1  0
 11 12  2  0
 11 13  1  0
 13 14  1  0
 13 36  1  0
 14 15  2  0
 14 19  1  0
 15 16  1  0
 15 37  1  0
 16 17  2  0
 16 21  1  0
 17 18  1  0
 17 20  1  0
 18 19  2  0
 18 38  1  0
 19 39  1  0
 20 40  1  0
 20 41  1  0
 20 42  1  0
 22 23  1  0
 22 27  1  0
 23 24  1  0
 23 43  1  0
 23 44  1  0
 24 25  1  0
 24 45  1  0
 24 46  1  0
 25 26  1  0
 25 28  1  0
 26 27  1  0
 26 47  1  0
 26 48  1  0
 27 49  1  0
 27 50  1  0
 28 29  1  0
 28 51  1  0
 28 52  1  0
 29 30  1  0
 29 53  1  0
 29 54  1  0
 30 55  1  0
 30 56  1  0
M  END
