
     RDKit          3D

 60 63  0  0  0  0  0  0  0  0999 V2000
    2.2999    1.1836    0.7193 C   0  0  0  0  0  0  0  0  0  0  0  0
    5.4527   -1.0733    0.9699 C   0  0  0  0  0  0  0  0  0  0  0  0
    7.7026   -0.1842    1.6738 C   0  0  0  0  0  0  0  0  0  0  0  0
    9.5458   -0.3196    0.1590 C   0  0  0  0  0  0  0  0  0  0  0  0
   10.3492   -1.1539   -2.2971 C   0  0  0  0  0  0  0  0  0  0  0  0
    8.6778   -0.9602   -0.7572 C   0  0  0  0  0  0  0  0  0  0  0  0
   -4.2359    3.5833   -1.5175 C   0  0  0  0  0  0  0  0  0  0  0  0
   -3.5847    2.7406   -0.4266 C   0  0  2  0  0  0  0  0  0  0  0  0
   -2.0695    2.6427   -0.6129 C   0  0  0  0  0  0  0  0  0  0  0  0
   -1.4102    1.9331    0.5615 C   0  0  0  0  0  0  0  0  0  0  0  0
    0.8180    0.9779    0.9589 C   0  0  0  0  0  0  0  0  0  0  0  0
    3.1323   -0.0652    0.9634 C   0  0  0  0  0  0  0  0  0  0  0  0
    4.6129    0.1792    0.7062 C   0  0  0  0  0  0  0  0  0  0  0  0
    6.9065   -0.8327    0.6945 C   0  0  0  0  0  0  0  0  0  0  0  0
    9.0142    0.0698    1.4072 C   0  0  0  0  0  0  0  0  0  0  0  0
   10.8850   -0.1081   -0.2229 C   0  0  0  0  0  0  0  0  0  0  0  0
   11.2920   -0.5265   -1.4588 C   0  0  0  0  0  0  0  0  0  0  0  0
   -5.8317   -0.2101    0.0829 C   0  0  0  0  0  0  0  0  0  0  0  0
   -5.9627   -2.3108   -0.5045 C   0  0  0  0  0  0  0  0  0  0  0  0
   -7.1300   -2.2307    0.2766 C   0  0  0  0  0  0  0  0  0  0  0  0
   -7.9577   -3.3345    0.4608 C   0  0  0  0  0  0  0  0  0  0  0  0
   -7.5961   -4.5189   -0.1520 C   0  0  0  0  0  0  0  0  0  0  0  0
   -6.4364   -4.6099   -0.9347 C   0  0  0  0  0  0  0  0  0  0  0  0
   -5.6151   -3.5174   -1.1169 C   0  0  0  0  0  0  0  0  0  0  0  0
    0.0229    1.8985    0.3838 N   0  0  0  0  0  0  0  0  0  0  0  0
    9.0996   -1.3669   -1.9729 N   0  0  0  0  0  0  0  0  0  0  0  0
    7.3812   -1.2023   -0.4688 N   0  0  0  0  0  0  0  0  0  0  0  0
   -4.1742    1.4305   -0.3926 N   0  0  0  0  0  0  0  0  0  0  0  0
   -5.2533   -1.1405   -0.5881 N   0  0  0  0  0  0  0  0  0  0  0  0
   -5.0462    3.1694   -2.3027 O   0  0  0  0  0  0  0  0  0  0  0  0
   -3.7987    4.8317   -1.4819 O   0  0  0  0  0  0  0  0  0  0  0  0
    0.3789    0.0554    1.6309 O   0  0  0  0  0  0  0  0  0  0  0  0
   -5.9906    1.9994    0.8503 O   0  0  0  0  0  0  0  0  0  0  0  0
   -7.3021   -0.6280    0.8989 S   0  0  0  0  0  0  0  0  0  0  0  0
    2.4603    1.5562   -0.2963 H   0  0  0  0  0  0  0  0  0  0  0  0
    2.6339    1.9880    1.3850 H   0  0  0  0  0  0  0  0  0  0  0  0
    5.3206   -1.3819    2.0106 H   0  0  0  0  0  0  0  0  0  0  0  0
    5.0992   -1.8911    0.3389 H   0  0  0  0  0  0  0  0  0  0  0  0
    7.2614    0.0986    2.6204 H   0  0  0  0  0  0  0  0  0  0  0  0
   10.6582   -1.4913   -3.2809 H   0  0  0  0  0  0  0  0  0  0  0  0
   -3.7858    3.2363    0.5280 H   0  0  0  0  0  0  0  0  0  0  0  0
   -1.8378    2.1227   -1.5469 H   0  0  0  0  0  0  0  0  0  0  0  0
   -1.6645    3.6519   -0.7006 H   0  0  0  0  0  0  0  0  0  0  0  0
   -1.6795    2.4425    1.4939 H   0  0  0  0  0  0  0  0  0  0  0  0
   -1.7701    0.9083    0.6439 H   0  0  0  0  0  0  0  0  0  0  0  0
    2.9944   -0.4050    1.9923 H   0  0  0  0  0  0  0  0  0  0  0  0
    2.7826   -0.8777    0.3200 H   0  0  0  0  0  0  0  0  0  0  0  0
    4.9661    0.9996    1.3393 H   0  0  0  0  0  0  0  0  0  0  0  0
    4.7630    0.5017   -0.3284 H   0  0  0  0  0  0  0  0  0  0  0  0
    9.6490    0.5604    2.1348 H   0  0  0  0  0  0  0  0  0  0  0  0
   11.5693    0.3792    0.4607 H   0  0  0  0  0  0  0  0  0  0  0  0
   12.3087   -0.3888   -1.7989 H   0  0  0  0  0  0  0  0  0  0  0  0
   -8.8535   -3.2707    1.0634 H   0  0  0  0  0  0  0  0  0  0  0  0
   -8.2207   -5.3929   -0.0244 H   0  0  0  0  0  0  0  0  0  0  0  0
   -6.1848   -5.5529   -1.4013 H   0  0  0  0  0  0  0  0  0  0  0  0
   -4.7183   -3.5789   -1.7190 H   0  0  0  0  0  0  0  0  0  0  0  0
    0.4581    2.6783   -0.0836 H   0  0  0  0  0  0  0  0  0  0  0  0
   -3.7795    0.7030   -0.9722 H   0  0  0  0  0  0  0  0  0  0  0  0
   -4.2128    5.3569   -2.1832 H   0  0  0  0  0  0  0  0  0  0  0  0
   -5.3425    1.1878    0.2113 C   0  0  0  0  0  0  0  0  0  0  0  0
 30  7  2  0
 31  7  1  0
  7  8  1  0
 32 11  2  0
  9  8  1  0
  9 10  1  0
 25 11  1  0
 25 10  1  0
  8 28  1  0
 11  1  1  0
 28 60  1  0
 12  1  1  0
 12 13  1  0
 29 19  1  0
 29 18  2  0
 24 19  2  0
 24 23  1  0
 60 18  1  0
 60 33  2  0
 13  2  1  0
  5 26  2  0
  5 17  1  0
 26  6  1  0
 19 20  1  0
 17 16  2  0
 18 34  1  0
  6 27  2  0
  6  4  1  0
 16  4  1  0
 23 22  2  0
 27 14  1  0
  4 15  2  0
 14  2  1  0
 14  3  2  0
 15  3  1  0
 20 34  1  0
 20 21  2  0
 22 21  1  0
  1 35  1  0
  1 36  1  0
  2 37  1  0
  2 38  1  0
  3 39  1  0
  5 40  1  0
  8 41  1  1
  9 42  1  0
  9 43  1  0
 10 44  1  0
 10 45  1  0
 12 46  1  0
 12 47  1  0
 13 48  1  0
 13 49  1  0
 15 50  1  0
 16 51  1  0
 17 52  1  0
 21 53  1  0
 22 54  1  0
 23 55  1  0
 24 56  1  0
 25 57  1  0
 28 58  1  0
 31 59  1  0
M  END
