
     RDKit          3D

 25 24  0  0  0  0  0  0  0  0999 V2000
    4.9447    0.6979   -0.0210 C   0  0  0  0  0  0  0  0  0  0  0  0
    3.8546   -0.3458   -0.0020 C   0  0  0  0  0  0  0  0  0  0  0  0
    2.5923    0.3383   -0.0293 O   0  0  0  0  0  0  0  0  0  0  0  0
    1.4830   -0.3889    0.0037 C   0  0  0  0  0  0  0  0  0  0  0  0
    1.4786   -1.5943    0.0500 O   0  0  0  0  0  0  0  0  0  0  0  0
    0.2561    0.4831   -0.0238 C   0  0  0  0  0  0  0  0  0  0  0  0
   -1.0472   -0.2993    0.0073 C   0  0  0  0  0  0  0  0  0  0  0  0
   -2.2368    0.6462   -0.0148 C   0  0  0  0  0  0  0  0  0  0  0  0
   -3.5859   -0.0268    0.0160 C   0  0  0  0  0  0  0  0  0  0  0  0
   -3.7067   -1.2310    0.0464 O   0  0  0  0  0  0  0  0  0  0  0  0
   -4.7719    0.8992    0.0119 C   0  0  0  0  0  0  0  0  0  0  0  0
    4.8865    1.3536    0.8477 H   0  0  0  0  0  0  0  0  0  0  0  0
    5.9147    0.2020    0.0002 H   0  0  0  0  0  0  0  0  0  0  0  0
    4.9017    1.3079   -0.9232 H   0  0  0  0  0  0  0  0  0  0  0  0
    3.9328   -1.0079   -0.8667 H   0  0  0  0  0  0  0  0  0  0  0  0
    3.9202   -0.9611    0.8976 H   0  0  0  0  0  0  0  0  0  0  0  0
    0.3118    1.1732    0.8244 H   0  0  0  0  0  0  0  0  0  0  0  0
    0.3066    1.1146   -0.9167 H   0  0  0  0  0  0  0  0  0  0  0  0
   -1.0953   -0.9755   -0.8480 H   0  0  0  0  0  0  0  0  0  0  0  0
   -1.0847   -0.9224    0.9028 H   0  0  0  0  0  0  0  0  0  0  0  0
   -2.1946    1.3430    0.8305 H   0  0  0  0  0  0  0  0  0  0  0  0
   -2.2066    1.2870   -0.9039 H   0  0  0  0  0  0  0  0  0  0  0  0
   -5.7102    0.3488   -0.0111 H   0  0  0  0  0  0  0  0  0  0  0  0
   -4.7510    1.5304    0.9024 H   0  0  0  0  0  0  0  0  0  0  0  0
   -4.7255    1.5695   -0.8477 H   0  0  0  0  0  0  0  0  0  0  0  0
 11  9  1  0
  9 10  2  0
  9  8  1  0
  8  7  1  0
  7  6  1  0
  6  4  1  0
  5  4  2  0
  4  3  1  0
  3  2  1  0
  2  1  1  0
  1 12  1  0
  1 13  1  0
  1 14  1  0
  2 15  1  0
  2 16  1  0
  6 17  1  0
  6 18  1  0
  7 19  1  0
  7 20  1  0
  8 21  1  0
  8 22  1  0
 11 23  1  0
 11 24  1  0
 11 25  1  0
M  END
