
     RDKit          3D

 13 13  0  0  0  0  0  0  0  0999 V2000
    1.4111   -0.0586    0.1290 C   0  0  0  0  0  0  0  0  0  0  0  0
    0.7468    1.1651    0.1408 C   0  0  0  0  0  0  0  0  0  0  0  0
   -0.6381    1.2126    0.0560 C   0  0  0  0  0  0  0  0  0  0  0  0
   -1.3459    0.0321   -0.0390 C   0  0  0  0  0  0  0  0  0  0  0  0
   -0.7087   -1.1939   -0.0517 C   0  0  0  0  0  0  0  0  0  0  0  0
    0.6743   -1.2373    0.0332 C   0  0  0  0  0  0  0  0  0  0  0  0
    2.7544   -0.1610    0.2070 O   0  0  0  0  0  0  0  0  0  0  0  0
   -2.6896    0.0759   -0.1235 F   0  0  0  0  0  0  0  0  0  0  0  0
    1.3052    2.0910    0.2166 H   0  0  0  0  0  0  0  0  0  0  0  0
   -1.1528    2.1645    0.0646 H   0  0  0  0  0  0  0  0  0  0  0  0
   -1.2802   -2.1098   -0.1280 H   0  0  0  0  0  0  0  0  0  0  0  0
    1.1848   -2.1919    0.0250 H   0  0  0  0  0  0  0  0  0  0  0  0
    3.1537    0.7119    0.2894 H   0  0  0  0  0  0  0  0  0  0  0  0
  1  2  2  0
  1  6  1  0
  1  7  1  0
  2  3  1  0
  2  9  1  0
  3  4  2  0
  3 10  1  0
  4  5  1  0
  4  8  1  0
  5  6  2  0
  5 11  1  0
  6 12  1  0
  7 13  1  0
M  END
