
     RDKit          3D

 37 39  0  0  0  0  0  0  0  0999 V2000
   -4.8788   -2.0525   -1.0962 O   0  0  0  0  0  0  0  0  0  0  0  0
   -5.0245   -0.8172   -0.3403 S   0  0  1  0  0  0  0  0  0  0  0  0
   -6.0255    0.1523   -0.7670 O   0  0  0  0  0  0  0  0  0  0  0  0
   -5.2155   -1.2673    1.2340 N   0  0  0  0  0  0  0  0  0  0  0  0
   -5.5886   -0.2363    2.1932 C   0  0  0  0  0  0  0  0  0  0  0  0
   -3.4662    0.0185   -0.2826 C   0  0  0  0  0  0  0  0  0  0  0  0
   -2.3067   -0.7351   -0.1515 C   0  0  0  0  0  0  0  0  0  0  0  0
   -1.0812   -0.0986   -0.1184 C   0  0  0  0  0  0  0  0  0  0  0  0
   -1.0032    1.2958   -0.2129 C   0  0  0  0  0  0  0  0  0  0  0  0
   -2.1818    2.0336   -0.3445 C   0  0  0  0  0  0  0  0  0  0  0  0
   -3.4110    1.4013   -0.3833 C   0  0  0  0  0  0  0  0  0  0  0  0
    0.2724    1.9798   -0.1754 C   0  0  0  0  0  0  0  0  0  0  0  0
    1.3848    1.2258   -0.0878 O   0  0  0  0  0  0  0  0  0  0  0  0
    0.6205    3.3027   -0.2051 C   0  0  0  0  0  0  0  0  0  0  0  0
    2.0285    3.3491   -0.1303 C   0  0  0  0  0  0  0  0  0  0  0  0
    2.4548    2.0502   -0.0606 C   0  0  0  0  0  0  0  0  0  0  0  0
    3.7561    1.4836    0.0244 C   0  0  0  0  0  0  0  0  0  0  0  0
    4.0583    0.1757    0.0712 C   0  0  0  0  0  0  0  0  0  0  0  0
    2.9458   -1.1752    0.0396 S   0  0  0  0  0  0  0  0  0  0  0  0
    4.2801   -2.3433    0.1347 C   0  0  0  0  0  0  0  0  0  0  0  0
    4.2058   -3.5985    0.1535 N   0  0  0  0  0  0  0  0  0  0  0  0
    5.4746   -1.6617    0.1891 N   0  0  0  0  0  0  0  0  0  0  0  0
    5.4586   -0.2982    0.1589 C   0  0  0  0  0  0  0  0  0  0  0  0
    6.4408    0.4089    0.1991 O   0  0  0  0  0  0  0  0  0  0  0  0
   -5.7761   -2.1117    1.2963 H   0  0  0  0  0  0  0  0  0  0  0  0
   -5.6170   -0.6981    3.1766 H   0  0  0  0  0  0  0  0  0  0  0  0
   -4.8291    0.5444    2.2186 H   0  0  0  0  0  0  0  0  0  0  0  0
   -6.5588    0.2191    1.9904 H   0  0  0  0  0  0  0  0  0  0  0  0
   -2.3476   -1.8133   -0.0766 H   0  0  0  0  0  0  0  0  0  0  0  0
   -4.3110    1.9901   -0.4927 H   0  0  0  0  0  0  0  0  0  0  0  0
   -0.1885   -0.7000   -0.0170 H   0  0  0  0  0  0  0  0  0  0  0  0
   -2.1477    3.1120   -0.4216 H   0  0  0  0  0  0  0  0  0  0  0  0
   -0.0510    4.1430   -0.2694 H   0  0  0  0  0  0  0  0  0  0  0  0
    2.6585    4.2239   -0.1270 H   0  0  0  0  0  0  0  0  0  0  0  0
    4.5753    2.1921    0.0511 H   0  0  0  0  0  0  0  0  0  0  0  0
    3.2525   -3.9374    0.1046 H   0  0  0  0  0  0  0  0  0  0  0  0
    6.3422   -2.1785    0.2501 H   0  0  0  0  0  0  0  0  0  0  0  0
  1  2  2  0
  2  3  2  0
  2  4  1  1
  4  5  1  0
  2  6  1  0
  6  7  2  0
  7  8  1  0
  8  9  2  0
  9 10  1  0
  6 11  1  0
 10 11  2  0
  9 12  1  0
 12 13  1  0
 12 14  2  0
 14 15  1  0
 13 16  1  0
 15 16  2  0
 16 17  1  0
 17 18  2  0
 18 19  1  0
 19 20  1  0
 20 21  2  0
 20 22  1  0
 18 23  1  0
 22 23  1  0
 23 24  2  0
  4 25  1  0
  5 26  1  0
  5 27  1  0
  5 28  1  0
  7 29  1  0
 11 30  1  0
  8 31  1  0
 10 32  1  0
 14 33  1  0
 15 34  1  0
 17 35  1  0
 21 36  1  0
 22 37  1  0
M  END
