
     RDKit          3D

 55 57  0  0  0  0  0  0  0  0999 V2000
    6.9719    2.9407    1.1148 Cl  0  0  0  0  0  0  0  0  0  0  0  0
    6.8854    1.3151    0.5278 C   0  0  0  0  0  0  0  0  0  0  0  0
    8.0624    0.6508    0.2360 C   0  0  0  0  0  0  0  0  0  0  0  0
    7.9395   -0.6468   -0.2315 C   0  0  0  0  0  0  0  0  0  0  0  0
    9.0588   -1.3215   -0.5230 F   0  0  0  0  0  0  0  0  0  0  0  0
    6.7296   -1.2758   -0.4094 C   0  0  0  0  0  0  0  0  0  0  0  0
    5.6344    0.7356    0.3712 C   0  0  0  0  0  0  0  0  0  0  0  0
    5.5611   -0.5743   -0.1011 C   0  0  0  0  0  0  0  0  0  0  0  0
    4.4148   -1.2386   -0.2882 O   0  0  0  0  0  0  0  0  0  0  0  0
    3.1781   -0.5889   -0.0171 C   0  0  0  0  0  0  0  0  0  0  0  0
    2.0642   -1.5757   -0.2912 C   0  0  0  0  0  0  0  0  0  0  0  0
    0.6971   -0.9612   -0.0125 C   0  0  0  0  0  0  0  0  0  0  0  0
   -0.4154   -1.9593   -0.2684 C   0  0  0  0  0  0  0  0  0  0  0  0
   -1.6504   -1.3676    0.0503 O   0  0  0  0  0  0  0  0  0  0  0  0
   -2.7689   -2.1656   -0.2700 C   0  0  1  0  0  0  0  0  0  0  0  0
   -2.9840   -3.3143    0.7517 C   0  0  0  0  0  0  0  0  0  0  0  0
   -4.0435   -1.3286   -0.1323 C   0  0  1  0  0  0  0  0  0  0  0  0
   -4.4502   -1.5908    1.3188 C   0  0  0  0  0  0  0  0  0  0  0  0
   -4.1814   -3.0051    1.5386 N   0  0  0  0  0  0  0  0  0  0  0  0
   -3.9223    0.1389   -0.5271 C   0  0  0  0  0  0  0  0  0  0  0  0
   -5.2532    0.8343   -0.4484 C   0  0  0  0  0  0  0  0  0  0  0  0
   -6.1929    0.4073   -1.2954 N   0  0  0  0  0  0  0  0  0  0  0  0
   -5.4789    1.8440    0.4695 C   0  0  0  0  0  0  0  0  0  0  0  0
   -6.7413    2.4465    0.5238 C   0  0  0  0  0  0  0  0  0  0  0  0
   -7.0152    3.5583    1.4898 C   0  0  0  0  0  0  0  0  0  0  0  0
   -7.7127    1.9964   -0.3459 C   0  0  0  0  0  0  0  0  0  0  0  0
   -7.3961    0.9668   -1.2493 C   0  0  0  0  0  0  0  0  0  0  0  0
   -8.3470    0.4704   -2.0954 N   0  0  0  0  0  0  0  0  0  0  0  0
    9.0311    1.1122    0.3662 H   0  0  0  0  0  0  0  0  0  0  0  0
    6.6801   -2.2919   -0.7790 H   0  0  0  0  0  0  0  0  0  0  0  0
    4.7483    1.3022    0.6173 H   0  0  0  0  0  0  0  0  0  0  0  0
    3.1442   -0.2607    1.0277 H   0  0  0  0  0  0  0  0  0  0  0  0
    3.0740    0.2992   -0.6504 H   0  0  0  0  0  0  0  0  0  0  0  0
    2.1179   -1.9080   -1.3316 H   0  0  0  0  0  0  0  0  0  0  0  0
    2.2054   -2.4595    0.3373 H   0  0  0  0  0  0  0  0  0  0  0  0
    0.6487   -0.6231    1.0268 H   0  0  0  0  0  0  0  0  0  0  0  0
    0.5471   -0.0807   -0.6436 H   0  0  0  0  0  0  0  0  0  0  0  0
   -0.4017   -2.2730   -1.3226 H   0  0  0  0  0  0  0  0  0  0  0  0
   -0.2398   -2.8644    0.3306 H   0  0  0  0  0  0  0  0  0  0  0  0
   -2.6576   -2.5520   -1.2924 H   0  0  0  0  0  0  0  0  0  0  0  0
   -3.0920   -4.2840    0.2647 H   0  0  0  0  0  0  0  0  0  0  0  0
   -2.1090   -3.3843    1.4058 H   0  0  0  0  0  0  0  0  0  0  0  0
   -4.8024   -1.7923   -0.7722 H   0  0  0  0  0  0  0  0  0  0  0  0
   -3.8426   -0.9824    1.9990 H   0  0  0  0  0  0  0  0  0  0  0  0
   -5.4962   -1.3613    1.5236 H   0  0  0  0  0  0  0  0  0  0  0  0
   -4.9586   -3.5343    1.1654 H   0  0  0  0  0  0  0  0  0  0  0  0
   -3.2063    0.6482    0.1195 H   0  0  0  0  0  0  0  0  0  0  0  0
   -3.5423    0.2144   -1.5503 H   0  0  0  0  0  0  0  0  0  0  0  0
   -4.6863    2.1610    1.1353 H   0  0  0  0  0  0  0  0  0  0  0  0
   -6.4866    4.4648    1.1893 H   0  0  0  0  0  0  0  0  0  0  0  0
   -8.0767    3.7953    1.5440 H   0  0  0  0  0  0  0  0  0  0  0  0
   -6.6686    3.3037    2.4916 H   0  0  0  0  0  0  0  0  0  0  0  0
   -8.7080    2.4248   -0.3390 H   0  0  0  0  0  0  0  0  0  0  0  0
   -8.0083   -0.0470   -2.8903 H   0  0  0  0  0  0  0  0  0  0  0  0
   -9.1394    1.0572   -2.2963 H   0  0  0  0  0  0  0  0  0  0  0  0
  5  4  1  0
  4  6  2  0
  4  3  1  0
  6  8  1  0
  3  2  2  0
  8  9  1  0
  8  7  2  0
 12 11  1  0
 12 13  1  0
  9 10  1  0
  2  7  1  0
  2  1  1  0
 10 11  1  0
 13 14  1  0
 14 15  1  0
 20 21  1  0
 20 17  1  0
 21 22  2  0
 21 23  1  0
 22 27  1  0
 15 17  1  0
 15 16  1  0
 17 18  1  0
 23 24  2  0
 28 27  1  0
 27 26  2  0
 24 26  1  0
 24 25  1  0
 16 19  1  0
 18 19  1  0
  3 29  1  0
  6 30  1  0
  7 31  1  0
 10 32  1  0
 10 33  1  0
 11 34  1  0
 11 35  1  0
 12 36  1  0
 12 37  1  0
 13 38  1  0
 13 39  1  0
 15 40  1  6
 16 41  1  0
 16 42  1  0
 17 43  1  6
 18 44  1  0
 18 45  1  0
 19 46  1  0
 20 47  1  0
 20 48  1  0
 23 49  1  0
 25 50  1  0
 25 51  1  0
 25 52  1  0
 26 53  1  0
 28 54  1  0
 28 55  1  0
M  END
