
     RDKit          3D

 62 66  0  0  0  0  0  0  0  0999 V2000
    6.0698   -1.1951   -0.6832 C   0  0  0  0  0  0  0  0  0  0  0  0
    7.2931    0.3713    0.6570 C   0  0  0  0  0  0  0  0  0  0  0  0
    4.9315   -0.4149   -0.5831 C   0  0  0  0  0  0  0  0  0  0  0  0
    6.1664    1.1582    0.7639 C   0  0  0  0  0  0  0  0  0  0  0  0
    7.2634   -0.8210   -0.0723 C   0  0  0  0  0  0  0  0  0  0  0  0
    4.9713    0.7783    0.1423 C   0  0  0  0  0  0  0  0  0  0  0  0
    8.4423   -1.6956   -0.2213 C   0  0  0  0  0  0  0  0  0  0  0  0
   -2.6502    0.7811    0.0090 C   0  0  0  0  0  0  0  0  0  0  0  0
    0.5193    2.4085   -0.9670 C   0  0  0  0  0  0  0  0  0  0  0  0
    0.5061    0.0905   -0.0101 C   0  0  0  0  0  0  0  0  0  0  0  0
    1.9088    2.6392   -0.3820 C   0  0  0  0  0  0  0  0  0  0  0  0
    1.8951    0.3264    0.5748 C   0  0  0  0  0  0  0  0  0  0  0  0
   -7.0186   -2.2245   -0.3499 C   0  0  0  0  0  0  0  0  0  0  0  0
   -7.9458    0.0769   -0.0421 C   0  0  0  0  0  0  0  0  0  0  0  0
   -6.8188   -1.0799    1.8631 C   0  0  0  0  0  0  0  0  0  0  0  0
   -5.9086   -0.2762   -1.4423 C   0  0  0  0  0  0  0  0  0  0  0  0
   -4.7865   -1.4401    0.4514 C   0  0  0  0  0  0  0  0  0  0  0  0
   -5.7115    0.8706    0.7554 C   0  0  0  0  0  0  0  0  0  0  0  0
   -7.2539   -0.8708   -1.0230 C   0  0  1  0  0  0  0  0  0  0  0  0
   -6.1314   -2.0311    0.8812 C   0  0  2  0  0  0  0  0  0  0  0  0
   -7.0544    0.2715    1.1849 C   0  0  1  0  0  0  0  0  0  0  0  0
   -0.2741    1.3998   -0.1420 C   0  0  2  0  0  0  0  0  0  0  0  0
    2.6655    1.3257   -0.2774 C   0  0  2  0  0  0  0  0  0  0  0  0
   -4.9996   -0.0764   -0.2208 C   0  0  2  0  0  0  0  0  0  0  0  0
   -1.5829    1.2113   -0.7286 N   0  0  0  0  0  0  0  0  0  0  0  0
   -3.7527    0.4860   -0.7251 N   0  0  0  0  0  0  0  0  0  0  0  0
    8.4391   -2.7417   -0.8290 O   0  0  0  0  0  0  0  0  0  0  0  0
   -2.6069    0.7090    1.2343 O   0  0  0  0  0  0  0  0  0  0  0  0
    9.5256   -1.2177    0.3812 O   0  0  0  0  0  0  0  0  0  0  0  0
    3.9431    1.6211    0.2897 O   0  0  0  0  0  0  0  0  0  0  0  0
    6.0206   -2.1144   -1.2517 H   0  0  0  0  0  0  0  0  0  0  0  0
    8.1983    0.6974    1.1503 H   0  0  0  0  0  0  0  0  0  0  0  0
    4.0297   -0.7527   -1.0738 H   0  0  0  0  0  0  0  0  0  0  0  0
    6.1987    2.0812    1.3289 H   0  0  0  0  0  0  0  0  0  0  0  0
   -0.0226    3.3547   -1.0205 H   0  0  0  0  0  0  0  0  0  0  0  0
    0.6158    2.0410   -1.9955 H   0  0  0  0  0  0  0  0  0  0  0  0
    0.5923   -0.3737   -0.9993 H   0  0  0  0  0  0  0  0  0  0  0  0
   -0.0464   -0.6089    0.6199 H   0  0  0  0  0  0  0  0  0  0  0  0
    2.4631    3.3422   -1.0074 H   0  0  0  0  0  0  0  0  0  0  0  0
    1.8222    3.0879    0.6132 H   0  0  0  0  0  0  0  0  0  0  0  0
    1.8064    0.7244    1.5911 H   0  0  0  0  0  0  0  0  0  0  0  0
    2.4316   -0.6220    0.6525 H   0  0  0  0  0  0  0  0  0  0  0  0
   -6.5397   -2.9140   -1.0531 H   0  0  0  0  0  0  0  0  0  0  0  0
   -8.1433    1.0409   -0.5220 H   0  0  0  0  0  0  0  0  0  0  0  0
   -8.9171   -0.3313    0.2550 H   0  0  0  0  0  0  0  0  0  0  0  0
   -7.7715   -1.5070    2.1918 H   0  0  0  0  0  0  0  0  0  0  0  0
   -6.2043   -0.9516    2.7601 H   0  0  0  0  0  0  0  0  0  0  0  0
   -5.4147   -0.9417   -2.1597 H   0  0  0  0  0  0  0  0  0  0  0  0
   -6.0617    0.6859   -1.9441 H   0  0  0  0  0  0  0  0  0  0  0  0
   -4.1289   -1.3339    1.3161 H   0  0  0  0  0  0  0  0  0  0  0  0
   -4.2862   -2.1134   -0.2530 H   0  0  0  0  0  0  0  0  0  0  0  0
   -5.8668    1.8380    0.2656 H   0  0  0  0  0  0  0  0  0  0  0  0
   -5.0845    1.0504    1.6303 H   0  0  0  0  0  0  0  0  0  0  0  0
   -7.8763   -1.0015   -1.9127 H   0  0  0  0  0  0  0  0  0  0  0  0
   -5.9582   -2.9970    1.3651 H   0  0  0  0  0  0  0  0  0  0  0  0
   -7.5414    0.9542    1.8877 H   0  0  0  0  0  0  0  0  0  0  0  0
   -0.4206    1.8169    0.8576 H   0  0  0  0  0  0  0  0  0  0  0  0
    2.7980    0.9254   -1.2908 H   0  0  0  0  0  0  0  0  0  0  0  0
   -1.6026    1.0605   -1.7258 H   0  0  0  0  0  0  0  0  0  0  0  0
   -3.6798    0.5668   -1.7268 H   0  0  0  0  0  0  0  0  0  0  0  0
   10.2679   -1.8256    0.2496 H   0  0  0  0  0  0  0  0  0  0  0  0
   -7.9738   -2.6773   -0.0639 H   0  0  0  0  0  0  0  0  0  0  0  0
 13 19  1  0
 13 20  1  0
 19 14  1  0
 19 16  1  0
 14 21  1  0
 20 15  1  0
 20 17  1  0
 15 21  1  0
 16 24  1  0
 21 18  1  0
 17 24  1  0
 24 18  1  0
 24 26  1  6
 26  8  1  0
 28  8  2  0
  8 25  1  0
 25 22  1  0
 22  9  1  0
 22 10  1  0
  9 11  1  0
 10 12  1  0
 11 23  1  0
 12 23  1  0
 23 30  1  0
 30  6  1  0
  6  3  1  0
  6  4  2  0
  3  1  2  0
  4  2  1  0
  1  5  1  0
  2  5  2  0
  5  7  1  0
  7 27  2  0
  7 29  1  0
  1 31  1  0
  2 32  1  0
  3 33  1  0
  4 34  1  0
  9 35  1  0
  9 36  1  0
 10 37  1  0
 10 38  1  0
 11 39  1  0
 11 40  1  0
 12 41  1  0
 12 42  1  0
 13 62  1  0
 13 43  1  0
 14 44  1  0
 14 45  1  0
 15 46  1  0
 15 47  1  0
 16 48  1  0
 16 49  1  0
 17 50  1  0
 17 51  1  0
 18 52  1  0
 18 53  1  0
 19 54  1  6
 20 55  1  1
 21 56  1  1
 22 57  1  1
 23 58  1  6
 25 59  1  0
 26 60  1  0
 29 61  1  0
M  END
