
     RDKit          3D

 35 34  0  0  0  0  0  0  0  0999 V2000
   -1.5180   -0.5640   -1.5448 N   0  0  0  0  0  0  0  0  0  0  0  0
   -2.4915   -0.2137   -2.5480 C   0  0  0  0  0  0  0  0  0  0  0  0
   -0.2611    0.1433   -1.6552 C   0  0  2  0  0  0  0  0  0  0  0  0
    0.7905   -0.4702   -2.5736 C   0  0  0  0  0  0  0  0  0  0  0  0
    1.6263    0.1336   -3.2517 O   0  0  0  0  0  0  0  0  0  0  0  0
    0.8091   -1.8298   -2.6556 O   0  0  0  0  0  0  0  0  0  0  0  0
    0.4360    0.3730   -0.2761 C   0  0  2  0  0  0  0  0  0  0  0  0
    0.6140   -0.0444    4.4459 C   0  0  0  0  0  0  0  0  0  0  0  0
    0.3495   -1.1832    5.3966 C   0  0  0  0  0  0  0  0  0  0  0  0
    1.2180   -0.7590    0.0567 O   0  0  0  0  0  0  0  0  0  0  0  0
   -0.5425    0.7418    0.8509 C   0  0  1  0  0  0  0  0  0  0  0  0
   -1.3527   -1.5553   -1.5411 H   0  0  0  0  0  0  0  0  0  0  0  0
   -3.4075   -0.8402   -2.3827 H   0  0  0  0  0  0  0  0  0  0  0  0
   -2.7690    0.8673   -2.4320 H   0  0  0  0  0  0  0  0  0  0  0  0
   -2.1260   -0.3781   -3.5992 H   0  0  0  0  0  0  0  0  0  0  0  0
   -0.4691    1.1605   -2.1089 H   0  0  0  0  0  0  0  0  0  0  0  0
    1.5129   -2.1102   -3.2645 H   0  0  0  0  0  0  0  0  0  0  0  0
    1.1926    1.2000   -0.4113 H   0  0  0  0  0  0  0  0  0  0  0  0
    0.4513   -1.2246    2.6386 H   0  0  0  0  0  0  0  0  0  0  0  0
   -1.0982   -0.4878    3.1992 H   0  0  0  0  0  0  0  0  0  0  0  0
    0.1956    0.9057    4.8711 H   0  0  0  0  0  0  0  0  0  0  0  0
    1.7203    0.1056    4.3349 H   0  0  0  0  0  0  0  0  0  0  0  0
    0.7753   -0.9535    6.4036 H   0  0  0  0  0  0  0  0  0  0  0  0
   -0.7480   -1.3582    5.5098 H   0  0  0  0  0  0  0  0  0  0  0  0
    0.8172   -2.1260    5.0223 H   0  0  0  0  0  0  0  0  0  0  0  0
    0.6349   -1.5290    0.0756 H   0  0  0  0  0  0  0  0  0  0  0  0
   -1.2859   -0.0967    0.9631 H   0  0  0  0  0  0  0  0  0  0  0  0
    0.2324    0.8781    2.1594 C   0  0  0  0  0  0  0  0  0  0  0  0
   -1.2937    2.0243    0.5514 C   0  0  0  0  0  0  0  0  0  0  0  0
   -0.0674    1.8274    2.6775 H   0  0  0  0  0  0  0  0  0  0  0  0
    0.0017   -0.2983    3.0845 C   0  0  0  0  0  0  0  0  0  0  0  0
    1.3309    0.9602    1.9397 H   0  0  0  0  0  0  0  0  0  0  0  0
   -0.6076    2.7967    0.1261 H   0  0  0  0  0  0  0  0  0  0  0  0
   -2.1237    1.8423   -0.1736 H   0  0  0  0  0  0  0  0  0  0  0  0
   -1.7475    2.4354    1.4856 H   0  0  0  0  0  0  0  0  0  0  0  0
  1  2  1  0
  1  3  1  0
  1 12  1  0
  2 13  1  0
  2 14  1  0
  2 15  1  0
  3  4  1  0
  3  7  1  0
  3 16  1  6
  4  5  2  0
  4  6  1  0
  6 17  1  0
  7 10  1  0
  7 11  1  0
  7 18  1  6
 28 31  1  0
 28 11  1  0
 28 30  1  0
 28 32  1  0
 29 11  1  0
 29 33  1  0
 29 34  1  0
 29 35  1  0
 31  8  1  0
 31 19  1  0
 31 20  1  0
  8  9  1  0
  8 21  1  0
  8 22  1  0
  9 23  1  0
  9 24  1  0
  9 25  1  0
 10 26  1  0
 11 27  1  1
M  END
