
     RDKit          3D

 50 53  0  0  0  0  0  0  0  0999 V2000
    6.5200    1.4675    1.7054 O   0  0  0  0  0  0  0  0  0  0  0  0
    6.5608    0.8857    0.3742 S   0  0  1  0  0  0  0  0  0  0  0  0
    7.2713    1.5615   -0.6988 O   0  0  0  0  0  0  0  0  0  0  0  0
    7.2734   -0.5880    0.5390 N   0  0  0  0  0  0  0  0  0  0  0  0
    4.8968    0.6231   -0.1621 C   0  0  0  0  0  0  0  0  0  0  0  0
    3.8722    0.5335    0.7711 C   0  0  0  0  0  0  0  0  0  0  0  0
    4.6277    0.4956   -1.5193 C   0  0  0  0  0  0  0  0  0  0  0  0
    3.3340    0.2517   -1.9368 C   0  0  0  0  0  0  0  0  0  0  0  0
    2.5749    0.3072    0.3504 C   0  0  0  0  0  0  0  0  0  0  0  0
    2.2994    0.1472   -1.0071 C   0  0  0  0  0  0  0  0  0  0  0  0
    1.0089   -0.0614   -1.4920 N   0  0  0  0  0  0  0  0  0  0  0  0
   -0.0784   -0.4714   -0.7849 C   0  0  0  0  0  0  0  0  0  0  0  0
    0.0278   -1.5220    0.0768 N   0  0  0  0  0  0  0  0  0  0  0  0
   -1.0556   -1.9989    0.7761 C   0  0  0  0  0  0  0  0  0  0  0  0
   -2.2775   -1.4870    0.6490 N   0  0  0  0  0  0  0  0  0  0  0  0
   -0.6631   -3.0264    1.5059 N   0  0  0  0  0  0  0  0  0  0  0  0
    0.6408   -3.1395    1.1989 C   0  0  0  0  0  0  0  0  0  0  0  0
    1.1154   -2.2701    0.3371 N   0  0  0  0  0  0  0  0  0  0  0  0
   -1.3295    0.0615   -0.9341 C   0  0  0  0  0  0  0  0  0  0  0  0
   -2.4027   -0.4971   -0.1984 C   0  0  0  0  0  0  0  0  0  0  0  0
   -4.7168   -0.4339    0.3190 C   0  0  0  0  0  0  0  0  0  0  0  0
   -3.5807    0.0608   -0.3985 O   0  0  0  0  0  0  0  0  0  0  0  0
   -5.9382    0.3455   -0.1248 C   0  0  1  0  0  0  0  0  0  0  0  0
   -7.1800   -0.2506    0.5414 C   0  0  0  0  0  0  0  0  0  0  0  0
   -8.4480    0.4904    0.1308 C   0  0  0  0  0  0  0  0  0  0  0  0
   -8.3407    1.9815    0.4325 C   0  0  0  0  0  0  0  0  0  0  0  0
   -7.1015    2.5841   -0.2205 C   0  0  0  0  0  0  0  0  0  0  0  0
   -5.8335    1.8392    0.1859 C   0  0  0  0  0  0  0  0  0  0  0  0
    6.8563   -1.1647    1.2613 H   0  0  0  0  0  0  0  0  0  0  0  0
    7.3575   -1.1002   -0.3321 H   0  0  0  0  0  0  0  0  0  0  0  0
    4.0677    0.6602    1.8272 H   0  0  0  0  0  0  0  0  0  0  0  0
    5.4144    0.5769   -2.2569 H   0  0  0  0  0  0  0  0  0  0  0  0
    3.1242    0.1414   -2.9931 H   0  0  0  0  0  0  0  0  0  0  0  0
    1.7850    0.2833    1.0879 H   0  0  0  0  0  0  0  0  0  0  0  0
    0.7861    0.4139   -2.3543 H   0  0  0  0  0  0  0  0  0  0  0  0
    1.2782   -3.9013    1.6225 H   0  0  0  0  0  0  0  0  0  0  0  0
   -1.4853    0.9080   -1.5868 H   0  0  0  0  0  0  0  0  0  0  0  0
   -4.8438   -1.5003    0.1140 H   0  0  0  0  0  0  0  0  0  0  0  0
   -4.5534   -0.3186    1.3952 H   0  0  0  0  0  0  0  0  0  0  0  0
   -6.0482    0.2208   -1.2102 H   0  0  0  0  0  0  0  0  0  0  0  0
   -7.2662   -1.3122    0.2926 H   0  0  0  0  0  0  0  0  0  0  0  0
   -7.0671   -0.1934    1.6307 H   0  0  0  0  0  0  0  0  0  0  0  0
   -8.6184    0.3482   -0.9417 H   0  0  0  0  0  0  0  0  0  0  0  0
   -9.3122    0.0597    0.6420 H   0  0  0  0  0  0  0  0  0  0  0  0
   -9.2395    2.5022    0.0928 H   0  0  0  0  0  0  0  0  0  0  0  0
   -8.2868    2.1275    1.5169 H   0  0  0  0  0  0  0  0  0  0  0  0
   -7.2098    2.5391   -1.3098 H   0  0  0  0  0  0  0  0  0  0  0  0
   -7.0107    3.6419    0.0374 H   0  0  0  0  0  0  0  0  0  0  0  0
   -5.6639    1.9658    1.2621 H   0  0  0  0  0  0  0  0  0  0  0  0
   -4.9697    2.2766   -0.3192 H   0  0  0  0  0  0  0  0  0  0  0  0
  1  2  2  0
  2  3  2  0
  2  4  1  1
  2  5  1  0
  4 29  1  0
  4 30  1  0
  5  6  2  0
  5  7  1  0
  6  9  1  0
  6 31  1  0
  7  8  2  0
  7 32  1  0
  8 10  1  0
  8 33  1  0
  9 10  2  0
  9 34  1  0
 10 11  1  0
 11 12  1  0
 11 35  1  0
 12 13  1  0
 12 19  2  0
 13 14  1  0
 13 18  1  0
 14 15  1  0
 14 16  2  0
 15 20  2  0
 16 17  1  0
 17 18  2  0
 17 36  1  0
 19 20  1  0
 19 37  1  0
 20 22  1  0
 21 22  1  0
 21 23  1  0
 21 38  1  0
 21 39  1  0
 23 24  1  0
 23 28  1  0
 23 40  1  6
 24 25  1  0
 24 41  1  0
 24 42  1  0
 25 26  1  0
 25 43  1  0
 25 44  1  0
 26 27  1  0
 26 45  1  0
 26 46  1  0
 27 28  1  0
 27 47  1  0
 27 48  1  0
 28 49  1  0
 28 50  1  0
M  END
