
     RDKit          3D

  9  8  0  0  0  0  0  0  0  0999 V2000
    0.1472    0.0334   -0.0526 C   0  0  0  0  0  0  0  0  0  0  0  0
    1.3364    0.0781   -0.3348 O   0  0  0  0  0  0  0  0  0  0  0  0
   -0.8179   -0.0254   -0.9854 N   0  0  0  0  0  0  0  0  0  0  0  0
   -0.3558    0.0389    1.3715 C   0  0  0  0  0  0  0  0  0  0  0  0
   -0.5849   -0.0258   -1.9647 H   0  0  0  0  0  0  0  0  0  0  0  0
   -1.7922   -0.0506   -0.7398 H   0  0  0  0  0  0  0  0  0  0  0  0
    0.4771    0.0742    2.0683 H   0  0  0  0  0  0  0  0  0  0  0  0
   -0.9999    0.9013    1.5483 H   0  0  0  0  0  0  0  0  0  0  0  0
   -0.9489   -0.8538    1.5746 H   0  0  0  0  0  0  0  0  0  0  0  0
  1  2  2  0
  1  3  1  0
  1  4  1  0
  3  5  1  0
  3  6  1  0
  4  7  1  0
  4  8  1  0
  4  9  1  0
M  END
