
     RDKit          3D

 22 22  0  0  0  0  0  0  0  0999 V2000
   -1.6222    0.9819    0.2863 C   0  0  0  0  0  0  0  0  0  0  0  0
   -0.2923    1.0020   -0.1628 C   0  0  0  0  0  0  0  0  0  0  0  0
    0.2682   -0.2302   -0.4688 C   0  0  0  0  0  0  0  0  0  0  0  0
   -1.6308   -1.3789    0.0482 C   0  0  0  0  0  0  0  0  0  0  0  0
   -2.1808    2.1550    0.6010 O   0  0  0  0  0  0  0  0  0  0  0  0
   -0.3834   -1.3909   -0.3691 N   0  0  0  0  0  0  0  0  0  0  0  0
   -2.3103   -0.2163    0.3951 C   0  0  0  0  0  0  0  0  0  0  0  0
   -2.2057   -2.5882    0.1151 O   0  0  0  0  0  0  0  0  0  0  0  0
    0.4432    2.3055   -0.2569 C   0  0  0  0  0  0  0  0  0  0  0  0
    1.6854   -0.3440   -0.9529 C   0  0  0  0  0  0  0  0  0  0  0  0
    2.6960   -0.1371    0.1467 C   0  0  0  0  0  0  0  0  0  0  0  0
    2.4312   -0.0158    1.3151 O   0  0  0  0  0  0  0  0  0  0  0  0
    3.9347   -0.1242   -0.3305 O   0  0  0  0  0  0  0  0  0  0  0  0
   -3.0937    2.0350    0.8882 H   0  0  0  0  0  0  0  0  0  0  0  0
   -3.3386   -0.2421    0.7390 H   0  0  0  0  0  0  0  0  0  0  0  0
    0.6904    2.6958    0.7324 H   0  0  0  0  0  0  0  0  0  0  0  0
    1.3776    2.2161   -0.8074 H   0  0  0  0  0  0  0  0  0  0  0  0
   -0.1521    3.0656   -0.7631 H   0  0  0  0  0  0  0  0  0  0  0  0
    1.8401   -1.3463   -1.3600 H   0  0  0  0  0  0  0  0  0  0  0  0
    1.8954    0.3490   -1.7709 H   0  0  0  0  0  0  0  0  0  0  0  0
    4.5693   -0.0133    0.3934 H   0  0  0  0  0  0  0  0  0  0  0  0
   -3.1147   -2.5152    0.4269 H   0  0  0  0  0  0  0  0  0  0  0  0
  5  1  1  0
  1  7  2  0
  1  2  1  0
  7  4  1  0
  9  2  1  0
  2  3  2  0
  4  8  1  0
  4  6  2  0
  3  6  1  0
  3 10  1  0
 10 11  1  0
 11 12  2  0
 11 13  1  0
  5 14  1  0
  7 15  1  0
  9 16  1  0
  9 17  1  0
  9 18  1  0
 10 19  1  0
 10 20  1  0
 13 21  1  0
  8 22  1  0
M  END
