
     RDKit          3D

  8  7  0  0  0  0  0  0  0  0999 V2000
    0.4044   -0.0312   -0.0383 C   0  0  0  0  0  0  0  0  0  0  0  0
   -1.2851   -0.0251   -0.0598 S   0  0  0  0  0  0  0  0  0  0  0  0
    1.0962   -1.1708   -0.0342 N   0  0  0  0  0  0  0  0  0  0  0  0
    1.1036    1.1042   -0.0280 N   0  0  0  0  0  0  0  0  0  0  0  0
    2.1032   -1.1954   -0.0259 H   0  0  0  0  0  0  0  0  0  0  0  0
    0.6094   -2.0491   -0.0426 H   0  0  0  0  0  0  0  0  0  0  0  0
    2.1100    1.1225    0.0053 H   0  0  0  0  0  0  0  0  0  0  0  0
    0.6212    1.9849   -0.0165 H   0  0  0  0  0  0  0  0  0  0  0  0
  1  2  2  0
  1  3  1  0
  1  4  1  0
  3  5  1  0
  3  6  1  0
  4  7  1  0
  4  8  1  0
M  END
