
     RDKit          3D

  8  8  0  0  0  0  0  0  0  0999 V2000
    1.1687   -0.0262    0.0654 C   0  0  0  0  0  0  0  0  0  0  0  0
    0.8830   -0.0244   -1.1964 N   0  0  0  0  0  0  0  0  0  0  0  0
   -0.4691    0.0139   -1.3862 C   0  0  0  0  0  0  0  0  0  0  0  0
   -1.2193    0.0412   -0.2540 C   0  0  0  0  0  0  0  0  0  0  0  0
   -0.1910    0.0185    1.1142 S   0  0  0  0  0  0  0  0  0  0  0  0
    2.1745   -0.0542    0.4604 H   0  0  0  0  0  0  0  0  0  0  0  0
   -0.8709    0.0212   -2.3892 H   0  0  0  0  0  0  0  0  0  0  0  0
   -2.2929    0.0724   -0.1615 H   0  0  0  0  0  0  0  0  0  0  0  0
  1  2  2  0
  1  5  1  0
  1  6  1  0
  2  3  1  0
  3  4  2  0
  3  7  1  0
  4  5  1  0
  4  8  1  0
M  END
