
     RDKit          3D

 55 58  0  0  0  0  0  0  0  0999 V2000
    0.8252    2.6372    0.0706 C   0  0  0  0  0  0  0  0  0  0  0  0
   -3.2718   -1.0170   -0.0784 C   0  0  0  0  0  0  0  0  0  0  0  0
   -2.8680   -1.7313   -1.2303 C   0  0  0  0  0  0  0  0  0  0  0  0
   -2.8741   -3.0982   -1.2142 C   0  0  0  0  0  0  0  0  0  0  0  0
   -3.6368   -3.2123    0.9142 C   0  0  0  0  0  0  0  0  0  0  0  0
   -4.1176   -1.2020    2.2279 C   0  0  0  0  0  0  0  0  0  0  0  0
   -3.7619    0.9582    1.2561 C   0  0  0  0  0  0  0  0  0  0  0  0
    2.6053    0.9736    0.2955 C   0  0  0  0  0  0  0  0  0  0  0  0
    3.3561   -0.1824   -0.3374 C   0  0  0  0  0  0  0  0  0  0  0  0
    4.5772   -0.6530    0.4452 C   0  0  1  0  0  0  0  0  0  0  0  0
    5.0593   -1.9944   -0.1118 C   0  0  0  0  0  0  0  0  0  0  0  0
    6.3037   -2.5027    0.6085 C   0  0  0  0  0  0  0  0  0  0  0  0
    7.4275   -1.4733    0.5703 C   0  0  0  0  0  0  0  0  0  0  0  0
    6.9605   -0.1339    1.1285 C   0  0  0  0  0  0  0  0  0  0  0  0
    5.7140    0.3696    0.4065 C   0  0  0  0  0  0  0  0  0  0  0  0
    1.6465    1.5705   -0.4625 N   0  0  0  0  0  0  0  0  0  0  0  0
    1.1340    1.0631   -1.7168 C   0  0  0  0  0  0  0  0  0  0  0  0
   -0.2879    0.5521   -1.5408 C   0  0  0  0  0  0  0  0  0  0  0  0
   -1.1110    1.6358   -1.0075 N   0  0  0  0  0  0  0  0  0  0  0  0
   -0.6102    2.1767    0.2612 C   0  0  0  0  0  0  0  0  0  0  0  0
   -2.7528    1.5387   -1.1653 S   0  0  1  0  0  0  0  0  0  0  0  0
   -3.2749    2.8507   -0.8156 O   0  0  0  0  0  0  0  0  0  0  0  0
   -3.0370    1.0106   -2.4877 O   0  0  0  0  0  0  0  0  0  0  0  0
   -3.3217    0.3994    0.0811 C   0  0  0  0  0  0  0  0  0  0  0  0
   -3.2512   -3.8470   -0.1565 N   0  0  0  0  0  0  0  0  0  0  0  0
   -3.6774   -1.8030    1.0309 C   0  0  0  0  0  0  0  0  0  0  0  0
   -4.1646    0.1572    2.3380 C   0  0  0  0  0  0  0  0  0  0  0  0
    1.2232    2.9768    1.0222 H   0  0  0  0  0  0  0  0  0  0  0  0
    0.8446    3.4803   -0.6258 H   0  0  0  0  0  0  0  0  0  0  0  0
   -2.5637   -3.6441   -2.0969 H   0  0  0  0  0  0  0  0  0  0  0  0
   -3.9451   -3.8110    1.7667 H   0  0  0  0  0  0  0  0  0  0  0  0
   -4.4203   -1.8331    3.0540 H   0  0  0  0  0  0  0  0  0  0  0  0
   -3.8101    2.0319    1.3692 H   0  0  0  0  0  0  0  0  0  0  0  0
    2.6515   -1.0150   -0.4520 H   0  0  0  0  0  0  0  0  0  0  0  0
    3.6665    0.0826   -1.3527 H   0  0  0  0  0  0  0  0  0  0  0  0
    4.2873   -0.8079    1.4908 H   0  0  0  0  0  0  0  0  0  0  0  0
    4.2564   -2.7341   -0.0412 H   0  0  0  0  0  0  0  0  0  0  0  0
    5.2829   -1.8828   -1.1798 H   0  0  0  0  0  0  0  0  0  0  0  0
    6.0524   -2.7249    1.6513 H   0  0  0  0  0  0  0  0  0  0  0  0
    6.6332   -3.4441    0.1627 H   0  0  0  0  0  0  0  0  0  0  0  0
    8.2940   -1.8357    1.1292 H   0  0  0  0  0  0  0  0  0  0  0  0
    7.7600   -1.3381   -0.4651 H   0  0  0  0  0  0  0  0  0  0  0  0
    6.7402   -0.2437    2.1961 H   0  0  0  0  0  0  0  0  0  0  0  0
    7.7593    0.6084    1.0542 H   0  0  0  0  0  0  0  0  0  0  0  0
    5.9658    0.5773   -0.6409 H   0  0  0  0  0  0  0  0  0  0  0  0
    5.3885    1.3156    0.8426 H   0  0  0  0  0  0  0  0  0  0  0  0
    1.1403    1.8676   -2.4573 H   0  0  0  0  0  0  0  0  0  0  0  0
    1.7499    0.2578   -2.1045 H   0  0  0  0  0  0  0  0  0  0  0  0
   -0.6682    0.2388   -2.5103 H   0  0  0  0  0  0  0  0  0  0  0  0
   -0.2835   -0.3152   -0.8692 H   0  0  0  0  0  0  0  0  0  0  0  0
   -0.6580    1.4209    1.0549 H   0  0  0  0  0  0  0  0  0  0  0  0
   -1.2124    3.0302    0.5658 H   0  0  0  0  0  0  0  0  0  0  0  0
   -4.5077    0.6297    3.2470 H   0  0  0  0  0  0  0  0  0  0  0  0
   -2.5654   -1.2327   -2.1357 H   0  0  0  0  0  0  0  0  0  0  0  0
    2.8485    1.3559    1.4295 O   0  0  0  0  0  0  0  0  0  0  0  0
 13 12  1  0
 13 14  1  0
 12 11  1  0
 14 15  1  0
 15 10  1  0
 11 10  1  0
 10  9  1  0
 25  5  2  0
 25  4  1  0
  5 26  1  0
  4  3  2  0
 26  6  1  0
 26  2  2  0
  6 27  2  0
  9  8  1  0
 55  8  2  0
  8 16  1  0
  3  2  1  0
  2 24  1  0
 27  7  1  0
 16  1  1  0
 16 17  1  0
  1 20  1  0
 24  7  2  0
 21 24  1  1
 17 18  1  0
 19 18  1  0
 19 20  1  0
 19 21  1  0
 21 22  2  0
 21 23  2  0
  1 28  1  0
  1 29  1  0
  3 54  1  0
  4 30  1  0
  5 31  1  0
  6 32  1  0
  7 33  1  0
  9 34  1  0
  9 35  1  0
 10 36  1  1
 11 37  1  0
 11 38  1  0
 12 39  1  0
 12 40  1  0
 13 41  1  0
 13 42  1  0
 14 43  1  0
 14 44  1  0
 15 45  1  0
 15 46  1  0
 17 47  1  0
 17 48  1  0
 18 49  1  0
 18 50  1  0
 20 51  1  0
 20 52  1  0
 27 53  1  0
M  END
