
     RDKit          3D

 63 67  0  0  0  0  0  0  0  0999 V2000
    4.2628    2.4088    0.1871 N   0  0  0  0  0  0  0  0  0  0  0  0
   -2.3773    0.5100   -0.9801 N   0  0  0  0  0  0  0  0  0  0  0  0
    6.3899   -1.4629   -0.8961 C   0  0  0  0  0  0  0  0  0  0  0  0
    4.3032   -1.2727   -1.6450 C   0  0  0  0  0  0  0  0  0  0  0  0
    4.3165   -0.6013   -0.4526 C   0  0  0  0  0  0  0  0  0  0  0  0
    3.1683    0.1231    0.1663 C   0  0  0  0  0  0  0  0  0  0  0  0
    3.1211    1.6197   -0.2213 C   0  0  1  0  0  0  0  0  0  0  0  0
   -0.5591    2.5602    0.0153 C   0  0  2  0  0  0  0  0  0  0  0  0
   -3.5962   -2.8921   -0.5879 C   0  0  0  0  0  0  0  0  0  0  0  0
   -6.4526   -2.1725    1.4684 C   0  0  0  0  0  0  0  0  0  0  0  0
   -5.3807    0.1483    0.2304 C   0  0  0  0  0  0  0  0  0  0  0  0
   -4.8028   -1.1049   -0.0011 C   0  0  0  0  0  0  0  0  0  0  0  0
   -1.7688    1.4439   -1.9048 C   0  0  0  0  0  0  0  0  0  0  0  0
    5.6566   -0.7121    0.0465 C   0  0  0  0  0  0  0  0  0  0  0  0
    5.5394   -1.7858   -1.9126 N   0  0  0  0  0  0  0  0  0  0  0  0
    1.8420    2.6563    1.5282 O   0  0  0  0  0  0  0  0  0  0  0  0
    7.6404   -0.5448    1.4091 C   0  0  0  0  0  0  0  0  0  0  0  0
   -1.2040    1.5096    0.9184 C   0  0  0  0  0  0  0  0  0  0  0  0
   -1.5169    0.2346    0.1547 C   0  0  0  0  0  0  0  0  0  0  0  0
   -3.6857   -1.5430   -0.7817 C   0  0  0  0  0  0  0  0  0  0  0  0
   -5.3443   -2.2482    0.6281 C   0  0  0  0  0  0  0  0  0  0  0  0
   -7.0205   -0.9317    1.6781 C   0  0  0  0  0  0  0  0  0  0  0  0
   -6.4790    0.2047    1.0598 C   0  0  0  0  0  0  0  0  0  0  0  0
    8.3424   -1.2962    0.4421 C   0  0  0  0  0  0  0  0  0  0  0  0
   -1.4377    2.7609   -1.2162 C   0  0  0  0  0  0  0  0  0  0  0  0
    6.3035   -0.2579    1.2048 C   0  0  0  0  0  0  0  0  0  0  0  0
    7.7389   -1.7617   -0.7076 C   0  0  0  0  0  0  0  0  0  0  0  0
    1.8586    2.2171    0.3855 C   0  0  0  0  0  0  0  0  0  0  0  0
    0.7767    2.1662   -0.4033 N   0  0  0  0  0  0  0  0  0  0  0  0
   -4.5893   -3.3173    0.2486 N   0  0  0  0  0  0  0  0  0  0  0  0
   -7.2290    1.7468    1.3700 Cl  0  0  0  0  0  0  0  0  0  0  0  0
    4.3639    2.3732    1.1942 H   0  0  0  0  0  0  0  0  0  0  0  0
    5.1067    2.0082   -0.2027 H   0  0  0  0  0  0  0  0  0  0  0  0
    3.4845   -1.4296   -2.3305 H   0  0  0  0  0  0  0  0  0  0  0  0
    2.2301   -0.3503   -0.1389 H   0  0  0  0  0  0  0  0  0  0  0  0
    3.2132    0.0428    1.2571 H   0  0  0  0  0  0  0  0  0  0  0  0
    3.0550    1.6742   -1.3128 H   0  0  0  0  0  0  0  0  0  0  0  0
   -0.4788    3.5058    0.5564 H   0  0  0  0  0  0  0  0  0  0  0  0
   -3.3838   -0.3841   -2.5384 H   0  0  0  0  0  0  0  0  0  0  0  0
   -1.9748   -1.2999   -2.0282 H   0  0  0  0  0  0  0  0  0  0  0  0
   -6.8613   -3.0518    1.9492 H   0  0  0  0  0  0  0  0  0  0  0  0
   -4.9585    1.0381   -0.2162 H   0  0  0  0  0  0  0  0  0  0  0  0
   -0.8641    1.0205   -2.3812 H   0  0  0  0  0  0  0  0  0  0  0  0
   -2.4700    1.6340   -2.7210 H   0  0  0  0  0  0  0  0  0  0  0  0
    5.7735   -2.3310   -2.7250 H   0  0  0  0  0  0  0  0  0  0  0  0
   -0.5590    1.2868    1.7696 H   0  0  0  0  0  0  0  0  0  0  0  0
   -2.1340    1.9219    1.3195 H   0  0  0  0  0  0  0  0  0  0  0  0
   -2.0251   -0.4655    0.8203 H   0  0  0  0  0  0  0  0  0  0  0  0
   -0.5785   -0.2600   -0.1589 H   0  0  0  0  0  0  0  0  0  0  0  0
   -7.8819   -0.8352    2.3247 H   0  0  0  0  0  0  0  0  0  0  0  0
    9.3901   -1.5165    0.6109 H   0  0  0  0  0  0  0  0  0  0  0  0
   -2.3676    3.2365   -0.8967 H   0  0  0  0  0  0  0  0  0  0  0  0
   -0.9570    3.4398   -1.9246 H   0  0  0  0  0  0  0  0  0  0  0  0
    5.7580    0.3168    1.9452 H   0  0  0  0  0  0  0  0  0  0  0  0
    8.2952   -2.3402   -1.4344 H   0  0  0  0  0  0  0  0  0  0  0  0
    0.8974    1.8188   -1.3410 H   0  0  0  0  0  0  0  0  0  0  0  0
   -4.7281   -4.2692    0.5427 H   0  0  0  0  0  0  0  0  0  0  0  0
   -2.8199   -0.6964   -1.6528 C   0  0  0  0  0  0  0  0  0  0  0  0
    8.3579   -0.0673    2.6405 C   0  0  0  0  0  0  0  0  0  0  0  0
   -2.8837   -3.5935   -0.9938 H   0  0  0  0  0  0  0  0  0  0  0  0
    9.1957    0.5848    2.3868 H   0  0  0  0  0  0  0  0  0  0  0  0
    7.6927    0.4908    3.2984 H   0  0  0  0  0  0  0  0  0  0  0  0
    8.7684   -0.9007    3.2139 H   0  0  0  0  0  0  0  0  0  0  0  0
 15  4  1  0
 15  3  1  0
  4  5  2  0
 18 19  1  0
 18  8  1  0
 16 28  2  0
 19  2  1  0
  3 27  2  0
  3 14  1  0
  5  6  1  0
  5 14  1  0
  8 29  1  0
  8 25  1  0
 28 29  1  0
 28  7  1  0
 27 24  1  0
  6  7  1  0
  2 58  1  0
  2 13  1  0
 14 26  2  0
 58 20  1  0
  7  1  1  0
 25 13  1  0
 24 17  2  0
  9 20  2  0
  9 30  1  0
 20 12  1  0
 26 17  1  0
 17 59  1  0
 30 21  1  0
 12 21  2  0
 12 11  1  0
 21 10  1  0
 11 23  2  0
 10 22  2  0
 23 22  1  0
 23 31  1  0
  1 32  1  0
  1 33  1  0
  4 34  1  0
  6 35  1  0
  6 36  1  0
  7 37  1  6
  8 38  1  1
 58 39  1  0
 58 40  1  0
  9 60  1  0
 10 41  1  0
 11 42  1  0
 13 43  1  0
 13 44  1  0
 15 45  1  0
 59 61  1  0
 59 62  1  0
 59 63  1  0
 18 46  1  0
 18 47  1  0
 19 48  1  0
 19 49  1  0
 22 50  1  0
 24 51  1  0
 25 52  1  0
 25 53  1  0
 26 54  1  0
 27 55  1  0
 29 56  1  0
 30 57  1  0
M  END
