
     RDKit          3D

 44 45  0  0  0  0  0  0  0  0999 V2000
    1.3829   -1.9626    1.3555 C   0  0  0  0  0  0  0  0  0  0  0  0
    2.5065   -2.7006    1.0078 C   0  0  0  0  0  0  0  0  0  0  0  0
    2.4158   -3.6918    0.0404 C   0  0  0  0  0  0  0  0  0  0  0  0
    1.1948   -3.9414   -0.5740 C   0  0  0  0  0  0  0  0  0  0  0  0
    0.0772   -3.1963   -0.2283 C   0  0  0  0  0  0  0  0  0  0  0  0
    0.1577   -2.1962    0.7374 C   0  0  0  0  0  0  0  0  0  0  0  0
   -1.0348   -1.3416    1.0519 C   0  0  0  0  0  0  0  0  0  0  0  0
   -1.1295   -0.1381    0.0884 C   0  0  1  0  0  0  0  0  0  0  0  0
   -2.3127    0.7355    0.4904 C   0  0  0  0  0  0  0  0  0  0  0  0
   -2.1994    1.6010    1.3471 O   0  0  0  0  0  0  0  0  0  0  0  0
   -3.4655    0.4455   -0.1182 N   0  0  0  0  0  0  0  0  0  0  0  0
   -4.7079    1.1293    0.1773 C   0  0  0  0  0  0  0  0  0  0  0  0
   -5.8603    0.4691   -0.5630 C   0  0  0  0  0  0  0  0  0  0  0  0
   -7.0900    1.1936   -0.2950 N   0  0  0  0  0  0  0  0  0  0  0  0
    0.0728    0.6513    0.1255 N   0  0  0  0  0  0  0  0  0  0  0  0
    1.0650    0.5341   -0.7804 C   0  0  0  0  0  0  0  0  0  0  0  0
    0.9797   -0.1458   -1.7904 O   0  0  0  0  0  0  0  0  0  0  0  0
    2.3081    1.2995   -0.4615 C   0  0  0  0  0  0  0  0  0  0  0  0
    2.2843    2.5204    0.2090 C   0  0  0  0  0  0  0  0  0  0  0  0
    3.4677    3.1945    0.4761 C   0  0  0  0  0  0  0  0  0  0  0  0
    4.6825    2.6485    0.0844 C   0  0  0  0  0  0  0  0  0  0  0  0
    4.7106    1.4324   -0.5871 C   0  0  0  0  0  0  0  0  0  0  0  0
    3.5282    0.7661   -0.8697 C   0  0  0  0  0  0  0  0  0  0  0  0
    1.4616   -1.1964    2.1179 H   0  0  0  0  0  0  0  0  0  0  0  0
    3.4524   -2.5033    1.4962 H   0  0  0  0  0  0  0  0  0  0  0  0
    3.2893   -4.2717   -0.2295 H   0  0  0  0  0  0  0  0  0  0  0  0
    1.1147   -4.7175   -1.3243 H   0  0  0  0  0  0  0  0  0  0  0  0
   -0.8707   -3.3916   -0.7173 H   0  0  0  0  0  0  0  0  0  0  0  0
   -1.9558   -1.9239    0.9762 H   0  0  0  0  0  0  0  0  0  0  0  0
   -0.9747   -0.9661    2.0767 H   0  0  0  0  0  0  0  0  0  0  0  0
   -1.2581   -0.5075   -0.9298 H   0  0  0  0  0  0  0  0  0  0  0  0
   -3.4657   -0.2429   -0.8539 H   0  0  0  0  0  0  0  0  0  0  0  0
   -4.9013    1.1032    1.2515 H   0  0  0  0  0  0  0  0  0  0  0  0
   -4.6337    2.1823   -0.1129 H   0  0  0  0  0  0  0  0  0  0  0  0
   -5.6105    0.4009   -1.6318 H   0  0  0  0  0  0  0  0  0  0  0  0
   -5.9750   -0.5558   -0.2023 H   0  0  0  0  0  0  0  0  0  0  0  0
   -7.0888    2.0641   -0.8118 H   0  0  0  0  0  0  0  0  0  0  0  0
   -7.8747    0.6648   -0.6520 H   0  0  0  0  0  0  0  0  0  0  0  0
    0.2546    1.1467    0.9848 H   0  0  0  0  0  0  0  0  0  0  0  0
    1.3442    2.9703    0.5049 H   0  0  0  0  0  0  0  0  0  0  0  0
    3.4392    4.1473    0.9881 H   0  0  0  0  0  0  0  0  0  0  0  0
    5.6059    3.1710    0.2980 H   0  0  0  0  0  0  0  0  0  0  0  0
    5.6562    1.0027   -0.8904 H   0  0  0  0  0  0  0  0  0  0  0  0
    3.5506   -0.1801   -1.3940 H   0  0  0  0  0  0  0  0  0  0  0  0
 12 13  1  0
 12 11  1  0
 13 14  1  0
 10  9  2  0
  2  1  2  0
  2  3  1  0
  1  6  1  0
  9 11  1  0
  9  8  1  0
  3  4  2  0
 20 19  2  0
 20 21  1  0
 19 18  1  0
  6  7  1  0
  6  5  2  0
  8 15  1  0
  8  7  1  0
 15 16  1  0
  4  5  1  0
 21 22  2  0
 18 16  1  0
 18 23  2  0
 16 17  2  0
 22 23  1  0
  1 24  1  0
  2 25  1  0
  3 26  1  0
  4 27  1  0
  5 28  1  0
  7 29  1  0
  7 30  1  0
  8 31  1  6
 11 32  1  0
 12 33  1  0
 12 34  1  0
 13 35  1  0
 13 36  1  0
 14 37  1  0
 14 38  1  0
 15 39  1  0
 19 40  1  0
 20 41  1  0
 21 42  1  0
 22 43  1  0
 23 44  1  0
M  END
