
     RDKit          3D

 54 58  0  0  0  0  0  0  0  0999 V2000
   -2.3609    4.0991   -0.1810 C   0  0  0  0  0  0  0  0  0  0  0  0
   -2.7478    3.8708    1.1339 C   0  0  0  0  0  0  0  0  0  0  0  0
    5.6863    1.5454    0.5921 O   0  0  0  0  0  0  0  0  0  0  0  0
    3.4210    2.1617    0.2377 C   0  0  0  0  0  0  0  0  0  0  0  0
    2.5121    3.1901    0.4475 C   0  0  0  0  0  0  0  0  0  0  0  0
    1.1389    2.9459    0.4895 C   0  0  0  0  0  0  0  0  0  0  0  0
    0.6259    1.6735    0.3075 C   0  0  0  0  0  0  0  0  0  0  0  0
    1.5305    0.6407    0.0884 C   0  0  0  0  0  0  0  0  0  0  0  0
    2.9253    0.8575    0.0755 C   0  0  0  0  0  0  0  0  0  0  0  0
    3.5350   -0.4157   -0.1399 C   0  0  0  0  0  0  0  0  0  0  0  0
    2.5472   -1.3475   -0.2335 C   0  0  0  0  0  0  0  0  0  0  0  0
    2.7148   -2.7990   -0.5066 C   0  0  0  0  0  0  0  0  0  0  0  0
    1.3184   -0.7168   -0.0948 N   0  0  0  0  0  0  0  0  0  0  0  0
    0.0666   -1.3507   -0.1112 C   0  0  0  0  0  0  0  0  0  0  0  0
   -0.9095   -0.6899   -0.7043 N   0  0  0  0  0  0  0  0  0  0  0  0
   -2.1062   -1.2745   -0.7278 C   0  0  0  0  0  0  0  0  0  0  0  0
   -3.1190   -0.5997   -1.2974 N   0  0  0  0  0  0  0  0  0  0  0  0
   -2.9888    0.7378   -1.8154 C   0  0  0  0  0  0  0  0  0  0  0  0
   -2.9144    1.8186   -0.7603 C   0  0  0  0  0  0  0  0  0  0  0  0
   -3.3098    1.6005    0.5541 C   0  0  0  0  0  0  0  0  0  0  0  0
   -3.2224    2.6185    1.4965 C   0  0  0  0  0  0  0  0  0  0  0  0
   -2.4408    3.0789   -1.1169 C   0  0  0  0  0  0  0  0  0  0  0  0
   -2.2937   -2.5682   -0.1906 C   0  0  0  0  0  0  0  0  0  0  0  0
   -3.6172   -3.2787   -0.2459 C   0  0  0  0  0  0  0  0  0  0  0  0
   -3.5131   -4.6346    0.0941 O   0  0  0  0  0  0  0  0  0  0  0  0
   -2.7748   -4.8364    1.2815 C   0  0  0  0  0  0  0  0  0  0  0  0
   -1.3155   -4.4818    1.0597 C   0  0  0  0  0  0  0  0  0  0  0  0
   -1.1971   -3.1367    0.4131 C   0  0  0  0  0  0  0  0  0  0  0  0
   -0.0053   -2.5243    0.4725 N   0  0  0  0  0  0  0  0  0  0  0  0
    5.2850    3.6209   -0.1836 N   0  0  0  0  0  0  0  0  0  0  0  0
   -1.9857    5.0705   -0.4766 H   0  0  0  0  0  0  0  0  0  0  0  0
   -2.6774    4.6615    1.8694 H   0  0  0  0  0  0  0  0  0  0  0  0
    2.8604    4.2023    0.6106 H   0  0  0  0  0  0  0  0  0  0  0  0
    0.4566    3.7664    0.6648 H   0  0  0  0  0  0  0  0  0  0  0  0
   -0.4411    1.5092    0.3217 H   0  0  0  0  0  0  0  0  0  0  0  0
    4.5860   -0.6292   -0.2326 H   0  0  0  0  0  0  0  0  0  0  0  0
    2.4423   -3.4134    0.3490 H   0  0  0  0  0  0  0  0  0  0  0  0
    2.1054   -3.1300   -1.3483 H   0  0  0  0  0  0  0  0  0  0  0  0
    3.7583   -2.9885   -0.7515 H   0  0  0  0  0  0  0  0  0  0  0  0
   -4.0389   -1.0047   -1.2932 H   0  0  0  0  0  0  0  0  0  0  0  0
   -2.1072    0.8004   -2.4550 H   0  0  0  0  0  0  0  0  0  0  0  0
   -3.8529    0.9115   -2.4584 H   0  0  0  0  0  0  0  0  0  0  0  0
   -3.6792    0.6287    0.8574 H   0  0  0  0  0  0  0  0  0  0  0  0
   -3.5252    2.4278    2.5183 H   0  0  0  0  0  0  0  0  0  0  0  0
   -2.1199    3.2632   -2.1360 H   0  0  0  0  0  0  0  0  0  0  0  0
   -4.3388   -2.7650    0.4098 H   0  0  0  0  0  0  0  0  0  0  0  0
   -4.0277   -3.2426   -1.2598 H   0  0  0  0  0  0  0  0  0  0  0  0
   -3.1875   -4.2341    2.1016 H   0  0  0  0  0  0  0  0  0  0  0  0
   -2.8845   -5.8857    1.5546 H   0  0  0  0  0  0  0  0  0  0  0  0
   -0.7734   -4.4780    2.0071 H   0  0  0  0  0  0  0  0  0  0  0  0
   -0.8300   -5.2291    0.4249 H   0  0  0  0  0  0  0  0  0  0  0  0
    6.2662    3.8458   -0.2119 H   0  0  0  0  0  0  0  0  0  0  0  0
    4.6515    4.2790   -0.6021 H   0  0  0  0  0  0  0  0  0  0  0  0
    4.8918    2.4051    0.2319 C   0  0  0  0  0  0  0  0  0  0  0  0
  3 54  2  0
 30 54  1  0
 54  4  1  0
 10  9  1  0
 10 11  2  0
  4  9  2  0
  4  5  1  0
  9  8  1  0
 12 11  1  0
  5  6  2  0
 11 13  1  0
  8 13  1  0
  8  7  2  0
 13 14  1  0
  6  7  1  0
 14 29  1  0
 14 15  2  0
 29 28  2  0
 15 16  1  0
 28 27  1  0
 28 23  1  0
 27 26  1  0
 16 23  2  0
 16 17  1  0
  1  2  2  0
  1 22  1  0
 23 24  1  0
  2 21  1  0
 22 19  2  0
 17 18  1  0
 26 25  1  0
 21 20  2  0
 19 20  1  0
 19 18  1  0
 24 25  1  0
  1 31  1  0
  2 32  1  0
  5 33  1  0
  6 34  1  0
  7 35  1  0
 10 36  1  0
 12 37  1  0
 12 38  1  0
 12 39  1  0
 17 40  1  0
 18 41  1  0
 18 42  1  0
 20 43  1  0
 21 44  1  0
 22 45  1  0
 24 46  1  0
 24 47  1  0
 26 48  1  0
 26 49  1  0
 27 50  1  0
 27 51  1  0
 30 52  1  0
 30 53  1  0
M  END
