
     RDKit          3D

 54 56  0  0  0  0  0  0  0  0999 V2000
   -4.2685    0.9665   -1.0031 C   0  0  0  0  0  0  0  0  0  0  0  0
    0.4835   -1.5734   -0.0215 N   0  0  0  0  0  0  0  0  0  0  0  0
   -7.1240    2.7351    0.4437 O   0  0  0  0  0  0  0  0  0  0  0  0
    5.3038    1.5724    1.1234 C   0  0  0  0  0  0  0  0  0  0  0  0
   -3.6896   -2.5969   -0.1872 O   0  0  0  0  0  0  0  0  0  0  0  0
    5.3947    0.3771    0.4141 C   0  0  0  0  0  0  0  0  0  0  0  0
    6.1833    0.3501   -0.7359 C   0  0  0  0  0  0  0  0  0  0  0  0
    6.8608    1.4831   -1.1644 C   0  0  0  0  0  0  0  0  0  0  0  0
    6.7617    2.6691   -0.4467 C   0  0  0  0  0  0  0  0  0  0  0  0
    5.9793    2.7101    0.6994 C   0  0  0  0  0  0  0  0  0  0  0  0
    4.6447   -0.8491    0.8536 C   0  0  0  0  0  0  0  0  0  0  0  0
    3.3658   -1.1083    0.0504 C   0  0  2  0  0  0  0  0  0  0  0  0
    2.3422    0.0122    0.1937 C   0  0  0  0  0  0  0  0  0  0  0  0
    1.0367   -0.3261   -0.5105 C   0  0  0  0  0  0  0  0  0  0  0  0
    1.4074   -2.6680   -0.2465 C   0  0  0  0  0  0  0  0  0  0  0  0
    2.7244   -2.4269    0.4726 C   0  0  0  0  0  0  0  0  0  0  0  0
   -0.8347   -1.8602   -0.5462 C   0  0  0  0  0  0  0  0  0  0  0  0
   -1.9176   -0.9016   -0.0445 C   0  0  1  0  0  0  0  0  0  0  0  0
   -3.2901   -1.3150   -0.6125 C   0  0  2  0  0  0  0  0  0  0  0  0
   -4.3385   -0.2551   -0.3391 C   0  0  0  0  0  0  0  0  0  0  0  0
   -5.3746   -0.4369    0.5709 C   0  0  0  0  0  0  0  0  0  0  0  0
   -6.2983    0.5669    0.8262 C   0  0  0  0  0  0  0  0  0  0  0  0
   -6.2062    1.7858    0.1624 C   0  0  0  0  0  0  0  0  0  0  0  0
   -5.1829    1.9793   -0.7625 C   0  0  0  0  0  0  0  0  0  0  0  0
   -3.4847    1.1376   -1.7325 H   0  0  0  0  0  0  0  0  0  0  0  0
   -6.9515    3.5287   -0.0747 H   0  0  0  0  0  0  0  0  0  0  0  0
   -3.5895   -2.6603    0.7681 H   0  0  0  0  0  0  0  0  0  0  0  0
    6.2718   -0.5722   -1.2996 H   0  0  0  0  0  0  0  0  0  0  0  0
    7.4717    1.4396   -2.0573 H   0  0  0  0  0  0  0  0  0  0  0  0
    7.2936    3.5523   -0.7765 H   0  0  0  0  0  0  0  0  0  0  0  0
    5.8952    3.6281    1.2672 H   0  0  0  0  0  0  0  0  0  0  0  0
    5.2945   -1.7247    0.7636 H   0  0  0  0  0  0  0  0  0  0  0  0
    4.3853   -0.7630    1.9134 H   0  0  0  0  0  0  0  0  0  0  0  0
    3.6385   -1.1879   -1.0107 H   0  0  0  0  0  0  0  0  0  0  0  0
    2.1369    0.1834    1.2563 H   0  0  0  0  0  0  0  0  0  0  0  0
    2.7316    0.9496   -0.2099 H   0  0  0  0  0  0  0  0  0  0  0  0
    1.2055   -0.3652   -1.6030 H   0  0  0  0  0  0  0  0  0  0  0  0
    0.3232    0.4819   -0.3379 H   0  0  0  0  0  0  0  0  0  0  0  0
    0.9537   -3.5915    0.1225 H   0  0  0  0  0  0  0  0  0  0  0  0
    1.6030   -2.8218   -1.3236 H   0  0  0  0  0  0  0  0  0  0  0  0
    3.4052   -3.2599    0.2766 H   0  0  0  0  0  0  0  0  0  0  0  0
    2.5421   -2.4117    1.5526 H   0  0  0  0  0  0  0  0  0  0  0  0
   -0.8473   -1.8616   -1.6521 H   0  0  0  0  0  0  0  0  0  0  0  0
   -1.0978   -2.8749   -0.2347 H   0  0  0  0  0  0  0  0  0  0  0  0
   -1.7222    0.0945   -0.4543 H   0  0  0  0  0  0  0  0  0  0  0  0
   -3.1764   -1.3960   -1.6996 H   0  0  0  0  0  0  0  0  0  0  0  0
   -5.4821   -1.3755    1.0999 H   0  0  0  0  0  0  0  0  0  0  0  0
   -7.0955    0.4039    1.5413 H   0  0  0  0  0  0  0  0  0  0  0  0
   -5.1017    2.9181   -1.2996 H   0  0  0  0  0  0  0  0  0  0  0  0
   -1.9184   -0.7900    1.4758 C   0  0  0  0  0  0  0  0  0  0  0  0
    4.6953    1.6139    2.0194 H   0  0  0  0  0  0  0  0  0  0  0  0
   -0.9537   -0.4318    1.8305 H   0  0  0  0  0  0  0  0  0  0  0  0
   -2.6844   -0.0977    1.8265 H   0  0  0  0  0  0  0  0  0  0  0  0
   -2.0874   -1.7545    1.9631 H   0  0  0  0  0  0  0  0  0  0  0  0
 24  1  2  0
  1 20  1  0
  1 25  1  0
 14  2  1  0
  2 17  1  0
  2 15  1  0
  3 23  1  0
  3 26  1  0
  6  4  2  0
  4 10  1  0
  4 51  1  0
 19  5  1  0
  5 27  1  0
 11  6  1  0
  6  7  1  0
  7  8  2  0
  7 28  1  0
  8  9  1  0
  8 29  1  0
 10  9  2  0
  9 30  1  0
 10 31  1  0
 11 12  1  0
 11 32  1  0
 11 33  1  0
 13 12  1  0
 12 16  1  0
 12 34  1  6
 13 14  1  0
 13 35  1  0
 13 36  1  0
 14 37  1  0
 14 38  1  0
 16 15  1  0
 15 39  1  0
 15 40  1  0
 16 41  1  0
 16 42  1  0
 18 17  1  0
 17 43  1  0
 17 44  1  0
 50 18  1  0
 18 19  1  0
 18 45  1  6
 20 19  1  0
 19 46  1  6
 20 21  2  0
 50 52  1  0
 50 53  1  0
 50 54  1  0
 22 21  1  0
 21 47  1  0
 23 22  2  0
 22 48  1  0
 24 23  1  0
 24 49  1  0
M  END
