
     RDKit          3D

 23 23  0  0  0  0  0  0  0  0999 V2000
   -0.9514   -0.5725   -1.4010 C   0  0  2  0  0  0  0  0  0  0  0  0
    1.0379   -1.7489   -2.0917 O   0  0  0  0  0  0  0  0  0  0  0  0
    0.5727   -0.5725   -1.4010 C   0  0  2  0  0  0  0  0  0  0  0  0
    1.1302   -0.5725   -0.0245 C   0  0  1  0  0  0  0  0  0  0  0  0
    2.5742   -0.4121   -0.1030 O   0  0  0  0  0  0  0  0  0  0  0  0
    0.5650    0.5363    0.8111 C   0  0  2  0  0  0  0  0  0  0  0  0
    1.0234    0.3803    2.1574 O   0  0  0  0  0  0  0  0  0  0  0  0
   -0.9667    0.5366    0.8067 C   0  0  2  0  0  0  0  0  0  0  0  0
   -1.5174    0.5386   -0.5598 O   0  0  0  0  0  0  0  0  0  0  0  0
   -1.4548    1.7577    1.5293 C   0  0  0  0  0  0  0  0  0  0  0  0
   -1.3921   -1.7626   -0.9136 O   0  0  0  0  0  0  0  0  0  0  0  0
   -1.3010   -0.4530   -2.4193 H   0  0  0  0  0  0  0  0  0  0  0  0
    1.3981   -1.5012   -2.9271 H   0  0  0  0  0  0  0  0  0  0  0  0
    0.9236    0.3102   -1.9217 H   0  0  0  0  0  0  0  0  0  0  0  0
    0.9005   -1.5202    0.4475 H   0  0  0  0  0  0  0  0  0  0  0  0
    2.9953   -1.1801    0.2462 H   0  0  0  0  0  0  0  0  0  0  0  0
    0.9171    1.4837    0.4212 H   0  0  0  0  0  0  0  0  0  0  0  0
    1.7133    0.9999    2.3285 H   0  0  0  0  0  0  0  0  0  0  0  0
   -1.3181   -0.3479    1.3240 H   0  0  0  0  0  0  0  0  0  0  0  0
   -2.5367    1.7944    1.4862 H   0  0  0  0  0  0  0  0  0  0  0  0
   -1.1359    1.7169    2.5637 H   0  0  0  0  0  0  0  0  0  0  0  0
   -1.0446    2.6435    1.0596 H   0  0  0  0  0  0  0  0  0  0  0  0
   -2.1327   -2.0544   -1.4189 H   0  0  0  0  0  0  0  0  0  0  0  0
  1  3  1  0
  1  9  1  0
  1 11  1  0
  1 12  1  6
  2  3  1  0
  2 13  1  0
  3  4  1  0
  3 14  1  6
  4  5  1  0
  4  6  1  0
  4 15  1  1
  5 16  1  0
  6  7  1  0
  6  8  1  0
  6 17  1  6
  7 18  1  0
  8  9  1  0
  8 10  1  0
  8 19  1  1
 10 20  1  0
 10 21  1  0
 10 22  1  0
 11 23  1  0
M  END
