
     RDKit          3D

 70 73  0  0  0  0  0  0  0  0999 V2000
    9.4281   39.3371   34.5377 O   0  0  0  0  0  0  0  0  0  0  0  0
    8.9074   39.7869   33.5332 C   0  0  0  0  0  0  0  0  0  0  0  0
    7.6789   40.3286   33.5167 N   0  0  0  0  0  0  0  0  0  0  0  0
    7.0186   40.7130   34.7370 C   0  0  1  0  0  0  0  0  0  0  0  0
    7.7727   41.7996   35.4856 C   0  0  0  0  0  0  0  0  0  0  0  0
    8.2946   42.8899   34.7968 C   0  0  0  0  0  0  0  0  0  0  0  0
    8.9894   43.8782   35.4792 C   0  0  0  0  0  0  0  0  0  0  0  0
    9.1617   43.7876   36.8544 C   0  0  0  0  0  0  0  0  0  0  0  0
    8.6367   42.7031   37.5448 C   0  0  0  0  0  0  0  0  0  0  0  0
    7.9451   41.7127   36.8608 C   0  0  0  0  0  0  0  0  0  0  0  0
    5.6323   41.2265   34.3900 C   0  0  0  0  0  0  0  0  0  0  0  0
    5.2673   41.4758   33.2698 O   0  0  0  0  0  0  0  0  0  0  0  0
    4.9017   41.3937   35.4739 O   0  0  0  0  0  0  0  0  0  0  0  0
    9.6466   39.8606   32.1941 C   0  0  2  0  0  0  0  0  0  0  0  0
   10.7835   38.9946   32.2581 N   0  0  0  0  0  0  0  0  0  0  0  0
   11.6511   38.8163   31.2192 C   0  0  0  0  0  0  0  0  0  0  0  0
   11.3594   39.2192   29.9101 C   0  0  0  0  0  0  0  0  0  0  0  0
   12.2569   38.9757   28.8833 C   0  0  0  0  0  0  0  0  0  0  0  0
   12.8808   38.1755   31.4488 C   0  0  0  0  0  0  0  0  0  0  0  0
   13.7646   37.9467   30.4175 C   0  0  0  0  0  0  0  0  0  0  0  0
   13.4727   38.3336   29.1067 C   0  0  0  0  0  0  0  0  0  0  0  0
   14.4525   38.0739   28.0249 C   0  0  0  0  0  0  0  0  0  0  0  0
   15.6758   37.8543   28.3322 N   0  0  0  0  0  0  0  0  0  0  0  0
   13.9583   38.1411   26.7500 N   0  0  0  0  0  0  0  0  0  0  0  0
    9.9685   41.3289   31.9745 C   0  0  0  0  0  0  0  0  0  0  0  0
   10.9095   41.9543   32.7938 C   0  0  0  0  0  0  0  0  0  0  0  0
   11.1303   43.3161   32.7011 C   0  0  0  0  0  0  0  0  0  0  0  0
   11.9888   44.0089   33.4689 O   0  0  0  0  0  0  0  0  0  0  0  0
   12.6707   43.3162   34.4947 C   0  0  0  0  0  0  0  0  0  0  0  0
   10.4041   44.0794   31.7620 C   0  0  0  0  0  0  0  0  0  0  0  0
    9.4890   43.4492   30.9385 C   0  0  0  0  0  0  0  0  0  0  0  0
    9.2687   42.0766   31.0502 C   0  0  0  0  0  0  0  0  0  0  0  0
   10.6718   45.4013   31.7699 O   0  0  0  0  0  0  0  0  0  0  0  0
   10.1371   46.2159   30.7456 C   0  0  0  0  0  0  0  0  0  0  0  0
   10.7415   45.9384   29.3938 C   0  0  0  0  0  0  0  0  0  0  0  0
   12.1021   45.6722   29.2633 C   0  0  0  0  0  0  0  0  0  0  0  0
   12.6562   45.4523   28.0105 C   0  0  0  0  0  0  0  0  0  0  0  0
   11.8592   45.5022   26.8730 C   0  0  0  0  0  0  0  0  0  0  0  0
   10.5032   45.7706   26.9965 C   0  0  0  0  0  0  0  0  0  0  0  0
    9.9486   45.9814   28.2526 C   0  0  0  0  0  0  0  0  0  0  0  0
    7.3244   40.7179   32.6552 H   0  0  0  0  0  0  0  0  0  0  0  0
    6.9050   39.8432   35.3907 H   0  0  0  0  0  0  0  0  0  0  0  0
    8.1798   42.9696   33.7215 H   0  0  0  0  0  0  0  0  0  0  0  0
    9.4038   44.7175   34.9356 H   0  0  0  0  0  0  0  0  0  0  0  0
    9.7077   44.5573   37.3841 H   0  0  0  0  0  0  0  0  0  0  0  0
    8.7731   42.6223   38.6154 H   0  0  0  0  0  0  0  0  0  0  0  0
    7.5474   40.8613   37.4003 H   0  0  0  0  0  0  0  0  0  0  0  0
    4.0346   41.7628   35.2452 H   0  0  0  0  0  0  0  0  0  0  0  0
    8.9636   39.5333   31.4005 H   0  0  0  0  0  0  0  0  0  0  0  0
   11.1252   38.7895   33.1846 H   0  0  0  0  0  0  0  0  0  0  0  0
   10.4343   39.7280   29.6766 H   0  0  0  0  0  0  0  0  0  0  0  0
   11.9908   39.3236   27.8930 H   0  0  0  0  0  0  0  0  0  0  0  0
   13.1355   37.8588   32.4535 H   0  0  0  0  0  0  0  0  0  0  0  0
   14.7037   37.4517   30.6265 H   0  0  0  0  0  0  0  0  0  0  0  0
   16.2286   37.6538   27.5031 H   0  0  0  0  0  0  0  0  0  0  0  0
   14.5619   37.8191   26.0102 H   0  0  0  0  0  0  0  0  0  0  0  0
   12.9908   37.9078   26.6002 H   0  0  0  0  0  0  0  0  0  0  0  0
   11.4486   41.3617   33.5215 H   0  0  0  0  0  0  0  0  0  0  0  0
   13.2713   44.0543   35.0203 H   0  0  0  0  0  0  0  0  0  0  0  0
   13.3325   42.5430   34.0953 H   0  0  0  0  0  0  0  0  0  0  0  0
   11.9770   42.8568   35.2038 H   0  0  0  0  0  0  0  0  0  0  0  0
    8.9266   44.0035   30.2007 H   0  0  0  0  0  0  0  0  0  0  0  0
    8.5426   41.6038   30.3988 H   0  0  0  0  0  0  0  0  0  0  0  0
   10.3690   47.2363   31.0557 H   0  0  0  0  0  0  0  0  0  0  0  0
    9.0452   46.1404   30.7012 H   0  0  0  0  0  0  0  0  0  0  0  0
   12.7362   45.6331   30.1405 H   0  0  0  0  0  0  0  0  0  0  0  0
   13.7148   45.2448   27.9212 H   0  0  0  0  0  0  0  0  0  0  0  0
   12.2938   45.3304   25.8968 H   0  0  0  0  0  0  0  0  0  0  0  0
    9.8727   45.8078   26.1176 H   0  0  0  0  0  0  0  0  0  0  0  0
    8.8860   46.1753   28.3448 H   0  0  0  0  0  0  0  0  0  0  0  0
  1  2  2  0
  2  3  1  0
  2 14  1  0
  3  4  1  0
  3 41  1  0
  4  5  1  0
  4 11  1  0
  4 42  1  1
  5  6  2  0
  5 10  1  0
  6  7  1  0
  6 43  1  0
  7  8  2  0
  7 44  1  0
  8  9  1  0
  8 45  1  0
  9 10  2  0
  9 46  1  0
 10 47  1  0
 11 12  2  0
 11 13  1  0
 13 48  1  0
 14 15  1  0
 14 25  1  0
 14 49  1  6
 15 16  1  0
 15 50  1  0
 16 17  2  0
 16 19  1  0
 17 18  1  0
 17 51  1  0
 18 21  2  0
 18 52  1  0
 19 20  2  0
 19 53  1  0
 20 21  1  0
 20 54  1  0
 21 22  1  0
 22 23  2  0
 22 24  1  0
 23 55  1  0
 24 56  1  0
 24 57  1  0
 25 26  2  0
 25 32  1  0
 26 27  1  0
 26 58  1  0
 27 28  1  0
 27 30  2  0
 28 29  1  0
 29 59  1  0
 29 60  1  0
 29 61  1  0
 30 31  1  0
 30 33  1  0
 31 32  2  0
 31 62  1  0
 32 63  1  0
 33 34  1  0
 34 35  1  0
 34 64  1  0
 34 65  1  0
 35 36  2  0
 35 40  1  0
 36 37  1  0
 36 66  1  0
 37 38  2  0
 37 67  1  0
 38 39  1  0
 38 68  1  0
 39 40  2  0
 39 69  1  0
 40 70  1  0
M  END
