
     RDKit          3D

 37 40  0  0  0  0  0  0  0  0999 V2000
    3.2973   -4.3838    1.2625 N   0  0  0  0  0  0  0  0  0  0  0  0
    1.9970   -3.8238    3.0351 O   0  0  0  0  0  0  0  0  0  0  0  0
   -3.4399    1.6467    2.5252 C   0  0  0  0  0  0  0  0  0  0  0  0
   -1.0503    0.7764    0.8648 C   0  0  0  0  0  0  0  0  0  0  0  0
   -4.2133    2.1939    3.5378 C   0  0  0  0  0  0  0  0  0  0  0  0
    0.8304   -1.5884    1.3037 C   0  0  0  0  0  0  0  0  0  0  0  0
    3.9540   -3.9990    0.0222 C   0  0  0  0  0  0  0  0  0  0  0  0
    2.9549   -3.5011   -1.0171 C   0  0  0  0  0  0  0  0  0  0  0  0
    1.7677   -2.6042    1.0186 C   0  0  0  0  0  0  0  0  0  0  0  0
    2.3530   -3.6309    1.8778 C   0  0  0  0  0  0  0  0  0  0  0  0
   -0.4292    0.7520   -1.4288 C   0  0  0  0  0  0  0  0  0  0  0  0
   -1.2754    1.8337   -1.6039 C   0  0  0  0  0  0  0  0  0  0  0  0
    2.0475   -2.5484   -0.3313 C   0  0  0  0  0  0  0  0  0  0  0  0
   -0.2993    0.1912   -0.1573 C   0  0  0  0  0  0  0  0  0  0  0  0
    0.5714   -0.9356    0.1182 C   0  0  0  0  0  0  0  0  0  0  0  0
   -1.8775    1.8545    0.5857 C   0  0  0  0  0  0  0  0  0  0  0  0
   -2.6938    2.4521    1.6647 C   0  0  0  0  0  0  0  0  0  0  0  0
   -2.7503    3.8253    1.8725 C   0  0  0  0  0  0  0  0  0  0  0  0
   -3.5085    4.3959    2.8757 C   0  0  0  0  0  0  0  0  0  0  0  0
   -4.2486    3.5708    3.7108 C   0  0  0  0  0  0  0  0  0  0  0  0
   -2.0145    4.6340    1.0974 F   0  0  0  0  0  0  0  0  0  0  0  0
    1.3249   -1.5493   -0.8604 N   0  0  0  0  0  0  0  0  0  0  0  0
   -1.9897    2.3838   -0.6331 N   0  0  0  0  0  0  0  0  0  0  0  0
    3.7788   -5.0543    1.8425 H   0  0  0  0  0  0  0  0  0  0  0  0
   -0.9852    0.4061    1.8791 H   0  0  0  0  0  0  0  0  0  0  0  0
   -4.7901    1.5472    4.1847 H   0  0  0  0  0  0  0  0  0  0  0  0
    0.4015   -1.3614    2.2668 H   0  0  0  0  0  0  0  0  0  0  0  0
    4.4849   -4.8690   -0.3589 H   0  0  0  0  0  0  0  0  0  0  0  0
    4.6981   -3.2172    0.2075 H   0  0  0  0  0  0  0  0  0  0  0  0
    2.3802   -4.3356   -1.4303 H   0  0  0  0  0  0  0  0  0  0  0  0
    3.4922   -3.0368   -1.8448 H   0  0  0  0  0  0  0  0  0  0  0  0
    0.1122    0.3758   -2.2861 H   0  0  0  0  0  0  0  0  0  0  0  0
   -1.3791    2.2755   -2.5886 H   0  0  0  0  0  0  0  0  0  0  0  0
   -3.5109    5.4704    3.0059 H   0  0  0  0  0  0  0  0  0  0  0  0
   -4.8475    4.0090    4.4979 H   0  0  0  0  0  0  0  0  0  0  0  0
    1.3489   -1.2885   -1.8338 H   0  0  0  0  0  0  0  0  0  0  0  0
   -3.4240    0.5732    2.3832 H   0  0  0  0  0  0  0  0  0  0  0  0
  1 10  1  0
  1  7  1  0
  1 24  1  0
  2 10  2  0
  3  5  2  0
  3 17  1  0
  3 37  1  0
  4 16  2  0
  4 14  1  0
  4 25  1  0
  5 20  1  0
  5 26  1  0
  6 15  2  0
  6  9  1  0
  6 27  1  0
  7  8  1  0
  7 28  1  0
  7 29  1  0
  8 13  1  0
  8 30  1  0
  8 31  1  0
  9 10  1  0
  9 13  2  0
 11 12  1  0
 11 14  2  0
 11 32  1  0
 12 23  2  0
 12 33  1  0
 13 22  1  0
 14 15  1  0
 15 22  1  0
 16 23  1  0
 16 17  1  0
 17 18  2  0
 18 19  1  0
 18 21  1  0
 19 20  2  0
 19 34  1  0
 20 35  1  0
 22 36  1  0
M  END
