
     RDKit          3D

 46 47  0  0  0  0  0  0  0  0999 V2000
    4.4821   -0.6082   -1.8335 C   0  0  0  0  0  0  0  0  0  0  0  0
    3.2786    0.1041   -1.2480 C   0  0  2  0  0  0  0  0  0  0  0  0
    1.1173   -0.5914   -0.7400 C   0  0  0  0  0  0  0  0  0  0  0  0
    0.1504   -1.4895   -0.1180 C   0  0  0  0  0  0  0  0  0  0  0  0
    0.5704   -2.7255    0.3881 C   0  0  0  0  0  0  0  0  0  0  0  0
   -0.3833   -3.5825    0.9730 C   0  0  0  0  0  0  0  0  0  0  0  0
    0.0339   -4.9173    1.5061 C   0  0  0  0  0  0  0  0  0  0  0  0
   -2.0515   -2.0384    0.6085 C   0  0  0  0  0  0  0  0  0  0  0  0
   -1.2015   -1.1293    0.0130 C   0  0  0  0  0  0  0  0  0  0  0  0
   -1.6797    0.2062   -0.4920 C   0  0  0  0  0  0  0  0  0  0  0  0
    3.7308    1.0475   -0.0976 C   0  0  0  0  0  0  0  0  0  0  0  0
    2.5502    1.7543    0.5008 C   0  0  0  0  0  0  0  0  0  0  0  0
    2.0324    2.8978   -0.1044 C   0  0  0  0  0  0  0  0  0  0  0  0
    0.8753    3.4941    0.3782 C   0  0  0  0  0  0  0  0  0  0  0  0
    0.2143    2.9495    1.4721 C   0  0  0  0  0  0  0  0  0  0  0  0
    0.7256    1.8151    2.0876 C   0  0  0  0  0  0  0  0  0  0  0  0
    1.8872    1.2259    1.6064 C   0  0  0  0  0  0  0  0  0  0  0  0
    2.3583   -0.8679   -0.7382 N   0  0  0  0  0  0  0  0  0  0  0  0
   -1.6479   -3.2259    1.0649 N   0  0  0  0  0  0  0  0  0  0  0  0
    5.2644    0.2395   -2.4847 O   0  0  0  0  0  0  0  0  0  0  0  0
   -3.0570    0.4137   -0.2098 O   0  0  0  0  0  0  0  0  0  0  0  0
   -3.2694    2.8823    0.4461 O   0  0  0  0  0  0  0  0  0  0  0  0
   -5.0487    1.0735    0.9039 O   0  0  0  0  0  0  0  0  0  0  0  0
   -2.8035    1.2157    2.2736 O   0  0  0  0  0  0  0  0  0  0  0  0
    1.8332   -3.1319    0.3384 O   0  0  0  0  0  0  0  0  0  0  0  0
    4.7128   -1.7818   -1.7104 O   0  0  0  0  0  0  0  0  0  0  0  0
   -3.4893    1.3938    0.9829 P   0  0  1  0  0  0  0  0  0  0  0  0
    2.8240    0.7225   -2.0330 H   0  0  0  0  0  0  0  0  0  0  0  0
    0.7462    0.3215   -1.2088 H   0  0  0  0  0  0  0  0  0  0  0  0
    0.7760   -4.8172    2.3000 H   0  0  0  0  0  0  0  0  0  0  0  0
   -0.8290   -5.4433    1.9084 H   0  0  0  0  0  0  0  0  0  0  0  0
    0.4827   -5.5375    0.7282 H   0  0  0  0  0  0  0  0  0  0  0  0
   -3.1033   -1.8199    0.7347 H   0  0  0  0  0  0  0  0  0  0  0  0
   -1.0652    1.0094   -0.0725 H   0  0  0  0  0  0  0  0  0  0  0  0
   -1.5744    0.2607   -1.5778 H   0  0  0  0  0  0  0  0  0  0  0  0
    4.2533    0.4579    0.6580 H   0  0  0  0  0  0  0  0  0  0  0  0
    4.4405    1.7676   -0.5057 H   0  0  0  0  0  0  0  0  0  0  0  0
    2.5352    3.3198   -0.9673 H   0  0  0  0  0  0  0  0  0  0  0  0
    0.4849    4.3800   -0.1061 H   0  0  0  0  0  0  0  0  0  0  0  0
   -0.7003    3.3979    1.8351 H   0  0  0  0  0  0  0  0  0  0  0  0
    0.2077    1.3790    2.9313 H   0  0  0  0  0  0  0  0  0  0  0  0
    2.2713    0.3331    2.0859 H   0  0  0  0  0  0  0  0  0  0  0  0
    6.0464   -0.2186   -2.8282 H   0  0  0  0  0  0  0  0  0  0  0  0
   -3.7030    3.0943   -0.3915 H   0  0  0  0  0  0  0  0  0  0  0  0
   -5.5671    1.4698    1.6168 H   0  0  0  0  0  0  0  0  0  0  0  0
    2.3747   -2.3943   -0.0616 H   0  0  0  0  0  0  0  0  0  0  0  0
 24 27  2  0
 27 22  1  6
 27 23  1  0
 27 21  1  0
 21 10  1  0
 10  9  1  0
  9  8  2  0
  9  4  1  0
  8 19  1  0
 11 12  1  0
 11  2  1  0
  3  4  1  0
  3 18  2  0
 13 12  2  0
 13 14  1  0
  4  5  2  0
 12 17  1  0
 14 15  2  0
  2 18  1  0
  2  1  1  0
 19  6  2  0
 17 16  2  0
 15 16  1  0
  5  6  1  0
  5 25  1  0
  6  7  1  0
  1 26  2  0
  1 20  1  0
  2 28  1  6
  3 29  1  0
  7 30  1  0
  7 31  1  0
  7 32  1  0
  8 33  1  0
 10 34  1  0
 10 35  1  0
 11 36  1  0
 11 37  1  0
 13 38  1  0
 14 39  1  0
 15 40  1  0
 16 41  1  0
 17 42  1  0
 20 43  1  0
 22 44  1  0
 23 45  1  0
 25 46  1  0
M  END
