
     RDKit          3D

 37 38  0  0  0  0  0  0  0  0999 V2000
   -2.6793    2.6155    0.7531 O   0  0  0  0  0  0  0  0  0  0  0  0
   -1.9005    1.4924    0.3998 C   0  0  2  0  0  0  0  0  0  0  0  0
   -2.7894    0.5670   -0.4218 C   0  0  1  0  0  0  0  0  0  0  0  0
   -3.2241    1.1737   -1.6154 O   0  0  0  0  0  0  0  0  0  0  0  0
   -1.3906    0.7544    1.6380 C   0  0  0  0  0  0  0  0  0  0  0  0
   -0.7420   -0.4832    1.2673 N   0  0  0  0  0  0  0  0  0  0  0  0
   -1.5396   -1.3911    0.4701 C   0  0  1  0  0  0  0  0  0  0  0  0
   -2.0450   -0.7127   -0.8005 C   0  0  2  0  0  0  0  0  0  0  0  0
   -0.9494   -0.4492   -1.6365 O   0  0  0  0  0  0  0  0  0  0  0  0
    1.0464   -2.0467    0.2360 S   0  0  0  0  0  0  0  0  0  0  0  0
   -0.6733   -2.6242    0.2215 C   0  0  0  0  0  0  0  0  0  0  0  0
    0.6067   -0.5109    1.0238 C   0  0  0  0  0  0  0  0  0  0  0  0
    1.4023    0.4101    1.3614 N   0  0  0  0  0  0  0  0  0  0  0  0
    2.8115    0.2649    1.0935 C   0  0  0  0  0  0  0  0  0  0  0  0
    3.1953    0.8023   -0.2823 C   0  0  0  0  0  0  0  0  0  0  0  0
    4.6900    0.6968   -0.5551 C   0  0  0  0  0  0  0  0  0  0  0  0
    5.0804    1.2305   -1.9262 C   0  0  0  0  0  0  0  0  0  0  0  0
   -2.0896    3.3425    0.9735 H   0  0  0  0  0  0  0  0  0  0  0  0
   -1.0372    1.7920   -0.2082 H   0  0  0  0  0  0  0  0  0  0  0  0
   -3.6493    0.2764    0.2041 H   0  0  0  0  0  0  0  0  0  0  0  0
   -3.5473    2.0564   -1.4033 H   0  0  0  0  0  0  0  0  0  0  0  0
   -0.6842    1.3720    2.1904 H   0  0  0  0  0  0  0  0  0  0  0  0
   -2.2278    0.5286    2.3063 H   0  0  0  0  0  0  0  0  0  0  0  0
   -2.4184   -1.6921    1.0492 H   0  0  0  0  0  0  0  0  0  0  0  0
   -2.7596   -1.3978   -1.2827 H   0  0  0  0  0  0  0  0  0  0  0  0
   -1.2515    0.1157   -2.3567 H   0  0  0  0  0  0  0  0  0  0  0  0
   -0.8106   -3.3604    1.0113 H   0  0  0  0  0  0  0  0  0  0  0  0
   -0.8925   -3.0954   -0.7345 H   0  0  0  0  0  0  0  0  0  0  0  0
    3.3653    0.8198    1.8562 H   0  0  0  0  0  0  0  0  0  0  0  0
    3.1503   -0.7791    1.1799 H   0  0  0  0  0  0  0  0  0  0  0  0
    2.6399    0.2535   -1.0497 H   0  0  0  0  0  0  0  0  0  0  0  0
    2.8776    1.8472   -0.3588 H   0  0  0  0  0  0  0  0  0  0  0  0
    5.2390    1.2426    0.2185 H   0  0  0  0  0  0  0  0  0  0  0  0
    5.0037   -0.3482   -0.4670 H   0  0  0  0  0  0  0  0  0  0  0  0
    4.5677    0.6889   -2.7231 H   0  0  0  0  0  0  0  0  0  0  0  0
    4.8221    2.2863   -2.0274 H   0  0  0  0  0  0  0  0  0  0  0  0
    6.1529    1.1366   -2.1003 H   0  0  0  0  0  0  0  0  0  0  0  0
  1  2  1  0
 16 15  1  0
 16 17  1  0
  5  2  1  0
  5  6  1  0
 15 14  1  0
  2  3  1  0
 14 13  1  0
 13 12  2  0
  6 12  1  0
  6  7  1  0
 12 10  1  0
  3  4  1  0
  3  8  1  0
  7  8  1  0
  7 11  1  0
  8  9  1  0
 10 11  1  0
  1 18  1  0
  2 19  1  6
  3 20  1  1
  4 21  1  0
  5 22  1  0
  5 23  1  0
  7 24  1  1
  8 25  1  6
  9 26  1  0
 11 27  1  0
 11 28  1  0
 14 29  1  0
 14 30  1  0
 15 31  1  0
 15 32  1  0
 16 33  1  0
 16 34  1  0
 17 35  1  0
 17 36  1  0
 17 37  1  0
M  END
