
     RDKit          3D

 48 50  0  0  0  0  0  0  0  0999 V2000
    4.6202   -1.8896   -0.6234 O   0  0  0  0  0  0  0  0  0  0  0  0
    4.4525   -0.7346   -0.2440 C   0  0  0  0  0  0  0  0  0  0  0  0
    5.4657    0.1458   -0.2152 N   0  0  0  0  0  0  0  0  0  0  0  0
    5.3918    1.5288    0.2429 C   0  0  0  0  0  0  0  0  0  0  0  0
    6.8536    1.9003    0.4574 C   0  0  0  0  0  0  0  0  0  0  0  0
    7.5742    1.0933   -0.6185 C   0  0  0  0  0  0  0  0  0  0  0  0
    6.8101   -0.2268   -0.6439 C   0  0  0  0  0  0  0  0  0  0  0  0
    3.1042   -0.2234    0.2204 C   0  0  0  0  0  0  0  0  0  0  0  0
    1.9867   -1.2464    0.0791 C   0  0  0  0  0  0  0  0  0  0  0  0
    0.6521   -0.7559    0.6344 C   0  0  1  0  0  0  0  0  0  0  0  0
    0.0986    0.4521   -0.1128 C   0  0  0  0  0  0  0  0  0  0  0  0
   -1.2613    0.8902    0.4163 C   0  0  0  0  0  0  0  0  0  0  0  0
   -2.2102   -0.2092    0.3978 N   0  0  0  0  0  0  0  0  0  0  0  0
   -1.7369   -1.3758    1.1290 C   0  0  0  0  0  0  0  0  0  0  0  0
   -0.3964   -1.8620    0.6035 C   0  0  0  0  0  0  0  0  0  0  0  0
   -3.5261   -0.0241    0.0943 C   0  0  0  0  0  0  0  0  0  0  0  0
   -4.4100   -1.1179   -0.0618 C   0  0  0  0  0  0  0  0  0  0  0  0
   -5.7260   -0.9373   -0.4159 C   0  0  0  0  0  0  0  0  0  0  0  0
   -6.2428    0.3445   -0.6286 C   0  0  0  0  0  0  0  0  0  0  0  0
   -7.6003    0.5283   -0.9986 C   0  0  0  0  0  0  0  0  0  0  0  0
   -8.7047    0.6776   -1.3012 N   0  0  0  0  0  0  0  0  0  0  0  0
   -5.3918    1.4391   -0.4654 C   0  0  0  0  0  0  0  0  0  0  0  0
   -4.0739    1.2634   -0.1072 C   0  0  0  0  0  0  0  0  0  0  0  0
    4.9323    2.1688   -0.5172 H   0  0  0  0  0  0  0  0  0  0  0  0
    4.8013    1.6194    1.1546 H   0  0  0  0  0  0  0  0  0  0  0  0
    7.0208    2.9736    0.3778 H   0  0  0  0  0  0  0  0  0  0  0  0
    7.1779    1.5829    1.4510 H   0  0  0  0  0  0  0  0  0  0  0  0
    7.4938    1.5968   -1.5844 H   0  0  0  0  0  0  0  0  0  0  0  0
    8.6334    0.9497   -0.4087 H   0  0  0  0  0  0  0  0  0  0  0  0
    7.2445   -0.9545    0.0474 H   0  0  0  0  0  0  0  0  0  0  0  0
    6.7942   -0.6844   -1.6337 H   0  0  0  0  0  0  0  0  0  0  0  0
    3.1908    0.0843    1.2686 H   0  0  0  0  0  0  0  0  0  0  0  0
    2.8629    0.6917   -0.3286 H   0  0  0  0  0  0  0  0  0  0  0  0
    1.8604   -1.5202   -0.9729 H   0  0  0  0  0  0  0  0  0  0  0  0
    2.2668   -2.1634    0.6036 H   0  0  0  0  0  0  0  0  0  0  0  0
    0.8033   -0.4672    1.6840 H   0  0  0  0  0  0  0  0  0  0  0  0
    0.7762    1.3060   -0.0436 H   0  0  0  0  0  0  0  0  0  0  0  0
    0.0015    0.2080   -1.1761 H   0  0  0  0  0  0  0  0  0  0  0  0
   -1.1574    1.2861    1.4360 H   0  0  0  0  0  0  0  0  0  0  0  0
   -1.6189    1.7044   -0.2087 H   0  0  0  0  0  0  0  0  0  0  0  0
   -1.6383   -1.1110    2.1905 H   0  0  0  0  0  0  0  0  0  0  0  0
   -2.4603   -2.1827    1.0781 H   0  0  0  0  0  0  0  0  0  0  0  0
   -0.5199   -2.2278   -0.4214 H   0  0  0  0  0  0  0  0  0  0  0  0
   -0.0725   -2.7123    1.2093 H   0  0  0  0  0  0  0  0  0  0  0  0
   -4.0632   -2.1326    0.0640 H   0  0  0  0  0  0  0  0  0  0  0  0
   -6.3614   -1.8043   -0.5406 H   0  0  0  0  0  0  0  0  0  0  0  0
   -5.7686    2.4435   -0.6065 H   0  0  0  0  0  0  0  0  0  0  0  0
   -3.4749    2.1503    0.0339 H   0  0  0  0  0  0  0  0  0  0  0  0
  1  2  2  0
  4  5  1  0
  4  3  1  0
  5  6  1  0
  2  3  1  0
  2  8  1  0
  3  7  1  0
  9  8  1  0
  9 10  1  0
 21 20  3  0
 11 10  1  0
 11 12  1  0
  6  7  1  0
 10 15  1  0
 20 19  1  0
 22 19  2  0
 22 23  1  0
 19 18  1  0
 23 16  2  0
 12 13  1  0
 18 17  2  0
 16 17  1  0
 16 13  1  0
 15 14  1  0
 13 14  1  0
  4 24  1  0
  4 25  1  0
  5 26  1  0
  5 27  1  0
  6 28  1  0
  6 29  1  0
  7 30  1  0
  7 31  1  0
  8 32  1  0
  8 33  1  0
  9 34  1  0
  9 35  1  0
 10 36  1  1
 11 37  1  0
 11 38  1  0
 12 39  1  0
 12 40  1  0
 14 41  1  0
 14 42  1  0
 15 43  1  0
 15 44  1  0
 17 45  1  0
 18 46  1  0
 22 47  1  0
 23 48  1  0
M  END
