
     RDKit          3D

 17 17  0  0  0  0  0  0  0  0999 V2000
   -0.1819    0.4600    0.0352 C   0  0  0  0  0  0  0  0  0  0  0  0
    1.6998   -1.2668    0.0296 C   0  0  0  0  0  0  0  0  0  0  0  0
    0.2653   -0.8482    0.1136 C   0  0  0  0  0  0  0  0  0  0  0  0
   -1.8810   -1.5728    0.2883 C   0  0  0  0  0  0  0  0  0  0  0  0
   -2.3277   -0.2444    0.1500 C   0  0  0  0  0  0  0  0  0  0  0  0
    0.7755    1.6074    0.0541 C   0  0  0  0  0  0  0  0  0  0  0  0
   -0.6023   -1.8501    0.2617 N   0  0  0  0  0  0  0  0  0  0  0  0
   -1.4788    0.7490    0.0445 N   0  0  0  0  0  0  0  0  0  0  0  0
    2.2695   -0.8338   -1.0791 O   0  0  0  0  0  0  0  0  0  0  0  0
    2.2226   -1.9700    0.8519 O   0  0  0  0  0  0  0  0  0  0  0  0
   -3.6280   -0.0105    0.1404 O   0  0  0  0  0  0  0  0  0  0  0  0
    0.2697    2.6952   -0.4841 O   0  0  0  0  0  0  0  0  0  0  0  0
    1.8729    1.5162    0.5416 O   0  0  0  0  0  0  0  0  0  0  0  0
   -2.5839   -2.3870    0.4176 H   0  0  0  0  0  0  0  0  0  0  0  0
    3.2019   -1.0997   -1.1105 H   0  0  0  0  0  0  0  0  0  0  0  0
    0.9018    3.4280   -0.4169 H   0  0  0  0  0  0  0  0  0  0  0  0
   -3.7918    0.9384    0.0434 H   0  0  0  0  0  0  0  0  0  0  0  0
 11  5  1  0
 13  6  2  0
  8  5  1  0
  8  1  2  0
 12  6  1  0
  6  1  1  0
  5  4  2  0
  1  3  1  0
  4  7  1  0
  3  7  2  0
  3  2  1  0
 10  2  2  0
  2  9  1  0
  4 14  1  0
  9 15  1  0
 12 16  1  0
 11 17  1  0
M  END
