
     RDKit          3D

 20 20  0  0  0  0  0  0  0  0999 V2000
    2.9579    0.0484    0.0321 C   0  0  0  0  0  0  0  0  0  0  0  0
    3.8691   -0.9416    0.0415 N   0  0  0  0  0  0  0  0  0  0  0  0
    3.2697    1.2311    0.0210 O   0  0  0  0  0  0  0  0  0  0  0  0
    1.5502   -0.4148    0.0399 C   0  0  0  0  0  0  0  0  0  0  0  0
    0.5416    0.4594    0.0138 C   0  0  0  0  0  0  0  0  0  0  0  0
   -0.8865    0.1589    0.0163 C   0  0  0  0  0  0  0  0  0  0  0  0
   -1.7918    1.2209    0.0079 C   0  0  0  0  0  0  0  0  0  0  0  0
   -3.1590    0.9934    0.0110 C   0  0  0  0  0  0  0  0  0  0  0  0
   -3.6458   -0.3041    0.0222 C   0  0  0  0  0  0  0  0  0  0  0  0
   -2.7564   -1.3728    0.0303 C   0  0  0  0  0  0  0  0  0  0  0  0
   -1.3930   -1.1443    0.0269 C   0  0  0  0  0  0  0  0  0  0  0  0
    4.8510   -0.7292    0.0264 H   0  0  0  0  0  0  0  0  0  0  0  0
    3.6152   -1.9115    0.0298 H   0  0  0  0  0  0  0  0  0  0  0  0
    1.3714   -1.4833    0.0692 H   0  0  0  0  0  0  0  0  0  0  0  0
    0.7970    1.5143   -0.0119 H   0  0  0  0  0  0  0  0  0  0  0  0
   -1.4225    2.2390    0.0025 H   0  0  0  0  0  0  0  0  0  0  0  0
   -3.8429    1.8312    0.0052 H   0  0  0  0  0  0  0  0  0  0  0  0
   -4.7124   -0.4848    0.0246 H   0  0  0  0  0  0  0  0  0  0  0  0
   -3.1303   -2.3880    0.0391 H   0  0  0  0  0  0  0  0  0  0  0  0
   -0.7176   -1.9901    0.0319 H   0  0  0  0  0  0  0  0  0  0  0  0
  1  2  1  0
  1  3  2  0
  1  4  1  0
  4  5  2  0
  5  6  1  0
  6  7  2  0
  6 11  1  0
  7  8  1  0
  8  9  2  0
  9 10  1  0
 10 11  2  0
  2 12  1  0
  2 13  1  0
  4 14  1  0
  5 15  1  0
  7 16  1  0
  8 17  1  0
  9 18  1  0
 10 19  1  0
 11 20  1  0
M  END
