
     RDKit          3D

 71 74  0  0  0  0  0  0  0  0999 V2000
   -0.4095    3.5836   -0.0650 C   0  0  0  0  0  0  0  0  0  0  0  0
    0.9320    3.0243    0.3956 C   0  0  0  0  0  0  0  0  0  0  0  0
    1.7851    2.3637   -0.7045 C   0  0  2  0  0  0  0  0  0  0  0  0
    1.1081    1.0960   -1.2672 C   0  0  0  0  0  0  0  0  0  0  0  0
    0.7993   -0.0783   -0.3247 C   0  0  2  0  0  0  0  0  0  0  0  0
    1.6586   -1.3538   -0.5456 C   0  0  2  0  0  0  0  0  0  0  0  0
    1.5171   -2.3561    0.6318 C   0  0  1  0  0  0  0  0  0  0  0  0
    2.0756   -1.7761    1.9321 C   0  0  0  0  0  0  0  0  0  0  0  0
    3.5208   -1.3171    1.8177 C   0  0  0  0  0  0  0  0  0  0  0  0
    3.7755   -0.3177    0.6745 C   0  0  2  0  0  0  0  0  0  0  0  0
    3.1521   -0.9412   -0.6044 C   0  0  1  0  0  0  0  0  0  0  0  0
    4.1784   -2.0153   -0.9643 C   0  0  0  0  0  0  0  0  0  0  0  0
    5.5353   -1.5728   -0.4626 C   0  0  0  0  0  0  0  0  0  0  0  0
    5.2827   -0.3088    0.3470 C   0  0  0  0  0  0  0  0  0  0  0  0
    3.2956    1.1114    1.0460 C   0  0  2  0  0  0  0  0  0  0  0  0
    3.2146    2.0657   -0.1886 C   0  0  2  0  0  0  0  0  0  0  0  0
    4.1540    1.7033    2.1696 C   0  0  0  0  0  0  0  0  0  0  0  0
    0.1241   -2.9290    0.8918 C   0  0  0  0  0  0  0  0  0  0  0  0
    1.2395   -1.9969   -1.8757 C   0  0  0  0  0  0  0  0  0  0  0  0
   -2.8805   -0.4853   -0.2350 C   0  0  0  0  0  0  0  0  0  0  0  0
   -5.5717   -0.2439   -0.0333 C   0  0  0  0  0  0  0  0  0  0  0  0
   -7.6070   -0.3922   -0.4667 C   0  0  0  0  0  0  0  0  0  0  0  0
    1.9140    3.3168   -1.9047 C   0  0  0  0  0  0  0  0  0  0  0  0
   -6.7820    0.1762    0.3961 N   0  0  0  0  0  0  0  0  0  0  0  0
   -6.9046   -1.1068   -1.3534 N   0  0  0  0  0  0  0  0  0  0  0  0
   -5.5779   -1.0203   -1.0826 N   0  0  0  0  0  0  0  0  0  0  0  0
   -8.9585   -0.3253   -0.4333 N   0  0  0  0  0  0  0  0  0  0  0  0
    4.0016   -3.0480   -1.5644 O   0  0  0  0  0  0  0  0  0  0  0  0
    3.8235    3.3196    0.0508 O   0  0  0  0  0  0  0  0  0  0  0  0
   -0.5830   -0.4439   -0.5539 O   0  0  0  0  0  0  0  0  0  0  0  0
   -1.3668    0.5399    1.3102 O   0  0  0  0  0  0  0  0  0  0  0  0
   -4.1387    0.2678    0.8219 S   0  0  0  0  0  0  0  0  0  0  0  0
   -0.9840    3.9367    0.7917 H   0  0  0  0  0  0  0  0  0  0  0  0
   -0.2849    4.4287   -0.7418 H   0  0  0  0  0  0  0  0  0  0  0  0
   -1.0232    2.8433   -0.5781 H   0  0  0  0  0  0  0  0  0  0  0  0
    1.5074    3.8402    0.8382 H   0  0  0  0  0  0  0  0  0  0  0  0
    0.7523    2.3142    1.2062 H   0  0  0  0  0  0  0  0  0  0  0  0
    0.1599    1.4172   -1.7018 H   0  0  0  0  0  0  0  0  0  0  0  0
    1.6891    0.7517   -2.1278 H   0  0  0  0  0  0  0  0  0  0  0  0
    0.8754    0.2395    0.7106 H   0  0  0  0  0  0  0  0  0  0  0  0
    2.1464   -3.2092    0.3529 H   0  0  0  0  0  0  0  0  0  0  0  0
    1.4364   -0.9577    2.2803 H   0  0  0  0  0  0  0  0  0  0  0  0
    2.0097   -2.5397    2.7121 H   0  0  0  0  0  0  0  0  0  0  0  0
    3.8527   -0.9000    2.7705 H   0  0  0  0  0  0  0  0  0  0  0  0
    4.1469   -2.2051    1.6699 H   0  0  0  0  0  0  0  0  0  0  0  0
    3.2940   -0.2317   -1.4334 H   0  0  0  0  0  0  0  0  0  0  0  0
    5.9687   -2.3791    0.1332 H   0  0  0  0  0  0  0  0  0  0  0  0
    6.2079   -1.4224   -1.3097 H   0  0  0  0  0  0  0  0  0  0  0  0
    5.5429    0.5765   -0.2386 H   0  0  0  0  0  0  0  0  0  0  0  0
    5.8878   -0.2765    1.2536 H   0  0  0  0  0  0  0  0  0  0  0  0
    2.3033    1.0288    1.4889 H   0  0  0  0  0  0  0  0  0  0  0  0
    3.7433    1.5934   -1.0294 H   0  0  0  0  0  0  0  0  0  0  0  0
    5.1874    1.8894    1.8746 H   0  0  0  0  0  0  0  0  0  0  0  0
    3.7336    2.6436    2.5209 H   0  0  0  0  0  0  0  0  0  0  0  0
    4.1875    1.0314    3.0262 H   0  0  0  0  0  0  0  0  0  0  0  0
   -0.3886   -3.2422   -0.0170 H   0  0  0  0  0  0  0  0  0  0  0  0
    0.2161   -3.8108    1.5286 H   0  0  0  0  0  0  0  0  0  0  0  0
   -0.5180   -2.2305    1.4292 H   0  0  0  0  0  0  0  0  0  0  0  0
    1.7814   -2.9183   -2.0594 H   0  0  0  0  0  0  0  0  0  0  0  0
    0.1787   -2.2352   -1.8935 H   0  0  0  0  0  0  0  0  0  0  0  0
    1.4370   -1.3277   -2.7162 H   0  0  0  0  0  0  0  0  0  0  0  0
   -3.0113   -0.1705   -1.2710 H   0  0  0  0  0  0  0  0  0  0  0  0
   -2.9576   -1.5749   -0.2134 H   0  0  0  0  0  0  0  0  0  0  0  0
    2.2165    4.3190   -1.6054 H   0  0  0  0  0  0  0  0  0  0  0  0
    2.6494    2.9416   -2.6206 H   0  0  0  0  0  0  0  0  0  0  0  0
    0.9661    3.4051   -2.4374 H   0  0  0  0  0  0  0  0  0  0  0  0
   -9.4509   -0.5279   -1.2883 H   0  0  0  0  0  0  0  0  0  0  0  0
   -9.3342    0.4651    0.0650 H   0  0  0  0  0  0  0  0  0  0  0  0
    4.7735    3.1931    0.1197 H   0  0  0  0  0  0  0  0  0  0  0  0
   -7.2349   -1.6489   -2.1361 H   0  0  0  0  0  0  0  0  0  0  0  0
   -1.5289   -0.0592    0.2771 C   0  0  0  0  0  0  0  0  0  0  0  0
 28 12  2  0
  6 19  1  6
 12 13  1  0
 12 11  1  0
  8  7  1  0
  8  9  1  0
 13 14  1  0
  7  6  1  0
  7 18  1  0
  6 11  1  0
  6  5  1  0
 31 71  2  0
 11 10  1  0
 10  9  1  1
 32 21  1  0
 32 20  1  0
 14 10  1  0
 71 20  1  0
 71 30  1  0
 10 15  1  0
 24 21  1  0
 24 22  2  0
  5 30  1  0
  5  4  1  0
 21 26  2  0
 22 27  1  0
 22 25  1  0
  4  3  1  0
 26 25  1  0
 15 16  1  0
 15 17  1  0
 16  3  1  0
 16 29  1  0
  3 23  1  6
  3  2  1  0
  2  1  1  0
  1 33  1  0
  1 34  1  0
  1 35  1  0
  2 36  1  0
  2 37  1  0
  4 38  1  0
  4 39  1  0
  5 40  1  1
  7 41  1  6
  8 42  1  0
  8 43  1  0
  9 44  1  0
  9 45  1  0
 11 46  1  6
 13 47  1  0
 13 48  1  0
 14 49  1  0
 14 50  1  0
 15 51  1  1
 16 52  1  6
 17 53  1  0
 17 54  1  0
 17 55  1  0
 18 56  1  0
 18 57  1  0
 18 58  1  0
 19 59  1  0
 19 60  1  0
 19 61  1  0
 20 62  1  0
 20 63  1  0
 23 64  1  0
 23 65  1  0
 23 66  1  0
 27 67  1  0
 27 68  1  0
 29 69  1  0
 25 70  1  0
M  END
