
     RDKit          3D

 24 24  0  0  0  0  0  0  0  0999 V2000
    1.7467    0.9984   -0.1989 N   0  0  0  0  0  0  0  0  0  0  0  0
    1.6908   -0.2939   -0.0510 C   0  0  0  0  0  0  0  0  0  0  0  0
    2.9813   -0.8590    0.0530 C   0  0  0  0  0  0  0  0  0  0  0  0
    3.8040    0.2137   -0.0441 C   0  0  0  0  0  0  0  0  0  0  0  0
    5.2740    0.3718   -0.0201 C   0  0  0  0  0  0  0  0  0  0  0  0
   -0.6989   -0.2608   -0.0484 N   0  0  0  0  0  0  0  0  0  0  0  0
   -5.3601    0.7022    0.0161 C   0  0  0  0  0  0  0  0  0  0  0  0
   -4.2684   -0.2230    0.0090 O   0  0  0  0  0  0  0  0  0  0  0  0
   -3.0488    0.2742   -0.0176 C   0  0  0  0  0  0  0  0  0  0  0  0
   -2.0187   -0.8277   -0.0138 C   0  0  0  0  0  0  0  0  0  0  0  0
    0.3954   -1.0257   -0.0072 C   0  0  0  0  0  0  0  0  0  0  0  0
   -2.7864    1.4497   -0.0409 O   0  0  0  0  0  0  0  0  0  0  0  0
    0.3803   -2.2442    0.0627 O   0  0  0  0  0  0  0  0  0  0  0  0
    3.0586    1.3185   -0.1961 O   0  0  0  0  0  0  0  0  0  0  0  0
    3.2506   -1.8928    0.1818 H   0  0  0  0  0  0  0  0  0  0  0  0
    5.6463    0.7405   -0.9765 H   0  0  0  0  0  0  0  0  0  0  0  0
    5.5837    1.0756    0.7528 H   0  0  0  0  0  0  0  0  0  0  0  0
    5.7434   -0.5875    0.1822 H   0  0  0  0  0  0  0  0  0  0  0  0
   -0.6090    0.7444   -0.0941 H   0  0  0  0  0  0  0  0  0  0  0  0
   -5.3336    1.3354    0.9019 H   0  0  0  0  0  0  0  0  0  0  0  0
   -5.3555    1.3249   -0.8775 H   0  0  0  0  0  0  0  0  0  0  0  0
   -6.2611    0.0971    0.0307 H   0  0  0  0  0  0  0  0  0  0  0  0
   -2.1945   -1.4818   -0.8730 H   0  0  0  0  0  0  0  0  0  0  0  0
   -2.1625   -1.4424    0.8797 H   0  0  0  0  0  0  0  0  0  0  0  0
 14  1  1  0
 14  4  1  0
 12  9  2  0
  1  2  2  0
  6 10  1  0
  6 11  1  0
  4  5  1  0
  4  3  2  0
  9 10  1  0
  9  8  1  0
  2 11  1  0
  2  3  1  0
  7  8  1  0
 11 13  2  0
  3 15  1  0
  5 16  1  0
  5 17  1  0
  5 18  1  0
  6 19  1  0
  7 20  1  0
  7 21  1  0
  7 22  1  0
 10 23  1  0
 10 24  1  0
M  END
