
     RDKit          3D

 78 82  0  0  0  0  0  0  0  0999 V2000
   10.0348    4.3551    3.6718 C   0  0  0  0  0  0  0  0  0  0  0  0
   10.4707    3.0613    3.4010 C   0  0  0  0  0  0  0  0  0  0  0  0
   11.6124    2.5395    3.9898 C   0  0  0  0  0  0  0  0  0  0  0  0
   12.3538    3.3148    4.8776 C   0  0  0  0  0  0  0  0  0  0  0  0
   13.4697    2.8581    5.4874 O   0  0  0  0  0  0  0  0  0  0  0  0
   11.9368    4.6125    5.1593 C   0  0  0  0  0  0  0  0  0  0  0  0
   10.7924    5.1164    4.5580 C   0  0  0  0  0  0  0  0  0  0  0  0
    8.8124    4.9129    2.9978 C   0  0  0  0  0  0  0  0  0  0  0  0
    9.1159    5.4091    1.5834 C   0  0  0  0  0  0  0  0  0  0  0  0
    7.9103    6.0147    0.8706 C   0  0  1  0  0  0  0  0  0  0  0  0
    8.2971    6.5900   -0.4875 C   0  0  0  0  0  0  0  0  0  0  0  0
    6.8712    5.0085    0.7378 N   0  0  0  0  0  0  0  0  0  0  0  0
    5.5551    5.2672    0.7636 C   0  0  0  0  0  0  0  0  0  0  0  0
    5.0890    6.3863    0.9260 O   0  0  0  0  0  0  0  0  0  0  0  0
    4.6594    4.0483    0.6163 C   0  0  0  0  0  0  0  0  0  0  0  0
    3.8879    3.8204    1.8764 C   0  0  0  0  0  0  0  0  0  0  0  0
    4.2618    3.0861    2.9755 C   0  0  0  0  0  0  0  0  0  0  0  0
    3.3126    3.2463    3.9608 N   0  0  0  0  0  0  0  0  0  0  0  0
    2.3154    4.0583    3.5174 C   0  0  0  0  0  0  0  0  0  0  0  0
    1.1483    4.4717    4.1652 C   0  0  0  0  0  0  0  0  0  0  0  0
    0.3150    5.3302    3.4687 C   0  0  0  0  0  0  0  0  0  0  0  0
    0.6405    5.7572    2.1615 C   0  0  0  0  0  0  0  0  0  0  0  0
    1.7916    5.3331    1.5391 C   0  0  0  0  0  0  0  0  0  0  0  0
    2.6515    4.4560    2.2111 C   0  0  0  0  0  0  0  0  0  0  0  0
    5.4660    2.2951    3.2362 C   0  0  0  0  0  0  0  0  0  0  0  0
    6.1345    2.4211    4.4574 C   0  0  0  0  0  0  0  0  0  0  0  0
    7.2777    1.6816    4.7179 C   0  0  0  0  0  0  0  0  0  0  0  0
    7.7756    0.8051    3.7633 C   0  0  0  0  0  0  0  0  0  0  0  0
    7.1177    0.6693    2.5483 C   0  0  0  0  0  0  0  0  0  0  0  0
    5.9688    1.4023    2.2884 C   0  0  0  0  0  0  0  0  0  0  0  0
   -0.8419    5.8230    3.9617 O   0  0  0  0  0  0  0  0  0  0  0  0
   -1.2288    5.4649    5.2747 C   0  0  0  0  0  0  0  0  0  0  0  0
   -2.5311    6.1875    5.5774 C   0  0  0  0  0  0  0  0  0  0  0  0
   -3.0137    5.8618    6.9047 N   0  0  0  0  0  0  0  0  0  0  0  0
   -2.3207    6.6110    7.9422 C   0  0  0  0  0  0  0  0  0  0  0  0
   -2.7485    6.1635    9.3317 C   0  0  0  0  0  0  0  0  0  0  0  0
   -4.2566    6.2900    9.4994 C   0  0  0  0  0  0  0  0  0  0  0  0
   -4.9647    5.5585    8.3666 C   0  0  0  0  0  0  0  0  0  0  0  0
   -4.4545    6.0295    7.0133 C   0  0  0  0  0  0  0  0  0  0  0  0
    9.9021    2.4375    2.7216 H   0  0  0  0  0  0  0  0  0  0  0  0
   11.9198    1.5247    3.7622 H   0  0  0  0  0  0  0  0  0  0  0  0
   13.6405    1.9464    5.2269 H   0  0  0  0  0  0  0  0  0  0  0  0
   12.5040    5.2224    5.8519 H   0  0  0  0  0  0  0  0  0  0  0  0
   10.4832    6.1287    4.7923 H   0  0  0  0  0  0  0  0  0  0  0  0
    8.0325    4.1478    2.9642 H   0  0  0  0  0  0  0  0  0  0  0  0
    8.4069    5.7395    3.5880 H   0  0  0  0  0  0  0  0  0  0  0  0
    9.5173    4.5866    0.9798 H   0  0  0  0  0  0  0  0  0  0  0  0
    9.9027    6.1668    1.6269 H   0  0  0  0  0  0  0  0  0  0  0  0
    7.5060    6.8169    1.4927 H   0  0  0  0  0  0  0  0  0  0  0  0
    8.7191    5.8153   -1.1305 H   0  0  0  0  0  0  0  0  0  0  0  0
    7.4324    7.0192   -0.9931 H   0  0  0  0  0  0  0  0  0  0  0  0
    9.0442    7.3757   -0.3716 H   0  0  0  0  0  0  0  0  0  0  0  0
    7.1661    4.0642    0.5444 H   0  0  0  0  0  0  0  0  0  0  0  0
    5.2332    3.1673    0.3309 H   0  0  0  0  0  0  0  0  0  0  0  0
    3.9683    4.2395   -0.2082 H   0  0  0  0  0  0  0  0  0  0  0  0
    3.3006    2.7334    4.8274 H   0  0  0  0  0  0  0  0  0  0  0  0
    0.9305    4.1287    5.1676 H   0  0  0  0  0  0  0  0  0  0  0  0
   -0.0351    6.4353    1.6554 H   0  0  0  0  0  0  0  0  0  0  0  0
    2.0245    5.6810    0.5407 H   0  0  0  0  0  0  0  0  0  0  0  0
    5.7698    3.1171    5.2030 H   0  0  0  0  0  0  0  0  0  0  0  0
    7.7876    1.8002    5.6649 H   0  0  0  0  0  0  0  0  0  0  0  0
    8.6720    0.2331    3.9642 H   0  0  0  0  0  0  0  0  0  0  0  0
    7.4919   -0.0201    1.8025 H   0  0  0  0  0  0  0  0  0  0  0  0
    5.4469    1.2550    1.3518 H   0  0  0  0  0  0  0  0  0  0  0  0
   -1.3804    4.3827    5.3563 H   0  0  0  0  0  0  0  0  0  0  0  0
   -0.4440    5.7431    5.9866 H   0  0  0  0  0  0  0  0  0  0  0  0
   -2.3977    7.2725    5.4369 H   0  0  0  0  0  0  0  0  0  0  0  0
   -3.2775    5.8657    4.8470 H   0  0  0  0  0  0  0  0  0  0  0  0
   -2.5038    7.6956    7.8342 H   0  0  0  0  0  0  0  0  0  0  0  0
   -1.2439    6.4677    7.8356 H   0  0  0  0  0  0  0  0  0  0  0  0
   -2.2214    6.7602   10.0793 H   0  0  0  0  0  0  0  0  0  0  0  0
   -2.4451    5.1229    9.4821 H   0  0  0  0  0  0  0  0  0  0  0  0
   -4.5731    5.9001   10.4691 H   0  0  0  0  0  0  0  0  0  0  0  0
   -4.5357    7.3490    9.4787 H   0  0  0  0  0  0  0  0  0  0  0  0
   -4.7938    4.4814    8.4585 H   0  0  0  0  0  0  0  0  0  0  0  0
   -6.0447    5.7142    8.4171 H   0  0  0  0  0  0  0  0  0  0  0  0
   -4.9320    5.4517    6.2185 H   0  0  0  0  0  0  0  0  0  0  0  0
   -4.7519    7.0828    6.8611 H   0  0  0  0  0  0  0  0  0  0  0  0
  1  7  1  0
  1  8  1  0
  1  2  2  0
  2  3  1  0
  2 40  1  0
  3  4  2  0
  3 41  1  0
  4  6  1  0
  4  5  1  0
  5 42  1  0
  6  7  2  0
  6 43  1  0
  7 44  1  0
  8  9  1  0
  8 45  1  0
  8 46  1  0
  9 10  1  0
  9 47  1  0
  9 48  1  0
 10 12  1  0
 10 11  1  0
 10 49  1  1
 11 50  1  0
 11 51  1  0
 11 52  1  0
 12 13  1  0
 12 53  1  0
 13 15  1  0
 13 14  2  0
 15 16  1  0
 15 54  1  0
 15 55  1  0
 16 24  1  0
 16 17  2  0
 17 18  1  0
 17 25  1  0
 18 19  1  0
 18 56  1  0
 19 20  1  0
 19 24  2  0
 20 21  2  0
 20 57  1  0
 21 31  1  0
 21 22  1  0
 22 23  2  0
 22 58  1  0
 23 24  1  0
 23 59  1  0
 25 30  1  0
 25 26  2  0
 26 27  1  0
 26 60  1  0
 27 28  2  0
 27 61  1  0
 28 29  1  0
 28 62  1  0
 29 30  2  0
 29 63  1  0
 30 64  1  0
 31 32  1  0
 32 33  1  0
 32 65  1  0
 32 66  1  0
 33 34  1  0
 33 67  1  0
 33 68  1  0
 34 35  1  0
 34 39  1  0
 35 36  1  0
 35 69  1  0
 35 70  1  0
 36 37  1  0
 36 71  1  0
 36 72  1  0
 37 38  1  0
 37 73  1  0
 37 74  1  0
 38 39  1  0
 38 75  1  0
 38 76  1  0
 39 77  1  0
 39 78  1  0
M  END
