
     RDKit          3D

 32 34  0  0  0  0  0  0  0  0999 V2000
   -0.1775    1.4084   -0.7820 C   0  0  0  0  0  0  0  0  0  0  0  0
   -1.6477    1.7010   -0.6363 C   0  0  0  0  0  0  0  0  0  0  0  0
   -2.1247    2.7863   -0.8928 O   0  0  0  0  0  0  0  0  0  0  0  0
   -2.4685    0.5524   -0.2124 C   0  0  0  0  0  0  0  0  0  0  0  0
   -3.8596    0.6673   -0.1464 C   0  0  0  0  0  0  0  0  0  0  0  0
   -4.6409   -0.4241    0.1820 C   0  0  0  0  0  0  0  0  0  0  0  0
   -5.9811   -0.2666    0.2257 O   0  0  0  0  0  0  0  0  0  0  0  0
   -4.0186   -1.6478    0.4498 C   0  0  0  0  0  0  0  0  0  0  0  0
   -2.6441   -1.7701    0.3987 C   0  0  0  0  0  0  0  0  0  0  0  0
   -1.8550   -0.6716    0.0688 C   0  0  0  0  0  0  0  0  0  0  0  0
   -0.5185   -0.8484    0.0282 O   0  0  0  0  0  0  0  0  0  0  0  0
    0.2745    0.3282    0.1886 C   0  0  1  0  0  0  0  0  0  0  0  0
    1.7122   -0.0530   -0.0098 C   0  0  0  0  0  0  0  0  0  0  0  0
    2.6505    0.2502    0.9716 C   0  0  0  0  0  0  0  0  0  0  0  0
    3.9907   -0.0530    0.7916 C   0  0  0  0  0  0  0  0  0  0  0  0
    4.9549    0.2178    1.7005 O   0  0  0  0  0  0  0  0  0  0  0  0
    4.4113   -0.6803   -0.3874 C   0  0  0  0  0  0  0  0  0  0  0  0
    5.7056   -0.9935   -0.6013 O   0  0  0  0  0  0  0  0  0  0  0  0
    3.4721   -0.9882   -1.3609 C   0  0  0  0  0  0  0  0  0  0  0  0
    2.1328   -0.6756   -1.1781 C   0  0  0  0  0  0  0  0  0  0  0  0
   -0.0018    1.0867   -1.8156 H   0  0  0  0  0  0  0  0  0  0  0  0
    0.4037    2.3176   -0.6256 H   0  0  0  0  0  0  0  0  0  0  0  0
   -4.3253    1.6193   -0.3695 H   0  0  0  0  0  0  0  0  0  0  0  0
   -6.4086   -1.0905    0.4830 H   0  0  0  0  0  0  0  0  0  0  0  0
   -4.6143   -2.5155    0.7098 H   0  0  0  0  0  0  0  0  0  0  0  0
   -2.1768   -2.7208    0.6209 H   0  0  0  0  0  0  0  0  0  0  0  0
    0.1343    0.6963    1.2137 H   0  0  0  0  0  0  0  0  0  0  0  0
    2.3327    0.7315    1.8908 H   0  0  0  0  0  0  0  0  0  0  0  0
    4.5854    0.6506    2.4781 H   0  0  0  0  0  0  0  0  0  0  0  0
    6.2505   -0.7032    0.1394 H   0  0  0  0  0  0  0  0  0  0  0  0
    3.7999   -1.4745   -2.2713 H   0  0  0  0  0  0  0  0  0  0  0  0
    1.4238   -0.9205   -1.9589 H   0  0  0  0  0  0  0  0  0  0  0  0
  7  6  1  0
  3  2  2  0
  5  6  2  0
  5  4  1  0
  6  8  1  0
  2  4  1  0
  2  1  1  0
  4 10  2  0
  8  9  2  0
  1 12  1  0
 10  9  1  0
 10 11  1  0
 11 12  1  0
 12 13  1  0
 20 13  1  0
 20 19  2  0
 13 14  2  0
 19 17  1  0
 14 15  1  0
 17 15  2  0
 17 18  1  0
 15 16  1  0
  1 21  1  0
  1 22  1  0
  5 23  1  0
  7 24  1  0
  8 25  1  0
  9 26  1  0
 12 27  1  1
 14 28  1  0
 16 29  1  0
 18 30  1  0
 19 31  1  0
 20 32  1  0
M  END
