
     RDKit          3D

 49 50  0  0  0  0  0  0  0  0999 V2000
    5.7733    0.2136   -1.3947 O   0  0  0  0  0  0  0  0  0  0  0  0
    5.9239    0.0253    0.0303 S   0  0  1  0  0  0  0  0  0  0  0  0
    7.0523   -0.7115    0.5474 O   0  0  0  0  0  0  0  0  0  0  0  0
    5.8684    1.4603    0.7297 O   0  0  0  0  0  0  0  0  0  0  0  0
    4.5803   -0.6277    0.7055 N   0  0  0  0  0  0  0  0  0  0  0  0
    3.3025   -0.4947    0.1188 C   0  0  0  0  0  0  0  0  0  0  0  0
    2.5478   -1.6362   -0.1266 C   0  0  0  0  0  0  0  0  0  0  0  0
    2.7747    0.7530   -0.1906 C   0  0  0  0  0  0  0  0  0  0  0  0
    1.5090    0.8469   -0.7479 C   0  0  0  0  0  0  0  0  0  0  0  0
    0.7308   -0.2835   -0.9843 C   0  0  0  0  0  0  0  0  0  0  0  0
    1.2760   -1.5243   -0.6626 C   0  0  0  0  0  0  0  0  0  0  0  0
   -0.6461   -0.1843   -1.5816 C   0  0  0  0  0  0  0  0  0  0  0  0
   -1.8104   -0.0792   -0.5552 C   0  0  2  0  0  0  0  0  0  0  0  0
   -1.7476    1.2012    0.2724 C   0  0  0  0  0  0  0  0  0  0  0  0
   -2.0345    1.2979    1.4340 O   0  0  0  0  0  0  0  0  0  0  0  0
   -1.4285    2.2392   -0.4870 O   0  0  0  0  0  0  0  0  0  0  0  0
   -1.4281    3.5300    0.1250 C   0  0  0  0  0  0  0  0  0  0  0  0
   -1.7162   -1.2958    0.3597 C   0  0  0  0  0  0  0  0  0  0  0  0
   -2.1536   -2.3862   -0.2535 O   0  0  0  0  0  0  0  0  0  0  0  0
   -2.0467   -3.6248    0.4508 C   0  0  0  0  0  0  0  0  0  0  0  0
   -1.2294   -1.3091    1.4573 O   0  0  0  0  0  0  0  0  0  0  0  0
   -3.1423   -0.0327   -1.3595 C   0  0  0  0  0  0  0  0  0  0  0  0
   -4.3820    0.1511   -0.5263 C   0  0  0  0  0  0  0  0  0  0  0  0
   -5.0761   -0.9394   -0.0053 C   0  0  0  0  0  0  0  0  0  0  0  0
   -6.2125   -0.7544    0.7710 C   0  0  0  0  0  0  0  0  0  0  0  0
   -6.6771    0.5266    1.0366 C   0  0  0  0  0  0  0  0  0  0  0  0
   -6.0025    1.6207    0.5115 C   0  0  0  0  0  0  0  0  0  0  0  0
   -4.8674    1.4311   -0.2638 C   0  0  0  0  0  0  0  0  0  0  0  0
    6.4208    2.1051    0.2551 H   0  0  0  0  0  0  0  0  0  0  0  0
    4.7755   -1.5130    1.1580 H   0  0  0  0  0  0  0  0  0  0  0  0
    2.9562   -2.6147    0.0934 H   0  0  0  0  0  0  0  0  0  0  0  0
    3.3336    1.6587    0.0012 H   0  0  0  0  0  0  0  0  0  0  0  0
    1.1313    1.8279   -1.0033 H   0  0  0  0  0  0  0  0  0  0  0  0
    0.7172   -2.4316   -0.8594 H   0  0  0  0  0  0  0  0  0  0  0  0
   -0.8350   -1.0626   -2.2024 H   0  0  0  0  0  0  0  0  0  0  0  0
   -0.7079    0.6745   -2.2492 H   0  0  0  0  0  0  0  0  0  0  0  0
   -1.1475    4.2283   -0.6573 H   0  0  0  0  0  0  0  0  0  0  0  0
   -2.4163    3.7869    0.5058 H   0  0  0  0  0  0  0  0  0  0  0  0
   -0.7043    3.5834    0.9374 H   0  0  0  0  0  0  0  0  0  0  0  0
   -2.4317   -4.3834   -0.2234 H   0  0  0  0  0  0  0  0  0  0  0  0
   -1.0108   -3.8516    0.7010 H   0  0  0  0  0  0  0  0  0  0  0  0
   -2.6430   -3.6125    1.3627 H   0  0  0  0  0  0  0  0  0  0  0  0
   -3.0575    0.7889   -2.0733 H   0  0  0  0  0  0  0  0  0  0  0  0
   -3.2133   -0.9437   -1.9543 H   0  0  0  0  0  0  0  0  0  0  0  0
   -4.7396   -1.9455   -0.2188 H   0  0  0  0  0  0  0  0  0  0  0  0
   -6.7400   -1.6152    1.1619 H   0  0  0  0  0  0  0  0  0  0  0  0
   -7.5645    0.6706    1.6393 H   0  0  0  0  0  0  0  0  0  0  0  0
   -6.3634    2.6238    0.6987 H   0  0  0  0  0  0  0  0  0  0  0  0
   -4.3619    2.2939   -0.6826 H   0  0  0  0  0  0  0  0  0  0  0  0
  1  2  2  0
  2  3  2  0
  2  4  1  1
  2  5  1  0
  4 29  1  0
  5  6  1  0
  5 30  1  0
  6  7  2  0
  6  8  1  0
  7 11  1  0
  7 31  1  0
  8  9  2  0
  8 32  1  0
  9 10  1  0
  9 33  1  0
 10 11  2  0
 10 12  1  0
 11 34  1  0
 12 13  1  0
 12 35  1  0
 12 36  1  0
 13 14  1  1
 13 18  1  0
 13 22  1  0
 14 15  2  0
 14 16  1  0
 16 17  1  0
 17 37  1  0
 17 38  1  0
 17 39  1  0
 18 19  1  0
 18 21  2  0
 19 20  1  0
 20 40  1  0
 20 41  1  0
 20 42  1  0
 22 23  1  0
 22 43  1  0
 22 44  1  0
 23 24  2  0
 23 28  1  0
 24 25  1  0
 24 45  1  0
 25 26  2  0
 25 46  1  0
 26 27  1  0
 26 47  1  0
 27 28  2  0
 27 48  1  0
 28 49  1  0
M  END
