
     RDKit          3D

 29 30  0  0  0  0  0  0  0  0999 V2000
   -5.6329    0.8322    0.0387 F   0  0  0  0  0  0  0  0  0  0  0  0
   -4.4102    0.2787    0.0099 C   0  0  0  0  0  0  0  0  0  0  0  0
   -3.8077    0.0542   -1.2130 C   0  0  0  0  0  0  0  0  0  0  0  0
   -2.5465   -0.5232   -1.2319 C   0  0  0  0  0  0  0  0  0  0  0  0
   -3.7986   -0.0535    1.2032 C   0  0  0  0  0  0  0  0  0  0  0  0
   -2.5375   -0.6308    1.1612 C   0  0  0  0  0  0  0  0  0  0  0  0
   -1.9000   -0.8763   -0.0510 C   0  0  0  0  0  0  0  0  0  0  0  0
   -0.5168   -1.4623   -0.0837 C   0  0  0  0  0  0  0  0  0  0  0  0
    0.4573   -0.3914   -0.0591 N   0  0  0  0  0  0  0  0  0  0  0  0
    1.7902   -0.5772   -0.0498 C   0  0  0  0  0  0  0  0  0  0  0  0
    2.7275    0.4826    0.0236 C   0  0  0  0  0  0  0  0  0  0  0  0
    2.2824    1.8859    0.1027 C   0  0  0  0  0  0  0  0  0  0  0  0
    3.2810    2.7538    0.1474 O   0  0  0  0  0  0  0  0  0  0  0  0
    1.1192    2.2354    0.1244 O   0  0  0  0  0  0  0  0  0  0  0  0
    2.3330   -1.8853   -0.1202 C   0  0  0  0  0  0  0  0  0  0  0  0
    3.6179   -2.1547   -0.1208 N   0  0  0  0  0  0  0  0  0  0  0  0
    4.4919   -1.1503   -0.0511 C   0  0  0  0  0  0  0  0  0  0  0  0
    4.0864    0.1645    0.0210 C   0  0  0  0  0  0  0  0  0  0  0  0
   -4.3116    0.3208   -2.1327 H   0  0  0  0  0  0  0  0  0  0  0  0
   -2.0660   -0.7066   -2.1849 H   0  0  0  0  0  0  0  0  0  0  0  0
   -4.2950    0.1320    2.1466 H   0  0  0  0  0  0  0  0  0  0  0  0
   -2.0500   -0.8965    2.0910 H   0  0  0  0  0  0  0  0  0  0  0  0
   -0.3762   -2.1334    0.7702 H   0  0  0  0  0  0  0  0  0  0  0  0
    2.9300    3.6557    0.1944 H   0  0  0  0  0  0  0  0  0  0  0  0
    1.6661   -2.7376   -0.1775 H   0  0  0  0  0  0  0  0  0  0  0  0
    5.5436   -1.4073   -0.0538 H   0  0  0  0  0  0  0  0  0  0  0  0
    4.8349    0.9416    0.0764 H   0  0  0  0  0  0  0  0  0  0  0  0
   -0.3948   -2.0716   -0.9849 H   0  0  0  0  0  0  0  0  0  0  0  0
    0.1266    0.5563    0.0325 H   0  0  0  0  0  0  0  0  0  0  0  0
  3  4  1  0
  3  2  2  0
  4  7  2  0
  1  2  1  0
  2  5  1  0
  7  8  1  0
  7  6  1  0
  8  9  1  0
  9 10  1  0
  5  6  2  0
 15 10  1  0
 15 16  2  0
 10 11  2  0
 14 12  2  0
 16 17  1  0
 11 12  1  0
 11 18  1  0
 12 13  1  0
 17 18  2  0
  3 19  1  0
  4 20  1  0
  5 21  1  0
  6 22  1  0
  8 23  1  0
 13 24  1  0
 15 25  1  0
 17 26  1  0
 18 27  1  0
  8 28  1  0
  9 29  1  0
M  END
