
     RDKit          3D

 27 26  0  0  0  0  0  0  0  0999 V2000
   -3.8342   -1.5116   -0.4893 O   0  0  0  0  0  0  0  0  0  0  0  0
   -2.4927   -0.6456   -0.6284 P   0  0  1  0  0  0  0  0  0  0  0  0
   -1.7061   -0.8391   -1.8699 O   0  0  0  0  0  0  0  0  0  0  0  0
   -2.9017    0.8961   -0.4766 O   0  0  0  0  0  0  0  0  0  0  0  0
   -1.6397   -1.1173    0.8951 C   0  0  0  0  0  0  0  0  0  0  0  0
   -0.4150   -0.2672    1.1687 C   0  0  0  0  0  0  0  0  0  0  0  0
   -0.3092    0.4146    2.1741 O   0  0  0  0  0  0  0  0  0  0  0  0
    0.5566   -0.3448    0.2443 N   0  0  0  0  0  0  0  0  0  0  0  0
    1.7356    0.4711    0.3542 C   0  0  1  0  0  0  0  0  0  0  0  0
    2.7101    0.1311   -0.7651 C   0  0  0  0  0  0  0  0  0  0  0  0
    3.3184   -1.2413   -0.6239 C   0  0  0  0  0  0  0  0  0  0  0  0
    3.9611   -1.5980   -1.7276 O   0  0  0  0  0  0  0  0  0  0  0  0
    3.2598   -1.9244    0.3658 O   0  0  0  0  0  0  0  0  0  0  0  0
    1.3722    1.9580    0.2530 C   0  0  0  0  0  0  0  0  0  0  0  0
    0.4582    2.3404   -0.4549 O   0  0  0  0  0  0  0  0  0  0  0  0
    2.1784    2.7674    0.9502 N   0  0  0  0  0  0  0  0  0  0  0  0
   -4.3744   -1.5419   -1.2914 H   0  0  0  0  0  0  0  0  0  0  0  0
   -3.4877    1.1065    0.2623 H   0  0  0  0  0  0  0  0  0  0  0  0
   -1.3466   -2.1655    0.7905 H   0  0  0  0  0  0  0  0  0  0  0  0
   -2.3189   -1.0442    1.7445 H   0  0  0  0  0  0  0  0  0  0  0  0
    0.3620   -0.8101   -0.6301 H   0  0  0  0  0  0  0  0  0  0  0  0
    2.2167    0.2788    1.3165 H   0  0  0  0  0  0  0  0  0  0  0  0
    2.2294    0.2266   -1.7426 H   0  0  0  0  0  0  0  0  0  0  0  0
    3.5330    0.8522   -0.7674 H   0  0  0  0  0  0  0  0  0  0  0  0
    4.3758   -2.4658   -1.6070 H   0  0  0  0  0  0  0  0  0  0  0  0
    2.0582    3.7670    0.9146 H   0  0  0  0  0  0  0  0  0  0  0  0
    2.8805    2.4074    1.5740 H   0  0  0  0  0  0  0  0  0  0  0  0
  2  1  1  6
  1 17  1  0
  2  3  2  0
  2  4  1  0
  2  5  1  0
  4 18  1  0
  5  6  1  0
  5 19  1  0
  5 20  1  0
  6  7  2  0
  6  8  1  0
  8  9  1  0
  8 21  1  0
  9 10  1  0
  9 14  1  0
  9 22  1  1
 10 11  1  0
 10 23  1  0
 10 24  1  0
 11 12  1  0
 11 13  2  0
 12 25  1  0
 14 15  2  0
 14 16  1  0
 16 26  1  0
 16 27  1  0
M  END
