
     RDKit          3D

 39 41  0  0  0  0  0  0  0  0999 V2000
   -0.4832   -1.4171   -0.0432 C   0  0  0  0  0  0  0  0  0  0  0  0
   -4.1963   -1.0156   -0.5492 C   0  0  0  0  0  0  0  0  0  0  0  0
    0.6446   -0.5918   -0.0197 C   0  0  0  0  0  0  0  0  0  0  0  0
    3.0923   -0.2164   -0.0554 C   0  0  0  0  0  0  0  0  0  0  0  0
    5.1673    0.5038    0.9058 C   0  0  0  0  0  0  0  0  0  0  0  0
   -1.8470   -0.8766    0.0254 C   0  0  0  0  0  0  0  0  0  0  0  0
    3.1684    0.8461   -0.9520 C   0  0  0  0  0  0  0  0  0  0  0  0
    4.2400    1.7100   -0.8946 C   0  0  0  0  0  0  0  0  0  0  0  0
    5.2714    1.5766    0.0263 C   0  0  0  0  0  0  0  0  0  0  0  0
    4.1129   -0.3812    0.8820 C   0  0  0  0  0  0  0  0  0  0  0  0
   -2.9106   -1.5211   -0.6141 C   0  0  0  0  0  0  0  0  0  0  0  0
    0.9745   -3.3161   -0.1840 N   0  0  0  0  0  0  0  0  0  0  0  0
   -0.2336   -2.7821   -0.1160 C   0  0  0  0  0  0  0  0  0  0  0  0
   -6.2795    1.7206   -1.1718 N   0  0  0  0  0  0  0  0  0  0  0  0
    1.9201   -1.1138   -0.0751 C   0  0  0  0  0  0  0  0  0  0  0  0
    2.0433   -2.5215   -0.1757 C   0  0  0  0  0  0  0  0  0  0  0  0
   -4.4317    0.1603    0.1522 C   0  0  0  0  0  0  0  0  0  0  0  0
   -3.3947    0.8214    0.7956 C   0  0  0  0  0  0  0  0  0  0  0  0
   -2.1152    0.2983    0.7325 C   0  0  0  0  0  0  0  0  0  0  0  0
    4.3189    2.7323   -1.7630 F   0  0  0  0  0  0  0  0  0  0  0  0
    6.3289    2.3940    0.1144 O   0  0  0  0  0  0  0  0  0  0  0  0
    6.1404    0.3533    1.8128 F   0  0  0  0  0  0  0  0  0  0  0  0
   -6.0678    0.8363    0.1978 S   0  0  1  0  0  0  0  0  0  0  0  0
   -6.1324    1.7759    1.3045 O   0  0  0  0  0  0  0  0  0  0  0  0
   -7.0123   -0.2655    0.1199 O   0  0  0  0  0  0  0  0  0  0  0  0
   -4.9994   -1.5364   -1.0535 H   0  0  0  0  0  0  0  0  0  0  0  0
    0.5277    0.4840    0.0403 H   0  0  0  0  0  0  0  0  0  0  0  0
    2.4045    0.9986   -1.7033 H   0  0  0  0  0  0  0  0  0  0  0  0
    4.0818   -1.1825    1.6088 H   0  0  0  0  0  0  0  0  0  0  0  0
   -2.7354   -2.4221   -1.1872 H   0  0  0  0  0  0  0  0  0  0  0  0
    4.0531   -2.6011   -0.5486 H   0  0  0  0  0  0  0  0  0  0  0  0
    3.2526   -4.0975   -0.5243 H   0  0  0  0  0  0  0  0  0  0  0  0
   -1.0565   -3.4894   -0.1036 H   0  0  0  0  0  0  0  0  0  0  0  0
   -6.2770    1.1694   -2.0225 H   0  0  0  0  0  0  0  0  0  0  0  0
   -5.6523    2.5136   -1.2472 H   0  0  0  0  0  0  0  0  0  0  0  0
   -3.5732    1.7282    1.3567 H   0  0  0  0  0  0  0  0  0  0  0  0
   -1.3213    0.8063    1.2645 H   0  0  0  0  0  0  0  0  0  0  0  0
    6.2759    3.1014   -0.5391 H   0  0  0  0  0  0  0  0  0  0  0  0
    3.2535   -3.1305   -0.2437 N   0  0  0  0  0  0  0  0  0  0  0  0
 24 23  2  0
 23 14  1  6
 20  8  1  0
 21  9  1  0
 23 17  1  0
 23 25  2  0
  8  9  1  0
  8  7  2  0
  9  5  2  0
 17 18  1  0
 17  2  2  0
  7  4  1  0
 18 19  2  0
  2 11  1  0
  5 22  1  0
  5 10  1  0
 19  6  1  0
 11  6  2  0
  4 10  2  0
  4 15  1  0
  3 15  2  0
  3  1  1  0
  6  1  1  0
 15 16  1  0
  1 13  2  0
 16 39  1  0
 16 12  2  0
 13 12  1  0
  2 26  1  0
  3 27  1  0
  7 28  1  0
 10 29  1  0
 11 30  1  0
 39 31  1  0
 39 32  1  0
 13 33  1  0
 14 34  1  0
 14 35  1  0
 18 36  1  0
 19 37  1  0
 21 38  1  0
M  END
