
     RDKit          3D

 40 43  0  0  0  0  0  0  0  0999 V2000
    4.8185    2.7434    0.2764 C   0  0  0  0  0  0  0  0  0  0  0  0
    3.7817    3.6800    0.1052 C   0  0  0  0  0  0  0  0  0  0  0  0
    2.4827    3.2575   -0.0205 C   0  0  0  0  0  0  0  0  0  0  0  0
    2.1725    1.8854    0.0207 C   0  0  0  0  0  0  0  0  0  0  0  0
    3.2161    0.9358    0.1931 C   0  0  0  0  0  0  0  0  0  0  0  0
    4.5416    1.4011    0.3193 C   0  0  0  0  0  0  0  0  0  0  0  0
    2.9496   -3.4774   -0.0241 O   0  0  0  0  0  0  0  0  0  0  0  0
    1.0013   -4.3602    0.7183 N   0  0  0  0  0  0  0  0  0  0  0  0
    1.0991   -2.0408    0.1369 C   0  0  0  0  0  0  0  0  0  0  0  0
   -0.2651   -1.7994   -0.0577 C   0  0  0  0  0  0  0  0  0  0  0  0
   -1.2718   -2.6641   -0.1606 N   0  0  0  0  0  0  0  0  0  0  0  0
   -0.5014   -0.4476   -0.1578 N   0  0  0  0  0  0  0  0  0  0  0  0
    0.6979    0.2207   -0.0602 C   0  0  0  0  0  0  0  0  0  0  0  0
    0.8711    1.4926   -0.1050 N   0  0  0  0  0  0  0  0  0  0  0  0
    1.7350   -0.7648    0.1127 C   0  0  0  0  0  0  0  0  0  0  0  0
    2.9807   -0.4033    0.2417 N   0  0  0  0  0  0  0  0  0  0  0  0
   -1.7629    0.1631   -0.3724 C   0  0  0  0  0  0  0  0  0  0  0  0
   -2.0102    0.8267   -1.5687 C   0  0  0  0  0  0  0  0  0  0  0  0
   -3.2493    1.4159   -1.7483 C   0  0  0  0  0  0  0  0  0  0  0  0
   -4.2353    1.3403   -0.7713 C   0  0  0  0  0  0  0  0  0  0  0  0
   -3.9756    0.6667    0.4202 C   0  0  0  0  0  0  0  0  0  0  0  0
   -2.7222    0.0844    0.6217 C   0  0  0  0  0  0  0  0  0  0  0  0
   -4.8521    0.5346    1.4281 O   0  0  0  0  0  0  0  0  0  0  0  0
   -6.1349    1.1171    1.2919 C   0  0  0  0  0  0  0  0  0  0  0  0
    5.8399    3.0869    0.3756 H   0  0  0  0  0  0  0  0  0  0  0  0
    4.0116    4.7369    0.0734 H   0  0  0  0  0  0  0  0  0  0  0  0
    1.6744    3.9659   -0.1516 H   0  0  0  0  0  0  0  0  0  0  0  0
    5.3310    0.6717    0.4503 H   0  0  0  0  0  0  0  0  0  0  0  0
    1.4764   -5.2334    0.8915 H   0  0  0  0  0  0  0  0  0  0  0  0
    0.2513   -4.1705    1.3647 H   0  0  0  0  0  0  0  0  0  0  0  0
   -1.0610   -3.6381   -0.3073 H   0  0  0  0  0  0  0  0  0  0  0  0
   -2.1778   -2.3573   -0.4773 H   0  0  0  0  0  0  0  0  0  0  0  0
   -1.2529    0.8746   -2.3388 H   0  0  0  0  0  0  0  0  0  0  0  0
   -3.4641    1.9406   -2.6696 H   0  0  0  0  0  0  0  0  0  0  0  0
   -5.1923    1.8087   -0.9563 H   0  0  0  0  0  0  0  0  0  0  0  0
   -2.5067   -0.4200    1.5558 H   0  0  0  0  0  0  0  0  0  0  0  0
   -6.0783    2.2021    1.1740 H   0  0  0  0  0  0  0  0  0  0  0  0
   -6.6853    0.6962    0.4468 H   0  0  0  0  0  0  0  0  0  0  0  0
   -6.6736    0.8914    2.2086 H   0  0  0  0  0  0  0  0  0  0  0  0
    1.7722   -3.3266    0.2725 C   0  0  0  0  0  0  0  0  0  0  0  0
  2  1  2  0
  2  3  1  0
  1  6  1  0
  3  4  2  0
  6  5  2  0
  4 14  1  0
  4  5  1  0
 14 13  2  0
  5 16  1  0
 19 18  2  0
 19 20  1  0
 18 17  1  0
 13 15  1  0
 13 12  1  0
 16 15  2  0
 20 21  2  0
 15  9  1  0
 17 12  1  0
 17 22  2  0
 12 10  1  0
 21 22  1  0
 21 23  1  0
 23 24  1  0
  9 10  2  0
  9 40  1  0
 10 11  1  0
  8 40  1  0
 40  7  2  0
  1 25  1  0
  2 26  1  0
  3 27  1  0
  6 28  1  0
  8 29  1  0
  8 30  1  0
 11 31  1  0
 11 32  1  0
 18 33  1  0
 19 34  1  0
 20 35  1  0
 22 36  1  0
 24 37  1  0
 24 38  1  0
 24 39  1  0
M  END
