
     RDKit          3D

 43 44  0  0  0  0  0  0  0  0999 V2000
    5.8470   -0.1530    0.5016 O   0  0  0  0  0  0  0  0  0  0  0  0
    5.1157    0.7661    0.2116 C   0  0  0  0  0  0  0  0  0  0  0  0
    5.5639    1.9950   -0.0198 O   0  0  0  0  0  0  0  0  0  0  0  0
    3.6505    0.6485    0.0771 C   0  0  0  0  0  0  0  0  0  0  0  0
    3.0589   -0.5914    0.3021 C   0  0  0  0  0  0  0  0  0  0  0  0
    1.6910   -0.7813    0.1914 C   0  0  0  0  0  0  0  0  0  0  0  0
    1.0587   -2.1201    0.4332 C   0  0  0  0  0  0  0  0  0  0  0  0
   -0.4433   -1.9906    0.6485 C   0  0  2  0  0  0  0  0  0  0  0  0
   -1.0931   -3.2336    0.5661 O   0  0  0  0  0  0  0  0  0  0  0  0
   -1.0664   -1.0553   -0.4011 C   0  0  2  0  0  0  0  0  0  0  0  0
   -0.8577   -1.5604   -1.8237 C   0  0  0  0  0  0  0  0  0  0  0  0
   -0.4389    0.2330   -0.2649 O   0  0  0  0  0  0  0  0  0  0  0  0
    0.8942    0.3131   -0.1542 C   0  0  0  0  0  0  0  0  0  0  0  0
    1.4714    1.5654   -0.3752 C   0  0  0  0  0  0  0  0  0  0  0  0
    2.8352    1.7322   -0.2603 C   0  0  0  0  0  0  0  0  0  0  0  0
   -2.5420   -0.8153   -0.0815 C   0  0  0  0  0  0  0  0  0  0  0  0
   -3.2404    0.2561   -0.9260 C   0  0  0  0  0  0  0  0  0  0  0  0
   -4.6906    0.3570   -0.5608 C   0  0  0  0  0  0  0  0  0  0  0  0
   -5.2762    1.2865    0.1986 C   0  0  0  0  0  0  0  0  0  0  0  0
   -4.5611    2.4449    0.8284 C   0  0  0  0  0  0  0  0  0  0  0  0
   -6.7475    1.2314    0.4930 C   0  0  0  0  0  0  0  0  0  0  0  0
    6.5268    2.0171    0.0821 H   0  0  0  0  0  0  0  0  0  0  0  0
    3.6768   -1.4387    0.5751 H   0  0  0  0  0  0  0  0  0  0  0  0
    1.2497   -2.7862   -0.4138 H   0  0  0  0  0  0  0  0  0  0  0  0
    1.5165   -2.5938    1.3060 H   0  0  0  0  0  0  0  0  0  0  0  0
   -0.6177   -1.5275    1.6320 H   0  0  0  0  0  0  0  0  0  0  0  0
   -0.7346   -3.8077    1.2504 H   0  0  0  0  0  0  0  0  0  0  0  0
   -1.2822   -0.8669   -2.5486 H   0  0  0  0  0  0  0  0  0  0  0  0
    0.1989   -1.6781   -2.0681 H   0  0  0  0  0  0  0  0  0  0  0  0
   -1.3385   -2.5272   -1.9658 H   0  0  0  0  0  0  0  0  0  0  0  0
    0.8385    2.4032   -0.6385 H   0  0  0  0  0  0  0  0  0  0  0  0
    3.2565    2.7113   -0.4421 H   0  0  0  0  0  0  0  0  0  0  0  0
   -3.0756   -1.7615   -0.1921 H   0  0  0  0  0  0  0  0  0  0  0  0
   -2.6294   -0.5378    0.9741 H   0  0  0  0  0  0  0  0  0  0  0  0
   -2.7351    1.2146   -0.8060 H   0  0  0  0  0  0  0  0  0  0  0  0
   -3.1674   -0.0003   -1.9863 H   0  0  0  0  0  0  0  0  0  0  0  0
   -5.3176   -0.4443   -0.9460 H   0  0  0  0  0  0  0  0  0  0  0  0
   -4.9778    3.3922    0.4771 H   0  0  0  0  0  0  0  0  0  0  0  0
   -4.6962    2.4322    1.9129 H   0  0  0  0  0  0  0  0  0  0  0  0
   -3.4915    2.4568    0.6297 H   0  0  0  0  0  0  0  0  0  0  0  0
   -7.2329    0.3877    0.0028 H   0  0  0  0  0  0  0  0  0  0  0  0
   -6.9275    1.1470    1.5680 H   0  0  0  0  0  0  0  0  0  0  0  0
   -7.2484    2.1469    0.1663 H   0  0  0  0  0  0  0  0  0  0  0  0
 10 11  1  6
 10 16  1  0
 10 12  1  0
 10  8  1  0
 16 17  1  0
  9  8  1  0
 12 13  1  0
  7  8  1  0
  7  6  1  0
 13  6  2  0
 13 14  1  0
  6  5  1  0
 18 17  1  0
 18 19  2  0
 14 15  2  0
  5  4  2  0
 21 19  1  0
 15  4  1  0
 19 20  1  0
  4  2  1  0
  2  1  2  0
  2  3  1  0
  3 22  1  0
  5 23  1  0
  7 24  1  0
  7 25  1  0
  8 26  1  1
  9 27  1  0
 11 28  1  0
 11 29  1  0
 11 30  1  0
 14 31  1  0
 15 32  1  0
 16 33  1  0
 16 34  1  0
 17 35  1  0
 17 36  1  0
 18 37  1  0
 20 38  1  0
 20 39  1  0
 20 40  1  0
 21 41  1  0
 21 42  1  0
 21 43  1  0
M  END
