
     RDKit          3D

 27 28  0  0  0  0  0  0  0  0999 V2000
   -1.2211   -3.5749    0.9455 C   0  0  0  0  0  0  0  0  0  0  0  0
    3.6753    0.3669   -1.0118 N   0  0  0  0  0  0  0  0  0  0  0  0
    0.2349   -1.8430    0.2338 O   0  0  0  0  0  0  0  0  0  0  0  0
    2.3241    2.5118   -0.1918 S   0  0  0  0  0  0  0  0  0  0  0  0
    0.0491   -3.2622    0.1914 C   0  0  0  0  0  0  0  0  0  0  0  0
    2.1773   -2.0002   -0.8555 O   0  0  0  0  0  0  0  0  0  0  0  0
   -2.1280   -0.0568   -0.7528 S   0  0  0  0  0  0  0  0  0  0  0  0
    1.3016   -1.3220   -0.3479 C   0  0  0  0  0  0  0  0  0  0  0  0
    1.3291    0.1309   -0.2836 C   0  0  0  0  0  0  0  0  0  0  0  0
    0.2735    1.0079    0.1719 C   0  0  0  0  0  0  0  0  0  0  0  0
    0.6714    2.2983    0.2704 C   0  0  0  0  0  0  0  0  0  0  0  0
    2.5053    0.8270   -0.5412 C   0  0  0  0  0  0  0  0  0  0  0  0
   -1.1137    0.6373    0.4573 C   0  0  0  0  0  0  0  0  0  0  0  0
   -1.8121    0.8457    1.6104 C   0  0  0  0  0  0  0  0  0  0  0  0
   -3.1689    0.4310    1.5222 C   0  0  0  0  0  0  0  0  0  0  0  0
   -3.4797   -0.0784    0.2992 C   0  0  0  0  0  0  0  0  0  0  0  0
   -2.0812   -3.0750    0.5008 H   0  0  0  0  0  0  0  0  0  0  0  0
   -1.4007   -4.6494    0.9170 H   0  0  0  0  0  0  0  0  0  0  0  0
   -1.1499   -3.2738    1.9905 H   0  0  0  0  0  0  0  0  0  0  0  0
    4.5157    0.9040   -0.8809 H   0  0  0  0  0  0  0  0  0  0  0  0
    3.7873   -0.6317   -1.0838 H   0  0  0  0  0  0  0  0  0  0  0  0
    0.9058   -3.7649    0.6448 H   0  0  0  0  0  0  0  0  0  0  0  0
   -0.0218   -3.5935   -0.8469 H   0  0  0  0  0  0  0  0  0  0  0  0
    0.0747    3.1545    0.5417 H   0  0  0  0  0  0  0  0  0  0  0  0
   -1.3627    1.2687    2.4978 H   0  0  0  0  0  0  0  0  0  0  0  0
   -3.8774    0.5044    2.3345 H   0  0  0  0  0  0  0  0  0  0  0  0
   -4.4284   -0.4649   -0.0398 H   0  0  0  0  0  0  0  0  0  0  0  0
  1  5  1  0
  2 12  1  0
  3  5  1  0
  3  8  1  0
  4 11  1  0
  4 12  1  0
  6  8  2  0
  7 13  1  0
  7 16  1  0
  8  9  1  0
  9 10  1  0
  9 12  2  0
 10 11  2  0
 10 13  1  0
 13 14  2  0
 14 15  1  0
 15 16  2  0
  1 17  1  0
  1 18  1  0
  1 19  1  0
  2 20  1  0
  2 21  1  0
  5 22  1  0
  5 23  1  0
 11 24  1  0
 14 25  1  0
 15 26  1  0
 16 27  1  0
M  END
