
     RDKit          3D

 41 40  0  0  0  0  0  0  0  0999 V2000
    1.9894    0.0029   -0.0757 N   0  0  0  0  0  0  0  0  0  0  0  0
    0.7025    0.4411   -0.5899 C   0  0  0  0  0  0  0  0  0  0  0  0
   -0.4923   -0.1534    0.1432 C   0  0  0  0  0  0  0  0  0  0  0  0
   -1.8141    0.3901   -0.3845 C   0  0  0  0  0  0  0  0  0  0  0  0
   -3.0273   -0.2287    0.2974 C   0  0  0  0  0  0  0  0  0  0  0  0
   -4.3487    0.3129   -0.2327 C   0  0  0  0  0  0  0  0  0  0  0  0
   -5.5408   -0.3305    0.4470 C   0  0  0  0  0  0  0  0  0  0  0  0
    2.2996   -1.3769   -0.4150 C   0  0  0  0  0  0  0  0  0  0  0  0
    3.2696   -2.0179    0.5697 C   0  0  0  0  0  0  0  0  0  0  0  0
    3.0551    0.9106   -0.4757 C   0  0  0  0  0  0  0  0  0  0  0  0
   -6.7304    0.2126   -0.0866 O   0  0  0  0  0  0  0  0  0  0  0  0
    3.1756    2.1311    0.4267 C   0  0  0  0  0  0  0  0  0  0  0  0
    4.2791    3.0726   -0.0356 C   0  0  0  0  0  0  0  0  0  0  0  0
    3.6372   -3.4399    0.1703 C   0  0  0  0  0  0  0  0  0  0  0  0
    0.6478    1.5282   -0.4841 H   0  0  0  0  0  0  0  0  0  0  0  0
   -0.4990   -1.2437    0.0499 H   0  0  0  0  0  0  0  0  0  0  0  0
   -1.8402    1.4778   -0.2571 H   0  0  0  0  0  0  0  0  0  0  0  0
   -2.9981   -1.3156    0.1656 H   0  0  0  0  0  0  0  0  0  0  0  0
   -4.3863    1.3969   -0.0847 H   0  0  0  0  0  0  0  0  0  0  0  0
   -4.4079    0.1400   -1.3120 H   0  0  0  0  0  0  0  0  0  0  0  0
   -5.4966   -1.4181    0.2988 H   0  0  0  0  0  0  0  0  0  0  0  0
   -5.4744   -0.1599    1.5300 H   0  0  0  0  0  0  0  0  0  0  0  0
    1.3779   -1.9623   -0.4056 H   0  0  0  0  0  0  0  0  0  0  0  0
    4.1804   -1.4177    0.6495 H   0  0  0  0  0  0  0  0  0  0  0  0
    4.0057    0.3721   -0.4429 H   0  0  0  0  0  0  0  0  0  0  0  0
   -7.4746   -0.1969    0.3633 H   0  0  0  0  0  0  0  0  0  0  0  0
    2.2270    2.6744    0.4598 H   0  0  0  0  0  0  0  0  0  0  0  0
    5.2431    2.5618   -0.0783 H   0  0  0  0  0  0  0  0  0  0  0  0
    4.0730    3.4671   -1.0324 H   0  0  0  0  0  0  0  0  0  0  0  0
    4.3864    3.9227    0.6383 H   0  0  0  0  0  0  0  0  0  0  0  0
    4.0959   -3.4664   -0.8200 H   0  0  0  0  0  0  0  0  0  0  0  0
    4.3455   -3.8796    0.8728 H   0  0  0  0  0  0  0  0  0  0  0  0
    2.7577   -4.0858    0.1430 H   0  0  0  0  0  0  0  0  0  0  0  0
    0.6082    0.2397   -1.6721 H   0  0  0  0  0  0  0  0  0  0  0  0
   -0.3979    0.0639    1.2113 H   0  0  0  0  0  0  0  0  0  0  0  0
   -1.8775    0.2112   -1.4635 H   0  0  0  0  0  0  0  0  0  0  0  0
   -2.9654   -0.0536    1.3769 H   0  0  0  0  0  0  0  0  0  0  0  0
    2.6974   -1.4636   -1.4413 H   0  0  0  0  0  0  0  0  0  0  0  0
    2.8125   -2.0136    1.5625 H   0  0  0  0  0  0  0  0  0  0  0  0
    2.9334    1.2334   -1.5242 H   0  0  0  0  0  0  0  0  0  0  0  0
    3.3738    1.7919    1.4467 H   0  0  0  0  0  0  0  0  0  0  0  0
  7  6  1  0
  7 11  1  0
  6  5  1  0
  5  4  1  0
  4  3  1  0
  3  2  1  0
  2  1  1  0
  1  8  1  0
  1 10  1  0
  8  9  1  0
 10 12  1  0
  9 14  1  0
 12 13  1  0
  2 15  1  0
  3 16  1  0
  4 17  1  0
  5 18  1  0
  6 19  1  0
  6 20  1  0
  7 21  1  0
  7 22  1  0
  8 23  1  0
  9 24  1  0
 10 25  1  0
 11 26  1  0
 12 27  1  0
 13 28  1  0
 13 29  1  0
 13 30  1  0
 14 31  1  0
 14 32  1  0
 14 33  1  0
  2 34  1  0
  3 35  1  0
  4 36  1  0
  5 37  1  0
  8 38  1  0
  9 39  1  0
 10 40  1  0
 12 41  1  0
M  END
