
     RDKit          3D

 56 55  0  0  0  0  0  0  0  0999 V2000
   -5.5775   -3.4137    0.9809 C   0  0  0  0  0  0  0  0  0  0  0  0
   -5.8138   -2.2676    0.0010 C   0  0  1  0  0  0  0  0  0  0  0  0
   -7.2814   -1.8523    0.0182 C   0  0  0  0  0  0  0  0  0  0  0  0
   -4.9256   -1.0575    0.2938 C   0  0  0  0  0  0  0  0  0  0  0  0
   -3.4404   -1.3221    0.1004 C   0  0  0  0  0  0  0  0  0  0  0  0
   -2.6814   -0.1097    0.3361 N   0  0  0  0  0  0  0  0  0  0  0  0
   -1.4330    0.0838   -0.1028 C   0  0  0  0  0  0  0  0  0  0  0  0
   -0.7934   -0.7512   -0.7229 O   0  0  0  0  0  0  0  0  0  0  0  0
   -0.8762    1.4838    0.1797 C   0  0  2  0  0  0  0  0  0  0  0  0
   -1.3397    2.4477   -0.9138 C   0  0  0  0  0  0  0  0  0  0  0  0
   -0.9247    3.9076   -0.7140 C   0  0  1  0  0  0  0  0  0  0  0  0
   -1.4211    4.7383   -1.8934 C   0  0  0  0  0  0  0  0  0  0  0  0
   -1.4428    4.4768    0.6022 C   0  0  0  0  0  0  0  0  0  0  0  0
    0.5621    1.4396    0.2316 N   0  0  0  0  0  0  0  0  0  0  0  0
    1.2018    0.7243    1.1650 C   0  0  0  0  0  0  0  0  0  0  0  0
    0.6452    0.2355    2.1369 O   0  0  0  0  0  0  0  0  0  0  0  0
    2.6903    0.4972    0.9287 C   0  0  1  0  0  0  0  0  0  0  0  0
    3.3639    0.3230    2.1400 O   0  0  0  0  0  0  0  0  0  0  0  0
    2.8391   -0.7231    0.0158 C   0  0  0  0  0  0  0  0  0  0  0  0
    4.2914   -1.0126   -0.2636 C   0  0  0  0  0  0  0  0  0  0  0  0
    5.1155   -0.1637   -0.4980 O   0  0  0  0  0  0  0  0  0  0  0  0
    4.5510   -2.3090   -0.2522 O   0  0  0  0  0  0  0  0  0  0  0  0
    5.8890   -2.7352   -0.5637 C   0  0  0  0  0  0  0  0  0  0  0  0
   -6.2312   -4.2577    0.7545 H   0  0  0  0  0  0  0  0  0  0  0  0
   -4.5520   -3.7829    0.9533 H   0  0  0  0  0  0  0  0  0  0  0  0
   -5.7901   -3.0961    2.0049 H   0  0  0  0  0  0  0  0  0  0  0  0
   -5.5738   -2.6229   -1.0083 H   0  0  0  0  0  0  0  0  0  0  0  0
   -7.5696   -1.4877    1.0070 H   0  0  0  0  0  0  0  0  0  0  0  0
   -7.4810   -1.0560   -0.7009 H   0  0  0  0  0  0  0  0  0  0  0  0
   -7.9332   -2.6923   -0.2272 H   0  0  0  0  0  0  0  0  0  0  0  0
   -5.2178   -0.2337   -0.3652 H   0  0  0  0  0  0  0  0  0  0  0  0
   -5.1100   -0.7159    1.3194 H   0  0  0  0  0  0  0  0  0  0  0  0
   -3.0934   -2.1166    0.7671 H   0  0  0  0  0  0  0  0  0  0  0  0
   -3.2569   -1.6619   -0.9209 H   0  0  0  0  0  0  0  0  0  0  0  0
   -3.1109    0.6045    0.9026 H   0  0  0  0  0  0  0  0  0  0  0  0
   -1.2532    1.8251    1.1480 H   0  0  0  0  0  0  0  0  0  0  0  0
   -0.9663    2.0887   -1.8790 H   0  0  0  0  0  0  0  0  0  0  0  0
   -2.4308    2.3962   -0.9712 H   0  0  0  0  0  0  0  0  0  0  0  0
    0.1692    3.9663   -0.7032 H   0  0  0  0  0  0  0  0  0  0  0  0
   -2.5117    4.7135   -1.9570 H   0  0  0  0  0  0  0  0  0  0  0  0
   -1.1193    5.7818   -1.7929 H   0  0  0  0  0  0  0  0  0  0  0  0
   -1.0251    4.3669   -2.8401 H   0  0  0  0  0  0  0  0  0  0  0  0
   -1.1924    5.5350    0.6898 H   0  0  0  0  0  0  0  0  0  0  0  0
   -2.5302    4.3891    0.6667 H   0  0  0  0  0  0  0  0  0  0  0  0
   -1.0156    3.9723    1.4699 H   0  0  0  0  0  0  0  0  0  0  0  0
    1.0762    1.7502   -0.5789 H   0  0  0  0  0  0  0  0  0  0  0  0
    3.1256    1.3702    0.4359 H   0  0  0  0  0  0  0  0  0  0  0  0
    2.8141   -0.2293    2.7106 H   0  0  0  0  0  0  0  0  0  0  0  0
    2.3469   -1.5929    0.4540 H   0  0  0  0  0  0  0  0  0  0  0  0
    2.3497   -0.5361   -0.9452 H   0  0  0  0  0  0  0  0  0  0  0  0
    6.1588   -2.3909   -1.5638 H   0  0  0  0  0  0  0  0  0  0  0  0
    6.5888   -2.2908    0.1465 H   0  0  0  0  0  0  0  0  0  0  0  0
    5.9213   -4.2418   -0.4841 C   0  0  0  0  0  0  0  0  0  0  0  0
    6.9267   -4.5894   -0.7198 H   0  0  0  0  0  0  0  0  0  0  0  0
    5.6714   -4.5979    0.5153 H   0  0  0  0  0  0  0  0  0  0  0  0
    5.2353   -4.6959   -1.1990 H   0  0  0  0  0  0  0  0  0  0  0  0
 23 22  1  0
 21 20  2  0
 22 20  1  0
 20 19  1  0
 19 17  1  0
 18 17  1  0
 17 15  1  0
 15 16  2  0
 15 14  1  0
 14  9  1  0
  9  7  1  0
  9 10  1  0
  8  7  2  0
  7  6  1  0
 10 11  1  0
 12 11  1  0
 11 13  1  0
  6  5  1  0
  4  5  1  0
  4  2  1  0
  2  3  1  0
  2  1  1  0
  1 24  1  0
  1 25  1  0
  1 26  1  0
  2 27  1  6
  3 28  1  0
  3 29  1  0
  3 30  1  0
  4 31  1  0
  4 32  1  0
  5 33  1  0
  5 34  1  0
  6 35  1  0
  9 36  1  1
 10 37  1  0
 10 38  1  0
 11 39  1  1
 12 40  1  0
 12 41  1  0
 12 42  1  0
 13 43  1  0
 13 44  1  0
 13 45  1  0
 14 46  1  0
 17 47  1  6
 18 48  1  0
 19 49  1  0
 19 50  1  0
 23 51  1  0
 23 52  1  0
 23 53  1  0
 53 54  1  0
 53 55  1  0
 53 56  1  0
M  END
