
     RDKit          3D

 53 55  0  0  0  0  0  0  0  0999 V2000
   -2.5524   -1.0079   -2.0361 C   0  0  0  0  0  0  0  0  0  0  0  0
   -3.2745   -2.1704   -1.7368 C   0  0  0  0  0  0  0  0  0  0  0  0
    6.2979   -0.2241    0.8193 C   0  0  0  0  0  0  0  0  0  0  0  0
    6.4006   -2.3531    0.3323 C   0  0  0  0  0  0  0  0  0  0  0  0
   -3.1746    0.0328    0.0558 C   0  0  0  0  0  0  0  0  0  0  0  0
   -2.4898    0.0853   -1.1866 C   0  0  0  0  0  0  0  0  0  0  0  0
   -3.9212   -2.1988   -0.5326 C   0  0  0  0  0  0  0  0  0  0  0  0
   -3.8629   -1.1287    0.3489 C   0  0  0  0  0  0  0  0  0  0  0  0
    5.0465   -0.7711    0.7978 C   0  0  0  0  0  0  0  0  0  0  0  0
   -3.2165    1.1838    0.9932 C   0  0  0  0  0  0  0  0  0  0  0  0
    2.9274    0.0710   -0.2321 C   0  0  0  0  0  0  0  0  0  0  0  0
   -5.0774   -2.7457    1.2875 C   0  0  0  0  0  0  0  0  0  0  0  0
    1.8609    4.6676   -0.6382 C   0  0  0  0  0  0  0  0  0  0  0  0
    1.1183    3.3072    1.3253 C   0  0  0  0  0  0  0  0  0  0  0  0
   -1.6388    1.2640   -1.5811 C   0  0  0  0  0  0  0  0  0  0  0  0
    3.7433   -0.0989    1.0403 C   0  0  0  0  0  0  0  0  0  0  0  0
    0.2176    2.8267   -0.9984 C   0  0  0  0  0  0  0  0  0  0  0  0
    0.6058    0.2914   -1.0662 C   0  0  0  0  0  0  0  0  0  0  0  0
    1.4205    3.2834   -0.1691 C   0  0  1  0  0  0  0  0  0  0  0  0
   -0.3613    1.4338   -0.7365 C   0  0  2  0  0  0  0  0  0  0  0  0
    5.1260   -2.1024    0.4929 N   0  0  0  0  0  0  0  0  0  0  0  0
    7.1475   -1.2492    0.5197 N   0  0  0  0  0  0  0  0  0  0  0  0
    1.5985    0.0535   -0.0428 N   0  0  0  0  0  0  0  0  0  0  0  0
   -3.2878    2.3398    0.6564 O   0  0  0  0  0  0  0  0  0  0  0  0
   -3.1766    0.7986    2.2609 O   0  0  0  0  0  0  0  0  0  0  0  0
    3.4581    0.2573   -1.3169 O   0  0  0  0  0  0  0  0  0  0  0  0
   -4.7026   -3.1736   -0.0127 O   0  0  0  0  0  0  0  0  0  0  0  0
   -4.6125   -1.4079    1.4335 O   0  0  0  0  0  0  0  0  0  0  0  0
   -2.0148   -0.9658   -2.9747 H   0  0  0  0  0  0  0  0  0  0  0  0
   -3.3144   -3.0002   -2.4289 H   0  0  0  0  0  0  0  0  0  0  0  0
    8.1511   -1.1928    0.4563 H   0  0  0  0  0  0  0  0  0  0  0  0
    6.8344   -3.3099    0.0862 H   0  0  0  0  0  0  0  0  0  0  0  0
   -1.3474    1.1420   -2.6286 H   0  0  0  0  0  0  0  0  0  0  0  0
   -2.2215    2.1831   -1.5359 H   0  0  0  0  0  0  0  0  0  0  0  0
    3.1667   -0.6373    1.7970 H   0  0  0  0  0  0  0  0  0  0  0  0
    3.9139    0.9047    1.4425 H   0  0  0  0  0  0  0  0  0  0  0  0
   -3.2591    1.5701    2.8424 H   0  0  0  0  0  0  0  0  0  0  0  0
    1.2569   -0.1713    0.8778 H   0  0  0  0  0  0  0  0  0  0  0  0
   -6.1632   -2.7695    1.3901 H   0  0  0  0  0  0  0  0  0  0  0  0
   -4.6070   -3.3820    2.0425 H   0  0  0  0  0  0  0  0  0  0  0  0
    2.7265    5.0186   -0.0739 H   0  0  0  0  0  0  0  0  0  0  0  0
    2.1323    4.6633   -1.6954 H   0  0  0  0  0  0  0  0  0  0  0  0
    1.0598    5.3987   -0.5041 H   0  0  0  0  0  0  0  0  0  0  0  0
    2.2568    2.6013   -0.3407 H   0  0  0  0  0  0  0  0  0  0  0  0
    0.8666    2.3215    1.7176 H   0  0  0  0  0  0  0  0  0  0  0  0
    1.9793    3.6687    1.8909 H   0  0  0  0  0  0  0  0  0  0  0  0
    0.2787    3.9729    1.5422 H   0  0  0  0  0  0  0  0  0  0  0  0
   -0.6328    1.3568    0.3222 H   0  0  0  0  0  0  0  0  0  0  0  0
   -0.5863    3.5569   -0.8436 H   0  0  0  0  0  0  0  0  0  0  0  0
    0.4775    2.8920   -2.0622 H   0  0  0  0  0  0  0  0  0  0  0  0
    0.0420   -0.6332   -1.2168 H   0  0  0  0  0  0  0  0  0  0  0  0
    1.1215    0.5032   -2.0029 H   0  0  0  0  0  0  0  0  0  0  0  0
    6.6425    0.7768    1.0172 H   0  0  0  0  0  0  0  0  0  0  0  0
  1  2  2  0
  1  6  1  0
  2  7  1  0
  3  9  2  0
  3 22  1  0
  4 21  2  0
  4 22  1  0
  5  6  2  0
  5  8  1  0
  5 10  1  0
  6 15  1  0
  7  8  2  0
  7 27  1  0
  8 28  1  0
  9 16  1  0
  9 21  1  0
 10 24  2  0
 10 25  1  0
 11 16  1  0
 11 23  1  0
 11 26  2  0
 12 27  1  0
 12 28  1  0
 13 19  1  0
 14 19  1  0
 15 20  1  0
 17 19  1  0
 17 20  1  0
 18 20  1  0
 18 23  1  0
  1 29  1  0
  2 30  1  0
  3 53  1  0
 22 31  1  0
  4 32  1  0
 15 33  1  0
 15 34  1  0
 16 35  1  0
 16 36  1  0
 25 37  1  0
 23 38  1  0
 12 39  1  0
 12 40  1  0
 13 41  1  0
 13 42  1  0
 13 43  1  0
 19 44  1  1
 14 45  1  0
 14 46  1  0
 14 47  1  0
 20 48  1  1
 17 49  1  0
 17 50  1  0
 18 51  1  0
 18 52  1  0
M  END
