
     RDKit          3D

 61 65  0  0  0  0  0  0  0  0999 V2000
   -9.1112    0.2709    0.5801 O   0  0  0  0  0  0  0  0  0  0  0  0
   -8.0379   -0.2164    0.2472 C   0  0  0  0  0  0  0  0  0  0  0  0
   -7.8703   -1.5368    0.0624 N   0  0  0  0  0  0  0  0  0  0  0  0
   -8.9594   -2.4751    0.2014 C   0  0  0  0  0  0  0  0  0  0  0  0
   -6.8308    0.6057    0.0275 C   0  0  0  0  0  0  0  0  0  0  0  0
   -5.4463    0.2429    0.2179 C   0  0  0  0  0  0  0  0  0  0  0  0
   -4.7500   -0.8709    0.6890 C   0  0  0  0  0  0  0  0  0  0  0  0
   -4.7209    1.3778   -0.1398 C   0  0  0  0  0  0  0  0  0  0  0  0
   -5.5609    2.3630   -0.5217 O   0  0  0  0  0  0  0  0  0  0  0  0
   -6.8276    1.8936   -0.4104 C   0  0  0  0  0  0  0  0  0  0  0  0
   -7.8995    2.8375   -0.7899 C   0  0  0  0  0  0  0  0  0  0  0  0
   -3.3425    1.4681   -0.0922 C   0  0  0  0  0  0  0  0  0  0  0  0
   -2.6878    0.3404    0.3672 C   0  0  0  0  0  0  0  0  0  0  0  0
   -3.3700   -0.8135    0.7588 C   0  0  0  0  0  0  0  0  0  0  0  0
   -1.3178    0.3892    0.4946 O   0  0  0  0  0  0  0  0  0  0  0  0
   -0.5454   -0.2676   -0.3900 C   0  0  0  0  0  0  0  0  0  0  0  0
   -1.0035   -0.8679   -1.5339 C   0  0  0  0  0  0  0  0  0  0  0  0
    0.8399   -0.3115   -0.0879 C   0  0  0  0  0  0  0  0  0  0  0  0
    1.4077    0.2813    1.0563 C   0  0  0  0  0  0  0  0  0  0  0  0
    1.6860   -0.9978   -0.9962 C   0  0  0  0  0  0  0  0  0  0  0  0
    1.2182   -1.5895   -2.1258 N   0  0  0  0  0  0  0  0  0  0  0  0
   -0.0634   -1.5109   -2.3603 C   0  0  0  0  0  0  0  0  0  0  0  0
    3.0628   -1.0750   -0.7261 C   0  0  0  0  0  0  0  0  0  0  0  0
    3.5973   -0.4936    0.4031 C   0  0  0  0  0  0  0  0  0  0  0  0
    2.7526    0.1997    1.3005 C   0  0  0  0  0  0  0  0  0  0  0  0
    4.9189   -0.6305    0.5879 O   0  0  0  0  0  0  0  0  0  0  0  0
    5.5448    0.0285    1.6767 C   0  0  0  0  0  0  0  0  0  0  0  0
    7.0136   -0.3316    1.6765 C   0  0  0  0  0  0  0  0  0  0  0  0
    7.7050   -0.0313    0.4420 N   0  0  0  0  0  0  0  0  0  0  0  0
    9.0558   -0.5626    0.4675 C   0  0  0  0  0  0  0  0  0  0  0  0
    7.7388    1.3847    0.1265 C   0  0  0  0  0  0  0  0  0  0  0  0
    8.4684    1.6069   -1.1851 C   0  0  0  0  0  0  0  0  0  0  0  0
    9.7754    1.0784   -1.1568 O   0  0  0  0  0  0  0  0  0  0  0  0
    9.7500   -0.2990   -0.8537 C   0  0  0  0  0  0  0  0  0  0  0  0
   -7.0320   -1.8634   -0.3887 H   0  0  0  0  0  0  0  0  0  0  0  0
   -9.7194   -2.3418   -0.5703 H   0  0  0  0  0  0  0  0  0  0  0  0
   -8.5569   -3.4806    0.1189 H   0  0  0  0  0  0  0  0  0  0  0  0
   -9.4379   -2.3765    1.1745 H   0  0  0  0  0  0  0  0  0  0  0  0
   -5.2626   -1.7650    1.0161 H   0  0  0  0  0  0  0  0  0  0  0  0
   -2.8136   -1.6635    1.1320 H   0  0  0  0  0  0  0  0  0  0  0  0
   -2.8079    2.3633   -0.3817 H   0  0  0  0  0  0  0  0  0  0  0  0
   -7.9880    3.6379   -0.0524 H   0  0  0  0  0  0  0  0  0  0  0  0
   -7.6846    3.2993   -1.7540 H   0  0  0  0  0  0  0  0  0  0  0  0
   -8.8558    2.3287   -0.8488 H   0  0  0  0  0  0  0  0  0  0  0  0
   -2.0454   -0.8628   -1.8201 H   0  0  0  0  0  0  0  0  0  0  0  0
   -0.4210   -1.9838   -3.2692 H   0  0  0  0  0  0  0  0  0  0  0  0
    0.7833    0.8120    1.7617 H   0  0  0  0  0  0  0  0  0  0  0  0
    3.1460    0.6679    2.1916 H   0  0  0  0  0  0  0  0  0  0  0  0
    3.7003   -1.6047   -1.4231 H   0  0  0  0  0  0  0  0  0  0  0  0
    5.3958    1.1107    1.6035 H   0  0  0  0  0  0  0  0  0  0  0  0
    5.1186   -0.2954    2.6319 H   0  0  0  0  0  0  0  0  0  0  0  0
    7.4639    0.1796    2.5449 H   0  0  0  0  0  0  0  0  0  0  0  0
    7.1127   -1.4038    1.8669 H   0  0  0  0  0  0  0  0  0  0  0  0
    9.6516   -0.1248    1.2880 H   0  0  0  0  0  0  0  0  0  0  0  0
    9.0184   -1.6413    0.6403 H   0  0  0  0  0  0  0  0  0  0  0  0
    6.7244    1.7725    0.0121 H   0  0  0  0  0  0  0  0  0  0  0  0
    8.2225    1.9707    0.9279 H   0  0  0  0  0  0  0  0  0  0  0  0
   10.7842   -0.6434   -0.8082 H   0  0  0  0  0  0  0  0  0  0  0  0
    9.2415   -0.8590   -1.6515 H   0  0  0  0  0  0  0  0  0  0  0  0
    7.8883    1.1514   -2.0004 H   0  0  0  0  0  0  0  0  0  0  0  0
    8.5516    2.6754   -1.3893 H   0  0  0  0  0  0  0  0  0  0  0  0
  1  2  2  0
  2  3  1  0
  2  5  1  0
  3  4  1  0
  5  6  1  0
  5 10  2  0
  6  7  2  0
  6  8  1  0
  7 14  1  0
  8  9  1  0
  8 12  2  0
  9 10  1  0
 10 11  1  0
 12 13  1  0
 13 14  2  0
 13 15  1  0
 15 16  1  0
 16 17  2  0
 16 18  1  0
 17 22  1  0
 18 19  2  0
 18 20  1  0
 19 25  1  0
 20 21  1  0
 20 23  2  0
 21 22  2  0
 23 24  1  0
 24 25  2  0
 24 26  1  0
 26 27  1  0
 27 28  1  0
 28 29  1  0
 29 30  1  0
 29 31  1  0
 30 34  1  0
 31 32  1  0
 32 33  1  0
 33 34  1  0
  3 35  1  0
  4 36  1  0
  4 37  1  0
  4 38  1  0
  7 39  1  0
 14 40  1  0
 12 41  1  0
 11 42  1  0
 11 43  1  0
 11 44  1  0
 17 45  1  0
 22 46  1  0
 19 47  1  0
 25 48  1  0
 23 49  1  0
 27 50  1  0
 27 51  1  0
 28 52  1  0
 28 53  1  0
 30 54  1  0
 30 55  1  0
 31 56  1  0
 31 57  1  0
 34 58  1  0
 34 59  1  0
 32 60  1  0
 32 61  1  0
M  END
