
     RDKit          3D

 64 66  0  0  0  0  0  0  0  0999 V2000
    2.2370    2.2383   -0.3231 C   0  0  0  0  0  0  0  0  0  0  0  0
   -4.5576   -0.7280   -0.8342 C   0  0  0  0  0  0  0  0  0  0  0  0
    1.4272    0.6585    1.4360 C   0  0  0  0  0  0  0  0  0  0  0  0
   -2.3392    1.1619    1.4847 C   0  0  0  0  0  0  0  0  0  0  0  0
   -0.0401    0.4844    1.1483 C   0  0  0  0  0  0  0  0  0  0  0  0
   -0.4912   -0.4837    0.2616 C   0  0  0  0  0  0  0  0  0  0  0  0
   -1.8410   -0.6344   -0.0168 C   0  0  0  0  0  0  0  0  0  0  0  0
   -2.7976    0.1963    0.5797 C   0  0  0  0  0  0  0  0  0  0  0  0
   -0.9893    1.2958    1.7596 C   0  0  0  0  0  0  0  0  0  0  0  0
    1.2042    4.0076   -1.7166 C   0  0  0  0  0  0  0  0  0  0  0  0
    0.9508    1.6049   -2.4163 C   0  0  0  0  0  0  0  0  0  0  0  0
    1.0579    2.5654   -1.2408 C   0  0  1  0  0  0  0  0  0  0  0  0
    2.2148    0.8838    0.2259 N   0  0  0  0  0  0  0  0  0  0  0  0
   -4.1564    0.1171    0.2702 N   0  0  0  0  0  0  0  0  0  0  0  0
   -5.9576   -0.3558   -1.2968 C   0  0  0  0  0  0  0  0  0  0  0  0
   -6.8971   -0.4110   -0.1966 N   0  0  0  0  0  0  0  0  0  0  0  0
   -6.4959    0.4223    0.9192 C   0  0  0  0  0  0  0  0  0  0  0  0
   -5.0982    0.0483    1.3782 C   0  0  0  0  0  0  0  0  0  0  0  0
   -8.0321   -1.1442   -0.1660 C   0  0  0  0  0  0  0  0  0  0  0  0
   -8.7885   -1.1315    0.7977 O   0  0  0  0  0  0  0  0  0  0  0  0
   -8.3382   -1.9914   -1.3791 C   0  0  0  0  0  0  0  0  0  0  0  0
    3.4156   -0.1661   -0.1493 S   0  0  1  0  0  0  0  0  0  0  0  0
    2.9615   -1.5095    0.1873 O   0  0  0  0  0  0  0  0  0  0  0  0
    3.8478    0.1070   -1.5118 O   0  0  0  0  0  0  0  0  0  0  0  0
    4.7918    0.2312    0.9467 C   0  0  0  0  0  0  0  0  0  0  0  0
    5.9531   -0.6665    0.6593 C   0  0  0  0  0  0  0  0  0  0  0  0
    6.0676   -1.8977    1.2993 C   0  0  0  0  0  0  0  0  0  0  0  0
    7.1345   -2.7383    1.0158 C   0  0  0  0  0  0  0  0  0  0  0  0
    8.0921   -2.3585    0.0841 C   0  0  0  0  0  0  0  0  0  0  0  0
    7.9808   -1.1331   -0.5601 C   0  0  0  0  0  0  0  0  0  0  0  0
    6.9131   -0.2933   -0.2770 C   0  0  0  0  0  0  0  0  0  0  0  0
    3.1669    2.3962   -0.8722 H   0  0  0  0  0  0  0  0  0  0  0  0
    2.2510    2.9406    0.5167 H   0  0  0  0  0  0  0  0  0  0  0  0
   -4.5304   -1.7969   -0.5717 H   0  0  0  0  0  0  0  0  0  0  0  0
    1.5728    1.5067    2.1115 H   0  0  0  0  0  0  0  0  0  0  0  0
    1.8085   -0.2189    1.9593 H   0  0  0  0  0  0  0  0  0  0  0  0
   -3.0357    1.8424    1.9577 H   0  0  0  0  0  0  0  0  0  0  0  0
    0.2188   -1.1401   -0.2274 H   0  0  0  0  0  0  0  0  0  0  0  0
   -2.1375   -1.4167   -0.7025 H   0  0  0  0  0  0  0  0  0  0  0  0
   -0.6698    2.0705    2.4473 H   0  0  0  0  0  0  0  0  0  0  0  0
    0.3523    4.3051   -2.3289 H   0  0  0  0  0  0  0  0  0  0  0  0
    1.2668    4.7039   -0.8784 H   0  0  0  0  0  0  0  0  0  0  0  0
    2.1055    4.1314   -2.3223 H   0  0  0  0  0  0  0  0  0  0  0  0
    0.8209    0.5757   -2.0833 H   0  0  0  0  0  0  0  0  0  0  0  0
    0.0916    1.8576   -3.0394 H   0  0  0  0  0  0  0  0  0  0  0  0
    1.8428    1.6467   -3.0441 H   0  0  0  0  0  0  0  0  0  0  0  0
    0.1375    2.4945   -0.6540 H   0  0  0  0  0  0  0  0  0  0  0  0
   -5.9423    0.6605   -1.7041 H   0  0  0  0  0  0  0  0  0  0  0  0
   -6.2537   -1.0237   -2.1008 H   0  0  0  0  0  0  0  0  0  0  0  0
   -6.5106    1.4724    0.6092 H   0  0  0  0  0  0  0  0  0  0  0  0
   -7.1981    0.3036    1.7393 H   0  0  0  0  0  0  0  0  0  0  0  0
   -5.1165   -0.9632    1.8109 H   0  0  0  0  0  0  0  0  0  0  0  0
   -4.8028    0.7338    2.1697 H   0  0  0  0  0  0  0  0  0  0  0  0
   -7.5626   -2.7382   -1.5529 H   0  0  0  0  0  0  0  0  0  0  0  0
   -9.2816   -2.5073   -1.2224 H   0  0  0  0  0  0  0  0  0  0  0  0
   -8.4212   -1.3897   -2.2844 H   0  0  0  0  0  0  0  0  0  0  0  0
    5.0313    1.2823    0.7760 H   0  0  0  0  0  0  0  0  0  0  0  0
    4.4245    0.1222    1.9686 H   0  0  0  0  0  0  0  0  0  0  0  0
    5.3244   -2.1964    2.0281 H   0  0  0  0  0  0  0  0  0  0  0  0
    7.2178   -3.6912    1.5218 H   0  0  0  0  0  0  0  0  0  0  0  0
    8.9237   -3.0149   -0.1369 H   0  0  0  0  0  0  0  0  0  0  0  0
    8.7264   -0.8308   -1.2838 H   0  0  0  0  0  0  0  0  0  0  0  0
    6.8324    0.6633   -0.7782 H   0  0  0  0  0  0  0  0  0  0  0  0
   -3.8790   -0.5779   -1.6744 H   0  0  0  0  0  0  0  0  0  0  0  0
 11 12  1  0
 20 19  2  0
 12 10  1  0
 12  1  1  0
 19 21  1  0
 19 16  1  0
 15  2  1  0
 15 16  1  0
  2 14  1  0
  1 13  1  0
 16 17  1  0
  4  9  2  0
  4  8  1  0
  9  5  1  0
 14  8  1  0
 14 18  1  0
 13  3  1  0
 22 13  1  1
  8  7  2  0
 17 18  1  0
 24 22  2  0
  5  3  1  0
  5  6  2  0
  7  6  1  0
 22 25  1  0
 22 23  2  0
 25 26  1  0
 27 26  2  0
 27 28  1  0
 26 31  1  0
 28 29  2  0
 31 30  2  0
 29 30  1  0
  1 32  1  0
  1 33  1  0
  2 64  1  0
  2 34  1  0
  3 35  1  0
  3 36  1  0
  4 37  1  0
  6 38  1  0
  7 39  1  0
  9 40  1  0
 10 41  1  0
 10 42  1  0
 10 43  1  0
 11 44  1  0
 11 45  1  0
 11 46  1  0
 12 47  1  1
 15 48  1  0
 15 49  1  0
 17 50  1  0
 17 51  1  0
 18 52  1  0
 18 53  1  0
 21 54  1  0
 21 55  1  0
 21 56  1  0
 25 57  1  0
 25 58  1  0
 27 59  1  0
 28 60  1  0
 29 61  1  0
 30 62  1  0
 31 63  1  0
M  END
