
     RDKit          3D

 35 38  0  0  0  0  0  0  0  0999 V2000
    6.2225   -2.5328   -0.0042 C   0  0  0  0  0  0  0  0  0  0  0  0
    2.6835   -0.2939   -0.0576 N   0  0  0  0  0  0  0  0  0  0  0  0
   -0.2638    3.2634   -0.0490 O   0  0  0  0  0  0  0  0  0  0  0  0
   -5.5543   -0.9771    0.0481 Br  0  0  0  0  0  0  0  0  0  0  0  0
    5.1805   -2.8500    0.8565 C   0  0  0  0  0  0  0  0  0  0  0  0
    3.6117    1.9138    0.0401 N   0  0  0  0  0  0  0  0  0  0  0  0
    4.0138   -2.0995    0.8478 C   0  0  0  0  0  0  0  0  0  0  0  0
    1.9825    3.5876    0.0448 N   0  0  0  0  0  0  0  0  0  0  0  0
    3.8861   -1.0389   -0.0409 C   0  0  0  0  0  0  0  0  0  0  0  0
    4.9194   -0.7216   -0.9144 C   0  0  0  0  0  0  0  0  0  0  0  0
    6.0884   -1.4676   -0.8853 C   0  0  0  0  0  0  0  0  0  0  0  0
    1.4211   -0.8371   -0.0722 C   0  0  0  0  0  0  0  0  0  0  0  0
    0.4802    0.1561   -0.0351 C   0  0  0  0  0  0  0  0  0  0  0  0
    1.2141    1.3839    0.0088 C   0  0  0  0  0  0  0  0  0  0  0  0
    2.5676    1.0603   -0.0050 C   0  0  0  0  0  0  0  0  0  0  0  0
    3.2620    3.1554    0.0674 C   0  0  0  0  0  0  0  0  0  0  0  0
    0.8517    2.7709   -0.0019 C   0  0  0  0  0  0  0  0  0  0  0  0
   -0.9662   -0.0762   -0.0327 C   0  0  0  0  0  0  0  0  0  0  0  0
   -1.5101   -1.1027   -0.8067 C   0  0  0  0  0  0  0  0  0  0  0  0
   -2.8680   -1.3814   -0.7859 C   0  0  0  0  0  0  0  0  0  0  0  0
   -3.7007   -0.6154    0.0154 C   0  0  0  0  0  0  0  0  0  0  0  0
   -3.1903    0.4144    0.7924 C   0  0  0  0  0  0  0  0  0  0  0  0
   -1.8296    0.6761    0.7644 C   0  0  0  0  0  0  0  0  0  0  0  0
    7.1347   -3.1143    0.0105 H   0  0  0  0  0  0  0  0  0  0  0  0
    5.2757   -3.6772    1.5471 H   0  0  0  0  0  0  0  0  0  0  0  0
    3.2115   -2.3333    1.5360 H   0  0  0  0  0  0  0  0  0  0  0  0
    1.8231    4.5868    0.0515 H   0  0  0  0  0  0  0  0  0  0  0  0
    4.8114    0.0934   -1.6160 H   0  0  0  0  0  0  0  0  0  0  0  0
    6.8936   -1.2197   -1.5641 H   0  0  0  0  0  0  0  0  0  0  0  0
    1.2878   -1.9067   -0.1078 H   0  0  0  0  0  0  0  0  0  0  0  0
    4.0162    3.9298    0.1086 H   0  0  0  0  0  0  0  0  0  0  0  0
   -0.8676   -1.6895   -1.4507 H   0  0  0  0  0  0  0  0  0  0  0  0
   -3.2605   -2.1829   -1.3972 H   0  0  0  0  0  0  0  0  0  0  0  0
   -3.8361    1.0092    1.4243 H   0  0  0  0  0  0  0  0  0  0  0  0
   -1.4413    1.4706    1.3850 H   0  0  0  0  0  0  0  0  0  0  0  0
  1  5  2  0
  1 11  1  0
  2  9  1  0
  2 12  1  0
  2 15  1  0
  3 17  2  0
  4 21  1  0
  5  7  1  0
  6 15  1  0
  6 16  2  0
  7  9  2  0
  8 16  1  0
  8 17  1  0
  9 10  1  0
 10 11  2  0
 12 13  2  0
 13 14  1  0
 13 18  1  0
 14 15  2  0
 14 17  1  0
 18 19  2  0
 18 23  1  0
 19 20  1  0
 20 21  2  0
 21 22  1  0
 22 23  2  0
  1 24  1  0
  5 25  1  0
  7 26  1  0
  8 27  1  0
 10 28  1  0
 11 29  1  0
 12 30  1  0
 16 31  1  0
 19 32  1  0
 20 33  1  0
 22 34  1  0
 23 35  1  0
M  END
