
     RDKit          3D

 21 20  0  0  0  0  0  0  0  0999 V2000
    1.6964    0.1468    0.0533 C   0  0  0  0  0  0  0  0  0  0  0  0
    2.1746   -0.1920    1.1074 O   0  0  0  0  0  0  0  0  0  0  0  0
    0.4408   -1.8368   -0.3380 O   0  0  0  0  0  0  0  0  0  0  0  0
    0.4047   -0.4425   -0.4952 C   0  0  1  0  0  0  0  0  0  0  0  0
   -0.8155    0.2106    0.1799 C   0  0  2  0  0  0  0  0  0  0  0  0
   -2.1069   -0.3922   -0.3819 C   0  0  0  0  0  0  0  0  0  0  0  0
   -0.7913    1.7299    0.0308 C   0  0  0  0  0  0  0  0  0  0  0  0
    2.2314    1.0614   -0.7403 O   0  0  0  0  0  0  0  0  0  0  0  0
    0.4391   -2.0417    0.6042 H   0  0  0  0  0  0  0  0  0  0  0  0
    0.3529   -0.2542   -1.5714 H   0  0  0  0  0  0  0  0  0  0  0  0
   -0.7622   -0.0283    1.2510 H   0  0  0  0  0  0  0  0  0  0  0  0
   -3.2762   -0.2129    1.4371 H   0  0  0  0  0  0  0  0  0  0  0  0
   -3.5604    1.0951    0.2932 H   0  0  0  0  0  0  0  0  0  0  0  0
   -4.2361   -0.4960   -0.0116 H   0  0  0  0  0  0  0  0  0  0  0  0
   -2.2017   -0.1126   -1.4369 H   0  0  0  0  0  0  0  0  0  0  0  0
   -2.0354   -1.4810   -0.3589 H   0  0  0  0  0  0  0  0  0  0  0  0
   -1.6787    2.1745    0.4787 H   0  0  0  0  0  0  0  0  0  0  0  0
    0.0665    2.1881    0.5233 H   0  0  0  0  0  0  0  0  0  0  0  0
   -0.7721    2.0238   -1.0212 H   0  0  0  0  0  0  0  0  0  0  0  0
    3.0320    1.4316   -0.3366 H   0  0  0  0  0  0  0  0  0  0  0  0
   -3.3607    0.0263    0.3753 C   0  0  0  0  0  0  0  0  0  0  0  0
  1  4  1  0
  1  8  1  0
  2  1  2  0
  3  9  1  0
  4  3  1  0
  4  5  1  0
  4 10  1  6
  5  6  1  0
  5 11  1  1
 21 12  1  0
 21 13  1  0
 21 14  1  0
  6 21  1  0
  6 15  1  0
  6 16  1  0
  7  5  1  0
  7 17  1  0
  7 18  1  0
  7 19  1  0
  8 20  1  0
M  END
