
     RDKit          3D

 35 37  0  0  0  0  0  0  0  0999 V2000
   -3.1100   -1.7013    0.0233 N   0  0  0  0  0  0  0  0  0  0  0  0
   -3.9979    1.0292   -0.0125 C   0  0  0  0  0  0  0  0  0  0  0  0
   -1.8161    1.5935    0.1110 N   0  0  0  0  0  0  0  0  0  0  0  0
   -1.2633   -3.2082   -0.0432 C   0  0  0  0  0  0  0  0  0  0  0  0
   -2.6059   -2.9395   -0.0071 C   0  0  0  0  0  0  0  0  0  0  0  0
    1.9745   -1.3419   -0.0869 C   0  0  0  0  0  0  0  0  0  0  0  0
    2.9442    0.8657   -0.0277 C   0  0  0  0  0  0  0  0  0  0  0  0
   -0.4106   -2.0867   -0.0504 C   0  0  0  0  0  0  0  0  0  0  0  0
    0.9320   -2.2659   -0.0841 N   0  0  0  0  0  0  0  0  0  0  0  0
   -2.7007    0.5788    0.0357 N   0  0  0  0  0  0  0  0  0  0  0  0
   -2.5287    2.6914    0.1128 C   0  0  0  0  0  0  0  0  0  0  0  0
   -3.9093    2.3927    0.0356 C   0  0  0  0  0  0  0  0  0  0  0  0
   -0.9054   -0.8588   -0.0281 N   0  0  0  0  0  0  0  0  0  0  0  0
   -2.2187   -0.7348    0.0090 C   0  0  0  0  0  0  0  0  0  0  0  0
    3.2674   -1.8728   -0.1574 C   0  0  0  0  0  0  0  0  0  0  0  0
    4.3806   -1.0548   -0.1645 C   0  0  0  0  0  0  0  0  0  0  0  0
    4.2134    0.3200   -0.0994 C   0  0  0  0  0  0  0  0  0  0  0  0
    1.8237    0.0464   -0.0209 C   0  0  0  0  0  0  0  0  0  0  0  0
   -0.8875   -4.2214   -0.0648 H   0  0  0  0  0  0  0  0  0  0  0  0
   -3.3252   -3.7496    0.0017 H   0  0  0  0  0  0  0  0  0  0  0  0
    2.8125    1.9382    0.0233 H   0  0  0  0  0  0  0  0  0  0  0  0
    1.2277   -3.2299   -0.1188 H   0  0  0  0  0  0  0  0  0  0  0  0
   -2.1404    4.6364   -0.6848 H   0  0  0  0  0  0  0  0  0  0  0  0
   -2.2332    4.5817    1.0662 H   0  0  0  0  0  0  0  0  0  0  0  0
   -0.8057    3.9459    0.2425 H   0  0  0  0  0  0  0  0  0  0  0  0
   -4.7325    3.0886    0.0157 H   0  0  0  0  0  0  0  0  0  0  0  0
    3.4070   -2.9460   -0.2083 H   0  0  0  0  0  0  0  0  0  0  0  0
    5.3684   -1.4915   -0.2211 H   0  0  0  0  0  0  0  0  0  0  0  0
    0.8441    0.4944    0.0341 H   0  0  0  0  0  0  0  0  0  0  0  0
   -5.3527   -0.4584    0.7431 H   0  0  0  0  0  0  0  0  0  0  0  0
   -6.0886    0.8738   -0.1538 H   0  0  0  0  0  0  0  0  0  0  0  0
   -5.2365   -0.4183   -1.0039 H   0  0  0  0  0  0  0  0  0  0  0  0
   -5.2310    0.2047   -0.1112 C   0  0  0  0  0  0  0  0  0  0  0  0
   -1.8893    4.0331    0.1885 C   0  0  0  0  0  0  0  0  0  0  0  0
    5.6034    1.3578   -0.1082 Cl  0  0  0  0  0  0  0  0  0  0  0  0
 12 11  1  0
 12  2  2  0
 34 11  1  0
 33  2  1  0
 11  3  2  0
  2 10  1  0
  3 10  1  0
 10 14  1  0
 14 13  1  0
 14  1  2  0
 13  8  2  0
  1  5  1  0
  9  8  1  0
  9  6  1  0
  8  4  1  0
  5  4  2  0
  6 18  1  0
  6 15  2  0
 18  7  2  0
 15 16  1  0
  7 17  1  0
 16 17  2  0
 17 35  1  0
  4 19  1  0
  5 20  1  0
  7 21  1  0
  9 22  1  0
 34 23  1  0
 34 24  1  0
 34 25  1  0
 12 26  1  0
 15 27  1  0
 16 28  1  0
 18 29  1  0
 33 30  1  0
 33 31  1  0
 33 32  1  0
M  END
