
     RDKit          3D

 25 26  0  0  0  0  0  0  0  0999 V2000
    3.4814   -0.8425   -0.2639 N   0  0  0  0  0  0  0  0  0  0  0  0
   -3.3532   -2.1092   -0.1840 C   0  0  0  0  0  0  0  0  0  0  0  0
    5.6827   -0.2947   -0.2925 O   0  0  0  0  0  0  0  0  0  0  0  0
   -1.2028   -0.8936   -0.0485 C   0  0  0  0  0  0  0  0  0  0  0  0
   -0.8174    0.5033    0.2028 C   0  0  0  0  0  0  0  0  0  0  0  0
   -3.0853    0.3412    0.2865 C   0  0  0  0  0  0  0  0  0  0  0  0
    0.3708    1.1380    0.2609 C   0  0  0  0  0  0  0  0  0  0  0  0
    1.7394    0.7094    0.1082 C   0  0  0  0  0  0  0  0  0  0  0  0
    2.7599    1.7032    0.2301 C   0  0  0  0  0  0  0  0  0  0  0  0
    4.0765    1.4131    0.1050 C   0  0  0  0  0  0  0  0  0  0  0  0
    4.5225    0.0712   -0.1606 C   0  0  0  0  0  0  0  0  0  0  0  0
    2.1748   -0.5698   -0.1435 C   0  0  0  0  0  0  0  0  0  0  0  0
   -2.5783   -0.9072    0.0187 N   0  0  0  0  0  0  0  0  0  0  0  0
   -2.0313    1.1604    0.3904 N   0  0  0  0  0  0  0  0  0  0  0  0
   -4.6762    0.7592    0.4481 S   0  0  0  0  0  0  0  0  0  0  0  0
    3.7449   -1.8017   -0.4500 H   0  0  0  0  0  0  0  0  0  0  0  0
   -4.4038   -1.8668   -0.0577 H   0  0  0  0  0  0  0  0  0  0  0  0
   -3.1938   -2.4977   -1.1878 H   0  0  0  0  0  0  0  0  0  0  0  0
   -3.0714   -2.8675    0.5434 H   0  0  0  0  0  0  0  0  0  0  0  0
    0.2846    2.2014    0.4642 H   0  0  0  0  0  0  0  0  0  0  0  0
    2.4639    2.7261    0.4303 H   0  0  0  0  0  0  0  0  0  0  0  0
    4.8284    2.1837    0.2006 H   0  0  0  0  0  0  0  0  0  0  0  0
    1.5061   -1.4085   -0.2558 H   0  0  0  0  0  0  0  0  0  0  0  0
   -2.1286    2.1439    0.5894 H   0  0  0  0  0  0  0  0  0  0  0  0
   -0.5198   -1.8709   -0.2736 O   0  0  0  0  0  0  0  0  0  0  0  0
  2 13  1  0
 15  6  2  0
 13  6  1  0
 13  4  1  0
  6 14  1  0
  4 25  2  0
  4  5  1  0
 14  5  1  0
 10  9  2  0
 10 11  1  0
  9  8  1  0
  5  7  2  0
  3 11  2  0
 11  1  1  0
  8  7  1  0
  8 12  2  0
  1 12  1  0
  1 16  1  0
  2 17  1  0
  2 18  1  0
  2 19  1  0
  7 20  1  0
  9 21  1  0
 10 22  1  0
 12 23  1  0
 14 24  1  0
M  END
