
     RDKit          3D

 32 34  0  0  0  0  0  0  0  0999 V2000
    5.3141    2.2256   -0.0174 C   0  0  0  0  0  0  0  0  0  0  0  0
    5.3053    1.0041   -0.6750 C   0  0  0  0  0  0  0  0  0  0  0  0
   -2.4376   -1.7023    0.5634 C   0  0  0  0  0  0  0  0  0  0  0  0
    0.6751    0.3383    0.0485 N   0  0  0  0  0  0  0  0  0  0  0  0
    4.1859    0.1911   -0.5976 C   0  0  0  0  0  0  0  0  0  0  0  0
    3.0588    0.5928    0.1175 C   0  0  0  0  0  0  0  0  0  0  0  0
    1.8649   -0.2836    0.2633 C   0  0  0  0  0  0  0  0  0  0  0  0
   -0.5499   -0.2675    0.1948 C   0  0  0  0  0  0  0  0  0  0  0  0
    4.2050   -1.3062   -1.4616 Cl  0  0  0  0  0  0  0  0  0  0  0  0
    4.2038    2.6404    0.7024 C   0  0  0  0  0  0  0  0  0  0  0  0
    3.0827    1.8288    0.7612 C   0  0  0  0  0  0  0  0  0  0  0  0
    1.9262   -1.4569    0.5720 O   0  0  0  0  0  0  0  0  0  0  0  0
   -0.7363   -1.9225    0.6594 S   0  0  0  0  0  0  0  0  0  0  0  0
   -1.6492    0.3755   -0.0132 N   0  0  0  0  0  0  0  0  0  0  0  0
   -2.7412   -0.4280    0.1921 C   0  0  0  0  0  0  0  0  0  0  0  0
   -4.0867    0.1319    0.0074 C   0  0  0  0  0  0  0  0  0  0  0  0
   -4.2500    1.4824   -0.3044 C   0  0  0  0  0  0  0  0  0  0  0  0
   -5.5175    2.0201   -0.4770 C   0  0  0  0  0  0  0  0  0  0  0  0
   -6.6433    1.2198   -0.3422 C   0  0  0  0  0  0  0  0  0  0  0  0
   -6.4909   -0.1265   -0.0322 C   0  0  0  0  0  0  0  0  0  0  0  0
   -5.2262   -0.6654    0.1388 C   0  0  0  0  0  0  0  0  0  0  0  0
    6.1933    2.8530   -0.0732 H   0  0  0  0  0  0  0  0  0  0  0  0
    6.1650    0.6859   -1.2487 H   0  0  0  0  0  0  0  0  0  0  0  0
    0.6551    1.2964   -0.2736 H   0  0  0  0  0  0  0  0  0  0  0  0
    4.2096    3.5901    1.2191 H   0  0  0  0  0  0  0  0  0  0  0  0
    2.2221    2.1503    1.3343 H   0  0  0  0  0  0  0  0  0  0  0  0
   -3.3799    2.1160   -0.4099 H   0  0  0  0  0  0  0  0  0  0  0  0
   -5.6239    3.0704   -0.7160 H   0  0  0  0  0  0  0  0  0  0  0  0
   -7.6315    1.6394   -0.4779 H   0  0  0  0  0  0  0  0  0  0  0  0
   -7.3608   -0.7611    0.0755 H   0  0  0  0  0  0  0  0  0  0  0  0
   -5.1326   -1.7187    0.3704 H   0  0  0  0  0  0  0  0  0  0  0  0
   -3.1047   -2.5192    0.7880 H   0  0  0  0  0  0  0  0  0  0  0  0
 19 20  2  0
 19 18  1  0
 20 21  1  0
 18 17  2  0
 21 16  2  0
 17 16  1  0
 16 15  1  0
 15 14  1  0
 15  3  2  0
 14  8  2  0
  3 13  1  0
  8  4  1  0
  8 13  1  0
  4  7  1  0
  7  6  1  0
  7 12  2  0
 11  6  2  0
 11 10  1  0
  6  5  1  0
 10  1  2  0
  5  9  1  0
  5  2  2  0
  1  2  1  0
  1 22  1  0
  2 23  1  0
  3 32  1  0
  4 24  1  0
 10 25  1  0
 11 26  1  0
 17 27  1  0
 18 28  1  0
 19 29  1  0
 20 30  1  0
 21 31  1  0
M  END
