
     RDKit          3D

 23 23  0  0  0  0  0  0  0  0999 V2000
   -0.5690    2.0293   -0.4363 C   0  0  0  0  0  0  0  0  0  0  0  0
   -1.7902    0.0668    0.1537 C   0  0  0  0  0  0  0  0  0  0  0  0
    4.3937    0.6367    0.3601 C   0  0  0  0  0  0  0  0  0  0  0  0
    3.1234   -0.0559   -0.0511 C   0  0  0  0  0  0  0  0  0  0  0  0
    1.9377    0.5839    0.0821 C   0  0  0  0  0  0  0  0  0  0  0  0
    0.7091   -0.0874   -0.2998 C   0  0  0  0  0  0  0  0  0  0  0  0
   -0.5632    0.6555   -0.1687 C   0  0  0  0  0  0  0  0  0  0  0  0
   -1.7206    2.7846   -0.4095 C   0  0  0  0  0  0  0  0  0  0  0  0
   -2.9297    2.1731   -0.0837 C   0  0  0  0  0  0  0  0  0  0  0  0
   -2.9562    0.8096    0.2096 C   0  0  0  0  0  0  0  0  0  0  0  0
    5.4537   -0.1066    0.1300 O   0  0  0  0  0  0  0  0  0  0  0  0
    4.4067    1.7410    0.8366 O   0  0  0  0  0  0  0  0  0  0  0  0
    3.2772   -1.2706   -0.5228 O   0  0  0  0  0  0  0  0  0  0  0  0
    0.7313   -1.2438   -0.7285 O   0  0  0  0  0  0  0  0  0  0  0  0
   -4.0289    2.9310   -0.0560 O   0  0  0  0  0  0  0  0  0  0  0  0
   -1.9384   -1.7528    0.6298 Br  0  0  0  0  0  0  0  0  0  0  0  0
    0.3567    2.5201   -0.7060 H   0  0  0  0  0  0  0  0  0  0  0  0
    1.9223    1.5754    0.5053 H   0  0  0  0  0  0  0  0  0  0  0  0
   -1.6890    3.8412   -0.6392 H   0  0  0  0  0  0  0  0  0  0  0  0
   -3.8927    0.3403    0.4858 H   0  0  0  0  0  0  0  0  0  0  0  0
    6.2583    0.3641    0.3977 H   0  0  0  0  0  0  0  0  0  0  0  0
    2.3691   -1.6070   -0.7383 H   0  0  0  0  0  0  0  0  0  0  0  0
   -4.8088    2.4066    0.1622 H   0  0  0  0  0  0  0  0  0  0  0  0
 16  2  1  0
 14  6  2  0
  2 10  2  0
  2  7  1  0
 13  4  1  0
 10  9  1  0
  6  7  1  0
  6  5  1  0
  7  1  2  0
  9 15  1  0
  9  8  2  0
  5  4  2  0
  4  3  1  0
  1  8  1  0
 12  3  2  0
  3 11  1  0
  1 17  1  0
  5 18  1  0
  8 19  1  0
 10 20  1  0
 11 21  1  0
 13 22  1  0
 15 23  1  0
M  END
