
     RDKit          3D

 34 37  0  0  0  0  0  0  0  0999 V2000
    3.2045   -1.7824    0.1078 C   0  0  0  0  0  0  0  0  0  0  0  0
    2.0159   -1.0641    0.1363 C   0  0  0  0  0  0  0  0  0  0  0  0
    1.9691    0.3320   -0.0423 C   0  0  0  0  0  0  0  0  0  0  0  0
    3.1588    1.0309   -0.2535 C   0  0  0  0  0  0  0  0  0  0  0  0
    4.3472    0.3228   -0.2817 C   0  0  0  0  0  0  0  0  0  0  0  0
    4.3705   -1.0671   -0.1029 C   0  0  0  0  0  0  0  0  0  0  0  0
    0.7232   -1.5065    0.3273 N   0  0  0  0  0  0  0  0  0  0  0  0
   -0.1278   -0.4646    0.2783 C   0  0  0  0  0  0  0  0  0  0  0  0
    0.5831    0.6950    0.0530 C   0  0  0  0  0  0  0  0  0  0  0  0
   -1.6056   -0.5402    0.4502 C   0  0  1  0  0  0  0  0  0  0  0  0
   -2.1810    0.6570   -0.1489 N   0  0  0  0  0  0  0  0  0  0  0  0
   -1.5738    1.8885    0.3205 C   0  0  0  0  0  0  0  0  0  0  0  0
   -0.0807    1.9665    0.0588 C   0  0  0  0  0  0  0  0  0  0  0  0
   -2.2019   -1.7960   -0.1850 C   0  0  0  0  0  0  0  0  0  0  0  0
   -3.7175   -1.7981   -0.0463 C   0  0  0  0  0  0  0  0  0  0  0  0
   -4.2938   -0.5089   -0.6122 C   0  0  0  0  0  0  0  0  0  0  0  0
   -3.6256    0.7001    0.0189 C   0  0  0  0  0  0  0  0  0  0  0  0
    0.4863    3.0403   -0.0683 O   0  0  0  0  0  0  0  0  0  0  0  0
    3.2210   -2.8559    0.2456 H   0  0  0  0  0  0  0  0  0  0  0  0
    3.1517    2.1038   -0.3907 H   0  0  0  0  0  0  0  0  0  0  0  0
    5.2782    0.8498   -0.4463 H   0  0  0  0  0  0  0  0  0  0  0  0
    5.3166   -1.5917   -0.1295 H   0  0  0  0  0  0  0  0  0  0  0  0
    0.4625   -2.4682    0.4796 H   0  0  0  0  0  0  0  0  0  0  0  0
   -1.8155   -0.5788    1.5383 H   0  0  0  0  0  0  0  0  0  0  0  0
   -2.0560    2.7288   -0.1824 H   0  0  0  0  0  0  0  0  0  0  0  0
   -1.7201    2.0442    1.4060 H   0  0  0  0  0  0  0  0  0  0  0  0
   -1.9217   -1.8287   -1.2418 H   0  0  0  0  0  0  0  0  0  0  0  0
   -1.7821   -2.6843    0.2928 H   0  0  0  0  0  0  0  0  0  0  0  0
   -4.1385   -2.6681   -0.5530 H   0  0  0  0  0  0  0  0  0  0  0  0
   -3.9850   -1.8899    1.0115 H   0  0  0  0  0  0  0  0  0  0  0  0
   -4.1423   -0.4799   -1.6951 H   0  0  0  0  0  0  0  0  0  0  0  0
   -5.3704   -0.4553   -0.4390 H   0  0  0  0  0  0  0  0  0  0  0  0
   -3.9023    0.7603    1.0862 H   0  0  0  0  0  0  0  0  0  0  0  0
   -3.9939    1.6145   -0.4514 H   0  0  0  0  0  0  0  0  0  0  0  0
  1  2  2  0
  1  6  1  0
  1 19  1  0
  2  3  1  0
  2  7  1  0
  3  4  2  0
  3  9  1  0
  4 20  1  0
  5  6  2  0
  5 21  1  0
  6 22  1  0
  7  8  1  0
  7 23  1  0
  8  9  2  0
  8 10  1  0
  9 13  1  0
 10 11  1  0
 10 14  1  0
 10 24  1  1
 11 12  1  0
 11 17  1  0
 12 13  1  0
 12 25  1  0
 12 26  1  0
 13 18  2  0
 14 15  1  0
 14 27  1  0
 14 28  1  0
 15 16  1  0
 15 29  1  0
 15 30  1  0
 16 17  1  0
 16 31  1  0
 16 32  1  0
 17 33  1  0
 17 34  1  0
  4  5  1  0
M  END
