
     RDKit          3D

 43 44  0  0  0  0  0  0  0  0999 V2000
    0.1426   -2.1367   -1.9954 O   0  0  0  0  0  0  0  0  0  0  0  0
   -0.0544   -1.8015   -0.8550 C   0  0  0  0  0  0  0  0  0  0  0  0
   -2.6592   -0.9898   -0.5805 N   0  0  0  0  0  0  0  0  0  0  0  0
   -3.9872   -0.4869   -0.3070 C   0  0  1  0  0  0  0  0  0  0  0  0
   -4.5694   -1.1551    0.9230 C   0  0  0  0  0  0  0  0  0  0  0  0
   -5.8850   -1.2856    0.8244 O   0  0  0  0  0  0  0  0  0  0  0  0
   -3.9343   -1.5220    1.8779 O   0  0  0  0  0  0  0  0  0  0  0  0
   -3.9166    1.0662   -0.1710 C   0  0  2  0  0  0  0  0  0  0  0  0
   -5.0173    1.6897    0.6797 C   0  0  0  0  0  0  0  0  0  0  0  0
   -3.9319    1.6875   -1.5666 C   0  0  0  0  0  0  0  0  0  0  0  0
   -2.2893    1.3561    0.6261 S   0  0  0  0  0  0  0  0  0  0  0  0
   -1.6761   -0.3553    0.2631 C   0  0  2  0  0  0  0  0  0  0  0  0
   -0.2990   -0.3829   -0.4023 C   0  0  1  0  0  0  0  0  0  0  0  0
    3.3056    0.4461    0.8665 C   0  0  0  0  0  0  0  0  0  0  0  0
    0.8151    0.0223    0.5851 C   0  0  2  0  0  0  0  0  0  0  0  0
    0.5052    1.2197    1.2542 O   0  0  0  0  0  0  0  0  0  0  0  0
    4.6448    0.4667    0.2056 C   0  0  0  0  0  0  0  0  0  0  0  0
    5.4131    1.5459   -0.1154 C   0  0  0  0  0  0  0  0  0  0  0  0
    6.6263    1.1994   -0.7749 C   0  0  0  0  0  0  0  0  0  0  0  0
    6.7613   -0.1426   -0.9484 C   0  0  0  0  0  0  0  0  0  0  0  0
    5.4140   -0.9914   -0.3083 S   0  0  0  0  0  0  0  0  0  0  0  0
   -0.0602   -2.5446   -0.0365 H   0  0  0  0  0  0  0  0  0  0  0  0
   -2.4547   -0.8106   -1.5571 H   0  0  0  0  0  0  0  0  0  0  0  0
   -4.6289   -0.7325   -1.1559 H   0  0  0  0  0  0  0  0  0  0  0  0
   -6.2465   -1.6664    1.6395 H   0  0  0  0  0  0  0  0  0  0  0  0
   -4.9895    1.3480    1.7141 H   0  0  0  0  0  0  0  0  0  0  0  0
   -4.9084    2.7744    0.6940 H   0  0  0  0  0  0  0  0  0  0  0  0
   -6.0011    1.4670    0.2641 H   0  0  0  0  0  0  0  0  0  0  0  0
   -4.9085    1.5500   -2.0368 H   0  0  0  0  0  0  0  0  0  0  0  0
   -3.7313    2.7575   -1.5124 H   0  0  0  0  0  0  0  0  0  0  0  0
   -3.1783    1.2473   -2.2203 H   0  0  0  0  0  0  0  0  0  0  0  0
   -1.6196   -0.8785    1.2173 H   0  0  0  0  0  0  0  0  0  0  0  0
   -0.2954    0.2789   -1.2758 H   0  0  0  0  0  0  0  0  0  0  0  0
    2.1472    0.8077   -0.9226 H   0  0  0  0  0  0  0  0  0  0  0  0
    2.3949   -0.8856   -0.5560 H   0  0  0  0  0  0  0  0  0  0  0  0
    3.1288    1.4331    1.2954 H   0  0  0  0  0  0  0  0  0  0  0  0
    3.3080   -0.2608    1.7019 H   0  0  0  0  0  0  0  0  0  0  0  0
    0.8575   -0.7398    1.3724 H   0  0  0  0  0  0  0  0  0  0  0  0
    0.5328    1.9459    0.6204 H   0  0  0  0  0  0  0  0  0  0  0  0
    5.1186    2.5611    0.1139 H   0  0  0  0  0  0  0  0  0  0  0  0
    7.3634    1.9190   -1.1019 H   0  0  0  0  0  0  0  0  0  0  0  0
    7.5767   -0.6781   -1.4093 H   0  0  0  0  0  0  0  0  0  0  0  0
    2.1759    0.0844   -0.1004 C   0  0  0  0  0  0  0  0  0  0  0  0
 19 20  2  0
 19 18  1  0
 20 21  1  0
 18 17  2  0
 21 17  1  0
 17 14  1  0
 14 43  1  0
 43 15  1  0
 15 16  1  0
 15 13  1  0
  1  2  2  0
  2 13  1  0
 13 12  1  0
 12  3  1  0
 12 11  1  0
  3  4  1  0
 11  8  1  0
  4  8  1  0
  4  5  1  0
  8 10  1  6
  8  9  1  0
  5  7  2  0
  5  6  1  0
  2 22  1  0
  3 23  1  0
  4 24  1  6
  6 25  1  0
  9 26  1  0
  9 27  1  0
  9 28  1  0
 10 29  1  0
 10 30  1  0
 10 31  1  0
 12 32  1  1
 13 33  1  6
 43 34  1  0
 43 35  1  0
 14 36  1  0
 14 37  1  0
 15 38  1  1
 16 39  1  0
 18 40  1  0
 19 41  1  0
 20 42  1  0
M  END
