
     RDKit          3D

 21 22  0  0  0  0  0  0  0  0999 V2000
    2.5258   -1.5468    0.9607 C   0  0  0  0  0  0  0  0  0  0  0  0
    3.4903   -0.8558    0.2378 C   0  0  0  0  0  0  0  0  0  0  0  0
    3.1470    0.2748   -0.4887 C   0  0  0  0  0  0  0  0  0  0  0  0
    1.8327    0.6948   -0.4754 C   0  0  0  0  0  0  0  0  0  0  0  0
    0.8430    0.0266    0.2357 C   0  0  0  0  0  0  0  0  0  0  0  0
    1.2127   -1.1079    0.9580 C   0  0  0  0  0  0  0  0  0  0  0  0
   -0.5330    0.5049    0.2356 C   0  0  0  0  0  0  0  0  0  0  0  0
   -1.7536   -0.0541    0.0061 C   0  0  0  0  0  0  0  0  0  0  0  0
   -2.0473   -1.4238   -0.4311 C   0  0  0  0  0  0  0  0  0  0  0  0
   -1.1989   -2.2491   -0.6660 O   0  0  0  0  0  0  0  0  0  0  0  0
   -3.3475   -1.6367   -0.5453 O   0  0  0  0  0  0  0  0  0  0  0  0
   -2.7289    0.9019    0.1898 N   0  0  0  0  0  0  0  0  0  0  0  0
   -2.0860    1.9627    0.5051 C   0  0  0  0  0  0  0  0  0  0  0  0
   -0.7564    1.7964    0.5525 O   0  0  0  0  0  0  0  0  0  0  0  0
    1.4923    1.7758   -1.1879 F   0  0  0  0  0  0  0  0  0  0  0  0
    2.7974   -2.4253    1.5293 H   0  0  0  0  0  0  0  0  0  0  0  0
    4.5169   -1.1959    0.2373 H   0  0  0  0  0  0  0  0  0  0  0  0
    3.8839    0.8210   -1.0624 H   0  0  0  0  0  0  0  0  0  0  0  0
    0.4664   -1.6353    1.5353 H   0  0  0  0  0  0  0  0  0  0  0  0
   -3.5066   -2.5469   -0.8377 H   0  0  0  0  0  0  0  0  0  0  0  0
   -2.4745    2.9440    0.7289 H   0  0  0  0  0  0  0  0  0  0  0  0
  1  6  2  0
  1  2  1  0
  1 16  1  0
  2  3  2  0
  2 17  1  0
  3  4  1  0
  3 18  1  0
  5  4  2  0
  4 15  1  0
  6  5  1  0
  5  7  1  0
  6 19  1  0
 14  7  1  0
  7  8  2  0
 12  8  1  0
  8  9  1  0
 10  9  2  0
  9 11  1  0
 11 20  1  0
 13 12  2  0
 14 13  1  0
 13 21  1  0
M  END
