
     RDKit          3D

 62 66  0  0  0  0  0  0  0  0999 V2000
   -4.2674    4.0090    1.3449 C   0  0  0  0  0  0  0  0  0  0  0  0
   -4.1414    5.0963    0.2959 C   0  0  0  0  0  0  0  0  0  0  0  0
   -4.9403    4.8226   -0.8337 O   0  0  0  0  0  0  0  0  0  0  0  0
   -4.5990    3.5739   -1.3932 C   0  0  0  0  0  0  0  0  0  0  0  0
   -4.7294    2.4487   -0.3841 C   0  0  0  0  0  0  0  0  0  0  0  0
   -3.9071    2.7213    0.7800 N   0  0  0  0  0  0  0  0  0  0  0  0
   -3.9751    1.6774    1.7805 C   0  0  0  0  0  0  0  0  0  0  0  0
   -3.3878    0.3561    1.3360 C   0  0  0  0  0  0  0  0  0  0  0  0
   -2.0246    0.5559    1.0145 O   0  0  0  0  0  0  0  0  0  0  0  0
   -1.2916   -0.4970    0.6125 C   0  0  0  0  0  0  0  0  0  0  0  0
   -1.7540   -1.7919    0.4770 C   0  0  0  0  0  0  0  0  0  0  0  0
   -0.9117   -2.8403    0.0361 C   0  0  0  0  0  0  0  0  0  0  0  0
   -1.4989   -4.2435   -0.0990 C   0  0  1  0  0  0  0  0  0  0  0  0
   -2.0450   -4.6966    1.2704 C   0  0  0  0  0  0  0  0  0  0  0  0
   -2.5513   -6.1329    1.3210 C   0  0  0  0  0  0  0  0  0  0  0  0
   -2.6013   -4.2483   -1.1669 C   0  0  0  0  0  0  0  0  0  0  0  0
   -2.1533   -3.7674   -2.5398 C   0  0  0  0  0  0  0  0  0  0  0  0
   -0.5208   -5.1600   -0.5470 O   0  0  0  0  0  0  0  0  0  0  0  0
    0.4100   -2.5908   -0.2685 C   0  0  0  0  0  0  0  0  0  0  0  0
    0.8720   -1.2802   -0.1158 C   0  0  0  0  0  0  0  0  0  0  0  0
    2.1152   -0.7627   -0.3330 N   0  0  0  0  0  0  0  0  0  0  0  0
    0.0539   -0.2226    0.3098 C   0  0  0  0  0  0  0  0  0  0  0  0
    0.8518    0.9559    0.3320 C   0  0  0  0  0  0  0  0  0  0  0  0
    2.1080    0.5859   -0.0724 C   0  0  0  0  0  0  0  0  0  0  0  0
    3.3066    1.3845   -0.2132 C   0  0  0  0  0  0  0  0  0  0  0  0
    4.6534    0.9702   -0.2914 C   0  0  0  0  0  0  0  0  0  0  0  0
    5.6841   -0.4097   -0.2689 S   0  0  0  0  0  0  0  0  0  0  0  0
    7.0811    0.6118   -0.4198 C   0  0  0  0  0  0  0  0  0  0  0  0
    6.8002    1.9383   -0.4749 C   0  0  0  0  0  0  0  0  0  0  0  0
    5.3928    2.1364   -0.3965 C   0  0  0  0  0  0  0  0  0  0  0  0
    4.5025    3.1457   -0.3750 N   0  0  0  0  0  0  0  0  0  0  0  0
    3.2509    2.7076   -0.2706 N   0  0  0  0  0  0  0  0  0  0  0  0
   -3.5966    4.2430    2.1756 H   0  0  0  0  0  0  0  0  0  0  0  0
   -5.2946    4.0060    1.7501 H   0  0  0  0  0  0  0  0  0  0  0  0
   -4.4698    6.0526    0.7055 H   0  0  0  0  0  0  0  0  0  0  0  0
   -3.0865    5.1990    0.0036 H   0  0  0  0  0  0  0  0  0  0  0  0
   -5.2695    3.3976   -2.2356 H   0  0  0  0  0  0  0  0  0  0  0  0
   -3.5696    3.5951   -1.7785 H   0  0  0  0  0  0  0  0  0  0  0  0
   -5.7908    2.3141   -0.1101 H   0  0  0  0  0  0  0  0  0  0  0  0
   -4.4049    1.5250   -0.8671 H   0  0  0  0  0  0  0  0  0  0  0  0
   -3.4358    2.0186    2.6685 H   0  0  0  0  0  0  0  0  0  0  0  0
   -5.0108    1.4761    2.1036 H   0  0  0  0  0  0  0  0  0  0  0  0
   -3.4935   -0.3631    2.1558 H   0  0  0  0  0  0  0  0  0  0  0  0
   -3.9297   -0.0545    0.4770 H   0  0  0  0  0  0  0  0  0  0  0  0
   -2.7860   -2.0184    0.7074 H   0  0  0  0  0  0  0  0  0  0  0  0
   -1.2507   -4.5685    2.0140 H   0  0  0  0  0  0  0  0  0  0  0  0
   -2.8477   -4.0236    1.5796 H   0  0  0  0  0  0  0  0  0  0  0  0
   -1.7659   -6.8505    1.0842 H   0  0  0  0  0  0  0  0  0  0  0  0
   -2.9146   -6.3641    2.3227 H   0  0  0  0  0  0  0  0  0  0  0  0
   -3.3760   -6.3038    0.6290 H   0  0  0  0  0  0  0  0  0  0  0  0
   -3.0008   -5.2621   -1.2528 H   0  0  0  0  0  0  0  0  0  0  0  0
   -3.4308   -3.6303   -0.8150 H   0  0  0  0  0  0  0  0  0  0  0  0
   -1.3308   -4.3678   -2.9277 H   0  0  0  0  0  0  0  0  0  0  0  0
   -2.9763   -3.8370   -3.2514 H   0  0  0  0  0  0  0  0  0  0  0  0
   -1.8249   -2.7283   -2.5147 H   0  0  0  0  0  0  0  0  0  0  0  0
    0.1263   -5.2926    0.1547 H   0  0  0  0  0  0  0  0  0  0  0  0
    1.0714   -3.3672   -0.6278 H   0  0  0  0  0  0  0  0  0  0  0  0
    2.8829   -1.2819   -0.7268 H   0  0  0  0  0  0  0  0  0  0  0  0
    0.5515    1.9485    0.6256 H   0  0  0  0  0  0  0  0  0  0  0  0
    8.0581    0.1539   -0.4565 H   0  0  0  0  0  0  0  0  0  0  0  0
    7.5457    2.7137   -0.5630 H   0  0  0  0  0  0  0  0  0  0  0  0
    4.6818    4.1350   -0.4362 H   0  0  0  0  0  0  0  0  0  0  0  0
 28 29  2  0
 28 27  1  0
 29 30  1  0
 30 31  1  0
 30 26  2  0
 27 26  1  0
 31 32  1  0
 26 25  1  0
  3  4  1  0
  3  2  1  0
  4  5  1  0
 32 25  2  0
 25 24  1  0
  2  1  1  0
  5  6  1  0
 24 23  2  0
 24 21  1  0
 23 22  1  0
  1  6  1  0
  6  7  1  0
 21 20  1  0
 22 20  2  0
 22 10  1  0
  7  8  1  0
  9  8  1  0
  9 10  1  0
 20 19  1  0
 10 11  2  0
 19 12  2  0
 11 12  1  0
 12 13  1  0
 17 16  1  0
 13 16  1  0
 13 18  1  6
 13 14  1  0
 14 15  1  0
  1 33  1  0
  1 34  1  0
  2 35  1  0
  2 36  1  0
  4 37  1  0
  4 38  1  0
  5 39  1  0
  5 40  1  0
  7 41  1  0
  7 42  1  0
  8 43  1  0
  8 44  1  0
 11 45  1  0
 14 46  1  0
 14 47  1  0
 15 48  1  0
 15 49  1  0
 15 50  1  0
 16 51  1  0
 16 52  1  0
 17 53  1  0
 17 54  1  0
 17 55  1  0
 18 56  1  0
 19 57  1  0
 21 58  1  0
 23 59  1  0
 28 60  1  0
 29 61  1  0
 31 62  1  0
M  END
