
     RDKit          3D

 10  9  0  0  0  0  0  0  0  0999 V2000
   -0.2021    0.2710   -1.8327 O   0  0  0  0  0  0  0  0  0  0  0  0
   -0.7392    0.4875   -0.5858 N   0  0  0  0  0  0  0  0  0  0  0  0
    0.0660    0.1282    0.4930 C   0  0  0  0  0  0  0  0  0  0  0  0
    1.3219   -0.0888    0.4517 N   0  0  0  0  0  0  0  0  0  0  0  0
   -0.6185    0.1487    1.6803 N   0  0  0  0  0  0  0  0  0  0  0  0
   -0.1637   -0.6859   -1.9775 H   0  0  0  0  0  0  0  0  0  0  0  0
   -1.7028    0.1785   -0.5388 H   0  0  0  0  0  0  0  0  0  0  0  0
    1.6754    0.0167   -0.4914 H   0  0  0  0  0  0  0  0  0  0  0  0
   -0.1239   -0.2797    2.4454 H   0  0  0  0  0  0  0  0  0  0  0  0
   -1.5969   -0.0916    1.6635 H   0  0  0  0  0  0  0  0  0  0  0  0
  1  2  1  0
  1  6  1  0
  2  3  1  0
  2  7  1  0
  3  4  2  0
  3  5  1  0
  4  8  1  0
  5  9  1  0
  5 10  1  0
M  END
