
     RDKit          3D

 30 31  0  0  0  0  0  0  0  0999 V2000
    8.1730    0.6249    0.1417 N   0  0  0  0  0  0  0  0  0  0  0  0
   -3.2577    2.6228    0.0137 Br  0  0  0  0  0  0  0  0  0  0  0  0
   -2.3442   -3.0062   -0.1645 Br  0  0  0  0  0  0  0  0  0  0  0  0
    2.5866   -0.3182    0.0158 C   0  0  0  0  0  0  0  0  0  0  0  0
    1.5897    0.5791   -0.0024 C   0  0  0  0  0  0  0  0  0  0  0  0
    6.2915   -0.8911    0.1045 C   0  0  0  0  0  0  0  0  0  0  0  0
    5.9152    1.4781    0.0206 C   0  0  0  0  0  0  0  0  0  0  0  0
    4.9242   -1.0957    0.0853 C   0  0  0  0  0  0  0  0  0  0  0  0
    4.5535    1.2590    0.0020 C   0  0  0  0  0  0  0  0  0  0  0  0
   -0.7487    1.3427    0.0019 C   0  0  0  0  0  0  0  0  0  0  0  0
   -0.3659   -1.0068   -0.0704 C   0  0  0  0  0  0  0  0  0  0  0  0
    6.8193    0.4051    0.0735 C   0  0  0  0  0  0  0  0  0  0  0  0
   -2.1119    1.1171   -0.0091 C   0  0  0  0  0  0  0  0  0  0  0  0
   -1.7286   -1.2184   -0.0821 C   0  0  0  0  0  0  0  0  0  0  0  0
   -2.6721   -0.1714   -0.0426 C   0  0  0  0  0  0  0  0  0  0  0  0
    4.0154   -0.0340    0.0353 C   0  0  0  0  0  0  0  0  0  0  0  0
    0.1606    0.2858   -0.0234 C   0  0  0  0  0  0  0  0  0  0  0  0
    8.7635   -0.1390   -0.1445 H   0  0  0  0  0  0  0  0  0  0  0  0
    8.5002    1.5116   -0.2062 H   0  0  0  0  0  0  0  0  0  0  0  0
   -4.6211    0.3451    0.2344 H   0  0  0  0  0  0  0  0  0  0  0  0
   -4.3510   -1.2992    0.1839 H   0  0  0  0  0  0  0  0  0  0  0  0
    2.3425   -1.3769    0.0199 H   0  0  0  0  0  0  0  0  0  0  0  0
    1.8282    1.6383    0.0022 H   0  0  0  0  0  0  0  0  0  0  0  0
    6.9616   -1.7419    0.1439 H   0  0  0  0  0  0  0  0  0  0  0  0
    6.2932    2.4935   -0.0088 H   0  0  0  0  0  0  0  0  0  0  0  0
    4.5502   -2.1132    0.1090 H   0  0  0  0  0  0  0  0  0  0  0  0
    3.8983    2.1206   -0.0437 H   0  0  0  0  0  0  0  0  0  0  0  0
   -0.3761    2.3590    0.0317 H   0  0  0  0  0  0  0  0  0  0  0  0
    0.2983   -1.8609   -0.1005 H   0  0  0  0  0  0  0  0  0  0  0  0
   -4.0176   -0.3909   -0.0947 N   0  0  0  0  0  0  0  0  0  0  0  0
 12  1  1  0
  1 18  1  0
  1 19  1  0
 30 15  1  0
 30 20  1  0
 30 21  1  0
  2 13  1  0
  3 14  1  0
  5  4  2  0
  4 16  1  0
  4 22  1  0
 17  5  1  0
  5 23  1  0
  8  6  2  0
  6 12  1  0
  6 24  1  0
  9  7  1  0
  7 12  2  0
  7 25  1  0
 16  8  1  0
  8 26  1  0
 16  9  2  0
  9 27  1  0
 13 10  2  0
 10 17  1  0
 10 28  1  0
 14 11  1  0
 11 17  2  0
 11 29  1  0
 15 13  1  0
 15 14  2  0
M  END
