
     RDKit          3D

 69 71  0  0  0  0  0  0  0  0999 V2000
    6.3888   -0.7115   -2.2977 C   0  0  0  0  0  0  0  0  0  0  0  0
    6.8740   -1.1622   -0.9169 C   0  0  1  0  0  0  0  0  0  0  0  0
    6.6660   -2.6757   -0.7952 C   0  0  0  0  0  0  0  0  0  0  0  0
    8.3706   -0.8686   -0.7953 C   0  0  0  0  0  0  0  0  0  0  0  0
    6.1239   -0.4802    0.2565 C   0  0  1  0  0  0  0  0  0  0  0  0
    6.3794    1.0048    0.4882 C   0  0  0  0  0  0  0  0  0  0  0  0
    5.8364    1.7702   -0.5624 O   0  0  0  0  0  0  0  0  0  0  0  0
    4.6965   -0.7273    0.1722 N   0  0  0  0  0  0  0  0  0  0  0  0
    3.9471   -1.1544    1.2008 C   0  0  0  0  0  0  0  0  0  0  0  0
    4.3831   -1.3665    2.3242 O   0  0  0  0  0  0  0  0  0  0  0  0
    2.5006   -1.3748    0.8900 C   0  0  0  0  0  0  0  0  0  0  0  0
    2.0657   -1.8453   -0.3423 C   0  0  0  0  0  0  0  0  0  0  0  0
    0.7184   -2.0892   -0.5583 C   0  0  0  0  0  0  0  0  0  0  0  0
   -0.2247   -1.8544    0.4339 C   0  0  0  0  0  0  0  0  0  0  0  0
    0.2124   -1.3727    1.6749 C   0  0  0  0  0  0  0  0  0  0  0  0
    1.5651   -1.1502    1.8933 C   0  0  0  0  0  0  0  0  0  0  0  0
   -0.7690   -1.1021    2.7574 C   0  0  0  0  0  0  0  0  0  0  0  0
   -1.8585   -1.6132    2.8311 O   0  0  0  0  0  0  0  0  0  0  0  0
   -0.3133   -0.2305    3.6472 O   0  0  0  0  0  0  0  0  0  0  0  0
   -1.6350   -2.1987    0.1277 C   0  0  0  0  0  0  0  0  0  0  0  0
   -1.9764   -3.5572    0.0691 C   0  0  0  0  0  0  0  0  0  0  0  0
   -3.2514   -3.9537   -0.2447 C   0  0  0  0  0  0  0  0  0  0  0  0
   -4.1936   -2.9515   -0.5128 C   0  0  0  0  0  0  0  0  0  0  0  0
   -3.8844   -1.6797   -0.4804 N   0  0  0  0  0  0  0  0  0  0  0  0
   -2.6438   -1.2982   -0.1678 C   0  0  0  0  0  0  0  0  0  0  0  0
   -2.4091    0.1854   -0.1625 C   0  0  0  0  0  0  0  0  0  0  0  0
   -1.3397    0.6647    0.1681 O   0  0  0  0  0  0  0  0  0  0  0  0
   -3.4921    0.8908   -0.5560 N   0  0  0  0  0  0  0  0  0  0  0  0
   -3.6532    2.2688   -0.6826 C   0  0  0  0  0  0  0  0  0  0  0  0
   -4.8837    2.7140   -1.1746 C   0  0  0  0  0  0  0  0  0  0  0  0
   -5.1276    4.0647   -1.3340 C   0  0  0  0  0  0  0  0  0  0  0  0
   -4.1596    5.0003   -0.9967 C   0  0  0  0  0  0  0  0  0  0  0  0
   -2.9364    4.5652   -0.4993 C   0  0  0  0  0  0  0  0  0  0  0  0
   -2.6755    3.2052   -0.3546 C   0  0  0  0  0  0  0  0  0  0  0  0
   -1.8379    5.5155   -0.1286 C   0  0  0  0  0  0  0  0  0  0  0  0
   -0.6678    5.1586   -0.1266 O   0  0  0  0  0  0  0  0  0  0  0  0
   -2.2181    6.7607    0.1923 N   0  0  0  0  0  0  0  0  0  0  0  0
   -5.4316   -3.3320   -0.8140 O   0  0  0  0  0  0  0  0  0  0  0  0
   -6.3894   -2.3261   -1.1178 C   0  0  0  0  0  0  0  0  0  0  0  0
    5.3271   -0.9167   -2.4524 H   0  0  0  0  0  0  0  0  0  0  0  0
    6.5556    0.3501   -2.4664 H   0  0  0  0  0  0  0  0  0  0  0  0
    6.9278   -1.2620   -3.0713 H   0  0  0  0  0  0  0  0  0  0  0  0
    7.2255   -3.1993   -1.5727 H   0  0  0  0  0  0  0  0  0  0  0  0
    7.0110   -3.0497    0.1718 H   0  0  0  0  0  0  0  0  0  0  0  0
    5.6164   -2.9544   -0.9037 H   0  0  0  0  0  0  0  0  0  0  0  0
    8.6017    0.1818   -0.9757 H   0  0  0  0  0  0  0  0  0  0  0  0
    8.7539   -1.1323    0.1936 H   0  0  0  0  0  0  0  0  0  0  0  0
    8.9264   -1.4537   -1.5301 H   0  0  0  0  0  0  0  0  0  0  0  0
    6.4721   -0.9743    1.1672 H   0  0  0  0  0  0  0  0  0  0  0  0
    5.9153    1.2659    1.4476 H   0  0  0  0  0  0  0  0  0  0  0  0
    7.4557    1.1744    0.6062 H   0  0  0  0  0  0  0  0  0  0  0  0
    5.8847    2.6973   -0.3130 H   0  0  0  0  0  0  0  0  0  0  0  0
    4.2209   -0.3964   -0.6520 H   0  0  0  0  0  0  0  0  0  0  0  0
    2.7688   -2.0552   -1.1388 H   0  0  0  0  0  0  0  0  0  0  0  0
    0.3932   -2.4667   -1.5189 H   0  0  0  0  0  0  0  0  0  0  0  0
    1.9084   -0.7959    2.8554 H   0  0  0  0  0  0  0  0  0  0  0  0
   -0.9686   -0.1049    4.3498 H   0  0  0  0  0  0  0  0  0  0  0  0
   -1.2211   -4.3035    0.2794 H   0  0  0  0  0  0  0  0  0  0  0  0
   -3.5245   -4.9991   -0.2881 H   0  0  0  0  0  0  0  0  0  0  0  0
   -4.2937    0.3166   -0.7890 H   0  0  0  0  0  0  0  0  0  0  0  0
   -5.6514    1.9960   -1.4381 H   0  0  0  0  0  0  0  0  0  0  0  0
   -6.0794    4.3914   -1.7302 H   0  0  0  0  0  0  0  0  0  0  0  0
   -4.3664    6.0514   -1.1490 H   0  0  0  0  0  0  0  0  0  0  0  0
   -1.7169    2.8899    0.0220 H   0  0  0  0  0  0  0  0  0  0  0  0
   -3.1807    7.0182    0.3226 H   0  0  0  0  0  0  0  0  0  0  0  0
   -1.5247    7.4357    0.4712 H   0  0  0  0  0  0  0  0  0  0  0  0
   -7.3205   -2.8513   -1.3121 H   0  0  0  0  0  0  0  0  0  0  0  0
   -6.5313   -1.6375   -0.2838 H   0  0  0  0  0  0  0  0  0  0  0  0
   -6.1064   -1.7554   -2.0035 H   0  0  0  0  0  0  0  0  0  0  0  0
  6  7  1  0
  6  5  1  0
  2  4  1  1
 18 17  2  0
  3  2  1  0
  5  2  1  0
  5  8  1  0
  2  1  1  0
 22 21  2  0
 22 23  1  0
  8  9  1  0
 21 20  1  0
 17 15  1  0
 17 19  1  0
 38 23  1  0
 38 39  1  0
 23 24  2  0
 15 16  1  0
 15 14  2  0
 16 11  2  0
 20 14  1  0
 20 25  2  0
  9 11  1  0
  9 10  2  0
 14 13  1  0
 11 12  1  0
 13 12  2  0
 24 25  1  0
 25 26  1  0
 26 28  1  0
 26 27  2  0
 28 29  1  0
 30 29  2  0
 30 31  1  0
 29 34  1  0
 31 32  2  0
 34 33  2  0
 32 33  1  0
 33 35  1  0
 35 36  2  0
 35 37  1  0
  1 40  1  0
  1 41  1  0
  1 42  1  0
  3 43  1  0
  3 44  1  0
  3 45  1  0
  4 46  1  0
  4 47  1  0
  4 48  1  0
  5 49  1  1
  6 50  1  0
  6 51  1  0
  7 52  1  0
  8 53  1  0
 12 54  1  0
 13 55  1  0
 16 56  1  0
 19 57  1  0
 21 58  1  0
 22 59  1  0
 28 60  1  0
 30 61  1  0
 31 62  1  0
 32 63  1  0
 34 64  1  0
 37 65  1  0
 37 66  1  0
 39 67  1  0
 39 68  1  0
 39 69  1  0
M  END
