
     RDKit          3D

 38 40  0  0  0  0  0  0  0  0999 V2000
   -7.4584   -0.6619   -0.5995 O   0  0  0  0  0  0  0  0  0  0  0  0
    1.6652    2.3819    0.0606 S   0  0  0  0  0  0  0  0  0  0  0  0
   -6.7804   -0.8704    0.3756 C   0  0  0  0  0  0  0  0  0  0  0  0
   -5.3053   -0.5953    0.4791 C   0  0  0  0  0  0  0  0  0  0  0  0
   -4.7123   -0.0040   -0.7962 C   0  0  0  0  0  0  0  0  0  0  0  0
   -2.3137   -0.7144   -1.0960 C   0  0  0  0  0  0  0  0  0  0  0  0
   -1.3856    1.5634    0.1591 C   0  0  0  0  0  0  0  0  0  0  0  0
   -0.4622    0.6212   -0.2996 C   0  0  0  0  0  0  0  0  0  0  0  0
   -0.9516   -0.5214   -0.9355 C   0  0  0  0  0  0  0  0  0  0  0  0
    0.9770    0.8080   -0.1229 C   0  0  0  0  0  0  0  0  0  0  0  0
    1.9563   -0.1433   -0.0925 C   0  0  0  0  0  0  0  0  0  0  0  0
    3.2698    0.3856    0.0811 C   0  0  0  0  0  0  0  0  0  0  0  0
    4.4874   -0.4359    0.1525 C   0  0  0  0  0  0  0  0  0  0  0  0
    5.7391    0.0999   -0.1602 C   0  0  0  0  0  0  0  0  0  0  0  0
    6.8851   -0.6760   -0.0807 C   0  0  0  0  0  0  0  0  0  0  0  0
    6.8053   -2.0084    0.3049 C   0  0  0  0  0  0  0  0  0  0  0  0
    5.5668   -2.5547    0.6124 C   0  0  0  0  0  0  0  0  0  0  0  0
    4.4209   -1.7761    0.5393 C   0  0  0  0  0  0  0  0  0  0  0  0
   -3.2351    0.2267   -0.6443 C   0  0  0  0  0  0  0  0  0  0  0  0
   -2.7460    1.3695   -0.0165 C   0  0  0  0  0  0  0  0  0  0  0  0
    3.2468    1.7501    0.1828 C   0  0  0  0  0  0  0  0  0  0  0  0
   -5.1392    0.0765    1.3267 H   0  0  0  0  0  0  0  0  0  0  0  0
   -4.7981   -1.5292    0.7399 H   0  0  0  0  0  0  0  0  0  0  0  0
   -4.8923   -0.6805   -1.6335 H   0  0  0  0  0  0  0  0  0  0  0  0
   -5.2132    0.9367   -1.0329 H   0  0  0  0  0  0  0  0  0  0  0  0
   -2.6651   -1.6112   -1.5927 H   0  0  0  0  0  0  0  0  0  0  0  0
   -1.0482    2.4570    0.6711 H   0  0  0  0  0  0  0  0  0  0  0  0
   -0.2652   -1.2610   -1.3279 H   0  0  0  0  0  0  0  0  0  0  0  0
    1.7459   -1.1989   -0.1949 H   0  0  0  0  0  0  0  0  0  0  0  0
    5.8233    1.1301   -0.4827 H   0  0  0  0  0  0  0  0  0  0  0  0
    7.8437   -0.2394   -0.3289 H   0  0  0  0  0  0  0  0  0  0  0  0
    7.6994   -2.6151    0.3634 H   0  0  0  0  0  0  0  0  0  0  0  0
    5.4894   -3.5912    0.9144 H   0  0  0  0  0  0  0  0  0  0  0  0
    3.4685   -2.2182    0.8028 H   0  0  0  0  0  0  0  0  0  0  0  0
   -3.4361    2.1230    0.3453 H   0  0  0  0  0  0  0  0  0  0  0  0
    4.0765    2.4222    0.3402 H   0  0  0  0  0  0  0  0  0  0  0  0
   -7.2663   -1.3817    1.5021 O   0  0  0  0  0  0  0  0  0  0  0  0
   -8.2147   -1.5556    1.4062 H   0  0  0  0  0  0  0  0  0  0  0  0
  1  3  2  0
  2 10  1  0
  2 21  1  0
  3  4  1  0
  4  5  1  0
  4 22  1  0
  4 23  1  0
  5 19  1  0
  5 24  1  0
  5 25  1  0
  6  9  2  0
  6 19  1  0
  6 26  1  0
  7  8  2  0
  7 20  1  0
  7 27  1  0
  8  9  1  0
  8 10  1  0
  9 28  1  0
 10 11  2  0
 11 12  1  0
 11 29  1  0
 12 13  1  0
 12 21  2  0
 13 14  2  0
 13 18  1  0
 14 15  1  0
 14 30  1  0
 15 16  2  0
 15 31  1  0
 16 17  1  0
 16 32  1  0
 17 18  2  0
 17 33  1  0
 18 34  1  0
 19 20  2  0
 20 35  1  0
 21 36  1  0
  3 37  1  0
 37 38  1  0
M  END
