
     RDKit          3D

 34 35  0  0  0  0  0  0  0  0999 V2000
   -1.0861    0.8497    1.7153 C   0  0  0  0  0  0  0  0  0  0  0  0
   -0.4768    0.8989    2.9588 C   0  0  0  0  0  0  0  0  0  0  0  0
    0.3001   -0.1730    3.3694 C   0  0  0  0  0  0  0  0  0  0  0  0
    0.4823   -1.2864    2.5610 C   0  0  0  0  0  0  0  0  0  0  0  0
   -0.1144   -1.3151    1.3126 C   0  0  0  0  0  0  0  0  0  0  0  0
   -0.8946   -0.2447    0.8792 C   0  0  0  0  0  0  0  0  0  0  0  0
   -1.5724   -0.2324   -0.4578 C   0  0  0  0  0  0  0  0  0  0  0  0
   -2.6506    0.3212   -0.6024 O   0  0  0  0  0  0  0  0  0  0  0  0
   -0.9062   -0.8569   -1.4432 N   0  0  0  0  0  0  0  0  0  0  0  0
   -1.3515   -0.9037   -2.8169 C   0  0  0  0  0  0  0  0  0  0  0  0
    1.0999   -0.1270    4.9506 S   0  0  2  0  0  0  0  0  0  0  0  0
    0.1609   -1.1796    5.8074 N   0  0  0  0  0  0  0  0  0  0  0  0
    1.0263    1.2405    5.4462 O   0  0  0  0  0  0  0  0  0  0  0  0
    2.4090   -0.7539    4.8477 O   0  0  0  0  0  0  0  0  0  0  0  0
   -0.4127   -0.1758   -3.7432 C   0  0  0  0  0  0  0  0  0  0  0  0
    0.2372   -0.8508   -4.7699 C   0  0  0  0  0  0  0  0  0  0  0  0
    1.0915   -0.1637   -5.6116 C   0  0  0  0  0  0  0  0  0  0  0  0
    1.3386    1.1857   -5.4639 C   0  0  0  0  0  0  0  0  0  0  0  0
    0.6970    1.8691   -4.4402 C   0  0  0  0  0  0  0  0  0  0  0  0
   -0.1635    1.1832   -3.6082 C   0  0  0  0  0  0  0  0  0  0  0  0
   -0.7880    1.8579   -2.6303 F   0  0  0  0  0  0  0  0  0  0  0  0
    1.7011   -0.8336   -6.6023 F   0  0  0  0  0  0  0  0  0  0  0  0
   -1.7013    1.6786    1.3931 H   0  0  0  0  0  0  0  0  0  0  0  0
   -0.6135    1.7641    3.5923 H   0  0  0  0  0  0  0  0  0  0  0  0
    1.0790   -2.1264    2.8898 H   0  0  0  0  0  0  0  0  0  0  0  0
    0.0206   -2.1923    0.6935 H   0  0  0  0  0  0  0  0  0  0  0  0
    0.0157   -1.2178   -1.2557 H   0  0  0  0  0  0  0  0  0  0  0  0
   -1.4276   -1.9442   -3.1368 H   0  0  0  0  0  0  0  0  0  0  0  0
   -2.3544   -0.4829   -2.8697 H   0  0  0  0  0  0  0  0  0  0  0  0
    0.6329   -1.4885    6.6526 H   0  0  0  0  0  0  0  0  0  0  0  0
   -0.7503   -0.7959    6.0374 H   0  0  0  0  0  0  0  0  0  0  0  0
    0.0702   -1.9115   -4.9124 H   0  0  0  0  0  0  0  0  0  0  0  0
    2.0170    1.7015   -6.1299 H   0  0  0  0  0  0  0  0  0  0  0  0
    0.8652    2.9281   -4.2966 H   0  0  0  0  0  0  0  0  0  0  0  0
  1  2  2  0
  1  6  1  0
  1 23  1  0
  2  3  1  0
  2 24  1  0
  3  4  2  0
  3 11  1  0
  4  5  1  0
  4 25  1  0
  5  6  2  0
  5 26  1  0
  6  7  1  0
  7  8  2  0
  7  9  1  0
  9 10  1  0
  9 27  1  0
 10 15  1  0
 10 28  1  0
 10 29  1  0
 11 12  1  1
 11 13  2  0
 11 14  2  0
 12 30  1  0
 12 31  1  0
 15 16  2  0
 15 20  1  0
 16 17  1  0
 16 32  1  0
 17 18  2  0
 17 22  1  0
 18 19  1  0
 18 33  1  0
 19 20  2  0
 19 34  1  0
 20 21  1  0
M  END
