
     RDKit          3D

 28 30  0  0  0  0  0  0  0  0999 V2000
    1.8951   -1.5643   -0.7397 C   0  0  0  0  0  0  0  0  0  0  0  0
   -3.4641   -0.0482    0.0392 C   0  0  0  0  0  0  0  0  0  0  0  0
    3.1875   -1.9567   -0.3614 C   0  0  0  0  0  0  0  0  0  0  0  0
   -0.7447    0.1613   -0.0271 N   0  0  0  0  0  0  0  0  0  0  0  0
    0.5754    0.5549   -0.0626 C   0  0  0  0  0  0  0  0  0  0  0  0
   -1.5018    1.3133   -0.0445 C   0  0  0  0  0  0  0  0  0  0  0  0
   -1.3052   -1.0823    0.0443 C   0  0  0  0  0  0  0  0  0  0  0  0
    1.6848   -0.3695   -0.0737 C   0  0  0  0  0  0  0  0  0  0  0  0
    0.5399    1.9374   -0.0987 C   0  0  0  0  0  0  0  0  0  0  0  0
   -0.7325    2.3890   -0.0875 N   0  0  0  0  0  0  0  0  0  0  0  0
   -2.9041    1.1927   -0.0179 C   0  0  0  0  0  0  0  0  0  0  0  0
   -2.6573   -1.2198    0.0796 C   0  0  0  0  0  0  0  0  0  0  0  0
    2.8172   -0.1440    0.6280 N   0  0  0  0  0  0  0  0  0  0  0  0
    1.7004    2.8695   -0.1499 C   0  0  0  0  0  0  0  0  0  0  0  0
   -3.2929   -2.5737    0.1676 C   0  0  0  0  0  0  0  0  0  0  0  0
    3.7365   -1.0853    0.4649 N   0  0  0  0  0  0  0  0  0  0  0  0
    1.2277   -2.0622   -1.4232 H   0  0  0  0  0  0  0  0  0  0  0  0
    3.7329   -2.8360   -0.6693 H   0  0  0  0  0  0  0  0  0  0  0  0
   -0.6247   -1.9203    0.0807 H   0  0  0  0  0  0  0  0  0  0  0  0
   -3.5063    2.0900   -0.0407 H   0  0  0  0  0  0  0  0  0  0  0  0
    2.9964    0.6234    1.2569 H   0  0  0  0  0  0  0  0  0  0  0  0
    1.4168    3.7954   -0.6476 H   0  0  0  0  0  0  0  0  0  0  0  0
    2.0509    3.1303    0.8510 H   0  0  0  0  0  0  0  0  0  0  0  0
    2.5429    2.4393   -0.6908 H   0  0  0  0  0  0  0  0  0  0  0  0
   -3.8789   -2.6692    1.0829 H   0  0  0  0  0  0  0  0  0  0  0  0
   -3.9733   -2.7401   -0.6686 H   0  0  0  0  0  0  0  0  0  0  0  0
   -2.5497   -3.3693    0.1599 H   0  0  0  0  0  0  0  0  0  0  0  0
   -4.5415   -0.1519    0.0584 H   0  0  0  0  0  0  0  0  0  0  0  0
 16 13  1  0
 16  3  2  0
 13  8  1  0
  3  1  1  0
  8  1  2  0
  8  5  1  0
 14  9  1  0
  5  9  2  0
  5  4  1  0
  9 10  1  0
  4  7  1  0
  4  6  1  0
 10  6  2  0
  7 12  2  0
  6 11  1  0
 12 15  1  0
 12  2  1  0
 11  2  2  0
  1 17  1  0
  2 28  1  0
  3 18  1  0
  7 19  1  0
 11 20  1  0
 13 21  1  0
 14 22  1  0
 14 23  1  0
 14 24  1  0
 15 25  1  0
 15 26  1  0
 15 27  1  0
M  END
