
     RDKit          3D

 46 46  0  0  0  0  0  0  0  0999 V2000
   -1.2280   -1.3252    2.2831 C   0  0  0  0  0  0  0  0  0  0  0  0
   -0.6057   -0.6526    1.0940 C   0  0  0  0  0  0  0  0  0  0  0  0
    0.6222   -0.0113    1.2116 C   0  0  0  0  0  0  0  0  0  0  0  0
    1.2389    0.6283    0.1414 C   0  0  0  0  0  0  0  0  0  0  0  0
    2.5742    1.2818    0.3437 C   0  0  0  0  0  0  0  0  0  0  0  0
    3.8309    0.0356   -0.1083 S   0  0  0  0  0  0  0  0  0  0  0  0
    5.2961    0.9942    0.1639 C   0  0  0  0  0  0  0  0  0  0  0  0
    5.1831    2.2288    0.4428 N   0  0  0  0  0  0  0  0  0  0  0  0
    6.5043    0.3347    0.1001 N   0  0  0  0  0  0  0  0  0  0  0  0
    6.7639   -0.9802   -0.2532 C   0  0  0  0  0  0  0  0  0  0  0  0
    5.8669   -1.6766   -0.8269 N   0  0  0  0  0  0  0  0  0  0  0  0
    8.0535   -1.3436    0.0273 N   0  0  0  0  0  0  0  0  0  0  0  0
    0.6170    0.6236   -1.1117 C   0  0  0  0  0  0  0  0  0  0  0  0
    1.2404    1.2946   -2.3012 C   0  0  0  0  0  0  0  0  0  0  0  0
   -0.6114   -0.0170   -1.2292 C   0  0  0  0  0  0  0  0  0  0  0  0
   -1.2286   -0.6557   -0.1588 C   0  0  0  0  0  0  0  0  0  0  0  0
   -2.5657   -1.3056   -0.3605 C   0  0  0  0  0  0  0  0  0  0  0  0
   -3.8178   -0.0613    0.1094 S   0  0  0  0  0  0  0  0  0  0  0  0
   -5.2868   -1.0105   -0.1732 C   0  0  0  0  0  0  0  0  0  0  0  0
   -5.1787   -2.2382   -0.4829 N   0  0  0  0  0  0  0  0  0  0  0  0
   -6.4937   -0.3520   -0.0810 N   0  0  0  0  0  0  0  0  0  0  0  0
   -6.7498    0.9558    0.2999 C   0  0  0  0  0  0  0  0  0  0  0  0
   -5.8403    1.6495    0.8567 N   0  0  0  0  0  0  0  0  0  0  0  0
   -8.0499    1.3156    0.0642 N   0  0  0  0  0  0  0  0  0  0  0  0
    2.6981    2.1631   -0.2831 H   0  0  0  0  0  0  0  0  0  0  0  0
    2.7173    1.5830    1.3805 H   0  0  0  0  0  0  0  0  0  0  0  0
    6.0861    2.6671    0.6017 H   0  0  0  0  0  0  0  0  0  0  0  0
    7.3075    0.9136    0.2991 H   0  0  0  0  0  0  0  0  0  0  0  0
    6.1648   -2.6362   -0.9552 H   0  0  0  0  0  0  0  0  0  0  0  0
    8.4873   -0.9370    0.8417 H   0  0  0  0  0  0  0  0  0  0  0  0
    8.2634   -2.3230   -0.0771 H   0  0  0  0  0  0  0  0  0  0  0  0
    2.2488    0.9225   -2.4912 H   0  0  0  0  0  0  0  0  0  0  0  0
    0.6480    1.1281   -3.1998 H   0  0  0  0  0  0  0  0  0  0  0  0
    1.3217    2.3740   -2.1558 H   0  0  0  0  0  0  0  0  0  0  0  0
   -1.1055   -0.0272   -2.1951 H   0  0  0  0  0  0  0  0  0  0  0  0
   -2.7143   -1.5970   -1.3994 H   0  0  0  0  0  0  0  0  0  0  0  0
   -2.6882   -2.1923    0.2590 H   0  0  0  0  0  0  0  0  0  0  0  0
   -6.0843   -2.6700   -0.6458 H   0  0  0  0  0  0  0  0  0  0  0  0
   -7.2993   -0.9293   -0.2746 H   0  0  0  0  0  0  0  0  0  0  0  0
   -6.1414    2.6040    1.0126 H   0  0  0  0  0  0  0  0  0  0  0  0
   -8.5065    0.9185   -0.7426 H   0  0  0  0  0  0  0  0  0  0  0  0
   -8.2604    2.2927    0.1874 H   0  0  0  0  0  0  0  0  0  0  0  0
   -2.2335   -0.9486    2.4787 H   0  0  0  0  0  0  0  0  0  0  0  0
   -1.3157   -2.4036    2.1334 H   0  0  0  0  0  0  0  0  0  0  0  0
   -0.6311   -1.1659    3.1800 H   0  0  0  0  0  0  0  0  0  0  0  0
    1.1163   -0.0008    2.1776 H   0  0  0  0  0  0  0  0  0  0  0  0
  1  2  1  0
  2  3  2  0
  2 16  1  0
  3  4  1  0
  4  5  1  0
  4 13  2  0
  5  6  1  0
  5 25  1  0
  5 26  1  0
  6  7  1  0
  7  8  2  0
  7  9  1  0
  8 27  1  0
  9 10  1  0
  9 28  1  0
 10 11  2  0
 10 12  1  0
 11 29  1  0
 12 30  1  0
 12 31  1  0
 13 14  1  0
 13 15  1  0
 14 32  1  0
 14 33  1  0
 14 34  1  0
 15 16  2  0
 15 35  1  0
 16 17  1  0
 17 18  1  0
 17 36  1  0
 17 37  1  0
 18 19  1  0
 19 20  2  0
 19 21  1  0
 20 38  1  0
 21 22  1  0
 21 39  1  0
 22 23  2  0
 22 24  1  0
 23 40  1  0
 24 41  1  0
 24 42  1  0
  1 43  1  0
  1 44  1  0
  1 45  1  0
  3 46  1  0
M  END
