
     RDKit          3D

 59 60  0  0  0  0  0  0  0  0999 V2000
   -1.8683    0.0124    1.3339 C   0  0  0  0  0  0  0  0  0  0  0  0
   -2.9534   -1.0010    1.1407 C   0  0  0  0  0  0  0  0  0  0  0  0
   -3.4585   -1.7569    2.1802 C   0  0  0  0  0  0  0  0  0  0  0  0
   -4.4419   -2.7091    1.9199 C   0  0  0  0  0  0  0  0  0  0  0  0
   -4.9161   -2.9257    0.6407 C   0  0  0  0  0  0  0  0  0  0  0  0
   -4.4064   -2.1806   -0.4230 C   0  0  0  0  0  0  0  0  0  0  0  0
   -4.8659   -2.4304   -1.6468 O   0  0  0  0  0  0  0  0  0  0  0  0
   -3.4326   -1.1969   -0.1625 C   0  0  0  0  0  0  0  0  0  0  0  0
   -2.8954   -0.4024   -1.2673 C   0  0  0  0  0  0  0  0  0  0  0  0
   -3.1211   -0.6533   -2.4395 O   0  0  0  0  0  0  0  0  0  0  0  0
   -2.1223    0.6334   -0.9906 O   0  0  0  0  0  0  0  0  0  0  0  0
   -2.0532    1.1484    0.3537 C   0  0  2  0  0  0  0  0  0  0  0  0
   -0.9366    2.1880    0.3818 C   0  0  2  0  0  0  0  0  0  0  0  0
   -1.2100    3.3567   -0.5640 C   0  0  0  0  0  0  0  0  0  0  0  0
   -0.1794    4.4858   -0.5037 C   0  0  1  0  0  0  0  0  0  0  0  0
   -0.5569    5.5703   -1.5084 C   0  0  0  0  0  0  0  0  0  0  0  0
   -0.0408    5.0741    0.8971 C   0  0  0  0  0  0  0  0  0  0  0  0
    0.3528    1.5900    0.1073 N   0  0  0  0  0  0  0  0  0  0  0  0
    1.2784    1.3295    1.0395 C   0  0  0  0  0  0  0  0  0  0  0  0
    1.1454    1.5754    2.2307 O   0  0  0  0  0  0  0  0  0  0  0  0
    2.5651    0.6691    0.5461 C   0  0  1  0  0  0  0  0  0  0  0  0
    3.6718    1.2636    1.1646 O   0  0  0  0  0  0  0  0  0  0  0  0
    2.4900   -0.8413    0.8353 C   0  0  1  0  0  0  0  0  0  0  0  0
    1.3553   -1.4105    0.2207 O   0  0  0  0  0  0  0  0  0  0  0  0
    3.7862   -1.6036    0.5089 C   0  0  1  0  0  0  0  0  0  0  0  0
    3.7223   -3.0046    0.8927 N   0  0  0  0  0  0  0  0  0  0  0  0
    4.1763   -1.5196   -0.9664 C   0  0  0  0  0  0  0  0  0  0  0  0
    5.4957   -2.2258   -1.1986 C   0  0  0  0  0  0  0  0  0  0  0  0
    6.5054   -1.9147   -0.5816 O   0  0  0  0  0  0  0  0  0  0  0  0
    5.4807   -3.1874   -2.1317 N   0  0  0  0  0  0  0  0  0  0  0  0
   -1.8810    0.4062    2.3508 H   0  0  0  0  0  0  0  0  0  0  0  0
   -0.8959   -0.4640    1.1795 H   0  0  0  0  0  0  0  0  0  0  0  0
   -3.0935   -1.6093    3.1881 H   0  0  0  0  0  0  0  0  0  0  0  0
   -4.8414   -3.2993    2.7345 H   0  0  0  0  0  0  0  0  0  0  0  0
   -5.6730   -3.6757    0.4513 H   0  0  0  0  0  0  0  0  0  0  0  0
   -4.3660   -1.8749   -2.2806 H   0  0  0  0  0  0  0  0  0  0  0  0
   -2.9985    1.6603    0.5649 H   0  0  0  0  0  0  0  0  0  0  0  0
   -0.9110    2.5627    1.4068 H   0  0  0  0  0  0  0  0  0  0  0  0
   -1.2744    2.9904   -1.5930 H   0  0  0  0  0  0  0  0  0  0  0  0
   -2.1980    3.7599   -0.3175 H   0  0  0  0  0  0  0  0  0  0  0  0
    0.7939    4.0800   -0.8006 H   0  0  0  0  0  0  0  0  0  0  0  0
   -1.5150    6.0276   -1.2496 H   0  0  0  0  0  0  0  0  0  0  0  0
    0.1920    6.3633   -1.5358 H   0  0  0  0  0  0  0  0  0  0  0  0
   -0.6468    5.1643   -2.5179 H   0  0  0  0  0  0  0  0  0  0  0  0
    0.3399    4.3475    1.6160 H   0  0  0  0  0  0  0  0  0  0  0  0
    0.6507    5.9183    0.8967 H   0  0  0  0  0  0  0  0  0  0  0  0
   -1.0032    5.4355    1.2678 H   0  0  0  0  0  0  0  0  0  0  0  0
    0.5682    1.3738   -0.8540 H   0  0  0  0  0  0  0  0  0  0  0  0
    2.6846    0.8332   -0.5300 H   0  0  0  0  0  0  0  0  0  0  0  0
    3.5142    1.2684    2.1169 H   0  0  0  0  0  0  0  0  0  0  0  0
    2.3217   -0.9604    1.9129 H   0  0  0  0  0  0  0  0  0  0  0  0
    1.4047   -1.2910   -0.7340 H   0  0  0  0  0  0  0  0  0  0  0  0
    4.5856   -1.1428    1.0922 H   0  0  0  0  0  0  0  0  0  0  0  0
    3.5992   -3.0806    1.8954 H   0  0  0  0  0  0  0  0  0  0  0  0
    2.9036   -3.4358    0.4787 H   0  0  0  0  0  0  0  0  0  0  0  0
    3.3938   -1.9442   -1.6021 H   0  0  0  0  0  0  0  0  0  0  0  0
    4.3046   -0.4786   -1.2740 H   0  0  0  0  0  0  0  0  0  0  0  0
    4.6401   -3.4407   -2.6200 H   0  0  0  0  0  0  0  0  0  0  0  0
    6.3155   -3.7105   -2.3415 H   0  0  0  0  0  0  0  0  0  0  0  0
  5  4  2  0
  5  6  1  0
  4  3  1  0
  7  6  1  0
  6  8  2  0
  3  2  2  0
 16 15  1  0
  8  2  1  0
  8  9  1  0
  2  1  1  0
 10  9  2  0
  9 11  1  0
 12  1  1  0
 12 11  1  0
 12 13  1  0
 14 15  1  0
 14 13  1  0
 15 17  1  0
 13 18  1  0
 18 19  1  0
 20 19  2  0
 19 21  1  0
 21 22  1  0
 21 23  1  0
 24 23  1  0
 23 25  1  0
 25 27  1  0
 25 26  1  0
 27 28  1  0
 28 29  2  0
 28 30  1  0
  1 31  1  0
  1 32  1  0
  3 33  1  0
  4 34  1  0
  5 35  1  0
  7 36  1  0
 12 37  1  1
 13 38  1  1
 14 39  1  0
 14 40  1  0
 15 41  1  6
 16 42  1  0
 16 43  1  0
 16 44  1  0
 17 45  1  0
 17 46  1  0
 17 47  1  0
 18 48  1  0
 21 49  1  6
 22 50  1  0
 23 51  1  1
 24 52  1  0
 25 53  1  1
 26 54  1  0
 26 55  1  0
 27 56  1  0
 27 57  1  0
 30 58  1  0
 30 59  1  0
M  END
