
     RDKit          3D

 78 80  0  0  0  0  0  0  0  0999 V2000
   -8.9050    1.5513   -0.2431 C   0  0  0  0  0  0  0  0  0  0  0  0
   -7.4171   -0.1816    0.3953 C   0  0  0  0  0  0  0  0  0  0  0  0
   -7.1971   -1.3399    1.1467 C   0  0  0  0  0  0  0  0  0  0  0  0
   -5.9671   -1.9635    1.1358 C   0  0  0  0  0  0  0  0  0  0  0  0
   -4.9158   -1.4519    0.3709 C   0  0  0  0  0  0  0  0  0  0  0  0
   -2.6085   -1.5447   -0.1766 C   0  0  0  0  0  0  0  0  0  0  0  0
   -1.4080   -2.4119    0.1516 C   0  0  0  0  0  0  0  0  0  0  0  0
   -0.1587   -1.7908   -0.4568 C   0  0  0  0  0  0  0  0  0  0  0  0
    2.9774   -0.5788   -0.3504 C   0  0  1  0  0  0  0  0  0  0  0  0
    4.4745   -0.3716   -0.6137 C   0  0  0  0  0  0  0  0  0  0  0  0
    5.3994   -1.3349    0.1229 C   0  0  2  0  0  0  0  0  0  0  0  0
    5.2016   -1.2861    1.6360 C   0  0  0  0  0  0  0  0  0  0  0  0
    6.1867   -2.1957    2.3661 C   0  0  0  0  0  0  0  0  0  0  0  0
    7.6309   -1.8719    1.9941 C   0  0  0  0  0  0  0  0  0  0  0  0
    7.8279   -1.9458    0.4816 C   0  0  0  0  0  0  0  0  0  0  0  0
    6.8518   -1.0242   -0.2454 C   0  0  0  0  0  0  0  0  0  0  0  0
    2.1940    0.4132   -1.2094 C   0  0  0  0  0  0  0  0  0  0  0  0
    1.3731    2.7331   -1.3387 C   0  0  1  0  0  0  0  0  0  0  0  0
    0.6374    3.6151   -0.3325 C   0  0  0  0  0  0  0  0  0  0  0  0
   -0.5587    2.9170    0.2968 C   0  0  1  0  0  0  0  0  0  0  0  0
   -1.2195    3.7493    1.3840 C   0  0  0  0  0  0  0  0  0  0  0  0
   -2.9553    2.6392    0.2530 C   0  0  0  0  0  0  0  0  0  0  0  0
   -1.7162    2.5834   -0.6461 C   0  0  0  0  0  0  0  0  0  0  0  0
    2.4474    3.4877   -2.1093 C   0  0  0  0  0  0  0  0  0  0  0  0
   -5.1350   -0.3115   -0.3869 C   0  0  0  0  0  0  0  0  0  0  0  0
   -6.3769    0.3231   -0.3720 C   0  0  0  0  0  0  0  0  0  0  0  0
    2.6052   -1.9428   -0.6878 N   0  0  0  0  0  0  0  0  0  0  0  0
    1.9399    1.5943   -0.6342 N   0  0  0  0  0  0  0  0  0  0  0  0
   -2.5466    3.5679    1.2841 N   0  0  0  0  0  0  0  0  0  0  0  0
   -8.6513    0.3622    0.4758 O   0  0  0  0  0  0  0  0  0  0  0  0
   -3.7417   -2.1249    0.4319 O   0  0  0  0  0  0  0  0  0  0  0  0
   -0.6503    4.4343    2.2178 O   0  0  0  0  0  0  0  0  0  0  0  0
    1.8543    0.1169   -2.3461 O   0  0  0  0  0  0  0  0  0  0  0  0
    1.4817   -2.4938    1.4721 O   0  0  0  0  0  0  0  0  0  0  0  0
    1.2596   -4.0182   -0.5130 O   0  0  0  0  0  0  0  0  0  0  0  0
    1.3210   -2.6720    0.0360 S   0  0  1  0  0  0  0  0  0  0  0  0
   -9.9355    1.8277   -0.0335 H   0  0  0  0  0  0  0  0  0  0  0  0
   -8.2507    2.3683    0.0749 H   0  0  0  0  0  0  0  0  0  0  0  0
   -8.7933    1.4122   -1.3222 H   0  0  0  0  0  0  0  0  0  0  0  0
   -8.0001   -1.7467    1.7488 H   0  0  0  0  0  0  0  0  0  0  0  0
   -5.8115   -2.8559    1.7293 H   0  0  0  0  0  0  0  0  0  0  0  0
   -2.4511   -0.5277    0.2073 H   0  0  0  0  0  0  0  0  0  0  0  0
   -2.7417   -1.4759   -1.2626 H   0  0  0  0  0  0  0  0  0  0  0  0
   -1.3005   -2.4852    1.2352 H   0  0  0  0  0  0  0  0  0  0  0  0
   -1.5590   -3.4180   -0.2424 H   0  0  0  0  0  0  0  0  0  0  0  0
   -0.1880   -1.7938   -1.5469 H   0  0  0  0  0  0  0  0  0  0  0  0
   -0.0314   -0.7603   -0.1171 H   0  0  0  0  0  0  0  0  0  0  0  0
    2.7678   -0.4172    0.7083 H   0  0  0  0  0  0  0  0  0  0  0  0
    4.6563   -0.4503   -1.6913 H   0  0  0  0  0  0  0  0  0  0  0  0
    4.7233    0.6564   -0.3314 H   0  0  0  0  0  0  0  0  0  0  0  0
    5.1787   -2.3549   -0.2141 H   0  0  0  0  0  0  0  0  0  0  0  0
    5.3357   -0.2503    1.9739 H   0  0  0  0  0  0  0  0  0  0  0  0
    4.1780   -1.5768    1.8936 H   0  0  0  0  0  0  0  0  0  0  0  0
    6.0403   -2.0987    3.4468 H   0  0  0  0  0  0  0  0  0  0  0  0
    5.9682   -3.2371    2.1116 H   0  0  0  0  0  0  0  0  0  0  0  0
    7.8794   -0.8642    2.3425 H   0  0  0  0  0  0  0  0  0  0  0  0
    8.3099   -2.5646    2.4982 H   0  0  0  0  0  0  0  0  0  0  0  0
    8.8535   -1.6743    0.2186 H   0  0  0  0  0  0  0  0  0  0  0  0
    7.6729   -2.9757    0.1432 H   0  0  0  0  0  0  0  0  0  0  0  0
    6.9763   -1.1185   -1.3290 H   0  0  0  0  0  0  0  0  0  0  0  0
    7.0697    0.0165    0.0159 H   0  0  0  0  0  0  0  0  0  0  0  0
    0.6705    2.3547   -2.0829 H   0  0  0  0  0  0  0  0  0  0  0  0
    1.3240    3.9378    0.4537 H   0  0  0  0  0  0  0  0  0  0  0  0
    0.3159    4.5027   -0.8494 H   0  0  0  0  0  0  0  0  0  0  0  0
   -0.2131    1.9976    0.7901 H   0  0  0  0  0  0  0  0  0  0  0  0
   -3.8415    2.9991   -0.2699 H   0  0  0  0  0  0  0  0  0  0  0  0
   -3.1930    1.6596    0.6807 H   0  0  0  0  0  0  0  0  0  0  0  0
   -1.7870    3.3384   -1.4322 H   0  0  0  0  0  0  0  0  0  0  0  0
   -1.6121    1.6150   -1.1356 H   0  0  0  0  0  0  0  0  0  0  0  0
    2.8875    2.8120   -2.8535 H   0  0  0  0  0  0  0  0  0  0  0  0
    1.9607    4.3029   -2.6636 H   0  0  0  0  0  0  0  0  0  0  0  0
   -4.3612    0.1123   -1.0118 H   0  0  0  0  0  0  0  0  0  0  0  0
   -6.4978    1.2116   -0.9764 H   0  0  0  0  0  0  0  0  0  0  0  0
    2.6681   -2.1450   -1.6790 H   0  0  0  0  0  0  0  0  0  0  0  0
    2.3535    1.7868    0.2654 H   0  0  0  0  0  0  0  0  0  0  0  0
   -3.1851    3.9237    1.9750 H   0  0  0  0  0  0  0  0  0  0  0  0
    4.0986    4.4137   -1.7053 H   0  0  0  0  0  0  0  0  0  0  0  0
    3.4136    3.9654   -1.2066 O   0  0  0  0  0  0  0  0  0  0  0  0
 32 21  2  0
 29 21  1  0
 29 22  1  0
 21 20  1  0
 22 23  1  0
 20 23  1  0
 20 19  1  0
 19 18  1  0
 26 25  1  0
 26  2  2  0
 18 24  1  0
 18 28  1  0
 25  5  2  0
 30  2  1  0
 30  1  1  0
 24 78  1  0
  2  3  1  0
 35 36  2  0
  5 31  1  0
  5  4  1  0
 28 17  1  0
 31  6  1  0
  3  4  2  0
  6  7  1  0
  7  8  1  0
 34 36  2  0
 33 17  2  0
 17  9  1  0
 36  8  1  0
 36 27  1  6
  9 27  1  0
  9 10  1  0
 10 11  1  0
 12 11  1  0
 12 13  1  0
 11 16  1  0
 13 14  1  0
 16 15  1  0
 14 15  1  0
  1 37  1  0
  1 38  1  0
  1 39  1  0
  3 40  1  0
  4 41  1  0
  6 42  1  0
  6 43  1  0
  7 44  1  0
  7 45  1  0
  8 46  1  0
  8 47  1  0
  9 48  1  1
 10 49  1  0
 10 50  1  0
 11 51  1  6
 12 52  1  0
 12 53  1  0
 13 54  1  0
 13 55  1  0
 14 56  1  0
 14 57  1  0
 15 58  1  0
 15 59  1  0
 16 60  1  0
 16 61  1  0
 18 62  1  6
 19 63  1  0
 19 64  1  0
 20 65  1  1
 22 66  1  0
 22 67  1  0
 23 68  1  0
 23 69  1  0
 24 70  1  0
 24 71  1  0
 25 72  1  0
 26 73  1  0
 27 74  1  0
 28 75  1  0
 29 76  1  0
 78 77  1  0
M  END
