
     RDKit          3D

 55 58  0  0  0  0  0  0  0  0999 V2000
    0.7351   -0.3487   -0.2464 C   0  0  0  0  0  0  0  0  0  0  0  0
    0.5367   -1.6325    0.2670 C   0  0  0  0  0  0  0  0  0  0  0  0
    2.8561   -2.1035   -0.2326 C   0  0  0  0  0  0  0  0  0  0  0  0
    0.3302   -3.9152    1.8403 C   0  0  0  0  0  0  0  0  0  0  0  0
   -1.1396   -1.1150    2.0305 C   0  0  0  0  0  0  0  0  0  0  0  0
   -1.8570   -1.7963   -0.3116 C   0  0  0  0  0  0  0  0  0  0  0  0
   -3.2868   -2.2076   -0.0265 C   0  0  0  0  0  0  0  0  0  0  0  0
   -7.7351   -2.4059   -1.9913 C   0  0  0  0  0  0  0  0  0  0  0  0
   -6.2078   -2.7338   -0.2862 N   0  0  0  0  0  0  0  0  0  0  0  0
    5.3345   -1.1900   -1.2322 C   0  0  0  0  0  0  0  0  0  0  0  0
    2.6539    2.2805   -0.5609 C   0  0  0  0  0  0  0  0  0  0  0  0
    2.8155    3.5082   -1.2021 C   0  0  0  0  0  0  0  0  0  0  0  0
    3.3570    4.5736   -0.5141 C   0  0  0  0  0  0  0  0  0  0  0  0
    3.0444   -0.8339   -0.7546 C   0  0  0  0  0  0  0  0  0  0  0  0
   -0.8500   -3.4336    1.1544 N   0  0  0  0  0  0  0  0  0  0  0  0
   -3.6895   -2.7008    1.0023 O   0  0  0  0  0  0  0  0  0  0  0  0
   -6.2731   -1.8140   -2.6800 S   0  0  0  0  0  0  0  0  0  0  0  0
    1.9526    0.0415   -0.7529 C   0  0  0  0  0  0  0  0  0  0  0  0
    1.6198   -2.5075    0.2782 C   0  0  0  0  0  0  0  0  0  0  0  0
   -0.8353   -2.0146    0.8189 C   0  0  1  0  0  0  0  0  0  0  0  0
    1.4884   -3.8836    0.8666 C   0  0  0  0  0  0  0  0  0  0  0  0
   -4.1090   -1.9512   -1.1001 N   0  0  0  0  0  0  0  0  0  0  0  0
    4.1942   -0.3522   -1.2493 O   0  0  0  0  0  0  0  0  0  0  0  0
   -5.4558   -2.2126   -1.1957 C   0  0  0  0  0  0  0  0  0  0  0  0
   -7.4964   -2.8437   -0.7339 C   0  0  0  0  0  0  0  0  0  0  0  0
    2.0946    1.2947   -1.2987 O   0  0  0  0  0  0  0  0  0  0  0  0
    3.7489    4.4407    0.8192 C   0  0  0  0  0  0  0  0  0  0  0  0
    3.5837    3.2073    1.4458 C   0  0  0  0  0  0  0  0  0  0  0  0
    3.0405    2.1295    0.7671 C   0  0  0  0  0  0  0  0  0  0  0  0
    4.3158    5.6169    1.5102 C   0  0  0  0  0  0  0  0  0  0  0  0
    4.4723    6.6957    0.9865 O   0  0  0  0  0  0  0  0  0  0  0  0
    4.6378    5.3753    2.7751 O   0  0  0  0  0  0  0  0  0  0  0  0
   -0.0672    0.3798   -0.2562 H   0  0  0  0  0  0  0  0  0  0  0  0
    3.6752   -2.8108   -0.2034 H   0  0  0  0  0  0  0  0  0  0  0  0
    0.5942   -3.3370    2.7390 H   0  0  0  0  0  0  0  0  0  0  0  0
    0.1399   -4.9372    2.1706 H   0  0  0  0  0  0  0  0  0  0  0  0
   -2.1121   -1.3492    2.4611 H   0  0  0  0  0  0  0  0  0  0  0  0
   -0.3829   -1.2511    2.8041 H   0  0  0  0  0  0  0  0  0  0  0  0
   -1.1403   -0.0584    1.7596 H   0  0  0  0  0  0  0  0  0  0  0  0
   -1.5214   -2.3532   -1.1924 H   0  0  0  0  0  0  0  0  0  0  0  0
   -1.8766   -0.7454   -0.6127 H   0  0  0  0  0  0  0  0  0  0  0  0
   -8.6626   -2.3916   -2.5402 H   0  0  0  0  0  0  0  0  0  0  0  0
    6.1534   -0.6029   -1.6396 H   0  0  0  0  0  0  0  0  0  0  0  0
    5.5936   -1.5032   -0.2180 H   0  0  0  0  0  0  0  0  0  0  0  0
    5.1951   -2.0787   -1.8526 H   0  0  0  0  0  0  0  0  0  0  0  0
    2.5118    3.6205   -2.2348 H   0  0  0  0  0  0  0  0  0  0  0  0
    3.4743    5.5223   -1.0203 H   0  0  0  0  0  0  0  0  0  0  0  0
   -1.6755   -3.6271    1.7037 H   0  0  0  0  0  0  0  0  0  0  0  0
    2.4187   -4.1678    1.3626 H   0  0  0  0  0  0  0  0  0  0  0  0
    1.3170   -4.6163    0.0721 H   0  0  0  0  0  0  0  0  0  0  0  0
   -3.6726   -1.5375   -1.9107 H   0  0  0  0  0  0  0  0  0  0  0  0
   -8.2482   -3.2627   -0.0805 H   0  0  0  0  0  0  0  0  0  0  0  0
    3.8754    3.0661    2.4772 H   0  0  0  0  0  0  0  0  0  0  0  0
    2.9174    1.1875    1.2842 H   0  0  0  0  0  0  0  0  0  0  0  0
    4.9952    6.1782    3.1825 H   0  0  0  0  0  0  0  0  0  0  0  0
 20  5  1  1
 16  7  2  0
  7  6  1  0
  7 22  1  0
  6 20  1  0
 20 15  1  0
 20  2  1  0
 17 24  1  0
 17  8  1  0
 15  4  1  0
  1  2  2  0
  1 18  1  0
  2 19  1  0
 22 24  1  0
 26 18  1  0
 26 11  1  0
 24  9  2  0
  8 25  2  0
 18 14  2  0
 29 11  1  0
 29 28  2  0
  4 21  1  0
 11 12  2  0
 19 21  1  0
 19  3  2  0
  9 25  1  0
 28 27  1  0
 14  3  1  0
 14 23  1  0
 12 13  1  0
 27 13  2  0
 27 30  1  0
 23 10  1  0
 31 30  2  0
 30 32  1  0
  1 33  1  0
  3 34  1  0
  4 35  1  0
  4 36  1  0
  5 37  1  0
  5 38  1  0
  5 39  1  0
  6 40  1  0
  6 41  1  0
  8 42  1  0
 10 43  1  0
 10 44  1  0
 10 45  1  0
 12 46  1  0
 13 47  1  0
 15 48  1  0
 21 49  1  0
 21 50  1  0
 22 51  1  0
 25 52  1  0
 28 53  1  0
 29 54  1  0
 32 55  1  0
M  END
