
     RDKit          3D

 39 41  0  0  0  0  0  0  0  0999 V2000
    1.1375    0.5482    7.1394 C   0  0  0  0  0  0  0  0  0  0  0  0
    1.6417   -0.2876    6.2404 N   0  0  0  0  0  0  0  0  0  0  0  0
    1.1024   -0.2741    5.0265 C   0  0  0  0  0  0  0  0  0  0  0  0
    0.0429    0.5911    4.7087 C   0  0  0  0  0  0  0  0  0  0  0  0
   -0.3911    1.4069    5.7262 C   0  0  0  0  0  0  0  0  0  0  0  0
    0.1341    1.4066    6.9467 N   0  0  0  0  0  0  0  0  0  0  0  0
    1.5942   -1.0944    4.0616 N   0  0  0  0  0  0  0  0  0  0  0  0
    2.6260   -2.0246    4.1649 C   0  0  0  0  0  0  0  0  0  0  0  0
    3.5414   -2.1710    3.1051 C   0  0  0  0  0  0  0  0  0  0  0  0
    4.5405   -3.1393    3.1982 C   0  0  0  0  0  0  0  0  0  0  0  0
    4.6656   -3.9395    4.3200 C   0  0  0  0  0  0  0  0  0  0  0  0
    3.7668   -3.7832    5.3657 C   0  0  0  0  0  0  0  0  0  0  0  0
    2.7505   -2.8474    5.2846 C   0  0  0  0  0  0  0  0  0  0  0  0
    1.6560    0.5833    8.4004 N   0  0  0  0  0  0  0  0  0  0  0  0
    2.6780   -0.1271    9.0158 C   0  0  0  0  0  0  0  0  0  0  0  0
    2.8965    0.1558   10.3724 C   0  0  0  0  0  0  0  0  0  0  0  0
    3.8918   -0.5076   11.0631 C   0  0  0  0  0  0  0  0  0  0  0  0
    4.6905   -1.4593   10.4430 C   0  0  0  0  0  0  0  0  0  0  0  0
    4.4730   -1.7345    9.0974 C   0  0  0  0  0  0  0  0  0  0  0  0
    3.4771   -1.0739    8.3796 C   0  0  0  0  0  0  0  0  0  0  0  0
    5.2032   -2.6435    8.4197 O   0  0  0  0  0  0  0  0  0  0  0  0
    3.4232   -1.3421    1.8677 C   0  0  0  0  0  0  0  0  0  0  0  0
    4.5742   -1.0232    1.2654 N   0  0  0  0  0  0  0  0  0  0  0  0
    2.3302   -0.9888    1.4287 O   0  0  0  0  0  0  0  0  0  0  0  0
   -0.4071    0.6165    3.7266 H   0  0  0  0  0  0  0  0  0  0  0  0
   -1.2079    2.0997    5.5557 H   0  0  0  0  0  0  0  0  0  0  0  0
    1.3148   -0.8871    3.1113 H   0  0  0  0  0  0  0  0  0  0  0  0
    5.2250   -3.2867    2.3724 H   0  0  0  0  0  0  0  0  0  0  0  0
    5.4485   -4.6835    4.3714 H   0  0  0  0  0  0  0  0  0  0  0  0
    3.8409   -4.4064    6.2464 H   0  0  0  0  0  0  0  0  0  0  0  0
    2.0391   -2.7605    6.0917 H   0  0  0  0  0  0  0  0  0  0  0  0
    1.1882    1.2539    8.9910 H   0  0  0  0  0  0  0  0  0  0  0  0
    2.2842    0.8926   10.8779 H   0  0  0  0  0  0  0  0  0  0  0  0
    4.0504   -0.2813   12.1095 H   0  0  0  0  0  0  0  0  0  0  0  0
    5.4656   -1.9734   10.9989 H   0  0  0  0  0  0  0  0  0  0  0  0
    3.3332   -1.3083    7.3376 H   0  0  0  0  0  0  0  0  0  0  0  0
    5.8594   -3.0428    9.0014 H   0  0  0  0  0  0  0  0  0  0  0  0
    5.4691   -1.1981    1.6881 H   0  0  0  0  0  0  0  0  0  0  0  0
    4.5631   -0.4770    0.4189 H   0  0  0  0  0  0  0  0  0  0  0  0
  1  6  1  0
  1  2  2  0
  1 14  1  0
  2  3  1  0
  3  4  2  0
  3  7  1  0
  4  5  1  0
  4 25  1  0
  5  6  2  0
  5 26  1  0
  7  8  1  0
  7 27  1  0
  8  9  2  0
  8 13  1  0
  9 22  1  0
  9 10  1  0
 10 11  2  0
 10 28  1  0
 11 12  1  0
 11 29  1  0
 12 13  2  0
 12 30  1  0
 13 31  1  0
 14 15  1  0
 14 32  1  0
 15 20  1  0
 15 16  2  0
 16 17  1  0
 16 33  1  0
 17 18  2  0
 17 34  1  0
 18 19  1  0
 18 35  1  0
 19 20  2  0
 19 21  1  0
 20 36  1  0
 21 37  1  0
 22 23  1  0
 22 24  2  0
 23 38  1  0
 23 39  1  0
M  END
