
     RDKit          3D

 92 95  0  0  0  0  0  0  0  0999 V2000
   -6.8050   -0.9475   -0.1166 N   0  0  0  0  0  0  0  0  0  0  0  0
   -7.6301   -1.7025   -1.0673 C   0  0  0  0  0  0  0  0  0  0  0  0
   -8.5972   -2.6734   -0.4231 C   0  0  0  0  0  0  0  0  0  0  0  0
   -9.3635   -1.9743    0.6769 C   0  0  0  0  0  0  0  0  0  0  0  0
   -8.3529   -1.5585    1.7255 C   0  0  0  0  0  0  0  0  0  0  0  0
   -7.0774   -0.9167    1.2072 C   0  0  0  0  0  0  0  0  0  0  0  0
   -6.3369   -0.3951    2.0371 O   0  0  0  0  0  0  0  0  0  0  0  0
   -5.6055   -0.2267   -0.6562 C   0  0  1  0  0  0  0  0  0  0  0  0
   -4.3150   -0.9497   -0.1818 C   0  0  2  0  0  0  0  0  0  0  0  0
   -3.0358   -0.3018   -0.7175 C   0  0  0  0  0  0  0  0  0  0  0  0
   -1.7937   -0.9644   -0.1106 C   0  0  1  0  0  0  0  0  0  0  0  0
   -1.7765   -2.4602   -0.4287 C   0  0  0  0  0  0  0  0  0  0  0  0
   -3.0559   -3.1222    0.0660 C   0  0  0  0  0  0  0  0  0  0  0  0
   -4.3002   -2.4470   -0.5027 C   0  0  0  0  0  0  0  0  0  0  0  0
   -0.5508   -0.2757   -0.6351 C   0  0  0  0  0  0  0  0  0  0  0  0
   -0.2940   -0.2388   -1.8316 O   0  0  0  0  0  0  0  0  0  0  0  0
    0.2325    0.2853    0.3044 N   0  0  0  0  0  0  0  0  0  0  0  0
    1.3460    1.1592    0.0190 C   0  0  2  0  0  0  0  0  0  0  0  0
    2.6477    0.5600    0.5647 C   0  0  2  0  0  0  0  0  0  0  0  0
    2.5638    0.2712    1.9464 O   0  0  0  0  0  0  0  0  0  0  0  0
    3.8636    1.4152    0.2369 C   0  0  0  0  0  0  0  0  0  0  0  0
    5.0891    0.6691    0.4390 N   0  0  0  0  0  0  0  0  0  0  0  0
    6.2755    1.4658    0.1920 C   0  0  0  0  0  0  0  0  0  0  0  0
    7.5315    0.6524    0.3575 C   0  0  0  0  0  0  0  0  0  0  0  0
    7.6626   -0.5817   -0.2799 C   0  0  0  0  0  0  0  0  0  0  0  0
    8.8169   -1.3464   -0.1636 C   0  0  0  0  0  0  0  0  0  0  0  0
    9.8637   -0.8544    0.6188 C   0  0  0  0  0  0  0  0  0  0  0  0
    9.7478    0.3674    1.2616 C   0  0  0  0  0  0  0  0  0  0  0  0
    8.5842    1.1184    1.1349 C   0  0  0  0  0  0  0  0  0  0  0  0
    8.9199   -2.6907   -0.8472 C   0  0  1  0  0  0  0  0  0  0  0  0
   10.1585   -2.7944   -1.7356 C   0  0  0  0  0  0  0  0  0  0  0  0
    8.8856   -3.8245    0.1790 C   0  0  0  0  0  0  0  0  0  0  0  0
    1.0474    2.5761    0.5379 C   0  0  0  0  0  0  0  0  0  0  0  0
   -0.2828    3.0778    0.0511 C   0  0  0  0  0  0  0  0  0  0  0  0
   -1.4006    3.0516    0.8804 C   0  0  0  0  0  0  0  0  0  0  0  0
   -2.6408    3.4741    0.4208 C   0  0  0  0  0  0  0  0  0  0  0  0
   -2.7811    3.9297   -0.8829 C   0  0  0  0  0  0  0  0  0  0  0  0
   -1.6726    3.9614   -1.7197 C   0  0  0  0  0  0  0  0  0  0  0  0
   -0.4352    3.5386   -1.2546 C   0  0  0  0  0  0  0  0  0  0  0  0
   -5.6652   -0.1694   -2.1901 C   0  0  0  0  0  0  0  0  0  0  0  0
   -5.6298    1.2405   -0.1956 C   0  0  0  0  0  0  0  0  0  0  0  0
   -8.1937   -1.0070   -1.6949 H   0  0  0  0  0  0  0  0  0  0  0  0
   -6.9728   -2.2648   -1.7277 H   0  0  0  0  0  0  0  0  0  0  0  0
   -9.2534   -3.0582   -1.2055 H   0  0  0  0  0  0  0  0  0  0  0  0
   -8.0557   -3.5305   -0.0103 H   0  0  0  0  0  0  0  0  0  0  0  0
   -9.8842   -1.1012    0.2729 H   0  0  0  0  0  0  0  0  0  0  0  0
  -10.1223   -2.6212    1.1197 H   0  0  0  0  0  0  0  0  0  0  0  0
   -8.7803   -0.8609    2.4485 H   0  0  0  0  0  0  0  0  0  0  0  0
   -8.0415   -2.4362    2.3007 H   0  0  0  0  0  0  0  0  0  0  0  0
   -4.2907   -0.8511    0.9074 H   0  0  0  0  0  0  0  0  0  0  0  0
   -2.9788   -0.4036   -1.8046 H   0  0  0  0  0  0  0  0  0  0  0  0
   -3.0172    0.7690   -0.4973 H   0  0  0  0  0  0  0  0  0  0  0  0
   -1.8415   -0.8457    0.9783 H   0  0  0  0  0  0  0  0  0  0  0  0
   -1.6812   -2.5963   -1.5101 H   0  0  0  0  0  0  0  0  0  0  0  0
   -0.9043   -2.9344    0.0292 H   0  0  0  0  0  0  0  0  0  0  0  0
   -3.0528   -4.1832   -0.1940 H   0  0  0  0  0  0  0  0  0  0  0  0
   -3.0872   -3.0705    1.1596 H   0  0  0  0  0  0  0  0  0  0  0  0
   -5.1899   -2.9346   -0.0961 H   0  0  0  0  0  0  0  0  0  0  0  0
   -4.3241   -2.6005   -1.5871 H   0  0  0  0  0  0  0  0  0  0  0  0
   -0.0555    0.2057    1.2669 H   0  0  0  0  0  0  0  0  0  0  0  0
    1.4445    1.2030   -1.0667 H   0  0  0  0  0  0  0  0  0  0  0  0
    2.7801   -0.4095    0.0736 H   0  0  0  0  0  0  0  0  0  0  0  0
    2.6402    1.0921    2.4451 H   0  0  0  0  0  0  0  0  0  0  0  0
    3.8119    1.7208   -0.8130 H   0  0  0  0  0  0  0  0  0  0  0  0
    3.8337    2.3458    0.8301 H   0  0  0  0  0  0  0  0  0  0  0  0
    5.1177    0.3308    1.3938 H   0  0  0  0  0  0  0  0  0  0  0  0
    6.2203    1.8391   -0.8364 H   0  0  0  0  0  0  0  0  0  0  0  0
    6.3335    2.3581    0.8342 H   0  0  0  0  0  0  0  0  0  0  0  0
    6.8392   -0.9537   -0.8801 H   0  0  0  0  0  0  0  0  0  0  0  0
   10.7762   -1.4295    0.7277 H   0  0  0  0  0  0  0  0  0  0  0  0
   10.5637    0.7368    1.8700 H   0  0  0  0  0  0  0  0  0  0  0  0
    8.4959    2.0699    1.6465 H   0  0  0  0  0  0  0  0  0  0  0  0
    8.0415   -2.7968   -1.4915 H   0  0  0  0  0  0  0  0  0  0  0  0
   10.1640   -3.7449   -2.2717 H   0  0  0  0  0  0  0  0  0  0  0  0
   10.1894   -1.9924   -2.4741 H   0  0  0  0  0  0  0  0  0  0  0  0
   11.0794   -2.7469   -1.1510 H   0  0  0  0  0  0  0  0  0  0  0  0
    7.9805   -3.7824    0.7862 H   0  0  0  0  0  0  0  0  0  0  0  0
    8.9123   -4.7964   -0.3171 H   0  0  0  0  0  0  0  0  0  0  0  0
    9.7431   -3.7711    0.8524 H   0  0  0  0  0  0  0  0  0  0  0  0
    1.0591    2.5891    1.6321 H   0  0  0  0  0  0  0  0  0  0  0  0
    1.8430    3.2468    0.2057 H   0  0  0  0  0  0  0  0  0  0  0  0
   -1.2996    2.6983    1.9002 H   0  0  0  0  0  0  0  0  0  0  0  0
   -3.4979    3.4415    1.0812 H   0  0  0  0  0  0  0  0  0  0  0  0
   -3.7464    4.2600   -1.2445 H   0  0  0  0  0  0  0  0  0  0  0  0
   -1.7714    4.3190   -2.7370 H   0  0  0  0  0  0  0  0  0  0  0  0
    0.4238    3.5680   -1.9154 H   0  0  0  0  0  0  0  0  0  0  0  0
   -6.5844    0.3044   -2.5354 H   0  0  0  0  0  0  0  0  0  0  0  0
   -4.8428    0.4470   -2.5478 H   0  0  0  0  0  0  0  0  0  0  0  0
   -5.5726   -1.1341   -2.6851 H   0  0  0  0  0  0  0  0  0  0  0  0
   -5.3709    1.3682    0.8508 H   0  0  0  0  0  0  0  0  0  0  0  0
   -4.9263    1.8291   -0.7834 H   0  0  0  0  0  0  0  0  0  0  0  0
   -6.6213    1.6648   -0.3636 H   0  0  0  0  0  0  0  0  0  0  0  0
  1  2  1  0
  1  6  1  0
  1  8  1  0
  2  3  1  0
  3  4  1  0
  4  5  1  0
  5  6  1  0
  6  7  2  0
  8  9  1  0
  8 40  1  6
  8 41  1  0
  9 10  1  0
  9 14  1  0
 10 11  1  0
 11 12  1  0
 11 15  1  0
 12 13  1  0
 13 14  1  0
 15 16  2  0
 15 17  1  0
 17 18  1  0
 18 19  1  0
 18 33  1  0
 19 20  1  0
 19 21  1  0
 21 22  1  0
 22 23  1  0
 23 24  1  0
 24 25  2  0
 24 29  1  0
 25 26  1  0
 26 27  2  0
 26 30  1  0
 27 28  1  0
 28 29  2  0
 30 31  1  0
 30 32  1  0
 33 34  1  0
 34 35  2  0
 34 39  1  0
 35 36  1  0
 36 37  2  0
 37 38  1  0
 38 39  2  0
  2 42  1  0
  2 43  1  0
  3 44  1  0
  3 45  1  0
  4 46  1  0
  4 47  1  0
  5 48  1  0
  5 49  1  0
  9 50  1  1
 10 51  1  0
 10 52  1  0
 11 53  1  1
 12 54  1  0
 12 55  1  0
 13 56  1  0
 13 57  1  0
 14 58  1  0
 14 59  1  0
 17 60  1  0
 18 61  1  6
 19 62  1  6
 20 63  1  0
 21 64  1  0
 21 65  1  0
 22 66  1  0
 23 67  1  0
 23 68  1  0
 25 69  1  0
 27 70  1  0
 28 71  1  0
 29 72  1  0
 30 73  1  6
 31 74  1  0
 31 75  1  0
 31 76  1  0
 32 77  1  0
 32 78  1  0
 32 79  1  0
 33 80  1  0
 33 81  1  0
 35 82  1  0
 36 83  1  0
 37 84  1  0
 38 85  1  0
 39 86  1  0
 40 87  1  0
 40 88  1  0
 40 89  1  0
 41 90  1  0
 41 91  1  0
 41 92  1  0
M  END
