
     RDKit          3D

 22 23  0  0  0  0  0  0  0  0999 V2000
   -1.8226   -0.3643   -0.0081 C   0  0  0  0  0  0  0  0  0  0  0  0
   -2.7993    0.6188   -0.0110 C   0  0  0  0  0  0  0  0  0  0  0  0
   -2.4602    1.9848   -0.0075 C   0  0  0  0  0  0  0  0  0  0  0  0
   -1.1543    2.4195    0.0001 C   0  0  0  0  0  0  0  0  0  0  0  0
   -0.1533    1.4389    0.0036 C   0  0  0  0  0  0  0  0  0  0  0  0
   -0.5017    0.0910   -0.0002 C   0  0  0  0  0  0  0  0  0  0  0  0
   -3.3507   -2.1631   -0.0155 C   0  0  0  0  0  0  0  0  0  0  0  0
    1.2764    1.4497    0.0108 C   0  0  0  0  0  0  0  0  0  0  0  0
    1.6578    0.1509    0.0110 C   0  0  0  0  0  0  0  0  0  0  0  0
    3.0107   -0.4091    0.0186 C   0  0  0  0  0  0  0  0  0  0  0  0
   -2.0156   -1.6893   -0.0125 O   0  0  0  0  0  0  0  0  0  0  0  0
    3.9962    0.2872    0.0238 O   0  0  0  0  0  0  0  0  0  0  0  0
    0.5938   -0.6914    0.0042 O   0  0  0  0  0  0  0  0  0  0  0  0
   -3.8473    0.3512   -0.0168 H   0  0  0  0  0  0  0  0  0  0  0  0
   -3.2650    2.7077   -0.0108 H   0  0  0  0  0  0  0  0  0  0  0  0
   -0.9102    3.4729    0.0028 H   0  0  0  0  0  0  0  0  0  0  0  0
   -3.8971   -1.8326    0.8709 H   0  0  0  0  0  0  0  0  0  0  0  0
   -3.8909   -1.8381   -0.9079 H   0  0  0  0  0  0  0  0  0  0  0  0
   -3.2933   -3.2482   -0.0117 H   0  0  0  0  0  0  0  0  0  0  0  0
    1.9296    2.3072    0.0153 H   0  0  0  0  0  0  0  0  0  0  0  0
    3.0143   -1.7304    0.0204 O   0  0  0  0  0  0  0  0  0  0  0  0
    3.9257   -2.0606    0.0244 H   0  0  0  0  0  0  0  0  0  0  0  0
 10 12  2  0
 10  9  1  0
 13  9  1  0
 13  6  1  0
 11  7  1  0
 11  1  1  0
  9  8  2  0
  6  1  2  0
  6  5  1  0
  1  2  1  0
  8  5  1  0
  5  4  2  0
  2  3  2  0
  4  3  1  0
  2 14  1  0
  3 15  1  0
  4 16  1  0
  7 17  1  0
  7 18  1  0
  7 19  1  0
  8 20  1  0
 10 21  1  0
 21 22  1  0
M  END
