
     RDKit          3D

 33 33  0  0  0  0  0  0  0  0999 V2000
    4.4134    0.0673    0.1082 C   0  0  0  0  0  0  0  0  0  0  0  0
    5.1240    0.2609    1.2151 O   0  0  0  0  0  0  0  0  0  0  0  0
    2.9359    0.0893    0.3852 C   0  0  0  0  0  0  0  0  0  0  0  0
    2.0815   -0.0995   -0.8639 C   0  0  0  0  0  0  0  0  0  0  0  0
    0.6170   -0.0701   -0.5181 C   0  0  0  0  0  0  0  0  0  0  0  0
   -0.0198    1.1498   -0.3194 C   0  0  0  0  0  0  0  0  0  0  0  0
    4.9160   -0.1043   -0.9744 O   0  0  0  0  0  0  0  0  0  0  0  0
   -1.3618    1.1839    0.0524 C   0  0  0  0  0  0  0  0  0  0  0  0
   -1.4008    3.5519    0.1293 C   0  0  0  0  0  0  0  0  0  0  0  0
   -2.0681   -0.0089    0.2317 C   0  0  0  0  0  0  0  0  0  0  0  0
   -4.3068    0.0618   -0.4380 C   0  0  0  0  0  0  0  0  0  0  0  0
   -1.4271   -1.2311    0.0191 C   0  0  0  0  0  0  0  0  0  0  0  0
   -1.5929   -3.5956    0.0238 C   0  0  0  0  0  0  0  0  0  0  0  0
   -0.0823   -1.2581   -0.3492 C   0  0  0  0  0  0  0  0  0  0  0  0
    6.0703    0.2370    1.0092 H   0  0  0  0  0  0  0  0  0  0  0  0
    2.7149   -0.6908    1.1203 H   0  0  0  0  0  0  0  0  0  0  0  0
    2.6924    1.0351    0.8775 H   0  0  0  0  0  0  0  0  0  0  0  0
    2.3073    0.6859   -1.5881 H   0  0  0  0  0  0  0  0  0  0  0  0
    2.3306   -1.0500   -1.3381 H   0  0  0  0  0  0  0  0  0  0  0  0
    0.5404    2.0651   -0.4613 H   0  0  0  0  0  0  0  0  0  0  0  0
   -1.0317    3.7077   -0.8876 H   0  0  0  0  0  0  0  0  0  0  0  0
   -2.1368    4.3196    0.3553 H   0  0  0  0  0  0  0  0  0  0  0  0
   -0.5646    3.6509    0.8263 H   0  0  0  0  0  0  0  0  0  0  0  0
   -5.3001    0.0770    0.0077 H   0  0  0  0  0  0  0  0  0  0  0  0
   -4.1864    0.9586   -1.0508 H   0  0  0  0  0  0  0  0  0  0  0  0
   -4.2275   -0.8167   -1.0829 H   0  0  0  0  0  0  0  0  0  0  0  0
   -1.2290   -3.7373   -0.9971 H   0  0  0  0  0  0  0  0  0  0  0  0
   -0.7666   -3.7646    0.7189 H   0  0  0  0  0  0  0  0  0  0  0  0
   -2.3708   -4.3288    0.2220 H   0  0  0  0  0  0  0  0  0  0  0  0
    0.4298   -2.1969   -0.5139 H   0  0  0  0  0  0  0  0  0  0  0  0
   -2.1863   -2.3255    0.2048 O   0  0  0  0  0  0  0  0  0  0  0  0
   -2.0626    2.3108    0.2698 O   0  0  0  0  0  0  0  0  0  0  0  0
   -3.3690    0.0207    0.6284 O   0  0  0  0  0  0  0  0  0  0  0  0
  2  1  1  0
  7  1  2  0
  1  3  1  0
  3  4  1  0
 13 31  1  0
  4  5  1  0
 14  5  2  0
 14 12  1  0
 31 12  1  0
  5  6  1  0
 12 10  2  0
  6  8  2  0
 10  8  1  0
 10 33  1  0
  8 32  1  0
 33 11  1  0
 32  9  1  0
  2 15  1  0
  3 16  1  0
  3 17  1  0
  4 18  1  0
  4 19  1  0
  6 20  1  0
  9 21  1  0
  9 22  1  0
  9 23  1  0
 11 24  1  0
 11 25  1  0
 11 26  1  0
 13 27  1  0
 13 28  1  0
 13 29  1  0
 14 30  1  0
M  END
