
     RDKit          3D

 35 36  0  0  0  0  0  0  0  0999 V2000
    5.0766    1.4229    0.7105 C   0  0  0  0  0  0  0  0  0  0  0  0
    4.2050    0.3366    0.0996 C   0  0  0  0  0  0  0  0  0  0  0  0
    4.6138   -0.4777   -0.6958 O   0  0  0  0  0  0  0  0  0  0  0  0
    2.9264    0.4118    0.5519 N   0  0  0  0  0  0  0  0  0  0  0  0
    1.8348   -0.3861    0.2160 C   0  0  0  0  0  0  0  0  0  0  0  0
    0.6201   -0.0699    0.8227 C   0  0  0  0  0  0  0  0  0  0  0  0
    1.8813   -1.4639   -0.6664 C   0  0  0  0  0  0  0  0  0  0  0  0
    0.7333   -2.1958   -0.9190 C   0  0  0  0  0  0  0  0  0  0  0  0
   -0.4718   -1.8801   -0.3158 C   0  0  0  0  0  0  0  0  0  0  0  0
   -1.8453   -2.8537   -0.6904 Cl  0  0  0  0  0  0  0  0  0  0  0  0
   -0.5270   -0.8029    0.5646 C   0  0  0  0  0  0  0  0  0  0  0  0
   -2.0290   -0.2723    1.3834 S   0  0  1  0  0  0  0  0  0  0  0  0
   -2.7696   -1.4317    1.8405 O   0  0  0  0  0  0  0  0  0  0  0  0
   -1.6106    0.7234    2.3557 O   0  0  0  0  0  0  0  0  0  0  0  0
   -2.9318    0.5020    0.2583 N   0  0  0  0  0  0  0  0  0  0  0  0
   -3.9657   -0.1742   -0.5216 C   0  0  0  0  0  0  0  0  0  0  0  0
   -5.0099    0.8632   -0.8955 C   0  0  0  0  0  0  0  0  0  0  0  0
   -4.4381    1.9401   -1.6026 O   0  0  0  0  0  0  0  0  0  0  0  0
   -3.4531    2.5913   -0.8356 C   0  0  0  0  0  0  0  0  0  0  0  0
   -2.3372    1.6425   -0.4350 C   0  0  0  0  0  0  0  0  0  0  0  0
    4.7337    2.4030    0.3784 H   0  0  0  0  0  0  0  0  0  0  0  0
    5.0147    1.3952    1.7980 H   0  0  0  0  0  0  0  0  0  0  0  0
    2.7301    1.1380    1.2267 H   0  0  0  0  0  0  0  0  0  0  0  0
    0.5760    0.7614    1.5130 H   0  0  0  0  0  0  0  0  0  0  0  0
    2.7955   -1.7488   -1.1594 H   0  0  0  0  0  0  0  0  0  0  0  0
    0.7837   -3.0317   -1.6030 H   0  0  0  0  0  0  0  0  0  0  0  0
   -3.5474   -0.6221   -1.4281 H   0  0  0  0  0  0  0  0  0  0  0  0
   -4.4323   -0.9586    0.0692 H   0  0  0  0  0  0  0  0  0  0  0  0
   -5.7575    0.4047   -1.5436 H   0  0  0  0  0  0  0  0  0  0  0  0
   -5.5134    1.2189    0.0139 H   0  0  0  0  0  0  0  0  0  0  0  0
   -3.0427    3.3992   -1.4421 H   0  0  0  0  0  0  0  0  0  0  0  0
   -3.8922    3.0305    0.0702 H   0  0  0  0  0  0  0  0  0  0  0  0
   -1.6459    2.1721    0.2191 H   0  0  0  0  0  0  0  0  0  0  0  0
   -1.7854    1.3064   -1.3208 H   0  0  0  0  0  0  0  0  0  0  0  0
    6.7704    1.2307    0.2385 Cl  0  0  0  0  0  0  0  0  0  0  0  0
  1  2  1  0
  2  3  2  0
  2  4  1  0
  4  5  1  0
  5  7  2  0
  5  6  1  0
 19 20  1  0
 19 18  1  0
  7  8  1  0
 20 15  1  0
  6 11  2  0
 18 17  1  0
  8  9  2  0
 11  9  1  0
 12 11  1  6
  9 10  1  0
 15 12  1  0
 15 16  1  0
 13 12  2  0
 12 14  2  0
 17 16  1  0
  1 21  1  0
  1 22  1  0
  4 23  1  0
  6 24  1  0
  7 25  1  0
  8 26  1  0
 16 27  1  0
 16 28  1  0
 17 29  1  0
 17 30  1  0
 19 31  1  0
 19 32  1  0
 20 33  1  0
 20 34  1  0
  1 35  1  0
M  END
