
     RDKit          3D

 48 49  0  0  0  0  0  0  0  0999 V2000
   -3.3010    0.3969   -0.5966 C   0  0  0  0  0  0  0  0  0  0  0  0
   -2.9200   -0.9491   -0.5763 C   0  0  0  0  0  0  0  0  0  0  0  0
   -4.6306    0.7651   -0.4990 C   0  0  0  0  0  0  0  0  0  0  0  0
   -4.1396    3.0798   -0.5998 C   0  0  0  0  0  0  0  0  0  0  0  0
   -7.9292   -0.7364   -0.2092 C   0  0  0  0  0  0  0  0  0  0  0  0
   -1.4688   -1.3074   -0.6764 C   0  0  0  0  0  0  0  0  0  0  0  0
   -0.7169   -1.0874    0.6282 C   0  0  0  0  0  0  0  0  0  0  0  0
    1.6322   -0.8663    1.4158 C   0  0  0  0  0  0  0  0  0  0  0  0
    5.1375    0.1553    0.7675 C   0  0  0  0  0  0  0  0  0  0  0  0
    6.7124   -0.5679   -0.9141 C   0  0  0  0  0  0  0  0  0  0  0  0
    7.3159    0.6915   -0.9368 C   0  0  0  0  0  0  0  0  0  0  0  0
    5.6417   -0.8323   -0.0780 C   0  0  0  0  0  0  0  0  0  0  0  0
    5.7312    1.4092    0.7469 C   0  0  0  0  0  0  0  0  0  0  0  0
   -1.2725   -1.0123    1.6998 O   0  0  0  0  0  0  0  0  0  0  0  0
   -3.8964   -1.9164   -0.4571 C   0  0  0  0  0  0  0  0  0  0  0  0
   -5.2433   -1.5621   -0.3614 C   0  0  0  0  0  0  0  0  0  0  0  0
   -5.6230   -0.2324   -0.3814 C   0  0  0  0  0  0  0  0  0  0  0  0
   -6.8903    0.2161   -0.3001 O   0  0  0  0  0  0  0  0  0  0  0  0
   -5.0837    2.0330   -0.5103 O   0  0  0  0  0  0  0  0  0  0  0  0
    0.6344   -1.0042    0.4436 N   0  0  0  0  0  0  0  0  0  0  0  0
    1.4396   -1.2393    2.6157 N   0  0  0  0  0  0  0  0  0  0  0  0
    2.7793   -0.3659    0.8617 N   0  0  0  0  0  0  0  0  0  0  0  0
    3.9631   -0.1333    1.6609 C   0  0  0  0  0  0  0  0  0  0  0  0
    6.8069    1.6733   -0.0945 C   0  0  0  0  0  0  0  0  0  0  0  0
    8.4878    0.9604   -1.8350 C   0  0  0  0  0  0  0  0  0  0  0  0
   -2.5313    1.1524   -0.6910 H   0  0  0  0  0  0  0  0  0  0  0  0
   -3.4418    3.0754    0.2419 H   0  0  0  0  0  0  0  0  0  0  0  0
   -3.5686    3.0397   -1.5313 H   0  0  0  0  0  0  0  0  0  0  0  0
   -4.7052    4.0082   -0.5791 H   0  0  0  0  0  0  0  0  0  0  0  0
   -7.9568   -1.3967   -1.0803 H   0  0  0  0  0  0  0  0  0  0  0  0
   -7.8490   -1.3479    0.6937 H   0  0  0  0  0  0  0  0  0  0  0  0
   -8.8598   -0.1755   -0.1680 H   0  0  0  0  0  0  0  0  0  0  0  0
   -1.3550   -2.3649   -0.9345 H   0  0  0  0  0  0  0  0  0  0  0  0
   -0.9861   -0.7482   -1.4825 H   0  0  0  0  0  0  0  0  0  0  0  0
    7.0886   -1.3523   -1.5607 H   0  0  0  0  0  0  0  0  0  0  0  0
    5.1925   -1.8186   -0.0803 H   0  0  0  0  0  0  0  0  0  0  0  0
    5.3521    2.1933    1.3919 H   0  0  0  0  0  0  0  0  0  0  0  0
   -3.6272   -2.9652   -0.4413 H   0  0  0  0  0  0  0  0  0  0  0  0
   -5.9821   -2.3470   -0.2761 H   0  0  0  0  0  0  0  0  0  0  0  0
    0.9546   -1.0252   -0.5131 H   0  0  0  0  0  0  0  0  0  0  0  0
    2.2311   -1.0089    3.2043 H   0  0  0  0  0  0  0  0  0  0  0  0
    2.6653    0.2550    0.0745 H   0  0  0  0  0  0  0  0  0  0  0  0
    4.1634   -1.0314    2.2512 H   0  0  0  0  0  0  0  0  0  0  0  0
    3.8237    0.6897    2.3714 H   0  0  0  0  0  0  0  0  0  0  0  0
    7.2505    2.6620   -0.0945 H   0  0  0  0  0  0  0  0  0  0  0  0
    8.2903    0.6335   -2.8565 H   0  0  0  0  0  0  0  0  0  0  0  0
    8.7363    2.0205   -1.8635 H   0  0  0  0  0  0  0  0  0  0  0  0
    9.3748    0.4232   -1.4933 H   0  0  0  0  0  0  0  0  0  0  0  0
 15 16  2  0
 15  2  1  0
  6  2  1  0
  6  7  1  0
 16 17  1  0
  2  1  2  0
 17 18  1  0
 17  3  2  0
  1  3  1  0
 18  5  1  0
  3 19  1  0
 20  7  1  0
 20  8  1  0
  7 14  2  0
 19  4  1  0
 21  8  2  0
  8 22  1  0
 22 23  1  0
 12 10  2  0
 12  9  1  0
 10 11  1  0
 23  9  1  0
  9 13  2  0
 11 25  1  0
 11 24  2  0
 13 24  1  0
  1 26  1  0
  4 27  1  0
  4 28  1  0
  4 29  1  0
  5 30  1  0
  5 31  1  0
  5 32  1  0
  6 33  1  0
  6 34  1  0
 10 35  1  0
 12 36  1  0
 13 37  1  0
 15 38  1  0
 16 39  1  0
 20 40  1  0
 21 41  1  0
 22 42  1  0
 23 43  1  0
 23 44  1  0
 24 45  1  0
 25 46  1  0
 25 47  1  0
 25 48  1  0
M  END
