
     RDKit          3D

 52 54  0  0  0  0  0  0  0  0999 V2000
    2.5568    2.2214    0.4287 C   0  0  0  0  0  0  0  0  0  0  0  0
    0.3037    3.3198   -2.2139 C   0  0  0  0  0  0  0  0  0  0  0  0
    3.1350    0.1242   -1.3021 C   0  0  0  0  0  0  0  0  0  0  0  0
    3.7144    1.4843    0.6137 C   0  0  0  0  0  0  0  0  0  0  0  0
   -4.3931   -0.1759    0.1734 C   0  0  0  0  0  0  0  0  0  0  0  0
   -7.0513   -2.8368    0.2001 C   0  0  0  0  0  0  0  0  0  0  0  0
   -6.5224   -3.7715   -0.6814 C   0  0  0  0  0  0  0  0  0  0  0  0
   -5.2949   -3.5248   -1.2811 C   0  0  0  0  0  0  0  0  0  0  0  0
    4.1735   -2.5104    1.1877 C   0  0  0  0  0  0  0  0  0  0  0  0
    1.6857    1.9324   -0.6169 C   0  0  0  0  0  0  0  0  0  0  0  0
    0.4300    2.7514   -0.8034 C   0  0  2  0  0  0  0  0  0  0  0  0
    1.9885    0.8814   -1.4787 C   0  0  0  0  0  0  0  0  0  0  0  0
   -0.7210    1.9360   -0.4443 N   0  0  0  0  0  0  0  0  0  0  0  0
    3.9882    0.4366   -0.2548 C   0  0  0  0  0  0  0  0  0  0  0  0
   -1.9821    3.6462    0.3292 O   0  0  0  0  0  0  0  0  0  0  0  0
   -2.9485    1.4888    0.2489 C   0  0  0  0  0  0  0  0  0  0  0  0
   -4.0003    1.7093    1.0710 N   0  0  0  0  0  0  0  0  0  0  0  0
   -4.8665    0.7152    1.0355 N   0  0  0  0  0  0  0  0  0  0  0  0
   -3.1709    0.2682   -0.3535 C   0  0  0  0  0  0  0  0  0  0  0  0
   -5.1256   -1.4111   -0.1178 C   0  0  0  0  0  0  0  0  0  0  0  0
   -6.3613   -1.6677    0.4801 C   0  0  0  0  0  0  0  0  0  0  0  0
   -4.6028   -2.3557   -1.0013 C   0  0  0  0  0  0  0  0  0  0  0  0
    5.4760   -0.4851   -0.0262 S   0  0  1  0  0  0  0  0  0  0  0  0
    5.7383   -1.2615   -1.2191 O   0  0  0  0  0  0  0  0  0  0  0  0
    6.4999    0.3936    0.5075 O   0  0  0  0  0  0  0  0  0  0  0  0
    5.1305   -1.5195    1.2439 N   0  0  0  0  0  0  0  0  0  0  0  0
    3.5089   -2.6876    0.1932 O   0  0  0  0  0  0  0  0  0  0  0  0
    4.0580   -3.3076    2.4532 C   0  0  0  0  0  0  0  0  0  0  0  0
    2.3378    3.0379    1.1048 H   0  0  0  0  0  0  0  0  0  0  0  0
   -0.5828    3.9493   -2.2864 H   0  0  0  0  0  0  0  0  0  0  0  0
    1.1730    3.9315   -2.4551 H   0  0  0  0  0  0  0  0  0  0  0  0
    0.2205    2.5315   -2.9623 H   0  0  0  0  0  0  0  0  0  0  0  0
    3.3533   -0.6861   -1.9823 H   0  0  0  0  0  0  0  0  0  0  0  0
    4.3850    1.7340    1.4252 H   0  0  0  0  0  0  0  0  0  0  0  0
   -4.4788    3.7327    1.3726 H   0  0  0  0  0  0  0  0  0  0  0  0
   -5.1208    2.5776    2.5539 H   0  0  0  0  0  0  0  0  0  0  0  0
   -3.4092    3.0249    2.5944 H   0  0  0  0  0  0  0  0  0  0  0  0
   -7.0627   -4.6834   -0.8998 H   0  0  0  0  0  0  0  0  0  0  0  0
   -4.8710   -4.2442   -1.9697 H   0  0  0  0  0  0  0  0  0  0  0  0
    0.4646    3.5845   -0.0996 H   0  0  0  0  0  0  0  0  0  0  0  0
    1.3333    0.6429   -2.3074 H   0  0  0  0  0  0  0  0  0  0  0  0
   -0.6720    0.9435   -0.6118 H   0  0  0  0  0  0  0  0  0  0  0  0
   -2.5490   -0.2160   -1.0888 H   0  0  0  0  0  0  0  0  0  0  0  0
   -6.7873   -0.9486    1.1672 H   0  0  0  0  0  0  0  0  0  0  0  0
   -3.6460   -2.1845   -1.4782 H   0  0  0  0  0  0  0  0  0  0  0  0
    5.6374   -1.3429    2.1035 H   0  0  0  0  0  0  0  0  0  0  0  0
    3.2535   -4.0320    2.3667 H   0  0  0  0  0  0  0  0  0  0  0  0
    4.9924   -3.8338    2.6525 H   0  0  0  0  0  0  0  0  0  0  0  0
    3.8629   -2.6543    3.3043 H   0  0  0  0  0  0  0  0  0  0  0  0
   -1.8504    2.4616    0.0571 C   0  0  0  0  0  0  0  0  0  0  0  0
   -8.0085   -3.0182    0.6714 H   0  0  0  0  0  0  0  0  0  0  0  0
   -4.2602    2.8356    1.9456 C   0  0  0  0  0  0  0  0  0  0  0  0
 24 23  2  0
 28  9  1  0
 26  9  1  0
 23 26  1  1
  4  1  2  0
  4 14  1  0
  9 27  2  0
 23 14  1  0
 23 25  2  0
  1 10  1  0
 14  3  2  0
 15 50  2  0
 52 17  1  0
 10 11  1  0
 10 12  2  0
  3 12  1  0
 11 13  1  0
 11  2  1  0
 50 13  1  0
 50 16  1  0
 17 16  1  0
 17 18  1  0
 16 19  2  0
 18  5  2  0
 19  5  1  0
  5 20  1  0
 20 21  1  0
 20 22  2  0
 21  6  2  0
 22  8  1  0
  6  7  1  0
  8  7  2  0
  1 29  1  0
  2 30  1  0
  2 31  1  0
  2 32  1  0
  3 33  1  0
  4 34  1  0
 52 35  1  0
 52 36  1  0
 52 37  1  0
  6 51  1  0
  7 38  1  0
  8 39  1  0
 11 40  1  1
 12 41  1  0
 13 42  1  0
 19 43  1  0
 21 44  1  0
 22 45  1  0
 26 46  1  0
 28 47  1  0
 28 48  1  0
 28 49  1  0
M  END
