
     RDKit          3D

 66 68  0  0  0  0  0  0  0  0999 V2000
   -6.7605   -0.5553    0.7625 C   0  0  0  0  0  0  0  0  0  0  0  0
   -5.9157    0.2320    1.7647 C   0  0  0  0  0  0  0  0  0  0  0  0
    0.5197    0.9820   -2.2556 C   0  0  0  0  0  0  0  0  0  0  0  0
   -0.4341    2.4055   -0.8334 C   0  0  0  0  0  0  0  0  0  0  0  0
    0.7320    1.8949   -0.2219 C   0  0  0  0  0  0  0  0  0  0  0  0
    1.0527    2.3008    1.0784 C   0  0  0  0  0  0  0  0  0  0  0  0
    0.2159    3.1888    1.7259 C   0  0  0  0  0  0  0  0  0  0  0  0
    4.8284   -1.4118    0.1633 C   0  0  0  0  0  0  0  0  0  0  0  0
    1.0300   -1.6387   -0.1239 C   0  0  0  0  0  0  0  0  0  0  0  0
   -1.3636   -1.5592    0.4250 C   0  0  0  0  0  0  0  0  0  0  0  0
   -2.2231   -0.3908    0.8882 C   0  0  0  0  0  0  0  0  0  0  0  0
   -3.7205   -0.5481    0.6064 C   0  0  2  0  0  0  0  0  0  0  0  0
   -3.9892   -0.5026   -0.9025 C   0  0  0  0  0  0  0  0  0  0  0  0
   -5.3886   -0.9029   -1.3577 C   0  0  0  0  0  0  0  0  0  0  0  0
   -6.5609   -0.1740   -0.7042 C   0  0  0  0  0  0  0  0  0  0  0  0
   -4.4901    0.5693    1.3269 C   0  0  0  0  0  0  0  0  0  0  0  0
    2.3530   -0.9216    0.1233 C   0  0  2  0  0  0  0  0  0  0  0  0
    2.5530    0.1600   -0.9528 C   0  0  0  0  0  0  0  0  0  0  0  0
    1.3290    0.9875   -1.1548 C   0  0  0  0  0  0  0  0  0  0  0  0
   -0.9382    3.6852    1.0983 C   0  0  0  0  0  0  0  0  0  0  0  0
   -1.2780    3.3053   -0.1857 C   0  0  0  0  0  0  0  0  0  0  0  0
    0.0341   -1.2564    0.6688 N   0  0  0  0  0  0  0  0  0  0  0  0
   -0.5291    1.8332   -2.0687 N   0  0  0  0  0  0  0  0  0  0  0  0
    3.4379   -1.9412    0.0611 N   0  0  0  0  0  0  0  0  0  0  0  0
    0.9444   -2.4553   -1.0298 O   0  0  0  0  0  0  0  0  0  0  0  0
    5.8382   -2.5407    0.1883 C   0  0  0  0  0  0  0  0  0  0  0  0
    7.2573   -1.9919    0.2923 C   0  0  0  0  0  0  0  0  0  0  0  0
    8.3050   -3.0947    0.2954 C   0  0  0  0  0  0  0  0  0  0  0  0
   -6.5528   -1.6254    0.8653 H   0  0  0  0  0  0  0  0  0  0  0  0
   -7.8121   -0.4352    1.0363 H   0  0  0  0  0  0  0  0  0  0  0  0
   -6.4220    1.1717    2.0036 H   0  0  0  0  0  0  0  0  0  0  0  0
   -5.8796   -0.3302    2.7025 H   0  0  0  0  0  0  0  0  0  0  0  0
    0.6209    0.4252   -3.1740 H   0  0  0  0  0  0  0  0  0  0  0  0
    1.9428    1.9290    1.5738 H   0  0  0  0  0  0  0  0  0  0  0  0
    0.4499    3.5094    2.7327 H   0  0  0  0  0  0  0  0  0  0  0  0
    4.9918   -0.7610   -0.6921 H   0  0  0  0  0  0  0  0  0  0  0  0
    4.8719   -0.8111    1.0712 H   0  0  0  0  0  0  0  0  0  0  0  0
   -1.6559   -2.4737    0.9496 H   0  0  0  0  0  0  0  0  0  0  0  0
   -1.4858   -1.7483   -0.6411 H   0  0  0  0  0  0  0  0  0  0  0  0
   -2.0774   -0.2635    1.9662 H   0  0  0  0  0  0  0  0  0  0  0  0
   -1.8642    0.5307    0.4189 H   0  0  0  0  0  0  0  0  0  0  0  0
   -4.0406   -1.5214    1.0041 H   0  0  0  0  0  0  0  0  0  0  0  0
   -3.7676    0.5150   -1.2475 H   0  0  0  0  0  0  0  0  0  0  0  0
   -3.2836   -1.1519   -1.4279 H   0  0  0  0  0  0  0  0  0  0  0  0
   -5.4405   -0.7636   -2.4415 H   0  0  0  0  0  0  0  0  0  0  0  0
   -5.5219   -1.9772   -1.1881 H   0  0  0  0  0  0  0  0  0  0  0  0
   -7.4651   -0.4337   -1.2613 H   0  0  0  0  0  0  0  0  0  0  0  0
   -6.4459    0.9105   -0.8099 H   0  0  0  0  0  0  0  0  0  0  0  0
   -4.5007    1.4502    0.6757 H   0  0  0  0  0  0  0  0  0  0  0  0
   -3.9378    0.8801    2.2184 H   0  0  0  0  0  0  0  0  0  0  0  0
    2.3960   -0.4898    1.1240 H   0  0  0  0  0  0  0  0  0  0  0  0
    3.3952    0.7937   -0.6662 H   0  0  0  0  0  0  0  0  0  0  0  0
    2.8263   -0.3230   -1.8945 H   0  0  0  0  0  0  0  0  0  0  0  0
   -1.5754    4.3773    1.6334 H   0  0  0  0  0  0  0  0  0  0  0  0
   -2.1723    3.6832   -0.6647 H   0  0  0  0  0  0  0  0  0  0  0  0
    0.2333   -0.5915    1.4011 H   0  0  0  0  0  0  0  0  0  0  0  0
   -1.2547    2.0063   -2.7438 H   0  0  0  0  0  0  0  0  0  0  0  0
    3.3347   -2.4772   -0.8059 H   0  0  0  0  0  0  0  0  0  0  0  0
    3.2963   -2.6171    0.8147 H   0  0  0  0  0  0  0  0  0  0  0  0
    5.6377   -3.2044    1.0345 H   0  0  0  0  0  0  0  0  0  0  0  0
    5.7416   -3.1419   -0.7206 H   0  0  0  0  0  0  0  0  0  0  0  0
    7.4422   -1.3100   -0.5423 H   0  0  0  0  0  0  0  0  0  0  0  0
    7.3471   -1.3933    1.2028 H   0  0  0  0  0  0  0  0  0  0  0  0
    8.1679   -3.7691    1.1419 H   0  0  0  0  0  0  0  0  0  0  0  0
    8.2523   -3.6915   -0.6165 H   0  0  0  0  0  0  0  0  0  0  0  0
    9.3108   -2.6801    0.3618 H   0  0  0  0  0  0  0  0  0  0  0  0
 27 26  1  0
 27 28  1  0
 26  8  1  0
  8 24  1  0
 24 17  1  0
 18 19  1  0
 18 17  1  0
  3 19  2  0
  3 23  1  0
 19  5  1  0
 17  9  1  0
 25  9  2  0
 23  4  1  0
  5  4  2  0
  5  6  1  0
  9 22  1  0
  4 21  1  0
  6  7  2  0
 21 20  2  0
  7 20  1  0
 13 12  1  0
 13 14  1  0
 22 10  1  0
 11 10  1  0
 11 12  1  0
 12 16  1  0
 14 15  1  0
 16  2  1  0
  1 15  1  0
  1  2  1  0
  1 29  1  0
  1 30  1  0
  2 31  1  0
  2 32  1  0
  3 33  1  0
  6 34  1  0
  7 35  1  0
  8 36  1  0
  8 37  1  0
 10 38  1  0
 10 39  1  0
 11 40  1  0
 11 41  1  0
 12 42  1  1
 13 43  1  0
 13 44  1  0
 14 45  1  0
 14 46  1  0
 15 47  1  0
 15 48  1  0
 16 49  1  0
 16 50  1  0
 17 51  1  1
 18 52  1  0
 18 53  1  0
 20 54  1  0
 21 55  1  0
 22 56  1  0
 23 57  1  0
 24 58  1  0
 24 59  1  0
 26 60  1  0
 26 61  1  0
 27 62  1  0
 27 63  1  0
 28 64  1  0
 28 65  1  0
 28 66  1  0
M  CHG  1  24   1
M  END
