
     RDKit          3D

 15 14  0  0  0  0  0  0  0  0999 V2000
    3.2364    0.7656   -0.0390 C   0  0  0  0  0  0  0  0  0  0  0  0
    2.0249   -0.5726   -0.0527 S   0  0  0  0  0  0  0  0  0  0  0  0
    0.4939    0.4008   -0.0170 C   0  0  0  0  0  0  0  0  0  0  0  0
   -0.6869   -0.5533   -0.0209 C   0  0  0  0  0  0  0  0  0  0  0  0
   -2.0102    0.1628    0.0056 C   0  0  0  0  0  0  0  0  0  0  0  0
   -2.1507    1.3596    0.0196 O   0  0  0  0  0  0  0  0  0  0  0  0
   -3.0267   -0.6919    0.0112 O   0  0  0  0  0  0  0  0  0  0  0  0
    3.1309    1.4014   -0.9168 H   0  0  0  0  0  0  0  0  0  0  0  0
    3.1432    1.3715    0.8612 H   0  0  0  0  0  0  0  0  0  0  0  0
    4.2261    0.3130   -0.0533 H   0  0  0  0  0  0  0  0  0  0  0  0
    0.4865    1.0240    0.8787 H   0  0  0  0  0  0  0  0  0  0  0  0
   -0.6619   -1.1953   -0.9065 H   0  0  0  0  0  0  0  0  0  0  0  0
   -3.8668   -0.2094    0.0274 H   0  0  0  0  0  0  0  0  0  0  0  0
    0.4659    1.0574   -0.8877 H   0  0  0  0  0  0  0  0  0  0  0  0
   -0.6427   -1.2273    0.8397 H   0  0  0  0  0  0  0  0  0  0  0  0
  1  2  1  0
  2  3  1  0
  3  4  1  0
  4  5  1  0
  5  6  2  0
  5  7  1  0
  1  8  1  0
  1  9  1  0
  1 10  1  0
  3 11  1  0
  4 12  1  0
  7 13  1  0
  3 14  1  0
  4 15  1  0
M  END
