
     RDKit          3D

 36 37  0  0  0  0  0  0  0  0999 V2000
   -1.7372    1.7245    0.8914 C   0  0  0  0  0  0  0  0  0  0  0  0
    5.3725   -4.1134   -0.3739 Cl  0  0  0  0  0  0  0  0  0  0  0  0
   -1.3129    1.3621   -0.3809 C   0  0  0  0  0  0  0  0  0  0  0  0
   -2.0645    0.4351   -1.0995 C   0  0  0  0  0  0  0  0  0  0  0  0
   -2.8904    1.1800    1.4455 C   0  0  0  0  0  0  0  0  0  0  0  0
   -3.2151   -0.1239   -0.5638 C   0  0  0  0  0  0  0  0  0  0  0  0
   -3.6165    0.2573    0.7098 C   0  0  0  0  0  0  0  0  0  0  0  0
   -5.3623   -0.5833    1.5366 I   0  0  0  0  0  0  0  0  0  0  0  0
   -0.0439    1.9254   -0.9733 C   0  0  0  0  0  0  0  0  0  0  0  0
    1.0205    0.9415   -0.9981 N   0  0  0  0  0  0  0  0  0  0  0  0
    1.7327    0.6205    0.0917 C   0  0  0  0  0  0  0  0  0  0  0  0
    1.6376    1.2071    1.1581 O   0  0  0  0  0  0  0  0  0  0  0  0
    4.0386   -0.3969    0.1175 C   0  0  0  0  0  0  0  0  0  0  0  0
    2.6610   -0.5407   -0.0931 C   0  0  0  0  0  0  0  0  0  0  0  0
    2.1500   -1.7889   -0.4118 C   0  0  0  0  0  0  0  0  0  0  0  0
    4.8748   -1.5054    0.0290 C   0  0  0  0  0  0  0  0  0  0  0  0
    2.9675   -2.9078   -0.5022 C   0  0  0  0  0  0  0  0  0  0  0  0
    4.3204   -2.7410   -0.2743 C   0  0  0  0  0  0  0  0  0  0  0  0
    5.8543    1.0681    0.4899 C   0  0  0  0  0  0  0  0  0  0  0  0
    6.0652    2.5629    0.5609 C   0  0  0  0  0  0  0  0  0  0  0  0
    5.1852    3.3803    0.5345 O   0  0  0  0  0  0  0  0  0  0  0  0
    7.3545    2.8401    0.6612 O   0  0  0  0  0  0  0  0  0  0  0  0
   -1.1672    2.4444    1.4641 H   0  0  0  0  0  0  0  0  0  0  0  0
   -1.7512    0.1420   -2.0947 H   0  0  0  0  0  0  0  0  0  0  0  0
   -3.2016    1.4774    2.4376 H   0  0  0  0  0  0  0  0  0  0  0  0
   -3.7821   -0.8440   -1.1380 H   0  0  0  0  0  0  0  0  0  0  0  0
   -0.2133    2.2350   -2.0039 H   0  0  0  0  0  0  0  0  0  0  0  0
    0.2760    2.8041   -0.4141 H   0  0  0  0  0  0  0  0  0  0  0  0
    1.1770    0.4367   -1.8553 H   0  0  0  0  0  0  0  0  0  0  0  0
    1.0859   -1.9019   -0.5794 H   0  0  0  0  0  0  0  0  0  0  0  0
    5.9407   -1.4227    0.1894 H   0  0  0  0  0  0  0  0  0  0  0  0
    2.5540   -3.8763   -0.7448 H   0  0  0  0  0  0  0  0  0  0  0  0
    6.2606    0.5836    1.3852 H   0  0  0  0  0  0  0  0  0  0  0  0
    6.4090    0.6786   -0.3721 H   0  0  0  0  0  0  0  0  0  0  0  0
    7.5068    3.7988    0.6840 H   0  0  0  0  0  0  0  0  0  0  0  0
    4.4722    0.8515    0.3589 O   0  0  0  0  0  0  0  0  0  0  0  0
  3  1  2  0
  1  5  1  0
  1 23  1  0
  2 18  1  0
  9  3  1  0
  3  4  1  0
  4  6  2  0
  4 24  1  0
  5  7  2  0
  5 25  1  0
  6  7  1  0
  6 26  1  0
  7  8  1  0
 10  9  1  0
  9 27  1  0
  9 28  1  0
 10 11  1  0
 10 29  1  0
 14 11  1  0
 11 12  2  0
 16 13  2  0
 36 13  1  0
 13 14  1  0
 14 15  2  0
 17 15  1  0
 15 30  1  0
 16 18  1  0
 16 31  1  0
 18 17  2  0
 17 32  1  0
 19 36  1  0
 19 20  1  0
 19 33  1  0
 19 34  1  0
 21 20  2  0
 20 22  1  0
 22 35  1  0
M  END
