
     RDKit          3D

 31 32  0  0  0  0  0  0  0  0999 V2000
    1.1427    0.1941    0.0614 N   0  0  0  0  0  0  0  0  0  0  0  0
   -1.9990    1.7742    0.4454 C   0  0  0  0  0  0  0  0  0  0  0  0
   -0.2880   -3.1141   -0.5452 N   0  0  0  0  0  0  0  0  0  0  0  0
   -0.6334   -2.0184   -0.4314 C   0  0  0  0  0  0  0  0  0  0  0  0
   -1.0989   -0.6888   -0.2663 C   0  0  0  0  0  0  0  0  0  0  0  0
    3.1548   -0.9446   -0.6872 C   0  0  0  0  0  0  0  0  0  0  0  0
    1.8204   -0.3612   -1.1064 C   0  0  0  0  0  0  0  0  0  0  0  0
   -2.4774   -0.4504   -0.3076 C   0  0  0  0  0  0  0  0  0  0  0  0
   -2.9201    0.8160    0.0383 C   0  0  0  0  0  0  0  0  0  0  0  0
   -0.6884    1.5505    0.4365 N   0  0  0  0  0  0  0  0  0  0  0  0
   -0.2175    0.3696    0.0633 C   0  0  0  0  0  0  0  0  0  0  0  0
    3.9589    0.0214   -0.0502 O   0  0  0  0  0  0  0  0  0  0  0  0
    3.3054    0.5608    1.0767 C   0  0  0  0  0  0  0  0  0  0  0  0
    1.9699    1.1913    0.7224 C   0  0  0  0  0  0  0  0  0  0  0  0
    2.9824   -1.8057   -0.0260 H   0  0  0  0  0  0  0  0  0  0  0  0
    3.6955   -1.2953   -1.5670 H   0  0  0  0  0  0  0  0  0  0  0  0
    1.2303   -1.1370   -1.5856 H   0  0  0  0  0  0  0  0  0  0  0  0
    1.9782    0.4301   -1.8515 H   0  0  0  0  0  0  0  0  0  0  0  0
   -3.4261   -2.3330    0.0762 H   0  0  0  0  0  0  0  0  0  0  0  0
   -4.4543   -1.1528   -0.7335 H   0  0  0  0  0  0  0  0  0  0  0  0
   -3.1831   -1.9893   -1.6285 H   0  0  0  0  0  0  0  0  0  0  0  0
   -3.9769    1.0464    0.0251 H   0  0  0  0  0  0  0  0  0  0  0  0
    3.1424   -0.2177    1.8348 H   0  0  0  0  0  0  0  0  0  0  0  0
    3.9637    1.3171    1.5064 H   0  0  0  0  0  0  0  0  0  0  0  0
    2.1179    2.0732    0.0863 H   0  0  0  0  0  0  0  0  0  0  0  0
    1.4874    1.5253    1.6389 H   0  0  0  0  0  0  0  0  0  0  0  0
   -2.2211    3.2397    1.9787 H   0  0  0  0  0  0  0  0  0  0  0  0
   -1.9098    3.9121    0.3872 H   0  0  0  0  0  0  0  0  0  0  0  0
   -3.5118    3.2677    0.7761 H   0  0  0  0  0  0  0  0  0  0  0  0
   -2.4428    3.1223    0.9164 C   0  0  0  0  0  0  0  0  0  0  0  0
   -3.4386   -1.5366   -0.6699 C   0  0  0  0  0  0  0  0  0  0  0  0
 12  6  1  0
 12 13  1  0
  6  7  1  0
 13 14  1  0
  7  1  1  0
 14  1  1  0
  1 11  1  0
 11 10  1  0
 11  5  2  0
 10  2  2  0
  3  4  3  0
  4  5  1  0
  5  8  1  0
  2 30  1  0
  2  9  1  0
  8  9  2  0
  8 31  1  0
  6 15  1  0
  6 16  1  0
  7 17  1  0
  7 18  1  0
 31 19  1  0
 31 20  1  0
 31 21  1  0
  9 22  1  0
 13 23  1  0
 13 24  1  0
 14 25  1  0
 14 26  1  0
 30 27  1  0
 30 28  1  0
 30 29  1  0
M  END
