
     RDKit          3D

 27 27  0  0  0  0  0  0  0  0999 V2000
   -2.9485    0.2803   -2.4725 O   0  0  0  0  0  0  0  0  0  0  0  0
   -1.5505    0.2742   -2.3875 C   0  0  0  0  0  0  0  0  0  0  0  0
   -1.1411    0.3365   -0.9617 C   0  0  1  0  0  0  0  0  0  0  0  0
   -1.7980   -0.7889   -0.2175 O   0  0  0  0  0  0  0  0  0  0  0  0
    0.3782    0.2673   -0.8809 C   0  0  1  0  0  0  0  0  0  0  0  0
    0.9301    1.4561   -1.4782 O   0  0  0  0  0  0  0  0  0  0  0  0
    0.8580    0.1681    0.5208 C   0  0  2  0  0  0  0  0  0  0  0  0
    2.2949   -0.0535    0.5101 O   0  0  0  0  0  0  0  0  0  0  0  0
    3.0253    0.9342    1.1789 C   0  0  0  0  0  0  0  0  0  0  0  0
    0.2020   -0.9550    1.2604 C   0  0  1  0  0  0  0  0  0  0  0  0
    0.5907   -0.8920    2.6353 O   0  0  0  0  0  0  0  0  0  0  0  0
   -1.3244   -0.8856    1.1747 C   0  0  2  0  0  0  0  0  0  0  0  0
   -1.8531   -2.0145    1.7462 O   0  0  0  0  0  0  0  0  0  0  0  0
   -3.2086    0.2992   -3.3802 H   0  0  0  0  0  0  0  0  0  0  0  0
   -1.1524    1.1339   -2.9160 H   0  0  0  0  0  0  0  0  0  0  0  0
   -1.1650   -0.6357   -2.8350 H   0  0  0  0  0  0  0  0  0  0  0  0
   -1.4714    1.2766   -0.5367 H   0  0  0  0  0  0  0  0  0  0  0  0
    0.7198   -0.6011   -1.4311 H   0  0  0  0  0  0  0  0  0  0  0  0
    1.4177    1.2223   -2.2523 H   0  0  0  0  0  0  0  0  0  0  0  0
    0.6431    1.0985    1.0324 H   0  0  0  0  0  0  0  0  0  0  0  0
    4.0213    1.0006    0.7504 H   0  0  0  0  0  0  0  0  0  0  0  0
    3.1006    0.6782    2.2319 H   0  0  0  0  0  0  0  0  0  0  0  0
    2.5215    1.8907    1.0740 H   0  0  0  0  0  0  0  0  0  0  0  0
    0.5347   -1.8952    0.8375 H   0  0  0  0  0  0  0  0  0  0  0  0
    0.7408   -1.7658    2.9604 H   0  0  0  0  0  0  0  0  0  0  0  0
   -1.6663   -0.0153    1.7218 H   0  0  0  0  0  0  0  0  0  0  0  0
   -2.6991   -1.8141    2.1150 H   0  0  0  0  0  0  0  0  0  0  0  0
  9  8  1  0
  8  7  1  0
 11 10  1  0
  7 10  1  0
  7  5  1  0
  6  5  1  0
 10 12  1  0
  5  3  1  0
 12 13  1  0
 12  4  1  0
  3  4  1  0
  3  2  1  0
  1  2  1  0
  1 14  1  0
  2 15  1  0
  2 16  1  0
  3 17  1  1
  5 18  1  6
  6 19  1  0
  7 20  1  1
  9 21  1  0
  9 22  1  0
  9 23  1  0
 10 24  1  6
 11 25  1  0
 12 26  1  1
 13 27  1  0
M  END
