
     RDKit          3D

 64 68  0  0  0  0  0  0  0  0999 V2000
   -8.9165   -1.0449   -0.8945 O   0  0  0  0  0  0  0  0  0  0  0  0
   -7.7849   -0.7623   -0.5243 C   0  0  0  0  0  0  0  0  0  0  0  0
   -6.8599   -1.6920   -0.2308 N   0  0  0  0  0  0  0  0  0  0  0  0
   -5.5623   -1.3883    0.3314 C   0  0  0  0  0  0  0  0  0  0  0  0
   -4.9741   -0.1881   -0.4030 C   0  0  1  0  0  0  0  0  0  0  0  0
   -5.9655    0.9439   -0.2462 C   0  0  0  0  0  0  0  0  0  0  0  0
   -7.3287    0.6442   -0.3491 C   0  0  0  0  0  0  0  0  0  0  0  0
   -8.2805    1.6511   -0.2638 C   0  0  0  0  0  0  0  0  0  0  0  0
   -7.8787    2.9608   -0.0541 C   0  0  0  0  0  0  0  0  0  0  0  0
   -6.5311    3.2539    0.0747 C   0  0  0  0  0  0  0  0  0  0  0  0
   -5.5639    2.2557   -0.0193 C   0  0  0  0  0  0  0  0  0  0  0  0
   -4.1071    2.5686    0.1486 C   0  0  0  0  0  0  0  0  0  0  0  0
   -3.2441    1.4682   -0.4282 C   0  0  0  0  0  0  0  0  0  0  0  0
   -3.6569    0.1721    0.0908 N   0  0  0  0  0  0  0  0  0  0  0  0
   -2.6696   -0.8330   -0.2071 C   0  0  0  0  0  0  0  0  0  0  0  0
   -1.4191   -0.7032    0.6524 C   0  0  0  0  0  0  0  0  0  0  0  0
   -1.3900   -0.0963    1.7083 O   0  0  0  0  0  0  0  0  0  0  0  0
   -0.3639   -1.3647    0.1487 N   0  0  0  0  0  0  0  0  0  0  0  0
    0.8879   -1.5167    0.8448 C   0  0  1  0  0  0  0  0  0  0  0  0
    0.7985   -2.5660    1.9571 C   0  0  0  0  0  0  0  0  0  0  0  0
    1.9312   -1.9435   -0.1909 C   0  0  0  0  0  0  0  0  0  0  0  0
    1.5576   -2.3968   -1.2650 O   0  0  0  0  0  0  0  0  0  0  0  0
    3.2314   -1.8548    0.1445 N   0  0  0  0  0  0  0  0  0  0  0  0
    3.7539   -1.3089    1.3790 C   0  0  0  0  0  0  0  0  0  0  0  0
    5.0017   -0.5134    1.1576 C   0  0  0  0  0  0  0  0  0  0  0  0
    4.2596   -2.3511   -0.7538 C   0  0  0  0  0  0  0  0  0  0  0  0
    5.1726   -1.2196   -1.1901 C   0  0  0  0  0  0  0  0  0  0  0  0
    5.6612   -0.4394    0.0008 C   0  0  0  0  0  0  0  0  0  0  0  0
    6.8739    0.3869   -0.1539 C   0  0  0  0  0  0  0  0  0  0  0  0
    7.7655    0.5801    0.9029 C   0  0  0  0  0  0  0  0  0  0  0  0
    8.8942    1.3703    0.7603 C   0  0  0  0  0  0  0  0  0  0  0  0
    9.1362    1.9687   -0.4613 C   0  0  0  0  0  0  0  0  0  0  0  0
   10.2302    2.7311   -0.6079 F   0  0  0  0  0  0  0  0  0  0  0  0
    8.2883    1.7943   -1.5364 C   0  0  0  0  0  0  0  0  0  0  0  0
    7.1658    0.9980   -1.3744 C   0  0  0  0  0  0  0  0  0  0  0  0
   -7.1450   -2.6572   -0.2802 H   0  0  0  0  0  0  0  0  0  0  0  0
   -5.6237   -1.1697    1.4025 H   0  0  0  0  0  0  0  0  0  0  0  0
   -4.9513   -2.2804    0.2123 H   0  0  0  0  0  0  0  0  0  0  0  0
   -4.9341   -0.4470   -1.4787 H   0  0  0  0  0  0  0  0  0  0  0  0
   -9.3310    1.4085   -0.3510 H   0  0  0  0  0  0  0  0  0  0  0  0
   -8.6151    3.7500    0.0147 H   0  0  0  0  0  0  0  0  0  0  0  0
   -6.2191    4.2765    0.2511 H   0  0  0  0  0  0  0  0  0  0  0  0
   -3.8614    3.5182   -0.3307 H   0  0  0  0  0  0  0  0  0  0  0  0
   -3.8813    2.6867    1.2122 H   0  0  0  0  0  0  0  0  0  0  0  0
   -3.2935    1.4905   -1.5296 H   0  0  0  0  0  0  0  0  0  0  0  0
   -2.2054    1.6491   -0.1552 H   0  0  0  0  0  0  0  0  0  0  0  0
   -3.0639   -1.8283    0.0070 H   0  0  0  0  0  0  0  0  0  0  0  0
   -2.3883   -0.8479   -1.2738 H   0  0  0  0  0  0  0  0  0  0  0  0
   -0.4438   -1.8529   -0.7305 H   0  0  0  0  0  0  0  0  0  0  0  0
    1.1518   -0.5490    1.2767 H   0  0  0  0  0  0  0  0  0  0  0  0
    1.7344   -2.6632    2.5047 H   0  0  0  0  0  0  0  0  0  0  0  0
    0.0283   -2.2872    2.6731 H   0  0  0  0  0  0  0  0  0  0  0  0
    0.5470   -3.5422    1.5433 H   0  0  0  0  0  0  0  0  0  0  0  0
    3.0233   -0.6588    1.8582 H   0  0  0  0  0  0  0  0  0  0  0  0
    3.9606   -2.1118    2.0987 H   0  0  0  0  0  0  0  0  0  0  0  0
    5.3393    0.0389    2.0265 H   0  0  0  0  0  0  0  0  0  0  0  0
    4.8442   -3.1114   -0.2272 H   0  0  0  0  0  0  0  0  0  0  0  0
    3.7954   -2.8288   -1.6102 H   0  0  0  0  0  0  0  0  0  0  0  0
    6.0202   -1.6420   -1.7344 H   0  0  0  0  0  0  0  0  0  0  0  0
    4.6475   -0.5676   -1.8953 H   0  0  0  0  0  0  0  0  0  0  0  0
    7.5939    0.0894    1.8521 H   0  0  0  0  0  0  0  0  0  0  0  0
    9.5803    1.5083    1.5847 H   0  0  0  0  0  0  0  0  0  0  0  0
    8.4954    2.2740   -2.4830 H   0  0  0  0  0  0  0  0  0  0  0  0
    6.5012    0.8699   -2.2185 H   0  0  0  0  0  0  0  0  0  0  0  0
 34 35  2  0
 34 32  1  0
 33 32  1  0
 35 29  1  0
 32 31  2  0
 29 28  1  0
 29 30  2  0
 31 30  1  0
 28 25  2  0
 28 27  1  0
 25 24  1  0
 27 26  1  0
 24 23  1  0
 17 16  2  0
 26 23  1  0
 23 21  1  0
 22 21  2  0
 21 19  1  0
 16 15  1  0
 16 18  1  0
 19 18  1  0
 19 20  1  0
 15 14  1  0
  4  3  1  0
  4  5  1  0
  3  2  1  0
 14  5  1  0
 14 13  1  0
  5  6  1  0
  2  1  2  0
  2  7  1  0
 13 12  1  0
  6  7  2  0
  6 11  1  0
  7  8  1  0
 12 11  1  0
 11 10  2  0
  8  9  2  0
 10  9  1  0
  3 36  1  0
  4 37  1  0
  4 38  1  0
  5 39  1  6
  8 40  1  0
  9 41  1  0
 10 42  1  0
 12 43  1  0
 12 44  1  0
 13 45  1  0
 13 46  1  0
 15 47  1  0
 15 48  1  0
 18 49  1  0
 19 50  1  1
 20 51  1  0
 20 52  1  0
 20 53  1  0
 24 54  1  0
 24 55  1  0
 25 56  1  0
 26 57  1  0
 26 58  1  0
 27 59  1  0
 27 60  1  0
 30 61  1  0
 31 62  1  0
 34 63  1  0
 35 64  1  0
M  END
