
     RDKit          3D

 42 44  0  0  0  0  0  0  0  0999 V2000
   47.4848   39.7209   -5.5219 O   0  0  0  0  0  0  0  0  0  0  0  0
   48.1757   40.3521   -4.5916 C   0  0  0  0  0  0  0  0  0  0  0  0
   48.8720   41.3177   -4.8500 O   0  0  0  0  0  0  0  0  0  0  0  0
   47.9874   39.7501   -3.2684 C   0  0  0  0  0  0  0  0  0  0  0  0
   48.5453   40.0648   -2.0636 C   0  0  0  0  0  0  0  0  0  0  0  0
   48.0288   39.1487   -1.0561 C   0  0  0  0  0  0  0  0  0  0  0  0
   47.1713   38.2922   -1.6301 C   0  0  0  0  0  0  0  0  0  0  0  0
   47.0665   38.5864   -3.0771 C   0  0  0  0  0  0  0  0  0  0  0  0
   49.5354   41.0918   -1.6106 C   0  0  0  0  0  0  0  0  0  0  0  0
   49.9380   41.0652   -0.4616 O   0  0  0  0  0  0  0  0  0  0  0  0
   49.9418   42.0173   -2.5061 N   0  0  0  0  0  0  0  0  0  0  0  0
   50.8798   42.9919   -2.1647 C   0  0  0  0  0  0  0  0  0  0  0  0
   52.1016   43.0538   -2.8192 C   0  0  0  0  0  0  0  0  0  0  0  0
   52.3852   42.1547   -3.7575 F   0  0  0  0  0  0  0  0  0  0  0  0
   53.0302   44.0263   -2.5045 C   0  0  0  0  0  0  0  0  0  0  0  0
   54.1929   44.0358   -3.1533 F   0  0  0  0  0  0  0  0  0  0  0  0
   52.7890   44.9654   -1.5141 C   0  0  0  0  0  0  0  0  0  0  0  0
   51.5669   44.8971   -0.8622 C   0  0  0  0  0  0  0  0  0  0  0  0
   51.2719   45.7930    0.0780 F   0  0  0  0  0  0  0  0  0  0  0  0
   50.6251   43.9398   -1.1832 C   0  0  0  0  0  0  0  0  0  0  0  0
   49.4520   43.9451   -0.5608 F   0  0  0  0  0  0  0  0  0  0  0  0
   53.7919   45.9940   -1.1677 C   0  0  0  0  0  0  0  0  0  0  0  0
   54.1975   46.9177   -2.1261 C   0  0  0  0  0  0  0  0  0  0  0  0
   55.1400   47.8703   -1.7846 C   0  0  0  0  0  0  0  0  0  0  0  0
   55.4962   48.8264   -2.7281 O   0  0  0  0  0  0  0  0  0  0  0  0
   56.5469   48.5643   -3.5166 C   0  0  1  0  0  0  0  0  0  0  0  0
   56.3781   47.4628   -4.2500 F   0  0  0  0  0  0  0  0  0  0  0  0
   56.7005   49.5923   -4.3349 F   0  0  0  0  0  0  0  0  0  0  0  0
   57.6785   48.4002   -2.8295 F   0  0  0  0  0  0  0  0  0  0  0  0
   55.6872   47.9351   -0.5151 C   0  0  0  0  0  0  0  0  0  0  0  0
   55.2768   47.0094    0.4329 C   0  0  0  0  0  0  0  0  0  0  0  0
   54.3377   46.0414    0.1119 C   0  0  0  0  0  0  0  0  0  0  0  0
   47.6232   40.1379   -6.3861 H   0  0  0  0  0  0  0  0  0  0  0  0
   48.3089   39.1774   -0.0147 H   0  0  0  0  0  0  0  0  0  0  0  0
   46.6272   37.5007   -1.1366 H   0  0  0  0  0  0  0  0  0  0  0  0
   46.0374   38.8215   -3.3718 H   0  0  0  0  0  0  0  0  0  0  0  0
   47.3597   37.7244   -3.6874 H   0  0  0  0  0  0  0  0  0  0  0  0
   49.6359   41.9251   -3.4816 H   0  0  0  0  0  0  0  0  0  0  0  0
   53.7628   46.9129   -3.1171 H   0  0  0  0  0  0  0  0  0  0  0  0
   56.4085   48.7011   -0.2632 H   0  0  0  0  0  0  0  0  0  0  0  0
   55.6951   47.0441    1.4294 H   0  0  0  0  0  0  0  0  0  0  0  0
   54.0379   45.3170    0.8575 H   0  0  0  0  0  0  0  0  0  0  0  0
  1  2  1  0
  1 33  1  0
  2  3  2  0
  2  4  1  0
  4  5  2  0
  4  8  1  0
  5  6  1  0
  5  9  1  0
  6  7  2  0
  6 34  1  0
  7  8  1  0
  7 35  1  0
  8 36  1  0
  8 37  1  0
  9 10  2  0
  9 11  1  0
 11 12  1  0
 11 38  1  0
 12 13  2  0
 12 20  1  0
 13 14  1  0
 13 15  1  0
 15 16  1  0
 15 17  2  0
 17 18  1  0
 17 22  1  0
 18 19  1  0
 18 20  2  0
 20 21  1  0
 22 23  2  0
 22 32  1  0
 23 24  1  0
 23 39  1  0
 24 25  1  0
 24 30  2  0
 25 26  1  0
 26 27  1  6
 26 28  1  0
 26 29  1  0
 30 31  1  0
 30 40  1  0
 31 32  2  0
 31 41  1  0
 32 42  1  0
M  END
