
     RDKit          3D

 36 38  0  0  0  0  0  0  0  0999 V2000
    2.5554   -1.1655   -0.0738 C   0  0  0  0  0  0  0  0  0  0  0  0
    2.9574    0.1128    0.3272 C   0  0  0  0  0  0  0  0  0  0  0  0
    1.1292   -1.5407   -0.0949 C   0  0  0  0  0  0  0  0  0  0  0  0
    3.5437   -2.0610   -0.4760 C   0  0  0  0  0  0  0  0  0  0  0  0
    1.6774    1.2240    0.8127 S   0  0  2  0  0  0  0  0  0  0  0  0
    4.2824    0.5027    0.3330 C   0  0  0  0  0  0  0  0  0  0  0  0
    0.1553   -0.5991   -0.1837 C   0  0  0  0  0  0  0  0  0  0  0  0
    0.8241   -2.8296   -0.0176 O   0  0  0  0  0  0  0  0  0  0  0  0
    4.8791   -1.6851   -0.4621 C   0  0  0  0  0  0  0  0  0  0  0  0
    0.5037    0.7785   -0.2735 N   0  0  0  0  0  0  0  0  0  0  0  0
    2.0814    2.5866    0.5300 O   0  0  0  0  0  0  0  0  0  0  0  0
    1.2118    0.8657    2.1359 O   0  0  0  0  0  0  0  0  0  0  0  0
    5.2512   -0.4114   -0.0586 C   0  0  0  0  0  0  0  0  0  0  0  0
   -1.2896   -0.9084   -0.1648 C   0  0  0  0  0  0  0  0  0  0  0  0
    0.5942    1.3340   -1.6295 C   0  0  0  0  0  0  0  0  0  0  0  0
   -2.0662    0.1897    0.0741 N   0  0  0  0  0  0  0  0  0  0  0  0
   -1.7473   -2.0206   -0.3403 O   0  0  0  0  0  0  0  0  0  0  0  0
   -3.4406    0.2121    0.1197 C   0  0  0  0  0  0  0  0  0  0  0  0
   -4.0268    1.3533    0.3647 N   0  0  0  0  0  0  0  0  0  0  0  0
   -4.3860   -0.8321   -0.0614 C   0  0  0  0  0  0  0  0  0  0  0  0
   -5.3657    1.0908    0.3507 O   0  0  0  0  0  0  0  0  0  0  0  0
   -5.5751   -0.2025    0.0982 C   0  0  0  0  0  0  0  0  0  0  0  0
   -6.9742   -0.6804    0.0427 C   0  0  0  0  0  0  0  0  0  0  0  0
    3.2869   -3.0503   -0.8324 H   0  0  0  0  0  0  0  0  0  0  0  0
    4.5637    1.5009    0.6398 H   0  0  0  0  0  0  0  0  0  0  0  0
    1.5644   -3.3486    0.3213 H   0  0  0  0  0  0  0  0  0  0  0  0
    5.6321   -2.3923   -0.7818 H   0  0  0  0  0  0  0  0  0  0  0  0
    6.2933   -0.1235   -0.0555 H   0  0  0  0  0  0  0  0  0  0  0  0
    1.4614    0.9570   -2.1760 H   0  0  0  0  0  0  0  0  0  0  0  0
   -0.3048    1.0388   -2.1655 H   0  0  0  0  0  0  0  0  0  0  0  0
    0.6233    2.4186   -1.5925 H   0  0  0  0  0  0  0  0  0  0  0  0
   -1.5946    1.0642    0.2641 H   0  0  0  0  0  0  0  0  0  0  0  0
   -4.2182   -1.8717   -0.2695 H   0  0  0  0  0  0  0  0  0  0  0  0
   -7.4934   -0.4919    0.9829 H   0  0  0  0  0  0  0  0  0  0  0  0
   -7.5303   -0.1799   -0.7508 H   0  0  0  0  0  0  0  0  0  0  0  0
   -6.9929   -1.7501   -0.1498 H   0  0  0  0  0  0  0  0  0  0  0  0
  4  1  1  0
  2  1  2  0
  1  3  1  0
  6  2  1  0
  2  5  1  0
  3  8  1  0
  3  7  2  0
  9  4  2  0
  4 24  1  0
 12  5  2  0
 11  5  2  0
  5 10  1  6
 13  6  2  0
  6 25  1  0
  7 10  1  0
  7 14  1  0
  8 26  1  0
 13  9  1  0
  9 27  1  0
 10 15  1  0
 13 28  1  0
 16 14  1  0
 14 17  2  0
 15 29  1  0
 15 30  1  0
 15 31  1  0
 16 18  1  0
 16 32  1  0
 19 18  2  0
 18 20  1  0
 19 21  1  0
 20 22  2  0
 20 33  1  0
 21 22  1  0
 22 23  1  0
 23 34  1  0
 23 35  1  0
 23 36  1  0
M  END
