
     RDKit          3D

 54 58  0  0  0  0  0  0  0  0999 V2000
    7.8070   -2.6056    0.8820 N   0  0  0  0  0  0  0  0  0  0  0  0
    6.6556   -2.1272    0.4793 C   0  0  0  0  0  0  0  0  0  0  0  0
    6.7449   -0.7416    0.1727 C   0  0  0  0  0  0  0  0  0  0  0  0
    8.0901   -0.4234    0.4459 C   0  0  0  0  0  0  0  0  0  0  0  0
    8.6694   -1.5829    0.8674 N   0  0  0  0  0  0  0  0  0  0  0  0
    5.8270    0.2428   -0.2852 C   0  0  0  0  0  0  0  0  0  0  0  0
    6.3196    1.5300   -0.4792 C   0  0  0  0  0  0  0  0  0  0  0  0
    7.6820    1.8067   -0.1919 C   0  0  0  0  0  0  0  0  0  0  0  0
    8.5854    0.8738    0.2719 C   0  0  0  0  0  0  0  0  0  0  0  0
    5.4767    2.6430   -1.0200 C   0  0  0  0  0  0  0  0  0  0  0  0
    4.4789   -0.1844   -0.5352 C   0  0  0  0  0  0  0  0  0  0  0  0
    3.3731    0.5116   -0.3434 C   0  0  0  0  0  0  0  0  0  0  0  0
    2.1419    0.0443   -0.5819 N   0  0  0  0  0  0  0  0  0  0  0  0
    1.7309   -1.0774   -1.2468 C   0  0  0  0  0  0  0  0  0  0  0  0
    0.4419   -1.2413   -1.2596 N   0  0  0  0  0  0  0  0  0  0  0  0
   -0.0188   -0.1354   -0.5667 C   0  0  0  0  0  0  0  0  0  0  0  0
    1.0141    0.6733   -0.1532 C   0  0  0  0  0  0  0  0  0  0  0  0
   -1.2841    0.2933   -0.2158 C   0  0  0  0  0  0  0  0  0  0  0  0
   -1.4191    1.4376    0.4609 N   0  0  0  0  0  0  0  0  0  0  0  0
   -0.3391    2.1324    0.7922 C   0  0  0  0  0  0  0  0  0  0  0  0
    0.9157    1.8134    0.5397 N   0  0  0  0  0  0  0  0  0  0  0  0
   -2.3634   -0.5042   -0.5774 N   0  0  0  0  0  0  0  0  0  0  0  0
   -3.7289   -0.3645   -0.3402 C   0  0  0  0  0  0  0  0  0  0  0  0
   -4.6066   -1.4198   -0.7690 C   0  0  0  0  0  0  0  0  0  0  0  0
   -5.9663   -1.3618   -0.5610 C   0  0  0  0  0  0  0  0  0  0  0  0
   -6.5215   -0.2726    0.0835 C   0  0  0  0  0  0  0  0  0  0  0  0
   -5.6809    0.7508    0.5024 C   0  0  0  0  0  0  0  0  0  0  0  0
   -4.3105    0.7236    0.3069 C   0  0  0  0  0  0  0  0  0  0  0  0
   -8.3147   -0.3010    0.3245 P   0  0  1  0  0  0  0  0  0  0  0  0
   -8.5635   -0.1074    2.1310 C   0  0  0  0  0  0  0  0  0  0  0  0
   -8.9207    1.2800   -0.3686 C   0  0  0  0  0  0  0  0  0  0  0  0
   -8.9416   -1.4837   -0.2482 O   0  0  0  0  0  0  0  0  0  0  0  0
    5.8001   -2.7814    0.4231 H   0  0  0  0  0  0  0  0  0  0  0  0
    9.6197   -1.7343    1.1495 H   0  0  0  0  0  0  0  0  0  0  0  0
    8.0457    2.8182   -0.3613 H   0  0  0  0  0  0  0  0  0  0  0  0
    9.6245    1.1359    0.4748 H   0  0  0  0  0  0  0  0  0  0  0  0
    4.9192    3.1380   -0.1962 H   0  0  0  0  0  0  0  0  0  0  0  0
    6.0779    3.4110   -1.5181 H   0  0  0  0  0  0  0  0  0  0  0  0
    4.7512    2.3248   -1.7514 H   0  0  0  0  0  0  0  0  0  0  0  0
    4.3925   -1.1994   -0.8667 H   0  0  0  0  0  0  0  0  0  0  0  0
    3.3427    1.5003    0.0640 H   0  0  0  0  0  0  0  0  0  0  0  0
    2.4201   -1.7483   -1.7033 H   0  0  0  0  0  0  0  0  0  0  0  0
   -0.5216    3.0415    1.3431 H   0  0  0  0  0  0  0  0  0  0  0  0
   -2.0887   -1.3382   -1.0696 H   0  0  0  0  0  0  0  0  0  0  0  0
   -4.1908   -2.2876   -1.2689 H   0  0  0  0  0  0  0  0  0  0  0  0
   -6.6138   -2.1632   -0.8937 H   0  0  0  0  0  0  0  0  0  0  0  0
   -6.0944    1.6179    1.0044 H   0  0  0  0  0  0  0  0  0  0  0  0
   -3.6888    1.5279    0.6493 H   0  0  0  0  0  0  0  0  0  0  0  0
   -8.0518    0.7623    2.5445 H   0  0  0  0  0  0  0  0  0  0  0  0
   -9.6264   -0.0079    2.3570 H   0  0  0  0  0  0  0  0  0  0  0  0
   -8.1808   -0.9981    2.6275 H   0  0  0  0  0  0  0  0  0  0  0  0
   -8.7536    1.2927   -1.4430 H   0  0  0  0  0  0  0  0  0  0  0  0
   -9.9905    1.3554   -0.1794 H   0  0  0  0  0  0  0  0  0  0  0  0
   -8.4323    2.1517    0.0631 H   0  0  0  0  0  0  0  0  0  0  0  0
  1  2  2  0
  1  5  1  0
  2  3  1  0
  3  4  2  0
  3  6  1  0
  4  5  1  0
  4  9  1  0
  6  7  2  0
  6 11  1  0
  7  8  1  0
  7 10  1  0
  8  9  2  0
 11 12  2  0
 12 13  1  0
 13 14  1  0
 13 17  1  0
 14 15  2  0
 15 16  1  0
 16 17  2  0
 16 18  1  0
 17 21  1  0
 18 19  2  0
 18 22  1  0
 19 20  1  0
 20 21  2  0
 22 23  1  0
 23 24  2  0
 23 28  1  0
 24 25  1  0
 25 26  2  0
 26 27  1  0
 26 29  1  0
 27 28  2  0
 29 30  1  1
 29 31  1  0
 29 32  2  0
  2 33  1  0
  5 34  1  0
  8 35  1  0
  9 36  1  0
 10 37  1  0
 10 38  1  0
 10 39  1  0
 11 40  1  0
 12 41  1  0
 14 42  1  0
 20 43  1  0
 22 44  1  0
 24 45  1  0
 25 46  1  0
 27 47  1  0
 28 48  1  0
 30 49  1  0
 30 50  1  0
 30 51  1  0
 31 52  1  0
 31 53  1  0
 31 54  1  0
M  END
