
     RDKit          3D

 38 39  0  0  0  0  0  0  0  0999 V2000
   -1.1974    0.6474    0.1976 C   0  0  0  0  0  0  0  0  0  0  0  0
   -1.7881    1.9011    0.1685 C   0  0  0  0  0  0  0  0  0  0  0  0
   -2.7802    2.1566   -0.7666 C   0  0  0  0  0  0  0  0  0  0  0  0
   -3.6731    4.0581   -0.8359 I   0  0  0  0  0  0  0  0  0  0  0  0
   -3.1804    1.1783   -1.6667 C   0  0  0  0  0  0  0  0  0  0  0  0
   -2.5883   -0.0738   -1.6168 C   0  0  0  0  0  0  0  0  0  0  0  0
   -1.5997   -0.3608   -0.6771 C   0  0  0  0  0  0  0  0  0  0  0  0
   -0.8903   -1.6447   -0.6422 C   0  0  0  0  0  0  0  0  0  0  0  0
   -1.3819   -2.8855   -0.6662 C   0  0  0  0  0  0  0  0  0  0  0  0
   -2.8076   -3.2969   -0.5997 C   0  0  0  0  0  0  0  0  0  0  0  0
   -3.1513   -4.4075   -0.9297 O   0  0  0  0  0  0  0  0  0  0  0  0
   -3.6149   -2.3825   -0.1073 O   0  0  0  0  0  0  0  0  0  0  0  0
   -0.4070   -4.3799   -0.7676 S   0  0  0  0  0  0  0  0  0  0  0  0
    1.5387   -3.7276   -0.6904 S   0  0  0  0  0  0  0  0  0  0  0  0
    1.8447   -3.7215    1.0505 C   0  0  0  0  0  0  0  0  0  0  0  0
    1.7884   -5.0684    1.6859 C   0  0  0  0  0  0  0  0  0  0  0  0
    1.9424   -5.0337    3.0011 O   0  0  0  0  0  0  0  0  0  0  0  0
    1.6169   -6.0834    1.0599 O   0  0  0  0  0  0  0  0  0  0  0  0
    2.1589   -2.6243    1.7613 C   0  0  0  0  0  0  0  0  0  0  0  0
    2.2703   -1.2264    1.3611 C   0  0  0  0  0  0  0  0  0  0  0  0
    1.9971   -0.2719    2.3473 C   0  0  0  0  0  0  0  0  0  0  0  0
    2.0163    1.0835    2.0661 C   0  0  0  0  0  0  0  0  0  0  0  0
    2.3377    1.4992    0.7811 C   0  0  0  0  0  0  0  0  0  0  0  0
    2.3316    3.5467    0.3251 I   0  0  0  0  0  0  0  0  0  0  0  0
    2.6623    0.5778   -0.2048 C   0  0  0  0  0  0  0  0  0  0  0  0
    2.6341   -0.7765    0.0887 C   0  0  0  0  0  0  0  0  0  0  0  0
   -0.4188    0.4553    0.9251 H   0  0  0  0  0  0  0  0  0  0  0  0
   -1.4633    2.6601    0.8669 H   0  0  0  0  0  0  0  0  0  0  0  0
   -3.9394    1.3768   -2.4108 H   0  0  0  0  0  0  0  0  0  0  0  0
   -2.8867   -0.8202   -2.3407 H   0  0  0  0  0  0  0  0  0  0  0  0
    0.1912   -1.5494   -0.6193 H   0  0  0  0  0  0  0  0  0  0  0  0
   -4.5272   -2.7123   -0.0984 H   0  0  0  0  0  0  0  0  0  0  0  0
    1.9134   -5.9336    3.3589 H   0  0  0  0  0  0  0  0  0  0  0  0
    2.3277   -2.7773    2.8218 H   0  0  0  0  0  0  0  0  0  0  0  0
    1.7421   -0.5938    3.3491 H   0  0  0  0  0  0  0  0  0  0  0  0
    1.7804    1.7941    2.8459 H   0  0  0  0  0  0  0  0  0  0  0  0
    2.9442    0.8968   -1.1984 H   0  0  0  0  0  0  0  0  0  0  0  0
    2.9207   -1.4719   -0.6865 H   0  0  0  0  0  0  0  0  0  0  0  0
 24 23  1  0
 22 23  1  0
 22 21  2  0
 23 25  2  0
 21 20  1  0
 25 26  1  0
 20 26  2  0
 20 19  1  0
 19 15  2  0
 18 16  2  0
 15 16  1  0
 15 14  1  0
 16 17  1  0
 14 13  1  0
 11 10  2  0
 10 12  1  0
 10  9  1  0
 13  9  1  0
  9  8  2  0
  2  1  2  0
  2  3  1  0
  1  7  1  0
  4  3  1  0
  3  5  2  0
  8  7  1  0
  7  6  2  0
  5  6  1  0
  1 27  1  0
  2 28  1  0
  5 29  1  0
  6 30  1  0
  8 31  1  0
 12 32  1  0
 17 33  1  0
 19 34  1  0
 21 35  1  0
 22 36  1  0
 25 37  1  0
 26 38  1  0
M  END
