
     RDKit          3D

 57 60  0  0  0  0  0  0  0  0999 V2000
   -6.3097    0.1960   -0.5284 C   0  0  0  0  0  0  0  0  0  0  0  0
   -7.5168   -0.2559    0.3140 C   0  0  0  0  0  0  0  0  0  0  0  0
   -7.2434   -1.7245    0.6314 C   0  0  0  0  0  0  0  0  0  0  0  0
   -5.7326   -1.7573    0.8316 C   0  0  0  0  0  0  0  0  0  0  0  0
   -5.2009   -0.8590   -0.2937 C   0  0  2  0  0  0  0  0  0  0  0  0
   -3.8482   -0.2414    0.0252 C   0  0  1  0  0  0  0  0  0  0  0  0
   -2.7698   -1.2824    0.3059 C   0  0  0  0  0  0  0  0  0  0  0  0
   -3.4404    0.6251   -1.0903 N   0  0  0  0  0  0  0  0  0  0  0  0
   -2.1721    1.6123   -0.7638 S   0  0  2  0  0  0  0  0  0  0  0  0
   -2.5980    2.5883    0.2245 O   0  0  0  0  0  0  0  0  0  0  0  0
   -1.6285    2.0843   -2.0256 O   0  0  0  0  0  0  0  0  0  0  0  0
   -1.0005    0.5391    0.0176 C   0  0  0  0  0  0  0  0  0  0  0  0
    0.2936    1.0083    0.1855 C   0  0  0  0  0  0  0  0  0  0  0  0
   -1.3836   -0.7190    0.4720 C   0  0  0  0  0  0  0  0  0  0  0  0
   -0.4060   -1.4979    1.0874 C   0  0  0  0  0  0  0  0  0  0  0  0
    0.9037   -1.0778    1.2716 C   0  0  0  0  0  0  0  0  0  0  0  0
    1.8743   -1.9974    1.9476 C   0  0  0  0  0  0  0  0  0  0  0  0
    1.2327    0.2062    0.8055 C   0  0  0  0  0  0  0  0  0  0  0  0
    2.8604    0.8873    1.0216 S   0  0  1  0  0  0  0  0  0  0  0  0
    2.8372    2.2451    0.4905 O   0  0  0  0  0  0  0  0  0  0  0  0
    3.2829    0.7076    2.4016 O   0  0  0  0  0  0  0  0  0  0  0  0
    3.7709   -0.1162    0.0797 N   0  0  0  0  0  0  0  0  0  0  0  0
    5.1468   -0.3913    0.4955 C   0  0  0  0  0  0  0  0  0  0  0  0
    5.6418   -1.6075   -0.2633 C   0  0  0  0  0  0  0  0  0  0  0  0
    5.5409   -1.4048   -1.6926 N   0  0  0  0  0  0  0  0  0  0  0  0
    6.1123   -2.5070   -2.4330 C   0  0  0  0  0  0  0  0  0  0  0  0
    4.1660   -1.1591   -2.0696 C   0  0  0  0  0  0  0  0  0  0  0  0
    3.6299    0.0706   -1.3637 C   0  0  0  0  0  0  0  0  0  0  0  0
   -6.5627    0.2517   -1.5874 H   0  0  0  0  0  0  0  0  0  0  0  0
   -5.9758    1.1944   -0.2398 H   0  0  0  0  0  0  0  0  0  0  0  0
   -7.5573    0.3155    1.2443 H   0  0  0  0  0  0  0  0  0  0  0  0
   -8.4679   -0.1001   -0.1968 H   0  0  0  0  0  0  0  0  0  0  0  0
   -7.7973   -2.0879    1.4982 H   0  0  0  0  0  0  0  0  0  0  0  0
   -7.5184   -2.3550   -0.2194 H   0  0  0  0  0  0  0  0  0  0  0  0
   -5.4812   -1.3282    1.8079 H   0  0  0  0  0  0  0  0  0  0  0  0
   -5.3186   -2.7662    0.8025 H   0  0  0  0  0  0  0  0  0  0  0  0
   -5.0909   -1.4735   -1.1952 H   0  0  0  0  0  0  0  0  0  0  0  0
   -3.9701    0.4011    0.9032 H   0  0  0  0  0  0  0  0  0  0  0  0
   -3.0232   -1.8445    1.2057 H   0  0  0  0  0  0  0  0  0  0  0  0
   -2.7464   -2.0107   -0.5133 H   0  0  0  0  0  0  0  0  0  0  0  0
   -3.3049    0.1208   -1.9632 H   0  0  0  0  0  0  0  0  0  0  0  0
    0.5704    1.9893   -0.1775 H   0  0  0  0  0  0  0  0  0  0  0  0
   -0.6854   -2.4823    1.4436 H   0  0  0  0  0  0  0  0  0  0  0  0
    2.7706   -2.1449    1.3466 H   0  0  0  0  0  0  0  0  0  0  0  0
    2.1903   -1.6019    2.9117 H   0  0  0  0  0  0  0  0  0  0  0  0
    1.4169   -2.9693    2.1170 H   0  0  0  0  0  0  0  0  0  0  0  0
    5.8010    0.4649    0.2973 H   0  0  0  0  0  0  0  0  0  0  0  0
    5.1740   -0.6032    1.5618 H   0  0  0  0  0  0  0  0  0  0  0  0
    6.6876   -1.7742    0.0047 H   0  0  0  0  0  0  0  0  0  0  0  0
    5.0748   -2.4953    0.0671 H   0  0  0  0  0  0  0  0  0  0  0  0
    5.6054   -3.4658   -2.2452 H   0  0  0  0  0  0  0  0  0  0  0  0
    6.0578   -2.3044   -3.5035 H   0  0  0  0  0  0  0  0  0  0  0  0
    7.1635   -2.6274   -2.1679 H   0  0  0  0  0  0  0  0  0  0  0  0
    4.1118   -0.9852   -3.1463 H   0  0  0  0  0  0  0  0  0  0  0  0
    3.5129   -2.0197   -1.8442 H   0  0  0  0  0  0  0  0  0  0  0  0
    2.5778    0.1952   -1.6246 H   0  0  0  0  0  0  0  0  0  0  0  0
    4.1714    0.9613   -1.6984 H   0  0  0  0  0  0  0  0  0  0  0  0
  1  2  1  0
  1  5  1  0
  1 29  1  0
  1 30  1  0
  2  3  1  0
  2 31  1  0
  2 32  1  0
  3  4  1  0
  3 33  1  0
  3 34  1  0
  5  4  1  0
  4 35  1  0
  4 36  1  0
  6  5  1  0
  5 37  1  6
  8  6  1  0
  7  6  1  0
  6 38  1  1
 14  7  1  0
  7 39  1  0
  7 40  1  0
  9  8  1  6
  8 41  1  0
 11  9  2  0
 12  9  1  0
  9 10  2  0
 13 12  1  0
 12 14  2  0
 18 13  2  0
 13 42  1  0
 15 14  1  0
 16 15  2  0
 15 43  1  0
 18 16  1  0
 17 16  1  0
 17 44  1  0
 17 45  1  0
 17 46  1  0
 19 18  1  1
 21 19  2  0
 20 19  2  0
 19 22  1  0
 23 22  1  0
 22 28  1  0
 23 24  1  0
 23 47  1  0
 23 48  1  0
 24 25  1  0
 24 49  1  0
 24 50  1  0
 26 25  1  0
 25 27  1  0
 26 51  1  0
 26 52  1  0
 26 53  1  0
 28 27  1  0
 27 54  1  0
 27 55  1  0
 28 56  1  0
 28 57  1  0
M  END
