
     RDKit          3D

 57 59  0  0  0  0  0  0  0  0999 V2000
   -2.3890    0.9215   -1.1703 O   0  0  0  0  0  0  0  0  0  0  0  0
   -3.0103    0.1202   -0.4609 C   0  0  0  0  0  0  0  0  0  0  0  0
   -4.4775    0.0966   -0.4788 C   0  0  0  0  0  0  0  0  0  0  0  0
   -5.1960    0.9786   -1.2978 C   0  0  0  0  0  0  0  0  0  0  0  0
   -6.5716    0.9576   -1.3164 C   0  0  0  0  0  0  0  0  0  0  0  0
   -7.2677    0.0487   -0.5107 C   0  0  0  0  0  0  0  0  0  0  0  0
   -6.5894   -0.8281    0.3041 C   0  0  0  0  0  0  0  0  0  0  0  0
   -5.1911   -0.8040    0.3197 C   0  0  0  0  0  0  0  0  0  0  0  0
   -4.4910   -1.6692    1.1232 N   0  0  0  0  0  0  0  0  0  0  0  0
   -3.1631   -1.6787    1.1682 C   0  0  0  0  0  0  0  0  0  0  0  0
   -2.3805   -0.8345    0.4224 C   0  0  0  0  0  0  0  0  0  0  0  0
   -0.9100   -0.9833    0.5984 C   0  0  0  0  0  0  0  0  0  0  0  0
   -0.4465   -1.7965    1.3880 O   0  0  0  0  0  0  0  0  0  0  0  0
   -0.1498   -0.1634   -0.1569 N   0  0  0  0  0  0  0  0  0  0  0  0
    1.2612   -0.1562   -0.1348 C   0  0  0  0  0  0  0  0  0  0  0  0
    1.9074   -1.3477   -0.4441 C   0  0  0  0  0  0  0  0  0  0  0  0
    3.2894   -1.4501   -0.4766 C   0  0  0  0  0  0  0  0  0  0  0  0
    3.8752   -2.6298   -0.7792 O   0  0  0  0  0  0  0  0  0  0  0  0
    4.0831   -0.3258   -0.2092 C   0  0  0  0  0  0  0  0  0  0  0  0
    5.6128   -0.3636   -0.2498 C   0  0  1  0  0  0  0  0  0  0  0  0
    6.2249    1.0009    0.0839 C   0  0  0  0  0  0  0  0  0  0  0  0
    6.1561   -1.3643    0.7819 C   0  0  0  0  0  0  0  0  0  0  0  0
    6.0976   -0.7391   -1.6586 C   0  0  0  0  0  0  0  0  0  0  0  0
    3.3954    0.8468    0.0876 C   0  0  0  0  0  0  0  0  0  0  0  0
    2.0068    0.9941    0.1507 C   0  0  0  0  0  0  0  0  0  0  0  0
    1.3940    2.3633    0.4776 C   0  0  1  0  0  0  0  0  0  0  0  0
    2.4560    3.3552    0.9732 C   0  0  0  0  0  0  0  0  0  0  0  0
    0.7743    2.9724   -0.7894 C   0  0  0  0  0  0  0  0  0  0  0  0
    0.3365    2.2723    1.5891 C   0  0  0  0  0  0  0  0  0  0  0  0
   -4.6537    1.6801   -1.9170 H   0  0  0  0  0  0  0  0  0  0  0  0
   -7.1177    1.6422   -1.9510 H   0  0  0  0  0  0  0  0  0  0  0  0
   -8.3494    0.0328   -0.5258 H   0  0  0  0  0  0  0  0  0  0  0  0
   -7.1253   -1.5323    0.9278 H   0  0  0  0  0  0  0  0  0  0  0  0
   -2.7239   -2.4052    1.8369 H   0  0  0  0  0  0  0  0  0  0  0  0
   -0.6588    0.4947   -0.7415 H   0  0  0  0  0  0  0  0  0  0  0  0
    1.3097   -2.2198   -0.6847 H   0  0  0  0  0  0  0  0  0  0  0  0
    3.2030   -3.2970   -0.9569 H   0  0  0  0  0  0  0  0  0  0  0  0
    5.9534    1.3492    1.0824 H   0  0  0  0  0  0  0  0  0  0  0  0
    7.3126    0.9206    0.0556 H   0  0  0  0  0  0  0  0  0  0  0  0
    5.9412    1.7715   -0.6356 H   0  0  0  0  0  0  0  0  0  0  0  0
    5.8334   -1.0965    1.7899 H   0  0  0  0  0  0  0  0  0  0  0  0
    5.8391   -2.3859    0.5847 H   0  0  0  0  0  0  0  0  0  0  0  0
    7.2484   -1.3498    0.7695 H   0  0  0  0  0  0  0  0  0  0  0  0
    7.1891   -0.7141   -1.6955 H   0  0  0  0  0  0  0  0  0  0  0  0
    5.7825   -1.7351   -1.9603 H   0  0  0  0  0  0  0  0  0  0  0  0
    5.7265   -0.0265   -2.3980 H   0  0  0  0  0  0  0  0  0  0  0  0
    3.9915    1.7199    0.2898 H   0  0  0  0  0  0  0  0  0  0  0  0
    3.2069    3.5850    0.2161 H   0  0  0  0  0  0  0  0  0  0  0  0
    1.9704    4.2979    1.2301 H   0  0  0  0  0  0  0  0  0  0  0  0
    2.9696    2.9947    1.8668 H   0  0  0  0  0  0  0  0  0  0  0  0
   -0.0784    2.4070   -1.1616 H   0  0  0  0  0  0  0  0  0  0  0  0
    0.4163    3.9843   -0.5865 H   0  0  0  0  0  0  0  0  0  0  0  0
    1.5107    3.0341   -1.5922 H   0  0  0  0  0  0  0  0  0  0  0  0
    0.7287    1.7581    2.4683 H   0  0  0  0  0  0  0  0  0  0  0  0
    0.0416    3.2774    1.8965 H   0  0  0  0  0  0  0  0  0  0  0  0
   -0.5694    1.7603    1.2771 H   0  0  0  0  0  0  0  0  0  0  0  0
   -5.0013   -2.3256    1.6961 H   0  0  0  0  0  0  0  0  0  0  0  0
 20 23  1  6
 18 17  1  0
 20 21  1  0
 20 19  1  0
 20 22  1  0
 13 12  2  0
 17 19  1  0
 17 16  2  0
 19 24  2  0
 16 15  1  0
 10  9  1  0
 10 11  2  0
 12 11  1  0
 12 14  1  0
 24 25  1  0
  9  8  1  0
 15 14  1  0
 15 25  2  0
 11  2  1  0
 25 26  1  0
 26 28  1  6
  8  7  1  0
  8  3  2  0
 26 27  1  0
 26 29  1  0
  2  3  1  0
  2  1  2  0
  7  6  2  0
  3  4  1  0
  6  5  1  0
  4  5  2  0
  4 30  1  0
  5 31  1  0
  6 32  1  0
  7 33  1  0
 10 34  1  0
 14 35  1  0
 16 36  1  0
 18 37  1  0
 21 38  1  0
 21 39  1  0
 21 40  1  0
 22 41  1  0
 22 42  1  0
 22 43  1  0
 23 44  1  0
 23 45  1  0
 23 46  1  0
 24 47  1  0
 27 48  1  0
 27 49  1  0
 27 50  1  0
 28 51  1  0
 28 52  1  0
 28 53  1  0
 29 54  1  0
 29 55  1  0
 29 56  1  0
  9 57  1  0
M  END
