
     RDKit          3D

 22 23  0  0  0  0  0  0  0  0999 V2000
    4.6755   -1.3087   -0.4335 N   0  0  0  0  0  0  0  0  0  0  0  0
   -4.4589   -0.1420   -0.7733 Cl  0  0  0  0  0  0  0  0  0  0  0  0
    2.9949    1.8897    0.2545 C   0  0  0  0  0  0  0  0  0  0  0  0
    3.9923    0.9719   -0.0212 C   0  0  0  0  0  0  0  0  0  0  0  0
    1.6665    1.4980    0.3529 C   0  0  0  0  0  0  0  0  0  0  0  0
    2.3463   -0.7763   -0.1101 C   0  0  0  0  0  0  0  0  0  0  0  0
   -0.4275   -1.5091    0.1098 N   0  0  0  0  0  0  0  0  0  0  0  0
   -1.0823    0.5818    0.5118 N   0  0  0  0  0  0  0  0  0  0  0  0
   -1.7804   -1.4647    0.2744 O   0  0  0  0  0  0  0  0  0  0  0  0
    3.6825   -0.3832   -0.2083 C   0  0  0  0  0  0  0  0  0  0  0  0
    1.3494    0.1550    0.1673 C   0  0  0  0  0  0  0  0  0  0  0  0
   -2.1023   -0.2020    0.5073 C   0  0  0  0  0  0  0  0  0  0  0  0
   -0.0453   -0.2750    0.2610 C   0  0  0  0  0  0  0  0  0  0  0  0
    5.5278   -0.9497   -0.8327 H   0  0  0  0  0  0  0  0  0  0  0  0
    4.3859   -2.1638   -0.8804 H   0  0  0  0  0  0  0  0  0  0  0  0
    3.2563    2.9307    0.3930 H   0  0  0  0  0  0  0  0  0  0  0  0
    5.0228    1.2993   -0.0942 H   0  0  0  0  0  0  0  0  0  0  0  0
    0.8941    2.2239    0.5647 H   0  0  0  0  0  0  0  0  0  0  0  0
    2.0905   -1.8192   -0.2554 H   0  0  0  0  0  0  0  0  0  0  0  0
   -3.6023    1.2011    0.9838 H   0  0  0  0  0  0  0  0  0  0  0  0
   -3.9618   -0.4562    1.5158 H   0  0  0  0  0  0  0  0  0  0  0  0
   -3.5230    0.1495    0.7256 C   0  0  0  0  0  0  0  0  0  0  0  0
  1 10  1  0
  2 22  1  0
  3  4  2  0
  3  5  1  0
  4 10  1  0
  5 11  2  0
  6 10  2  0
  6 11  1  0
 22 12  1  0
  7  9  1  0
  7 13  2  0
  8 12  2  0
  8 13  1  0
  9 12  1  0
 11 13  1  0
  1 14  1  0
  1 15  1  0
  3 16  1  0
  4 17  1  0
  5 18  1  0
  6 19  1  0
 22 20  1  0
 22 21  1  0
M  END
