
     RDKit          3D

 32 33  0  0  0  0  0  0  0  0999 V2000
   -0.0572    0.2191   -0.0566 C   0  0  0  0  0  0  0  0  0  0  0  0
    1.0286    1.0315    0.2500 C   0  0  0  0  0  0  0  0  0  0  0  0
    0.1844   -1.1013   -0.5269 C   0  0  0  0  0  0  0  0  0  0  0  0
    2.6186   -0.6663   -0.3503 C   0  0  0  0  0  0  0  0  0  0  0  0
   -4.0615   -0.2151   -0.1184 C   0  0  0  0  0  0  0  0  0  0  0  0
   -3.2273    0.0984   -1.3573 C   0  0  0  0  0  0  0  0  0  0  0  0
   -3.1699   -0.6478    1.0424 C   0  0  0  0  0  0  0  0  0  0  0  0
   -2.1431    1.1221   -1.0267 C   0  0  0  0  0  0  0  0  0  0  0  0
   -2.1025    0.4101    1.3077 C   0  0  0  0  0  0  0  0  0  0  0  0
    1.5371   -1.4354   -0.6397 N   0  0  0  0  0  0  0  0  0  0  0  0
   -1.3341    0.7719    0.1285 N   0  0  0  0  0  0  0  0  0  0  0  0
    2.3274    0.6023    0.1119 N   0  0  0  0  0  0  0  0  0  0  0  0
    0.8320    2.2674    0.7103 N   0  0  0  0  0  0  0  0  0  0  0  0
   -0.6457   -1.9479   -0.8377 O   0  0  0  0  0  0  0  0  0  0  0  0
    3.7582   -1.0699   -0.4883 O   0  0  0  0  0  0  0  0  0  0  0  0
   -4.6234    0.6793    0.1758 H   0  0  0  0  0  0  0  0  0  0  0  0
   -4.8038   -0.9858   -0.3396 H   0  0  0  0  0  0  0  0  0  0  0  0
   -2.7651   -0.8160   -1.7316 H   0  0  0  0  0  0  0  0  0  0  0  0
   -3.8618    0.4953   -2.1546 H   0  0  0  0  0  0  0  0  0  0  0  0
   -3.7656   -0.7936    1.9479 H   0  0  0  0  0  0  0  0  0  0  0  0
   -2.6931   -1.6017    0.8090 H   0  0  0  0  0  0  0  0  0  0  0  0
   -1.4812    1.2762   -1.8803 H   0  0  0  0  0  0  0  0  0  0  0  0
   -2.6309    2.0872   -0.8308 H   0  0  0  0  0  0  0  0  0  0  0  0
   -2.6022    1.3113    1.6892 H   0  0  0  0  0  0  0  0  0  0  0  0
   -1.4134    0.0824    2.0871 H   0  0  0  0  0  0  0  0  0  0  0  0
    3.3814    1.7814    1.4990 H   0  0  0  0  0  0  0  0  0  0  0  0
    4.3657    0.9782    0.2801 H   0  0  0  0  0  0  0  0  0  0  0  0
    3.4097    2.3841   -0.1765 H   0  0  0  0  0  0  0  0  0  0  0  0
    1.7447   -2.3651   -0.9796 H   0  0  0  0  0  0  0  0  0  0  0  0
   -0.1243    2.5789    0.7634 H   0  0  0  0  0  0  0  0  0  0  0  0
    1.5647    2.9303    0.8855 H   0  0  0  0  0  0  0  0  0  0  0  0
    3.4284    1.4926    0.4499 C   0  0  0  0  0  0  0  0  0  0  0  0
  5  6  1  0
  5  7  1  0
  6  8  1  0
  7  9  1  0
  8 11  1  0
  9 11  1  0
 14  3  2  0
 11  1  1  0
  3  1  1  0
  3 10  1  0
  1  2  2  0
 10  4  1  0
  2 13  1  0
  2 12  1  0
  4 12  1  0
  4 15  2  0
 12 32  1  0
  5 16  1  0
  5 17  1  0
  6 18  1  0
  6 19  1  0
  7 20  1  0
  7 21  1  0
  8 22  1  0
  8 23  1  0
  9 24  1  0
  9 25  1  0
 32 26  1  0
 32 27  1  0
 32 28  1  0
 10 29  1  0
 13 30  1  0
 13 31  1  0
M  END
