
     RDKit          3D

 38 41  0  0  0  0  0  0  0  0999 V2000
    3.7033    1.2849    0.0668 C   0  0  0  0  0  0  0  0  0  0  0  0
    5.0436    1.3918    0.0433 C   0  0  0  0  0  0  0  0  0  0  0  0
    6.6091   -1.7519   -0.1175 C   0  0  0  0  0  0  0  0  0  0  0  0
   -1.0200   -1.6774    0.0222 C   0  0  0  0  0  0  0  0  0  0  0  0
   -2.9564    0.0642    0.0680 C   0  0  0  0  0  0  0  0  0  0  0  0
   -4.3458    0.1459    0.0698 C   0  0  0  0  0  0  0  0  0  0  0  0
    0.0896    0.2462    0.0907 N   0  0  0  0  0  0  0  0  0  0  0  0
   -5.1537   -0.9879    0.0395 C   0  0  0  0  0  0  0  0  0  0  0  0
   -3.2070   -2.3398   -0.0018 C   0  0  0  0  0  0  0  0  0  0  0  0
   -4.5874   -2.2524    0.0031 C   0  0  0  0  0  0  0  0  0  0  0  0
   -2.3906   -1.1957    0.0324 C   0  0  0  0  0  0  0  0  0  0  0  0
    0.1177   -1.0989    0.0441 N   0  0  0  0  0  0  0  0  0  0  0  0
    1.2817    0.7328    0.0901 C   0  0  0  0  0  0  0  0  0  0  0  0
   -1.0898   -3.1772   -0.0230 C   0  0  0  0  0  0  0  0  0  0  0  0
   -0.1758   -3.9657   -0.0447 O   0  0  0  0  0  0  0  0  0  0  0  0
   -2.4275   -3.4737   -0.0336 N   0  0  0  0  0  0  0  0  0  0  0  0
    2.7604   -0.1984    0.0261 S   0  0  0  0  0  0  0  0  0  0  0  0
    5.9858    0.3313   -0.0196 C   0  0  0  0  0  0  0  0  0  0  0  0
    2.8351    2.4729    0.1295 C   0  0  0  0  0  0  0  0  0  0  0  0
    3.1862    3.6282    0.1680 O   0  0  0  0  0  0  0  0  0  0  0  0
    1.5194    2.0619    0.1376 N   0  0  0  0  0  0  0  0  0  0  0  0
    5.5373   -0.9467   -0.0581 O   0  0  0  0  0  0  0  0  0  0  0  0
    7.7548   -1.0215   -0.1180 C   0  0  0  0  0  0  0  0  0  0  0  0
    7.3531    0.3354   -0.0541 C   0  0  0  0  0  0  0  0  0  0  0  0
   -5.1031    1.7277    0.1023 S   0  0  1  0  0  0  0  0  0  0  0  0
   -4.1550    2.7156    0.5775 O   0  0  0  0  0  0  0  0  0  0  0  0
   -5.3098    1.9159   -1.4755 O   0  0  0  0  0  0  0  0  0  0  0  0
   -6.4035    1.6485    0.7383 O   0  0  0  0  0  0  0  0  0  0  0  0
    5.4636    2.3905    0.0740 H   0  0  0  0  0  0  0  0  0  0  0  0
    6.4171   -2.8121   -0.1525 H   0  0  0  0  0  0  0  0  0  0  0  0
   -2.3321    0.9447    0.0976 H   0  0  0  0  0  0  0  0  0  0  0  0
   -6.2312   -0.8960    0.0496 H   0  0  0  0  0  0  0  0  0  0  0  0
   -5.2127   -3.1337   -0.0190 H   0  0  0  0  0  0  0  0  0  0  0  0
   -2.7893   -4.4157   -0.0628 H   0  0  0  0  0  0  0  0  0  0  0  0
    0.7542    2.7238    0.1757 H   0  0  0  0  0  0  0  0  0  0  0  0
    8.7595   -1.4076   -0.1600 H   0  0  0  0  0  0  0  0  0  0  0  0
    7.9856    1.2082   -0.0360 H   0  0  0  0  0  0  0  0  0  0  0  0
   -5.8443    2.7057   -1.6713 H   0  0  0  0  0  0  0  0  0  0  0  0
 10  8  2  0
 10  9  1  0
 16  9  1  0
 16 14  1  0
  8  6  1  0
  9 11  2  0
 15 14  2  0
 14  4  1  0
 26 25  2  0
  6 25  1  0
  6  5  2  0
 11  4  1  0
 11  5  1  0
  4 12  2  0
 25 28  2  0
 25 27  1  6
 12  7  1  0
  7 13  2  0
 13 17  1  0
 13 21  1  0
 17  1  1  0
 21 19  1  0
 22  3  1  0
 22 18  1  0
  3 23  2  0
  1 19  1  0
  1  2  2  0
 19 20  2  0
 18  2  1  0
 18 24  2  0
 23 24  1  0
  2 29  1  0
  3 30  1  0
  5 31  1  0
  8 32  1  0
 10 33  1  0
 16 34  1  0
 21 35  1  0
 23 36  1  0
 24 37  1  0
 27 38  1  0
M  END
