
     RDKit          3D

 57 61  0  0  0  0  0  0  0  0999 V2000
   -4.2924   -2.9561    0.2688 N   0  0  0  0  0  0  0  0  0  0  0  0
    8.0803   -0.0943   -0.1670 N   0  0  0  0  0  0  0  0  0  0  0  0
   -3.0791   -0.8749   -0.2141 C   0  0  0  0  0  0  0  0  0  0  0  0
   -3.2961   -2.0329    0.7549 C   0  0  0  0  0  0  0  0  0  0  0  0
   -4.6587   -3.9666    1.2465 C   0  0  0  0  0  0  0  0  0  0  0  0
   -5.4917   -4.9583    0.4402 C   0  0  0  0  0  0  0  0  0  0  0  0
   -4.9161   -4.8526   -0.9875 C   0  0  0  0  0  0  0  0  0  0  0  0
   -0.8227   -0.0914    0.1253 C   0  0  0  0  0  0  0  0  0  0  0  0
    3.2873   -1.7617   -1.0045 C   0  0  0  0  0  0  0  0  0  0  0  0
    2.9778    0.3079    0.1937 C   0  0  0  0  0  0  0  0  0  0  0  0
    5.2940   -0.4488   -0.3056 C   0  0  0  0  0  0  0  0  0  0  0  0
    7.5312   -1.3036   -0.1421 C   0  0  0  0  0  0  0  0  0  0  0  0
    6.1667   -1.5328   -0.2066 C   0  0  0  0  0  0  0  0  0  0  0  0
   -2.5894    2.6090   -1.0479 C   0  0  0  0  0  0  0  0  0  0  0  0
   -2.5557    5.0229   -0.9420 C   0  0  0  0  0  0  0  0  0  0  0  0
   -2.5343    4.9574    0.4501 C   0  0  0  0  0  0  0  0  0  0  0  0
   -2.5816    3.8488   -1.6754 C   0  0  0  0  0  0  0  0  0  0  0  0
   -2.5689    2.5447    0.3391 C   0  0  0  0  0  0  0  0  0  0  0  0
   -2.5385    3.7186    1.0835 C   0  0  0  0  0  0  0  0  0  0  0  0
   -2.6223    1.2246    1.0747 C   0  0  0  0  0  0  0  0  0  0  0  0
   -2.1359    0.1007    0.3079 N   0  0  0  0  0  0  0  0  0  0  0  0
   -3.8927   -3.7142   -0.9075 C   0  0  0  0  0  0  0  0  0  0  0  0
    0.3331    1.0932    0.7449 S   0  0  0  0  0  0  0  0  0  0  0  0
    1.6141    0.0977    0.1190 C   0  0  0  0  0  0  0  0  0  0  0  0
    1.0578   -1.0287   -0.5124 C   0  0  0  0  0  0  0  0  0  0  0  0
   -0.3061   -1.1077   -0.4954 N   0  0  0  0  0  0  0  0  0  0  0  0
    3.8348   -0.6348   -0.3736 C   0  0  0  0  0  0  0  0  0  0  0  0
    1.9226   -1.9634   -1.0812 C   0  0  0  0  0  0  0  0  0  0  0  0
    7.2521    0.9401   -0.2613 C   0  0  0  0  0  0  0  0  0  0  0  0
    5.8744    0.8195   -0.3344 C   0  0  0  0  0  0  0  0  0  0  0  0
   -2.7104   -1.2312   -1.1758 H   0  0  0  0  0  0  0  0  0  0  0  0
   -4.0258   -0.3645   -0.3966 H   0  0  0  0  0  0  0  0  0  0  0  0
   -3.6389   -1.6282    1.7122 H   0  0  0  0  0  0  0  0  0  0  0  0
   -2.3316   -2.5333    0.9460 H   0  0  0  0  0  0  0  0  0  0  0  0
   -3.7675   -4.4676    1.6621 H   0  0  0  0  0  0  0  0  0  0  0  0
   -5.2038   -3.5234    2.0826 H   0  0  0  0  0  0  0  0  0  0  0  0
   -5.4273   -5.9666    0.8479 H   0  0  0  0  0  0  0  0  0  0  0  0
   -6.5436   -4.6707    0.4531 H   0  0  0  0  0  0  0  0  0  0  0  0
   -4.4437   -5.7785   -1.3141 H   0  0  0  0  0  0  0  0  0  0  0  0
   -5.7018   -4.6262   -1.7082 H   0  0  0  0  0  0  0  0  0  0  0  0
    3.9451   -2.4881   -1.4644 H   0  0  0  0  0  0  0  0  0  0  0  0
    3.3702    1.1770    0.7057 H   0  0  0  0  0  0  0  0  0  0  0  0
    8.2122   -2.1432   -0.0588 H   0  0  0  0  0  0  0  0  0  0  0  0
    5.7979   -2.5490   -0.1588 H   0  0  0  0  0  0  0  0  0  0  0  0
   -2.6029    1.7067   -1.6453 H   0  0  0  0  0  0  0  0  0  0  0  0
   -2.5469    5.9852   -1.4383 H   0  0  0  0  0  0  0  0  0  0  0  0
   -2.4906    5.9495    2.0827 H   0  0  0  0  0  0  0  0  0  0  0  0
   -2.5947    3.9015   -2.7564 H   0  0  0  0  0  0  0  0  0  0  0  0
   -2.5125    3.6668    2.1677 H   0  0  0  0  0  0  0  0  0  0  0  0
   -2.0811    1.3020    2.0239 H   0  0  0  0  0  0  0  0  0  0  0  0
   -3.6559    1.0058    1.3490 H   0  0  0  0  0  0  0  0  0  0  0  0
   -3.8886   -3.0932   -1.8050 H   0  0  0  0  0  0  0  0  0  0  0  0
   -2.8739   -4.1211   -0.7913 H   0  0  0  0  0  0  0  0  0  0  0  0
    1.5214   -2.8370   -1.5780 H   0  0  0  0  0  0  0  0  0  0  0  0
    7.7059    1.9248   -0.2878 H   0  0  0  0  0  0  0  0  0  0  0  0
    5.2693    1.7111   -0.4341 H   0  0  0  0  0  0  0  0  0  0  0  0
   -2.5020    6.1183    1.1340 O   0  0  0  0  0  0  0  0  0  0  0  0
 15 17  1  0
 15 16  2  0
 17 14  2  0
 57 16  1  0
 16 19  1  0
 14 18  1  0
 19 18  2  0
 18 20  1  0
 29  2  2  0
 29 30  1  0
  2 12  1  0
 30 11  2  0
 12 13  2  0
 11 13  1  0
 11 27  1  0
  9 27  2  0
  9 28  1  0
 27 10  1  0
 28 25  2  0
 10 24  2  0
 25 24  1  0
 25 26  1  0
 24 23  1  0
 26  8  2  0
 20 21  1  0
 23  8  1  0
  8 21  1  0
 21  3  1  0
  3  4  1  0
  4  1  1  0
  1  5  1  0
  1 22  1  0
  5  6  1  0
  6  7  1  0
 22  7  1  0
  3 31  1  0
  3 32  1  0
  4 33  1  0
  4 34  1  0
  5 35  1  0
  5 36  1  0
  6 37  1  0
  6 38  1  0
  7 39  1  0
  7 40  1  0
  9 41  1  0
 10 42  1  0
 12 43  1  0
 13 44  1  0
 14 45  1  0
 15 46  1  0
 57 47  1  0
 17 48  1  0
 19 49  1  0
 20 50  1  0
 20 51  1  0
 22 52  1  0
 22 53  1  0
 28 54  1  0
 29 55  1  0
 30 56  1  0
M  END
