
     RDKit          3D

 17 17  0  0  0  0  0  0  0  0999 V2000
    2.9516   -0.1922    0.1248 O   0  0  0  0  0  0  0  0  0  0  0  0
    1.6128    0.0123    0.0652 C   0  0  0  0  0  0  0  0  0  0  0  0
    1.1497    1.3190   -0.0008 C   0  0  0  0  0  0  0  0  0  0  0  0
   -0.2152    1.5643   -0.0621 C   0  0  0  0  0  0  0  0  0  0  0  0
    0.6938   -1.0337    0.0681 C   0  0  0  0  0  0  0  0  0  0  0  0
   -0.6760   -0.8033    0.0069 C   0  0  0  0  0  0  0  0  0  0  0  0
   -1.1283    0.5175   -0.0588 C   0  0  0  0  0  0  0  0  0  0  0  0
   -2.4684    0.7169   -0.1175 O   0  0  0  0  0  0  0  0  0  0  0  0
   -1.6518   -1.9427    0.0108 C   0  0  0  0  0  0  0  0  0  0  0  0
    3.1396   -1.1352    0.1760 H   0  0  0  0  0  0  0  0  0  0  0  0
    1.8489    2.1455   -0.0037 H   0  0  0  0  0  0  0  0  0  0  0  0
   -0.5657    2.5895   -0.1135 H   0  0  0  0  0  0  0  0  0  0  0  0
    1.0478   -2.0587    0.1210 H   0  0  0  0  0  0  0  0  0  0  0  0
   -2.6601    1.6593   -0.1681 H   0  0  0  0  0  0  0  0  0  0  0  0
   -2.3279   -1.8903    0.8658 H   0  0  0  0  0  0  0  0  0  0  0  0
   -2.2726   -1.9439   -0.8868 H   0  0  0  0  0  0  0  0  0  0  0  0
   -1.1336   -2.8993    0.0561 H   0  0  0  0  0  0  0  0  0  0  0  0
  1  2  1  0
  2  3  2  0
  2  5  1  0
  3  4  1  0
  5  6  2  0
  4  7  2  0
  6  7  1  0
  6  9  1  0
  7  8  1  0
  1 10  1  0
  3 11  1  0
  4 12  1  0
  5 13  1  0
  8 14  1  0
  9 15  1  0
  9 16  1  0
  9 17  1  0
M  END
