
     RDKit          3D

 53 55  0  0  0  0  0  0  0  0999 V2000
    4.9126   -0.2632    0.5722 C   0  0  0  0  0  0  0  0  0  0  0  0
    5.2049   -1.5900    0.9057 C   0  0  0  0  0  0  0  0  0  0  0  0
    6.4664   -2.1096    0.6820 C   0  0  0  0  0  0  0  0  0  0  0  0
    9.6770    0.3890   -0.7558 C   0  0  0  0  0  0  0  0  0  0  0  0
    7.4637   -1.3192    0.1252 C   0  0  0  0  0  0  0  0  0  0  0  0
    7.1973    0.0021   -0.2191 C   0  0  0  0  0  0  0  0  0  0  0  0
    5.9140    0.5126    0.0120 C   0  0  0  0  0  0  0  0  0  0  0  0
    1.2359   -0.6229    0.3624 C   0  0  0  0  0  0  0  0  0  0  0  0
    3.5186    0.2871    0.8729 C   0  0  1  0  0  0  0  0  0  0  0  0
    3.3525    0.3150    2.3988 C   0  0  0  0  0  0  0  0  0  0  0  0
    3.3057    1.6926    0.3098 C   0  0  0  0  0  0  0  0  0  0  0  0
   -0.7508   -1.7933   -0.5668 C   0  0  0  0  0  0  0  0  0  0  0  0
   -1.7491   -0.9303   -0.1170 C   0  0  0  0  0  0  0  0  0  0  0  0
   -3.0977   -1.2211   -0.3224 C   0  0  0  0  0  0  0  0  0  0  0  0
   -3.4566   -2.3921   -0.9859 C   0  0  0  0  0  0  0  0  0  0  0  0
   -2.4700   -3.2530   -1.4410 C   0  0  0  0  0  0  0  0  0  0  0  0
   -1.1373   -2.9588   -1.2355 C   0  0  0  0  0  0  0  0  0  0  0  0
   -4.0924   -0.2685    0.1815 C   0  0  0  0  0  0  0  0  0  0  0  0
   -5.3616    1.2991    1.5249 C   0  0  0  0  0  0  0  0  0  0  0  0
   -5.8154    1.0699    0.2654 C   0  0  0  0  0  0  0  0  0  0  0  0
   -7.0128    1.7056   -0.3511 C   0  0  1  0  0  0  0  0  0  0  0  0
   -6.6899    2.4029   -1.4465 F   0  0  0  0  0  0  0  0  0  0  0  0
   -7.9145    0.7929   -0.7279 F   0  0  0  0  0  0  0  0  0  0  0  0
   -7.6143    2.5422    0.4969 F   0  0  0  0  0  0  0  0  0  0  0  0
    7.8479    1.9089   -1.4044 N   0  0  0  0  0  0  0  0  0  0  0  0
    2.5853   -0.6598    0.2482 N   0  0  0  0  0  0  0  0  0  0  0  0
    0.6096   -1.5611   -0.4330 N   0  0  0  0  0  0  0  0  0  0  0  0
   -5.1020    0.1909   -0.4834 N   0  0  0  0  0  0  0  0  0  0  0  0
    8.8383    2.6561   -1.9653 O   0  0  0  0  0  0  0  0  0  0  0  0
    0.6201    0.1364    1.0936 O   0  0  0  0  0  0  0  0  0  0  0  0
   -3.9688    0.3563    1.7931 S   0  0  0  0  0  0  0  0  0  0  0  0
   -5.1107   -2.8390   -1.2125 Cl  0  0  0  0  0  0  0  0  0  0  0  0
    4.4426   -2.2203    1.3470 H   0  0  0  0  0  0  0  0  0  0  0  0
    6.6802   -3.1374    0.9442 H   0  0  0  0  0  0  0  0  0  0  0  0
    9.8553   -0.4355   -1.4495 H   0  0  0  0  0  0  0  0  0  0  0  0
   10.3777    1.1819   -1.0000 H   0  0  0  0  0  0  0  0  0  0  0  0
    9.9096    0.0239    0.2438 H   0  0  0  0  0  0  0  0  0  0  0  0
    8.4419   -1.7485   -0.0446 H   0  0  0  0  0  0  0  0  0  0  0  0
    5.7224    1.5409   -0.2572 H   0  0  0  0  0  0  0  0  0  0  0  0
    2.3987    0.7473    2.6895 H   0  0  0  0  0  0  0  0  0  0  0  0
    3.4203   -0.6872    2.8215 H   0  0  0  0  0  0  0  0  0  0  0  0
    4.1474    0.9200    2.8357 H   0  0  0  0  0  0  0  0  0  0  0  0
    3.4574    1.7220   -0.7700 H   0  0  0  0  0  0  0  0  0  0  0  0
    2.2910    2.0267    0.5182 H   0  0  0  0  0  0  0  0  0  0  0  0
    3.9835    2.4114    0.7713 H   0  0  0  0  0  0  0  0  0  0  0  0
   -1.4852   -0.0078    0.3749 H   0  0  0  0  0  0  0  0  0  0  0  0
   -2.7420   -4.1664   -1.9516 H   0  0  0  0  0  0  0  0  0  0  0  0
   -0.3853   -3.6485   -1.5996 H   0  0  0  0  0  0  0  0  0  0  0  0
   -5.7615    1.9493    2.2868 H   0  0  0  0  0  0  0  0  0  0  0  0
    2.9680   -1.1950   -0.5158 H   0  0  0  0  0  0  0  0  0  0  0  0
    1.1975   -2.2268   -0.9108 H   0  0  0  0  0  0  0  0  0  0  0  0
    8.3753    3.4140   -2.3373 H   0  0  0  0  0  0  0  0  0  0  0  0
    8.2511    0.8433   -0.8330 C   0  0  0  0  0  0  0  0  0  0  0  0
 32 15  1  0
 31 19  1  0
 31 18  1  0
 15 16  2  0
 15 14  1  0
 16 17  1  0
 19 20  2  0
 18 14  1  0
 18 28  2  0
 14 13  2  0
 20 28  1  0
 20 21  1  0
 21 24  1  1
 17 12  2  0
 23 21  1  0
 21 22  1  0
 13 12  1  0
 12 27  1  0
 27  8  1  0
  8 30  2  0
  8 26  1  0
  9 26  1  6
 10  9  1  0
  9 11  1  0
  9  1  1  0
 29 25  1  0
 25 53  2  0
  7  1  1  0
  7  6  2  0
  1  2  2  0
 53  6  1  0
 53  4  1  0
  6  5  1  0
  2  3  1  0
  5  3  2  0
  2 33  1  0
  3 34  1  0
  4 35  1  0
  4 36  1  0
  4 37  1  0
  5 38  1  0
  7 39  1  0
 10 40  1  0
 10 41  1  0
 10 42  1  0
 11 43  1  0
 11 44  1  0
 11 45  1  0
 13 46  1  0
 16 47  1  0
 17 48  1  0
 19 49  1  0
 26 50  1  0
 27 51  1  0
 29 52  1  0
M  END
