
     RDKit          3D

 25 26  0  0  0  0  0  0  0  0999 V2000
    2.9213   -0.8939   -0.5063 O   0  0  0  0  0  0  0  0  0  0  0  0
   -0.9655    1.5485   -0.2722 C   0  0  0  0  0  0  0  0  0  0  0  0
   -2.1923    2.1403   -0.1482 C   0  0  0  0  0  0  0  0  0  0  0  0
   -3.2629    0.1737    0.2019 C   0  0  0  0  0  0  0  0  0  0  0  0
   -3.3390    1.4702    0.0886 N   0  0  0  0  0  0  0  0  0  0  0  0
    2.2206    1.0250    0.9153 N   0  0  0  0  0  0  0  0  0  0  0  0
    0.3199   -1.9819   -0.0771 C   0  0  0  0  0  0  0  0  0  0  0  0
   -0.8896   -2.6651    0.1479 C   0  0  0  0  0  0  0  0  0  0  0  0
   -2.0581   -1.9660    0.2397 C   0  0  0  0  0  0  0  0  0  0  0  0
    1.8356    1.1207   -1.5371 O   0  0  0  0  0  0  0  0  0  0  0  0
   -2.0591   -0.5615    0.0997 C   0  0  0  0  0  0  0  0  0  0  0  0
   -0.8557    0.1451   -0.1434 C   0  0  0  0  0  0  0  0  0  0  0  0
    0.3429   -0.6190   -0.2217 C   0  0  0  0  0  0  0  0  0  0  0  0
    2.2657    0.3246    2.1918 C   0  0  0  0  0  0  0  0  0  0  0  0
    1.9262    0.1625   -0.4482 S   0  0  1  0  0  0  0  0  0  0  0  0
   -2.2818    3.2155   -0.2449 H   0  0  0  0  0  0  0  0  0  0  0  0
   -4.1864   -0.3666    0.3897 H   0  0  0  0  0  0  0  0  0  0  0  0
    1.7313    1.9120    0.9375 H   0  0  0  0  0  0  0  0  0  0  0  0
    1.2352   -2.5541   -0.1336 H   0  0  0  0  0  0  0  0  0  0  0  0
   -0.8770   -3.7407    0.2523 H   0  0  0  0  0  0  0  0  0  0  0  0
   -2.9947   -2.4773    0.4243 H   0  0  0  0  0  0  0  0  0  0  0  0
    1.3002   -0.0898    2.4915 H   0  0  0  0  0  0  0  0  0  0  0  0
    3.0005   -0.4752    2.1527 H   0  0  0  0  0  0  0  0  0  0  0  0
    2.5842    1.0384    2.9468 H   0  0  0  0  0  0  0  0  0  0  0  0
   -0.1162    2.1777   -0.4896 H   0  0  0  0  0  0  0  0  0  0  0  0
 10 15  2  0
  1 15  2  0
 15  6  1  1
 15 13  1  0
  7 13  2  0
  7  8  1  0
  6 14  1  0
 13 12  1  0
  8  9  2  0
 12  2  2  0
 12 11  1  0
  2  3  1  0
  9 11  1  0
 11  4  2  0
  3  5  2  0
  4  5  1  0
  2 25  1  0
  3 16  1  0
  4 17  1  0
  6 18  1  0
  7 19  1  0
  8 20  1  0
  9 21  1  0
 14 22  1  0
 14 23  1  0
 14 24  1  0
M  END
