
     RDKit          3D

120123  0  0  0  0  0  0  0  0999 V2000
   -3.2146   -1.8176   -0.3565 C   0  0  2  0  0  0  0  0  0  0  0  0
   -4.5835   -1.6759    0.3013 C   0  0  0  0  0  0  0  0  0  0  0  0
   -0.2460   -0.5290    1.0703 O   0  0  0  0  0  0  0  0  0  0  0  0
   -1.0590    1.6306    0.7566 O   0  0  0  0  0  0  0  0  0  0  0  0
    2.1101    0.3859    2.1231 N   0  0  0  0  0  0  0  0  0  0  0  0
   -0.9919   -1.1604    0.0894 C   0  0  1  0  0  0  0  0  0  0  0  0
    0.0655    0.8229    0.8558 C   0  0  1  0  0  0  0  0  0  0  0  0
   -1.8744    1.7210    1.9185 C   0  0  2  0  0  0  0  0  0  0  0  0
   -3.0250    2.6446    1.5845 C   0  0  0  0  0  0  0  0  0  0  0  0
   -8.6519    2.6245   -0.1390 C   0  0  0  0  0  0  0  0  0  0  0  0
   -8.1954    3.8532   -0.5367 N   0  0  0  0  0  0  0  0  0  0  0  0
   -7.0359    4.1532   -1.2349 C   0  0  0  0  0  0  0  0  0  0  0  0
   -6.7632    5.3032   -1.5199 O   0  0  0  0  0  0  0  0  0  0  0  0
   -6.2431    2.9899   -1.5546 C   0  0  0  0  0  0  0  0  0  0  0  0
   -6.6748    1.7741   -1.1834 C   0  0  0  0  0  0  0  0  0  0  0  0
   -7.8379    1.5650   -0.4999 N   0  0  0  0  0  0  0  0  0  0  0  0
   -8.2301    0.2117   -0.1388 C   0  0  2  0  0  0  0  0  0  0  0  0
   -7.1678   -0.4151    0.5236 O   0  0  0  0  0  0  0  0  0  0  0  0
   -8.5481   -0.6847   -1.3300 C   0  0  2  0  0  0  0  0  0  0  0  0
   -9.8457   -0.4359   -1.7788 O   0  0  0  0  0  0  0  0  0  0  0  0
   -8.3222   -2.0648   -0.7089 C   0  0  2  0  0  0  0  0  0  0  0  0
   -9.3977   -2.4185    0.1247 O   0  0  0  0  0  0  0  0  0  0  0  0
   -7.0980   -1.8007    0.1639 C   0  0  1  0  0  0  0  0  0  0  0  0
   -5.7715   -2.1198   -0.5417 C   0  0  2  0  0  0  0  0  0  0  0  0
   -5.7620   -3.4989   -0.8401 O   0  0  0  0  0  0  0  0  0  0  0  0
   -2.7929   -3.2395   -0.7123 C   0  0  2  0  0  0  0  0  0  0  0  0
   -2.9882   -4.0637    0.4113 O   0  0  0  0  0  0  0  0  0  0  0  0
   -1.3301   -3.2638   -1.1687 C   0  0  2  0  0  0  0  0  0  0  0  0
   -0.8729   -4.5865   -1.3173 O   0  0  0  0  0  0  0  0  0  0  0  0
   -0.4189   -2.5555   -0.1708 C   0  0  1  0  0  0  0  0  0  0  0  0
    0.9715    1.2577    2.0074 C   0  0  1  0  0  0  0  0  0  0  0  0
    3.3795    0.8244    2.2165 C   0  0  0  0  0  0  0  0  0  0  0  0
    3.6913    2.0062    2.1605 O   0  0  0  0  0  0  0  0  0  0  0  0
    4.4177   -0.2558    2.3855 C   0  0  0  0  0  0  0  0  0  0  0  0
    0.1752    1.3467    3.3071 C   0  0  1  0  0  0  0  0  0  0  0  0
    1.0274    1.8557    4.2988 O   0  0  0  0  0  0  0  0  0  0  0  0
   -1.0416    2.2412    3.0938 C   0  0  2  0  0  0  0  0  0  0  0  0
   -1.7811    2.2365    4.2958 O   0  0  0  0  0  0  0  0  0  0  0  0
   -3.7946    2.0692    0.5563 O   0  0  0  0  0  0  0  0  0  0  0  0
   -2.2974   -1.2641    0.5689 O   0  0  0  0  0  0  0  0  0  0  0  0
    0.9226   -2.4851   -0.6874 N   0  0  0  0  0  0  0  0  0  0  0  0
    2.0394   -2.6855    0.0392 C   0  0  0  0  0  0  0  0  0  0  0  0
    2.0275   -2.8821    1.2507 O   0  0  0  0  0  0  0  0  0  0  0  0
    3.2825   -2.6712   -0.7663 C   0  0  0  0  0  0  0  0  0  0  0  0
    4.4771   -2.9042   -0.2266 C   0  0  0  0  0  0  0  0  0  0  0  0
    5.7643   -2.9136   -0.9767 C   0  0  0  0  0  0  0  0  0  0  0  0
    6.6619   -1.7363   -0.5878 C   0  0  0  0  0  0  0  0  0  0  0  0
    8.0453   -1.8195   -1.2204 C   0  0  0  0  0  0  0  0  0  0  0  0
    8.9085   -0.6008   -0.9203 C   0  0  0  0  0  0  0  0  0  0  0  0
   10.3313   -0.7263   -1.4503 C   0  0  0  0  0  0  0  0  0  0  0  0
   11.1843    0.5065   -1.1790 C   0  0  0  0  0  0  0  0  0  0  0  0
   12.6273    0.3537   -1.6425 C   0  0  0  0  0  0  0  0  0  0  0  0
   13.4839    1.5844   -1.3699 C   0  0  0  0  0  0  0  0  0  0  0  0
   14.9302    1.4032   -1.8142 C   0  0  0  0  0  0  0  0  0  0  0  0
   15.8256    2.6295   -1.6292 C   0  0  1  0  0  0  0  0  0  0  0  0
   15.9759    3.0207   -0.1619 C   0  0  0  0  0  0  0  0  0  0  0  0
   17.1957    2.3806   -2.2524 C   0  0  0  0  0  0  0  0  0  0  0  0
   -3.2041   -1.2281   -1.2866 H   0  0  0  0  0  0  0  0  0  0  0  0
   -4.5925   -2.2188    1.2524 H   0  0  0  0  0  0  0  0  0  0  0  0
   -4.7014   -0.6183    0.5453 H   0  0  0  0  0  0  0  0  0  0  0  0
    1.9388   -0.6081    2.1732 H   0  0  0  0  0  0  0  0  0  0  0  0
   -0.9740   -0.5836   -0.8532 H   0  0  0  0  0  0  0  0  0  0  0  0
    0.5942    0.9375   -0.0976 H   0  0  0  0  0  0  0  0  0  0  0  0
   -2.2818    0.7361    2.1768 H   0  0  0  0  0  0  0  0  0  0  0  0
   -3.6198    2.7916    2.4938 H   0  0  0  0  0  0  0  0  0  0  0  0
   -2.6282    3.6282    1.2953 H   0  0  0  0  0  0  0  0  0  0  0  0
   -5.3225    3.1029   -2.1063 H   0  0  0  0  0  0  0  0  0  0  0  0
   -6.0952    0.8921   -1.4139 H   0  0  0  0  0  0  0  0  0  0  0  0
   -7.8069   -0.5283   -2.1258 H   0  0  0  0  0  0  0  0  0  0  0  0
   -9.9388   -0.7813   -2.6723 H   0  0  0  0  0  0  0  0  0  0  0  0
   -8.1324   -2.8316   -1.4679 H   0  0  0  0  0  0  0  0  0  0  0  0
  -10.2147   -2.2656   -0.3643 H   0  0  0  0  0  0  0  0  0  0  0  0
   -7.1467   -2.4011    1.0799 H   0  0  0  0  0  0  0  0  0  0  0  0
   -5.7447   -1.5983   -1.5071 H   0  0  0  0  0  0  0  0  0  0  0  0
   -5.3886   -3.9762   -0.0901 H   0  0  0  0  0  0  0  0  0  0  0  0
   -3.3992   -3.5764   -1.5636 H   0  0  0  0  0  0  0  0  0  0  0  0
   -2.5800   -4.9164    0.2225 H   0  0  0  0  0  0  0  0  0  0  0  0
   -1.2797   -2.7216   -2.1255 H   0  0  0  0  0  0  0  0  0  0  0  0
   -1.2498   -4.9541   -2.1237 H   0  0  0  0  0  0  0  0  0  0  0  0
   -0.4033   -3.1072    0.7723 H   0  0  0  0  0  0  0  0  0  0  0  0
    1.3440    2.2547    1.7614 H   0  0  0  0  0  0  0  0  0  0  0  0
    5.1300   -0.2026    1.5627 H   0  0  0  0  0  0  0  0  0  0  0  0
    4.9726   -0.0820    3.3073 H   0  0  0  0  0  0  0  0  0  0  0  0
    4.0018   -1.2603    2.4162 H   0  0  0  0  0  0  0  0  0  0  0  0
   -0.1815    0.3409    3.5788 H   0  0  0  0  0  0  0  0  0  0  0  0
    0.5270    1.8994    5.1205 H   0  0  0  0  0  0  0  0  0  0  0  0
   -0.6825    3.2535    2.8564 H   0  0  0  0  0  0  0  0  0  0  0  0
   -2.2293    3.0809    4.3948 H   0  0  0  0  0  0  0  0  0  0  0  0
   -4.5551    2.6359    0.3996 H   0  0  0  0  0  0  0  0  0  0  0  0
    1.0295   -2.3384   -1.6794 H   0  0  0  0  0  0  0  0  0  0  0  0
    3.1942   -2.4867   -1.8327 H   0  0  0  0  0  0  0  0  0  0  0  0
    4.5424   -3.0903    0.8417 H   0  0  0  0  0  0  0  0  0  0  0  0
    6.2912   -3.8473   -0.7550 H   0  0  0  0  0  0  0  0  0  0  0  0
    5.5798   -2.8966   -2.0536 H   0  0  0  0  0  0  0  0  0  0  0  0
    6.1729   -0.8033   -0.8848 H   0  0  0  0  0  0  0  0  0  0  0  0
    6.7677   -1.6978    0.5011 H   0  0  0  0  0  0  0  0  0  0  0  0
    8.5491   -2.7224   -0.8591 H   0  0  0  0  0  0  0  0  0  0  0  0
    7.9469   -1.9389   -2.3046 H   0  0  0  0  0  0  0  0  0  0  0  0
    8.4359    0.2908   -1.3466 H   0  0  0  0  0  0  0  0  0  0  0  0
    8.9415   -0.4357    0.1624 H   0  0  0  0  0  0  0  0  0  0  0  0
   10.8080   -1.6028   -0.9972 H   0  0  0  0  0  0  0  0  0  0  0  0
   10.3052   -0.9210   -2.5281 H   0  0  0  0  0  0  0  0  0  0  0  0
   10.7329    1.3761   -1.6693 H   0  0  0  0  0  0  0  0  0  0  0  0
   11.1713    0.7262   -0.1054 H   0  0  0  0  0  0  0  0  0  0  0  0
   13.0755   -0.5144   -1.1461 H   0  0  0  0  0  0  0  0  0  0  0  0
   12.6450    0.1288   -2.7148 H   0  0  0  0  0  0  0  0  0  0  0  0
   13.0514    2.4503   -1.8842 H   0  0  0  0  0  0  0  0  0  0  0  0
   13.4421    1.8163   -0.3010 H   0  0  0  0  0  0  0  0  0  0  0  0
   15.3724    0.5553   -1.2763 H   0  0  0  0  0  0  0  0  0  0  0  0
   14.9380    1.1219   -2.8734 H   0  0  0  0  0  0  0  0  0  0  0  0
   15.3588    3.4683   -2.1605 H   0  0  0  0  0  0  0  0  0  0  0  0
   15.0265    3.3051    0.2927 H   0  0  0  0  0  0  0  0  0  0  0  0
   16.3859    2.1905    0.4194 H   0  0  0  0  0  0  0  0  0  0  0  0
   16.6556    3.8678   -0.0503 H   0  0  0  0  0  0  0  0  0  0  0  0
   17.1132    2.1312   -3.3119 H   0  0  0  0  0  0  0  0  0  0  0  0
   17.8394    3.2576   -2.1660 H   0  0  0  0  0  0  0  0  0  0  0  0
   17.7034    1.5491   -1.7563 H   0  0  0  0  0  0  0  0  0  0  0  0
   -9.1055    0.3034    0.5068 H   0  0  0  0  0  0  0  0  0  0  0  0
   -8.7907    4.6336   -0.2854 H   0  0  0  0  0  0  0  0  0  0  0  0
   -9.6872    2.4904    0.4765 O   0  0  0  0  0  0  0  0  0  0  0  0
 13 12  2  0
 12 11  1  0
 12 14  1  0
 11 10  1  0
 14 15  2  0
 10120  2  0
 10 16  1  0
 15 16  1  0
 16 17  1  0
 17 19  1  0
 17 18  1  0
 19 20  1  0
 19 21  1  0
 18 23  1  0
  9 39  1  0
  9  8  1  0
 21 23  1  0
 21 22  1  0
 38 37  1  0
 23 24  1  0
 25 24  1  0
 37  8  1  0
 37 35  1  0
  8  4  1  0
 24  2  1  0
  4  7  1  0
 36 35  1  0
 35 31  1  0
  7 31  1  0
  7  3  1  0
 31  5  1  0
  2  1  1  0
 33 32  2  0
 40  1  1  0
 40  6  1  0
  1 26  1  0
  3  6  1  0
  6 30  1  0
  5 32  1  0
 32 34  1  0
 26 28  1  0
 26 27  1  0
 30 28  1  0
 30 41  1  0
 28 29  1  0
 41 42  1  0
 42 44  1  0
 42 43  2  0
 44 45  2  0
 45 46  1  0
 52 51  1  0
 52 53  1  0
 46 47  1  0
 56 55  1  0
 54 53  1  0
 54 55  1  0
 48 47  1  0
 48 49  1  0
 51 50  1  0
 55 57  1  0
 50 49  1  0
  1 58  1  6
  2 59  1  0
  2 60  1  0
  5 61  1  0
  6 62  1  6
  7 63  1  6
  8 64  1  1
  9 65  1  0
  9 66  1  0
 11119  1  0
 14 67  1  0
 15 68  1  0
 17118  1  1
 19 69  1  6
 20 70  1  0
 21 71  1  6
 22 72  1  0
 23 73  1  1
 24 74  1  6
 25 75  1  0
 26 76  1  6
 27 77  1  0
 28 78  1  6
 29 79  1  0
 30 80  1  1
 31 81  1  6
 34 82  1  0
 34 83  1  0
 34 84  1  0
 35 85  1  1
 36 86  1  0
 37 87  1  6
 38 88  1  0
 39 89  1  0
 41 90  1  0
 44 91  1  0
 45 92  1  0
 46 93  1  0
 46 94  1  0
 47 95  1  0
 47 96  1  0
 48 97  1  0
 48 98  1  0
 49 99  1  0
 49100  1  0
 50101  1  0
 50102  1  0
 51103  1  0
 51104  1  0
 52105  1  0
 52106  1  0
 53107  1  0
 53108  1  0
 54109  1  0
 54110  1  0
 55111  1  6
 56112  1  0
 56113  1  0
 56114  1  0
 57115  1  0
 57116  1  0
 57117  1  0
M  END
