
     RDKit          3D

 57 59  0  0  0  0  0  0  0  0999 V2000
    0.6678   -2.4176   -0.5298 O   0  0  0  0  0  0  0  0  0  0  0  0
   -0.4636   -1.7324   -1.2006 P   0  0  1  0  0  0  0  0  0  0  0  0
   -0.0793   -0.4561   -2.0885 O   0  0  0  0  0  0  0  0  0  0  0  0
   -1.2578   -2.5422   -2.3193 O   0  0  0  0  0  0  0  0  0  0  0  0
   -1.7403   -1.2036    0.0039 C   0  0  1  0  0  0  0  0  0  0  0  0
   -2.6274   -2.6736    0.5965 P   0  0  1  0  0  0  0  0  0  0  0  0
   -3.9424   -2.0153    1.2143 O   0  0  0  0  0  0  0  0  0  0  0  0
   -2.8161   -3.6940   -0.4763 O   0  0  0  0  0  0  0  0  0  0  0  0
   -1.8049   -3.3291    1.7985 O   0  0  0  0  0  0  0  0  0  0  0  0
   -1.1776   -0.3483    1.1609 C   0  0  0  0  0  0  0  0  0  0  0  0
   -0.6315    0.9712    0.7212 C   0  0  0  0  0  0  0  0  0  0  0  0
   -1.3468    2.1152    0.4766 C   0  0  0  0  0  0  0  0  0  0  0  0
   -2.8105    2.3826    0.6301 C   0  0  1  0  0  0  0  0  0  0  0  0
   -3.0400    3.3715    1.7791 C   0  0  0  0  0  0  0  0  0  0  0  0
   -3.4452    2.8480   -0.6977 C   0  0  1  0  0  0  0  0  0  0  0  0
   -3.2102    1.8299   -1.8087 C   0  0  0  0  0  0  0  0  0  0  0  0
   -4.9412    3.1058   -0.5467 C   0  0  0  0  0  0  0  0  0  0  0  0
   -0.4868    3.1010    0.0668 N   0  0  0  0  0  0  0  0  0  0  0  0
    0.7892    2.6235    0.0307 C   0  0  0  0  0  0  0  0  0  0  0  0
    1.9857    3.2391   -0.3233 C   0  0  0  0  0  0  0  0  0  0  0  0
    3.1396    2.4831   -0.2631 C   0  0  0  0  0  0  0  0  0  0  0  0
    0.7417    1.2754    0.4443 C   0  0  0  0  0  0  0  0  0  0  0  0
    1.9275    0.5384    0.5061 C   0  0  0  0  0  0  0  0  0  0  0  0
    3.1299    1.1336    0.1475 C   0  0  0  0  0  0  0  0  0  0  0  0
    4.3829    0.3521    0.1855 C   0  0  0  0  0  0  0  0  0  0  0  0
    5.5935    0.9441    0.5522 C   0  0  0  0  0  0  0  0  0  0  0  0
    6.7667    0.2043    0.5902 C   0  0  0  0  0  0  0  0  0  0  0  0
    6.7541   -1.1458    0.2654 C   0  0  0  0  0  0  0  0  0  0  0  0
    5.5567   -1.7477   -0.0996 C   0  0  0  0  0  0  0  0  0  0  0  0
    4.3850   -1.0067   -0.1422 C   0  0  0  0  0  0  0  0  0  0  0  0
    0.5881    0.1129   -1.6782 H   0  0  0  0  0  0  0  0  0  0  0  0
   -1.8981   -3.1639   -1.9012 H   0  0  0  0  0  0  0  0  0  0  0  0
   -2.4837   -0.6249   -0.5563 H   0  0  0  0  0  0  0  0  0  0  0  0
   -4.5586   -2.6342    1.6329 H   0  0  0  0  0  0  0  0  0  0  0  0
   -1.7784   -2.8390    2.6312 H   0  0  0  0  0  0  0  0  0  0  0  0
   -1.9734   -0.1843    1.8917 H   0  0  0  0  0  0  0  0  0  0  0  0
   -0.3992   -0.9083    1.6836 H   0  0  0  0  0  0  0  0  0  0  0  0
   -3.2823    1.4317    0.9055 H   0  0  0  0  0  0  0  0  0  0  0  0
   -2.6849    4.3721    1.5234 H   0  0  0  0  0  0  0  0  0  0  0  0
   -4.0968    3.4511    2.0286 H   0  0  0  0  0  0  0  0  0  0  0  0
   -2.5155    3.0478    2.6781 H   0  0  0  0  0  0  0  0  0  0  0  0
   -2.9695    3.7931   -0.9879 H   0  0  0  0  0  0  0  0  0  0  0  0
   -3.6999    0.8829   -1.5649 H   0  0  0  0  0  0  0  0  0  0  0  0
   -3.6346    2.1796   -2.7505 H   0  0  0  0  0  0  0  0  0  0  0  0
   -2.1519    1.6267   -1.9776 H   0  0  0  0  0  0  0  0  0  0  0  0
   -5.4588    2.2054   -0.2059 H   0  0  0  0  0  0  0  0  0  0  0  0
   -5.1603    3.9042    0.1610 H   0  0  0  0  0  0  0  0  0  0  0  0
   -5.3770    3.3916   -1.5052 H   0  0  0  0  0  0  0  0  0  0  0  0
   -0.7563    4.0388   -0.1813 H   0  0  0  0  0  0  0  0  0  0  0  0
    2.0154    4.2714   -0.6478 H   0  0  0  0  0  0  0  0  0  0  0  0
    4.0741    2.9390   -0.5637 H   0  0  0  0  0  0  0  0  0  0  0  0
    1.9081   -0.4893    0.8457 H   0  0  0  0  0  0  0  0  0  0  0  0
    5.6202    1.9905    0.8300 H   0  0  0  0  0  0  0  0  0  0  0  0
    7.6920    0.6838    0.8825 H   0  0  0  0  0  0  0  0  0  0  0  0
    7.6687   -1.7238    0.2945 H   0  0  0  0  0  0  0  0  0  0  0  0
    5.5354   -2.7978   -0.3615 H   0  0  0  0  0  0  0  0  0  0  0  0
    3.4634   -1.4871   -0.4500 H   0  0  0  0  0  0  0  0  0  0  0  0
  1  2  2  0
  2  4  1  6
  2  3  1  0
  2  5  1  0
  8  6  2  0
 10  5  1  0
 10 11  1  0
  5  6  1  0
 28 29  2  0
 28 27  1  0
 16 15  1  0
 29 30  1  0
 27 26  2  0
  6  9  1  1
  6  7  1  0
 30 25  2  0
 26 25  1  0
 23 22  2  0
 23 24  1  0
 25 24  1  0
 11 22  1  0
 11 12  2  0
 22 19  1  0
 24 21  2  0
 15 13  1  0
 15 17  1  0
 12 13  1  0
 12 18  1  0
 13 14  1  0
 19 18  1  0
 19 20  2  0
 21 20  1  0
  3 31  1  0
  4 32  1  0
  5 33  1  6
  7 34  1  0
  9 35  1  0
 10 36  1  0
 10 37  1  0
 13 38  1  1
 14 39  1  0
 14 40  1  0
 14 41  1  0
 15 42  1  6
 16 43  1  0
 16 44  1  0
 16 45  1  0
 17 46  1  0
 17 47  1  0
 17 48  1  0
 18 49  1  0
 20 50  1  0
 21 51  1  0
 23 52  1  0
 26 53  1  0
 27 54  1  0
 28 55  1  0
 29 56  1  0
 30 57  1  0
M  END
