
     RDKit          3D

 35 36  0  0  0  0  0  0  0  0999 V2000
   -1.0143    0.0147    0.1045 P   0  0  2  0  0  0  0  0  0  0  0  0
    5.9348   -0.6484   -1.5540 N   0  0  0  0  0  0  0  0  0  0  0  0
    4.1688    0.0797   -0.1331 C   0  0  0  0  0  0  0  0  0  0  0  0
    6.2608    1.2768   -0.2346 N   0  0  0  0  0  0  0  0  0  0  0  0
    3.4749    1.1792    0.3679 C   0  0  0  0  0  0  0  0  0  0  0  0
    2.1889    1.0364    0.8655 C   0  0  0  0  0  0  0  0  0  0  0  0
    1.5704   -0.2089    0.8872 C   0  0  0  0  0  0  0  0  0  0  0  0
    2.2617   -1.3063    0.3802 C   0  0  0  0  0  0  0  0  0  0  0  0
    3.5422   -1.1643   -0.1260 C   0  0  0  0  0  0  0  0  0  0  0  0
    0.1714   -0.3589    1.4122 C   0  0  0  0  0  0  0  0  0  0  0  0
   -3.6171   -0.0755    0.2285 C   0  0  0  0  0  0  0  0  0  0  0  0
   -4.1813    1.1895    0.2941 C   0  0  0  0  0  0  0  0  0  0  0  0
   -5.4123    1.4119   -0.3075 C   0  0  0  0  0  0  0  0  0  0  0  0
   -6.0664    0.3830   -0.9728 C   0  0  0  0  0  0  0  0  0  0  0  0
   -5.4869   -0.8775   -1.0311 C   0  0  0  0  0  0  0  0  0  0  0  0
   -4.2562   -1.1131   -0.4326 C   0  0  0  0  0  0  0  0  0  0  0  0
   -0.9371    1.3637   -0.4947 O   0  0  0  0  0  0  0  0  0  0  0  0
   -2.4135   -0.3191    0.8602 O   0  0  0  0  0  0  0  0  0  0  0  0
   -0.8518   -1.0987   -1.0378 O   0  0  0  0  0  0  0  0  0  0  0  0
    6.8972   -0.4766   -1.8326 H   0  0  0  0  0  0  0  0  0  0  0  0
    7.2384    1.3140   -0.4759 H   0  0  0  0  0  0  0  0  0  0  0  0
    6.0616    1.6317    0.6864 H   0  0  0  0  0  0  0  0  0  0  0  0
    3.9217    2.1652    0.3558 H   0  0  0  0  0  0  0  0  0  0  0  0
    1.6672    1.9054    1.2459 H   0  0  0  0  0  0  0  0  0  0  0  0
    1.8016   -2.2869    0.3946 H   0  0  0  0  0  0  0  0  0  0  0  0
    4.0682   -2.0271   -0.5115 H   0  0  0  0  0  0  0  0  0  0  0  0
   -0.0208    0.3361    2.2323 H   0  0  0  0  0  0  0  0  0  0  0  0
   -0.0097   -1.3679    1.7887 H   0  0  0  0  0  0  0  0  0  0  0  0
   -3.6724    1.9862    0.8201 H   0  0  0  0  0  0  0  0  0  0  0  0
   -5.8578    2.3967   -0.2577 H   0  0  0  0  0  0  0  0  0  0  0  0
   -7.0251    0.5627   -1.4405 H   0  0  0  0  0  0  0  0  0  0  0  0
   -5.9902   -1.6843   -1.5474 H   0  0  0  0  0  0  0  0  0  0  0  0
   -3.8067   -2.0972   -0.4681 H   0  0  0  0  0  0  0  0  0  0  0  0
   -0.8925   -2.0193   -0.7469 H   0  0  0  0  0  0  0  0  0  0  0  0
    5.5462    0.2041   -0.6853 C   0  0  0  0  0  0  0  0  0  0  0  0
  1 18  1  1
 10  1  1  0
  1 19  1  0
  1 17  2  0
  3 35  1  0
  2 35  2  0
 35  4  1  0
  2 20  1  0
  5  3  2  0
  3  9  1  0
  4 21  1  0
  4 22  1  0
  6  5  1  0
  5 23  1  0
  6  7  2  0
  6 24  1  0
 10  7  1  0
  7  8  1  0
  8  9  2  0
  8 25  1  0
  9 26  1  0
 10 27  1  0
 10 28  1  0
 12 11  2  0
 11 18  1  0
 11 16  1  0
 13 12  1  0
 12 29  1  0
 13 14  2  0
 13 30  1  0
 14 15  1  0
 14 31  1  0
 15 16  2  0
 15 32  1  0
 16 33  1  0
 19 34  1  0
M  END
