
     RDKit          3D

 26 27  0  0  0  0  0  0  0  0999 V2000
   -4.1561   -1.4071   -0.4560 N   0  0  0  0  0  0  0  0  0  0  0  0
   -2.1071   -0.3736   -0.1438 N   0  0  0  0  0  0  0  0  0  0  0  0
   -5.4408   -1.0591   -0.3708 N   0  0  0  0  0  0  0  0  0  0  0  0
   -6.9689    0.8373    0.1453 C   0  0  0  0  0  0  0  0  0  0  0  0
   -1.6353    1.7983    0.2899 O   0  0  0  0  0  0  0  0  0  0  0  0
    2.4593    1.0717   -0.2715 C   0  0  0  0  0  0  0  0  0  0  0  0
    2.0374   -1.2156    0.3839 C   0  0  0  0  0  0  0  0  0  0  0  0
    1.0974    1.3203   -0.2500 C   0  0  0  0  0  0  0  0  0  0  0  0
    0.6757   -0.9545    0.3875 C   0  0  0  0  0  0  0  0  0  0  0  0
   -4.3655    0.7610    0.1423 C   0  0  0  0  0  0  0  0  0  0  0  0
   -1.2615    0.6557    0.0863 C   0  0  0  0  0  0  0  0  0  0  0  0
   -5.6258    0.2225   -0.0180 C   0  0  0  0  0  0  0  0  0  0  0  0
    2.9183   -0.1988    0.0477 C   0  0  0  0  0  0  0  0  0  0  0  0
    0.1916    0.3106    0.0655 C   0  0  0  0  0  0  0  0  0  0  0  0
   -3.4958   -0.3090   -0.1453 C   0  0  0  0  0  0  0  0  0  0  0  0
   -1.7269   -1.2713   -0.4041 H   0  0  0  0  0  0  0  0  0  0  0  0
   -7.5286    0.3654    0.9540 H   0  0  0  0  0  0  0  0  0  0  0  0
   -6.8698    1.8947    0.3788 H   0  0  0  0  0  0  0  0  0  0  0  0
   -7.5647    0.7476   -0.7635 H   0  0  0  0  0  0  0  0  0  0  0  0
    3.1460    1.8654   -0.5324 H   0  0  0  0  0  0  0  0  0  0  0  0
    2.3942   -2.2011    0.6496 H   0  0  0  0  0  0  0  0  0  0  0  0
    0.7407    2.3119   -0.4934 H   0  0  0  0  0  0  0  0  0  0  0  0
    0.0073   -1.7563    0.6744 H   0  0  0  0  0  0  0  0  0  0  0  0
   -4.1276    1.7701    0.4226 H   0  0  0  0  0  0  0  0  0  0  0  0
   -6.1516   -1.7433   -0.5739 H   0  0  0  0  0  0  0  0  0  0  0  0
    4.7706   -0.5459    0.0315 Br  0  0  0  0  0  0  0  0  0  0  0  0
  2 16  1  0
  3  1  1  0
  4 12  1  0
  4 17  1  0
  4 18  1  0
  4 19  1  0
  5 11  2  0
  6 13  2  0
  6 20  1  0
  7 21  1  0
  8  6  1  0
  8 14  2  0
  8 22  1  0
  9  7  2  0
  9 23  1  0
 10 15  1  0
 10 24  1  0
 11  2  1  0
 11 14  1  0
 12  3  1  0
 12 10  2  0
 13 26  1  0
 13  7  1  0
 14  9  1  0
 15  1  2  0
 15  2  1  0
  3 25  1  0
M  END
