
     RDKit          3D

 18 17  0  0  0  0  0  0  0  0999 V2000
    0.0545   -0.1684    3.0288 O   0  0  0  0  0  0  0  0  0  0  0  0
    0.5524    0.3337    1.8101 C   0  0  0  0  0  0  0  0  0  0  0  0
   -0.2918   -0.2207    0.6733 C   0  0  1  0  0  0  0  0  0  0  0  0
   -1.6540    0.1119    0.8297 O   0  0  0  0  0  0  0  0  0  0  0  0
    0.2431    0.2335   -0.6950 C   0  0  1  0  0  0  0  0  0  0  0  0
    1.6059   -0.0967   -0.8507 O   0  0  0  0  0  0  0  0  0  0  0  0
   -0.5996   -0.3231   -1.8319 C   0  0  0  0  0  0  0  0  0  0  0  0
   -0.1037    0.1811   -3.0505 O   0  0  0  0  0  0  0  0  0  0  0  0
    0.6550    0.1046    3.7275 H   0  0  0  0  0  0  0  0  0  0  0  0
    1.5982    0.0521    1.6556 H   0  0  0  0  0  0  0  0  0  0  0  0
    0.5119    1.4341    1.7785 H   0  0  0  0  0  0  0  0  0  0  0  0
   -0.2531   -1.3169    0.7136 H   0  0  0  0  0  0  0  0  0  0  0  0
   -1.7353    1.0723    0.8488 H   0  0  0  0  0  0  0  0  0  0  0  0
    0.2023    1.3296   -0.7361 H   0  0  0  0  0  0  0  0  0  0  0  0
    1.6886   -1.0569   -0.8734 H   0  0  0  0  0  0  0  0  0  0  0  0
   -1.6464   -0.0449   -1.6768 H   0  0  0  0  0  0  0  0  0  0  0  0
   -0.5557   -1.4234   -1.8005 H   0  0  0  0  0  0  0  0  0  0  0  0
   -0.7040   -0.0926   -3.7492 H   0  0  0  0  0  0  0  0  0  0  0  0
  1  2  1  0
  1  9  1  0
  2  3  1  0
  2 10  1  0
  2 11  1  0
  3  4  1  0
  3  5  1  0
  3 12  1  6
  4 13  1  0
  5  6  1  0
  5  7  1  0
  5 14  1  1
  6 15  1  0
  7  8  1  0
  7 16  1  0
  7 17  1  0
  8 18  1  0
M  END
