
     RDKit          3D

 52 54  0  0  0  0  0  0  0  0999 V2000
    2.1689    0.0568    0.7954 C   0  0  0  0  0  0  0  0  0  0  0  0
    3.0566    2.1151    1.8095 N   0  0  0  0  0  0  0  0  0  0  0  0
    2.5576   -0.7321    1.6468 O   0  0  0  0  0  0  0  0  0  0  0  0
   -2.8748    3.2832   -0.2624 N   0  0  0  0  0  0  0  0  0  0  0  0
   -1.7049    2.8754   -0.7442 C   0  0  0  0  0  0  0  0  0  0  0  0
   -1.2581    1.6370   -0.8689 N   0  0  0  0  0  0  0  0  0  0  0  0
   -2.1527    0.7476   -0.4376 C   0  0  0  0  0  0  0  0  0  0  0  0
   -3.4029    1.0170    0.0933 C   0  0  0  0  0  0  0  0  0  0  0  0
   -3.7596    2.3769    0.1717 C   0  0  0  0  0  0  0  0  0  0  0  0
   -4.9283    2.7889    0.6609 N   0  0  0  0  0  0  0  0  0  0  0  0
   -4.0411   -0.1447    0.4410 N   0  0  0  0  0  0  0  0  0  0  0  0
   -3.1978   -1.0871    0.1298 C   0  0  0  0  0  0  0  0  0  0  0  0
   -2.0364   -0.6084   -0.4116 N   0  0  0  0  0  0  0  0  0  0  0  0
    2.8724    1.3939    0.5639 C   0  0  1  0  0  0  0  0  0  0  0  0
    4.2208    1.1687   -0.1443 C   0  0  2  0  0  0  0  0  0  0  0  0
    1.1019   -0.1842    0.0180 N   0  0  0  0  0  0  0  0  0  0  0  0
    0.2665   -1.3411    0.1802 C   0  0  2  0  0  0  0  0  0  0  0  0
    0.9102   -2.7066   -0.0655 C   0  0  2  0  0  0  0  0  0  0  0  0
    1.7547   -2.6030   -1.1774 O   0  0  0  0  0  0  0  0  0  0  0  0
   -0.3367   -3.5460   -0.3556 C   0  0  1  0  0  0  0  0  0  0  0  0
   -0.9886   -4.0747    0.9083 C   0  0  0  0  0  0  0  0  0  0  0  0
   -2.2059   -4.6861    0.5620 O   0  0  0  0  0  0  0  0  0  0  0  0
   -1.2146   -2.6718   -1.0684 O   0  0  0  0  0  0  0  0  0  0  0  0
   -0.8674   -1.3452   -0.8563 C   0  0  1  0  0  0  0  0  0  0  0  0
    4.8859    2.5107   -0.4643 C   0  0  0  0  0  0  0  0  0  0  0  0
    4.0508    0.3283   -1.4074 C   0  0  0  0  0  0  0  0  0  0  0  0
    2.1589    2.3433    2.2182 H   0  0  0  0  0  0  0  0  0  0  0  0
    3.5294    1.5184    2.4781 H   0  0  0  0  0  0  0  0  0  0  0  0
   -5.1548    3.7682    0.6814 H   0  0  0  0  0  0  0  0  0  0  0  0
   -5.6219    2.1323    0.9726 H   0  0  0  0  0  0  0  0  0  0  0  0
   -3.3698   -2.1450    0.2585 H   0  0  0  0  0  0  0  0  0  0  0  0
    2.2540    2.0191   -0.0921 H   0  0  0  0  0  0  0  0  0  0  0  0
    4.8682    0.6198    0.5526 H   0  0  0  0  0  0  0  0  0  0  0  0
    0.7606    0.5576   -0.5794 H   0  0  0  0  0  0  0  0  0  0  0  0
   -0.1683   -1.3532    1.1863 H   0  0  0  0  0  0  0  0  0  0  0  0
    1.4386   -3.0696    0.8212 H   0  0  0  0  0  0  0  0  0  0  0  0
    2.2258   -3.4356   -1.2823 H   0  0  0  0  0  0  0  0  0  0  0  0
   -0.1053   -4.3864   -1.0170 H   0  0  0  0  0  0  0  0  0  0  0  0
   -0.2887   -4.7834    1.3702 H   0  0  0  0  0  0  0  0  0  0  0  0
   -1.1408   -3.2645    1.6347 H   0  0  0  0  0  0  0  0  0  0  0  0
   -2.6378   -4.9721    1.3719 H   0  0  0  0  0  0  0  0  0  0  0  0
   -0.5397   -0.8745   -1.7911 H   0  0  0  0  0  0  0  0  0  0  0  0
    6.7787    3.3707   -1.0788 H   0  0  0  0  0  0  0  0  0  0  0  0
    6.9406    1.9472   -0.0569 H   0  0  0  0  0  0  0  0  0  0  0  0
    6.4923    1.7730   -1.7501 H   0  0  0  0  0  0  0  0  0  0  0  0
    4.3217    2.9981   -1.2675 H   0  0  0  0  0  0  0  0  0  0  0  0
    4.8049    3.1618    0.4068 H   0  0  0  0  0  0  0  0  0  0  0  0
    5.0029    0.2045   -1.9229 H   0  0  0  0  0  0  0  0  0  0  0  0
    3.6659   -0.6702   -1.2040 H   0  0  0  0  0  0  0  0  0  0  0  0
    3.3608    0.8114   -2.1043 H   0  0  0  0  0  0  0  0  0  0  0  0
    6.3515    2.3908   -0.8622 C   0  0  0  0  0  0  0  0  0  0  0  0
   -1.0345    3.6613   -1.0741 H   0  0  0  0  0  0  0  0  0  0  0  0
  1  3  2  0
  1 14  1  0
  1 16  1  0
  2 14  1  0
  4  5  2  0
  4  9  1  0
  5  6  1  0
  6  7  2  0
  7  8  1  0
  7 13  1  0
  8  9  2  0
  8 11  1  0
  9 10  1  0
 11 12  2  0
 12 13  1  0
 13 24  1  0
 14 15  1  0
 15 25  1  0
 15 26  1  0
 16 17  1  0
 17 18  1  0
 17 24  1  0
 18 19  1  0
 18 20  1  0
 20 21  1  0
 20 23  1  0
 21 22  1  0
 23 24  1  0
 51 25  1  0
  2 27  1  0
  2 28  1  0
  5 52  1  0
 10 29  1  0
 10 30  1  0
 12 31  1  0
 14 32  1  6
 15 33  1  1
 16 34  1  0
 17 35  1  1
 18 36  1  1
 19 37  1  0
 20 38  1  6
 21 39  1  0
 21 40  1  0
 22 41  1  0
 24 42  1  6
 51 43  1  0
 51 44  1  0
 51 45  1  0
 25 46  1  0
 25 47  1  0
 26 48  1  0
 26 49  1  0
 26 50  1  0
M  END
