
     RDKit          3D

 47 50  0  0  0  0  0  0  0  0999 V2000
   -2.6494    1.5148    0.3779 C   0  0  0  0  0  0  0  0  0  0  0  0
   -1.7307    0.3384    0.7350 C   0  0  1  0  0  0  0  0  0  0  0  0
    0.4325    1.7037    0.3737 C   0  0  0  0  0  0  0  0  0  0  0  0
    1.8100    1.7750   -0.2947 C   0  0  0  0  0  0  0  0  0  0  0  0
    2.6166    0.5279    0.0228 C   0  0  1  0  0  0  0  0  0  0  0  0
    1.8263   -0.7175   -0.3963 C   0  0  1  0  0  0  0  0  0  0  0  0
    2.8595   -1.8444   -0.3538 C   0  0  0  0  0  0  0  0  0  0  0  0
    4.1107   -1.1719   -0.9373 C   0  0  0  0  0  0  0  0  0  0  0  0
    3.9000    0.3245   -0.7525 C   0  0  0  0  0  0  0  0  0  0  0  0
    3.0442    0.5066    1.5031 C   0  0  0  0  0  0  0  0  0  0  0  0
   -1.6119    0.3249    2.2676 C   0  0  0  0  0  0  0  0  0  0  0  0
   -3.1961    1.4626   -1.0386 C   0  0  0  0  0  0  0  0  0  0  0  0
   -3.9454    0.1777   -1.2636 C   0  0  0  0  0  0  0  0  0  0  0  0
   -3.3862   -1.0012   -0.6047 C   0  0  0  0  0  0  0  0  0  0  0  0
   -2.3474   -0.9533    0.2472 C   0  0  0  0  0  0  0  0  0  0  0  0
   -1.6188   -2.1993    0.6271 C   0  0  0  0  0  0  0  0  0  0  0  0
   -0.2298   -2.1296   -0.0206 C   0  0  0  0  0  0  0  0  0  0  0  0
    0.5107   -0.8485    0.3507 C   0  0  2  0  0  0  0  0  0  0  0  0
   -0.3314    0.4131    0.0507 C   0  0  1  0  0  0  0  0  0  0  0  0
   -4.9116    0.1008   -2.0034 O   0  0  0  0  0  0  0  0  0  0  0  0
    4.6370    1.1925   -1.1546 O   0  0  0  0  0  0  0  0  0  0  0  0
   -3.4967    1.4984    1.0717 H   0  0  0  0  0  0  0  0  0  0  0  0
   -2.1435    2.4641    0.5554 H   0  0  0  0  0  0  0  0  0  0  0  0
    0.5413    1.8126    1.4561 H   0  0  0  0  0  0  0  0  0  0  0  0
   -0.1466    2.5668    0.0405 H   0  0  0  0  0  0  0  0  0  0  0  0
    1.6819    1.8605   -1.3786 H   0  0  0  0  0  0  0  0  0  0  0  0
    2.3290    2.6789    0.0330 H   0  0  0  0  0  0  0  0  0  0  0  0
    1.5697   -0.5767   -1.4586 H   0  0  0  0  0  0  0  0  0  0  0  0
    3.0351   -2.1879    0.6683 H   0  0  0  0  0  0  0  0  0  0  0  0
    2.5523   -2.7140   -0.9346 H   0  0  0  0  0  0  0  0  0  0  0  0
    5.0476   -1.4879   -0.4742 H   0  0  0  0  0  0  0  0  0  0  0  0
    4.2102   -1.3721   -2.0076 H   0  0  0  0  0  0  0  0  0  0  0  0
    2.1856    0.5140    2.1722 H   0  0  0  0  0  0  0  0  0  0  0  0
    3.6414   -0.3691    1.7601 H   0  0  0  0  0  0  0  0  0  0  0  0
    3.6447    1.3890    1.7287 H   0  0  0  0  0  0  0  0  0  0  0  0
   -2.5599    0.0303    2.7211 H   0  0  0  0  0  0  0  0  0  0  0  0
   -0.8430   -0.3467    2.6440 H   0  0  0  0  0  0  0  0  0  0  0  0
   -1.3770    1.3248    2.6357 H   0  0  0  0  0  0  0  0  0  0  0  0
   -3.8473    2.3136   -1.2437 H   0  0  0  0  0  0  0  0  0  0  0  0
   -2.3831    1.5003   -1.7732 H   0  0  0  0  0  0  0  0  0  0  0  0
   -3.7895   -1.9635   -0.9051 H   0  0  0  0  0  0  0  0  0  0  0  0
   -1.5163   -2.2887    1.7117 H   0  0  0  0  0  0  0  0  0  0  0  0
   -2.1529   -3.0838    0.2770 H   0  0  0  0  0  0  0  0  0  0  0  0
    0.3536   -3.0009    0.2856 H   0  0  0  0  0  0  0  0  0  0  0  0
   -0.3429   -2.1904   -1.1086 H   0  0  0  0  0  0  0  0  0  0  0  0
    0.7212   -0.8929    1.4253 H   0  0  0  0  0  0  0  0  0  0  0  0
   -0.5089    0.4095   -1.0347 H   0  0  0  0  0  0  0  0  0  0  0  0
  1  2  1  0
  1 12  1  0
  1 22  1  0
  1 23  1  0
  2 11  1  1
  2 15  1  0
  2 19  1  0
  3  4  1  0
  3 19  1  0
  3 24  1  0
  3 25  1  0
  4  5  1  0
  4 26  1  0
  4 27  1  0
  5  6  1  0
  5  9  1  0
  5 10  1  1
  6  7  1  0
  6 18  1  0
  6 28  1  6
  7  8  1  0
  7 29  1  0
  7 30  1  0
  8  9  1  0
  8 31  1  0
  8 32  1  0
  9 21  2  0
 10 33  1  0
 10 34  1  0
 10 35  1  0
 11 36  1  0
 11 37  1  0
 11 38  1  0
 12 13  1  0
 12 39  1  0
 12 40  1  0
 13 14  1  0
 13 20  2  0
 14 15  2  0
 14 41  1  0
 15 16  1  0
 16 17  1  0
 16 42  1  0
 16 43  1  0
 17 18  1  0
 17 44  1  0
 17 45  1  0
 18 19  1  0
 18 46  1  1
 19 47  1  6
M  END
