
     RDKit          3D

 18 17  0  0  0  0  0  0  0  0999 V2000
    3.2137   -0.2854   -0.0007 C   0  0  0  0  0  0  0  0  0  0  0  0
    1.9198    0.5168    0.0036 C   0  0  0  0  0  0  0  0  0  0  0  0
    0.6815   -0.3718    0.0027 C   0  0  0  0  0  0  0  0  0  0  0  0
   -0.6227    0.4159    0.0049 C   0  0  0  0  0  0  0  0  0  0  0  0
   -1.8337   -0.4959    0.0090 C   0  0  0  0  0  0  0  0  0  0  0  0
   -3.0088    0.2878    0.0015 O   0  0  0  0  0  0  0  0  0  0  0  0
    4.0910    0.3620    0.0011 H   0  0  0  0  0  0  0  0  0  0  0  0
    3.2772   -0.9315    0.8771 H   0  0  0  0  0  0  0  0  0  0  0  0
    3.2764   -0.9240   -0.8841 H   0  0  0  0  0  0  0  0  0  0  0  0
    1.8940    1.1715    0.8800 H   0  0  0  0  0  0  0  0  0  0  0  0
    1.8921    1.1763   -0.8693 H   0  0  0  0  0  0  0  0  0  0  0  0
    0.7114   -1.0286   -0.8739 H   0  0  0  0  0  0  0  0  0  0  0  0
    0.7123   -1.0321    0.8766 H   0  0  0  0  0  0  0  0  0  0  0  0
   -0.6552    1.0691    0.8832 H   0  0  0  0  0  0  0  0  0  0  0  0
   -0.6598    1.0670   -0.8747 H   0  0  0  0  0  0  0  0  0  0  0  0
   -1.7891   -1.1574   -0.8669 H   0  0  0  0  0  0  0  0  0  0  0  0
   -1.7920   -1.1446    0.8945 H   0  0  0  0  0  0  0  0  0  0  0  0
   -3.7646   -0.3057    0.0176 H   0  0  0  0  0  0  0  0  0  0  0  0
  1  2  1  0
  1  7  1  0
  1  8  1  0
  1  9  1  0
  2  3  1  0
  2 10  1  0
  2 11  1  0
  3  4  1  0
  3 12  1  0
  3 13  1  0
  4  5  1  0
  4 14  1  0
  4 15  1  0
  5  6  1  0
  5 16  1  0
  5 17  1  0
  6 18  1  0
M  END
