
     RDKit          3D

 64 65  0  0  0  0  0  0  0  0999 V2000
   -4.1240    0.5635   -0.7756 C   0  0  0  0  0  0  0  0  0  0  0  0
   -5.4944   -1.3989   -0.5592 C   0  0  0  0  0  0  0  0  0  0  0  0
   -6.5770   -2.0502    0.2896 C   0  0  1  0  0  0  0  0  0  0  0  0
   -7.8879   -1.3250    0.0689 C   0  0  2  0  0  0  0  0  0  0  0  0
   -7.7087    0.1655    0.3166 C   0  0  1  0  0  0  0  0  0  0  0  0
   -6.5687    0.7338   -0.5409 C   0  0  1  0  0  0  0  0  0  0  0  0
   -6.4549    2.2390   -0.3517 C   0  0  0  0  0  0  0  0  0  0  0  0
   11.5186   -2.2334   -0.8673 C   0  0  0  0  0  0  0  0  0  0  0  0
    9.0532    0.0474    0.4950 C   0  0  0  0  0  0  0  0  0  0  0  0
    8.0745    0.1530   -0.4593 C   0  0  0  0  0  0  0  0  0  0  0  0
    5.9350    1.4772   -0.4830 C   0  0  0  0  0  0  0  0  0  0  0  0
    4.7475    0.7163    0.0879 C   0  0  0  0  0  0  0  0  0  0  0  0
    3.4385    1.2006   -0.5215 C   0  0  0  0  0  0  0  0  0  0  0  0
    2.2197    0.4717    0.0296 C   0  0  0  0  0  0  0  0  0  0  0  0
    0.9138    0.9554   -0.5879 C   0  0  0  0  0  0  0  0  0  0  0  0
   -0.3153    0.2319   -0.0517 C   0  0  0  0  0  0  0  0  0  0  0  0
   -2.8497    0.0067   -0.1497 C   0  0  0  0  0  0  0  0  0  0  0  0
   -5.3443    0.0028   -0.2163 N   0  0  0  0  0  0  0  0  0  0  0  0
    8.7153    0.8483    1.5258 N   0  0  0  0  0  0  0  0  0  0  0  0
    7.5949    1.4319    1.2581 N   0  0  0  0  0  0  0  0  0  0  0  0
    7.2000    1.0284    0.0683 N   0  0  0  0  0  0  0  0  0  0  0  0
   -6.7731   -3.4046   -0.0563 O   0  0  0  0  0  0  0  0  0  0  0  0
   -8.9096   -1.7749    0.9314 O   0  0  0  0  0  0  0  0  0  0  0  0
   -8.8941    0.8609    0.0042 O   0  0  0  0  0  0  0  0  0  0  0  0
   10.3544   -1.4572   -0.7342 O   0  0  0  0  0  0  0  0  0  0  0  0
   -4.1090    1.6361   -0.5903 H   0  0  0  0  0  0  0  0  0  0  0  0
   -4.0800    0.4383   -1.8715 H   0  0  0  0  0  0  0  0  0  0  0  0
   -4.5554   -1.9220   -0.3756 H   0  0  0  0  0  0  0  0  0  0  0  0
   -5.7323   -1.5371   -1.6298 H   0  0  0  0  0  0  0  0  0  0  0  0
   -6.2919   -1.9519    1.3466 H   0  0  0  0  0  0  0  0  0  0  0  0
   -8.1805   -1.4610   -0.9858 H   0  0  0  0  0  0  0  0  0  0  0  0
   -7.4375    0.3099    1.3723 H   0  0  0  0  0  0  0  0  0  0  0  0
   -6.8406    0.5908   -1.6051 H   0  0  0  0  0  0  0  0  0  0  0  0
   -5.7574    2.6538   -1.0893 H   0  0  0  0  0  0  0  0  0  0  0  0
   -7.4299    2.6782   -0.5855 H   0  0  0  0  0  0  0  0  0  0  0  0
   11.5989   -2.9933   -0.0814 H   0  0  0  0  0  0  0  0  0  0  0  0
   11.4748   -2.7380   -1.8314 H   0  0  0  0  0  0  0  0  0  0  0  0
   12.4268   -1.6201   -0.8384 H   0  0  0  0  0  0  0  0  0  0  0  0
   11.1751   -0.1027    0.5999 H   0  0  0  0  0  0  0  0  0  0  0  0
   10.3159   -1.4505    1.3370 H   0  0  0  0  0  0  0  0  0  0  0  0
    5.9915    1.3519   -1.5639 H   0  0  0  0  0  0  0  0  0  0  0  0
    5.8460    2.5446   -0.2810 H   0  0  0  0  0  0  0  0  0  0  0  0
    4.8737   -0.3531   -0.1031 H   0  0  0  0  0  0  0  0  0  0  0  0
    4.7235    0.8455    1.1734 H   0  0  0  0  0  0  0  0  0  0  0  0
    3.3300    2.2757   -0.3431 H   0  0  0  0  0  0  0  0  0  0  0  0
    3.4747    1.0749   -1.6089 H   0  0  0  0  0  0  0  0  0  0  0  0
    2.3283   -0.6042   -0.1446 H   0  0  0  0  0  0  0  0  0  0  0  0
    2.1793    0.6010    1.1166 H   0  0  0  0  0  0  0  0  0  0  0  0
    0.8072    2.0314   -0.4114 H   0  0  0  0  0  0  0  0  0  0  0  0
    0.9607    0.8311   -1.6755 H   0  0  0  0  0  0  0  0  0  0  0  0
   -0.2142   -0.8433   -0.2349 H   0  0  0  0  0  0  0  0  0  0  0  0
   -0.3629    0.3515    1.0362 H   0  0  0  0  0  0  0  0  0  0  0  0
   -2.9159    0.1191    0.9369 H   0  0  0  0  0  0  0  0  0  0  0  0
   -2.7372   -1.0632   -0.3467 H   0  0  0  0  0  0  0  0  0  0  0  0
   -6.0315   -3.9157    0.2808 H   0  0  0  0  0  0  0  0  0  0  0  0
   -9.1030   -2.6937    0.7207 H   0  0  0  0  0  0  0  0  0  0  0  0
   -9.6054    0.4776    0.5274 H   0  0  0  0  0  0  0  0  0  0  0  0
   -6.0521    2.5294    0.9669 O   0  0  0  0  0  0  0  0  0  0  0  0
   -1.6143    0.7312   -0.6714 C   0  0  0  0  0  0  0  0  0  0  0  0
    7.9357   -0.2966   -1.4269 H   0  0  0  0  0  0  0  0  0  0  0  0
   10.3031   -0.7621    0.4793 C   0  0  0  0  0  0  0  0  0  0  0  0
   -1.7146    1.8056   -0.4822 H   0  0  0  0  0  0  0  0  0  0  0  0
   -1.5608    0.6202   -1.7601 H   0  0  0  0  0  0  0  0  0  0  0  0
   -6.1053    3.4811    1.0900 H   0  0  0  0  0  0  0  0  0  0  0  0
 59 17  1  0
 59 16  1  0
 17  1  1  0
 15 16  1  0
 15 14  1  0
 13 14  1  0
 13 12  1  0
 11 12  1  0
 11 21  1  0
 10 21  1  0
 10  9  2  0
 22  3  1  0
  2  3  1  0
  2 18  1  0
  1 18  1  0
  8 25  1  0
 25 61  1  0
 21 20  1  0
 61  9  1  0
  3  4  1  0
  9 19  1  0
 18  6  1  0
 20 19  2  0
  4 23  1  0
  4  5  1  0
  6  5  1  0
  6  7  1  0
 58  7  1  0
  5 24  1  0
  1 26  1  0
  1 27  1  0
  2 28  1  0
  2 29  1  0
  3 30  1  1
  4 31  1  6
  5 32  1  1
  6 33  1  6
  7 34  1  0
  7 35  1  0
  8 36  1  0
  8 37  1  0
  8 38  1  0
 61 39  1  0
 61 40  1  0
 10 60  1  0
 11 41  1  0
 11 42  1  0
 12 43  1  0
 12 44  1  0
 13 45  1  0
 13 46  1  0
 14 47  1  0
 14 48  1  0
 15 49  1  0
 15 50  1  0
 16 51  1  0
 16 52  1  0
 59 62  1  0
 59 63  1  0
 17 53  1  0
 17 54  1  0
 22 55  1  0
 23 56  1  0
 24 57  1  0
 58 64  1  0
M  END
