
     RDKit          3D

 44 47  0  0  0  0  0  0  0  0999 V2000
   -3.4881    4.1096   -1.7357 O   0  0  0  0  0  0  0  0  0  0  0  0
   -4.6979    4.1133    0.1373 O   0  0  0  0  0  0  0  0  0  0  0  0
   -4.0723    3.5154   -0.7053 C   0  0  0  0  0  0  0  0  0  0  0  0
    5.5458    1.4668   -1.4401 C   0  0  0  0  0  0  0  0  0  0  0  0
    6.7041    1.9414   -0.8281 C   0  0  0  0  0  0  0  0  0  0  0  0
    6.8949    1.8197    0.5456 C   0  0  0  0  0  0  0  0  0  0  0  0
    5.9351    1.2182    1.3569 C   0  0  0  0  0  0  0  0  0  0  0  0
    3.6118    0.0762    1.3160 C   0  0  0  0  0  0  0  0  0  0  0  0
    4.7935    0.7526    0.7398 C   0  0  0  0  0  0  0  0  0  0  0  0
    4.6039    0.8730   -0.6272 C   0  0  0  0  0  0  0  0  0  0  0  0
    3.2949    0.2775   -0.9705 C   0  0  0  0  0  0  0  0  0  0  0  0
    2.7604   -0.1777    0.2377 N   0  0  0  0  0  0  0  0  0  0  0  0
   -0.6959   -0.8923    1.2986 C   0  0  0  0  0  0  0  0  0  0  0  0
    0.5302   -0.2622    1.1704 C   0  0  0  0  0  0  0  0  0  0  0  0
    1.5087   -0.8156    0.3553 C   0  0  0  0  0  0  0  0  0  0  0  0
    1.2685   -1.9928   -0.3426 C   0  0  0  0  0  0  0  0  0  0  0  0
    0.0378   -2.6164   -0.2350 C   0  0  0  0  0  0  0  0  0  0  0  0
   -0.9317   -2.0623    0.5900 C   0  0  0  0  0  0  0  0  0  0  0  0
   -2.4110   -4.2214    0.3133 O   0  0  0  0  0  0  0  0  0  0  0  0
   -3.1425   -2.4358    1.9316 O   0  0  0  0  0  0  0  0  0  0  0  0
   -2.5272   -2.8229    0.6777 S   0  0  1  0  0  0  0  0  0  0  0  0
   -2.9549    0.0154   -1.6024 C   0  0  0  0  0  0  0  0  0  0  0  0
   -3.5634   -0.7185   -0.5888 C   0  0  0  0  0  0  0  0  0  0  0  0
   -4.3377   -0.0708    0.3699 C   0  0  0  0  0  0  0  0  0  0  0  0
   -4.4791    1.3035    0.3175 C   0  0  0  0  0  0  0  0  0  0  0  0
   -3.8766    2.0455   -0.6963 C   0  0  0  0  0  0  0  0  0  0  0  0
   -3.1198    1.3875   -1.6638 C   0  0  0  0  0  0  0  0  0  0  0  0
   -3.6410    5.0655   -1.6978 H   0  0  0  0  0  0  0  0  0  0  0  0
    5.3980    1.5615   -2.5075 H   0  0  0  0  0  0  0  0  0  0  0  0
    7.4700    2.4132   -1.4286 H   0  0  0  0  0  0  0  0  0  0  0  0
    7.8050    2.2002    0.9889 H   0  0  0  0  0  0  0  0  0  0  0  0
    6.0843    1.1243    2.4241 H   0  0  0  0  0  0  0  0  0  0  0  0
   -1.4490   -0.4612    1.9429 H   0  0  0  0  0  0  0  0  0  0  0  0
    0.7134    0.6626    1.6995 H   0  0  0  0  0  0  0  0  0  0  0  0
    2.0393   -2.4349   -0.9581 H   0  0  0  0  0  0  0  0  0  0  0  0
   -0.1458   -3.5317   -0.7806 H   0  0  0  0  0  0  0  0  0  0  0  0
   -3.1616   -2.5321   -1.4502 H   0  0  0  0  0  0  0  0  0  0  0  0
   -2.3501   -0.4881   -2.3462 H   0  0  0  0  0  0  0  0  0  0  0  0
   -4.8402   -0.6351    1.1415 H   0  0  0  0  0  0  0  0  0  0  0  0
   -5.0799    1.8011    1.0664 H   0  0  0  0  0  0  0  0  0  0  0  0
   -2.6410    1.9329   -2.4646 H   0  0  0  0  0  0  0  0  0  0  0  0
   -3.4090   -2.1224   -0.5544 N   0  0  0  0  0  0  0  0  0  0  0  0
    2.7601    0.1868   -2.0423 O   0  0  0  0  0  0  0  0  0  0  0  0
    3.3894   -0.2203    2.4589 O   0  0  0  0  0  0  0  0  0  0  0  0
  1  3  1  0
  3  2  2  0
  3 26  1  0
 27 26  1  0
 27 22  2  0
 26 25  2  0
 43 11  2  0
 22 23  1  0
 25 24  1  0
  4  5  2  0
  4 10  1  0
  5  6  1  0
 11 10  1  0
 11 12  1  0
 10  9  2  0
 23 24  2  0
 23 42  1  0
 14 13  2  0
 14 15  1  0
 13 18  1  0
 19 21  2  0
 12 15  1  0
 12  8  1  0
  6  7  2  0
 15 16  2  0
 21 42  1  6
  9  7  1  0
  9  8  1  0
 18 21  1  0
 18 17  2  0
 21 20  2  0
  8 44  2  0
 16 17  1  0
  1 28  1  0
  4 29  1  0
  5 30  1  0
  6 31  1  0
  7 32  1  0
 13 33  1  0
 14 34  1  0
 16 35  1  0
 17 36  1  0
 42 37  1  0
 22 38  1  0
 24 39  1  0
 25 40  1  0
 27 41  1  0
M  END
