
     RDKit          3D

 44 45  0  0  0  0  0  0  0  0999 V2000
   -4.1938    1.7310   -0.5247 C   0  0  0  0  0  0  0  0  0  0  0  0
   -3.4639    0.7381    0.1245 C   0  0  0  0  0  0  0  0  0  0  0  0
   -5.5700    1.8223   -0.3767 C   0  0  0  0  0  0  0  0  0  0  0  0
   -4.1438   -0.1619    0.9436 C   0  0  0  0  0  0  0  0  0  0  0  0
   -6.2079    0.9079    0.4376 C   0  0  0  0  0  0  0  0  0  0  0  0
   -5.5179   -0.0859    1.1056 C   0  0  0  0  0  0  0  0  0  0  0  0
   -1.9928    0.6859   -0.0083 C   0  0  0  0  0  0  0  0  0  0  0  0
   -1.2926   -0.4705   -0.3675 C   0  0  0  0  0  0  0  0  0  0  0  0
   -1.2456    1.8235    0.2884 C   0  0  0  0  0  0  0  0  0  0  0  0
    0.0990   -0.4928   -0.4019 C   0  0  0  0  0  0  0  0  0  0  0  0
    0.1345    1.8174    0.2371 C   0  0  0  0  0  0  0  0  0  0  0  0
    0.8263    0.6567   -0.1051 C   0  0  0  0  0  0  0  0  0  0  0  0
   -7.5396    0.9907    0.5901 F   0  0  0  0  0  0  0  0  0  0  0  0
   -2.0217   -1.6812   -0.8428 C   0  0  0  0  0  0  0  0  0  0  0  0
   -1.4762   -2.7983   -0.3888 O   0  0  0  0  0  0  0  0  0  0  0  0
   -2.9776   -1.6465   -1.5745 O   0  0  0  0  0  0  0  0  0  0  0  0
   -2.0316   -4.0341   -0.8438 C   0  0  0  0  0  0  0  0  0  0  0  0
    2.2190    0.7359   -0.1746 N   0  0  0  0  0  0  0  0  0  0  0  0
    3.1137   -0.2849   -0.0393 C   0  0  0  0  0  0  0  0  0  0  0  0
    4.5315    0.1245   -0.2029 C   0  0  0  0  0  0  0  0  0  0  0  0
    2.7833   -1.4330    0.1849 O   0  0  0  0  0  0  0  0  0  0  0  0
    5.5936   -0.6439    0.1920 C   0  0  0  0  0  0  0  0  0  0  0  0
    4.8060    1.3778   -0.8033 C   0  0  0  0  0  0  0  0  0  0  0  0
    4.9844    2.4107   -1.2897 N   0  0  0  0  0  0  0  0  0  0  0  0
    5.3807   -1.7865    0.8003 O   0  0  0  0  0  0  0  0  0  0  0  0
    7.0169   -0.2133    0.0303 C   0  0  0  0  0  0  0  0  0  0  0  0
    7.5795    0.3480    1.3395 C   0  0  0  0  0  0  0  0  0  0  0  0
   -3.6868    2.4384   -1.1689 H   0  0  0  0  0  0  0  0  0  0  0  0
   -6.1333    2.5916   -0.8881 H   0  0  0  0  0  0  0  0  0  0  0  0
   -3.5973   -0.9263    1.4819 H   0  0  0  0  0  0  0  0  0  0  0  0
   -6.0408   -0.7823    1.7476 H   0  0  0  0  0  0  0  0  0  0  0  0
   -1.7531    2.7295    0.5935 H   0  0  0  0  0  0  0  0  0  0  0  0
    0.6068   -1.3941   -0.7039 H   0  0  0  0  0  0  0  0  0  0  0  0
    0.6810    2.7211    0.4790 H   0  0  0  0  0  0  0  0  0  0  0  0
   -1.4430   -4.8156   -0.3731 H   0  0  0  0  0  0  0  0  0  0  0  0
   -3.0739   -4.1343   -0.5429 H   0  0  0  0  0  0  0  0  0  0  0  0
   -1.9587   -4.1267   -1.9270 H   0  0  0  0  0  0  0  0  0  0  0  0
    2.5806    1.6778   -0.1979 H   0  0  0  0  0  0  0  0  0  0  0  0
    7.6041   -1.0789   -0.2898 H   0  0  0  0  0  0  0  0  0  0  0  0
    7.1091    0.5286   -0.7603 H   0  0  0  0  0  0  0  0  0  0  0  0
    7.0296    1.2339    1.6546 H   0  0  0  0  0  0  0  0  0  0  0  0
    7.5428   -0.3822    2.1474 H   0  0  0  0  0  0  0  0  0  0  0  0
    8.6208    0.6301    1.1953 H   0  0  0  0  0  0  0  0  0  0  0  0
    6.2142   -2.2242    1.0199 H   0  0  0  0  0  0  0  0  0  0  0  0
  1  3  2  0
  1 28  1  0
  2  1  1  0
  3 29  1  0
  4  2  2  0
  4  6  1  0
  4 30  1  0
  5  3  1  0
  5 13  1  0
  6  5  2  0
  6 31  1  0
  7  2  1  0
  7  8  2  0
  8 14  1  0
  9  7  1  0
  9 32  1  0
 10  8  1  0
 10 33  1  0
 11  9  2  0
 11 12  1  0
 11 34  1  0
 12 10  2  0
 14 16  2  0
 14 15  1  0
 15 17  1  0
 17 35  1  0
 17 36  1  0
 17 37  1  0
 18 12  1  0
 18 38  1  0
 19 18  1  0
 19 20  1  0
 20 22  2  0
 21 19  2  0
 22 26  1  0
 22 25  1  0
 23 20  1  0
 24 23  3  0
 26 27  1  0
 26 39  1  0
 26 40  1  0
 27 41  1  0
 27 42  1  0
 27 43  1  0
 25 44  1  0
M  END
