
     RDKit          3D

 53 55  0  0  0  0  0  0  0  0999 V2000
    0.5615    0.1029    7.8209 C   0  0  0  0  0  0  0  0  0  0  0  0
    0.1393    0.0459    6.3990 C   0  0  0  0  0  0  0  0  0  0  0  0
   -1.2224   -0.0083    6.1159 C   0  0  0  0  0  0  0  0  0  0  0  0
   -1.6592   -0.0564    4.8049 C   0  0  0  0  0  0  0  0  0  0  0  0
   -0.7509   -0.0526    3.7433 C   0  0  0  0  0  0  0  0  0  0  0  0
   -1.2756   -0.0983    2.3833 C   0  0  0  0  0  0  0  0  0  0  0  0
   -0.5605   -0.0916    1.2506 C   0  0  0  0  0  0  0  0  0  0  0  0
    0.6154   -0.0019    4.0378 C   0  0  0  0  0  0  0  0  0  0  0  0
    1.0561    0.0473    5.3458 C   0  0  0  0  0  0  0  0  0  0  0  0
   -1.2339   -0.1314   -0.0649 C   0  0  0  0  0  0  0  0  0  0  0  0
   -0.4036   -0.0891   -1.2972 C   0  0  0  0  0  0  0  0  0  0  0  0
   -1.0486   -0.0653   -2.5306 C   0  0  0  0  0  0  0  0  0  0  0  0
   -0.3659   -0.0189   -3.7425 C   0  0  0  0  0  0  0  0  0  0  0  0
   -1.1751    0.0092   -5.0338 C   0  0  2  0  0  0  0  0  0  0  0  0
   -0.2848    0.4330   -6.2059 C   0  0  0  0  0  0  0  0  0  0  0  0
    1.0441   -0.2933   -6.2208 C   0  0  0  0  0  0  0  0  0  0  0  0
    1.8920    0.0079   -4.9812 C   0  0  1  0  0  0  0  0  0  0  0  0
    1.0383   -0.0299   -3.7217 C   0  0  0  0  0  0  0  0  0  0  0  0
    1.6828   -0.0405   -2.4819 C   0  0  0  0  0  0  0  0  0  0  0  0
    0.9910   -0.0668   -1.2882 C   0  0  0  0  0  0  0  0  0  0  0  0
   -2.3286    1.0150   -4.9454 C   0  0  0  0  0  0  0  0  0  0  0  0
   -1.7570   -1.3898   -5.2834 C   0  0  0  0  0  0  0  0  0  0  0  0
    3.0116   -1.0377   -4.9177 C   0  0  0  0  0  0  0  0  0  0  0  0
    2.5223    1.4042   -5.1021 C   0  0  0  0  0  0  0  0  0  0  0  0
   -0.2119    0.0924    8.7483 O   0  0  0  0  0  0  0  0  0  0  0  0
    1.8762    0.1684    7.9694 O   0  0  0  0  0  0  0  0  0  0  0  0
   -2.4497   -0.1924   -0.1422 O   0  0  0  0  0  0  0  0  0  0  0  0
   -1.9454   -0.0109    6.9197 H   0  0  0  0  0  0  0  0  0  0  0  0
   -2.7216   -0.0958    4.5998 H   0  0  0  0  0  0  0  0  0  0  0  0
   -2.3577   -0.1368    2.3067 H   0  0  0  0  0  0  0  0  0  0  0  0
    0.5191   -0.0509    1.2858 H   0  0  0  0  0  0  0  0  0  0  0  0
    1.3492    0.0003    3.2435 H   0  0  0  0  0  0  0  0  0  0  0  0
    2.1196    0.0868    5.5354 H   0  0  0  0  0  0  0  0  0  0  0  0
   -2.1304   -0.0790   -2.5356 H   0  0  0  0  0  0  0  0  0  0  0  0
   -0.1138    1.5126   -6.1524 H   0  0  0  0  0  0  0  0  0  0  0  0
   -0.8235    0.2577   -7.1409 H   0  0  0  0  0  0  0  0  0  0  0  0
    1.6143   -0.0181   -7.1121 H   0  0  0  0  0  0  0  0  0  0  0  0
    0.8766   -1.3719   -6.2942 H   0  0  0  0  0  0  0  0  0  0  0  0
    2.7639   -0.0275   -2.4399 H   0  0  0  0  0  0  0  0  0  0  0  0
    1.5592   -0.0749   -0.3689 H   0  0  0  0  0  0  0  0  0  0  0  0
   -3.0866    0.7344   -4.2134 H   0  0  0  0  0  0  0  0  0  0  0  0
   -1.9652    2.0117   -4.6893 H   0  0  0  0  0  0  0  0  0  0  0  0
   -2.8299    1.0810   -5.9132 H   0  0  0  0  0  0  0  0  0  0  0  0
   -2.4135   -1.6945   -4.4666 H   0  0  0  0  0  0  0  0  0  0  0  0
   -2.3467   -1.3983   -6.2032 H   0  0  0  0  0  0  0  0  0  0  0  0
   -0.9803   -2.1498   -5.3759 H   0  0  0  0  0  0  0  0  0  0  0  0
    3.7314   -0.8450   -4.1220 H   0  0  0  0  0  0  0  0  0  0  0  0
    2.6070   -2.0405   -4.7701 H   0  0  0  0  0  0  0  0  0  0  0  0
    3.5655   -1.0366   -5.8586 H   0  0  0  0  0  0  0  0  0  0  0  0
    3.1461    1.6364   -4.2372 H   0  0  0  0  0  0  0  0  0  0  0  0
    3.1557    1.4554   -5.9909 H   0  0  0  0  0  0  0  0  0  0  0  0
    1.7693    2.1894   -5.1813 H   0  0  0  0  0  0  0  0  0  0  0  0
    2.1024    0.2069    8.9108 H   0  0  0  0  0  0  0  0  0  0  0  0
  1  2  1  0
  1 25  2  0
  1 26  1  0
  2  3  2  0
  2  9  1  0
  3  4  1  0
  3 28  1  0
  4  5  2  0
  4 29  1  0
  5  6  1  0
  5  8  1  0
  6  7  2  0
  6 30  1  0
  7 10  1  0
  7 31  1  0
  8  9  2  0
  8 32  1  0
  9 33  1  0
 10 11  1  0
 10 27  2  0
 11 12  2  0
 11 20  1  0
 12 13  1  0
 12 34  1  0
 13 14  1  0
 13 18  2  0
 14 15  1  0
 14 21  1  1
 14 22  1  0
 15 16  1  0
 15 35  1  0
 15 36  1  0
 16 17  1  0
 16 37  1  0
 16 38  1  0
 17 18  1  0
 17 23  1  1
 17 24  1  0
 18 19  1  0
 19 20  2  0
 19 39  1  0
 20 40  1  0
 21 41  1  0
 21 42  1  0
 21 43  1  0
 22 44  1  0
 22 45  1  0
 22 46  1  0
 23 47  1  0
 23 48  1  0
 23 49  1  0
 24 50  1  0
 24 51  1  0
 24 52  1  0
 26 53  1  0
M  END
