
     RDKit          3D

 66 70  0  0  0  0  0  0  0  0999 V2000
   -2.4333    0.8493   -3.1224 C   0  0  0  0  0  0  0  0  0  0  0  0
   -3.1392    1.4237   -2.0380 O   0  0  0  0  0  0  0  0  0  0  0  0
   -2.9789    0.8794   -0.8242 C   0  0  0  0  0  0  0  0  0  0  0  0
   -2.2017   -0.2158   -0.5191 C   0  0  0  0  0  0  0  0  0  0  0  0
   -2.0614   -0.7026    0.8022 C   0  0  0  0  0  0  0  0  0  0  0  0
   -2.6959   -0.0824    1.8528 C   0  0  0  0  0  0  0  0  0  0  0  0
   -3.4999    1.0255    1.5560 C   0  0  0  0  0  0  0  0  0  0  0  0
   -4.2372    1.8352    2.3682 N   0  0  0  0  0  0  0  0  0  0  0  0
   -4.7998    2.7282    1.6438 N   0  0  0  0  0  0  0  0  0  0  0  0
   -4.4700    2.5589    0.3717 N   0  0  0  0  0  0  0  0  0  0  0  0
   -4.9965    3.4434   -0.6435 C   0  0  0  0  0  0  0  0  0  0  0  0
   -3.6456    1.4889    0.2515 C   0  0  0  0  0  0  0  0  0  0  0  0
   -1.2745   -1.9744    1.0702 C   0  0  1  0  0  0  0  0  0  0  0  0
   -2.2561   -3.1516    1.1039 C   0  0  0  0  0  0  0  0  0  0  0  0
   -1.5895   -4.4586    1.4401 C   0  0  0  0  0  0  0  0  0  0  0  0
   -2.2277   -5.4971    0.9130 O   0  0  0  0  0  0  0  0  0  0  0  0
   -0.6092   -4.5671    2.1331 O   0  0  0  0  0  0  0  0  0  0  0  0
   -0.1364   -2.1996    0.1018 C   0  0  0  0  0  0  0  0  0  0  0  0
   -0.3000   -2.8832   -1.0992 C   0  0  0  0  0  0  0  0  0  0  0  0
    0.7759   -3.0799   -1.9476 C   0  0  0  0  0  0  0  0  0  0  0  0
    2.0517   -2.6097   -1.6428 C   0  0  0  0  0  0  0  0  0  0  0  0
    3.1601   -2.8771   -2.6228 C   0  0  0  0  0  0  0  0  0  0  0  0
    2.2235   -1.9094   -0.4413 C   0  0  0  0  0  0  0  0  0  0  0  0
    3.5643   -1.3837    0.0140 C   0  0  0  0  0  0  0  0  0  0  0  0
    3.8530    0.0177   -0.3030 N   0  0  0  0  0  0  0  0  0  0  0  0
    4.0706    0.3933   -1.6952 C   0  0  0  0  0  0  0  0  0  0  0  0
    2.8274    0.8620   -2.4286 C   0  0  0  0  0  0  0  0  0  0  0  0
    2.4010    2.1560   -2.0030 O   0  0  0  0  0  0  0  0  0  0  0  0
    1.5064    2.2382   -0.9918 C   0  0  0  0  0  0  0  0  0  0  0  0
    0.2931    2.8655   -1.2391 C   0  0  0  0  0  0  0  0  0  0  0  0
   -0.6344    3.0192   -0.2204 C   0  0  0  0  0  0  0  0  0  0  0  0
   -0.3805    2.5153    1.0463 C   0  0  0  0  0  0  0  0  0  0  0  0
    0.8272    1.8902    1.3055 C   0  0  0  0  0  0  0  0  0  0  0  0
    1.7721    1.7622    0.2950 C   0  0  0  0  0  0  0  0  0  0  0  0
    3.4060    1.2172    0.7229 S   0  0  1  0  0  0  0  0  0  0  0  0
    3.3516    0.6581    2.0648 O   0  0  0  0  0  0  0  0  0  0  0  0
    4.2864    2.3449    0.4642 O   0  0  0  0  0  0  0  0  0  0  0  0
    1.1304   -1.7204    0.4021 C   0  0  0  0  0  0  0  0  0  0  0  0
   -2.6866    1.4365   -4.0007 H   0  0  0  0  0  0  0  0  0  0  0  0
   -1.3523    0.8921   -2.9649 H   0  0  0  0  0  0  0  0  0  0  0  0
   -2.7287   -0.1889   -3.2921 H   0  0  0  0  0  0  0  0  0  0  0  0
   -1.6556   -0.7136   -1.3075 H   0  0  0  0  0  0  0  0  0  0  0  0
   -2.5872   -0.4348    2.8707 H   0  0  0  0  0  0  0  0  0  0  0  0
   -5.5821    2.8852   -1.3697 H   0  0  0  0  0  0  0  0  0  0  0  0
   -5.6350    4.1695   -0.1504 H   0  0  0  0  0  0  0  0  0  0  0  0
   -4.1922    3.9661   -1.1549 H   0  0  0  0  0  0  0  0  0  0  0  0
   -0.8390   -1.8823    2.0685 H   0  0  0  0  0  0  0  0  0  0  0  0
   -3.0041   -2.9692    1.8825 H   0  0  0  0  0  0  0  0  0  0  0  0
   -2.8182   -3.2323    0.1723 H   0  0  0  0  0  0  0  0  0  0  0  0
   -1.8005   -6.3227    1.1877 H   0  0  0  0  0  0  0  0  0  0  0  0
   -1.2654   -3.2803   -1.3886 H   0  0  0  0  0  0  0  0  0  0  0  0
    0.6240   -3.6305   -2.8687 H   0  0  0  0  0  0  0  0  0  0  0  0
    3.2554   -2.0670   -3.3498 H   0  0  0  0  0  0  0  0  0  0  0  0
    4.1333   -3.0056   -2.1525 H   0  0  0  0  0  0  0  0  0  0  0  0
    2.9551   -3.7827   -3.1924 H   0  0  0  0  0  0  0  0  0  0  0  0
    3.6569   -1.5099    1.0904 H   0  0  0  0  0  0  0  0  0  0  0  0
    4.3801   -1.9602   -0.4213 H   0  0  0  0  0  0  0  0  0  0  0  0
    4.8487    1.1545   -1.7582 H   0  0  0  0  0  0  0  0  0  0  0  0
    4.4689   -0.4840   -2.2032 H   0  0  0  0  0  0  0  0  0  0  0  0
    3.0627    0.9590   -3.4886 H   0  0  0  0  0  0  0  0  0  0  0  0
    2.0113    0.1400   -2.3262 H   0  0  0  0  0  0  0  0  0  0  0  0
    0.0894    3.2447   -2.2324 H   0  0  0  0  0  0  0  0  0  0  0  0
   -1.5643    3.5328   -0.4259 H   0  0  0  0  0  0  0  0  0  0  0  0
   -1.1090    2.6207    1.8378 H   0  0  0  0  0  0  0  0  0  0  0  0
    1.0403    1.5195    2.2985 H   0  0  0  0  0  0  0  0  0  0  0  0
    1.2793   -1.2064    1.3456 H   0  0  0  0  0  0  0  0  0  0  0  0
  1  2  1  0
 17 15  2  0
  2  3  1  0
 11 10  1  0
 16 15  1  0
 15 14  1  0
  3  4  2  0
  3 12  1  0
 10 12  1  0
 10  9  1  0
  4  5  1  0
 12  7  2  0
  9  8  2  0
 14 13  1  0
  7  8  1  0
  7  6  1  0
  5  6  2  0
  5 13  1  0
 13 18  1  0
 18 38  1  0
 18 19  2  0
 38 23  2  0
 19 20  1  0
 27 28  1  0
 27 26  1  0
 23 24  1  0
 23 21  1  0
 30 31  1  0
 30 29  2  0
 28 29  1  0
 20 21  2  0
 26 25  1  0
 31 32  2  0
 24 25  1  0
 29 34  1  0
 21 22  1  0
 35 25  1  6
 32 33  1  0
 34 33  2  0
 34 35  1  0
 35 36  2  0
 35 37  2  0
  1 39  1  0
  1 40  1  0
  1 41  1  0
  4 42  1  0
  6 43  1  0
 11 44  1  0
 11 45  1  0
 11 46  1  0
 13 47  1  1
 14 48  1  0
 14 49  1  0
 16 50  1  0
 19 51  1  0
 20 52  1  0
 22 53  1  0
 22 54  1  0
 22 55  1  0
 24 56  1  0
 24 57  1  0
 26 58  1  0
 26 59  1  0
 27 60  1  0
 27 61  1  0
 30 62  1  0
 31 63  1  0
 32 64  1  0
 33 65  1  0
 38 66  1  0
M  END
