
     RDKit          3D

 40 40  0  0  0  0  0  0  0  0999 V2000
    1.1638   -3.4241    0.2214 N   0  0  0  0  0  0  0  0  0  0  0  0
   -0.1382   -3.4453    0.4153 C   0  0  0  0  0  0  0  0  0  0  0  0
   -0.8113   -4.7562    0.6759 C   0  0  0  0  0  0  0  0  0  0  0  0
   -0.8959   -2.2572    0.3835 C   0  0  0  0  0  0  0  0  0  0  0  0
   -2.2030   -2.3437    0.5945 O   0  0  0  0  0  0  0  0  0  0  0  0
   -0.2478   -1.0417    0.1312 C   0  0  0  0  0  0  0  0  0  0  0  0
   -1.0123    0.2041    0.0794 C   0  0  0  0  0  0  0  0  0  0  0  0
    1.1438   -1.0548   -0.0718 C   0  0  0  0  0  0  0  0  0  0  0  0
    1.7935   -2.2706   -0.0129 C   0  0  0  0  0  0  0  0  0  0  0  0
    1.8754    0.2298   -0.3464 C   0  0  0  0  0  0  0  0  0  0  0  0
    3.2662   -0.0339   -0.4767 O   0  0  0  0  0  0  0  0  0  0  0  0
    4.2881    1.1973   -0.5135 P   0  0  1  0  0  0  0  0  0  0  0  0
    3.9557    2.2898   -1.4455 O   0  0  0  0  0  0  0  0  0  0  0  0
    4.3720    1.7678    0.9753 O   0  0  0  0  0  0  0  0  0  0  0  0
    5.5997    0.3410   -0.7924 O   0  0  0  0  0  0  0  0  0  0  0  0
   -2.2603    0.2000    0.3104 N   0  0  0  0  0  0  0  0  0  0  0  0
   -3.0770    1.3947    0.3183 C   0  0  2  0  0  0  0  0  0  0  0  0
   -2.4268    2.6508   -0.2592 C   0  0  0  0  0  0  0  0  0  0  0  0
   -2.1556    2.4207   -1.6185 O   0  0  0  0  0  0  0  0  0  0  0  0
   -3.4807    1.6604    1.7727 C   0  0  0  0  0  0  0  0  0  0  0  0
   -4.3462    1.1377   -0.4996 C   0  0  0  0  0  0  0  0  0  0  0  0
   -4.3531   -0.0173   -1.1366 O   0  0  0  0  0  0  0  0  0  0  0  0
   -5.2489    1.9344   -0.5467 O   0  0  0  0  0  0  0  0  0  0  0  0
   -1.3016   -4.7675    1.6510 H   0  0  0  0  0  0  0  0  0  0  0  0
   -1.5811   -4.9675   -0.0683 H   0  0  0  0  0  0  0  0  0  0  0  0
   -0.0795   -5.5604    0.6498 H   0  0  0  0  0  0  0  0  0  0  0  0
    2.8633   -2.3402   -0.1565 H   0  0  0  0  0  0  0  0  0  0  0  0
    1.5040    0.6886   -1.2675 H   0  0  0  0  0  0  0  0  0  0  0  0
    1.6975    0.9384    0.4692 H   0  0  0  0  0  0  0  0  0  0  0  0
    4.6235    1.1316    1.6585 H   0  0  0  0  0  0  0  0  0  0  0  0
    6.3899    0.8746   -0.9538 H   0  0  0  0  0  0  0  0  0  0  0  0
   -0.4664    1.1145   -0.1607 H   0  0  0  0  0  0  0  0  0  0  0  0
   -2.5966    1.9107    2.3592 H   0  0  0  0  0  0  0  0  0  0  0  0
   -4.1813    2.4908    1.8374 H   0  0  0  0  0  0  0  0  0  0  0  0
   -3.9447    0.7803    2.2162 H   0  0  0  0  0  0  0  0  0  0  0  0
   -3.1180    3.4874   -0.1128 H   0  0  0  0  0  0  0  0  0  0  0  0
   -1.5221    2.8918    0.3146 H   0  0  0  0  0  0  0  0  0  0  0  0
   -1.8124    3.2314   -2.0060 H   0  0  0  0  0  0  0  0  0  0  0  0
   -5.1805   -0.1097   -1.6342 H   0  0  0  0  0  0  0  0  0  0  0  0
   -2.5713   -1.4163    0.5468 H   0  0  0  0  0  0  0  0  0  0  0  0
  1  2  2  0
  1  9  1  0
  2  3  1  0
  2  4  1  0
  3 24  1  0
  3 25  1  0
  3 26  1  0
  4  6  2  0
  4  5  1  0
  5 40  1  0
  6  8  1  0
  6  7  1  0
  7 16  2  0
  7 32  1  0
  8  9  2  0
  8 10  1  0
  9 27  1  0
 10 11  1  0
 10 28  1  0
 10 29  1  0
 12 11  1  1
 12 13  2  0
 12 14  1  0
 12 15  1  0
 14 30  1  0
 15 31  1  0
 17 16  1  1
 17 20  1  0
 17 18  1  0
 17 21  1  0
 18 19  1  0
 18 36  1  0
 18 37  1  0
 19 38  1  0
 20 33  1  0
 20 34  1  0
 20 35  1  0
 21 22  1  0
 21 23  2  0
 22 39  1  0
M  END
