
     RDKit          3D

 16 16  0  0  0  0  0  0  0  0999 V2000
   -3.1243   -0.4914   -0.0969 O   0  0  0  0  0  0  0  0  0  0  0  0
   -1.9418   -0.7361   -0.0739 N   0  0  0  0  0  0  0  0  0  0  0  0
   -1.1396    0.2914   -0.0476 N   0  0  0  0  0  0  0  0  0  0  0  0
   -1.6322    1.5435   -0.1551 O   0  0  0  0  0  0  0  0  0  0  0  0
    0.2600    0.1100   -0.0473 C   0  0  0  0  0  0  0  0  0  0  0  0
    0.8025   -1.1720    0.0451 C   0  0  0  0  0  0  0  0  0  0  0  0
    2.1778   -1.3294    0.0446 C   0  0  0  0  0  0  0  0  0  0  0  0
    3.0217   -0.2290   -0.0424 C   0  0  0  0  0  0  0  0  0  0  0  0
    2.4706    1.0393   -0.1305 C   0  0  0  0  0  0  0  0  0  0  0  0
    1.0936    1.2190   -0.1346 C   0  0  0  0  0  0  0  0  0  0  0  0
   -1.8690    1.8379    0.7391 H   0  0  0  0  0  0  0  0  0  0  0  0
    0.1639   -2.0395    0.1190 H   0  0  0  0  0  0  0  0  0  0  0  0
    2.5903   -2.3271    0.1167 H   0  0  0  0  0  0  0  0  0  0  0  0
    4.0952   -0.3608   -0.0418 H   0  0  0  0  0  0  0  0  0  0  0  0
    3.1126    1.9074   -0.1989 H   0  0  0  0  0  0  0  0  0  0  0  0
    0.6901    2.2181   -0.2082 H   0  0  0  0  0  0  0  0  0  0  0  0
  7  6  1  0
  7  8  2  0
  6  5  2  0
  8  9  1  0
  5  3  1  0
  5 10  1  0
  4  3  1  0
  3  2  1  0
  9 10  2  0
  2  1  2  0
  4 11  1  0
  6 12  1  0
  7 13  1  0
  8 14  1  0
  9 15  1  0
 10 16  1  0
M  END
