
     RDKit          3D

 28 27  0  0  0  0  0  0  0  0999 V2000
   -3.7753   -0.4592   -0.0106 C   0  0  0  0  0  0  0  0  0  0  0  0
   -2.5101    0.3849    0.0059 C   0  0  0  0  0  0  0  0  0  0  0  0
   -1.2390   -0.4545   -0.0148 C   0  0  0  0  0  0  0  0  0  0  0  0
    0.0334    0.3833    0.0095 C   0  0  0  0  0  0  0  0  0  0  0  0
    1.3056   -0.4545   -0.0215 C   0  0  0  0  0  0  0  0  0  0  0  0
    2.5776    0.3837    0.0050 C   0  0  0  0  0  0  0  0  0  0  0  0
    3.8528   -0.4501   -0.0303 C   0  0  0  0  0  0  0  0  0  0  0  0
    5.1140    0.4025   -0.0018 C   0  0  0  0  0  0  0  0  0  0  0  0
   -4.9653    0.3811    0.0016 N   0  0  0  0  0  0  0  0  0  0  0  0
   -3.7327   -1.1446   -0.8700 H   0  0  0  0  0  0  0  0  0  0  0  0
   -3.7930   -1.0908    0.8823 H   0  0  0  0  0  0  0  0  0  0  0  0
   -2.5132    1.0576   -0.8597 H   0  0  0  0  0  0  0  0  0  0  0  0
   -2.5180    1.0249    0.8942 H   0  0  0  0  0  0  0  0  0  0  0  0
   -1.2394   -1.1368    0.8427 H   0  0  0  0  0  0  0  0  0  0  0  0
   -1.2362   -1.0903   -0.9075 H   0  0  0  0  0  0  0  0  0  0  0  0
    0.0311    1.0699   -0.8446 H   0  0  0  0  0  0  0  0  0  0  0  0
    0.0356    1.0146    0.9053 H   0  0  0  0  0  0  0  0  0  0  0  0
    1.3072   -1.1439    0.8304 H   0  0  0  0  0  0  0  0  0  0  0  0
    1.3038   -1.0833   -0.9192 H   0  0  0  0  0  0  0  0  0  0  0  0
    2.5744    1.0752   -0.8455 H   0  0  0  0  0  0  0  0  0  0  0  0
    2.5807    1.0111    0.9039 H   0  0  0  0  0  0  0  0  0  0  0  0
    3.8566   -1.1410    0.8186 H   0  0  0  0  0  0  0  0  0  0  0  0
    3.8512   -1.0749   -0.9290 H   0  0  0  0  0  0  0  0  0  0  0  0
    5.1552    1.0717   -0.8633 H   0  0  0  0  0  0  0  0  0  0  0  0
    5.1491    1.0216    0.8968 H   0  0  0  0  0  0  0  0  0  0  0  0
    6.0168   -0.2097   -0.0156 H   0  0  0  0  0  0  0  0  0  0  0  0
   -5.0186    0.8893   -0.8733 H   0  0  0  0  0  0  0  0  0  0  0  0
   -5.7917   -0.2028    0.0245 H   0  0  0  0  0  0  0  0  0  0  0  0
  5  4  1  0
  5  6  1  0
  4  3  1  0
  7  6  1  0
  7  8  1  0
  1  9  1  0
  1  2  1  0
  3  2  1  0
  1 10  1  0
  1 11  1  0
  2 12  1  0
  2 13  1  0
  3 14  1  0
  3 15  1  0
  4 16  1  0
  4 17  1  0
  5 18  1  0
  5 19  1  0
  6 20  1  0
  6 21  1  0
  7 22  1  0
  7 23  1  0
  8 24  1  0
  8 25  1  0
  8 26  1  0
  9 27  1  0
  9 28  1  0
M  END
