
     RDKit          3D

 49 52  0  0  0  0  0  0  0  0999 V2000
    6.6041    0.9256   -0.8559 O   0  0  0  0  0  0  0  0  0  0  0  0
    6.2453   -0.0459   -0.2037 C   0  0  0  0  0  0  0  0  0  0  0  0
    7.1106   -0.9260    0.3190 N   0  0  0  0  0  0  0  0  0  0  0  0
    4.7925   -0.3117    0.0513 C   0  0  0  0  0  0  0  0  0  0  0  0
    4.3013   -1.5718    0.3894 C   0  0  0  0  0  0  0  0  0  0  0  0
    2.9400   -1.7303    0.5873 C   0  0  0  0  0  0  0  0  0  0  0  0
    2.0562   -0.6688    0.4597 C   0  0  0  0  0  0  0  0  0  0  0  0
    2.5391    0.5961    0.1112 C   0  0  0  0  0  0  0  0  0  0  0  0
    1.7645    1.7373   -0.0407 N   0  0  0  0  0  0  0  0  0  0  0  0
    0.4122    1.9283   -0.0427 C   0  0  0  0  0  0  0  0  0  0  0  0
    0.0321    3.1866   -0.2376 N   0  0  0  0  0  0  0  0  0  0  0  0
   -1.2861    3.3248   -0.2381 C   0  0  0  0  0  0  0  0  0  0  0  0
   -2.0205    4.4532   -0.4113 N   0  0  0  0  0  0  0  0  0  0  0  0
   -3.3348    4.0887   -0.3343 C   0  0  0  0  0  0  0  0  0  0  0  0
   -3.5060    2.8179   -0.1261 N   0  0  0  0  0  0  0  0  0  0  0  0
   -2.2305    2.3141   -0.0611 C   0  0  0  0  0  0  0  0  0  0  0  0
   -1.6934    1.0384    0.1302 C   0  0  0  0  0  0  0  0  0  0  0  0
   -2.5008    0.0131    0.2980 O   0  0  0  0  0  0  0  0  0  0  0  0
   -1.9332   -1.2950    0.4366 C   0  0  0  0  0  0  0  0  0  0  0  0
   -3.0529   -2.3144    0.4706 C   0  0  1  0  0  0  0  0  0  0  0  0
   -3.8976   -2.3049   -0.8042 C   0  0  0  0  0  0  0  0  0  0  0  0
   -4.9651   -3.3941   -0.7781 C   0  0  0  0  0  0  0  0  0  0  0  0
   -4.3575   -4.7726   -0.5429 C   0  0  0  0  0  0  0  0  0  0  0  0
   -3.5117   -4.7891    0.7259 C   0  0  0  0  0  0  0  0  0  0  0  0
   -2.4455   -3.7001    0.7011 C   0  0  0  0  0  0  0  0  0  0  0  0
   -0.3866    0.8717    0.1387 N   0  0  0  0  0  0  0  0  0  0  0  0
    3.9133    0.7505   -0.0960 C   0  0  0  0  0  0  0  0  0  0  0  0
    6.8311   -1.6617    0.9435 H   0  0  0  0  0  0  0  0  0  0  0  0
    8.0998   -0.7900    0.1878 H   0  0  0  0  0  0  0  0  0  0  0  0
    4.9521   -2.4316    0.4759 H   0  0  0  0  0  0  0  0  0  0  0  0
    2.5481   -2.7054    0.8457 H   0  0  0  0  0  0  0  0  0  0  0  0
    1.0033   -0.8251    0.6232 H   0  0  0  0  0  0  0  0  0  0  0  0
    2.2805    2.5835   -0.2291 H   0  0  0  0  0  0  0  0  0  0  0  0
   -1.6696    5.3859   -0.5661 H   0  0  0  0  0  0  0  0  0  0  0  0
   -4.1238    4.8167   -0.4441 H   0  0  0  0  0  0  0  0  0  0  0  0
   -1.2597   -1.4933   -0.4027 H   0  0  0  0  0  0  0  0  0  0  0  0
   -1.3421   -1.3397    1.3565 H   0  0  0  0  0  0  0  0  0  0  0  0
   -3.7051   -2.0879    1.3240 H   0  0  0  0  0  0  0  0  0  0  0  0
   -4.3675   -1.3290   -0.9435 H   0  0  0  0  0  0  0  0  0  0  0  0
   -3.2379   -2.4603   -1.6666 H   0  0  0  0  0  0  0  0  0  0  0  0
   -5.6841   -3.1775    0.0197 H   0  0  0  0  0  0  0  0  0  0  0  0
   -5.5307   -3.3825   -1.7131 H   0  0  0  0  0  0  0  0  0  0  0  0
   -5.1452   -5.5274   -0.4803 H   0  0  0  0  0  0  0  0  0  0  0  0
   -3.7339   -5.0464   -1.4008 H   0  0  0  0  0  0  0  0  0  0  0  0
   -4.1625   -4.6376    1.5938 H   0  0  0  0  0  0  0  0  0  0  0  0
   -3.0419   -5.7667    0.8569 H   0  0  0  0  0  0  0  0  0  0  0  0
   -1.7258   -3.9129   -0.0986 H   0  0  0  0  0  0  0  0  0  0  0  0
   -1.8785   -3.7083    1.6365 H   0  0  0  0  0  0  0  0  0  0  0  0
    4.3023    1.7225   -0.3747 H   0  0  0  0  0  0  0  0  0  0  0  0
 14 15  2  0
 14 13  1  0
 15 16  1  0
 22 21  1  0
 22 23  1  0
 21 20  1  0
 13 12  1  0
 23 24  1  0
 16 12  1  0
 16 17  2  0
 18 17  1  0
 18 19  1  0
 12 11  2  0
 17 26  1  0
 20 19  1  0
 20 25  1  0
 24 25  1  0
 11 10  1  0
 26 10  2  0
 10  9  1  0
  9  8  1  0
  3  2  1  0
 27  8  1  0
 27  4  2  0
  8  7  2  0
  2  4  1  0
  2  1  2  0
  4  5  1  0
  7  6  1  0
  5  6  2  0
  3 28  1  0
  3 29  1  0
  5 30  1  0
  6 31  1  0
  7 32  1  0
  9 33  1  0
 13 34  1  0
 14 35  1  0
 19 36  1  0
 19 37  1  0
 20 38  1  1
 21 39  1  0
 21 40  1  0
 22 41  1  0
 22 42  1  0
 23 43  1  0
 23 44  1  0
 24 45  1  0
 24 46  1  0
 25 47  1  0
 25 48  1  0
 27 49  1  0
M  END
