
     RDKit          3D

 23 24  0  0  0  0  0  0  0  0999 V2000
   -0.3507    0.5998    0.1441 N   0  0  0  0  0  0  0  0  0  0  0  0
   -1.6813    0.4087   -0.0305 C   0  0  0  0  0  0  0  0  0  0  0  0
    0.4883   -0.4579    0.6777 C   0  0  0  0  0  0  0  0  0  0  0  0
    1.9321   -0.1292    0.4993 C   0  0  0  0  0  0  0  0  0  0  0  0
    2.8162    0.3100    1.4385 C   0  0  0  0  0  0  0  0  0  0  0  0
    4.1126    0.5596    0.9098 C   0  0  0  0  0  0  0  0  0  0  0  0
   -5.0251   -1.0323    0.2981 C   0  0  0  0  0  0  0  0  0  0  0  0
   -3.7234   -0.3576    0.0899 C   0  0  0  0  0  0  0  0  0  0  0  0
   -2.4744   -0.6351    0.5303 C   0  0  0  0  0  0  0  0  0  0  0  0
    4.1866    0.3121   -0.4262 C   0  0  0  0  0  0  0  0  0  0  0  0
    2.6868   -0.2338   -1.0484 S   0  0  0  0  0  0  0  0  0  0  0  0
   -2.4129    1.2285   -0.7459 N   0  0  0  0  0  0  0  0  0  0  0  0
   -3.7012    0.7410   -0.6624 O   0  0  0  0  0  0  0  0  0  0  0  0
    0.0902    1.2870   -0.4461 H   0  0  0  0  0  0  0  0  0  0  0  0
    0.3011   -0.5854    1.7473 H   0  0  0  0  0  0  0  0  0  0  0  0
    0.2587   -1.4177    0.2017 H   0  0  0  0  0  0  0  0  0  0  0  0
    2.5480    0.4489    2.4770 H   0  0  0  0  0  0  0  0  0  0  0  0
    4.9498    0.9072    1.4976 H   0  0  0  0  0  0  0  0  0  0  0  0
   -5.7466   -0.3620    0.7668 H   0  0  0  0  0  0  0  0  0  0  0  0
   -5.4521   -1.3698   -0.6470 H   0  0  0  0  0  0  0  0  0  0  0  0
   -4.8944   -1.8977    0.9428 H   0  0  0  0  0  0  0  0  0  0  0  0
   -2.1653   -1.4557    1.1554 H   0  0  0  0  0  0  0  0  0  0  0  0
    5.0412    0.4169   -1.0767 H   0  0  0  0  0  0  0  0  0  0  0  0
 10  6  2  0
 10 11  1  0
  6  5  1  0
 11  4  1  0
  5  4  2  0
  4  3  1  0
  3  1  1  0
  1  2  1  0
  2 12  2  0
  2  9  1  0
 12 13  1  0
  9  8  2  0
 13  8  1  0
  8  7  1  0
  1 14  1  0
  3 15  1  0
  3 16  1  0
  5 17  1  0
  6 18  1  0
  7 19  1  0
  7 20  1  0
  7 21  1  0
  9 22  1  0
 10 23  1  0
M  END
