
     RDKit          3D

 47 50  0  0  0  0  0  0  0  0999 V2000
    0.5484    0.1575    1.7606 C   0  0  0  0  0  0  0  0  0  0  0  0
    1.7253    0.8409    1.9127 C   0  0  0  0  0  0  0  0  0  0  0  0
   -1.9023   -3.2534    0.1018 C   0  0  0  0  0  0  0  0  0  0  0  0
   -1.8049   -3.4304   -1.2613 C   0  0  0  0  0  0  0  0  0  0  0  0
   -0.0028   -1.8484   -1.3691 C   0  0  0  0  0  0  0  0  0  0  0  0
    5.8828    0.7935   -0.1620 C   0  0  0  0  0  0  0  0  0  0  0  0
    6.1029    1.7530    0.7745 C   0  0  0  0  0  0  0  0  0  0  0  0
    6.9198    0.3638   -1.1205 C   0  0  0  0  0  0  0  0  0  0  0  0
   -5.2334    0.6113   -2.2272 N   0  0  0  0  0  0  0  0  0  0  0  0
   -5.5809    2.8704   -1.2657 O   0  0  0  0  0  0  0  0  0  0  0  0
   -6.7595    0.9634   -0.1595 O   0  0  0  0  0  0  0  0  0  0  0  0
   -4.1675    1.1338    0.1342 C   0  0  0  0  0  0  0  0  0  0  0  0
   -4.2814    0.3235    1.2518 C   0  0  0  0  0  0  0  0  0  0  0  0
   -3.1533    0.0767    2.0196 C   0  0  0  0  0  0  0  0  0  0  0  0
   -1.9231    0.6283    1.6832 C   0  0  0  0  0  0  0  0  0  0  0  0
   -0.7112    0.3560    2.5395 C   0  0  0  0  0  0  0  0  0  0  0  0
    2.1339    1.7942    2.7339 O   0  0  0  0  0  0  0  0  0  0  0  0
    2.5960    0.3890    0.9691 N   0  0  0  0  0  0  0  0  0  0  0  0
    2.0346   -0.5624    0.1981 N   0  0  0  0  0  0  0  0  0  0  0  0
    0.8158   -0.7085    0.6628 C   0  0  0  0  0  0  0  0  0  0  0  0
   -0.0952   -1.6524    0.0096 C   0  0  0  0  0  0  0  0  0  0  0  0
   -1.0452   -2.3654    0.7344 C   0  0  0  0  0  0  0  0  0  0  0  0
   -0.8557   -2.7315   -1.9895 C   0  0  0  0  0  0  0  0  0  0  0  0
   -0.7828   -2.9200   -3.3111 F   0  0  0  0  0  0  0  0  0  0  0  0
    3.9087    0.7692    0.7545 C   0  0  0  0  0  0  0  0  0  0  0  0
    4.6351    0.2412   -0.1662 N   0  0  0  0  0  0  0  0  0  0  0  0
    4.6938    1.9932    1.7070 S   0  0  0  0  0  0  0  0  0  0  0  0
    8.0336    0.8284   -1.1359 O   0  0  0  0  0  0  0  0  0  0  0  0
    6.4892   -0.5736   -1.9455 O   0  0  0  0  0  0  0  0  0  0  0  0
   -1.8356    1.4458    0.5576 C   0  0  0  0  0  0  0  0  0  0  0  0
   -2.9498    1.7037   -0.2182 C   0  0  0  0  0  0  0  0  0  0  0  0
   -2.6404   -3.8072    0.6663 H   0  0  0  0  0  0  0  0  0  0  0  0
    0.7216   -1.3038   -1.9603 H   0  0  0  0  0  0  0  0  0  0  0  0
    7.0009    2.3205    0.9612 H   0  0  0  0  0  0  0  0  0  0  0  0
   -5.7982    0.9198   -3.0135 H   0  0  0  0  0  0  0  0  0  0  0  0
   -5.3364   -0.3899   -2.0969 H   0  0  0  0  0  0  0  0  0  0  0  0
   -5.2284   -0.1195    1.5270 H   0  0  0  0  0  0  0  0  0  0  0  0
   -3.2372   -0.5652    2.8880 H   0  0  0  0  0  0  0  0  0  0  0  0
   -0.9085   -0.4992    3.1908 H   0  0  0  0  0  0  0  0  0  0  0  0
   -0.5874    1.2011    3.2252 H   0  0  0  0  0  0  0  0  0  0  0  0
   -1.1139   -2.2547    1.8070 H   0  0  0  0  0  0  0  0  0  0  0  0
    7.1990   -0.8228   -2.5565 H   0  0  0  0  0  0  0  0  0  0  0  0
   -0.8850    1.8816    0.2767 H   0  0  0  0  0  0  0  0  0  0  0  0
   -2.8640    2.3398   -1.0892 H   0  0  0  0  0  0  0  0  0  0  0  0
    1.4464    2.0401    3.3664 H   0  0  0  0  0  0  0  0  0  0  0  0
   -2.6212   -4.2744   -1.8984 F   0  0  0  0  0  0  0  0  0  0  0  0
   -5.5875    1.4716   -0.8607 S   0  0  1  0  0  0  0  0  0  0  0  0
 10 47  2  0
 47  9  1  6
 47 11  2  0
 47 12  1  0
 13 12  2  0
 13 14  1  0
 28  8  2  0
 12 31  1  0
 29  8  1  0
  8  6  1  0
  6  7  2  0
  6 26  1  0
 14 15  2  0
  7 27  1  0
 26 25  2  0
 25 27  1  0
 25 18  1  0
 31 30  2  0
 18 19  1  0
 18  2  1  0
 19 20  2  0
 24 23  1  0
 15 30  1  0
 15 16  1  0
  5 23  2  0
  5 21  1  0
  2 17  1  0
  2  1  2  0
 20  1  1  0
 20 21  1  0
 23  4  1  0
  1 16  1  0
 21 22  2  0
  4 46  1  0
  4  3  2  0
 22  3  1  0
  3 32  1  0
  5 33  1  0
  7 34  1  0
  9 35  1  0
  9 36  1  0
 13 37  1  0
 14 38  1  0
 16 39  1  0
 16 40  1  0
 22 41  1  0
 29 42  1  0
 30 43  1  0
 31 44  1  0
 17 45  1  0
M  END
