
     RDKit          3D

 43 45  0  0  0  0  0  0  0  0999 V2000
    5.1974    1.0462    0.0159 C   0  0  0  0  0  0  0  0  0  0  0  0
    3.8393    1.2658   -0.1597 C   0  0  0  0  0  0  0  0  0  0  0  0
    2.9181    0.2207   -0.0951 C   0  0  0  0  0  0  0  0  0  0  0  0
    1.4685    0.4071   -0.2744 C   0  0  0  0  0  0  0  0  0  0  0  0
    0.7098    1.3067    0.4815 C   0  0  0  0  0  0  0  0  0  0  0  0
   -0.6452    1.4201    0.2843 C   0  0  0  0  0  0  0  0  0  0  0  0
   -1.2631    0.6266   -0.7082 C   0  0  0  0  0  0  0  0  0  0  0  0
    0.7591   -0.3536   -1.1917 C   0  0  0  0  0  0  0  0  0  0  0  0
   -3.2670   -0.2889   -1.7908 C   0  0  0  0  0  0  0  0  0  0  0  0
   -4.0431   -1.2286   -0.8710 C   0  0  0  0  0  0  0  0  0  0  0  0
   -5.0104   -0.4432    0.0093 C   0  0  2  0  0  0  0  0  0  0  0  0
   -4.2776    0.6844    0.7528 C   0  0  0  0  0  0  0  0  0  0  0  0
   -3.5098    1.5392   -0.2488 C   0  0  0  0  0  0  0  0  0  0  0  0
    3.3176    2.8833   -0.5135 Cl  0  0  0  0  0  0  0  0  0  0  0  0
    3.4260   -1.0588    0.1434 C   0  0  0  0  0  0  0  0  0  0  0  0
    4.7814   -1.3081    0.3053 C   0  0  0  0  0  0  0  0  0  0  0  0
    5.2758   -2.7122    0.5131 C   0  0  0  0  0  0  0  0  0  0  0  0
    6.3013   -2.7099    1.4773 O   0  0  0  0  0  0  0  0  0  0  0  0
    5.6667   -0.2353    0.2480 C   0  0  0  0  0  0  0  0  0  0  0  0
   -0.5434   -0.2550   -1.4057 N   0  0  0  0  0  0  0  0  0  0  0  0
   -2.5854    0.7403   -1.0258 N   0  0  0  0  0  0  0  0  0  0  0  0
    5.8904    1.8748   -0.0400 H   0  0  0  0  0  0  0  0  0  0  0  0
    1.1781    1.9071    1.2509 H   0  0  0  0  0  0  0  0  0  0  0  0
   -1.2064    2.1046    0.9018 H   0  0  0  0  0  0  0  0  0  0  0  0
    1.2809   -1.0833   -1.8049 H   0  0  0  0  0  0  0  0  0  0  0  0
   -2.5455   -0.8432   -2.3827 H   0  0  0  0  0  0  0  0  0  0  0  0
   -3.9543    0.2043   -2.4857 H   0  0  0  0  0  0  0  0  0  0  0  0
   -4.5816   -1.9577   -1.4795 H   0  0  0  0  0  0  0  0  0  0  0  0
   -3.3362   -1.7849   -0.2498 H   0  0  0  0  0  0  0  0  0  0  0  0
   -5.7655    0.0290   -0.6339 H   0  0  0  0  0  0  0  0  0  0  0  0
   -4.9817    1.3155    1.2959 H   0  0  0  0  0  0  0  0  0  0  0  0
   -3.5829    0.2614    1.4847 H   0  0  0  0  0  0  0  0  0  0  0  0
   -4.2176    2.0015   -0.9444 H   0  0  0  0  0  0  0  0  0  0  0  0
   -3.0013    2.3601    0.2489 H   0  0  0  0  0  0  0  0  0  0  0  0
    2.7226   -1.8801    0.2193 H   0  0  0  0  0  0  0  0  0  0  0  0
    4.4344   -3.3499    0.8117 H   0  0  0  0  0  0  0  0  0  0  0  0
    5.6343   -3.1022   -0.4482 H   0  0  0  0  0  0  0  0  0  0  0  0
    6.7323   -3.5691    1.4575 H   0  0  0  0  0  0  0  0  0  0  0  0
    6.7298   -0.3887    0.3774 H   0  0  0  0  0  0  0  0  0  0  0  0
   -7.1013   -1.2759    2.2966 H   0  0  0  0  0  0  0  0  0  0  0  0
   -5.7584   -1.3432    0.9624 C   0  0  0  0  0  0  0  0  0  0  0  0
   -6.6427   -0.6720    1.6931 O   0  0  0  0  0  0  0  0  0  0  0  0
   -5.5940   -2.5337    1.0660 O   0  0  0  0  0  0  0  0  0  0  0  0
 17 18  1  0
 17 16  1  0
 16 19  1  0
 16 15  2  0
 19  1  2  0
 15  3  1  0
  1  2  1  0
  3  2  2  0
  3  4  1  0
  5  4  2  0
  5  6  1  0
  2 14  1  0
  4  8  1  0
  6  7  2  0
  8 20  2  0
  7 20  1  0
  7 21  1  0
  9 21  1  0
  9 10  1  0
 21 13  1  0
 13 12  1  0
 10 11  1  0
 11 12  1  0
 11 41  1  0
 43 41  2  0
 41 42  1  0
  1 22  1  0
  5 23  1  0
  6 24  1  0
  8 25  1  0
  9 26  1  0
  9 27  1  0
 10 28  1  0
 10 29  1  0
 11 30  1  6
 12 31  1  0
 12 32  1  0
 13 33  1  0
 13 34  1  0
 15 35  1  0
 17 36  1  0
 17 37  1  0
 18 38  1  0
 19 39  1  0
 42 40  1  0
M  END
