
     RDKit          3D

 25 26  0  0  0  0  0  0  0  0999 V2000
   -0.0525   -1.1186   -0.0600 N   0  0  0  0  0  0  0  0  0  0  0  0
   -1.3443   -0.7205   -0.0457 C   0  0  0  0  0  0  0  0  0  0  0  0
   -1.4153    0.6590    0.0149 C   0  0  0  0  0  0  0  0  0  0  0  0
   -2.5234    1.6169    0.1215 C   0  0  0  0  0  0  0  0  0  0  0  0
   -3.6695    1.3237    0.3359 O   0  0  0  0  0  0  0  0  0  0  0  0
   -2.0841    2.8604   -0.0331 O   0  0  0  0  0  0  0  0  0  0  0  0
    2.1354    0.0089   -0.0073 C   0  0  0  0  0  0  0  0  0  0  0  0
    2.8380   -1.1953    0.0591 C   0  0  0  0  0  0  0  0  0  0  0  0
    4.2228   -1.1966    0.0641 C   0  0  0  0  0  0  0  0  0  0  0  0
    4.9237    0.0016    0.0030 C   0  0  0  0  0  0  0  0  0  0  0  0
    4.2303    1.2025   -0.0645 C   0  0  0  0  0  0  0  0  0  0  0  0
    2.8440    1.2085   -0.0708 C   0  0  0  0  0  0  0  0  0  0  0  0
    0.6755   -0.0250   -0.0118 C   0  0  0  0  0  0  0  0  0  0  0  0
   -3.5720   -1.4380   -0.4592 O   0  0  0  0  0  0  0  0  0  0  0  0
   -2.0131   -2.9299    0.1184 O   0  0  0  0  0  0  0  0  0  0  0  0
   -0.1151    1.0651    0.0337 N   0  0  0  0  0  0  0  0  0  0  0  0
   -2.4384   -1.7051   -0.1518 C   0  0  0  0  0  0  0  0  0  0  0  0
    0.1867    2.0264    0.1047 H   0  0  0  0  0  0  0  0  0  0  0  0
   -2.8105    3.4920    0.0821 H   0  0  0  0  0  0  0  0  0  0  0  0
    2.2941   -2.1291    0.1095 H   0  0  0  0  0  0  0  0  0  0  0  0
    2.3308    2.1600   -0.1328 H   0  0  0  0  0  0  0  0  0  0  0  0
    4.7572   -2.1358    0.1178 H   0  0  0  0  0  0  0  0  0  0  0  0
    6.0056   -0.0008    0.0066 H   0  0  0  0  0  0  0  0  0  0  0  0
    4.7686    2.1394   -0.1158 H   0  0  0  0  0  0  0  0  0  0  0  0
   -2.7442   -3.5574    0.0135 H   0  0  0  0  0  0  0  0  0  0  0  0
  1  2  1  0
  1 13  2  0
  2  3  2  0
  2 17  1  0
  3  4  1  0
  3 16  1  0
  4  5  2  0
  4  6  1  0
  7  8  2  0
  7 12  1  0
  7 13  1  0
  8  9  1  0
  9 10  2  0
 10 11  1  0
 11 12  2  0
 13 16  1  0
 14 17  2  0
 15 17  1  0
 16 18  1  0
  6 19  1  0
  8 20  1  0
 12 21  1  0
  9 22  1  0
 10 23  1  0
 11 24  1  0
 15 25  1  0
M  END
