
     RDKit          3D

 57 60  0  0  0  0  0  0  0  0999 V2000
    1.8714    1.2321    0.5348 C   0  0  2  0  0  0  0  0  0  0  0  0
    0.5961    1.5385   -0.2501 C   0  0  2  0  0  0  0  0  0  0  0  0
    0.5685    3.0676   -0.2836 C   0  0  0  0  0  0  0  0  0  0  0  0
    1.9697    3.3914   -0.4617 N   0  0  0  0  0  0  0  0  0  0  0  0
    2.6922    2.5451    0.4753 C   0  0  0  0  0  0  0  0  0  0  0  0
    2.6590    0.0672   -0.0394 C   0  0  0  0  0  0  0  0  0  0  0  0
   -0.6601    0.9733    0.3781 C   0  0  0  0  0  0  0  0  0  0  0  0
   -1.6512    0.7424   -0.5235 N   0  0  0  0  0  0  0  0  0  0  0  0
   -0.7755    0.7874    1.5740 O   0  0  0  0  0  0  0  0  0  0  0  0
    2.5510   -0.3108   -1.1848 O   0  0  0  0  0  0  0  0  0  0  0  0
    3.5255   -0.4673    0.8737 N   0  0  0  0  0  0  0  0  0  0  0  0
    4.4735   -1.4698    0.7142 C   0  0  0  0  0  0  0  0  0  0  0  0
    4.6844   -1.9931   -0.4794 N   0  0  0  0  0  0  0  0  0  0  0  0
    6.3445   -3.4129    0.4599 C   0  0  0  0  0  0  0  0  0  0  0  0
    6.1329   -2.8649    1.7183 C   0  0  0  0  0  0  0  0  0  0  0  0
    5.5985   -2.9459   -0.6057 C   0  0  0  0  0  0  0  0  0  0  0  0
    5.1815   -1.8783    1.8512 C   0  0  0  0  0  0  0  0  0  0  0  0
    7.5189   -4.6552    0.2216 Cl  0  0  0  0  0  0  0  0  0  0  0  0
   -2.9456    0.2875   -0.2863 C   0  0  0  0  0  0  0  0  0  0  0  0
   -3.5511    0.1890    0.9649 C   0  0  0  0  0  0  0  0  0  0  0  0
   -5.5830   -0.6235   -0.0392 C   0  0  0  0  0  0  0  0  0  0  0  0
   -5.0078   -0.5309   -1.2984 C   0  0  0  0  0  0  0  0  0  0  0  0
   -4.8560   -0.2701    1.0823 C   0  0  0  0  0  0  0  0  0  0  0  0
   -3.7123   -0.0861   -1.3933 C   0  0  0  0  0  0  0  0  0  0  0  0
   -6.9350   -1.0543    0.0947 N   0  0  0  0  0  0  0  0  0  0  0  0
   -7.8713   -0.1446    0.4869 C   0  0  0  0  0  0  0  0  0  0  0  0
   -9.5352   -1.8376    0.4242 C   0  0  0  0  0  0  0  0  0  0  0  0
   -8.6091   -2.7508    0.0347 C   0  0  0  0  0  0  0  0  0  0  0  0
   -9.1681   -0.4911    0.6614 C   0  0  0  0  0  0  0  0  0  0  0  0
   -7.2266   -2.4001   -0.1512 C   0  0  0  0  0  0  0  0  0  0  0  0
   -6.3381   -3.1731   -0.4883 O   0  0  0  0  0  0  0  0  0  0  0  0
   -3.1486    0.0074   -2.6089 F   0  0  0  0  0  0  0  0  0  0  0  0
    2.2414    4.8041   -0.3581 C   0  0  0  0  0  0  0  0  0  0  0  0
    3.5322    5.2302   -1.0085 C   0  0  1  0  0  0  0  0  0  0  0  0
    4.6168    4.6793   -0.3835 F   0  0  0  0  0  0  0  0  0  0  0  0
    3.5858    4.8067   -2.3016 F   0  0  0  0  0  0  0  0  0  0  0  0
    1.6247    1.0161    1.5761 H   0  0  0  0  0  0  0  0  0  0  0  0
    0.7008    1.1776   -1.2757 H   0  0  0  0  0  0  0  0  0  0  0  0
    2.7340    2.9904    1.4796 H   0  0  0  0  0  0  0  0  0  0  0  0
    3.7203    2.3795    0.1528 H   0  0  0  0  0  0  0  0  0  0  0  0
   -0.0319    3.4586   -1.1064 H   0  0  0  0  0  0  0  0  0  0  0  0
    0.1573    3.4679    0.6582 H   0  0  0  0  0  0  0  0  0  0  0  0
    1.4445    5.3547   -0.8636 H   0  0  0  0  0  0  0  0  0  0  0  0
    2.2508    5.1639    0.6834 H   0  0  0  0  0  0  0  0  0  0  0  0
    3.4712   -0.0856    1.8060 H   0  0  0  0  0  0  0  0  0  0  0  0
   -1.4103    0.8947   -1.4911 H   0  0  0  0  0  0  0  0  0  0  0  0
    4.9908   -1.4308    2.8179 H   0  0  0  0  0  0  0  0  0  0  0  0
    5.7442   -3.3532   -1.5997 H   0  0  0  0  0  0  0  0  0  0  0  0
    6.6984   -3.2001    2.5771 H   0  0  0  0  0  0  0  0  0  0  0  0
   -3.0136    0.4637    1.8564 H   0  0  0  0  0  0  0  0  0  0  0  0
   -5.3023   -0.3476    2.0650 H   0  0  0  0  0  0  0  0  0  0  0  0
   -5.5554   -0.7911   -2.1944 H   0  0  0  0  0  0  0  0  0  0  0  0
   -7.5111    0.8627    0.6404 H   0  0  0  0  0  0  0  0  0  0  0  0
   -9.8898    0.2506    0.9675 H   0  0  0  0  0  0  0  0  0  0  0  0
  -10.5662   -2.1403    0.5555 H   0  0  0  0  0  0  0  0  0  0  0  0
   -8.8793   -3.7823   -0.1455 H   0  0  0  0  0  0  0  0  0  0  0  0
    3.6526    6.3146   -0.9917 H   0  0  0  0  0  0  0  0  0  0  0  0
  1  2  1  0
  1  5  1  0
  1  6  1  0
  2  3  1  0
  2  7  1  0
  3  4  1  0
  4  5  1  0
  4 33  1  0
  6 10  2  0
  6 11  1  0
  7  8  1  0
  7  9  2  0
  8 19  1  0
 11 12  1  0
 12 13  2  0
 12 17  1  0
 13 16  1  0
 14 15  1  0
 14 16  2  0
 14 18  1  0
 15 17  2  0
 19 20  2  0
 19 24  1  0
 20 23  1  0
 21 22  1  0
 21 23  2  0
 21 25  1  0
 22 24  2  0
 24 32  1  0
 25 26  1  0
 25 30  1  0
 26 29  2  0
 27 28  2  0
 27 29  1  0
 28 30  1  0
 30 31  2  0
 33 34  1  0
 34 35  1  0
 34 36  1  0
  1 37  1  1
  2 38  1  6
  5 39  1  0
  5 40  1  0
  3 41  1  0
  3 42  1  0
 33 43  1  0
 33 44  1  0
 11 45  1  0
  8 46  1  0
 17 47  1  0
 16 48  1  0
 15 49  1  0
 20 50  1  0
 23 51  1  0
 22 52  1  0
 26 53  1  0
 29 54  1  0
 27 55  1  0
 28 56  1  0
 34 57  1  6
M  END
