
     RDKit          3D

 56 58  0  0  0  0  0  0  0  0999 V2000
   -0.6079   -4.3497   -0.3592 C   0  0  0  0  0  0  0  0  0  0  0  0
    2.9303    6.4724    0.2664 C   0  0  0  0  0  0  0  0  0  0  0  0
   -8.1745   -0.2142    0.0553 C   0  0  0  0  0  0  0  0  0  0  0  0
    6.0787   -4.0446    0.3738 C   0  0  0  0  0  0  0  0  0  0  0  0
    4.7653   -4.3281    0.5610 C   0  0  0  0  0  0  0  0  0  0  0  0
    6.1572   -2.6355    0.2101 C   0  0  0  0  0  0  0  0  0  0  0  0
   -5.6713   -1.7472   -0.0824 C   0  0  0  0  0  0  0  0  0  0  0  0
   -4.5133   -2.5063   -0.1495 C   0  0  0  0  0  0  0  0  0  0  0  0
    2.7388    1.7574    0.2606 C   0  0  0  0  0  0  0  0  0  0  0  0
    0.4948    2.6619    0.2951 C   0  0  0  0  0  0  0  0  0  0  0  0
    0.8526    0.2695    0.3292 C   0  0  0  0  0  0  0  0  0  0  0  0
   -4.3725    0.2710   -0.1880 C   0  0  0  0  0  0  0  0  0  0  0  0
   -2.0567   -3.9344   -0.2820 C   0  0  0  0  0  0  0  0  0  0  0  0
    1.9274    5.3476    0.2646 C   0  0  0  0  0  0  0  0  0  0  0  0
   -1.4806    1.1702    0.3814 C   0  0  0  0  0  0  0  0  0  0  0  0
    1.8725    2.8556    0.2551 C   0  0  0  0  0  0  0  0  0  0  0  0
    2.2350    0.4645    0.3084 C   0  0  0  0  0  0  0  0  0  0  0  0
   -5.6195   -0.3578   -0.1003 C   0  0  0  0  0  0  0  0  0  0  0  0
    0.0019    1.3617    0.3156 C   0  0  0  0  0  0  0  0  0  0  0  0
   -3.2100   -0.4692   -0.2378 C   0  0  0  0  0  0  0  0  0  0  0  0
   -3.2760   -1.8787   -0.2193 C   0  0  0  0  0  0  0  0  0  0  0  0
    4.8828   -2.1735    0.3098 C   0  0  0  0  0  0  0  0  0  0  0  0
    3.0224   -0.6851    0.3571 N   0  0  0  0  0  0  0  0  0  0  0  0
    0.7285    5.5480    0.3333 O   0  0  0  0  0  0  0  0  0  0  0  0
   -2.1966    1.9206    1.0182 O   0  0  0  0  0  0  0  0  0  0  0  0
    5.1347    0.1280    0.0397 O   0  0  0  0  0  0  0  0  0  0  0  0
   -2.1001   -2.5085   -0.2780 O   0  0  0  0  0  0  0  0  0  0  0  0
    4.0332   -3.2033    0.5233 O   0  0  0  0  0  0  0  0  0  0  0  0
   -0.0421   -3.9795    0.4961 H   0  0  0  0  0  0  0  0  0  0  0  0
   -0.5444   -5.4373   -0.3563 H   0  0  0  0  0  0  0  0  0  0  0  0
   -0.1380   -3.9886   -1.2740 H   0  0  0  0  0  0  0  0  0  0  0  0
    2.5408    7.3119   -0.3056 H   0  0  0  0  0  0  0  0  0  0  0  0
    3.0792    6.8132    1.2925 H   0  0  0  0  0  0  0  0  0  0  0  0
    3.9002    6.1907   -0.1388 H   0  0  0  0  0  0  0  0  0  0  0  0
   -8.3290   -0.8875   -0.7890 H   0  0  0  0  0  0  0  0  0  0  0  0
   -8.2281   -0.8202    0.9613 H   0  0  0  0  0  0  0  0  0  0  0  0
   -8.9803    0.5153    0.0737 H   0  0  0  0  0  0  0  0  0  0  0  0
    6.8895   -4.7535    0.3563 H   0  0  0  0  0  0  0  0  0  0  0  0
    4.2305   -5.2489    0.7288 H   0  0  0  0  0  0  0  0  0  0  0  0
    7.0413   -2.0434    0.0399 H   0  0  0  0  0  0  0  0  0  0  0  0
   -6.6161   -2.2698   -0.0171 H   0  0  0  0  0  0  0  0  0  0  0  0
   -4.5909   -3.5842   -0.1343 H   0  0  0  0  0  0  0  0  0  0  0  0
    3.8039    1.9267    0.2380 H   0  0  0  0  0  0  0  0  0  0  0  0
   -0.1889    3.4933    0.2968 H   0  0  0  0  0  0  0  0  0  0  0  0
    0.4596   -0.7391    0.3961 H   0  0  0  0  0  0  0  0  0  0  0  0
   -4.3229    1.3487   -0.2251 H   0  0  0  0  0  0  0  0  0  0  0  0
   -2.6172   -4.3205   -1.1387 H   0  0  0  0  0  0  0  0  0  0  0  0
   -2.5237   -4.3212    0.6286 H   0  0  0  0  0  0  0  0  0  0  0  0
    3.4934    4.0797    0.1649 H   0  0  0  0  0  0  0  0  0  0  0  0
    2.5033   -1.5410    0.4876 H   0  0  0  0  0  0  0  0  0  0  0  0
   -1.2533   -0.4168   -0.8553 H   0  0  0  0  0  0  0  0  0  0  0  0
   -1.9320    0.1022   -0.3199 N   0  0  0  0  0  0  0  0  0  0  0  0
   -6.8426    0.4796   -0.0430 C   0  0  0  0  0  0  0  0  0  0  0  0
    2.4860    4.1072    0.2102 N   0  0  0  0  0  0  0  0  0  0  0  0
   -6.7667    1.6924   -0.0732 O   0  0  0  0  0  0  0  0  0  0  0  0
    4.3691   -0.8029    0.2222 C   0  0  0  0  0  0  0  0  0  0  0  0
  5 28  1  0
  5  4  2  0
 28 22  1  0
  4  6  1  0
 22  6  2  0
 22 56  1  0
 26 56  2  0
 56 23  1  0
 23 17  1  0
 25 15  2  0
 11 17  1  0
 11 19  2  0
 17  9  2  0
 15 19  1  0
 15 52  1  0
 19 10  1  0
  9 16  1  0
  1 13  1  0
 13 27  1  0
  8  7  2  0
  8 21  1  0
  7 18  1  0
 27 21  1  0
 21 20  2  0
 55 53  2  0
 18 53  1  0
 18 12  2  0
 53  3  1  0
 20 12  1  0
 20 52  1  0
 10 16  2  0
 16 54  1  0
 54 14  1  0
 14 24  2  0
 14  2  1  0
  1 29  1  0
  1 30  1  0
  1 31  1  0
  2 32  1  0
  2 33  1  0
  2 34  1  0
  3 35  1  0
  3 36  1  0
  3 37  1  0
  4 38  1  0
  5 39  1  0
  6 40  1  0
  7 41  1  0
  8 42  1  0
  9 43  1  0
 10 44  1  0
 11 45  1  0
 12 46  1  0
 13 47  1  0
 13 48  1  0
 54 49  1  0
 23 50  1  0
 52 51  1  0
M  END
