
     RDKit          3D

 32 31  0  0  0  0  0  0  0  0999 V2000
   -0.4579   -3.4353   -3.1154 O   0  0  0  0  0  0  0  0  0  0  0  0
    0.6329   -2.7971   -2.6156 C   0  0  0  0  0  0  0  0  0  0  0  0
    1.1092   -1.8727   -3.2781 O   0  0  0  0  0  0  0  0  0  0  0  0
    1.0961   -3.3515   -1.2779 C   0  0  1  0  0  0  0  0  0  0  0  0
    2.5361   -3.2596   -1.1613 N   0  0  0  0  0  0  0  0  0  0  0  0
    0.2672   -2.6681   -0.1717 C   0  0  0  0  0  0  0  0  0  0  0  0
   -5.4715    1.9141    2.5091 C   0  0  0  0  0  0  0  0  0  0  0  0
   -5.1399    2.8403    3.2558 O   0  0  0  0  0  0  0  0  0  0  0  0
   -6.6817    1.3377    2.7386 O   0  0  0  0  0  0  0  0  0  0  0  0
   -3.7895    2.2479    0.7118 N   0  0  0  0  0  0  0  0  0  0  0  0
   -3.6929   -0.4735   -0.6735 O   0  0  0  0  0  0  0  0  0  0  0  0
    0.7127   -1.2616    0.1232 C   0  0  0  0  0  0  0  0  0  0  0  0
   -0.2754   -0.4233    1.3275 S   0  0  0  0  0  0  0  0  0  0  0  0
   -1.5874    0.1192    0.5704 N   0  0  0  0  0  0  0  0  0  0  0  0
   -2.9799   -0.7333    0.6030 S   0  0  0  0  0  0  0  0  0  0  0  0
   -3.9842    0.0567    1.8267 C   0  0  0  0  0  0  0  0  0  0  0  0
   -4.6950    1.3162    1.3420 C   0  0  1  0  0  0  0  0  0  0  0  0
   -0.7072   -3.0399   -3.9676 H   0  0  0  0  0  0  0  0  0  0  0  0
    0.8384   -4.4557   -1.2589 H   0  0  0  0  0  0  0  0  0  0  0  0
    2.8082   -3.3298   -0.2005 H   0  0  0  0  0  0  0  0  0  0  0  0
    2.8767   -2.3986   -1.5469 H   0  0  0  0  0  0  0  0  0  0  0  0
    0.3371   -3.2930    0.7575 H   0  0  0  0  0  0  0  0  0  0  0  0
   -0.8072   -2.6716   -0.4987 H   0  0  0  0  0  0  0  0  0  0  0  0
   -7.1126    1.7718    3.4940 H   0  0  0  0  0  0  0  0  0  0  0  0
   -3.1248    2.6091    1.3689 H   0  0  0  0  0  0  0  0  0  0  0  0
   -4.2955    3.0085    0.3027 H   0  0  0  0  0  0  0  0  0  0  0  0
    1.7316   -1.2605    0.5908 H   0  0  0  0  0  0  0  0  0  0  0  0
    0.7769   -0.6740   -0.8280 H   0  0  0  0  0  0  0  0  0  0  0  0
   -1.4940    0.9397    0.0172 H   0  0  0  0  0  0  0  0  0  0  0  0
   -3.3754    0.2718    2.7382 H   0  0  0  0  0  0  0  0  0  0  0  0
   -4.7694   -0.6902    2.1176 H   0  0  0  0  0  0  0  0  0  0  0  0
   -5.4655    1.0015    0.5659 H   0  0  0  0  0  0  0  0  0  0  0  0
  1  2  1  0
  1 18  1  0
  2  3  2  0
  2  4  1  0
  4  5  1  0
  4  6  1  0
  4 19  1  6
  5 20  1  0
  5 21  1  0
  6 12  1  0
  6 22  1  0
  6 23  1  0
  7  8  2  0
  7  9  1  0
  7 17  1  0
  9 24  1  0
 10 17  1  0
 10 25  1  0
 10 26  1  0
 11 15  2  0
 12 13  1  0
 12 27  1  0
 12 28  1  0
 13 14  1  0
 15 14  1  6
 14 29  1  0
 15 16  1  0
 16 17  1  0
 16 30  1  0
 16 31  1  0
 17 32  1  6
M  END
