
     RDKit          3D

 57 58  0  0  0  0  0  0  0  0999 V2000
    0.9617   -1.7991    0.4558 C   0  0  0  0  0  0  0  0  0  0  0  0
    1.9071   -1.0818   -0.2589 C   0  0  0  0  0  0  0  0  0  0  0  0
   -2.4653   -0.4458   -0.0444 C   0  0  0  0  0  0  0  0  0  0  0  0
   -3.0190    2.9261   -0.0733 C   0  0  0  0  0  0  0  0  0  0  0  0
   -3.4335    0.4744    0.2960 C   0  0  0  0  0  0  0  0  0  0  0  0
   -4.6845   -0.0852   -0.1222 C   0  0  0  0  0  0  0  0  0  0  0  0
   -4.4110   -1.3247   -0.7123 C   0  0  0  0  0  0  0  0  0  0  0  0
   -1.0177   -0.3975    0.1730 C   0  0  0  0  0  0  0  0  0  0  0  0
    7.0283    1.5917    0.6955 C   0  0  0  0  0  0  0  0  0  0  0  0
   -6.0526    0.4226   -0.0171 C   0  0  0  0  0  0  0  0  0  0  0  0
   -6.9817   -0.1495   -0.5555 O   0  0  0  0  0  0  0  0  0  0  0  0
   -6.3176    1.6685    0.8013 C   0  0  0  0  0  0  0  0  0  0  0  0
    2.7459   -2.9587    1.6072 C   0  0  0  0  0  0  0  0  0  0  0  0
    3.6870   -2.2167    0.9170 C   0  0  0  0  0  0  0  0  0  0  0  0
    1.3872   -2.7483    1.3976 C   0  0  0  0  0  0  0  0  0  0  0  0
    3.2598   -1.2761   -0.0108 C   0  0  0  0  0  0  0  0  0  0  0  0
   -5.2867   -2.3432   -1.3473 C   0  0  0  0  0  0  0  0  0  0  0  0
    3.9868    3.3104   -0.6823 C   0  0  0  0  0  0  0  0  0  0  0  0
   -3.0912   -1.5197   -0.6347 N   0  0  0  0  0  0  0  0  0  0  0  0
   -0.4112   -1.6228    0.2495 N   0  0  0  0  0  0  0  0  0  0  0  0
    4.6637    1.0539    0.1141 N   0  0  0  0  0  0  0  0  0  0  0  0
   -0.4027    0.6499    0.2776 O   0  0  0  0  0  0  0  0  0  0  0  0
    5.7018   -0.9799   -0.8824 O   0  0  0  0  0  0  0  0  0  0  0  0
    3.8289    0.1997   -2.0785 O   0  0  0  0  0  0  0  0  0  0  0  0
    0.4337   -3.4249    2.0510 O   0  0  0  0  0  0  0  0  0  0  0  0
    4.4414   -0.2536   -0.8382 S   0  0  1  0  0  0  0  0  0  0  0  0
   -7.6831    1.9558    0.7720 O   0  0  0  0  0  0  0  0  0  0  0  0
    1.5839   -0.3883   -1.0210 H   0  0  0  0  0  0  0  0  0  0  0  0
   -3.9024    3.0161   -0.7069 H   0  0  0  0  0  0  0  0  0  0  0  0
   -2.8714    3.8826    0.4287 H   0  0  0  0  0  0  0  0  0  0  0  0
   -2.1629    2.7481   -0.7229 H   0  0  0  0  0  0  0  0  0  0  0  0
   -2.2460    1.7335    1.5304 H   0  0  0  0  0  0  0  0  0  0  0  0
   -3.9471    2.0377    1.6625 H   0  0  0  0  0  0  0  0  0  0  0  0
    5.8242    0.0177    1.5386 H   0  0  0  0  0  0  0  0  0  0  0  0
    5.3080    1.6156    1.9893 H   0  0  0  0  0  0  0  0  0  0  0  0
    7.7447    1.5643    1.5169 H   0  0  0  0  0  0  0  0  0  0  0  0
    7.4370    1.0095   -0.1285 H   0  0  0  0  0  0  0  0  0  0  0  0
    6.9325    2.6269    0.3688 H   0  0  0  0  0  0  0  0  0  0  0  0
   -5.9524    1.4841    1.8215 H   0  0  0  0  0  0  0  0  0  0  0  0
   -5.7124    2.4918    0.3991 H   0  0  0  0  0  0  0  0  0  0  0  0
    3.0697   -3.7021    2.3260 H   0  0  0  0  0  0  0  0  0  0  0  0
    4.7383   -2.3908    1.0999 H   0  0  0  0  0  0  0  0  0  0  0  0
   -6.0723   -2.6726   -0.6690 H   0  0  0  0  0  0  0  0  0  0  0  0
   -5.7756   -1.9481   -2.2368 H   0  0  0  0  0  0  0  0  0  0  0  0
   -4.7036   -3.2161   -1.6385 H   0  0  0  0  0  0  0  0  0  0  0  0
    4.1311    3.0419   -1.7280 H   0  0  0  0  0  0  0  0  0  0  0  0
    3.1850    4.0470   -0.6265 H   0  0  0  0  0  0  0  0  0  0  0  0
    4.9004    3.7829   -0.3216 H   0  0  0  0  0  0  0  0  0  0  0  0
    3.4738    2.3651    1.1883 H   0  0  0  0  0  0  0  0  0  0  0  0
    2.6750    1.6799   -0.1918 H   0  0  0  0  0  0  0  0  0  0  0  0
   -2.6229   -2.3089   -1.0543 H   0  0  0  0  0  0  0  0  0  0  0  0
   -0.9939   -2.4270    0.4283 H   0  0  0  0  0  0  0  0  0  0  0  0
    0.8210   -4.0901    2.6321 H   0  0  0  0  0  0  0  0  0  0  0  0
   -7.8246    2.7389    1.3115 H   0  0  0  0  0  0  0  0  0  0  0  0
   -3.1627    1.7969    0.9463 C   0  0  0  0  0  0  0  0  0  0  0  0
    5.6935    1.0307    1.1533 C   0  0  0  0  0  0  0  0  0  0  0  0
    3.6300    2.0884    0.1444 C   0  0  0  0  0  0  0  0  0  0  0  0
 17  7  1  0
  9 56  1  0
 24 26  2  0
  7 19  1  0
  7  6  2  0
 19  3  1  0
 56 21  1  0
 12 27  1  0
 12 10  1  0
 22  8  2  0
  6 10  1  0
  6  5  1  0
  3  8  1  0
  3  5  2  0
 26 21  1  1
 21 57  1  0
 10 11  2  0
 26 23  2  0
 26 16  1  0
  8 20  1  0
  5 55  1  0
  2 16  2  0
  2  1  1  0
 57 18  1  0
 16 14  1  0
 20  1  1  0
 55  4  1  0
  1 15  2  0
 14 13  2  0
 15 13  1  0
 15 25  1  0
  2 28  1  0
  4 29  1  0
  4 30  1  0
  4 31  1  0
 55 32  1  0
 55 33  1  0
 56 34  1  0
 56 35  1  0
  9 36  1  0
  9 37  1  0
  9 38  1  0
 12 39  1  0
 12 40  1  0
 13 41  1  0
 14 42  1  0
 17 43  1  0
 17 44  1  0
 17 45  1  0
 18 46  1  0
 18 47  1  0
 18 48  1  0
 57 49  1  0
 57 50  1  0
 19 51  1  0
 20 52  1  0
 25 53  1  0
 27 54  1  0
M  END
