
     RDKit          3D

 16 16  0  0  0  0  0  0  0  0999 V2000
   -0.0132    0.0251    1.7161 B   0  0  0  0  0  0  0  0  0  0  0  0
    1.1855   -0.0090    2.3606 O   0  0  0  0  0  0  0  0  0  0  0  0
   -1.2240    0.0683    2.3371 O   0  0  0  0  0  0  0  0  0  0  0  0
    1.2237    0.0218   -1.9533 C   0  0  0  0  0  0  0  0  0  0  0  0
    0.0293   -0.0072   -2.6618 C   0  0  0  0  0  0  0  0  0  0  0  0
   -1.1787   -0.0261   -1.9762 C   0  0  0  0  0  0  0  0  0  0  0  0
   -1.1878   -0.0143   -0.5880 C   0  0  0  0  0  0  0  0  0  0  0  0
    0.0019    0.0136    0.1463 C   0  0  0  0  0  0  0  0  0  0  0  0
    1.2056    0.0309   -0.5651 C   0  0  0  0  0  0  0  0  0  0  0  0
    1.1444    0.0063    3.3216 H   0  0  0  0  0  0  0  0  0  0  0  0
   -1.2012    0.0677    3.2990 H   0  0  0  0  0  0  0  0  0  0  0  0
    0.0399   -0.0153   -3.7444 H   0  0  0  0  0  0  0  0  0  0  0  0
   -2.1117   -0.0502   -2.5245 H   0  0  0  0  0  0  0  0  0  0  0  0
   -2.1402   -0.0289   -0.0722 H   0  0  0  0  0  0  0  0  0  0  0  0
    2.1477    0.0536   -0.0309 H   0  0  0  0  0  0  0  0  0  0  0  0
    2.1676    0.0377   -2.4832 H   0  0  0  0  0  0  0  0  0  0  0  0
  1  2  1  0
  1  3  1  0
  1  8  1  0
  2 10  1  0
  3 11  1  0
  4  5  2  0
  4  9  1  0
  4 16  1  0
  5  6  1  0
  5 12  1  0
  6  7  2  0
  6 13  1  0
  7  8  1  0
  7 14  1  0
  8  9  2  0
  9 15  1  0
M  END
