
     RDKit          3D

 19 19  0  0  0  0  0  0  0  0999 V2000
   -0.6177    1.2202   -0.3925 C   0  0  0  0  0  0  0  0  0  0  0  0
   -1.6872   -1.2336    0.2419 C   0  0  0  0  0  0  0  0  0  0  0  0
   -2.5071   -0.1243    0.3183 C   0  0  0  0  0  0  0  0  0  0  0  0
   -1.9375    1.0913   -0.0070 C   0  0  0  0  0  0  0  0  0  0  0  0
   -0.3620   -1.1650   -0.1398 C   0  0  0  0  0  0  0  0  0  0  0  0
    0.1719    0.0788   -0.4548 C   0  0  0  0  0  0  0  0  0  0  0  0
    2.4674    0.3244    0.4116 C   0  0  0  0  0  0  0  0  0  0  0  0
   -2.7038    2.1873    0.0484 F   0  0  0  0  0  0  0  0  0  0  0  0
   -2.2074   -2.4280    0.5506 F   0  0  0  0  0  0  0  0  0  0  0  0
    1.6320    0.1911   -0.8554 C   0  0  1  0  0  0  0  0  0  0  0  0
    2.0642   -0.8928   -1.6113 O   0  0  0  0  0  0  0  0  0  0  0  0
    3.2287   -0.5357    0.7760 O   0  0  0  0  0  0  0  0  0  0  0  0
   -0.2192    2.1939   -0.6473 H   0  0  0  0  0  0  0  0  0  0  0  0
   -3.5452   -0.2048    0.6124 H   0  0  0  0  0  0  0  0  0  0  0  0
    0.2306   -2.0685   -0.1935 H   0  0  0  0  0  0  0  0  0  0  0  0
    1.7600    1.1088   -1.4410 H   0  0  0  0  0  0  0  0  0  0  0  0
    2.5979   -1.4724   -1.0520 H   0  0  0  0  0  0  0  0  0  0  0  0
    2.7612    1.5017    1.8619 H   0  0  0  0  0  0  0  0  0  0  0  0
    2.2405    1.4549    1.0450 O   0  0  0  0  0  0  0  0  0  0  0  0
 11 10  1  0
 10  7  1  0
 10  6  1  0
 12  7  2  0
  7 19  1  0
  6  1  2  0
  6  5  1  0
  1  4  1  0
  5  2  2  0
  4  8  1  0
  4  3  2  0
  2  3  1  0
  2  9  1  0
  1 13  1  0
  3 14  1  0
  5 15  1  0
 10 16  1  6
 11 17  1  0
 19 18  1  0
M  END
