
     RDKit          3D

 53 56  0  0  0  0  0  0  0  0999 V2000
    2.2014    0.4031   -0.3424 C   0  0  2  0  0  0  0  0  0  0  0  0
    2.1519    1.5547    0.6750 C   0  0  0  0  0  0  0  0  0  0  0  0
    1.3752    2.7369    0.1064 C   0  0  0  0  0  0  0  0  0  0  0  0
   -0.0492    2.3604   -0.3049 C   0  0  1  0  0  0  0  0  0  0  0  0
    0.0132    1.1888   -1.2930 C   0  0  0  0  0  0  0  0  0  0  0  0
    0.7819   -0.0082   -0.7368 C   0  0  0  0  0  0  0  0  0  0  0  0
   -0.9616    2.0456    0.8977 C   0  0  2  0  0  0  0  0  0  0  0  0
    3.0585   -0.7222    0.1726 C   0  0  0  0  0  0  0  0  0  0  0  0
    4.4807   -0.6704    0.0568 C   0  0  0  0  0  0  0  0  0  0  0  0
    5.1674    0.4031   -0.5577 C   0  0  0  0  0  0  0  0  0  0  0  0
    6.5267    0.3731   -0.6322 C   0  0  0  0  0  0  0  0  0  0  0  0
    7.2939   -0.6845   -0.1251 C   0  0  0  0  0  0  0  0  0  0  0  0
    6.6476   -1.7285    0.4737 C   0  0  0  0  0  0  0  0  0  0  0  0
    5.2377   -1.7492    0.5839 C   0  0  0  0  0  0  0  0  0  0  0  0
    3.3719   -2.8332    1.2960 C   0  0  0  0  0  0  0  0  0  0  0  0
    2.5294   -1.8193    0.8007 C   0  0  0  0  0  0  0  0  0  0  0  0
   -2.3846    1.8532    0.4008 C   0  0  0  0  0  0  0  0  0  0  0  0
   -4.2124    0.1604    0.4357 C   0  0  0  0  0  0  0  0  0  0  0  0
   -4.5681   -1.0475    1.0411 C   0  0  0  0  0  0  0  0  0  0  0  0
   -5.8029   -1.6261    0.8147 C   0  0  0  0  0  0  0  0  0  0  0  0
   -6.7048   -0.9938   -0.0269 C   0  0  0  0  0  0  0  0  0  0  0  0
   -6.3718    0.2031   -0.6360 C   0  0  0  0  0  0  0  0  0  0  0  0
   -5.1317    0.7835   -0.4096 C   0  0  0  0  0  0  0  0  0  0  0  0
   -8.2564   -1.7102   -0.3181 Cl  0  0  0  0  0  0  0  0  0  0  0  0
   -2.9740    2.7240   -0.2146 O   0  0  0  0  0  0  0  0  0  0  0  0
   -0.9653    3.1434    1.9627 C   0  0  0  0  0  0  0  0  0  0  0  0
    4.6719   -2.8151    1.1983 N   0  0  0  0  0  0  0  0  0  0  0  0
    7.1749    1.3936   -1.2140 F   0  0  0  0  0  0  0  0  0  0  0  0
    2.6688    0.7918   -1.2556 H   0  0  0  0  0  0  0  0  0  0  0  0
    1.6916    1.1992    1.6032 H   0  0  0  0  0  0  0  0  0  0  0  0
    3.1623    1.8732    0.9418 H   0  0  0  0  0  0  0  0  0  0  0  0
    1.3735    3.5663    0.8159 H   0  0  0  0  0  0  0  0  0  0  0  0
    1.9001    3.1048   -0.7815 H   0  0  0  0  0  0  0  0  0  0  0  0
   -0.4876    3.2214   -0.8186 H   0  0  0  0  0  0  0  0  0  0  0  0
   -0.9884    0.8732   -1.5975 H   0  0  0  0  0  0  0  0  0  0  0  0
    0.5084    1.5312   -2.2069 H   0  0  0  0  0  0  0  0  0  0  0  0
    0.8179   -0.8036   -1.4847 H   0  0  0  0  0  0  0  0  0  0  0  0
    0.2467   -0.4207    0.1233 H   0  0  0  0  0  0  0  0  0  0  0  0
   -0.6216    1.1221    1.3753 H   0  0  0  0  0  0  0  0  0  0  0  0
   -2.3611    0.0341    1.2698 H   0  0  0  0  0  0  0  0  0  0  0  0
    4.6358    1.2504   -0.9682 H   0  0  0  0  0  0  0  0  0  0  0  0
    8.3723   -0.6642   -0.2108 H   0  0  0  0  0  0  0  0  0  0  0  0
    7.2053   -2.5626    0.8787 H   0  0  0  0  0  0  0  0  0  0  0  0
    2.9288   -3.6919    1.7895 H   0  0  0  0  0  0  0  0  0  0  0  0
    1.4622   -1.9355    0.9277 H   0  0  0  0  0  0  0  0  0  0  0  0
   -3.8701   -1.5456    1.7028 H   0  0  0  0  0  0  0  0  0  0  0  0
   -6.0545   -2.5625    1.2935 H   0  0  0  0  0  0  0  0  0  0  0  0
   -7.0720    0.6955   -1.2971 H   0  0  0  0  0  0  0  0  0  0  0  0
   -4.8988    1.7148   -0.8979 H   0  0  0  0  0  0  0  0  0  0  0  0
   -1.1629    4.1228    1.5257 H   0  0  0  0  0  0  0  0  0  0  0  0
   -1.7256    2.9512    2.7209 H   0  0  0  0  0  0  0  0  0  0  0  0
   -0.0062    3.1882    2.4770 H   0  0  0  0  0  0  0  0  0  0  0  0
   -2.9344    0.6505    0.7144 N   0  0  0  0  0  0  0  0  0  0  0  0
 26  7  1  0
  7 17  1  0
  7  4  1  0
 17 25  2  0
 17 53  1  0
  4  5  1  0
  4  3  1  0
 53 18  1  0
  5  6  1  0
 19 18  2  0
 19 20  1  0
 18 23  1  0
  3  2  1  0
 20 21  2  0
 23 22  2  0
  6  1  1  0
 21 22  1  0
 21 24  1  0
 28 11  1  0
  2  1  1  0
  1  8  1  0
 10 11  2  0
 10  9  1  0
 11 12  1  0
  8  9  2  0
  8 16  1  0
  9 14  1  0
 12 13  2  0
 16 15  2  0
 14 13  1  0
 14 27  2  0
 15 27  1  0
  1 29  1  6
  2 30  1  0
  2 31  1  0
  3 32  1  0
  3 33  1  0
  4 34  1  6
  5 35  1  0
  5 36  1  0
  6 37  1  0
  6 38  1  0
  7 39  1  1
 53 40  1  0
 10 41  1  0
 12 42  1  0
 13 43  1  0
 15 44  1  0
 16 45  1  0
 19 46  1  0
 20 47  1  0
 22 48  1  0
 23 49  1  0
 26 50  1  0
 26 51  1  0
 26 52  1  0
M  END
