
     RDKit          3D

 48 50  0  0  0  0  0  0  0  0999 V2000
    0.9442   -1.0224    0.6533 C   0  0  0  0  0  0  0  0  0  0  0  0
    0.1634   -0.8628   -0.4841 C   0  0  0  0  0  0  0  0  0  0  0  0
   -0.6252    0.2672   -0.6202 C   0  0  0  0  0  0  0  0  0  0  0  0
   -0.6866    1.2122    0.3911 C   0  0  0  0  0  0  0  0  0  0  0  0
    0.0679    1.0416    1.5541 C   0  0  0  0  0  0  0  0  0  0  0  0
    0.9006   -0.0600    1.6606 C   0  0  0  0  0  0  0  0  0  0  0  0
   -0.0563    1.9370    2.7437 C   0  0  0  0  0  0  0  0  0  0  0  0
    5.2058    1.3389   -0.7519 C   0  0  0  0  0  0  0  0  0  0  0  0
    5.4948    0.4703    0.2907 C   0  0  0  0  0  0  0  0  0  0  0  0
    4.8298   -0.7350    0.4358 C   0  0  0  0  0  0  0  0  0  0  0  0
    3.8597   -1.0542   -0.5027 C   0  0  0  0  0  0  0  0  0  0  0  0
    3.5435   -0.2204   -1.5627 C   0  0  0  0  0  0  0  0  0  0  0  0
    4.2303    0.9793   -1.6669 C   0  0  0  0  0  0  0  0  0  0  0  0
    3.8630    2.0478   -2.9676 Cl  0  0  0  0  0  0  0  0  0  0  0  0
    2.9350   -2.5534   -0.2853 S   0  0  1  0  0  0  0  0  0  0  0  0
    1.7654   -2.1469    0.8325 N   0  0  0  0  0  0  0  0  0  0  0  0
    2.2764   -2.8552   -1.5386 O   0  0  0  0  0  0  0  0  0  0  0  0
    3.7618   -3.5405    0.3758 O   0  0  0  0  0  0  0  0  0  0  0  0
    1.1160    2.2896    3.2244 O   0  0  0  0  0  0  0  0  0  0  0  0
   -1.1174    2.2405    3.2283 O   0  0  0  0  0  0  0  0  0  0  0  0
   -1.7073    2.6476    0.1243 S   0  0  1  0  0  0  0  0  0  0  0  0
   -1.0501    3.7949    0.7188 O   0  0  0  0  0  0  0  0  0  0  0  0
   -2.0602    2.6533   -1.2817 O   0  0  0  0  0  0  0  0  0  0  0  0
   -3.1131    2.4022    0.9732 N   0  0  0  0  0  0  0  0  0  0  0  0
   -3.9108    1.2850    0.5994 C   0  0  0  0  0  0  0  0  0  0  0  0
   -3.6608    0.0499    1.1881 C   0  0  0  0  0  0  0  0  0  0  0  0
   -4.4212   -1.0539    0.8458 C   0  0  0  0  0  0  0  0  0  0  0  0
   -5.4253   -0.9027   -0.0954 C   0  0  0  0  0  0  0  0  0  0  0  0
   -5.6889    0.3229   -0.6709 C   0  0  0  0  0  0  0  0  0  0  0  0
   -4.9421    1.4464   -0.3304 C   0  0  0  0  0  0  0  0  0  0  0  0
   -5.2679    2.7742   -0.9399 C   0  0  0  0  0  0  0  0  0  0  0  0
   -6.1632   -1.9569   -0.4433 F   0  0  0  0  0  0  0  0  0  0  0  0
   -4.1026   -2.7276    1.6265 Br  0  0  0  0  0  0  0  0  0  0  0  0
    0.1499   -1.6072   -1.2657 H   0  0  0  0  0  0  0  0  0  0  0  0
   -1.2049    0.3905   -1.5235 H   0  0  0  0  0  0  0  0  0  0  0  0
    1.5096   -0.1925    2.5461 H   0  0  0  0  0  0  0  0  0  0  0  0
    5.7339    2.2771   -0.8480 H   0  0  0  0  0  0  0  0  0  0  0  0
    5.0693   -1.4007    1.2539 H   0  0  0  0  0  0  0  0  0  0  0  0
    2.7961   -0.4897   -2.2951 H   0  0  0  0  0  0  0  0  0  0  0  0
    2.0943   -2.2865    1.7823 H   0  0  0  0  0  0  0  0  0  0  0  0
    1.0094    2.8073    4.0386 H   0  0  0  0  0  0  0  0  0  0  0  0
   -2.9503    2.4910    1.9728 H   0  0  0  0  0  0  0  0  0  0  0  0
   -2.8777   -0.0414    1.9301 H   0  0  0  0  0  0  0  0  0  0  0  0
   -6.4971    0.4017   -1.3873 H   0  0  0  0  0  0  0  0  0  0  0  0
   -4.6119    2.9924   -1.7818 H   0  0  0  0  0  0  0  0  0  0  0  0
   -6.2927    2.7869   -1.3060 H   0  0  0  0  0  0  0  0  0  0  0  0
   -5.1464    3.5805   -0.2188 H   0  0  0  0  0  0  0  0  0  0  0  0
    6.7129    0.9061    1.4288 Cl  0  0  0  0  0  0  0  0  0  0  0  0
 14 13  1  0
  8 13  2  0
  8  9  1  0
 13 12  1  0
 48  9  1  0
  9 10  2  0
 20  7  2  0
 12 11  2  0
 10 11  1  0
  7 19  1  0
  7  5  1  0
 11 15  1  0
 22 21  2  0
  6  5  2  0
  6  1  1  0
  5  4  1  0
 16  1  1  0
 15 16  1  1
  1  2  2  0
 15 17  2  0
 15 18  2  0
  4 21  1  0
  4  3  2  0
 21 24  1  1
 21 23  2  0
  2  3  1  0
 24 25  1  0
 25 26  2  0
 25 30  1  0
 31 30  1  0
 26 27  1  0
 30 29  2  0
 27 33  1  0
 27 28  2  0
 29 28  1  0
 28 32  1  0
  2 34  1  0
  3 35  1  0
  6 36  1  0
  8 37  1  0
 10 38  1  0
 12 39  1  0
 16 40  1  0
 19 41  1  0
 24 42  1  0
 26 43  1  0
 29 44  1  0
 31 45  1  0
 31 46  1  0
 31 47  1  0
M  END
