
     RDKit          3D

 65 68  0  0  0  0  0  0  0  0999 V2000
   -0.8747   -2.1424   -0.5575 C   0  0  0  0  0  0  0  0  0  0  0  0
   -1.4011   -0.8551   -0.3553 C   0  0  0  0  0  0  0  0  0  0  0  0
   -2.7588   -1.0611   -0.1600 C   0  0  0  0  0  0  0  0  0  0  0  0
   -0.6525    0.3803   -0.3554 C   0  0  0  0  0  0  0  0  0  0  0  0
   -2.9584   -2.3965   -0.2524 N   0  0  0  0  0  0  0  0  0  0  0  0
   -1.8205   -3.0487   -0.4932 N   0  0  0  0  0  0  0  0  0  0  0  0
    1.1140    1.6978   -0.5002 C   0  0  0  0  0  0  0  0  0  0  0  0
    0.1807    2.6529   -0.2540 C   0  0  0  0  0  0  0  0  0  0  0  0
   -4.2242   -3.1651   -0.1381 C   0  0  1  0  0  0  0  0  0  0  0  0
   -5.1903   -2.7285   -1.2394 C   0  0  0  0  0  0  0  0  0  0  0  0
   -3.9193   -4.6510   -0.3094 C   0  0  0  0  0  0  0  0  0  0  0  0
   -3.7653   -0.0185    0.0934 C   0  0  0  0  0  0  0  0  0  0  0  0
   -4.3852    0.6387   -0.9625 C   0  0  0  0  0  0  0  0  0  0  0  0
    2.9394    1.0844    1.5207 O   0  0  0  0  0  0  0  0  0  0  0  0
    3.4025    1.3209    0.4156 C   0  0  0  0  0  0  0  0  0  0  0  0
    4.6817    1.0784    0.0954 N   0  0  0  0  0  0  0  0  0  0  0  0
    5.6461    0.5828    1.0555 C   0  0  0  0  0  0  0  0  0  0  0  0
    6.9924    0.3079    0.4022 C   0  0  1  0  0  0  0  0  0  0  0  0
    8.0092   -0.1218    1.4579 C   0  0  0  0  0  0  0  0  0  0  0  0
    9.3406   -0.4730    0.8147 C   0  0  0  0  0  0  0  0  0  0  0  0
    9.2037   -1.4705   -0.1740 O   0  0  0  0  0  0  0  0  0  0  0  0
    8.3236   -1.0781   -1.2046 C   0  0  0  0  0  0  0  0  0  0  0  0
    6.9289   -0.7649   -0.6847 C   0  0  0  0  0  0  0  0  0  0  0  0
    2.5709    1.9360   -0.6996 C   0  0  0  0  0  0  0  0  0  0  0  0
    0.6297    0.4231   -0.5593 N   0  0  0  0  0  0  0  0  0  0  0  0
   -1.3694    1.9387   -0.0827 S   0  0  0  0  0  0  0  0  0  0  0  0
   -4.8421   -2.9465    1.2430 C   0  0  0  0  0  0  0  0  0  0  0  0
   -4.0277    0.4192    1.3928 C   0  0  0  0  0  0  0  0  0  0  0  0
   -4.9007    1.4615    1.6279 C   0  0  0  0  0  0  0  0  0  0  0  0
   -5.5307    2.1057    0.5594 C   0  0  0  0  0  0  0  0  0  0  0  0
   -6.3647    3.1083    0.8774 O   0  0  0  0  0  0  0  0  0  0  0  0
   -7.0356    3.7883   -0.1668 C   0  0  0  0  0  0  0  0  0  0  0  0
   -5.2653    1.6883   -0.7434 C   0  0  0  0  0  0  0  0  0  0  0  0
    0.1503   -2.4232   -0.7446 H   0  0  0  0  0  0  0  0  0  0  0  0
    0.3233    3.7184   -0.1653 H   0  0  0  0  0  0  0  0  0  0  0  0
   -4.7228   -2.7980   -2.2225 H   0  0  0  0  0  0  0  0  0  0  0  0
   -6.0616   -3.3845   -1.2355 H   0  0  0  0  0  0  0  0  0  0  0  0
   -5.5481   -1.7102   -1.0968 H   0  0  0  0  0  0  0  0  0  0  0  0
   -3.2351   -5.0241    0.4513 H   0  0  0  0  0  0  0  0  0  0  0  0
   -4.8581   -5.1959   -0.2103 H   0  0  0  0  0  0  0  0  0  0  0  0
   -3.5018   -4.8762   -1.2894 H   0  0  0  0  0  0  0  0  0  0  0  0
   -4.1764    0.3339   -1.9803 H   0  0  0  0  0  0  0  0  0  0  0  0
    5.0156    1.3690   -0.8097 H   0  0  0  0  0  0  0  0  0  0  0  0
    5.7779    1.3069    1.8660 H   0  0  0  0  0  0  0  0  0  0  0  0
    5.2660   -0.3369    1.5092 H   0  0  0  0  0  0  0  0  0  0  0  0
    7.3495    1.2420   -0.0528 H   0  0  0  0  0  0  0  0  0  0  0  0
    8.1635    0.6724    2.1932 H   0  0  0  0  0  0  0  0  0  0  0  0
    7.6260   -0.9923    2.0009 H   0  0  0  0  0  0  0  0  0  0  0  0
    9.7890    0.4345    0.3832 H   0  0  0  0  0  0  0  0  0  0  0  0
   10.0380   -0.8582    1.5608 H   0  0  0  0  0  0  0  0  0  0  0  0
    8.7218   -0.1970   -1.7301 H   0  0  0  0  0  0  0  0  0  0  0  0
    8.2901   -1.8981   -1.9236 H   0  0  0  0  0  0  0  0  0  0  0  0
    6.4728   -1.6737   -0.2771 H   0  0  0  0  0  0  0  0  0  0  0  0
    6.3092   -0.4500   -1.5285 H   0  0  0  0  0  0  0  0  0  0  0  0
    2.8890    1.5392   -1.6673 H   0  0  0  0  0  0  0  0  0  0  0  0
    2.7740    3.0099   -0.7236 H   0  0  0  0  0  0  0  0  0  0  0  0
   -5.2051   -1.9297    1.3803 H   0  0  0  0  0  0  0  0  0  0  0  0
   -5.6927   -3.6180    1.3621 H   0  0  0  0  0  0  0  0  0  0  0  0
   -4.1244   -3.1700    2.0332 H   0  0  0  0  0  0  0  0  0  0  0  0
   -3.5387   -0.0608    2.2311 H   0  0  0  0  0  0  0  0  0  0  0  0
   -5.0979    1.7903    2.6404 H   0  0  0  0  0  0  0  0  0  0  0  0
   -7.6637    4.5378    0.3074 H   0  0  0  0  0  0  0  0  0  0  0  0
   -6.3371    4.2889   -0.8417 H   0  0  0  0  0  0  0  0  0  0  0  0
   -7.6690    3.1153   -0.7494 H   0  0  0  0  0  0  0  0  0  0  0  0
   -5.7261    2.1678   -1.5960 H   0  0  0  0  0  0  0  0  0  0  0  0
 23 22  1  0
 23 18  1  0
 14 15  2  0
 22 21  1  0
 17 18  1  0
 17 16  1  0
 18 19  1  0
 15 16  1  0
 15 24  1  0
 21 20  1  0
 19 20  1  0
 24  7  1  0
  8  7  2  0
  8 26  1  0
  7 25  1  0
 32 31  1  0
 26  4  1  0
 25  4  2  0
  4  2  1  0
 31 30  1  0
 29 30  2  0
 29 28  1  0
 30 33  1  0
 28 12  2  0
  2  3  2  0
  2  1  1  0
 33 13  2  0
 12 13  1  0
 12  3  1  0
  3  5  1  0
  1  6  2  0
  5  6  1  0
  5  9  1  0
  9 11  1  6
  9 10  1  0
  9 27  1  0
  1 34  1  0
  8 35  1  0
 10 36  1  0
 10 37  1  0
 10 38  1  0
 11 39  1  0
 11 40  1  0
 11 41  1  0
 13 42  1  0
 16 43  1  0
 17 44  1  0
 17 45  1  0
 18 46  1  6
 19 47  1  0
 19 48  1  0
 20 49  1  0
 20 50  1  0
 22 51  1  0
 22 52  1  0
 23 53  1  0
 23 54  1  0
 24 55  1  0
 24 56  1  0
 27 57  1  0
 27 58  1  0
 27 59  1  0
 28 60  1  0
 29 61  1  0
 32 62  1  0
 32 63  1  0
 32 64  1  0
 33 65  1  0
M  END
