
     RDKit          3D

 26 26  0  0  0  0  0  0  0  0999 V2000
    2.7776    0.0069    0.1562 N   0  0  0  0  0  0  0  0  0  0  0  0
   -0.5916    0.4525   -0.8165 N   0  0  0  0  0  0  0  0  0  0  0  0
    1.7524    0.8455   -0.0772 C   0  0  0  0  0  0  0  0  0  0  0  0
    4.0965    0.3546    0.6253 C   0  0  0  0  0  0  0  0  0  0  0  0
    1.8375    2.3212    0.0547 C   0  0  0  0  0  0  0  0  0  0  0  0
   -1.6637    0.2729   -0.0232 C   0  0  0  0  0  0  0  0  0  0  0  0
   -2.9691    0.7315   -0.6622 C   0  0  0  0  0  0  0  0  0  0  0  0
    0.4438   -2.5388   -0.6870 C   0  0  0  0  0  0  0  0  0  0  0  0
    1.1829   -1.2824   -0.3895 C   0  0  0  0  0  0  0  0  0  0  0  0
    0.6958    0.0369   -0.4449 C   0  0  0  0  0  0  0  0  0  0  0  0
    2.4469   -1.2778   -0.0152 N   0  0  0  0  0  0  0  0  0  0  0  0
   -1.6256   -0.2126    1.0882 O   0  0  0  0  0  0  0  0  0  0  0  0
   -4.0678    0.6565    0.2801 C   0  0  0  0  0  0  0  0  0  0  0  0
   -4.9534    0.6054    1.0108 N   0  0  0  0  0  0  0  0  0  0  0  0
   -0.7285    0.8532   -1.7329 H   0  0  0  0  0  0  0  0  0  0  0  0
    4.1318    0.4003    1.7140 H   0  0  0  0  0  0  0  0  0  0  0  0
    4.8020   -0.3956    0.2790 H   0  0  0  0  0  0  0  0  0  0  0  0
    4.3907    1.3209    0.2232 H   0  0  0  0  0  0  0  0  0  0  0  0
    2.5781    2.7460   -0.6245 H   0  0  0  0  0  0  0  0  0  0  0  0
    0.8751    2.7715   -0.1807 H   0  0  0  0  0  0  0  0  0  0  0  0
    2.1088    2.6204    1.0680 H   0  0  0  0  0  0  0  0  0  0  0  0
   -2.8859    1.7560   -1.0326 H   0  0  0  0  0  0  0  0  0  0  0  0
   -3.2037    0.1046   -1.5266 H   0  0  0  0  0  0  0  0  0  0  0  0
   -0.3480   -2.7114    0.0434 H   0  0  0  0  0  0  0  0  0  0  0  0
   -0.0286   -2.4965   -1.6692 H   0  0  0  0  0  0  0  0  0  0  0  0
    1.1133   -3.3970   -0.6687 H   0  0  0  0  0  0  0  0  0  0  0  0
 14 13  3  0
 13  7  1  0
  8  9  1  0
 12  6  2  0
  6  7  1  0
  6  2  1  0
  9 11  2  0
  9 10  1  0
  2 10  1  0
 11  1  1  0
 10  3  2  0
  1  3  1  0
  1  4  1  0
  3  5  1  0
  2 15  1  0
  4 16  1  0
  4 17  1  0
  4 18  1  0
  5 19  1  0
  5 20  1  0
  5 21  1  0
  7 22  1  0
  7 23  1  0
  8 24  1  0
  8 25  1  0
  8 26  1  0
M  END
