
     RDKit          3D

 44 46  0  0  0  0  0  0  0  0999 V2000
   -6.1950    0.6669   -0.4908 C   0  0  0  0  0  0  0  0  0  0  0  0
   -6.9281   -0.6044   -0.0727 C   0  0  0  0  0  0  0  0  0  0  0  0
   -5.8294   -1.6872   -0.0775 C   0  0  0  0  0  0  0  0  0  0  0  0
   -4.5401   -0.9304   -0.4136 C   0  0  0  0  0  0  0  0  0  0  0  0
   -4.8303    0.4462   -0.0409 N   0  0  0  0  0  0  0  0  0  0  0  0
   -3.9153    1.4443   -0.5437 C   0  0  0  0  0  0  0  0  0  0  0  0
   -2.5539    1.4458    0.1176 C   0  0  0  0  0  0  0  0  0  0  0  0
   -1.7836    0.3616   -0.3718 O   0  0  0  0  0  0  0  0  0  0  0  0
   -0.5469    0.1633    0.1244 C   0  0  0  0  0  0  0  0  0  0  0  0
    0.1449   -0.9467   -0.3683 C   0  0  0  0  0  0  0  0  0  0  0  0
    1.4207   -1.2269    0.0803 C   0  0  0  0  0  0  0  0  0  0  0  0
    0.0658    0.9759    1.0730 C   0  0  0  0  0  0  0  0  0  0  0  0
    1.3518    0.6736    1.5135 C   0  0  0  0  0  0  0  0  0  0  0  0
    2.0509   -0.4228    1.0316 C   0  0  0  0  0  0  0  0  0  0  0  0
    3.4561   -0.7290    1.4860 C   0  0  0  0  0  0  0  0  0  0  0  0
    4.4779   -0.3450    0.4446 C   0  0  0  0  0  0  0  0  0  0  0  0
    4.8688    0.9842    0.2937 C   0  0  0  0  0  0  0  0  0  0  0  0
    5.7841    1.3493   -0.6831 C   0  0  0  0  0  0  0  0  0  0  0  0
    6.3221    0.3872   -1.5300 C   0  0  0  0  0  0  0  0  0  0  0  0
    5.9402   -0.9396   -1.3882 C   0  0  0  0  0  0  0  0  0  0  0  0
    5.0259   -1.3009   -0.4058 C   0  0  0  0  0  0  0  0  0  0  0  0
   -6.2464    0.7922   -1.5863 H   0  0  0  0  0  0  0  0  0  0  0  0
   -6.6104    1.5725   -0.0430 H   0  0  0  0  0  0  0  0  0  0  0  0
   -7.3538   -0.4915    0.9250 H   0  0  0  0  0  0  0  0  0  0  0  0
   -7.7499   -0.8344   -0.7501 H   0  0  0  0  0  0  0  0  0  0  0  0
   -5.7554   -2.1687    0.8980 H   0  0  0  0  0  0  0  0  0  0  0  0
   -6.0228   -2.4734   -0.8069 H   0  0  0  0  0  0  0  0  0  0  0  0
   -3.6767   -1.3198    0.1245 H   0  0  0  0  0  0  0  0  0  0  0  0
   -4.3180   -1.0146   -1.4908 H   0  0  0  0  0  0  0  0  0  0  0  0
   -3.7890    1.3827   -1.6393 H   0  0  0  0  0  0  0  0  0  0  0  0
   -4.3490    2.4268   -0.3396 H   0  0  0  0  0  0  0  0  0  0  0  0
   -2.0523    2.3934   -0.1096 H   0  0  0  0  0  0  0  0  0  0  0  0
   -2.6726    1.3800    1.2051 H   0  0  0  0  0  0  0  0  0  0  0  0
   -0.3298   -1.5853   -1.1033 H   0  0  0  0  0  0  0  0  0  0  0  0
    1.9372   -2.0937   -0.3161 H   0  0  0  0  0  0  0  0  0  0  0  0
   -0.4358    1.8416    1.4835 H   0  0  0  0  0  0  0  0  0  0  0  0
    1.8094    1.3180    2.2555 H   0  0  0  0  0  0  0  0  0  0  0  0
    3.6646   -0.2002    2.4189 H   0  0  0  0  0  0  0  0  0  0  0  0
    3.5492   -1.7952    1.7058 H   0  0  0  0  0  0  0  0  0  0  0  0
    4.4531    1.7407    0.9496 H   0  0  0  0  0  0  0  0  0  0  0  0
    6.0802    2.3858   -0.7826 H   0  0  0  0  0  0  0  0  0  0  0  0
    7.0350    0.6701   -2.2939 H   0  0  0  0  0  0  0  0  0  0  0  0
    6.3553   -1.6966   -2.0413 H   0  0  0  0  0  0  0  0  0  0  0  0
    4.7369   -2.3403   -0.2989 H   0  0  0  0  0  0  0  0  0  0  0  0
  1  2  1  0
  1  5  1  0
  2  3  1  0
  3  4  1  0
  4  5  1  0
  5  6  1  0
  6  7  1  0
  7  8  1  0
  8  9  1  0
  9 10  2  0
  9 12  1  0
 10 11  1  0
 11 14  2  0
 12 13  2  0
 13 14  1  0
 14 15  1  0
 15 16  1  0
 16 17  2  0
 16 21  1  0
 17 18  1  0
 18 19  2  0
 19 20  1  0
 20 21  2  0
  1 22  1  0
  1 23  1  0
  2 24  1  0
  2 25  1  0
  3 26  1  0
  3 27  1  0
  4 28  1  0
  4 29  1  0
  6 30  1  0
  6 31  1  0
  7 32  1  0
  7 33  1  0
 10 34  1  0
 11 35  1  0
 12 36  1  0
 13 37  1  0
 15 38  1  0
 15 39  1  0
 17 40  1  0
 18 41  1  0
 19 42  1  0
 20 43  1  0
 21 44  1  0
M  END
