
     RDKit          3D

 26 27  0  0  0  0  0  0  0  0999 V2000
   44.6136   -2.2900   53.5872 O   0  0  0  0  0  0  0  0  0  0  0  0
   43.9084   -2.3338   54.5600 C   0  0  0  0  0  0  0  0  0  0  0  0
   43.4811   -3.5154   55.0029 O   0  0  0  0  0  0  0  0  0  0  0  0
   43.4882   -1.1440   55.3460 C   0  0  0  0  0  0  0  0  0  0  0  0
   43.1632    0.0618   54.7080 C   0  0  0  0  0  0  0  0  0  0  0  0
   43.1666    0.1073   53.3725 O   0  0  0  0  0  0  0  0  0  0  0  0
   42.8129    1.1634   55.4847 C   0  0  0  0  0  0  0  0  0  0  0  0
   42.8002    1.0770   56.8639 C   0  0  0  0  0  0  0  0  0  0  0  0
   43.1233   -0.1115   57.5154 C   0  0  0  0  0  0  0  0  0  0  0  0
   43.4615   -1.2100   56.7368 C   0  0  0  0  0  0  0  0  0  0  0  0
   43.1364   -0.1749   58.9903 C   0  0  0  0  0  0  0  0  0  0  0  0
   43.9017    0.7403   59.7131 C   0  0  0  0  0  0  0  0  0  0  0  0
   42.3981   -1.1046   59.7238 C   0  0  0  0  0  0  0  0  0  0  0  0
   41.3723   -2.2458   58.9207 Cl  0  0  0  0  0  0  0  0  0  0  0  0
   42.4237   -1.1356   61.1099 C   0  0  0  0  0  0  0  0  0  0  0  0
   43.2041   -0.2115   61.7834 C   0  0  0  0  0  0  0  0  0  0  0  0
   43.2450   -0.2450   63.5114 Cl  0  0  0  0  0  0  0  0  0  0  0  0
   43.9452    0.7360   61.0965 C   0  0  0  0  0  0  0  0  0  0  0  0
   42.8179   -3.4303   55.7002 H   0  0  0  0  0  0  0  0  0  0  0  0
   42.8775    0.9747   53.0652 H   0  0  0  0  0  0  0  0  0  0  0  0
   42.5410    2.0953   55.0037 H   0  0  0  0  0  0  0  0  0  0  0  0
   42.5198    1.9499   57.4399 H   0  0  0  0  0  0  0  0  0  0  0  0
   43.7594   -2.1269   57.2311 H   0  0  0  0  0  0  0  0  0  0  0  0
   44.4899    1.4717   59.1738 H   0  0  0  0  0  0  0  0  0  0  0  0
   41.8382   -1.8653   61.6518 H   0  0  0  0  0  0  0  0  0  0  0  0
   44.5516    1.4568   61.6267 H   0  0  0  0  0  0  0  0  0  0  0  0
  1  2  2  0
  2  3  1  0
  2  4  1  0
  3 19  1  0
  4  5  2  0
  4 10  1  0
  5  6  1  0
  5  7  1  0
  6 20  1  0
  7  8  2  0
  7 21  1  0
  8  9  1  0
  8 22  1  0
  9 10  2  0
  9 11  1  0
 10 23  1  0
 11 12  2  0
 11 13  1  0
 12 18  1  0
 12 24  1  0
 13 14  1  0
 13 15  2  0
 15 16  1  0
 15 25  1  0
 16 17  1  0
 16 18  2  0
 18 26  1  0
M  END
