
     RDKit          3D

 45 48  0  0  0  0  0  0  0  0999 V2000
    6.3398   46.0036  -10.8815 As  0  0  2  0  0  0  0  0  0  0  0  0
    5.5188   44.7669  -12.0666 C   0  0  0  0  0  0  0  0  0  0  0  0
    5.4975   43.4108  -11.7559 C   0  0  0  0  0  0  0  0  0  0  0  0
    4.8770   42.5251  -12.6251 C   0  0  0  0  0  0  0  0  0  0  0  0
    4.2858   42.9915  -13.7911 C   0  0  0  0  0  0  0  0  0  0  0  0
    4.3131   44.3461  -14.0980 C   0  0  0  0  0  0  0  0  0  0  0  0
    4.9314   45.2410  -13.2387 C   0  0  0  0  0  0  0  0  0  0  0  0
    5.0238   46.9535   -9.8937 C   0  0  0  0  0  0  0  0  0  0  0  0
    5.4042   47.6111   -8.7250 C   0  0  0  0  0  0  0  0  0  0  0  0
    4.4578   48.3304   -8.0116 C   0  0  0  0  0  0  0  0  0  0  0  0
    3.1446   48.3889   -8.4600 C   0  0  0  0  0  0  0  0  0  0  0  0
    2.7706   47.7270   -9.6214 C   0  0  0  0  0  0  0  0  0  0  0  0
    3.7087   47.0058  -10.3455 C   0  0  0  0  0  0  0  0  0  0  0  0
    7.3842   47.2064  -11.9164 C   0  0  0  0  0  0  0  0  0  0  0  0
    7.4672   48.5473  -11.5534 C   0  0  0  0  0  0  0  0  0  0  0  0
    8.2626   49.4041  -12.2998 C   0  0  0  0  0  0  0  0  0  0  0  0
    8.9668   48.9240  -13.3958 C   0  0  0  0  0  0  0  0  0  0  0  0
    8.8774   47.5857  -13.7556 C   0  0  0  0  0  0  0  0  0  0  0  0
    8.0845   46.7192  -13.0184 C   0  0  0  0  0  0  0  0  0  0  0  0
    7.4510   45.0859   -9.6436 C   0  0  0  0  0  0  0  0  0  0  0  0
    6.8666   44.4546   -8.5468 C   0  0  0  0  0  0  0  0  0  0  0  0
    7.6703   43.7621   -7.6543 C   0  0  0  0  0  0  0  0  0  0  0  0
    9.0436   43.7036   -7.8550 C   0  0  0  0  0  0  0  0  0  0  0  0
    9.6200   44.3371   -8.9476 C   0  0  0  0  0  0  0  0  0  0  0  0
    8.8264   45.0322   -9.8484 C   0  0  0  0  0  0  0  0  0  0  0  0
    5.9619   43.0321  -10.8545 H   0  0  0  0  0  0  0  0  0  0  0  0
    4.8597   41.4702  -12.3889 H   0  0  0  0  0  0  0  0  0  0  0  0
    3.8058   42.2965  -14.4672 H   0  0  0  0  0  0  0  0  0  0  0  0
    3.8569   44.7086  -15.0089 H   0  0  0  0  0  0  0  0  0  0  0  0
    4.9542   46.2935  -13.4946 H   0  0  0  0  0  0  0  0  0  0  0  0
    6.4232   47.5670   -8.3598 H   0  0  0  0  0  0  0  0  0  0  0  0
    4.7480   48.8415   -7.1038 H   0  0  0  0  0  0  0  0  0  0  0  0
    2.4092   48.9507   -7.8998 H   0  0  0  0  0  0  0  0  0  0  0  0
    1.7466   47.7676   -9.9667 H   0  0  0  0  0  0  0  0  0  0  0  0
    3.3998   46.4906  -11.2462 H   0  0  0  0  0  0  0  0  0  0  0  0
    6.9186   48.9370  -10.7052 H   0  0  0  0  0  0  0  0  0  0  0  0
    8.3292   50.4476  -12.0236 H   0  0  0  0  0  0  0  0  0  0  0  0
    9.5871   49.5963  -13.9733 H   0  0  0  0  0  0  0  0  0  0  0  0
    9.4225   47.2130  -14.6120 H   0  0  0  0  0  0  0  0  0  0  0  0
    8.0189   45.6789  -13.3128 H   0  0  0  0  0  0  0  0  0  0  0  0
    5.7978   44.4996   -8.3753 H   0  0  0  0  0  0  0  0  0  0  0  0
    7.2220   43.2724   -6.8009 H   0  0  0  0  0  0  0  0  0  0  0  0
    9.6670   43.1651   -7.1538 H   0  0  0  0  0  0  0  0  0  0  0  0
   10.6898   44.2948   -9.1012 H   0  0  0  0  0  0  0  0  0  0  0  0
    9.2900   45.5275  -10.6921 H   0  0  0  0  0  0  0  0  0  0  0  0
  1  2  1  6
  1  8  1  0
  1 14  1  0
  1 20  1  0
  2  3  2  0
  2  7  1  0
  3  4  1  0
  3 26  1  0
  4  5  2  0
  4 27  1  0
  5  6  1  0
  5 28  1  0
  6  7  2  0
  6 29  1  0
  7 30  1  0
  8  9  2  0
  8 13  1  0
  9 10  1  0
  9 31  1  0
 10 11  2  0
 10 32  1  0
 11 12  1  0
 11 33  1  0
 12 13  2  0
 12 34  1  0
 13 35  1  0
 14 15  2  0
 14 19  1  0
 15 16  1  0
 15 36  1  0
 16 17  2  0
 16 37  1  0
 17 18  1  0
 17 38  1  0
 18 19  2  0
 18 39  1  0
 19 40  1  0
 20 21  2  0
 20 25  1  0
 21 22  1  0
 21 41  1  0
 22 23  2  0
 22 42  1  0
 23 24  1  0
 23 43  1  0
 24 25  2  0
 24 44  1  0
 25 45  1  0
M  CHG  1   1   1
M  END
