
     RDKit          3D

 37 39  0  0  0  0  0  0  0  0999 V2000
   -6.1275    0.2643   -0.5638 C   0  0  0  0  0  0  0  0  0  0  0  0
    6.9860    1.4010    1.4383 Cl  0  0  0  0  0  0  0  0  0  0  0  0
   -5.3253    0.5227    0.7086 C   0  0  0  0  0  0  0  0  0  0  0  0
   -7.9707    1.4438    0.4413 O   0  0  0  0  0  0  0  0  0  0  0  0
   -3.9541   -0.0366    0.6126 C   0  0  0  0  0  0  0  0  0  0  0  0
   -2.7303    0.5315    0.5137 C   0  0  0  0  0  0  0  0  0  0  0  0
   -1.8449   -0.5763    0.4194 C   0  0  0  0  0  0  0  0  0  0  0  0
   -0.3869   -0.5703    0.2780 C   0  0  0  0  0  0  0  0  0  0  0  0
    0.3167   -1.7558    0.0600 C   0  0  0  0  0  0  0  0  0  0  0  0
    1.6917   -1.7432   -0.0794 C   0  0  0  0  0  0  0  0  0  0  0  0
    2.4112   -0.5486   -0.0049 C   0  0  0  0  0  0  0  0  0  0  0  0
    1.7047    0.6332    0.2148 C   0  0  0  0  0  0  0  0  0  0  0  0
    0.3269    0.6233    0.3538 C   0  0  0  0  0  0  0  0  0  0  0  0
   -7.5171    0.8359   -0.4954 C   0  0  0  0  0  0  0  0  0  0  0  0
   -2.5093   -1.6996    0.4646 N   0  0  0  0  0  0  0  0  0  0  0  0
   -3.8203   -1.3669    0.5841 O   0  0  0  0  0  0  0  0  0  0  0  0
    3.8791   -0.5392   -0.1561 C   0  0  0  0  0  0  0  0  0  0  0  0
    4.6584    0.3249    0.6139 C   0  0  0  0  0  0  0  0  0  0  0  0
    6.0347    0.3273    0.4639 C   0  0  0  0  0  0  0  0  0  0  0  0
    6.6693   -0.5130   -0.4371 C   0  0  0  0  0  0  0  0  0  0  0  0
    5.8915   -1.3714   -1.2011 C   0  0  0  0  0  0  0  0  0  0  0  0
    4.5123   -1.3878   -1.0648 C   0  0  0  0  0  0  0  0  0  0  0  0
   -5.6200    0.6986   -1.4297 H   0  0  0  0  0  0  0  0  0  0  0  0
   -6.2064   -0.8063   -0.7688 H   0  0  0  0  0  0  0  0  0  0  0  0
   -5.2377    1.5934    0.8902 H   0  0  0  0  0  0  0  0  0  0  0  0
   -5.8369    0.0911    1.5718 H   0  0  0  0  0  0  0  0  0  0  0  0
   -2.5038    1.5837    0.4991 H   0  0  0  0  0  0  0  0  0  0  0  0
   -0.2127   -2.6975   -0.0000 H   0  0  0  0  0  0  0  0  0  0  0  0
    2.2117   -2.6804   -0.2317 H   0  0  0  0  0  0  0  0  0  0  0  0
    2.2294    1.5791    0.2579 H   0  0  0  0  0  0  0  0  0  0  0  0
   -0.1866    1.5611    0.5214 H   0  0  0  0  0  0  0  0  0  0  0  0
    4.1952    0.9783    1.3418 H   0  0  0  0  0  0  0  0  0  0  0  0
    7.7452   -0.4988   -0.5439 H   0  0  0  0  0  0  0  0  0  0  0  0
    6.3708   -2.0279   -1.9152 H   0  0  0  0  0  0  0  0  0  0  0  0
    3.9241   -2.0507   -1.6860 H   0  0  0  0  0  0  0  0  0  0  0  0
   -8.2002    0.5913   -1.6071 O   0  0  0  0  0  0  0  0  0  0  0  0
   -9.0900    0.9689   -1.5401 H   0  0  0  0  0  0  0  0  0  0  0  0
  1 14  1  0
  1  3  1  0
 14  4  2  0
  3  5  1  0
  6  5  2  0
  6  7  1  0
  5 16  1  0
 13 12  2  0
 13  8  1  0
 12 11  1  0
  7  8  1  0
  7 15  2  0
 16 15  1  0
  8  9  2  0
 22 21  2  0
 22 17  1  0
 11 17  1  0
 11 10  2  0
 21 20  1  0
 17 18  2  0
  9 10  1  0
 20 19  2  0
 18 19  1  0
 19  2  1  0
  1 23  1  0
  1 24  1  0
  3 25  1  0
  3 26  1  0
  6 27  1  0
  9 28  1  0
 10 29  1  0
 12 30  1  0
 13 31  1  0
 18 32  1  0
 20 33  1  0
 21 34  1  0
 22 35  1  0
 14 36  1  0
 36 37  1  0
M  END
