
     RDKit          3D

 60 63  0  0  0  0  0  0  0  0999 V2000
   -0.2119   -2.1285   -0.5198 N   0  0  0  0  0  0  0  0  0  0  0  0
    0.7200   -1.3289    0.2618 C   0  0  1  0  0  0  0  0  0  0  0  0
    3.7783   -2.0544    1.8603 C   0  0  0  0  0  0  0  0  0  0  0  0
    4.2281   -0.5362   -1.0225 C   0  0  0  0  0  0  0  0  0  0  0  0
    4.3237    0.9023   -1.4118 C   0  0  0  0  0  0  0  0  0  0  0  0
    5.2833    1.7987   -1.0461 C   0  0  0  0  0  0  0  0  0  0  0  0
    3.9350    3.1644   -2.3351 C   0  0  0  0  0  0  0  0  0  0  0  0
   -0.0001    0.2774    2.1046 C   0  0  0  0  0  0  0  0  0  0  0  0
   -5.4557    2.8807   -1.3196 C   0  0  0  0  0  0  0  0  0  0  0  0
   -5.0146    2.2803   -0.1644 N   0  0  0  0  0  0  0  0  0  0  0  0
   -4.2791    1.1320   -0.0914 C   0  0  0  0  0  0  0  0  0  0  0  0
   -3.9234    0.4777   -1.2823 C   0  0  0  0  0  0  0  0  0  0  0  0
   -4.3638    1.0514   -2.5195 C   0  0  0  0  0  0  0  0  0  0  0  0
   -5.0858    2.1869   -2.5433 C   0  0  0  0  0  0  0  0  0  0  0  0
   -3.1512   -0.6814   -1.2182 C   0  0  0  0  0  0  0  0  0  0  0  0
   -2.7415   -1.1638    0.0069 C   0  0  0  0  0  0  0  0  0  0  0  0
   -1.6799   -2.5776    0.0545 S   0  0  1  0  0  0  0  0  0  0  0  0
   -2.1893   -3.5378   -0.9107 O   0  0  0  0  0  0  0  0  0  0  0  0
    1.9106   -1.0723   -0.6720 C   0  0  0  0  0  0  0  0  0  0  0  0
    3.1051   -0.7913   -0.1259 N   0  0  0  0  0  0  0  0  0  0  0  0
    3.3726   -0.7139    1.2830 C   0  0  0  0  0  0  0  0  0  0  0  0
    4.1594   -1.9297    3.1199 O   0  0  0  0  0  0  0  0  0  0  0  0
    3.7373   -3.0915    1.2534 O   0  0  0  0  0  0  0  0  0  0  0  0
    5.0631    3.0997   -1.5774 C   0  0  0  0  0  0  0  0  0  0  0  0
    3.1351    1.6502   -2.4135 S   0  0  0  0  0  0  0  0  0  0  0  0
    1.7442   -1.0893   -1.8832 O   0  0  0  0  0  0  0  0  0  0  0  0
    0.1569    0.0000    0.7390 C   0  0  0  0  0  0  0  0  0  0  0  0
    0.4336   -0.6612    2.9659 O   0  0  0  0  0  0  0  0  0  0  0  0
    0.2937   -0.4417    4.3556 C   0  0  0  0  0  0  0  0  0  0  0  0
   -0.5729    1.4833    2.5059 C   0  0  0  0  0  0  0  0  0  0  0  0
   -1.0022    2.3970    1.5561 C   0  0  0  0  0  0  0  0  0  0  0  0
   -0.8574    2.1317    0.2033 C   0  0  0  0  0  0  0  0  0  0  0  0
   -0.2729    0.9396   -0.1908 C   0  0  0  0  0  0  0  0  0  0  0  0
   -1.4955   -2.9529    1.4457 O   0  0  0  0  0  0  0  0  0  0  0  0
   -3.1144   -0.5261    1.1913 C   0  0  0  0  0  0  0  0  0  0  0  0
   -3.8823    0.6126    1.1431 C   0  0  0  0  0  0  0  0  0  0  0  0
   -0.1864   -1.9516   -1.5198 H   0  0  0  0  0  0  0  0  0  0  0  0
    1.0362   -1.9299    1.1126 H   0  0  0  0  0  0  0  0  0  0  0  0
    4.1474   -1.1833   -1.8946 H   0  0  0  0  0  0  0  0  0  0  0  0
    5.1461   -0.8218   -0.5090 H   0  0  0  0  0  0  0  0  0  0  0  0
    6.1248    1.5351   -0.4193 H   0  0  0  0  0  0  0  0  0  0  0  0
    3.5315    4.0216   -2.8521 H   0  0  0  0  0  0  0  0  0  0  0  0
   -4.1015    0.5533   -3.4447 H   0  0  0  0  0  0  0  0  0  0  0  0
   -5.4136    2.6237   -3.4762 H   0  0  0  0  0  0  0  0  0  0  0  0
   -2.8748   -1.1746   -2.1425 H   0  0  0  0  0  0  0  0  0  0  0  0
    2.5229   -0.3349    1.8489 H   0  0  0  0  0  0  0  0  0  0  0  0
    4.1666    0.0161    1.4557 H   0  0  0  0  0  0  0  0  0  0  0  0
    4.3919   -2.7938    3.4924 H   0  0  0  0  0  0  0  0  0  0  0  0
    5.7140    3.9437   -1.4001 H   0  0  0  0  0  0  0  0  0  0  0  0
    0.8468    0.4405    4.6866 H   0  0  0  0  0  0  0  0  0  0  0  0
   -0.7542   -0.3335    4.6457 H   0  0  0  0  0  0  0  0  0  0  0  0
    0.7051   -1.3194    4.8469 H   0  0  0  0  0  0  0  0  0  0  0  0
   -0.7035    1.7159    3.5539 H   0  0  0  0  0  0  0  0  0  0  0  0
   -1.4578    3.3221    1.8844 H   0  0  0  0  0  0  0  0  0  0  0  0
   -1.1989    2.8409   -0.5381 H   0  0  0  0  0  0  0  0  0  0  0  0
   -0.1637    0.7297   -1.2477 H   0  0  0  0  0  0  0  0  0  0  0  0
   -2.8039   -0.9158    2.1498 H   0  0  0  0  0  0  0  0  0  0  0  0
   -4.1661    1.1131    2.0594 H   0  0  0  0  0  0  0  0  0  0  0  0
   -5.2553    2.7439    0.7024 H   0  0  0  0  0  0  0  0  0  0  0  0
   -6.1051    3.9158   -1.2821 O   0  0  0  0  0  0  0  0  0  0  0  0
 60  9  2  0
  9 14  1  0
  9 10  1  0
 14 13  2  0
 10 11  1  0
 13 12  1  0
 11 12  2  0
 11 36  1  0
 12 15  1  0
 36 35  2  0
 15 16  2  0
  7 24  2  0
  7 25  1  0
 35 16  1  0
 16 17  1  0
 24  6  1  0
 25  5  1  0
 34 17  2  0
 18 17  2  0
 17  1  1  6
  6  5  2  0
  5  4  1  0
 21 20  1  0
 21  3  1  0
  1  2  1  0
 26 19  2  0
 20 19  1  0
 20  4  1  0
 19  2  1  0
  2 27  1  0
 23  3  2  0
  3 22  1  0
 28 29  1  0
 28  8  1  0
 27  8  2  0
 27 33  1  0
  8 30  1  0
 33 32  2  0
 30 31  2  0
 32 31  1  0
  1 37  1  0
  2 38  1  1
  4 39  1  0
  4 40  1  0
  6 41  1  0
  7 42  1  0
 10 59  1  0
 13 43  1  0
 14 44  1  0
 15 45  1  0
 21 46  1  0
 21 47  1  0
 22 48  1  0
 24 49  1  0
 29 50  1  0
 29 51  1  0
 29 52  1  0
 30 53  1  0
 31 54  1  0
 32 55  1  0
 33 56  1  0
 35 57  1  0
 36 58  1  0
M  END
