
     RDKit          3D

 24 26  0  0  0  0  0  0  0  0999 V2000
    4.3833    0.2403   -0.0767 C   0  0  0  0  0  0  0  0  0  0  0  0
    3.8700   -0.6904    0.8152 C   0  0  0  0  0  0  0  0  0  0  0  0
    2.5085   -0.9631    0.8292 C   0  0  0  0  0  0  0  0  0  0  0  0
    0.2115   -0.6552   -0.0569 C   0  0  0  0  0  0  0  0  0  0  0  0
   -0.2177   -1.9414   -0.1750 C   0  0  0  0  0  0  0  0  0  0  0  0
   -2.1216   -0.3958   -0.0393 C   0  0  0  0  0  0  0  0  0  0  0  0
   -0.8979    0.2498    0.0288 C   0  0  0  0  0  0  0  0  0  0  0  0
   -0.9022    1.6786    0.2426 C   0  0  0  0  0  0  0  0  0  0  0  0
   -3.3245    1.4579    0.1759 C   0  0  0  0  0  0  0  0  0  0  0  0
    1.6438   -0.3078   -0.0460 C   0  0  0  0  0  0  0  0  0  0  0  0
    2.1685    0.6254   -0.9401 C   0  0  0  0  0  0  0  0  0  0  0  0
    3.5281    0.8947   -0.9561 C   0  0  0  0  0  0  0  0  0  0  0  0
   -1.9315   -2.0973   -0.1972 S   0  0  0  0  0  0  0  0  0  0  0  0
    0.0585    2.4101    0.3917 O   0  0  0  0  0  0  0  0  0  0  0  0
   -2.1965    2.1895    0.2784 N   0  0  0  0  0  0  0  0  0  0  0  0
   -3.3448    0.1769    0.0246 N   0  0  0  0  0  0  0  0  0  0  0  0
    5.4439    0.4559   -0.0888 H   0  0  0  0  0  0  0  0  0  0  0  0
    4.5267   -1.2035    1.5057 H   0  0  0  0  0  0  0  0  0  0  0  0
    2.1099   -1.6835    1.5328 H   0  0  0  0  0  0  0  0  0  0  0  0
    0.3993   -2.8214   -0.2778 H   0  0  0  0  0  0  0  0  0  0  0  0
   -4.2522    2.0124    0.2322 H   0  0  0  0  0  0  0  0  0  0  0  0
    1.5146    1.1294   -1.6393 H   0  0  0  0  0  0  0  0  0  0  0  0
    3.9236    1.6153   -1.6605 H   0  0  0  0  0  0  0  0  0  0  0  0
   -2.2904    3.1886    0.4106 H   0  0  0  0  0  0  0  0  0  0  0  0
  9 16  2  0
  9 15  1  0
 16  6  1  0
 15  8  1  0
  6  7  2  0
  6 13  1  0
  8 14  2  0
  8  7  1  0
  7  4  1  0
 13  5  1  0
  4  5  2  0
  4 10  1  0
 11 10  2  0
 11 12  1  0
 10  3  1  0
 12  1  2  0
  3  2  2  0
  1  2  1  0
  1 17  1  0
  2 18  1  0
  3 19  1  0
  5 20  1  0
  9 21  1  0
 11 22  1  0
 12 23  1  0
 15 24  1  0
M  END
