
     RDKit          3D

 23 24  0  0  0  0  0  0  0  0999 V2000
    1.2449   -0.2826    0.1120 C   0  0  0  0  0  0  0  0  0  0  0  0
    2.4224    0.4342   -0.1599 C   0  0  0  0  0  0  0  0  0  0  0  0
    1.5820   -1.6328   -0.1724 C   0  0  0  0  0  0  0  0  0  0  0  0
    2.5022    1.8243   -0.0219 C   0  0  0  0  0  0  0  0  0  0  0  0
    1.3648    2.4641    0.4125 C   0  0  0  0  0  0  0  0  0  0  0  0
    0.1764    1.7686    0.7119 C   0  0  0  0  0  0  0  0  0  0  0  0
   -2.7145    1.2337   -0.3014 O   0  0  0  0  0  0  0  0  0  0  0  0
   -2.4022   -0.1773   -0.1660 S   0  0  1  0  0  0  0  0  0  0  0  0
   -3.3976   -1.0896    0.3700 O   0  0  0  0  0  0  0  0  0  0  0  0
   -1.8573   -0.7781   -1.7477 C   0  0  0  0  0  0  0  0  0  0  0  0
    0.1013    0.4019    0.5580 C   0  0  0  0  0  0  0  0  0  0  0  0
    3.3266   -0.4881   -0.5612 N   0  0  0  0  0  0  0  0  0  0  0  0
    2.8266   -1.7229   -0.5695 N   0  0  0  0  0  0  0  0  0  0  0  0
    0.9667   -2.5166   -0.0964 H   0  0  0  0  0  0  0  0  0  0  0  0
    3.4096    2.3688   -0.2449 H   0  0  0  0  0  0  0  0  0  0  0  0
    1.3793    3.5382    0.5407 H   0  0  0  0  0  0  0  0  0  0  0  0
   -0.6790    2.3177    1.0780 H   0  0  0  0  0  0  0  0  0  0  0  0
   -1.0197   -0.1773   -2.0955 H   0  0  0  0  0  0  0  0  0  0  0  0
   -1.5644   -1.8210   -1.6540 H   0  0  0  0  0  0  0  0  0  0  0  0
   -2.6898   -0.6855   -2.4430 H   0  0  0  0  0  0  0  0  0  0  0  0
   -0.9516   -1.2627    1.1661 H   0  0  0  0  0  0  0  0  0  0  0  0
    4.2821   -0.3341   -0.8401 H   0  0  0  0  0  0  0  0  0  0  0  0
   -1.0869   -0.3078    0.8498 N   0  0  0  0  0  0  0  0  0  0  0  0
  7  8  2  0
  8 23  1  1
 23 11  1  0
  8  9  2  0
  8 10  1  0
 11  6  1  0
 11  1  2  0
  6  5  2  0
  1  3  1  0
  1  2  1  0
  5  4  1  0
  3 13  2  0
  2  4  2  0
  2 12  1  0
 13 12  1  0
  3 14  1  0
  4 15  1  0
  5 16  1  0
  6 17  1  0
 10 18  1  0
 10 19  1  0
 10 20  1  0
 23 21  1  0
 12 22  1  0
M  END
