
     RDKit          3D

 86 88  0  0  0  0  0  0  0  0999 V2000
   -6.9883    2.5246    1.7690 O   0  0  0  0  0  0  0  0  0  0  0  0
   -6.0839    3.1502    0.8668 C   0  0  1  0  0  0  0  0  0  0  0  0
   -6.7865    3.4661   -0.4536 C   0  0  0  0  0  0  0  0  0  0  0  0
   -5.5522    4.4485    1.4760 C   0  0  0  0  0  0  0  0  0  0  0  0
   -4.9185    2.1749    0.6697 C   0  0  0  0  0  0  0  0  0  0  0  0
   -5.2976    0.7764    0.1943 C   0  0  0  0  0  0  0  0  0  0  0  0
   -4.1075   -0.0751   -0.2711 C   0  0  2  0  0  0  0  0  0  0  0  0
   -4.5771   -1.4573   -0.7393 C   0  0  0  0  0  0  0  0  0  0  0  0
   -5.5864   -1.4472   -1.8838 C   0  0  0  0  0  0  0  0  0  0  0  0
   -5.8902   -2.8472   -2.4060 C   0  0  0  0  0  0  0  0  0  0  0  0
   -6.9200   -2.8528   -3.5272 C   0  0  0  0  0  0  0  0  0  0  0  0
   -2.9819   -0.1618    0.7910 C   0  0  1  0  0  0  0  0  0  0  0  0
   -3.4714   -0.8429    2.0686 C   0  0  0  0  0  0  0  0  0  0  0  0
   -1.7045   -0.7925    0.2188 C   0  0  1  0  0  0  0  0  0  0  0  0
   -1.1914   -0.0264   -1.0289 C   0  0  0  0  0  0  0  0  0  0  0  0
    0.3450   -0.1476   -1.0403 C   0  0  0  0  0  0  0  0  0  0  0  0
   -0.4521   -0.8905    1.1254 C   0  0  1  0  0  0  0  0  0  0  0  0
    0.6305   -1.1674    0.0503 C   0  0  2  0  0  0  0  0  0  0  0  0
   -0.1921    0.4334    1.8463 C   0  0  0  0  0  0  0  0  0  0  0  0
   -0.4289   -2.0621    2.1102 C   0  0  0  0  0  0  0  0  0  0  0  0
    0.9601   -2.2757    2.7107 C   0  0  0  0  0  0  0  0  0  0  0  0
    2.0588   -2.4109    1.6517 C   0  0  0  0  0  0  0  0  0  0  0  0
    2.0021   -1.3063    0.6307 C   0  0  0  0  0  0  0  0  0  0  0  0
    3.0413   -0.5449    0.2517 C   0  0  0  0  0  0  0  0  0  0  0  0
    4.4023   -0.6425    0.7494 C   0  0  0  0  0  0  0  0  0  0  0  0
    5.4555    0.0866    0.3489 C   0  0  0  0  0  0  0  0  0  0  0  0
    6.8221   -0.1336    0.9278 C   0  0  0  0  0  0  0  0  0  0  0  0
    7.8348   -0.4645   -0.1689 C   0  0  1  0  0  0  0  0  0  0  0  0
    7.4948   -1.7342   -0.6908 O   0  0  0  0  0  0  0  0  0  0  0  0
    5.4196    1.1473   -0.7130 C   0  0  0  0  0  0  0  0  0  0  0  0
    6.4164    0.8205   -1.8321 C   0  0  1  0  0  0  0  0  0  0  0  0
    6.3660    1.8610   -2.7742 O   0  0  0  0  0  0  0  0  0  0  0  0
    7.7838    0.6043   -1.2331 C   0  0  0  0  0  0  0  0  0  0  0  0
    8.8584    1.3138   -1.5594 C   0  0  0  0  0  0  0  0  0  0  0  0
   -7.7270    3.1250    1.9134 H   0  0  0  0  0  0  0  0  0  0  0  0
   -7.6031    4.1748   -0.2950 H   0  0  0  0  0  0  0  0  0  0  0  0
   -6.0951    3.9215   -1.1644 H   0  0  0  0  0  0  0  0  0  0  0  0
   -7.2089    2.5750   -0.9181 H   0  0  0  0  0  0  0  0  0  0  0  0
   -5.0627    4.2619    2.4337 H   0  0  0  0  0  0  0  0  0  0  0  0
   -4.8268    4.9232    0.8137 H   0  0  0  0  0  0  0  0  0  0  0  0
   -6.3598    5.1659    1.6440 H   0  0  0  0  0  0  0  0  0  0  0  0
   -4.2263    2.6278   -0.0486 H   0  0  0  0  0  0  0  0  0  0  0  0
   -4.3704    2.1114    1.6153 H   0  0  0  0  0  0  0  0  0  0  0  0
   -5.8497    0.2528    0.9801 H   0  0  0  0  0  0  0  0  0  0  0  0
   -5.9940    0.8614   -0.6431 H   0  0  0  0  0  0  0  0  0  0  0  0
   -3.6916    0.4395   -1.1474 H   0  0  0  0  0  0  0  0  0  0  0  0
   -3.7110   -2.0402   -1.0687 H   0  0  0  0  0  0  0  0  0  0  0  0
   -5.0059   -2.0073    0.1055 H   0  0  0  0  0  0  0  0  0  0  0  0
   -6.5242   -0.9837   -1.5648 H   0  0  0  0  0  0  0  0  0  0  0  0
   -5.2042   -0.8283   -2.7044 H   0  0  0  0  0  0  0  0  0  0  0  0
   -4.9644   -3.3133   -2.7572 H   0  0  0  0  0  0  0  0  0  0  0  0
   -6.2460   -3.4695   -1.5786 H   0  0  0  0  0  0  0  0  0  0  0  0
   -7.1250   -3.8643   -3.8798 H   0  0  0  0  0  0  0  0  0  0  0  0
   -7.8663   -2.4203   -3.1971 H   0  0  0  0  0  0  0  0  0  0  0  0
   -6.5746   -2.2702   -4.3835 H   0  0  0  0  0  0  0  0  0  0  0  0
   -2.7197    0.8702    1.0501 H   0  0  0  0  0  0  0  0  0  0  0  0
   -2.7817   -0.6836    2.8959 H   0  0  0  0  0  0  0  0  0  0  0  0
   -4.4369   -0.4464    2.3860 H   0  0  0  0  0  0  0  0  0  0  0  0
   -3.5849   -1.9211    1.9403 H   0  0  0  0  0  0  0  0  0  0  0  0
   -1.9310   -1.8243   -0.0789 H   0  0  0  0  0  0  0  0  0  0  0  0
   -1.6336   -0.4268   -1.9425 H   0  0  0  0  0  0  0  0  0  0  0  0
   -1.4944    1.0227   -0.9774 H   0  0  0  0  0  0  0  0  0  0  0  0
    0.7367   -0.4598   -2.0094 H   0  0  0  0  0  0  0  0  0  0  0  0
    0.8085    0.8137   -0.8071 H   0  0  0  0  0  0  0  0  0  0  0  0
    0.3726   -2.1572   -0.3593 H   0  0  0  0  0  0  0  0  0  0  0  0
   -0.9427    0.6072    2.6196 H   0  0  0  0  0  0  0  0  0  0  0  0
    0.7845    0.4497    2.3316 H   0  0  0  0  0  0  0  0  0  0  0  0
   -0.2249    1.2880    1.1682 H   0  0  0  0  0  0  0  0  0  0  0  0
   -1.1455   -1.9188    2.9196 H   0  0  0  0  0  0  0  0  0  0  0  0
   -0.7394   -2.9704    1.5809 H   0  0  0  0  0  0  0  0  0  0  0  0
    1.2038   -1.4473    3.3812 H   0  0  0  0  0  0  0  0  0  0  0  0
    0.9544   -3.1732    3.3339 H   0  0  0  0  0  0  0  0  0  0  0  0
    3.0303   -2.4733    2.1419 H   0  0  0  0  0  0  0  0  0  0  0  0
    1.9194   -3.3639    1.1265 H   0  0  0  0  0  0  0  0  0  0  0  0
    2.8586    0.2032   -0.5123 H   0  0  0  0  0  0  0  0  0  0  0  0
    4.5896   -1.3828    1.5211 H   0  0  0  0  0  0  0  0  0  0  0  0
    7.1695    0.7783    1.4256 H   0  0  0  0  0  0  0  0  0  0  0  0
    6.8141   -0.9274    1.6783 H   0  0  0  0  0  0  0  0  0  0  0  0
    8.8398   -0.4798    0.2732 H   0  0  0  0  0  0  0  0  0  0  0  0
    8.1427   -1.9609   -1.3657 H   0  0  0  0  0  0  0  0  0  0  0  0
    4.4269    1.2675   -1.1460 H   0  0  0  0  0  0  0  0  0  0  0  0
    5.7032    2.1119   -0.2742 H   0  0  0  0  0  0  0  0  0  0  0  0
    6.0936   -0.1267   -2.2873 H   0  0  0  0  0  0  0  0  0  0  0  0
    6.8702    1.5949   -3.5498 H   0  0  0  0  0  0  0  0  0  0  0  0
    8.8363    2.1088   -2.2930 H   0  0  0  0  0  0  0  0  0  0  0  0
    9.8150    1.1221   -1.0887 H   0  0  0  0  0  0  0  0  0  0  0  0
 34 33  2  0
 32 31  1  0
 33 31  1  0
 33 28  1  0
 31 30  1  0
 28 29  1  0
 28 27  1  0
 30 26  1  0
 27 26  1  0
 26 25  2  0
 25 24  1  0
 24 23  2  0
 23 18  1  0
 23 22  1  0
 16 18  1  0
 16 15  1  0
 17 19  1  1
 18 17  1  0
 15 14  1  0
 22 21  1  0
 17 14  1  0
 17 20  1  0
  4  2  1  0
 21 20  1  0
 14 12  1  0
  5  2  1  0
  5  6  1  0
 12  7  1  0
 12 13  1  0
  2  1  1  1
  2  3  1  0
  7  6  1  0
  7  8  1  0
 11 10  1  0
 10  9  1  0
  8  9  1  0
  1 35  1  0
  3 36  1  0
  3 37  1  0
  3 38  1  0
  4 39  1  0
  4 40  1  0
  4 41  1  0
  5 42  1  0
  5 43  1  0
  6 44  1  0
  6 45  1  0
  7 46  1  6
  8 47  1  0
  8 48  1  0
  9 49  1  0
  9 50  1  0
 10 51  1  0
 10 52  1  0
 11 53  1  0
 11 54  1  0
 11 55  1  0
 12 56  1  1
 13 57  1  0
 13 58  1  0
 13 59  1  0
 14 60  1  6
 15 61  1  0
 15 62  1  0
 16 63  1  0
 16 64  1  0
 18 65  1  6
 19 66  1  0
 19 67  1  0
 19 68  1  0
 20 69  1  0
 20 70  1  0
 21 71  1  0
 21 72  1  0
 22 73  1  0
 22 74  1  0
 24 75  1  0
 25 76  1  0
 27 77  1  0
 27 78  1  0
 28 79  1  1
 29 80  1  0
 30 81  1  0
 30 82  1  0
 31 83  1  6
 32 84  1  0
 34 85  1  0
 34 86  1  0
M  END
