
     RDKit          3D

 54 57  0  0  0  0  0  0  0  0999 V2000
    3.1293   -1.3098    0.0683 C   0  0  0  0  0  0  0  0  0  0  0  0
    2.0858   -0.3044    0.2570 C   0  0  0  0  0  0  0  0  0  0  0  0
    0.6923   -0.3792    0.0760 C   0  0  0  0  0  0  0  0  0  0  0  0
   -6.1304   -1.7491   -0.6408 N   0  0  0  0  0  0  0  0  0  0  0  0
    4.5924    0.2585    1.3208 C   0  0  2  0  0  0  0  0  0  0  0  0
    4.3230   -0.0372    2.7923 C   0  0  0  0  0  0  0  0  0  0  0  0
    3.7832    1.4544    0.8151 C   0  0  0  0  0  0  0  0  0  0  0  0
    2.3930    0.9954    0.5976 C   0  0  0  0  0  0  0  0  0  0  0  0
    0.1832    0.8818    0.3198 C   0  0  0  0  0  0  0  0  0  0  0  0
   -1.2116    1.2877    0.2725 C   0  0  0  0  0  0  0  0  0  0  0  0
   -1.6940    2.5983    0.4585 C   0  0  0  0  0  0  0  0  0  0  0  0
   -0.8624    3.8160    0.7227 C   0  0  0  0  0  0  0  0  0  0  0  0
   -3.3486    0.5448   -0.0394 C   0  0  0  0  0  0  0  0  0  0  0  0
   -3.0712    2.7249    0.3717 C   0  0  0  0  0  0  0  0  0  0  0  0
   -7.6800   -0.3209   -0.5693 C   0  0  0  0  0  0  0  0  0  0  0  0
   -6.4935    0.4000   -0.3645 C   0  0  0  0  0  0  0  0  0  0  0  0
    2.9090   -2.3904   -0.4711 O   0  0  0  0  0  0  0  0  0  0  0  0
    4.3622   -0.9371    0.4971 N   0  0  0  0  0  0  0  0  0  0  0  0
    5.4849   -1.8327    0.2925 C   0  0  0  0  0  0  0  0  0  0  0  0
    6.1661   -1.6175   -1.0440 C   0  0  0  0  0  0  0  0  0  0  0  0
    6.6826   -0.3131   -1.0984 O   0  0  0  0  0  0  0  0  0  0  0  0
    7.2702   -0.0138   -2.3379 C   0  0  0  0  0  0  0  0  0  0  0  0
    1.2534    1.6985    0.6320 N   0  0  0  0  0  0  0  0  0  0  0  0
   -2.0523    0.2845    0.0234 N   0  0  0  0  0  0  0  0  0  0  0  0
   -3.9144    1.7316    0.1298 N   0  0  0  0  0  0  0  0  0  0  0  0
   -4.1382   -0.5407   -0.3017 N   0  0  0  0  0  0  0  0  0  0  0  0
   -5.5078   -0.5701   -0.4201 C   0  0  0  0  0  0  0  0  0  0  0  0
   -7.4603   -1.6075   -0.7362 N   0  0  0  0  0  0  0  0  0  0  0  0
    0.1128   -1.2469   -0.1933 H   0  0  0  0  0  0  0  0  0  0  0  0
    5.6453    0.5117    1.2065 H   0  0  0  0  0  0  0  0  0  0  0  0
    3.2754   -0.2835    2.9697 H   0  0  0  0  0  0  0  0  0  0  0  0
    4.9277   -0.8776    3.1342 H   0  0  0  0  0  0  0  0  0  0  0  0
    4.5790    0.8265    3.4069 H   0  0  0  0  0  0  0  0  0  0  0  0
    3.8448    2.2724    1.5348 H   0  0  0  0  0  0  0  0  0  0  0  0
    4.2054    1.8194   -0.1268 H   0  0  0  0  0  0  0  0  0  0  0  0
   -0.3413    3.7687    1.6816 H   0  0  0  0  0  0  0  0  0  0  0  0
   -0.1262    3.9971   -0.0632 H   0  0  0  0  0  0  0  0  0  0  0  0
   -1.4983    4.6996    0.7621 H   0  0  0  0  0  0  0  0  0  0  0  0
   -3.5189    3.7047    0.5080 H   0  0  0  0  0  0  0  0  0  0  0  0
   -8.6877    0.0656   -0.5992 H   0  0  0  0  0  0  0  0  0  0  0  0
   -6.3706    1.4538   -0.2036 H   0  0  0  0  0  0  0  0  0  0  0  0
    6.1994   -1.6825    1.1040 H   0  0  0  0  0  0  0  0  0  0  0  0
    5.1561   -2.8699    0.3520 H   0  0  0  0  0  0  0  0  0  0  0  0
    6.9644   -2.3647   -1.1608 H   0  0  0  0  0  0  0  0  0  0  0  0
    5.4454   -1.7884   -1.8559 H   0  0  0  0  0  0  0  0  0  0  0  0
    7.6488    1.0069   -2.2945 H   0  0  0  0  0  0  0  0  0  0  0  0
    8.1073   -0.6831   -2.5708 H   0  0  0  0  0  0  0  0  0  0  0  0
    6.5495   -0.0809   -3.1615 H   0  0  0  0  0  0  0  0  0  0  0  0
    1.2063    2.6782    0.8567 H   0  0  0  0  0  0  0  0  0  0  0  0
   -3.6278   -1.4009   -0.4339 H   0  0  0  0  0  0  0  0  0  0  0  0
   -4.8554   -3.0815   -1.6488 H   0  0  0  0  0  0  0  0  0  0  0  0
   -4.9533   -3.3179    0.1095 H   0  0  0  0  0  0  0  0  0  0  0  0
   -6.3091   -3.7752   -0.9250 H   0  0  0  0  0  0  0  0  0  0  0  0
   -5.5173   -3.0470   -0.7830 C   0  0  0  0  0  0  0  0  0  0  0  0
 22 21  1  0
 21 20  1  0
 17  1  2  0
 20 19  1  0
 12 11  1  0
  1  2  1  0
  1 18  1  0
  3  2  1  0
  3  9  2  0
 19 18  1  0
 11 14  2  0
 11 10  1  0
  2  8  2  0
 14 25  1  0
 18  5  1  0
  9 10  1  0
  9 23  1  0
 10 24  2  0
  8 23  1  0
  8  7  1  0
 25 13  2  0
 24 13  1  0
 13 26  1  0
  7  5  1  0
  5  6  1  0
 26 27  1  0
 54  4  1  0
 27  4  1  0
 27 16  2  0
  4 28  1  0
 16 15  1  0
 28 15  2  0
  3 29  1  0
  5 30  1  1
  6 31  1  0
  6 32  1  0
  6 33  1  0
  7 34  1  0
  7 35  1  0
 12 36  1  0
 12 37  1  0
 12 38  1  0
 14 39  1  0
 15 40  1  0
 16 41  1  0
 19 42  1  0
 19 43  1  0
 20 44  1  0
 20 45  1  0
 22 46  1  0
 22 47  1  0
 22 48  1  0
 23 49  1  0
 26 50  1  0
 54 51  1  0
 54 52  1  0
 54 53  1  0
M  END
