
     RDKit          3D

 40 39  0  0  0  0  0  0  0  0999 V2000
    6.4904    1.4381   -0.9282 O   0  0  0  0  0  0  0  0  0  0  0  0
    5.1520    1.6789   -0.5581 C   0  0  0  0  0  0  0  0  0  0  0  0
    4.4766    0.3439   -0.3037 C   0  0  2  0  0  0  0  0  0  0  0  0
    4.4730   -0.4918   -1.4461 O   0  0  0  0  0  0  0  0  0  0  0  0
    3.0338    0.5461    0.1617 C   0  0  1  0  0  0  0  0  0  0  0  0
    2.2228    1.0729   -0.8606 O   0  0  0  0  0  0  0  0  0  0  0  0
    2.4205   -0.7565    0.7121 C   0  0  1  0  0  0  0  0  0  0  0  0
    3.1195   -1.2417    1.8255 O   0  0  0  0  0  0  0  0  0  0  0  0
    0.9612   -0.4828    1.0711 C   0  0  0  0  0  0  0  0  0  0  0  0
    0.6963    0.0942    2.0996 O   0  0  0  0  0  0  0  0  0  0  0  0
   -0.0847   -0.9966    0.1267 C   0  0  0  0  0  0  0  0  0  0  0  0
   -1.4023   -0.5272    0.4573 N   0  0  0  0  0  0  0  0  0  0  0  0
   -2.4354   -0.8966   -0.4729 C   0  0  1  0  0  0  0  0  0  0  0  0
   -2.7642   -2.3852   -0.4497 C   0  0  0  0  0  0  0  0  0  0  0  0
   -2.5033   -3.1214    0.4685 O   0  0  0  0  0  0  0  0  0  0  0  0
   -3.7175   -0.1027   -0.1858 C   0  0  0  0  0  0  0  0  0  0  0  0
   -3.4808    1.3892   -0.3416 C   0  0  0  0  0  0  0  0  0  0  0  0
   -4.6994    2.2175   -0.0512 C   0  0  0  0  0  0  0  0  0  0  0  0
   -5.7665    1.7861    0.3096 O   0  0  0  0  0  0  0  0  0  0  0  0
   -4.4672    3.5141   -0.2328 O   0  0  0  0  0  0  0  0  0  0  0  0
   -3.4028   -2.7739   -1.5452 O   0  0  0  0  0  0  0  0  0  0  0  0
    6.8762    2.2691   -1.2193 H   0  0  0  0  0  0  0  0  0  0  0  0
    5.0810    2.2825    0.3556 H   0  0  0  0  0  0  0  0  0  0  0  0
    4.6117    2.2222   -1.3448 H   0  0  0  0  0  0  0  0  0  0  0  0
    5.0245   -0.1648    0.4991 H   0  0  0  0  0  0  0  0  0  0  0  0
    4.8561   -0.0241   -2.1943 H   0  0  0  0  0  0  0  0  0  0  0  0
    3.0292    1.2831    0.9738 H   0  0  0  0  0  0  0  0  0  0  0  0
    2.3459    0.5224   -1.6440 H   0  0  0  0  0  0  0  0  0  0  0  0
    2.4726   -1.5347   -0.0565 H   0  0  0  0  0  0  0  0  0  0  0  0
    3.0180   -0.6117    2.5492 H   0  0  0  0  0  0  0  0  0  0  0  0
    0.1834   -0.6700   -0.8830 H   0  0  0  0  0  0  0  0  0  0  0  0
    0.0349   -2.0939    0.1130 H   0  0  0  0  0  0  0  0  0  0  0  0
   -1.6564   -0.7998    1.3988 H   0  0  0  0  0  0  0  0  0  0  0  0
   -2.0951   -0.6445   -1.4835 H   0  0  0  0  0  0  0  0  0  0  0  0
   -4.5082   -0.4272   -0.8636 H   0  0  0  0  0  0  0  0  0  0  0  0
   -4.0592   -0.3294    0.8278 H   0  0  0  0  0  0  0  0  0  0  0  0
   -2.6741    1.7171    0.3186 H   0  0  0  0  0  0  0  0  0  0  0  0
   -3.1405    1.6166   -1.3566 H   0  0  0  0  0  0  0  0  0  0  0  0
   -5.2642    4.0245   -0.0264 H   0  0  0  0  0  0  0  0  0  0  0  0
   -3.6419   -3.7111   -1.4810 H   0  0  0  0  0  0  0  0  0  0  0  0
  1  2  1  0
  4  3  1  0
  2  3  1  0
  3  5  1  0
  8  7  1  0
  5  7  1  0
  5  6  1  0
  7  9  1  0
  9 11  1  0
  9 10  2  0
 11 12  1  0
 12 13  1  0
 15 14  2  0
 14 13  1  0
 14 21  1  0
 13 16  1  0
 16 17  1  0
 17 18  1  0
 18 19  2  0
 18 20  1  0
  1 22  1  0
  2 23  1  0
  2 24  1  0
  3 25  1  1
  4 26  1  0
  5 27  1  1
  6 28  1  0
  7 29  1  6
  8 30  1  0
 11 31  1  0
 11 32  1  0
 12 33  1  0
 13 34  1  6
 16 35  1  0
 16 36  1  0
 17 37  1  0
 17 38  1  0
 20 39  1  0
 21 40  1  0
M  END
