
     RDKit          3D

 66 70  0  0  0  0  0  0  0  0999 V2000
    2.4597   -0.6360    0.2895 N   0  0  0  0  0  0  0  0  0  0  0  0
   -0.6046    1.1835   -0.6847 C   0  0  0  0  0  0  0  0  0  0  0  0
    0.7397    0.8879   -0.6028 C   0  0  0  0  0  0  0  0  0  0  0  0
    1.1390   -0.2155    0.1533 C   0  0  0  0  0  0  0  0  0  0  0  0
    0.1688   -0.9770    0.8101 C   0  0  0  0  0  0  0  0  0  0  0  0
   -1.1716   -0.6510    0.7166 C   0  0  0  0  0  0  0  0  0  0  0  0
   -1.5705    0.4348   -0.0389 C   0  0  0  0  0  0  0  0  0  0  0  0
   -3.4343    1.7810    0.3736 C   0  0  0  0  0  0  0  0  0  0  0  0
    3.5855   -0.0568   -0.2192 C   0  0  0  0  0  0  0  0  0  0  0  0
   -4.8027    2.0201    0.1225 C   0  0  0  0  0  0  0  0  0  0  0  0
   -6.6791   -2.0142   -1.7070 C   0  0  0  0  0  0  0  0  0  0  0  0
   11.0432   -0.2782   -0.1094 C   0  0  0  0  0  0  0  0  0  0  0  0
   10.4058   -0.3155    1.1150 C   0  0  0  0  0  0  0  0  0  0  0  0
    9.0899   -0.7548    1.1621 C   0  0  0  0  0  0  0  0  0  0  0  0
   10.4137   -0.6676   -1.2761 C   0  0  0  0  0  0  0  0  0  0  0  0
    9.0987   -1.1037   -1.2049 C   0  0  0  0  0  0  0  0  0  0  0  0
    8.4210   -1.1525    0.0093 C   0  0  0  0  0  0  0  0  0  0  0  0
    6.9927   -1.5978    0.0727 C   0  0  0  0  0  0  0  0  0  0  0  0
    6.3573    0.5955   -0.6833 O   0  0  0  0  0  0  0  0  0  0  0  0
    4.7162   -0.8230    0.0403 N   0  0  0  0  0  0  0  0  0  0  0  0
    3.6076    0.9891   -0.8259 O   0  0  0  0  0  0  0  0  0  0  0  0
   -2.9077    0.7058   -0.2099 O   0  0  0  0  0  0  0  0  0  0  0  0
   -2.7177    2.5436    1.1351 N   0  0  0  0  0  0  0  0  0  0  0  0
   -3.3429    3.6130    1.6879 C   0  0  0  0  0  0  0  0  0  0  0  0
   -4.5795    3.9585    1.5539 N   0  0  0  0  0  0  0  0  0  0  0  0
   -5.3037    3.1439    0.7709 N   0  0  0  0  0  0  0  0  0  0  0  0
   -6.6125    3.2808    0.4927 C   0  0  0  0  0  0  0  0  0  0  0  0
   -6.9706    2.2392   -0.3425 C   0  0  0  0  0  0  0  0  0  0  0  0
   -5.8440    1.4391   -0.5895 C   0  0  0  0  0  0  0  0  0  0  0  0
   -5.8304    0.1973   -1.4227 C   0  0  0  0  0  0  0  0  0  0  0  0
   -6.5424   -0.8995   -0.7852 N   0  0  0  0  0  0  0  0  0  0  0  0
   -5.9084   -1.3182    0.4533 C   0  0  0  0  0  0  0  0  0  0  0  0
   -6.6998   -2.4262    1.1293 C   0  0  0  0  0  0  0  0  0  0  0  0
   -6.8723   -3.6226    0.2054 C   0  0  2  0  0  0  0  0  0  0  0  0
   -7.4946   -3.1435   -1.0980 C   0  0  0  0  0  0  0  0  0  0  0  0
   -7.7159   -4.6277    0.8355 N   0  0  0  0  0  0  0  0  0  0  0  0
    2.5735   -1.4763    0.8362 H   0  0  0  0  0  0  0  0  0  0  0  0
    1.4433    1.5108   -1.1305 H   0  0  0  0  0  0  0  0  0  0  0  0
    0.4623   -1.8381    1.3971 H   0  0  0  0  0  0  0  0  0  0  0  0
   -1.9121   -1.2528    1.2271 H   0  0  0  0  0  0  0  0  0  0  0  0
   -7.1698   -1.6569   -2.6160 H   0  0  0  0  0  0  0  0  0  0  0  0
   -5.6916   -2.4019   -2.0163 H   0  0  0  0  0  0  0  0  0  0  0  0
    8.5818   -0.7911    2.1180 H   0  0  0  0  0  0  0  0  0  0  0  0
   10.9379   -0.6308   -2.2222 H   0  0  0  0  0  0  0  0  0  0  0  0
    8.5995   -1.4135   -2.1146 H   0  0  0  0  0  0  0  0  0  0  0  0
    6.8024   -2.3999   -0.6477 H   0  0  0  0  0  0  0  0  0  0  0  0
    6.7592   -2.0138    1.0561 H   0  0  0  0  0  0  0  0  0  0  0  0
    4.5833   -1.7384    0.4466 H   0  0  0  0  0  0  0  0  0  0  0  0
   -2.7412    4.2546    2.3175 H   0  0  0  0  0  0  0  0  0  0  0  0
   -7.1870    4.0956    0.9007 H   0  0  0  0  0  0  0  0  0  0  0  0
   -7.9601    2.0753   -0.7403 H   0  0  0  0  0  0  0  0  0  0  0  0
   -6.3351    0.4119   -2.3690 H   0  0  0  0  0  0  0  0  0  0  0  0
   -4.7998   -0.0828   -1.6817 H   0  0  0  0  0  0  0  0  0  0  0  0
   -4.8719   -1.6601    0.2780 H   0  0  0  0  0  0  0  0  0  0  0  0
   -5.8446   -0.4631    1.1285 H   0  0  0  0  0  0  0  0  0  0  0  0
   -6.1867   -2.7220    2.0490 H   0  0  0  0  0  0  0  0  0  0  0  0
   -7.6872   -2.0507    1.4156 H   0  0  0  0  0  0  0  0  0  0  0  0
   -5.8658   -4.0091   -0.0310 H   0  0  0  0  0  0  0  0  0  0  0  0
   -8.5149   -2.7984   -0.9040 H   0  0  0  0  0  0  0  0  0  0  0  0
   -7.5610   -3.9650   -1.8171 H   0  0  0  0  0  0  0  0  0  0  0  0
   -7.7872   -5.4360    0.2287 H   0  0  0  0  0  0  0  0  0  0  0  0
   -7.2608   -4.9613    1.6771 H   0  0  0  0  0  0  0  0  0  0  0  0
   -0.9914    2.2297   -1.4206 F   0  0  0  0  0  0  0  0  0  0  0  0
    6.0205   -0.4726   -0.2370 C   0  0  0  0  0  0  0  0  0  0  0  0
   10.9230   -0.0112    2.0155 H   0  0  0  0  0  0  0  0  0  0  0  0
   12.3166    0.1468   -0.1670 F   0  0  0  0  0  0  0  0  0  0  0  0
  1  4  1  0
  1  9  1  0
  2  3  2  0
  2  7  1  0
  2 63  1  0
  3  4  1  0
  4  5  2  0
  5  6  1  0
  6  7  2  0
  7 22  1  0
  8 10  1  0
  8 22  1  0
  8 23  2  0
  9 20  1  0
  9 21  2  0
 10 26  1  0
 10 29  2  0
 11 31  1  0
 11 35  1  0
 66 12  1  0
 12 13  2  0
 12 15  1  0
 13 14  1  0
 14 17  2  0
 15 16  2  0
 16 17  1  0
 17 18  1  0
 18 64  1  0
 64 19  2  0
 64 20  1  0
 23 24  1  0
 24 25  2  0
 25 26  1  0
 26 27  1  0
 27 28  2  0
 28 29  1  0
 29 30  1  0
 30 31  1  0
 31 32  1  0
 32 33  1  0
 33 34  1  0
 34 35  1  0
 34 36  1  0
  1 37  1  0
  3 38  1  0
  5 39  1  0
  6 40  1  0
 11 41  1  0
 11 42  1  0
 13 65  1  0
 14 43  1  0
 15 44  1  0
 16 45  1  0
 18 46  1  0
 18 47  1  0
 20 48  1  0
 24 49  1  0
 27 50  1  0
 28 51  1  0
 30 52  1  0
 30 53  1  0
 32 54  1  0
 32 55  1  0
 33 56  1  0
 33 57  1  0
 34 58  1  6
 35 59  1  0
 35 60  1  0
 36 61  1  0
 36 62  1  0
M  END
