
     RDKit          3D

 34 35  0  0  0  0  0  0  0  0999 V2000
    0.3432    0.2030    0.0690 N   0  0  0  0  0  0  0  0  0  0  0  0
   -3.5508   -1.2040   -0.5785 C   0  0  0  0  0  0  0  0  0  0  0  0
   -2.4651   -1.9520   -1.0098 C   0  0  0  0  0  0  0  0  0  0  0  0
   -1.1684   -1.5150   -0.7990 C   0  0  0  0  0  0  0  0  0  0  0  0
   -0.9405   -0.3115   -0.1261 C   0  0  0  0  0  0  0  0  0  0  0  0
    1.4364   -0.5600    0.4247 C   0  0  0  0  0  0  0  0  0  0  0  0
    4.8954   -0.5316   -0.0466 C   0  0  0  0  0  0  0  0  0  0  0  0
   -2.0291    0.4356    0.3076 C   0  0  0  0  0  0  0  0  0  0  0  0
   -5.8672    0.3928    0.2763 C   0  0  0  0  0  0  0  0  0  0  0  0
    4.0199    1.3954   -1.0133 C   0  0  0  0  0  0  0  0  0  0  0  0
    2.8818    1.4481   -0.0040 C   0  0  0  0  0  0  0  0  0  0  0  0
   -4.4638    0.8497    0.5629 C   0  0  0  0  0  0  0  0  0  0  0  0
   -3.3346    0.0039    0.0793 C   0  0  0  0  0  0  0  0  0  0  0  0
    3.8048   -0.5454    1.0083 C   0  0  0  0  0  0  0  0  0  0  0  0
    2.6143    0.1111    0.4971 N   0  0  0  0  0  0  0  0  0  0  0  0
   -4.2468    1.8779    1.1705 O   0  0  0  0  0  0  0  0  0  0  0  0
    1.3385   -1.7557    0.6608 O   0  0  0  0  0  0  0  0  0  0  0  0
    5.1704    0.7839   -0.4782 O   0  0  0  0  0  0  0  0  0  0  0  0
    0.3762    1.1910    0.2629 H   0  0  0  0  0  0  0  0  0  0  0  0
   -4.5514   -1.5673   -0.7663 H   0  0  0  0  0  0  0  0  0  0  0  0
   -2.6301   -2.8851   -1.5318 H   0  0  0  0  0  0  0  0  0  0  0  0
   -0.3424   -2.1018   -1.1719 H   0  0  0  0  0  0  0  0  0  0  0  0
    5.8193   -0.9414    0.3634 H   0  0  0  0  0  0  0  0  0  0  0  0
    4.5896   -1.1602   -0.8947 H   0  0  0  0  0  0  0  0  0  0  0  0
   -1.8587    1.3686    0.8313 H   0  0  0  0  0  0  0  0  0  0  0  0
   -6.0240    0.2655   -0.7958 H   0  0  0  0  0  0  0  0  0  0  0  0
   -6.0635   -0.5741    0.7429 H   0  0  0  0  0  0  0  0  0  0  0  0
   -6.5848    1.1168    0.6551 H   0  0  0  0  0  0  0  0  0  0  0  0
    3.6778    0.8581   -1.9089 H   0  0  0  0  0  0  0  0  0  0  0  0
    4.2937    2.4088   -1.3098 H   0  0  0  0  0  0  0  0  0  0  0  0
    3.1441    2.1084    0.8288 H   0  0  0  0  0  0  0  0  0  0  0  0
    2.0139    1.8759   -0.5000 H   0  0  0  0  0  0  0  0  0  0  0  0
    3.5748   -1.5675    1.2962 H   0  0  0  0  0  0  0  0  0  0  0  0
    4.1463   -0.0133    1.9024 H   0  0  0  0  0  0  0  0  0  0  0  0
 17  6  2  0
 14 15  1  0
 14  7  1  0
  6 15  1  0
  6  1  1  0
 15 11  1  0
  4  3  1  0
  4  5  2  0
  3  2  2  0
  1  5  1  0
  5  8  1  0
  2 13  1  0
  7 18  1  0
  8 13  2  0
 13 12  1  0
 12 16  2  0
 12  9  1  0
 11 10  1  0
 10 18  1  0
  1 19  1  0
  2 20  1  0
  3 21  1  0
  4 22  1  0
  7 23  1  0
  7 24  1  0
  8 25  1  0
  9 26  1  0
  9 27  1  0
  9 28  1  0
 10 29  1  0
 10 30  1  0
 11 31  1  0
 11 32  1  0
 14 33  1  0
 14 34  1  0
M  END
