
     RDKit          3D

 82 83  0  0  0  0  0  0  0  0999 V2000
   -6.0285    1.2842    0.2688 C   0  0  0  0  0  0  0  0  0  0  0  0
   -6.3765    0.9018   -0.8387 O   0  0  0  0  0  0  0  0  0  0  0  0
   -7.0255    1.5141    1.3774 C   0  0  0  0  0  0  0  0  0  0  0  0
   -4.7449    1.5256    0.6012 N   0  0  0  0  0  0  0  0  0  0  0  0
   -3.6257    1.2223   -0.2475 C   0  0  2  0  0  0  0  0  0  0  0  0
   -2.7130    0.2121    0.4571 C   0  0  0  0  0  0  0  0  0  0  0  0
   -2.9121   -0.1571    1.6011 O   0  0  0  0  0  0  0  0  0  0  0  0
   -2.9166    2.4933   -0.7668 C   0  0  2  0  0  0  0  0  0  0  0  0
   -2.4752    3.4689    0.3266 C   0  0  0  0  0  0  0  0  0  0  0  0
   -3.8200    3.2115   -1.7652 C   0  0  0  0  0  0  0  0  0  0  0  0
   -1.4508    2.9395    1.3234 C   0  0  0  0  0  0  0  0  0  0  0  0
    2.9743   -1.7182    0.1900 N   0  0  0  0  0  0  0  0  0  0  0  0
    3.7406   -1.9428   -1.0364 C   0  0  0  0  0  0  0  0  0  0  0  0
    4.6696   -3.1551   -0.9968 C   0  0  1  0  0  0  0  0  0  0  0  0
    3.9159   -4.4380   -0.6687 C   0  0  0  0  0  0  0  0  0  0  0  0
    5.3827   -3.2684   -2.3402 C   0  0  0  0  0  0  0  0  0  0  0  0
    0.6069   -0.9836   -0.2304 C   0  0  1  0  0  0  0  0  0  0  0  0
    0.8138   -0.6093   -1.5721 O   0  0  0  0  0  0  0  0  0  0  0  0
   -0.8537   -1.3533    0.0565 C   0  0  1  0  0  0  0  0  0  0  0  0
   -1.6998   -0.2399   -0.3053 N   0  0  0  0  0  0  0  0  0  0  0  0
   -1.3240   -2.6385   -0.6514 C   0  0  0  0  0  0  0  0  0  0  0  0
   -3.7710   -2.3947   -1.1816 C   0  0  0  0  0  0  0  0  0  0  0  0
   -5.1116   -2.5569   -0.8608 C   0  0  0  0  0  0  0  0  0  0  0  0
   -5.4726   -3.2643    0.2776 C   0  0  0  0  0  0  0  0  0  0  0  0
   -4.4849   -3.8079    1.0892 C   0  0  0  0  0  0  0  0  0  0  0  0
   -3.1459   -3.6289    0.7720 C   0  0  0  0  0  0  0  0  0  0  0  0
   -2.7717   -2.9155   -0.3632 C   0  0  0  0  0  0  0  0  0  0  0  0
    3.6259   -0.7769    1.3650 S   0  0  2  0  0  0  0  0  0  0  0  0
    5.0424   -1.1005    1.4467 O   0  0  0  0  0  0  0  0  0  0  0  0
    2.7825   -0.9234    2.5423 O   0  0  0  0  0  0  0  0  0  0  0  0
    3.5300    0.9116    0.8465 C   0  0  0  0  0  0  0  0  0  0  0  0
    2.4839    1.7202    1.2858 C   0  0  0  0  0  0  0  0  0  0  0  0
    4.5089    1.4372    0.0152 C   0  0  0  0  0  0  0  0  0  0  0  0
    2.4092    3.0329    0.8728 C   0  0  0  0  0  0  0  0  0  0  0  0
    4.4343    2.7545   -0.4093 C   0  0  0  0  0  0  0  0  0  0  0  0
    3.3794    3.5624    0.0149 C   0  0  0  0  0  0  0  0  0  0  0  0
    3.2239    4.8433   -0.3340 O   0  0  0  0  0  0  0  0  0  0  0  0
    4.1858    5.4404   -1.1868 C   0  0  0  0  0  0  0  0  0  0  0  0
   -6.6087    2.0271    2.2422 H   0  0  0  0  0  0  0  0  0  0  0  0
   -7.8678    2.0932    1.0019 H   0  0  0  0  0  0  0  0  0  0  0  0
   -7.4150    0.5506    1.7093 H   0  0  0  0  0  0  0  0  0  0  0  0
   -4.5454    1.7584    1.5603 H   0  0  0  0  0  0  0  0  0  0  0  0
   -4.0236    0.6995   -1.1230 H   0  0  0  0  0  0  0  0  0  0  0  0
   -2.0180    2.1733   -1.3058 H   0  0  0  0  0  0  0  0  0  0  0  0
   -2.0504    4.3400   -0.1791 H   0  0  0  0  0  0  0  0  0  0  0  0
   -3.3568    3.8422    0.8573 H   0  0  0  0  0  0  0  0  0  0  0  0
   -4.7446    3.5457   -1.2919 H   0  0  0  0  0  0  0  0  0  0  0  0
   -3.3180    4.0930   -2.1660 H   0  0  0  0  0  0  0  0  0  0  0  0
   -4.0854    2.5678   -2.6046 H   0  0  0  0  0  0  0  0  0  0  0  0
   -0.6205    2.4496    0.8108 H   0  0  0  0  0  0  0  0  0  0  0  0
   -1.0371    3.7571    1.9154 H   0  0  0  0  0  0  0  0  0  0  0  0
   -1.8784    2.2219    2.0218 H   0  0  0  0  0  0  0  0  0  0  0  0
    3.0204   -2.0724   -1.8453 H   0  0  0  0  0  0  0  0  0  0  0  0
    4.3063   -1.0461   -1.3033 H   0  0  0  0  0  0  0  0  0  0  0  0
    5.4193   -2.9879   -0.2205 H   0  0  0  0  0  0  0  0  0  0  0  0
    4.5943   -5.2923   -0.6589 H   0  0  0  0  0  0  0  0  0  0  0  0
    3.4404   -4.3905    0.3119 H   0  0  0  0  0  0  0  0  0  0  0  0
    3.1404   -4.6421   -1.4120 H   0  0  0  0  0  0  0  0  0  0  0  0
    5.9576   -2.3689   -2.5692 H   0  0  0  0  0  0  0  0  0  0  0  0
    6.0733   -4.1121   -2.3444 H   0  0  0  0  0  0  0  0  0  0  0  0
    4.6680   -3.4222   -3.1527 H   0  0  0  0  0  0  0  0  0  0  0  0
    1.4634   -2.9653   -0.3984 H   0  0  0  0  0  0  0  0  0  0  0  0
    1.2931   -2.4002    1.2390 H   0  0  0  0  0  0  0  0  0  0  0  0
    0.8067   -0.0790    0.3489 H   0  0  0  0  0  0  0  0  0  0  0  0
    0.7462   -1.3861   -2.1379 H   0  0  0  0  0  0  0  0  0  0  0  0
   -0.9488   -1.4981    1.1339 H   0  0  0  0  0  0  0  0  0  0  0  0
   -1.6431    0.0682   -1.2638 H   0  0  0  0  0  0  0  0  0  0  0  0
   -1.1787   -2.5406   -1.7314 H   0  0  0  0  0  0  0  0  0  0  0  0
   -0.7099   -3.4788   -0.3195 H   0  0  0  0  0  0  0  0  0  0  0  0
   -3.4977   -1.8507   -2.0787 H   0  0  0  0  0  0  0  0  0  0  0  0
   -5.8726   -2.1267   -1.4985 H   0  0  0  0  0  0  0  0  0  0  0  0
   -6.5169   -3.3939    0.5309 H   0  0  0  0  0  0  0  0  0  0  0  0
   -4.7579   -4.3675    1.9750 H   0  0  0  0  0  0  0  0  0  0  0  0
   -2.3809   -4.0451    1.4178 H   0  0  0  0  0  0  0  0  0  0  0  0
    1.7337    1.3388    1.9657 H   0  0  0  0  0  0  0  0  0  0  0  0
    5.3503    0.8380   -0.3058 H   0  0  0  0  0  0  0  0  0  0  0  0
    1.6055    3.6671    1.2241 H   0  0  0  0  0  0  0  0  0  0  0  0
    5.2127    3.1336   -1.0566 H   0  0  0  0  0  0  0  0  0  0  0  0
    5.1808    5.4393   -0.7358 H   0  0  0  0  0  0  0  0  0  0  0  0
    4.2334    4.9403   -2.1569 H   0  0  0  0  0  0  0  0  0  0  0  0
    3.8668    6.4683   -1.3355 H   0  0  0  0  0  0  0  0  0  0  0  0
    1.5631   -2.0795    0.2328 C   0  0  0  0  0  0  0  0  0  0  0  0
 38 37  1  0
 37 36  1  0
 36 34  1  0
 36 35  2  0
 34 32  2  0
 32 31  1  0
 31 33  2  0
 31 28  1  0
 33 35  1  0
 28 29  2  0
 28 30  2  0
 28 12  1  6
 12 13  1  0
 12 82  1  0
 13 14  1  0
 14 15  1  0
 14 16  1  0
 82 17  1  0
 17 18  1  0
 17 19  1  0
 19 20  1  0
 19 21  1  0
 20  6  1  0
  6  5  1  0
  6  7  2  0
  5  8  1  0
  5  4  1  0
  8 10  1  0
  8  9  1  0
  9 11  1  0
  1  4  1  0
  1  2  2  0
  1  3  1  0
 21 27  1  0
 22 23  2  0
 22 27  1  0
 23 24  1  0
 24 25  2  0
 25 26  1  0
 26 27  2  0
 38 79  1  0
 38 80  1  0
 38 81  1  0
 34 77  1  0
 32 75  1  0
 33 76  1  0
 35 78  1  0
 13 53  1  0
 13 54  1  0
 14 55  1  1
 15 56  1  0
 15 57  1  0
 15 58  1  0
 16 59  1  0
 16 60  1  0
 16 61  1  0
 82 62  1  0
 82 63  1  0
 17 64  1  1
 18 65  1  0
 19 66  1  1
 20 67  1  0
  5 43  1  6
  8 44  1  6
 10 47  1  0
 10 48  1  0
 10 49  1  0
  9 45  1  0
  9 46  1  0
 11 50  1  0
 11 51  1  0
 11 52  1  0
  4 42  1  0
  3 39  1  0
  3 40  1  0
  3 41  1  0
 21 68  1  0
 21 69  1  0
 22 70  1  0
 23 71  1  0
 24 72  1  0
 25 73  1  0
 26 74  1  0
M  END
