
     RDKit          3D

 36 37  0  0  0  0  0  0  0  0999 V2000
   -0.7331    0.7268   -0.9728 C   0  0  0  0  0  0  0  0  0  0  0  0
    2.2505   -2.0141    1.7513 C   0  0  0  0  0  0  0  0  0  0  0  0
    0.9301   -1.4172    2.1654 C   0  0  0  0  0  0  0  0  0  0  0  0
   -0.2525   -1.7436    1.5071 C   0  0  0  0  0  0  0  0  0  0  0  0
   -1.4509   -1.1403    1.8411 C   0  0  0  0  0  0  0  0  0  0  0  0
   -1.4966   -0.1879    2.8592 C   0  0  0  0  0  0  0  0  0  0  0  0
   -0.3262    0.1303    3.5458 C   0  0  0  0  0  0  0  0  0  0  0  0
    0.8662   -0.4876    3.1951 C   0  0  0  0  0  0  0  0  0  0  0  0
   -2.7284   -0.8065   -1.6614 O   0  0  0  0  0  0  0  0  0  0  0  0
   -3.1814    1.4999   -0.7924 O   0  0  0  0  0  0  0  0  0  0  0  0
   -2.1613    1.0942   -3.1442 N   0  0  0  0  0  0  0  0  0  0  0  0
   -2.3679    0.5994   -1.5901 S   0  0  1  0  0  0  0  0  0  0  0  0
   -0.3121    1.5889   -0.0030 C   0  0  0  0  0  0  0  0  0  0  0  0
    1.0412    1.3697    0.3353 C   0  0  0  0  0  0  0  0  0  0  0  0
    1.5767    0.3438   -0.3856 C   0  0  0  0  0  0  0  0  0  0  0  0
    0.4792   -0.3616   -1.4895 S   0  0  0  0  0  0  0  0  0  0  0  0
    3.1677   -0.3812   -0.1975 S   0  0  2  0  0  0  0  0  0  0  0  0
    4.1669    0.6683   -0.2318 O   0  0  0  0  0  0  0  0  0  0  0  0
    3.1850   -1.4652   -1.1640 O   0  0  0  0  0  0  0  0  0  0  0  0
    3.2370   -1.0293    1.2990 N   0  0  0  0  0  0  0  0  0  0  0  0
   -2.6981    0.3653    3.1077 O   0  0  0  0  0  0  0  0  0  0  0  0
   -2.7833    1.3865    4.0802 C   0  0  0  0  0  0  0  0  0  0  0  0
    2.7209   -2.5364    2.5853 H   0  0  0  0  0  0  0  0  0  0  0  0
    2.1144   -2.7542    0.9629 H   0  0  0  0  0  0  0  0  0  0  0  0
   -0.2398   -2.4740    0.7075 H   0  0  0  0  0  0  0  0  0  0  0  0
   -2.3565   -1.3911    1.3032 H   0  0  0  0  0  0  0  0  0  0  0  0
   -0.3183    0.8563    4.3470 H   0  0  0  0  0  0  0  0  0  0  0  0
    1.7639   -0.2163    3.7406 H   0  0  0  0  0  0  0  0  0  0  0  0
   -2.9046    0.7613   -3.7512 H   0  0  0  0  0  0  0  0  0  0  0  0
   -2.0458    2.0987   -3.2321 H   0  0  0  0  0  0  0  0  0  0  0  0
   -0.9401    2.3365    0.4575 H   0  0  0  0  0  0  0  0  0  0  0  0
    1.5733    1.9270    1.0923 H   0  0  0  0  0  0  0  0  0  0  0  0
    3.5336   -0.3607    2.0007 H   0  0  0  0  0  0  0  0  0  0  0  0
   -3.8203    1.7126    4.0972 H   0  0  0  0  0  0  0  0  0  0  0  0
   -2.5126    1.0296    5.0774 H   0  0  0  0  0  0  0  0  0  0  0  0
   -2.1511    2.2427    3.8297 H   0  0  0  0  0  0  0  0  0  0  0  0
  1 12  1  0
  1 13  2  0
  1 16  1  0
  2  3  1  0
  2 20  1  0
  2 23  1  0
  2 24  1  0
  3  4  2  0
  3  8  1  0
  4  5  1  0
  4 25  1  0
  5  6  2  0
  5 26  1  0
  6  7  1  0
  6 21  1  0
  7  8  2  0
  7 27  1  0
  8 28  1  0
  9 12  2  0
 10 12  2  0
 12 11  1  6
 11 29  1  0
 11 30  1  0
 13 14  1  0
 13 31  1  0
 14 15  2  0
 14 32  1  0
 15 16  1  0
 15 17  1  0
 17 18  2  0
 17 19  2  0
 17 20  1  1
 20 33  1  0
 21 22  1  0
 22 34  1  0
 22 35  1  0
 22 36  1  0
M  END
