
     RDKit          3D

 87 89  0  0  0  0  0  0  0  0999 V2000
    3.9676   -3.0027   -0.0719 C   0  0  0  0  0  0  0  0  0  0  0  0
    1.7037    0.2703    1.1555 C   0  0  2  0  0  0  0  0  0  0  0  0
   -0.4451    0.1961    0.0175 N   0  0  0  0  0  0  0  0  0  0  0  0
   -1.6712    0.6658   -0.5907 C   0  0  2  0  0  0  0  0  0  0  0  0
   -0.3903    1.3563   -2.6314 C   0  0  0  0  0  0  0  0  0  0  0  0
    0.6555    3.4317   -3.1750 C   0  0  0  0  0  0  0  0  0  0  0  0
    0.8050    0.7027   -2.9087 C   0  0  0  0  0  0  0  0  0  0  0  0
   -2.8529   -0.1211   -0.0075 C   0  0  1  0  0  0  0  0  0  0  0  0
   -4.1970    0.3741   -0.5197 C   0  0  0  0  0  0  0  0  0  0  0  0
   -6.5835    0.2173   -0.2524 C   0  0  0  0  0  0  0  0  0  0  0  0
   -8.6363   -1.2249   -0.0672 C   0  0  0  0  0  0  0  0  0  0  0  0
    6.6583   -5.7920   -0.1648 C   0  0  0  0  0  0  0  0  0  0  0  0
    6.8661   -7.0069   -1.0582 C   0  0  0  0  0  0  0  0  0  0  0  0
    5.4092   -5.0021   -0.5350 C   0  0  0  0  0  0  0  0  0  0  0  0
    5.2125   -3.7731    0.3456 C   0  0  0  0  0  0  0  0  0  0  0  0
    3.7615   -1.5274    0.9215 S   0  0  2  0  0  0  0  0  0  0  0  0
    4.9326   -0.6745    0.7167 O   0  0  0  0  0  0  0  0  0  0  0  0
    3.4296   -1.9195    2.2932 O   0  0  0  0  0  0  0  0  0  0  0  0
    2.2974   -0.7637    0.1958 C   0  0  0  0  0  0  0  0  0  0  0  0
    0.4790    1.0007    0.5690 C   0  0  0  0  0  0  0  0  0  0  0  0
    0.3616    2.2047    0.6722 O   0  0  0  0  0  0  0  0  0  0  0  0
   -1.5732    0.5861   -2.1239 C   0  0  0  0  0  0  0  0  0  0  0  0
   -0.4664    2.7390   -2.7693 C   0  0  0  0  0  0  0  0  0  0  0  0
    1.8617    2.8165   -3.4487 C   0  0  0  0  0  0  0  0  0  0  0  0
    1.9012    1.4458   -3.2979 C   0  0  0  0  0  0  0  0  0  0  0  0
   -2.6956   -1.5149   -0.1895 O   0  0  0  0  0  0  0  0  0  0  0  0
   -5.2853   -0.2114    0.2365 N   0  0  0  0  0  0  0  0  0  0  0  0
   -7.6975   -0.4048    0.5444 C   0  0  0  0  0  0  0  0  0  0  0  0
   -9.6784   -1.8146    0.6500 C   0  0  0  0  0  0  0  0  0  0  0  0
   -9.7631   -1.5658    2.0148 C   0  0  0  0  0  0  0  0  0  0  0  0
   -8.8268   -0.7513    2.6441 C   0  0  0  0  0  0  0  0  0  0  0  0
   -7.7977   -0.1764    1.9169 C   0  0  0  0  0  0  0  0  0  0  0  0
  -11.7330   -1.8194   -0.8008 C   0  0  0  0  0  0  0  0  0  0  0  0
    2.6872    1.1996    1.6309 N   0  0  0  0  0  0  0  0  0  0  0  0
    3.4158    1.9837    0.8105 C   0  0  0  0  0  0  0  0  0  0  0  0
    3.2789    2.0026   -0.3989 O   0  0  0  0  0  0  0  0  0  0  0  0
    3.0540    0.8088   -3.5454 F   0  0  0  0  0  0  0  0  0  0  0  0
    0.5778    4.7643   -3.3105 F   0  0  0  0  0  0  0  0  0  0  0  0
    4.4365    2.8324    1.4883 C   0  0  0  0  0  0  0  0  0  0  0  0
    5.1596    2.3879    2.5910 C   0  0  0  0  0  0  0  0  0  0  0  0
    6.0973    3.1096    3.1898 N   0  0  0  0  0  0  0  0  0  0  0  0
    6.3511    4.3203    2.7084 C   0  0  0  0  0  0  0  0  0  0  0  0
    5.7014    4.8535    1.6034 C   0  0  0  0  0  0  0  0  0  0  0  0
    4.7344    4.0896    0.9750 C   0  0  0  0  0  0  0  0  0  0  0  0
    4.0311   -2.6739   -1.1116 H   0  0  0  0  0  0  0  0  0  0  0  0
    3.0618   -3.6001    0.0458 H   0  0  0  0  0  0  0  0  0  0  0  0
    1.3445   -0.2683    2.0356 H   0  0  0  0  0  0  0  0  0  0  0  0
   -0.3126   -0.8033    0.0331 H   0  0  0  0  0  0  0  0  0  0  0  0
   -1.8007    1.7104   -0.3031 H   0  0  0  0  0  0  0  0  0  0  0  0
    0.8817   -0.3736   -2.8173 H   0  0  0  0  0  0  0  0  0  0  0  0
   -2.8328    0.0345    1.0755 H   0  0  0  0  0  0  0  0  0  0  0  0
   -4.2377    1.4616   -0.4019 H   0  0  0  0  0  0  0  0  0  0  0  0
   -4.2893    0.1796   -1.6015 H   0  0  0  0  0  0  0  0  0  0  0  0
   -6.6333    1.3072   -0.1592 H   0  0  0  0  0  0  0  0  0  0  0  0
   -6.7293   -0.0045   -1.3206 H   0  0  0  0  0  0  0  0  0  0  0  0
  -10.1929   -3.3223   -0.7709 H   0  0  0  0  0  0  0  0  0  0  0  0
  -11.2040   -3.3122    0.6588 H   0  0  0  0  0  0  0  0  0  0  0  0
    6.5903   -6.1114    0.8793 H   0  0  0  0  0  0  0  0  0  0  0  0
    7.5321   -5.1363   -0.2262 H   0  0  0  0  0  0  0  0  0  0  0  0
    7.7613   -7.5613   -0.7753 H   0  0  0  0  0  0  0  0  0  0  0  0
    6.0185   -7.6911   -0.9953 H   0  0  0  0  0  0  0  0  0  0  0  0
    6.9754   -6.7127   -2.1036 H   0  0  0  0  0  0  0  0  0  0  0  0
    5.4732   -4.6897   -1.5823 H   0  0  0  0  0  0  0  0  0  0  0  0
    4.5308   -5.6509   -0.4604 H   0  0  0  0  0  0  0  0  0  0  0  0
    5.1268   -4.0793    1.3907 H   0  0  0  0  0  0  0  0  0  0  0  0
    6.0899   -3.1276    0.2691 H   0  0  0  0  0  0  0  0  0  0  0  0
    2.5825   -0.3364   -0.7637 H   0  0  0  0  0  0  0  0  0  0  0  0
    1.6006   -1.5849    0.0262 H   0  0  0  0  0  0  0  0  0  0  0  0
   -1.4902   -0.4571   -2.4403 H   0  0  0  0  0  0  0  0  0  0  0  0
   -2.4900    0.9825   -2.5642 H   0  0  0  0  0  0  0  0  0  0  0  0
   -1.3862    3.2688   -2.5545 H   0  0  0  0  0  0  0  0  0  0  0  0
    2.7317    3.3801   -3.7580 H   0  0  0  0  0  0  0  0  0  0  0  0
   -2.8566   -1.7321   -1.1145 H   0  0  0  0  0  0  0  0  0  0  0  0
   -5.2307   -1.2212    0.1670 H   0  0  0  0  0  0  0  0  0  0  0  0
  -10.5620   -2.0135    2.5947 H   0  0  0  0  0  0  0  0  0  0  0  0
   -8.9039   -0.5676    3.7084 H   0  0  0  0  0  0  0  0  0  0  0  0
   -7.0685    0.4526    2.4127 H   0  0  0  0  0  0  0  0  0  0  0  0
  -12.4448   -2.4522   -1.3319 H   0  0  0  0  0  0  0  0  0  0  0  0
  -12.2948   -1.1910   -0.1089 H   0  0  0  0  0  0  0  0  0  0  0  0
  -11.2566   -1.1652   -1.5325 H   0  0  0  0  0  0  0  0  0  0  0  0
    2.7350    1.3471    2.6253 H   0  0  0  0  0  0  0  0  0  0  0  0
    4.9950    1.3923    2.9902 H   0  0  0  0  0  0  0  0  0  0  0  0
    7.1136    4.8956    3.2209 H   0  0  0  0  0  0  0  0  0  0  0  0
    5.9529    5.8429    1.2482 H   0  0  0  0  0  0  0  0  0  0  0  0
    4.2098    4.4643    0.1056 H   0  0  0  0  0  0  0  0  0  0  0  0
   -8.5553   -1.4156   -1.1330 H   0  0  0  0  0  0  0  0  0  0  0  0
  -10.6976   -2.6636   -0.0595 C   0  0  0  0  0  0  0  0  0  0  0  0
  1 15  1  0
 16  1  1  6
  1 45  1  0
  1 46  1  0
  2 19  1  0
  2 20  1  0
  2 34  1  0
  2 47  1  1
  3  4  1  0
  3 20  1  0
  3 48  1  0
  4  8  1  0
  4 22  1  0
  4 49  1  6
  5  7  2  0
  5 22  1  0
  5 23  1  0
  6 23  2  0
  6 24  1  0
  6 38  1  0
  7 25  1  0
  7 50  1  0
  8  9  1  0
  8 26  1  0
  8 51  1  1
  9 27  1  0
  9 52  1  0
  9 53  1  0
 10 27  1  0
 10 28  1  0
 10 54  1  0
 10 55  1  0
 11 28  2  0
 11 29  1  0
 11 86  1  0
 87 29  1  0
 87 33  1  0
 87 56  1  0
 87 57  1  0
 12 13  1  0
 12 14  1  0
 12 58  1  0
 12 59  1  0
 13 60  1  0
 13 61  1  0
 13 62  1  0
 14 15  1  0
 14 63  1  0
 14 64  1  0
 15 65  1  0
 15 66  1  0
 16 17  2  0
 16 18  2  0
 16 19  1  0
 19 67  1  0
 19 68  1  0
 20 21  2  0
 22 69  1  0
 22 70  1  0
 23 71  1  0
 24 25  2  0
 24 72  1  0
 25 37  1  0
 26 73  1  0
 27 74  1  0
 28 32  1  0
 29 30  2  0
 30 31  1  0
 30 75  1  0
 31 32  2  0
 31 76  1  0
 32 77  1  0
 33 78  1  0
 33 79  1  0
 33 80  1  0
 34 35  1  0
 34 81  1  0
 35 36  2  0
 35 39  1  0
 39 40  2  0
 39 44  1  0
 40 41  1  0
 40 82  1  0
 41 42  2  0
 42 43  1  0
 42 83  1  0
 43 44  2  0
 43 84  1  0
 44 85  1  0
M  END
