
     RDKit          3D

 42 44  0  0  0  0  0  0  0  0999 V2000
   -5.0483    1.7400    0.5804 Cl  0  0  0  0  0  0  0  0  0  0  0  0
    3.4978    0.9261   -0.7633 C   0  0  0  0  0  0  0  0  0  0  0  0
    3.8631   -0.4438   -0.8586 C   0  0  0  0  0  0  0  0  0  0  0  0
    2.7114   -1.1334   -0.6663 C   0  0  0  0  0  0  0  0  0  0  0  0
    1.6780   -0.3122   -0.4630 O   0  0  0  0  0  0  0  0  0  0  0  0
    2.1619    0.9551   -0.5222 C   0  0  0  0  0  0  0  0  0  0  0  0
    1.2484    2.0909   -0.3411 C   0  0  0  0  0  0  0  0  0  0  0  0
    1.6782    3.2308   -0.3969 O   0  0  0  0  0  0  0  0  0  0  0  0
   -1.1585    2.5444    0.0549 C   0  0  0  0  0  0  0  0  0  0  0  0
   -1.1490    3.9370    0.0775 C   0  0  0  0  0  0  0  0  0  0  0  0
   -2.3412    4.6215    0.2564 C   0  0  0  0  0  0  0  0  0  0  0  0
   -3.5422    3.9515    0.4111 C   0  0  0  0  0  0  0  0  0  0  0  0
   -3.5373    2.5644    0.3884 C   0  0  0  0  0  0  0  0  0  0  0  0
   -2.3680    1.8319    0.2167 C   0  0  0  0  0  0  0  0  0  0  0  0
   -2.2808    0.4231    0.1911 N   0  0  0  0  0  0  0  0  0  0  0  0
   -2.8437   -0.2731   -0.9558 C   0  0  0  0  0  0  0  0  0  0  0  0
   -2.2455   -1.6650   -1.0335 C   0  0  0  0  0  0  0  0  0  0  0  0
   -2.4809   -0.2867    1.4454 C   0  0  0  0  0  0  0  0  0  0  0  0
   -1.8918   -1.6798    1.3293 C   0  0  0  0  0  0  0  0  0  0  0  0
   -2.4787   -2.3862    0.2045 N   0  0  0  0  0  0  0  0  0  0  0  0
   -1.9912   -3.7510    0.1451 C   0  0  0  0  0  0  0  0  0  0  0  0
   -2.7296   -4.5645   -0.8180 C   0  0  0  0  0  0  0  0  0  0  0  0
   -3.3186   -5.2444   -1.6151 C   0  0  0  0  0  0  0  0  0  0  0  0
    4.1503    1.7777   -0.8635 H   0  0  0  0  0  0  0  0  0  0  0  0
    4.8402   -0.8568   -1.0437 H   0  0  0  0  0  0  0  0  0  0  0  0
   -0.2957    0.7583   -0.0945 H   0  0  0  0  0  0  0  0  0  0  0  0
   -0.2310    4.4876   -0.0432 H   0  0  0  0  0  0  0  0  0  0  0  0
   -2.3314    5.7029    0.2740 H   0  0  0  0  0  0  0  0  0  0  0  0
   -4.4667    4.4944    0.5492 H   0  0  0  0  0  0  0  0  0  0  0  0
   -3.9358   -0.3523   -0.9012 H   0  0  0  0  0  0  0  0  0  0  0  0
   -2.5924    0.2753   -1.8644 H   0  0  0  0  0  0  0  0  0  0  0  0
   -2.7152   -2.2017   -1.8600 H   0  0  0  0  0  0  0  0  0  0  0  0
   -1.1678   -1.5898   -1.2619 H   0  0  0  0  0  0  0  0  0  0  0  0
   -1.9716    0.2525    2.2455 H   0  0  0  0  0  0  0  0  0  0  0  0
   -3.5408   -0.3629    1.7170 H   0  0  0  0  0  0  0  0  0  0  0  0
   -0.7940   -1.6050    1.2386 H   0  0  0  0  0  0  0  0  0  0  0  0
   -2.1051   -2.2312    2.2475 H   0  0  0  0  0  0  0  0  0  0  0  0
   -0.9175   -3.8045   -0.1023 H   0  0  0  0  0  0  0  0  0  0  0  0
   -2.0998   -4.2021    1.1350 H   0  0  0  0  0  0  0  0  0  0  0  0
   -3.8451   -5.8417   -2.3237 H   0  0  0  0  0  0  0  0  0  0  0  0
   -0.0395    1.7427   -0.1229 N   0  0  0  0  0  0  0  0  0  0  0  0
    2.3616   -2.9412   -0.6425 Br  0  0  0  0  0  0  0  0  0  0  0  0
  2  6  2  0
  3  2  1  0
  3  4  2  0
  4 42  1  0
  4  5  1  0
  6  5  1  0
  6  7  1  0
  7 41  1  0
  8  7  2  0
 41  9  1  0
  9 14  1  0
 10  9  2  0
 10 11  1  0
 11 12  2  0
 12 13  1  0
 13  1  1  0
 14 13  2  0
 14 15  1  0
 15 16  1  0
 16 17  1  0
 18 15  1  0
 18 19  1  0
 19 20  1  0
 20 17  1  0
 20 21  1  0
 22 21  1  0
 23 22  3  0
  2 24  1  0
  3 25  1  0
 41 26  1  0
 10 27  1  0
 11 28  1  0
 12 29  1  0
 16 30  1  0
 16 31  1  0
 17 32  1  0
 17 33  1  0
 18 34  1  0
 18 35  1  0
 19 36  1  0
 19 37  1  0
 21 38  1  0
 21 39  1  0
 23 40  1  0
M  END
