
     RDKit          3D

 57 60  0  0  0  0  0  0  0  0999 V2000
   -3.1978    3.6096    1.2267 C   0  0  0  0  0  0  0  0  0  0  0  0
   -4.2927    2.9236    0.6515 O   0  0  0  0  0  0  0  0  0  0  0  0
   -4.1714    1.6073    0.4150 C   0  0  0  0  0  0  0  0  0  0  0  0
   -5.2975    0.9864   -0.1325 C   0  0  0  0  0  0  0  0  0  0  0  0
   -6.4229    1.7059   -0.3766 O   0  0  0  0  0  0  0  0  0  0  0  0
   -6.4733    2.2902   -1.6721 C   0  0  0  0  0  0  0  0  0  0  0  0
   -5.2682   -0.3820   -0.4149 C   0  0  0  0  0  0  0  0  0  0  0  0
   -4.1262   -1.1279   -0.1344 C   0  0  0  0  0  0  0  0  0  0  0  0
   -3.0102   -0.5044    0.4168 C   0  0  0  0  0  0  0  0  0  0  0  0
   -3.0300    0.8598    0.6927 C   0  0  0  0  0  0  0  0  0  0  0  0
   -1.8003   -1.2926    0.7155 C   0  0  0  0  0  0  0  0  0  0  0  0
   -0.5257   -0.7987    0.4613 C   0  0  0  0  0  0  0  0  0  0  0  0
    0.5992   -1.5657    0.7532 C   0  0  0  0  0  0  0  0  0  0  0  0
    0.3719   -2.8286    1.3040 C   0  0  0  0  0  0  0  0  0  0  0  0
   -0.8343   -3.3194    1.5472 N   0  0  0  0  0  0  0  0  0  0  0  0
   -1.8904   -2.5727    1.2605 C   0  0  0  0  0  0  0  0  0  0  0  0
    1.9603   -1.0764    0.4897 C   0  0  0  0  0  0  0  0  0  0  0  0
    2.9873   -1.9408    0.1022 C   0  0  0  0  0  0  0  0  0  0  0  0
    4.2642   -1.4827   -0.1533 C   0  0  0  0  0  0  0  0  0  0  0  0
    4.5922   -0.1208   -0.0338 C   0  0  0  0  0  0  0  0  0  0  0  0
    3.5623    0.7435    0.3677 C   0  0  0  0  0  0  0  0  0  0  0  0
    2.2832    0.2726    0.6127 C   0  0  0  0  0  0  0  0  0  0  0  0
    5.8671    0.3348   -0.3346 N   0  0  0  0  0  0  0  0  0  0  0  0
    6.1156    1.7636   -0.2659 C   0  0  0  0  0  0  0  0  0  0  0  0
    7.4117    2.1207   -0.9711 C   0  0  0  0  0  0  0  0  0  0  0  0
    8.5086    1.3646   -0.4039 N   0  0  0  0  0  0  0  0  0  0  0  0
    8.2751   -0.0512   -0.6004 C   0  0  0  0  0  0  0  0  0  0  0  0
    7.0035   -0.4608    0.1171 C   0  0  0  0  0  0  0  0  0  0  0  0
   -6.3885   -0.8860   -0.9570 O   0  0  0  0  0  0  0  0  0  0  0  0
   -6.4188   -2.2608   -1.2874 C   0  0  0  0  0  0  0  0  0  0  0  0
   -3.5082    4.6455    1.3359 H   0  0  0  0  0  0  0  0  0  0  0  0
   -2.9398    3.2142    2.2123 H   0  0  0  0  0  0  0  0  0  0  0  0
   -2.3114    3.5740    0.5881 H   0  0  0  0  0  0  0  0  0  0  0  0
   -2.1633    1.3203    1.1464 H   0  0  0  0  0  0  0  0  0  0  0  0
   -6.4057    1.5360   -2.4595 H   0  0  0  0  0  0  0  0  0  0  0  0
   -7.4320    2.7987   -1.7572 H   0  0  0  0  0  0  0  0  0  0  0  0
   -5.6753    3.0225   -1.8175 H   0  0  0  0  0  0  0  0  0  0  0  0
   -4.0853   -2.1832   -0.3675 H   0  0  0  0  0  0  0  0  0  0  0  0
   -0.4108    0.1748   -0.0013 H   0  0  0  0  0  0  0  0  0  0  0  0
   -2.8612   -2.9990    1.4907 H   0  0  0  0  0  0  0  0  0  0  0  0
    1.2093   -3.4638    1.5738 H   0  0  0  0  0  0  0  0  0  0  0  0
    2.7851   -2.9959   -0.0361 H   0  0  0  0  0  0  0  0  0  0  0  0
    1.5313    0.9815    0.9389 H   0  0  0  0  0  0  0  0  0  0  0  0
    5.0044   -2.1994   -0.4811 H   0  0  0  0  0  0  0  0  0  0  0  0
    3.7473    1.7979    0.5146 H   0  0  0  0  0  0  0  0  0  0  0  0
    5.3051    2.2961   -0.7641 H   0  0  0  0  0  0  0  0  0  0  0  0
    6.1536    2.1162    0.7756 H   0  0  0  0  0  0  0  0  0  0  0  0
    7.1430   -0.3465    1.2016 H   0  0  0  0  0  0  0  0  0  0  0  0
    6.8291   -1.5160   -0.0785 H   0  0  0  0  0  0  0  0  0  0  0  0
    7.2856    1.9388   -2.0502 H   0  0  0  0  0  0  0  0  0  0  0  0
    7.5931    3.1888   -0.8396 H   0  0  0  0  0  0  0  0  0  0  0  0
    9.3770    1.6354   -0.8458 H   0  0  0  0  0  0  0  0  0  0  0  0
    8.1847   -0.3245   -1.6640 H   0  0  0  0  0  0  0  0  0  0  0  0
    9.1078   -0.6221   -0.1859 H   0  0  0  0  0  0  0  0  0  0  0  0
   -7.4000   -2.4521   -1.7145 H   0  0  0  0  0  0  0  0  0  0  0  0
   -5.6566   -2.5197   -2.0266 H   0  0  0  0  0  0  0  0  0  0  0  0
   -6.2877   -2.8964   -0.4080 H   0  0  0  0  0  0  0  0  0  0  0  0
  1  2  1  0
  2  3  1  0
  3  4  2  0
  3 10  1  0
  4  5  1  0
  4  7  1  0
  5  6  1  0
  7  8  2  0
  7 29  1  0
  8  9  1  0
  9 10  2  0
  9 11  1  0
 11 12  2  0
 11 16  1  0
 12 13  1  0
 13 14  2  0
 13 17  1  0
 14 15  1  0
 15 16  2  0
 17 18  2  0
 17 22  1  0
 18 19  1  0
 19 20  2  0
 20 21  1  0
 20 23  1  0
 21 22  2  0
 23 24  1  0
 23 28  1  0
 24 25  1  0
 25 26  1  0
 26 27  1  0
 27 28  1  0
 29 30  1  0
  1 31  1  0
  1 32  1  0
  1 33  1  0
 10 34  1  0
  6 35  1  0
  6 36  1  0
  6 37  1  0
  8 38  1  0
 12 39  1  0
 16 40  1  0
 14 41  1  0
 18 42  1  0
 22 43  1  0
 19 44  1  0
 21 45  1  0
 24 46  1  0
 24 47  1  0
 28 48  1  0
 28 49  1  0
 25 50  1  0
 25 51  1  0
 26 52  1  0
 27 53  1  0
 27 54  1  0
 30 55  1  0
 30 56  1  0
 30 57  1  0
M  END
