
     RDKit          3D

 32 31  0  0  0  0  0  0  0  0999 V2000
   -1.6300   -0.5798   -3.0119 N   0  0  0  0  0  0  0  0  0  0  0  0
   -0.4380    0.2328   -3.0940 C   0  0  1  0  0  0  0  0  0  0  0  0
    0.5068    0.1895   -1.8850 C   0  0  0  0  0  0  0  0  0  0  0  0
   -0.3740    0.7689   -0.4682 S   0  0  0  0  0  0  0  0  0  0  0  0
    0.4966   -0.0271    0.8541 C   0  0  0  0  0  0  0  0  0  0  0  0
   -0.1848    0.3695    2.1384 C   0  0  0  0  0  0  0  0  0  0  0  0
    0.5032   -0.2608    3.3319 C   0  0  0  0  0  0  0  0  0  0  0  0
   -0.1791    0.1344    4.6244 C   0  0  0  0  0  0  0  0  0  0  0  0
    0.5046   -0.4934    5.8206 C   0  0  0  0  0  0  0  0  0  0  0  0
   -0.1706   -0.1031    7.1101 C   0  0  0  0  0  0  0  0  0  0  0  0
    0.3915   -0.1765   -4.3027 C   0  0  0  0  0  0  0  0  0  0  0  0
    0.7631    0.8696   -5.0865 O   0  0  0  0  0  0  0  0  0  0  0  0
    0.7544   -1.3043   -4.6444 O   0  0  0  0  0  0  0  0  0  0  0  0
   -2.1339   -0.3590   -2.1732 H   0  0  0  0  0  0  0  0  0  0  0  0
   -1.4038   -1.5559   -3.0257 H   0  0  0  0  0  0  0  0  0  0  0  0
   -0.7749    1.3051   -3.2440 H   0  0  0  0  0  0  0  0  0  0  0  0
    1.3858    0.8490   -2.0853 H   0  0  0  0  0  0  0  0  0  0  0  0
    0.8868   -0.8477   -1.7190 H   0  0  0  0  0  0  0  0  0  0  0  0
    1.5662    0.2950    0.8599 H   0  0  0  0  0  0  0  0  0  0  0  0
    0.4755   -1.1360    0.7213 H   0  0  0  0  0  0  0  0  0  0  0  0
   -1.2606    0.0483    2.1129 H   0  0  0  0  0  0  0  0  0  0  0  0
   -0.1722    1.4873    2.2452 H   0  0  0  0  0  0  0  0  0  0  0  0
    1.5780    0.0599    3.3597 H   0  0  0  0  0  0  0  0  0  0  0  0
    0.4927   -1.3778    3.2264 H   0  0  0  0  0  0  0  0  0  0  0  0
   -1.2542   -0.1853    4.5960 H   0  0  0  0  0  0  0  0  0  0  0  0
   -0.1688    1.2514    4.7294 H   0  0  0  0  0  0  0  0  0  0  0  0
    1.5799   -0.1742    5.8464 H   0  0  0  0  0  0  0  0  0  0  0  0
    0.4947   -1.6102    5.7130 H   0  0  0  0  0  0  0  0  0  0  0  0
    0.3488   -0.5761    7.9785 H   0  0  0  0  0  0  0  0  0  0  0  0
   -0.1490    1.0053    7.2471 H   0  0  0  0  0  0  0  0  0  0  0  0
   -1.2371   -0.4351    7.1134 H   0  0  0  0  0  0  0  0  0  0  0  0
    1.2875    0.5453   -5.8378 H   0  0  0  0  0  0  0  0  0  0  0  0
  1  2  1  0
  1 14  1  0
  1 15  1  0
  2  3  1  0
  2 11  1  0
  2 16  1  6
  3  4  1  0
  3 17  1  0
  3 18  1  0
  4  5  1  0
  5  6  1  0
  5 19  1  0
  5 20  1  0
  6  7  1  0
  6 21  1  0
  6 22  1  0
  7  8  1  0
  7 23  1  0
  7 24  1  0
  8  9  1  0
  8 25  1  0
  8 26  1  0
  9 10  1  0
  9 27  1  0
  9 28  1  0
 10 29  1  0
 10 30  1  0
 10 31  1  0
 11 12  1  0
 11 13  2  0
 12 32  1  0
M  END
