
     RDKit          3D

 60 63  0  0  0  0  0  0  0  0999 V2000
   -6.3771    0.2147    1.0981 C   0  0  0  0  0  0  0  0  0  0  0  0
   -1.1991   -3.1921    1.7975 C   0  0  0  0  0  0  0  0  0  0  0  0
   -7.6457   -0.1408    0.6748 C   0  0  0  0  0  0  0  0  0  0  0  0
   -8.1403    0.3804   -0.5198 C   0  0  0  0  0  0  0  0  0  0  0  0
   -0.8672    0.0002   -0.2279 C   0  0  1  0  0  0  0  0  0  0  0  0
   -9.4474    0.0238   -0.9659 C   0  0  0  0  0  0  0  0  0  0  0  0
   -7.3609    1.2529   -1.2795 C   0  0  0  0  0  0  0  0  0  0  0  0
   -6.0961    1.5975   -0.8396 C   0  0  0  0  0  0  0  0  0  0  0  0
   -3.1811    0.6322   -0.0146 C   0  0  0  0  0  0  0  0  0  0  0  0
   -1.0233   -1.4638    0.1262 C   0  0  0  0  0  0  0  0  0  0  0  0
   -1.0860   -1.8519    1.4629 C   0  0  0  0  0  0  0  0  0  0  0  0
  -10.5034   -0.2637   -1.3275 N   0  0  0  0  0  0  0  0  0  0  0  0
   -1.8309    0.8083    0.4770 N   0  0  0  0  0  0  0  0  0  0  0  0
   -5.5841    1.0861    0.3537 C   0  0  0  0  0  0  0  0  0  0  0  0
   -3.9253    2.9351    0.7720 C   0  0  0  0  0  0  0  0  0  0  0  0
   -4.1913    1.4310    0.8175 C   0  0  2  0  0  0  0  0  0  0  0  0
   -1.2550   -4.1609    0.8004 C   0  0  0  0  0  0  0  0  0  0  0  0
   -1.2025   -3.7799   -0.5317 C   0  0  0  0  0  0  0  0  0  0  0  0
   -1.0909   -2.4345   -0.8660 C   0  0  0  0  0  0  0  0  0  0  0  0
    0.5477    0.4907    0.1206 C   0  0  0  0  0  0  0  0  0  0  0  0
    2.9101   -0.1159   -0.3752 C   0  0  0  0  0  0  0  0  0  0  0  0
    3.4253    1.0144    0.0713 N   0  0  0  0  0  0  0  0  0  0  0  0
    4.7460    1.1334    0.1108 C   0  0  0  0  0  0  0  0  0  0  0  0
    5.6421    0.1459   -0.2863 C   0  0  0  0  0  0  0  0  0  0  0  0
    7.0847    0.3357   -0.2097 C   0  0  0  0  0  0  0  0  0  0  0  0
    7.7881    1.3084    0.4786 C   0  0  0  0  0  0  0  0  0  0  0  0
    9.0912    1.0846    0.2541 N   0  0  0  0  0  0  0  0  0  0  0  0
   10.2102    1.8405    0.7637 C   0  0  0  0  0  0  0  0  0  0  0  0
    9.2984    0.0345   -0.5328 N   0  0  0  0  0  0  0  0  0  0  0  0
    8.0983   -0.4301   -0.8205 C   0  0  0  0  0  0  0  0  0  0  0  0
    5.0745   -1.0372   -0.7685 C   0  0  0  0  0  0  0  0  0  0  0  0
    3.7060   -1.1766   -0.8180 C   0  0  0  0  0  0  0  0  0  0  0  0
    0.7403    1.4745    0.7988 O   0  0  0  0  0  0  0  0  0  0  0  0
   -5.9977   -0.1920    2.0271 H   0  0  0  0  0  0  0  0  0  0  0  0
   -1.2455   -3.4840    2.8389 H   0  0  0  0  0  0  0  0  0  0  0  0
   -8.2496   -0.8161    1.2655 H   0  0  0  0  0  0  0  0  0  0  0  0
   -0.9576    0.0922   -1.3255 H   0  0  0  0  0  0  0  0  0  0  0  0
   -7.7443    1.6578   -2.2062 H   0  0  0  0  0  0  0  0  0  0  0  0
   -5.5056    2.2783   -1.4389 H   0  0  0  0  0  0  0  0  0  0  0  0
   -3.2836    0.9080   -1.0773 H   0  0  0  0  0  0  0  0  0  0  0  0
   -3.4391   -0.4281    0.0542 H   0  0  0  0  0  0  0  0  0  0  0  0
   -1.0549   -1.0986    2.2399 H   0  0  0  0  0  0  0  0  0  0  0  0
   -1.5593    1.7810    0.4100 H   0  0  0  0  0  0  0  0  0  0  0  0
    1.2222   -1.1065   -0.9180 H   0  0  0  0  0  0  0  0  0  0  0  0
   -2.9707    3.1805    1.2379 H   0  0  0  0  0  0  0  0  0  0  0  0
   -3.8992    3.3109   -0.2524 H   0  0  0  0  0  0  0  0  0  0  0  0
   -4.6965    3.4847    1.3118 H   0  0  0  0  0  0  0  0  0  0  0  0
   -4.0915    1.0947    1.8541 H   0  0  0  0  0  0  0  0  0  0  0  0
   -1.3447   -5.2070    1.0631 H   0  0  0  0  0  0  0  0  0  0  0  0
   -1.2554   -4.5256   -1.3140 H   0  0  0  0  0  0  0  0  0  0  0  0
   -1.0653   -2.1402   -1.9093 H   0  0  0  0  0  0  0  0  0  0  0  0
    5.1152    2.0862    0.4765 H   0  0  0  0  0  0  0  0  0  0  0  0
    7.4559    2.1204    1.1057 H   0  0  0  0  0  0  0  0  0  0  0  0
   10.8612    1.1992    1.3539 H   0  0  0  0  0  0  0  0  0  0  0  0
   10.7800    2.2722   -0.0566 H   0  0  0  0  0  0  0  0  0  0  0  0
    9.8367    2.6425    1.3933 H   0  0  0  0  0  0  0  0  0  0  0  0
    7.9909   -1.2920   -1.4622 H   0  0  0  0  0  0  0  0  0  0  0  0
    5.6997   -1.8578   -1.0965 H   0  0  0  0  0  0  0  0  0  0  0  0
    3.2602   -2.0921   -1.1845 H   0  0  0  0  0  0  0  0  0  0  0  0
    1.5279   -0.2734   -0.4367 N   0  0  0  0  0  0  0  0  0  0  0  0
 15 16  1  0
 16 14  1  0
 16  9  1  0
 14  1  2  0
 14  8  1  0
  1  3  1  0
  8  7  2  0
  3  4  2  0
  9 13  1  0
  7  4  1  0
  4  6  1  0
  6 12  3  0
 13  5  1  0
  5 10  1  0
  5 20  1  0
 11 10  1  0
 11  2  2  0
 10 19  2  0
 19 18  1  0
  2 17  1  0
 18 17  2  0
 20 33  2  0
 20 60  1  0
 60 21  1  0
 21 32  1  0
 21 22  2  0
 32 31  2  0
 22 23  1  0
 31 24  1  0
 23 24  2  0
 24 25  1  0
 25 26  2  0
 25 30  1  0
 26 27  1  0
 30 29  2  0
 27 29  1  0
 27 28  1  0
  1 34  1  0
  2 35  1  0
  3 36  1  0
  5 37  1  6
  7 38  1  0
  8 39  1  0
  9 40  1  0
  9 41  1  0
 11 42  1  0
 13 43  1  0
 60 44  1  0
 15 45  1  0
 15 46  1  0
 15 47  1  0
 16 48  1  1
 17 49  1  0
 18 50  1  0
 19 51  1  0
 23 52  1  0
 26 53  1  0
 28 54  1  0
 28 55  1  0
 28 56  1  0
 30 57  1  0
 31 58  1  0
 32 59  1  0
M  END
