
     RDKit          3D

 37 40  0  0  0  0  0  0  0  0999 V2000
   -0.5053   -2.2575    0.0825 C   0  0  0  0  0  0  0  0  0  0  0  0
   -2.6583   -3.2226    0.1501 C   0  0  0  0  0  0  0  0  0  0  0  0
   -2.0847   -4.4708    0.1591 C   0  0  0  0  0  0  0  0  0  0  0  0
    1.8890    3.1596   -0.0633 C   0  0  0  0  0  0  0  0  0  0  0  0
    3.2708    3.1876   -0.0774 C   0  0  0  0  0  0  0  0  0  0  0  0
    3.9783    1.9943   -0.0164 C   0  0  0  0  0  0  0  0  0  0  0  0
    3.2397    0.8255    0.0589 C   0  0  0  0  0  0  0  0  0  0  0  0
    3.8954   -0.5254    0.1709 C   0  0  1  0  0  0  0  0  0  0  0  0
    1.2453    1.9247    0.0141 C   0  0  0  0  0  0  0  0  0  0  0  0
   -1.8889   -2.0560    0.1104 C   0  0  0  0  0  0  0  0  0  0  0  0
   -2.8987    1.5281    0.0271 C   0  0  0  0  0  0  0  0  0  0  0  0
   -2.2394    2.7689   -0.0103 C   0  0  0  0  0  0  0  0  0  0  0  0
   -0.9220    2.9508   -0.0143 N   0  0  0  0  0  0  0  0  0  0  0  0
   -0.2359    1.8262    0.0228 C   0  0  0  0  0  0  0  0  0  0  0  0
   -0.7362    0.5914    0.0630 N   0  0  0  0  0  0  0  0  0  0  0  0
   -2.0414    0.4160    0.0637 C   0  0  0  0  0  0  0  0  0  0  0  0
   -4.2979    1.7892    0.0111 C   0  0  0  0  0  0  0  0  0  0  0  0
   -4.4262    3.1480   -0.0333 C   0  0  0  0  0  0  0  0  0  0  0  0
   -3.1875    3.7324   -0.0455 N   0  0  0  0  0  0  0  0  0  0  0  0
   -2.5533   -0.8494    0.0991 N   0  0  0  0  0  0  0  0  0  0  0  0
   -0.0177   -3.5553    0.0942 C   0  0  0  0  0  0  0  0  0  0  0  0
   -0.7677   -4.6481    0.1310 N   0  0  0  0  0  0  0  0  0  0  0  0
   -3.9971   -3.1079    0.1812 F   0  0  0  0  0  0  0  0  0  0  0  0
    1.9208    0.7860    0.0764 N   0  0  0  0  0  0  0  0  0  0  0  0
    3.8372   -0.9849    1.4277 F   0  0  0  0  0  0  0  0  0  0  0  0
    3.2960   -1.4312   -0.6042 F   0  0  0  0  0  0  0  0  0  0  0  0
    5.1847   -0.4894   -0.1768 F   0  0  0  0  0  0  0  0  0  0  0  0
    0.1783   -1.4242    0.0548 H   0  0  0  0  0  0  0  0  0  0  0  0
   -2.7184   -5.3510    0.1907 H   0  0  0  0  0  0  0  0  0  0  0  0
    1.3127    4.0721   -0.1136 H   0  0  0  0  0  0  0  0  0  0  0  0
    3.7985    4.1294   -0.1389 H   0  0  0  0  0  0  0  0  0  0  0  0
    5.0586    1.9935   -0.0276 H   0  0  0  0  0  0  0  0  0  0  0  0
   -5.1095    1.0802    0.0282 H   0  0  0  0  0  0  0  0  0  0  0  0
   -5.3159    3.7550   -0.0595 H   0  0  0  0  0  0  0  0  0  0  0  0
   -3.0097    4.7239   -0.0767 H   0  0  0  0  0  0  0  0  0  0  0  0
   -3.5602   -0.9059    0.1086 H   0  0  0  0  0  0  0  0  0  0  0  0
    1.0558   -3.7060    0.0712 H   0  0  0  0  0  0  0  0  0  0  0  0
 22 21  1  0
 22  3  2  0
 21  1  2  0
  3  2  1  0
  1 10  1  0
  2 10  2  0
  2 23  1  0
  5  6  1  0
  5  4  2  0
  6  7  2  0
 10 20  1  0
  4  9  1  0
  8 27  1  6
  7  8  1  0
  7 24  1  0
 26  8  1  0
 20 16  1  0
  8 25  1  0
  9 24  2  0
  9 14  1  0
 15 16  2  0
 15 14  1  0
 16 11  1  0
 14 13  2  0
 11 12  2  0
 11 17  1  0
 13 12  1  0
 12 19  1  0
 17 18  2  0
 19 18  1  0
  1 28  1  0
  3 29  1  0
  4 30  1  0
  5 31  1  0
  6 32  1  0
 17 33  1  0
 18 34  1  0
 19 35  1  0
 20 36  1  0
 21 37  1  0
M  END
