
     RDKit          3D

 30 32  0  0  0  0  0  0  0  0999 V2000
   -1.8044    1.5478   -0.4531 C   0  0  0  0  0  0  0  0  0  0  0  0
   -2.8706    2.3287   -0.7967 C   0  0  0  0  0  0  0  0  0  0  0  0
   -4.1679    1.7868   -0.6972 C   0  0  0  0  0  0  0  0  0  0  0  0
   -0.9896   -0.6591    0.3851 C   0  0  0  0  0  0  0  0  0  0  0  0
   -1.2862   -1.9448    0.7577 C   0  0  0  0  0  0  0  0  0  0  0  0
    4.2199    1.1302    1.3367 N   0  0  0  0  0  0  0  0  0  0  0  0
    1.3782   -0.7972   -0.2099 C   0  0  0  0  0  0  0  0  0  0  0  0
    2.7069   -0.1522   -0.0055 C   0  0  0  0  0  0  0  0  0  0  0  0
    3.6961   -0.3279   -0.9685 C   0  0  0  0  0  0  0  0  0  0  0  0
    4.9338    0.2545   -0.7688 C   0  0  0  0  0  0  0  0  0  0  0  0
    5.1451    0.9770    0.3976 C   0  0  0  0  0  0  0  0  0  0  0  0
    3.0317    0.5780    1.1348 C   0  0  0  0  0  0  0  0  0  0  0  0
    1.2591   -1.7969   -0.8926 O   0  0  0  0  0  0  0  0  0  0  0  0
   -2.6191   -2.3960    0.7606 C   0  0  0  0  0  0  0  0  0  0  0  0
   -2.0295    0.2257   -0.0092 C   0  0  0  0  0  0  0  0  0  0  0  0
   -4.4157    0.5652   -0.3096 N   0  0  0  0  0  0  0  0  0  0  0  0
   -3.3730   -0.2303    0.0291 C   0  0  0  0  0  0  0  0  0  0  0  0
   -3.6451   -1.5607    0.4163 C   0  0  0  0  0  0  0  0  0  0  0  0
   -0.7993    1.9394   -0.5371 H   0  0  0  0  0  0  0  0  0  0  0  0
   -2.7338    3.3429   -1.1448 H   0  0  0  0  0  0  0  0  0  0  0  0
   -5.0240    2.3998   -0.9585 H   0  0  0  0  0  0  0  0  0  0  0  0
    0.4915    0.7159    0.8306 H   0  0  0  0  0  0  0  0  0  0  0  0
   -0.4992   -2.6159    1.0726 H   0  0  0  0  0  0  0  0  0  0  0  0
    3.4947   -0.9036   -1.8620 H   0  0  0  0  0  0  0  0  0  0  0  0
    5.7251    0.1512   -1.4977 H   0  0  0  0  0  0  0  0  0  0  0  0
    6.1039    1.4481    0.5815 H   0  0  0  0  0  0  0  0  0  0  0  0
    2.3135    0.7060    1.9383 H   0  0  0  0  0  0  0  0  0  0  0  0
   -2.8263   -3.4152    1.0579 H   0  0  0  0  0  0  0  0  0  0  0  0
   -4.6741   -1.8953    0.4340 H   0  0  0  0  0  0  0  0  0  0  0  0
    0.3342   -0.1839    0.4042 N   0  0  0  0  0  0  0  0  0  0  0  0
 13  7  2  0
 14  5  1  0
 14 18  2  0
  5  4  2  0
 12  6  2  0
 12  8  1  0
  6 11  1  0
  7  8  1  0
  7 30  1  0
 18 17  1  0
  8  9  2  0
  4 30  1  0
  4 15  1  0
 11 10  2  0
 17 15  1  0
 17 16  2  0
 15  1  2  0
  9 10  1  0
 16  3  1  0
  1  2  1  0
  3  2  2  0
  1 19  1  0
  2 20  1  0
  3 21  1  0
 30 22  1  0
  5 23  1  0
  9 24  1  0
 10 25  1  0
 11 26  1  0
 12 27  1  0
 14 28  1  0
 18 29  1  0
M  END
