
     RDKit          3D

 29 28  0  0  0  0  0  0  0  0999 V2000
    5.6843   -0.1931   -0.1733 C   0  0  0  0  0  0  0  0  0  0  0  0
    4.3920    0.5776    0.0589 C   0  0  0  0  0  0  0  0  0  0  0  0
    3.1486   -0.2832   -0.1263 C   0  0  0  0  0  0  0  0  0  0  0  0
    1.8468    0.4747    0.1016 C   0  0  0  0  0  0  0  0  0  0  0  0
    0.6108   -0.3891   -0.1170 C   0  0  0  0  0  0  0  0  0  0  0  0
   -0.6874    0.3602    0.1628 C   0  0  0  0  0  0  0  0  0  0  0  0
   -1.9370   -0.4203   -0.2405 C   0  0  1  0  0  0  0  0  0  0  0  0
   -2.0910   -1.7422    0.5222 C   0  0  0  0  0  0  0  0  0  0  0  0
   -3.1850    0.4095   -0.0455 C   0  0  0  0  0  0  0  0  0  0  0  0
   -3.2583    1.4203    0.6092 O   0  0  0  0  0  0  0  0  0  0  0  0
    5.7797   -1.0259    0.5259 H   0  0  0  0  0  0  0  0  0  0  0  0
    5.7186   -0.6072   -1.1828 H   0  0  0  0  0  0  0  0  0  0  0  0
    6.5605    0.4446   -0.0489 H   0  0  0  0  0  0  0  0  0  0  0  0
    4.3927    1.0012    1.0681 H   0  0  0  0  0  0  0  0  0  0  0  0
    4.3480    1.4296   -0.6267 H   0  0  0  0  0  0  0  0  0  0  0  0
    3.1496   -0.7064   -1.1371 H   0  0  0  0  0  0  0  0  0  0  0  0
    3.1942   -1.1373    0.5586 H   0  0  0  0  0  0  0  0  0  0  0  0
    1.8351    0.8784    1.1201 H   0  0  0  0  0  0  0  0  0  0  0  0
    1.8091    1.3402   -0.5689 H   0  0  0  0  0  0  0  0  0  0  0  0
    0.6063   -0.7589   -1.1484 H   0  0  0  0  0  0  0  0  0  0  0  0
    0.6783   -1.2732    0.5230 H   0  0  0  0  0  0  0  0  0  0  0  0
   -0.7377    0.6176    1.2248 H   0  0  0  0  0  0  0  0  0  0  0  0
   -0.6703    1.3072   -0.3842 H   0  0  0  0  0  0  0  0  0  0  0  0
   -1.8717   -0.6557   -1.3088 H   0  0  0  0  0  0  0  0  0  0  0  0
   -2.9723   -2.2950    0.1996 H   0  0  0  0  0  0  0  0  0  0  0  0
   -1.2277   -2.3830    0.3522 H   0  0  0  0  0  0  0  0  0  0  0  0
   -2.1718   -1.5684    1.5966 H   0  0  0  0  0  0  0  0  0  0  0  0
   -4.2359   -0.1155   -0.6706 O   0  0  0  0  0  0  0  0  0  0  0  0
   -5.0232    0.4217   -0.4978 H   0  0  0  0  0  0  0  0  0  0  0  0
  2  1  1  0
  2  3  1  0
  6  5  1  0
  6  7  1  0
  9 10  2  0
  9  7  1  0
  7  8  1  0
  5  4  1  0
  4  3  1  0
  1 11  1  0
  1 12  1  0
  1 13  1  0
  2 14  1  0
  2 15  1  0
  3 16  1  0
  3 17  1  0
  4 18  1  0
  4 19  1  0
  5 20  1  0
  5 21  1  0
  6 22  1  0
  6 23  1  0
  7 24  1  6
  8 25  1  0
  8 26  1  0
  8 27  1  0
  9 28  1  0
 28 29  1  0
M  END
