
     RDKit          3D

 51 55  0  0  0  0  0  0  0  0999 V2000
    3.2245   -3.7794   -0.1192 C   0  0  0  0  0  0  0  0  0  0  0  0
    3.9305   -1.7335    0.7241 C   0  0  0  0  0  0  0  0  0  0  0  0
    2.6098   -1.5646   -0.0668 C   0  0  1  0  0  0  0  0  0  0  0  0
    1.4870   -0.9883    0.7812 C   0  0  0  0  0  0  0  0  0  0  0  0
    1.7136    0.4932    1.0436 C   0  0  0  0  0  0  0  0  0  0  0  0
    1.3654    2.4694   -0.3519 C   0  0  0  0  0  0  0  0  0  0  0  0
    2.0977    3.6562   -0.4653 C   0  0  0  0  0  0  0  0  0  0  0  0
   -0.5797    3.8841   -0.4963 C   0  0  0  0  0  0  0  0  0  0  0  0
   -0.0360    2.6124   -0.3862 C   0  0  0  0  0  0  0  0  0  0  0  0
   -0.9328    1.4369   -0.3663 C   0  0  0  0  0  0  0  0  0  0  0  0
   -1.8389    1.2465    0.6769 C   0  0  0  0  0  0  0  0  0  0  0  0
   -3.6650   -0.2393    1.7196 C   0  0  0  0  0  0  0  0  0  0  0  0
   -2.6401   -0.7561   -0.3948 C   0  0  0  0  0  0  0  0  0  0  0  0
    3.1401   -4.9587   -0.3727 O   0  0  0  0  0  0  0  0  0  0  0  0
    4.2269   -3.1197    0.4815 N   0  0  0  0  0  0  0  0  0  0  0  0
    1.9272    1.2173   -0.1938 N   0  0  0  0  0  0  0  0  0  0  0  0
    3.0222    0.7339   -1.0058 C   0  0  0  0  0  0  0  0  0  0  0  0
    2.7961   -0.7398   -1.3350 C   0  0  0  0  0  0  0  0  0  0  0  0
    3.8207    3.6657   -0.3347 Cl  0  0  0  0  0  0  0  0  0  0  0  0
    1.4521    4.8761   -0.6069 C   0  0  0  0  0  0  0  0  0  0  0  0
    0.1358    4.9959   -0.6121 N   0  0  0  0  0  0  0  0  0  0  0  0
   -2.6761    0.1493    0.6669 C   0  0  0  0  0  0  0  0  0  0  0  0
   -4.7366   -1.3971    0.8535 S   0  0  1  0  0  0  0  0  0  0  0  0
   -5.0758   -2.5683    1.6406 O   0  0  0  0  0  0  0  0  0  0  0  0
   -5.8229   -0.6927    0.1910 O   0  0  0  0  0  0  0  0  0  0  0  0
   -3.5364   -1.8139   -0.2528 N   0  0  0  0  0  0  0  0  0  0  0  0
   -3.8903   -2.6786   -1.3624 C   0  0  0  0  0  0  0  0  0  0  0  0
   -1.7685   -0.5664   -1.4560 C   0  0  0  0  0  0  0  0  0  0  0  0
   -0.9127    0.5254   -1.4196 C   0  0  0  0  0  0  0  0  0  0  0  0
    2.2544   -2.9088   -0.4416 O   0  0  0  0  0  0  0  0  0  0  0  0
    4.7234   -1.0827    0.3517 H   0  0  0  0  0  0  0  0  0  0  0  0
    3.7987   -1.5273    1.7898 H   0  0  0  0  0  0  0  0  0  0  0  0
    0.5361   -1.1181    0.2610 H   0  0  0  0  0  0  0  0  0  0  0  0
    1.4228   -1.5222    1.7324 H   0  0  0  0  0  0  0  0  0  0  0  0
    0.8508    0.9044    1.5655 H   0  0  0  0  0  0  0  0  0  0  0  0
    2.5734    0.6336    1.7153 H   0  0  0  0  0  0  0  0  0  0  0  0
   -1.6586    3.9969   -0.5227 H   0  0  0  0  0  0  0  0  0  0  0  0
   -1.8749    1.9468    1.5025 H   0  0  0  0  0  0  0  0  0  0  0  0
   -3.2037   -0.7782    2.5494 H   0  0  0  0  0  0  0  0  0  0  0  0
   -4.2695    0.5799    2.1066 H   0  0  0  0  0  0  0  0  0  0  0  0
    5.0032   -3.6033    0.9010 H   0  0  0  0  0  0  0  0  0  0  0  0
    3.0639    1.3004   -1.9355 H   0  0  0  0  0  0  0  0  0  0  0  0
    3.9948    0.8599   -0.5136 H   0  0  0  0  0  0  0  0  0  0  0  0
    3.6499   -1.1167   -1.9044 H   0  0  0  0  0  0  0  0  0  0  0  0
    1.9074   -0.8379   -1.9632 H   0  0  0  0  0  0  0  0  0  0  0  0
    2.0365    5.7857   -0.6938 H   0  0  0  0  0  0  0  0  0  0  0  0
   -2.9916   -3.1743   -1.7236 H   0  0  0  0  0  0  0  0  0  0  0  0
   -4.5712   -3.4535   -1.0167 H   0  0  0  0  0  0  0  0  0  0  0  0
   -4.3541   -2.1328   -2.1856 H   0  0  0  0  0  0  0  0  0  0  0  0
   -1.7388   -1.2508   -2.2931 H   0  0  0  0  0  0  0  0  0  0  0  0
   -0.2221    0.6755   -2.2395 H   0  0  0  0  0  0  0  0  0  0  0  0
 14  1  2  0
  1 30  1  0
  1 15  1  0
  3 30  1  6
 19  7  1  0
  4  3  1  0
  4  5  1  0
 15  2  1  0
  3  2  1  0
  3 18  1  0
  5 16  1  0
  7 20  2  0
  7  6  1  0
 18 17  1  0
 16  6  1  0
 16 17  1  0
 20 21  1  0
  6  9  2  0
 21  8  2  0
  9  8  1  0
  9 10  1  0
 11 10  2  0
 11 22  1  0
 10 29  1  0
 12 22  1  0
 12 23  1  0
 22 13  2  0
 29 28  2  0
 25 23  2  0
 23 24  2  0
 23 26  1  6
 13 28  1  0
 13 26  1  0
 26 27  1  0
  2 31  1  0
  2 32  1  0
  4 33  1  0
  4 34  1  0
  5 35  1  0
  5 36  1  0
  8 37  1  0
 11 38  1  0
 12 39  1  0
 12 40  1  0
 15 41  1  0
 17 42  1  0
 17 43  1  0
 18 44  1  0
 18 45  1  0
 20 46  1  0
 27 47  1  0
 27 48  1  0
 27 49  1  0
 28 50  1  0
 29 51  1  0
M  END
