
     RDKit          3D

 13 12  0  0  0  0  0  0  0  0999 V2000
   -0.6984    0.2816   -0.7696 C   0  0  0  0  0  0  0  0  0  0  0  0
    0.0008   -0.3178    0.4387 C   0  0  2  0  0  0  0  0  0  0  0  0
   -0.7622    0.0139    1.7130 C   0  0  0  0  0  0  0  0  0  0  0  0
   -0.0377   -0.1225   -1.9453 O   0  0  0  0  0  0  0  0  0  0  0  0
    1.3564    0.0756    0.5162 O   0  0  0  0  0  0  0  0  0  0  0  0
   -1.7461   -0.0463   -0.7592 H   0  0  0  0  0  0  0  0  0  0  0  0
   -0.7119    1.3776   -0.6676 H   0  0  0  0  0  0  0  0  0  0  0  0
    0.0218   -1.4055    0.3158 H   0  0  0  0  0  0  0  0  0  0  0  0
   -0.2782   -0.4312    2.5822 H   0  0  0  0  0  0  0  0  0  0  0  0
   -0.8172    1.0938    1.8729 H   0  0  0  0  0  0  0  0  0  0  0  0
   -1.7834   -0.3661    1.6689 H   0  0  0  0  0  0  0  0  0  0  0  0
   -0.5175    0.2391   -2.6953 H   0  0  0  0  0  0  0  0  0  0  0  0
    1.3858    1.0282    0.6565 H   0  0  0  0  0  0  0  0  0  0  0  0
  1  2  1  0
  1  4  1  0
  1  6  1  0
  1  7  1  0
  2  3  1  0
  2  5  1  0
  2  8  1  6
  3  9  1  0
  3 10  1  0
  3 11  1  0
  4 12  1  0
  5 13  1  0
M  END
