
     RDKit          3D

 27 28  0  0  0  0  0  0  0  0999 V2000
   -3.0163   -0.6345   -0.3123 C   0  0  0  0  0  0  0  0  0  0  0  0
   -2.1593   -1.5594   -0.8998 C   0  0  0  0  0  0  0  0  0  0  0  0
   -0.7883   -1.3681   -0.8774 C   0  0  0  0  0  0  0  0  0  0  0  0
   -0.2149   -0.2530   -0.2670 C   0  0  0  0  0  0  0  0  0  0  0  0
   -1.0876    0.6552    0.3305 C   0  0  0  0  0  0  0  0  0  0  0  0
   -2.4617    0.4754    0.3145 C   0  0  0  0  0  0  0  0  0  0  0  0
    3.4273   -0.9590    0.2302 C   0  0  0  0  0  0  0  0  0  0  0  0
    4.0457    0.1415   -0.3282 C   0  0  0  0  0  0  0  0  0  0  0  0
    3.2416    1.1369   -0.8683 C   0  0  0  0  0  0  0  0  0  0  0  0
    1.8600    1.0268   -0.8400 C   0  0  0  0  0  0  0  0  0  0  0  0
    2.0534   -1.0986    0.2698 C   0  0  0  0  0  0  0  0  0  0  0  0
    1.2551   -0.0924   -0.2692 C   0  0  0  0  0  0  0  0  0  0  0  0
   -0.4645    2.0422    1.1703 Cl  0  0  0  0  0  0  0  0  0  0  0  0
   -4.5108   -0.8232   -0.3785 C   0  0  0  0  0  0  0  0  0  0  0  0
   -5.1859   -0.2698    0.7799 N   0  0  0  0  0  0  0  0  0  0  0  0
   -2.5645   -2.4414   -1.3804 H   0  0  0  0  0  0  0  0  0  0  0  0
   -0.1416   -2.0962   -1.3508 H   0  0  0  0  0  0  0  0  0  0  0  0
   -3.1074    1.1931    0.8025 H   0  0  0  0  0  0  0  0  0  0  0  0
    5.1247    0.2201   -0.3445 H   0  0  0  0  0  0  0  0  0  0  0  0
    3.7021    2.0055   -1.3191 H   0  0  0  0  0  0  0  0  0  0  0  0
    1.2520    1.8078   -1.2762 H   0  0  0  0  0  0  0  0  0  0  0  0
    1.6101   -1.9756    0.7244 H   0  0  0  0  0  0  0  0  0  0  0  0
   -4.8810   -0.2994   -1.2647 H   0  0  0  0  0  0  0  0  0  0  0  0
   -4.7175   -1.8873   -0.5532 H   0  0  0  0  0  0  0  0  0  0  0  0
   -6.1854   -0.2923    0.6270 H   0  0  0  0  0  0  0  0  0  0  0  0
   -5.0114   -0.8559    1.5866 H   0  0  0  0  0  0  0  0  0  0  0  0
    4.1865   -1.9323    0.7595 F   0  0  0  0  0  0  0  0  0  0  0  0
 15 14  1  0
 14  1  1  0
  6  1  2  0
  6  5  1  0
  1  2  1  0
 13  5  1  0
  5  4  2  0
  2  3  2  0
 10  9  2  0
 10 12  1  0
  4  3  1  0
  4 12  1  0
  9  8  1  0
 12 11  2  0
  8  7  2  0
 11  7  1  0
  7 27  1  0
  2 16  1  0
  3 17  1  0
  6 18  1  0
  8 19  1  0
  9 20  1  0
 10 21  1  0
 11 22  1  0
 14 23  1  0
 14 24  1  0
 15 25  1  0
 15 26  1  0
M  END
