
     RDKit          3D

 38 37  0  0  0  0  0  0  0  0999 V2000
   -3.3796    0.9031   -1.3542 C   0  0  0  0  0  0  0  0  0  0  0  0
    3.5451    2.0229    0.5562 O   0  0  0  0  0  0  0  0  0  0  0  0
    3.3665    0.8828    1.3696 C   0  0  0  0  0  0  0  0  0  0  0  0
    3.0448   -0.3191    0.4848 C   0  0  2  0  0  0  0  0  0  0  0  0
    4.2085   -0.6696   -0.4444 C   0  0  0  0  0  0  0  0  0  0  0  0
    4.0151   -1.9941   -1.1681 C   0  0  0  0  0  0  0  0  0  0  0  0
    1.8236   -0.1789   -0.2911 N   0  0  0  0  0  0  0  0  0  0  0  0
    0.5938   -0.1509    0.4717 C   0  0  0  0  0  0  0  0  0  0  0  0
   -0.6081   -0.1562   -0.4613 C   0  0  0  0  0  0  0  0  0  0  0  0
   -1.8382   -0.1676    0.3014 N   0  0  0  0  0  0  0  0  0  0  0  0
   -3.0606   -0.3026   -0.4737 C   0  0  1  0  0  0  0  0  0  0  0  0
   -3.5573    2.0401   -0.5363 O   0  0  0  0  0  0  0  0  0  0  0  0
   -4.2246   -0.6532    0.4549 C   0  0  0  0  0  0  0  0  0  0  0  0
   -4.0349   -1.9819    1.1717 C   0  0  0  0  0  0  0  0  0  0  0  0
   -2.5662    1.0553   -2.0753 H   0  0  0  0  0  0  0  0  0  0  0  0
   -4.2810    0.6831   -1.9426 H   0  0  0  0  0  0  0  0  0  0  0  0
    3.6243    2.7918    1.1266 H   0  0  0  0  0  0  0  0  0  0  0  0
    2.5539    1.0334    2.0919 H   0  0  0  0  0  0  0  0  0  0  0  0
    2.8984   -1.1633    1.1706 H   0  0  0  0  0  0  0  0  0  0  0  0
    4.3488    0.1325   -1.1753 H   0  0  0  0  0  0  0  0  0  0  0  0
    5.1283   -0.7053    0.1467 H   0  0  0  0  0  0  0  0  0  0  0  0
    3.9326   -2.8221   -0.4608 H   0  0  0  0  0  0  0  0  0  0  0  0
    3.1068   -1.9808   -1.7689 H   0  0  0  0  0  0  0  0  0  0  0  0
    4.8552   -2.2087   -1.8300 H   0  0  0  0  0  0  0  0  0  0  0  0
    1.8891    0.6545   -0.8646 H   0  0  0  0  0  0  0  0  0  0  0  0
    0.5528   -1.0430    1.1035 H   0  0  0  0  0  0  0  0  0  0  0  0
    0.5101    0.7129    1.1513 H   0  0  0  0  0  0  0  0  0  0  0  0
   -0.5209    0.6962   -1.1549 H   0  0  0  0  0  0  0  0  0  0  0  0
   -0.5704   -1.0588   -1.0783 H   0  0  0  0  0  0  0  0  0  0  0  0
   -1.8957    0.6702    0.8693 H   0  0  0  0  0  0  0  0  0  0  0  0
   -2.9165   -1.1450   -1.1621 H   0  0  0  0  0  0  0  0  0  0  0  0
   -3.6383    2.8109   -1.1040 H   0  0  0  0  0  0  0  0  0  0  0  0
   -4.3616    0.1458    1.1898 H   0  0  0  0  0  0  0  0  0  0  0  0
   -5.1450   -0.6831   -0.1357 H   0  0  0  0  0  0  0  0  0  0  0  0
   -3.9513   -2.8061    0.4601 H   0  0  0  0  0  0  0  0  0  0  0  0
   -3.1279   -1.9726    1.7748 H   0  0  0  0  0  0  0  0  0  0  0  0
   -4.8770   -2.1990    1.8302 H   0  0  0  0  0  0  0  0  0  0  0  0
    4.2680    0.6591    1.9565 H   0  0  0  0  0  0  0  0  0  0  0  0
 14 13  1  0
 13 11  1  0
 11 10  1  0
 11  1  1  0
  5  4  1  0
  5  6  1  0
 10  9  1  0
  4  3  1  0
  4  7  1  0
  8  9  1  0
  8  7  1  0
  2  3  1  0
  1 12  1  0
  1 15  1  0
  1 16  1  0
  2 17  1  0
  3 38  1  0
  3 18  1  0
  4 19  1  1
  5 20  1  0
  5 21  1  0
  6 22  1  0
  6 23  1  0
  6 24  1  0
  7 25  1  0
  8 26  1  0
  8 27  1  0
  9 28  1  0
  9 29  1  0
 10 30  1  0
 11 31  1  6
 12 32  1  0
 13 33  1  0
 13 34  1  0
 14 35  1  0
 14 36  1  0
 14 37  1  0
M  END
