
     RDKit          3D

 47 49  0  0  0  0  0  0  0  0999 V2000
   -4.7851   -1.4533   -2.5551 C   0  0  0  0  0  0  0  0  0  0  0  0
   -5.0616   -0.2734   -1.8251 O   0  0  0  0  0  0  0  0  0  0  0  0
   -4.1030    0.2126   -1.0228 C   0  0  0  0  0  0  0  0  0  0  0  0
   -2.8308   -0.3082   -0.8991 C   0  0  0  0  0  0  0  0  0  0  0  0
   -4.4581    1.3482   -0.2631 C   0  0  0  0  0  0  0  0  0  0  0  0
   -5.7072    1.7950   -0.4338 O   0  0  0  0  0  0  0  0  0  0  0  0
   -6.1239    2.9298    0.3037 C   0  0  0  0  0  0  0  0  0  0  0  0
   -3.5294    1.9137    0.5941 C   0  0  0  0  0  0  0  0  0  0  0  0
   -2.2529    1.3704    0.6998 C   0  0  0  0  0  0  0  0  0  0  0  0
   -1.1646    2.0906    1.8382 Cl  0  0  0  0  0  0  0  0  0  0  0  0
   -1.8849    0.2595   -0.0372 C   0  0  0  0  0  0  0  0  0  0  0  0
   -0.5478   -0.3548    0.0511 C   0  0  0  0  0  0  0  0  0  0  0  0
    0.5073    0.4003   -0.2045 N   0  0  0  0  0  0  0  0  0  0  0  0
   -0.3709   -1.6985    0.3857 C   0  0  0  0  0  0  0  0  0  0  0  0
   -1.1719   -2.8306    0.7558 C   0  0  0  0  0  0  0  0  0  0  0  0
   -2.5707   -2.9180    0.9098 C   0  0  0  0  0  0  0  0  0  0  0  0
   -3.7139   -3.0058    1.0384 N   0  0  0  0  0  0  0  0  0  0  0  0
   -0.3019   -3.8715    0.9716 C   0  0  0  0  0  0  0  0  0  0  0  0
    0.9681   -3.4511    0.7639 N   0  0  0  0  0  0  0  0  0  0  0  0
    0.9627   -2.1391    0.4139 C   0  0  0  0  0  0  0  0  0  0  0  0
    2.0238   -1.3922    0.1608 N   0  0  0  0  0  0  0  0  0  0  0  0
    1.7262   -0.1415   -0.1348 C   0  0  0  0  0  0  0  0  0  0  0  0
    2.9905    1.0153   -0.4998 S   0  0  0  0  0  0  0  0  0  0  0  0
    4.4655    0.0009   -0.2450 C   0  0  0  0  0  0  0  0  0  0  0  0
    5.6613    0.8959   -0.5138 C   0  0  0  0  0  0  0  0  0  0  0  0
    5.4831    2.0579   -0.8576 O   0  0  0  0  0  0  0  0  0  0  0  0
    6.8783    0.3472   -0.3671 N   0  0  0  0  0  0  0  0  0  0  0  0
    8.0658    1.1596   -0.5407 C   0  0  0  0  0  0  0  0  0  0  0  0
    7.1155   -0.9789    0.1642 C   0  0  0  0  0  0  0  0  0  0  0  0
   -5.6900   -1.6925   -3.1074 H   0  0  0  0  0  0  0  0  0  0  0  0
   -3.9662   -1.3109   -3.2650 H   0  0  0  0  0  0  0  0  0  0  0  0
   -4.5407   -2.2890   -1.8938 H   0  0  0  0  0  0  0  0  0  0  0  0
   -2.5356   -1.1700   -1.4830 H   0  0  0  0  0  0  0  0  0  0  0  0
   -6.0755    2.7534    1.3811 H   0  0  0  0  0  0  0  0  0  0  0  0
   -5.5261    3.8116    0.0603 H   0  0  0  0  0  0  0  0  0  0  0  0
   -7.1571    3.1150    0.0231 H   0  0  0  0  0  0  0  0  0  0  0  0
   -3.7827    2.7773    1.1928 H   0  0  0  0  0  0  0  0  0  0  0  0
   -0.5159   -4.8863    1.2636 H   0  0  0  0  0  0  0  0  0  0  0  0
    1.7919   -4.0243    0.8692 H   0  0  0  0  0  0  0  0  0  0  0  0
    4.4758   -0.3836    0.7756 H   0  0  0  0  0  0  0  0  0  0  0  0
    4.4514   -0.8576   -0.9183 H   0  0  0  0  0  0  0  0  0  0  0  0
    8.4756    1.4675    0.4241 H   0  0  0  0  0  0  0  0  0  0  0  0
    8.8255    0.5806   -1.0648 H   0  0  0  0  0  0  0  0  0  0  0  0
    7.8416    2.0469   -1.1232 H   0  0  0  0  0  0  0  0  0  0  0  0
    6.2452   -1.6199    0.0678 H   0  0  0  0  0  0  0  0  0  0  0  0
    7.9292   -1.4466   -0.3890 H   0  0  0  0  0  0  0  0  0  0  0  0
    7.3987   -0.9377    1.2183 H   0  0  0  0  0  0  0  0  0  0  0  0
 17 16  3  0
 16 15  1  0
 18 15  2  0
 18 19  1  0
 15 14  1  0
  6  7  1  0
  6  5  1  0
  1  2  1  0
  2  3  1  0
  5  3  2  0
  5  8  1  0
  3  4  1  0
  8  9  2  0
 19 20  1  0
  4 11  2  0
 14 20  2  0
 14 12  1  0
  9 11  1  0
  9 10  1  0
 11 12  1  0
 20 21  1  0
 12 13  2  0
 21 22  2  0
 13 22  1  0
 22 23  1  0
 26 25  2  0
 29 27  1  0
 25 27  1  0
 25 24  1  0
 27 28  1  0
 23 24  1  0
  1 30  1  0
  1 31  1  0
  1 32  1  0
  4 33  1  0
  7 34  1  0
  7 35  1  0
  7 36  1  0
  8 37  1  0
 18 38  1  0
 19 39  1  0
 24 40  1  0
 24 41  1  0
 28 42  1  0
 28 43  1  0
 28 44  1  0
 29 45  1  0
 29 46  1  0
 29 47  1  0
M  END
