
     RDKit          3D

 19 19  0  0  0  0  0  0  0  0999 V2000
    0.0555   -0.1829    3.6789 C   0  0  0  0  0  0  0  0  0  0  0  0
    0.0979    0.5930    2.0482 S   0  0  0  0  0  0  0  0  0  0  0  0
   -0.0725   -0.8831    0.9950 C   0  0  0  0  0  0  0  0  0  0  0  0
   -0.0416   -0.4513   -0.4400 C   0  0  0  0  0  0  0  0  0  0  0  0
   -1.2226   -0.2754   -1.1553 C   0  0  0  0  0  0  0  0  0  0  0  0
   -1.1929    0.1487   -2.4776 C   0  0  0  0  0  0  0  0  0  0  0  0
    0.0214    0.4099   -3.0980 C   0  0  0  0  0  0  0  0  0  0  0  0
    1.2052    0.2428   -2.3896 C   0  0  0  0  0  0  0  0  0  0  0  0
    1.1726   -0.1831   -1.0694 C   0  0  0  0  0  0  0  0  0  0  0  0
    0.1517    0.6068    4.4219 H   0  0  0  0  0  0  0  0  0  0  0  0
   -0.8873   -0.7031    3.8425 H   0  0  0  0  0  0  0  0  0  0  0  0
    0.8811   -0.8824    3.8042 H   0  0  0  0  0  0  0  0  0  0  0  0
    0.7448   -1.5721    1.2159 H   0  0  0  0  0  0  0  0  0  0  0  0
   -1.0124   -1.3833    1.2326 H   0  0  0  0  0  0  0  0  0  0  0  0
   -2.1735   -0.4784   -0.6771 H   0  0  0  0  0  0  0  0  0  0  0  0
   -2.1196    0.2751   -3.0224 H   0  0  0  0  0  0  0  0  0  0  0  0
    0.0461    0.7399   -4.1285 H   0  0  0  0  0  0  0  0  0  0  0  0
    2.1556    0.4436   -2.8669 H   0  0  0  0  0  0  0  0  0  0  0  0
    2.0992   -0.3132   -0.5227 H   0  0  0  0  0  0  0  0  0  0  0  0
  1  2  1  0
  1 10  1  0
  1 11  1  0
  1 12  1  0
  2  3  1  0
  3  4  1  0
  3 13  1  0
  3 14  1  0
  4  5  2  0
  4  9  1  0
  5  6  1  0
  5 15  1  0
  6  7  2  0
  6 16  1  0
  7  8  1  0
  7 17  1  0
  8  9  2  0
  8 18  1  0
  9 19  1  0
M  END
