
     RDKit          3D

 65 64  0  0  0  0  0  0  0  0999 V2000
   -6.8885   -0.5461   -0.6779 C   0  0  0  0  0  0  0  0  0  0  0  0
   -7.7809   -0.5899    0.3056 O   0  0  0  0  0  0  0  0  0  0  0  0
   -5.5826   -1.1682   -0.2633 C   0  0  0  0  0  0  0  0  0  0  0  0
   -4.5030   -1.0784   -1.3291 C   0  0  0  0  0  0  0  0  0  0  0  0
   -7.1194   -0.0662   -1.7596 O   0  0  0  0  0  0  0  0  0  0  0  0
   -3.1980   -1.7297   -0.8693 C   0  0  0  0  0  0  0  0  0  0  0  0
   -2.1426   -1.6453   -1.9269 C   0  0  0  0  0  0  0  0  0  0  0  0
   -0.9346   -1.0931   -1.8286 C   0  0  0  0  0  0  0  0  0  0  0  0
   -0.3129   -0.4656   -0.6128 C   0  0  0  0  0  0  0  0  0  0  0  0
    0.8409   -1.3016   -0.1368 C   0  0  0  0  0  0  0  0  0  0  0  0
    2.1336   -0.9811   -0.1332 C   0  0  0  0  0  0  0  0  0  0  0  0
    2.7587    0.3183   -0.5527 C   0  0  0  0  0  0  0  0  0  0  0  0
    3.4429    0.9677    0.6156 C   0  0  0  0  0  0  0  0  0  0  0  0
    4.7525    1.1223    0.8025 C   0  0  0  0  0  0  0  0  0  0  0  0
    5.8646    0.7287   -0.1266 C   0  0  0  0  0  0  0  0  0  0  0  0
    6.6201    1.9427   -0.5866 C   0  0  0  0  0  0  0  0  0  0  0  0
    7.8923    2.2513   -0.3393 C   0  0  0  0  0  0  0  0  0  0  0  0
    8.9070    1.4514    0.4148 C   0  0  0  0  0  0  0  0  0  0  0  0
   10.1480    1.1580   -0.4291 C   0  0  0  0  0  0  0  0  0  0  0  0
   11.2026    0.3619    0.3279 C   0  0  0  0  0  0  0  0  0  0  0  0
   12.4566    0.0909   -0.4943 C   0  0  0  0  0  0  0  0  0  0  0  0
   13.4961   -0.7187    0.2683 C   0  0  0  0  0  0  0  0  0  0  0  0
   -9.0765   -0.0455    0.0579 C   0  0  0  0  0  0  0  0  0  0  0  0
   -9.8878   -0.1903    1.3340 C   0  0  2  0  0  0  0  0  0  0  0  0
  -11.3180    0.2561    1.0728 C   0  0  0  0  0  0  0  0  0  0  0  0
   -9.2959    0.4817    2.4184 O   0  0  0  0  0  0  0  0  0  0  0  0
  -12.0826    0.0216    2.2292 O   0  0  0  0  0  0  0  0  0  0  0  0
   -5.2502   -0.6877    0.6621 H   0  0  0  0  0  0  0  0  0  0  0  0
   -5.7759   -2.2128    0.0020 H   0  0  0  0  0  0  0  0  0  0  0  0
   -4.8428   -1.5622   -2.2483 H   0  0  0  0  0  0  0  0  0  0  0  0
   -4.3130   -0.0319   -1.5787 H   0  0  0  0  0  0  0  0  0  0  0  0
   -2.8626   -1.2684    0.0619 H   0  0  0  0  0  0  0  0  0  0  0  0
   -3.3912   -2.7833   -0.6379 H   0  0  0  0  0  0  0  0  0  0  0  0
   -2.4212   -2.0730   -2.8870 H   0  0  0  0  0  0  0  0  0  0  0  0
   -0.2948   -1.1125   -2.7063 H   0  0  0  0  0  0  0  0  0  0  0  0
    0.0146    0.5472   -0.8567 H   0  0  0  0  0  0  0  0  0  0  0  0
   -1.0453   -0.3708    0.1928 H   0  0  0  0  0  0  0  0  0  0  0  0
    0.5674   -2.2930    0.2129 H   0  0  0  0  0  0  0  0  0  0  0  0
    2.8361   -1.7247    0.2333 H   0  0  0  0  0  0  0  0  0  0  0  0
    3.4696    0.1330   -1.3613 H   0  0  0  0  0  0  0  0  0  0  0  0
    2.0061    0.9994   -0.9554 H   0  0  0  0  0  0  0  0  0  0  0  0
    2.7775    1.3176    1.4000 H   0  0  0  0  0  0  0  0  0  0  0  0
    5.0775    1.6033    1.7208 H   0  0  0  0  0  0  0  0  0  0  0  0
    6.5283    0.0316    0.3904 H   0  0  0  0  0  0  0  0  0  0  0  0
    5.4733    0.1951   -0.9965 H   0  0  0  0  0  0  0  0  0  0  0  0
    6.0324    2.6494   -1.1660 H   0  0  0  0  0  0  0  0  0  0  0  0
    8.2621    3.1906   -0.7440 H   0  0  0  0  0  0  0  0  0  0  0  0
    9.2154    2.0120    1.3050 H   0  0  0  0  0  0  0  0  0  0  0  0
    8.4849    0.5121    0.7781 H   0  0  0  0  0  0  0  0  0  0  0  0
    9.8522    0.6095   -1.3291 H   0  0  0  0  0  0  0  0  0  0  0  0
   10.5816    2.1020   -0.7766 H   0  0  0  0  0  0  0  0  0  0  0  0
   11.4779    0.8998    1.2420 H   0  0  0  0  0  0  0  0  0  0  0  0
   10.7715   -0.5905    0.6567 H   0  0  0  0  0  0  0  0  0  0  0  0
   12.1804   -0.4373   -1.4123 H   0  0  0  0  0  0  0  0  0  0  0  0
   12.8924    1.0430   -0.8127 H   0  0  0  0  0  0  0  0  0  0  0  0
   14.3934   -0.8868   -0.3281 H   0  0  0  0  0  0  0  0  0  0  0  0
   13.7981   -0.2062    1.1835 H   0  0  0  0  0  0  0  0  0  0  0  0
   13.1008   -1.6950    0.5550 H   0  0  0  0  0  0  0  0  0  0  0  0
   -8.9963    1.0065   -0.2326 H   0  0  0  0  0  0  0  0  0  0  0  0
   -9.5616   -0.5824   -0.7611 H   0  0  0  0  0  0  0  0  0  0  0  0
   -9.9066   -1.2490    1.6136 H   0  0  0  0  0  0  0  0  0  0  0  0
  -11.3223    1.3197    0.7913 H   0  0  0  0  0  0  0  0  0  0  0  0
   -9.3135    1.4294    2.2439 H   0  0  0  0  0  0  0  0  0  0  0  0
  -12.9806    0.3176    2.0563 H   0  0  0  0  0  0  0  0  0  0  0  0
  -11.7053   -0.2994    0.2090 H   0  0  0  0  0  0  0  0  0  0  0  0
  1  2  1  0
  1  3  1  0
  1  5  2  0
  2 23  1  0
  3  4  1  0
  3 28  1  0
  3 29  1  0
  4  6  1  0
  4 30  1  0
  4 31  1  0
  6  7  1  0
  6 32  1  0
  6 33  1  0
  7  8  2  0
  7 34  1  0
  8  9  1  0
  8 35  1  0
  9 10  1  0
  9 36  1  0
  9 37  1  0
 10 11  2  0
 10 38  1  0
 11 12  1  0
 11 39  1  0
 12 13  1  0
 12 40  1  0
 12 41  1  0
 13 14  2  0
 13 42  1  0
 14 15  1  0
 14 43  1  0
 15 16  1  0
 15 44  1  0
 15 45  1  0
 16 17  2  0
 16 46  1  0
 17 18  1  0
 17 47  1  0
 18 19  1  0
 18 48  1  0
 18 49  1  0
 19 20  1  0
 19 50  1  0
 19 51  1  0
 20 21  1  0
 20 52  1  0
 20 53  1  0
 21 22  1  0
 21 54  1  0
 21 55  1  0
 22 56  1  0
 22 57  1  0
 22 58  1  0
 23 24  1  0
 23 59  1  0
 23 60  1  0
 24 25  1  0
 24 26  1  0
 24 61  1  1
 25 27  1  0
 25 62  1  0
 26 63  1  0
 27 64  1  0
 25 65  1  0
M  END
