
     RDKit          3D

 47 51  0  0  0  0  0  0  0  0999 V2000
   -2.8146    0.0050    0.3060 C   0  0  0  0  0  0  0  0  0  0  0  0
   -2.3235    1.3017    0.5766 C   0  0  0  0  0  0  0  0  0  0  0  0
   -3.2544    2.2376    1.0449 C   0  0  0  0  0  0  0  0  0  0  0  0
   -4.5158    1.9550    1.2306 N   0  0  0  0  0  0  0  0  0  0  0  0
   -4.1117   -0.2872    0.4908 N   0  0  0  0  0  0  0  0  0  0  0  0
    1.4657   -1.9489   -0.5543 C   0  0  0  0  0  0  0  0  0  0  0  0
    1.6641   -3.4526   -0.4382 C   0  0  0  0  0  0  0  0  0  0  0  0
    0.5212   -4.0199   -1.2806 C   0  0  1  0  0  0  0  0  0  0  0  0
    0.1605   -5.4085   -1.0970 N   0  0  0  0  0  0  0  0  0  0  0  0
   -0.6318   -3.0921   -0.9132 C   0  0  0  0  0  0  0  0  0  0  0  0
    0.0126   -1.8066   -0.6836 N   0  0  0  0  0  0  0  0  0  0  0  0
   -0.7222   -0.7373   -0.3222 C   0  0  0  0  0  0  0  0  0  0  0  0
   -2.0136   -0.9728   -0.1240 N   0  0  0  0  0  0  0  0  0  0  0  0
   -4.8922    0.6813    0.9368 C   0  0  0  0  0  0  0  0  0  0  0  0
   -6.1977    0.4142    1.1061 N   0  0  0  0  0  0  0  0  0  0  0  0
   -0.9692    1.5640    0.3010 C   0  0  0  0  0  0  0  0  0  0  0  0
   -0.1496    0.5835   -0.1773 C   0  0  0  0  0  0  0  0  0  0  0  0
    1.2047    0.9585   -0.6531 C   0  0  0  0  0  0  0  0  0  0  0  0
    2.2390    1.3231    0.2558 C   0  0  0  0  0  0  0  0  0  0  0  0
    2.0733    1.2623    1.6606 C   0  0  0  0  0  0  0  0  0  0  0  0
    3.0912    1.6142    2.5054 C   0  0  0  0  0  0  0  0  0  0  0  0
    4.3305    2.0459    1.9906 C   0  0  0  0  0  0  0  0  0  0  0  0
    4.5262    2.1033    0.6384 C   0  0  0  0  0  0  0  0  0  0  0  0
    3.4959    1.7389   -0.2607 C   0  0  0  0  0  0  0  0  0  0  0  0
    3.6976    1.7740   -1.6597 C   0  0  0  0  0  0  0  0  0  0  0  0
    2.6932    1.4109   -2.5125 C   0  0  0  0  0  0  0  0  0  0  0  0
    1.4434    1.0083   -2.0039 C   0  0  0  0  0  0  0  0  0  0  0  0
   -2.9347    3.2518    1.2690 H   0  0  0  0  0  0  0  0  0  0  0  0
    1.8381   -1.4166    0.3202 H   0  0  0  0  0  0  0  0  0  0  0  0
    1.9833   -1.5566   -1.4321 H   0  0  0  0  0  0  0  0  0  0  0  0
    2.6509   -3.7639   -0.7806 H   0  0  0  0  0  0  0  0  0  0  0  0
    1.5475   -3.7765    0.6004 H   0  0  0  0  0  0  0  0  0  0  0  0
    0.7641   -3.8779   -2.3389 H   0  0  0  0  0  0  0  0  0  0  0  0
    0.9283   -6.0014   -1.3858 H   0  0  0  0  0  0  0  0  0  0  0  0
    0.0175   -5.5959   -0.1111 H   0  0  0  0  0  0  0  0  0  0  0  0
   -1.3881   -3.0214   -1.6953 H   0  0  0  0  0  0  0  0  0  0  0  0
   -1.1317   -3.4500   -0.0052 H   0  0  0  0  0  0  0  0  0  0  0  0
   -6.7865    1.0874    1.5636 H   0  0  0  0  0  0  0  0  0  0  0  0
   -6.5234   -0.5346    1.0468 H   0  0  0  0  0  0  0  0  0  0  0  0
   -0.5857    2.5708    0.4281 H   0  0  0  0  0  0  0  0  0  0  0  0
    1.1303    0.9249    2.0700 H   0  0  0  0  0  0  0  0  0  0  0  0
    2.9463    1.5580    3.5764 H   0  0  0  0  0  0  0  0  0  0  0  0
    5.1266    2.3251    2.6685 H   0  0  0  0  0  0  0  0  0  0  0  0
    5.4784    2.4280    0.2366 H   0  0  0  0  0  0  0  0  0  0  0  0
    4.6582    2.0947   -2.0443 H   0  0  0  0  0  0  0  0  0  0  0  0
    2.8478    1.4390   -3.5831 H   0  0  0  0  0  0  0  0  0  0  0  0
    0.6544    0.7368   -2.6946 H   0  0  0  0  0  0  0  0  0  0  0  0
 26 25  2  0
 26 27  1  0
 25 24  1  0
  7  6  1  0
  7  8  1  0
 27 18  2  0
 24 23  2  0
 24 19  1  0
 23 22  1  0
  6 11  1  0
  8  9  1  0
  8 10  1  0
 22 21  2  0
 18 19  1  0
 18 17  1  0
 19 20  2  0
 11 10  1  0
 11 12  1  0
 21 20  1  0
 17 12  1  0
 17 16  2  0
 12 13  2  0
 16  2  1  0
 13  1  1  0
  2  1  1  0
  2  3  2  0
  1  5  2  0
  3  4  1  0
  5 14  1  0
  4 14  2  0
 14 15  1  0
  3 28  1  0
  6 29  1  0
  6 30  1  0
  7 31  1  0
  7 32  1  0
  8 33  1  6
  9 34  1  0
  9 35  1  0
 10 36  1  0
 10 37  1  0
 15 38  1  0
 15 39  1  0
 16 40  1  0
 20 41  1  0
 21 42  1  0
 22 43  1  0
 23 44  1  0
 25 45  1  0
 26 46  1  0
 27 47  1  0
M  END
