
     RDKit          3D

 17 17  0  0  0  0  0  0  0  0999 V2000
    1.3596    2.1391   -0.1515 N   0  0  0  0  0  0  0  0  0  0  0  0
    1.8148   -2.0770   -0.0237 O   0  0  0  0  0  0  0  0  0  0  0  0
    2.8773   -0.1259   -0.0342 O   0  0  0  0  0  0  0  0  0  0  0  0
   -2.9710   -1.2383    0.1030 F   0  0  0  0  0  0  0  0  0  0  0  0
   -0.9837    1.7699   -0.0181 C   0  0  0  0  0  0  0  0  0  0  0  0
   -2.0808    0.9453    0.0343 C   0  0  0  0  0  0  0  0  0  0  0  0
   -0.6390   -0.9744    0.0290 C   0  0  0  0  0  0  0  0  0  0  0  0
    1.8340   -0.7486   -0.0283 C   0  0  0  0  0  0  0  0  0  0  0  0
    0.3332    1.2619   -0.0534 C   0  0  0  0  0  0  0  0  0  0  0  0
   -1.8923   -0.4309    0.0538 C   0  0  0  0  0  0  0  0  0  0  0  0
    0.4943   -0.1443   -0.0213 C   0  0  0  0  0  0  0  0  0  0  0  0
    1.1737    3.1119    0.0190 H   0  0  0  0  0  0  0  0  0  0  0  0
    2.3005    1.8212   -0.0004 H   0  0  0  0  0  0  0  0  0  0  0  0
   -1.1269    2.8431   -0.0351 H   0  0  0  0  0  0  0  0  0  0  0  0
   -3.0789    1.3640    0.0604 H   0  0  0  0  0  0  0  0  0  0  0  0
   -0.5293   -2.0496    0.0514 H   0  0  0  0  0  0  0  0  0  0  0  0
    2.7229   -2.4133   -0.0214 H   0  0  0  0  0  0  0  0  0  0  0  0
  1  9  1  0
  2  8  1  0
  3  8  2  0
  4 10  1  0
  5  6  2  0
  5  9  1  0
  6 10  1  0
  7 10  2  0
  7 11  1  0
  8 11  1  0
  9 11  2  0
  1 12  1  0
  1 13  1  0
  5 14  1  0
  6 15  1  0
  7 16  1  0
  2 17  1  0
M  END
