
     RDKit          3D

 57 62  0  0  0  0  0  0  0  0999 V2000
   -3.6817    1.1366   -0.0431 C   0  0  0  0  0  0  0  0  0  0  0  0
   -4.3267   -0.1288   -0.0586 C   0  0  0  0  0  0  0  0  0  0  0  0
   -3.5679   -1.2860   -0.0560 C   0  0  0  0  0  0  0  0  0  0  0  0
   -2.1786   -1.1492   -0.0445 C   0  0  0  0  0  0  0  0  0  0  0  0
   -1.5383    0.0999   -0.0280 C   0  0  0  0  0  0  0  0  0  0  0  0
   -2.3144    1.2659   -0.0266 C   0  0  0  0  0  0  0  0  0  0  0  0
   -1.1882   -2.0756   -0.0323 N   0  0  0  0  0  0  0  0  0  0  0  0
    0.0190   -1.5290   -0.0144 N   0  0  0  0  0  0  0  0  0  0  0  0
   -0.1527   -0.2246   -0.0116 C   0  0  0  0  0  0  0  0  0  0  0  0
    0.9821    0.6708    0.0049 C   0  0  0  0  0  0  0  0  0  0  0  0
    0.9110    1.9755   -0.0320 N   0  0  0  0  0  0  0  0  0  0  0  0
    2.2134    2.4092    0.0075 C   0  0  0  0  0  0  0  0  0  0  0  0
    3.0815    1.3093    0.0605 C   0  0  0  0  0  0  0  0  0  0  0  0
    2.2604    0.2136    0.0597 N   0  0  0  0  0  0  0  0  0  0  0  0
    2.7222    3.7106    0.0430 C   0  0  0  0  0  0  0  0  0  0  0  0
    4.0918    3.8482    0.1340 C   0  0  0  0  0  0  0  0  0  0  0  0
    4.9531    2.7383    0.1653 C   0  0  0  0  0  0  0  0  0  0  0  0
    4.4759    1.4331    0.1242 C   0  0  0  0  0  0  0  0  0  0  0  0
   -5.7990   -0.2011   -0.0824 C   0  0  0  0  0  0  0  0  0  0  0  0
    5.2752    0.2873    0.1829 N   0  0  0  0  0  0  0  0  0  0  0  0
    6.6291    0.4475    0.6757 C   0  0  0  0  0  0  0  0  0  0  0  0
    7.2207   -0.9142    0.9909 C   0  0  0  0  0  0  0  0  0  0  0  0
    7.2083   -1.7668   -0.1799 N   0  0  0  0  0  0  0  0  0  0  0  0
    5.8574   -1.9163   -0.6791 C   0  0  0  0  0  0  0  0  0  0  0  0
    5.2571   -0.5628   -1.0031 C   0  0  0  0  0  0  0  0  0  0  0  0
    7.8278   -3.0455    0.0787 C   0  0  0  0  0  0  0  0  0  0  0  0
   -6.5860    0.7195    0.6134 C   0  0  0  0  0  0  0  0  0  0  0  0
   -7.9668    0.6498    0.6032 C   0  0  0  0  0  0  0  0  0  0  0  0
   -8.6300   -0.3517   -0.1179 C   0  0  0  0  0  0  0  0  0  0  0  0
   -7.8466   -1.2790   -0.8174 C   0  0  0  0  0  0  0  0  0  0  0  0
   -6.4665   -1.1999   -0.7949 C   0  0  0  0  0  0  0  0  0  0  0  0
  -10.0019   -0.3896   -0.1806 N   0  0  0  0  0  0  0  0  0  0  0  0
   -4.2910    2.0307   -0.0690 H   0  0  0  0  0  0  0  0  0  0  0  0
   -4.0292   -2.2652   -0.0410 H   0  0  0  0  0  0  0  0  0  0  0  0
   -1.8488    2.2415   -0.0238 H   0  0  0  0  0  0  0  0  0  0  0  0
   -1.2798   -3.0788   -0.0396 H   0  0  0  0  0  0  0  0  0  0  0  0
    2.5309   -0.7522    0.1587 H   0  0  0  0  0  0  0  0  0  0  0  0
    2.0641    4.5689    0.0133 H   0  0  0  0  0  0  0  0  0  0  0  0
    4.5273    4.8385    0.1717 H   0  0  0  0  0  0  0  0  0  0  0  0
    6.0188    2.9159    0.2191 H   0  0  0  0  0  0  0  0  0  0  0  0
    7.2743    0.9637   -0.0515 H   0  0  0  0  0  0  0  0  0  0  0  0
    6.6141    1.0479    1.5867 H   0  0  0  0  0  0  0  0  0  0  0  0
    8.2521   -0.7815    1.3262 H   0  0  0  0  0  0  0  0  0  0  0  0
    6.6599   -1.3621    1.8297 H   0  0  0  0  0  0  0  0  0  0  0  0
    5.8752   -2.5224   -1.5880 H   0  0  0  0  0  0  0  0  0  0  0  0
    5.2068   -2.4371    0.0460 H   0  0  0  0  0  0  0  0  0  0  0  0
    4.2362   -0.6999   -1.3605 H   0  0  0  0  0  0  0  0  0  0  0  0
    5.8225   -0.0967   -1.8236 H   0  0  0  0  0  0  0  0  0  0  0  0
    7.3148   -3.6272    0.8610 H   0  0  0  0  0  0  0  0  0  0  0  0
    7.8346   -3.6465   -0.8319 H   0  0  0  0  0  0  0  0  0  0  0  0
    8.8626   -2.9044    0.3940 H   0  0  0  0  0  0  0  0  0  0  0  0
   -6.1149    1.4999    1.1988 H   0  0  0  0  0  0  0  0  0  0  0  0
   -8.5428    1.3775    1.1628 H   0  0  0  0  0  0  0  0  0  0  0  0
   -8.3279   -2.0641   -1.3889 H   0  0  0  0  0  0  0  0  0  0  0  0
   -5.8986   -1.9273   -1.3625 H   0  0  0  0  0  0  0  0  0  0  0  0
  -10.4957    0.0524    0.5776 H   0  0  0  0  0  0  0  0  0  0  0  0
  -10.4129   -1.2718   -0.4393 H   0  0  0  0  0  0  0  0  0  0  0  0
  1  2  2  0
  1  6  1  0
  2  3  1  0
  2 19  1  0
  3  4  2  0
  4  5  1  0
  4  7  1  0
  5  6  2  0
  5  9  1  0
  7  8  1  0
  8  9  2  0
  9 10  1  0
 10 11  2  0
 10 14  1  0
 11 12  1  0
 12 13  2  0
 12 15  1  0
 13 14  1  0
 13 18  1  0
 15 16  2  0
 16 17  1  0
 17 18  2  0
 18 20  1  0
 19 27  2  0
 19 31  1  0
 20 21  1  0
 20 25  1  0
 21 22  1  0
 22 23  1  0
 23 24  1  0
 23 26  1  0
 24 25  1  0
 27 28  1  0
 28 29  2  0
 29 30  1  0
 29 32  1  0
 30 31  2  0
  1 33  1  0
  3 34  1  0
  6 35  1  0
  7 36  1  0
 14 37  1  0
 15 38  1  0
 16 39  1  0
 17 40  1  0
 21 41  1  0
 21 42  1  0
 22 43  1  0
 22 44  1  0
 24 45  1  0
 24 46  1  0
 25 47  1  0
 25 48  1  0
 26 49  1  0
 26 50  1  0
 26 51  1  0
 27 52  1  0
 28 53  1  0
 30 54  1  0
 31 55  1  0
 32 56  1  0
 32 57  1  0
M  END
