
     RDKit          3D

 41 43  0  0  0  0  0  0  0  0999 V2000
   -5.1838    0.7849   -0.3072 C   0  0  0  0  0  0  0  0  0  0  0  0
   -6.3402    0.1135   -0.6768 C   0  0  0  0  0  0  0  0  0  0  0  0
   -6.5389   -1.2037   -0.2808 C   0  0  0  0  0  0  0  0  0  0  0  0
   -5.5752   -1.8396    0.4895 C   0  0  0  0  0  0  0  0  0  0  0  0
   -4.4184   -1.1635    0.8576 C   0  0  0  0  0  0  0  0  0  0  0  0
   -4.2076    0.1556    0.4645 C   0  0  0  0  0  0  0  0  0  0  0  0
   -2.9338    0.8722    0.8141 C   0  0  0  0  0  0  0  0  0  0  0  0
   -1.9287    0.8308   -0.3412 C   0  0  1  0  0  0  0  0  0  0  0  0
   -0.6103    1.5108    0.0350 C   0  0  0  0  0  0  0  0  0  0  0  0
   -0.5607    2.6699    0.4145 O   0  0  0  0  0  0  0  0  0  0  0  0
   -1.5150   -0.5042   -0.6879 N   0  0  0  0  0  0  0  0  0  0  0  0
   -0.1870   -0.7118   -0.5846 C   0  0  0  0  0  0  0  0  0  0  0  0
    0.3860   -1.7726   -0.8466 O   0  0  0  0  0  0  0  0  0  0  0  0
    0.4259    0.5322   -0.1249 C   0  0  0  0  0  0  0  0  0  0  0  0
    1.7931    0.6867    0.0953 C   0  0  0  0  0  0  0  0  0  0  0  0
    2.3650    1.9997    0.5126 C   0  0  0  0  0  0  0  0  0  0  0  0
    2.5932   -0.3572   -0.0984 N   0  0  0  0  0  0  0  0  0  0  0  0
    3.9829   -0.4500    0.1145 C   0  0  0  0  0  0  0  0  0  0  0  0
    4.5717   -0.0329    1.3042 C   0  0  0  0  0  0  0  0  0  0  0  0
    5.9418   -0.1675    1.4774 C   0  0  0  0  0  0  0  0  0  0  0  0
    6.7248   -0.7388    0.4836 C   0  0  0  0  0  0  0  0  0  0  0  0
    6.1291   -1.1786   -0.6916 C   0  0  0  0  0  0  0  0  0  0  0  0
    4.7634   -1.0331   -0.8798 C   0  0  0  0  0  0  0  0  0  0  0  0
   -5.0384    1.8128   -0.6201 H   0  0  0  0  0  0  0  0  0  0  0  0
   -7.0885    0.6195   -1.2733 H   0  0  0  0  0  0  0  0  0  0  0  0
   -7.4407   -1.7284   -0.5687 H   0  0  0  0  0  0  0  0  0  0  0  0
   -5.7238   -2.8636    0.8074 H   0  0  0  0  0  0  0  0  0  0  0  0
   -3.6747   -1.6666    1.4644 H   0  0  0  0  0  0  0  0  0  0  0  0
   -3.1376    1.9191    1.0463 H   0  0  0  0  0  0  0  0  0  0  0  0
   -2.4767    0.4249    1.7002 H   0  0  0  0  0  0  0  0  0  0  0  0
   -2.3544    1.3451   -1.2107 H   0  0  0  0  0  0  0  0  0  0  0  0
   -2.1447   -1.2025   -1.0503 H   0  0  0  0  0  0  0  0  0  0  0  0
    2.2526    2.1371    1.5891 H   0  0  0  0  0  0  0  0  0  0  0  0
    3.4217    2.0790    0.2708 H   0  0  0  0  0  0  0  0  0  0  0  0
    1.8303    2.8124    0.0314 H   0  0  0  0  0  0  0  0  0  0  0  0
    2.1231   -1.1884   -0.4633 H   0  0  0  0  0  0  0  0  0  0  0  0
    3.9680    0.3802    2.1015 H   0  0  0  0  0  0  0  0  0  0  0  0
    6.3936    0.1655    2.4023 H   0  0  0  0  0  0  0  0  0  0  0  0
    7.7916   -0.8477    0.6271 H   0  0  0  0  0  0  0  0  0  0  0  0
    6.7286   -1.6308   -1.4706 H   0  0  0  0  0  0  0  0  0  0  0  0
    4.3005   -1.3668   -1.8001 H   0  0  0  0  0  0  0  0  0  0  0  0
 22 23  2  0
 22 21  1  0
 23 18  1  0
 21 20  2  0
 18 17  1  0
 18 19  2  0
 17 15  1  0
 13 12  2  0
 20 19  1  0
 15 16  1  0
 15 14  2  0
 12 14  1  0
 12 11  1  0
 14  9  1  0
 11  8  1  0
  9  8  1  0
  9 10  2  0
  8  7  1  0
  7  6  1  0
  5  6  1  0
  5  4  2  0
  6  1  2  0
  1  2  1  0
  4  3  1  0
  3  2  2  0
  1 24  1  0
  2 25  1  0
  3 26  1  0
  4 27  1  0
  5 28  1  0
  7 29  1  0
  7 30  1  0
  8 31  1  6
 11 32  1  0
 16 33  1  0
 16 34  1  0
 16 35  1  0
 17 36  1  0
 19 37  1  0
 20 38  1  0
 21 39  1  0
 22 40  1  0
 23 41  1  0
M  END
