
     RDKit          3D

 40 42  0  0  0  0  0  0  0  0999 V2000
   -4.7458   -1.2910   -0.5072 N   0  0  0  0  0  0  0  0  0  0  0  0
   -5.9974   -1.2142   -0.1193 C   0  0  0  0  0  0  0  0  0  0  0  0
   -6.8071   -2.2811   -0.3423 N   0  0  0  0  0  0  0  0  0  0  0  0
   -6.5475   -0.0426    0.4900 C   0  0  0  0  0  0  0  0  0  0  0  0
   -5.7432    1.0341    0.6762 C   0  0  0  0  0  0  0  0  0  0  0  0
   -4.3866    0.9842    0.2662 C   0  0  0  0  0  0  0  0  0  0  0  0
   -3.4891    2.0575    0.4262 C   0  0  0  0  0  0  0  0  0  0  0  0
   -2.1883    1.9452    0.0112 C   0  0  0  0  0  0  0  0  0  0  0  0
   -1.7244    0.7529   -0.5890 C   0  0  0  0  0  0  0  0  0  0  0  0
   -2.5927   -0.3010   -0.7488 C   0  0  0  0  0  0  0  0  0  0  0  0
   -3.9385   -0.2183   -0.3289 C   0  0  0  0  0  0  0  0  0  0  0  0
   -0.2833    0.6423   -0.9974 C   0  0  0  0  0  0  0  0  0  0  0  0
    0.6151    0.3540    0.2032 C   0  0  0  0  0  0  0  0  0  0  0  0
    2.0079    0.3070   -0.1949 N   0  0  0  0  0  0  0  0  0  0  0  0
    2.8994    0.0451    0.9162 C   0  0  0  0  0  0  0  0  0  0  0  0
    4.3452    0.1141    0.5000 C   0  0  0  0  0  0  0  0  0  0  0  0
    5.2513   -0.8321    0.9671 C   0  0  0  0  0  0  0  0  0  0  0  0
    6.5828   -0.7277    0.6098 C   0  0  0  0  0  0  0  0  0  0  0  0
    7.0552    0.2791   -0.2069 C   0  0  0  0  0  0  0  0  0  0  0  0
    6.1418    1.2157   -0.6765 C   0  0  0  0  0  0  0  0  0  0  0  0
    4.8015    1.1369   -0.3302 C   0  0  0  0  0  0  0  0  0  0  0  0
    7.4463   -1.6492    1.0719 F   0  0  0  0  0  0  0  0  0  0  0  0
   -6.3629   -3.1587   -0.5556 H   0  0  0  0  0  0  0  0  0  0  0  0
   -7.6621   -2.3526    0.1820 H   0  0  0  0  0  0  0  0  0  0  0  0
   -7.5862   -0.0282    0.7941 H   0  0  0  0  0  0  0  0  0  0  0  0
   -6.1300    1.9348    1.1374 H   0  0  0  0  0  0  0  0  0  0  0  0
   -3.8421    2.9759    0.8809 H   0  0  0  0  0  0  0  0  0  0  0  0
   -1.5044    2.7760    0.1386 H   0  0  0  0  0  0  0  0  0  0  0  0
   -2.2546   -1.2247   -1.2052 H   0  0  0  0  0  0  0  0  0  0  0  0
   -0.1646   -0.1530   -1.7378 H   0  0  0  0  0  0  0  0  0  0  0  0
    0.0469    1.5721   -1.4677 H   0  0  0  0  0  0  0  0  0  0  0  0
    0.4976    1.1522    0.9428 H   0  0  0  0  0  0  0  0  0  0  0  0
    0.2757   -0.5733    0.6903 H   0  0  0  0  0  0  0  0  0  0  0  0
    2.1301   -0.4207   -0.8900 H   0  0  0  0  0  0  0  0  0  0  0  0
    2.7184    0.8104    1.6786 H   0  0  0  0  0  0  0  0  0  0  0  0
    2.7078   -0.9204    1.4076 H   0  0  0  0  0  0  0  0  0  0  0  0
    4.9234   -1.6476    1.6010 H   0  0  0  0  0  0  0  0  0  0  0  0
    8.1027    0.3308   -0.4732 H   0  0  0  0  0  0  0  0  0  0  0  0
    6.4868    2.0151   -1.3193 H   0  0  0  0  0  0  0  0  0  0  0  0
    4.1013    1.8698   -0.7082 H   0  0  0  0  0  0  0  0  0  0  0  0
  2  1  2  0
 11  1  1  0
  4  2  1  0
  2  3  1  0
  3 23  1  0
  3 24  1  0
  5  4  2  0
  4 25  1  0
  5  6  1  0
  5 26  1  0
  7  6  1  0
  6 11  2  0
  7  8  2  0
  7 27  1  0
  8  9  1  0
  8 28  1  0
  9 10  2  0
  9 12  1  0
 11 10  1  0
 10 29  1  0
 13 12  1  0
 12 30  1  0
 12 31  1  0
 13 14  1  0
 13 32  1  0
 13 33  1  0
 14 15  1  0
 14 34  1  0
 15 16  1  0
 15 35  1  0
 15 36  1  0
 17 16  2  0
 16 21  1  0
 17 18  1  0
 17 37  1  0
 22 18  1  0
 18 19  2  0
 19 20  1  0
 19 38  1  0
 21 20  2  0
 20 39  1  0
 21 40  1  0
M  END
