
     RDKit          3D

 59 63  0  0  0  0  0  0  0  0999 V2000
   -2.2377   -4.6501    0.2814 N   0  0  0  0  0  0  0  0  0  0  0  0
   -3.3936   -4.0374    0.0411 C   0  0  0  0  0  0  0  0  0  0  0  0
    7.8972    3.5582    0.6648 O   0  0  0  0  0  0  0  0  0  0  0  0
   -2.4801   -2.0526   -0.2183 C   0  0  0  0  0  0  0  0  0  0  0  0
    6.6809    1.5807    0.3137 C   0  0  0  0  0  0  0  0  0  0  0  0
    6.6778    0.2347   -0.0469 C   0  0  0  0  0  0  0  0  0  0  0  0
    5.4997   -0.4906   -0.0861 C   0  0  0  0  0  0  0  0  0  0  0  0
    7.9360    2.3865    0.3540 C   0  0  0  0  0  0  0  0  0  0  0  0
    9.2290    1.7078    0.0012 C   0  0  0  0  0  0  0  0  0  0  0  0
   -3.4180    0.2167   -0.7298 C   0  0  2  0  0  0  0  0  0  0  0  0
   -3.2740    0.8309   -2.1202 C   0  0  0  0  0  0  0  0  0  0  0  0
   -4.3598    1.8779   -2.3505 C   0  0  0  0  0  0  0  0  0  0  0  0
   -4.3807    2.9010   -1.2224 C   0  0  0  0  0  0  0  0  0  0  0  0
   -3.4562    1.3058    0.3465 C   0  0  0  0  0  0  0  0  0  0  0  0
   -1.1932   -2.5409    0.0188 C   0  0  0  0  0  0  0  0  0  0  0  0
   -6.7735    3.1745    0.3978 C   0  0  0  0  0  0  0  0  0  0  0  0
   -7.9532    3.1520    1.3541 C   0  0  0  0  0  0  0  0  0  0  0  0
   -1.1071   -3.9336    0.2791 C   0  0  0  0  0  0  0  0  0  0  0  0
   -0.3608   -1.3931   -0.0896 C   0  0  0  0  0  0  0  0  0  0  0  0
    1.0730   -1.2603    0.0674 C   0  0  0  0  0  0  0  0  0  0  0  0
    1.8541   -0.1357   -0.0093 C   0  0  0  0  0  0  0  0  0  0  0  0
    4.3094    0.1372    0.2520 C   0  0  0  0  0  0  0  0  0  0  0  0
    4.2890    1.4756    0.6242 C   0  0  0  0  0  0  0  0  0  0  0  0
    5.4713    2.1899    0.6466 C   0  0  0  0  0  0  0  0  0  0  0  0
   -3.6111   -2.7637   -0.2165 N   0  0  0  0  0  0  0  0  0  0  0  0
   -2.3605   -0.7303   -0.4467 N   0  0  0  0  0  0  0  0  0  0  0  0
   -1.0855   -0.3342   -0.3687 N   0  0  0  0  0  0  0  0  0  0  0  0
    0.0380   -4.5591    0.5186 N   0  0  0  0  0  0  0  0  0  0  0  0
    3.1016   -0.5924    0.2149 N   0  0  0  0  0  0  0  0  0  0  0  0
    3.1007   -1.9026    0.4195 N   0  0  0  0  0  0  0  0  0  0  0  0
    1.8888   -2.3073    0.3312 N   0  0  0  0  0  0  0  0  0  0  0  0
   -4.5320    2.2311    0.0588 N   0  0  0  0  0  0  0  0  0  0  0  0
   -5.7681    1.5303    1.8089 O   0  0  0  0  0  0  0  0  0  0  0  0
   -4.2699   -4.6771    0.0612 H   0  0  0  0  0  0  0  0  0  0  0  0
    7.5961   -0.2694   -0.3151 H   0  0  0  0  0  0  0  0  0  0  0  0
    5.5117   -1.5291   -0.3843 H   0  0  0  0  0  0  0  0  0  0  0  0
   10.0535    2.4143    0.0567 H   0  0  0  0  0  0  0  0  0  0  0  0
    9.4312    0.8793    0.6823 H   0  0  0  0  0  0  0  0  0  0  0  0
    9.1893    1.2906   -1.0062 H   0  0  0  0  0  0  0  0  0  0  0  0
   -4.3462   -0.3574   -0.6787 H   0  0  0  0  0  0  0  0  0  0  0  0
   -2.2882    1.2975   -2.2066 H   0  0  0  0  0  0  0  0  0  0  0  0
   -3.3289    0.0487   -2.8796 H   0  0  0  0  0  0  0  0  0  0  0  0
   -4.1933    2.3860   -3.3017 H   0  0  0  0  0  0  0  0  0  0  0  0
   -5.3389    1.3939   -2.4123 H   0  0  0  0  0  0  0  0  0  0  0  0
   -3.4403    3.4613   -1.2072 H   0  0  0  0  0  0  0  0  0  0  0  0
   -5.1729    3.6279   -1.3745 H   0  0  0  0  0  0  0  0  0  0  0  0
   -3.5927    0.8687    1.3324 H   0  0  0  0  0  0  0  0  0  0  0  0
   -2.5098    1.8551    0.3481 H   0  0  0  0  0  0  0  0  0  0  0  0
   -6.3788    4.1913    0.3209 H   0  0  0  0  0  0  0  0  0  0  0  0
   -7.1083    2.9121   -0.6100 H   0  0  0  0  0  0  0  0  0  0  0  0
   -8.7250    3.8360    1.0021 H   0  0  0  0  0  0  0  0  0  0  0  0
   -8.3981    2.1604    1.4253 H   0  0  0  0  0  0  0  0  0  0  0  0
   -7.6661    3.4639    2.3575 H   0  0  0  0  0  0  0  0  0  0  0  0
    1.6219    0.8938   -0.2184 H   0  0  0  0  0  0  0  0  0  0  0  0
    3.3647    1.9589    0.9103 H   0  0  0  0  0  0  0  0  0  0  0  0
    5.4507    3.2313    0.9368 H   0  0  0  0  0  0  0  0  0  0  0  0
    0.9148   -4.0506    0.5219 H   0  0  0  0  0  0  0  0  0  0  0  0
    0.0340   -5.5505    0.6887 H   0  0  0  0  0  0  0  0  0  0  0  0
   -5.6570    2.2357    0.8154 C   0  0  0  0  0  0  0  0  0  0  0  0
  9  8  1  0
  3  8  2  0
  8  5  1  0
  5 24  2  0
  5  6  1  0
 24 23  1  0
  6  7  2  0
 23 22  2  0
  7 22  1  0
 22 29  1  0
 29 30  1  0
 29 21  1  0
 30 31  2  0
 21 20  2  0
 31 20  1  0
 20 19  1  0
 16 17  1  0
 16 59  1  0
 27 19  2  0
 27 26  1  0
 14 32  1  0
 14 10  1  0
 19 15  1  0
 32 13  1  0
 32 59  1  0
 13 12  1  0
 59 33  2  0
 26 10  1  0
 26  4  1  0
 15 18  1  0
 15  4  2  0
 10 11  1  0
 28 18  1  0
 11 12  1  0
 18  1  2  0
  4 25  1  0
  1  2  1  0
 25  2  2  0
  2 34  1  0
  6 35  1  0
  7 36  1  0
  9 37  1  0
  9 38  1  0
  9 39  1  0
 10 40  1  6
 11 41  1  0
 11 42  1  0
 12 43  1  0
 12 44  1  0
 13 45  1  0
 13 46  1  0
 14 47  1  0
 14 48  1  0
 16 49  1  0
 16 50  1  0
 17 51  1  0
 17 52  1  0
 17 53  1  0
 21 54  1  0
 23 55  1  0
 24 56  1  0
 28 57  1  0
 28 58  1  0
M  END
