
     RDKit          3D

 81 86  0  0  0  0  0  0  0  0999 V2000
    4.0291    0.2104   -2.3315 C   0  0  1  0  0  0  0  0  0  0  0  0
    6.5545    0.5871   -0.0347 N   0  0  0  0  0  0  0  0  0  0  0  0
    4.6395    0.9713   -1.2829 O   0  0  0  0  0  0  0  0  0  0  0  0
    2.4727   -0.7310   -0.2849 S   0  0  0  0  0  0  0  0  0  0  0  0
    5.1447   -0.0563   -3.3325 C   0  0  1  0  0  0  0  0  0  0  0  0
    6.7647   -0.3841    1.9621 N   0  0  0  0  0  0  0  0  0  0  0  0
    5.2799    1.0642   -4.1658 O   0  0  0  0  0  0  0  0  0  0  0  0
    6.3478   -0.1867   -2.3939 C   0  0  1  0  0  0  0  0  0  0  0  0
    7.5847    0.0742   -2.9854 O   0  0  0  0  0  0  0  0  0  0  0  0
    6.0327    0.8867   -1.3481 C   0  0  2  0  0  0  0  0  0  0  0  0
    9.6739    1.8722    2.1008 N   0  0  0  0  0  0  0  0  0  0  0  0
    6.0638   -0.3184    0.8687 C   0  0  0  0  0  0  0  0  0  0  0  0
    8.4696    2.0778    0.0482 N   0  0  0  0  0  0  0  0  0  0  0  0
    7.7759    0.5218    1.7751 C   0  0  0  0  0  0  0  0  0  0  0  0
   -1.3101   -3.3519    0.1863 N   0  0  0  0  0  0  0  0  0  0  0  0
    8.8537    0.9309    2.5812 C   0  0  0  0  0  0  0  0  0  0  0  0
    9.4394    2.3802    0.8935 C   0  0  0  0  0  0  0  0  0  0  0  0
   -9.6570    2.0978    0.8908 N   0  0  0  0  0  0  0  0  0  0  0  0
    7.6624    1.1402    0.5399 C   0  0  0  0  0  0  0  0  0  0  0  0
    3.4247   -1.0753   -1.7917 C   0  0  0  0  0  0  0  0  0  0  0  0
   -7.9275    3.4325    1.7245 N   0  0  0  0  0  0  0  0  0  0  0  0
    1.3431   -2.1631   -0.2694 C   0  0  1  0  0  0  0  0  0  0  0  0
   -6.4705    0.3013    0.5792 N   0  0  0  0  0  0  0  0  0  0  0  0
    0.7718   -2.3234    1.1344 C   0  0  0  0  0  0  0  0  0  0  0  0
   -9.1209    0.0574   -0.0269 N   0  0  0  0  0  0  0  0  0  0  0  0
   -0.2342   -3.4783    1.1530 C   0  0  0  0  0  0  0  0  0  0  0  0
   -0.7647   -3.1929   -1.1530 C   0  0  0  0  0  0  0  0  0  0  0  0
    0.2177   -2.0259   -1.2851 C   0  0  0  0  0  0  0  0  0  0  0  0
   -5.9158   -1.8574   -0.3130 C   0  0  0  0  0  0  0  0  0  0  0  0
   -9.2354    3.1967    1.4696 C   0  0  0  0  0  0  0  0  0  0  0  0
   -6.8960    2.5267    1.4449 C   0  0  0  0  0  0  0  0  0  0  0  0
   -6.8515   -0.7052   -0.0967 C   0  0  0  0  0  0  0  0  0  0  0  0
   -8.1966   -0.7464   -0.8168 C   0  0  1  0  0  0  0  0  0  0  0  0
   -8.7722   -2.1541   -0.9262 C   0  0  0  0  0  0  0  0  0  0  0  0
   -8.0095   -0.1428   -2.2167 C   0  0  0  0  0  0  0  0  0  0  0  0
   -8.7140    1.2017    0.5482 C   0  0  0  0  0  0  0  0  0  0  0  0
   -7.3519    1.3470    0.7987 C   0  0  0  0  0  0  0  0  0  0  0  0
   -3.6611   -2.6569   -0.0954 C   0  0  0  0  0  0  0  0  0  0  0  0
   -4.6339   -1.6636    0.3117 N   0  0  0  0  0  0  0  0  0  0  0  0
    3.2361    0.8226   -2.7675 H   0  0  0  0  0  0  0  0  0  0  0  0
    4.9701   -0.9758   -3.9068 H   0  0  0  0  0  0  0  0  0  0  0  0
    6.1748    1.0612   -4.5262 H   0  0  0  0  0  0  0  0  0  0  0  0
    6.3312   -1.1758   -1.9196 H   0  0  0  0  0  0  0  0  0  0  0  0
    9.8414    0.7651    4.3534 H   0  0  0  0  0  0  0  0  0  0  0  0
    8.4741   -0.2748    4.1863 H   0  0  0  0  0  0  0  0  0  0  0  0
    7.9185   -0.7375   -3.3803 H   0  0  0  0  0  0  0  0  0  0  0  0
    6.4778    1.8429   -1.6432 H   0  0  0  0  0  0  0  0  0  0  0  0
    5.1612   -0.8830    0.6795 H   0  0  0  0  0  0  0  0  0  0  0  0
   10.1394    3.1412    0.5644 H   0  0  0  0  0  0  0  0  0  0  0  0
  -11.0959    3.9420    1.7109 H   0  0  0  0  0  0  0  0  0  0  0  0
   -9.8582    4.9365    2.3655 H   0  0  0  0  0  0  0  0  0  0  0  0
    2.7638   -1.4915   -2.5539 H   0  0  0  0  0  0  0  0  0  0  0  0
    4.1886   -1.8284   -1.5832 H   0  0  0  0  0  0  0  0  0  0  0  0
    1.9436   -3.0497   -0.5009 H   0  0  0  0  0  0  0  0  0  0  0  0
    1.5716   -2.5229    1.8512 H   0  0  0  0  0  0  0  0  0  0  0  0
    0.2863   -1.3944    1.4505 H   0  0  0  0  0  0  0  0  0  0  0  0
  -10.1021   -0.0115   -0.2558 H   0  0  0  0  0  0  0  0  0  0  0  0
   -0.6629   -3.5818    2.1521 H   0  0  0  0  0  0  0  0  0  0  0  0
    0.3017   -4.4112    0.9445 H   0  0  0  0  0  0  0  0  0  0  0  0
   -0.2543   -4.1232   -1.4251 H   0  0  0  0  0  0  0  0  0  0  0  0
   -1.5774   -3.0733   -1.8713 H   0  0  0  0  0  0  0  0  0  0  0  0
   -0.2989   -1.0756   -1.1246 H   0  0  0  0  0  0  0  0  0  0  0  0
    0.6103   -2.0017   -2.3045 H   0  0  0  0  0  0  0  0  0  0  0  0
   -6.3742   -2.7694    0.0879 H   0  0  0  0  0  0  0  0  0  0  0  0
   -5.8415   -2.0375   -1.4018 H   0  0  0  0  0  0  0  0  0  0  0  0
   -9.7550   -2.1165   -1.4000 H   0  0  0  0  0  0  0  0  0  0  0  0
   -8.1397   -2.7915   -1.5429 H   0  0  0  0  0  0  0  0  0  0  0  0
   -8.8857   -2.6190    0.0535 H   0  0  0  0  0  0  0  0  0  0  0  0
   -7.6338    0.8797   -2.1571 H   0  0  0  0  0  0  0  0  0  0  0  0
   -7.3038   -0.7313   -2.8050 H   0  0  0  0  0  0  0  0  0  0  0  0
   -8.9603   -0.1266   -2.7529 H   0  0  0  0  0  0  0  0  0  0  0  0
   -3.5572   -2.7151   -1.1908 H   0  0  0  0  0  0  0  0  0  0  0  0
   -4.0028   -3.6432    0.2324 H   0  0  0  0  0  0  0  0  0  0  0  0
   -4.2942   -0.7347    0.0933 H   0  0  0  0  0  0  0  0  0  0  0  0
    9.0844    0.4180    3.7904 N   0  0  0  0  0  0  0  0  0  0  0  0
   -2.3131   -2.3648    0.5492 C   0  0  0  0  0  0  0  0  0  0  0  0
   -7.6546    4.2980    2.1708 H   0  0  0  0  0  0  0  0  0  0  0  0
   -5.7477    2.8139    1.7608 O   0  0  0  0  0  0  0  0  0  0  0  0
  -10.1154    4.1457    1.8004 N   0  0  0  0  0  0  0  0  0  0  0  0
   -2.4431   -2.3953    1.6335 H   0  0  0  0  0  0  0  0  0  0  0  0
   -2.0166   -1.3312    0.3065 H   0  0  0  0  0  0  0  0  0  0  0  0
  1  3  1  0
  1  5  1  0
  1 20  1  0
  2 10  1  0
  2 12  1  0
  2 19  1  0
  3 10  1  0
  4 20  1  0
  4 22  1  0
  5  7  1  0
  5  8  1  0
  6 12  2  0
  6 14  1  0
  8  9  1  0
  8 10  1  0
 75 16  1  0
 11 16  1  0
 11 17  2  0
 13 17  1  0
 13 19  2  0
 78 31  2  0
 14 16  2  0
 14 19  1  0
 15 26  1  0
 15 27  1  0
 15 76  1  0
 18 30  2  0
 18 36  1  0
 79 30  1  0
 21 30  1  0
 21 31  1  0
 22 24  1  0
 22 28  1  0
 23 32  2  0
 23 37  1  0
 24 26  1  0
 25 33  1  0
 25 36  1  0
 27 28  1  0
 76 38  1  0
 29 32  1  0
 29 39  1  0
 31 37  1  0
 32 33  1  0
 33 34  1  6
 33 35  1  0
 36 37  2  0
 38 39  1  0
  1 40  1  6
  5 41  1  6
  7 42  1  0
  8 43  1  1
 75 44  1  0
 75 45  1  0
  9 46  1  0
 10 47  1  6
 12 48  1  0
 17 49  1  0
 79 50  1  0
 79 51  1  0
 20 52  1  0
 20 53  1  0
 21 77  1  0
 22 54  1  6
 24 55  1  0
 24 56  1  0
 25 57  1  0
 26 58  1  0
 26 59  1  0
 27 60  1  0
 27 61  1  0
 28 62  1  0
 28 63  1  0
 76 80  1  0
 76 81  1  0
 29 64  1  0
 29 65  1  0
 34 66  1  0
 34 67  1  0
 34 68  1  0
 35 69  1  0
 35 70  1  0
 35 71  1  0
 38 72  1  0
 38 73  1  0
 39 74  1  0
M  END
