
     RDKit          3D

 49 51  0  0  0  0  0  0  0  0999 V2000
    5.8508   -2.1711   -0.5820 N   0  0  0  0  0  0  0  0  0  0  0  0
    7.2126   -2.1051   -0.6158 C   0  0  0  0  0  0  0  0  0  0  0  0
    5.3919   -0.9140   -0.2693 C   0  0  0  0  0  0  0  0  0  0  0  0
   -4.8300    0.3228    1.6582 C   0  0  0  0  0  0  0  0  0  0  0  0
    6.5550   -0.1409   -0.1289 C   0  0  0  0  0  0  0  0  0  0  0  0
    1.5165    1.0900    0.4055 C   0  0  0  0  0  0  0  0  0  0  0  0
   -1.7595    0.9405    0.6707 C   0  0  0  0  0  0  0  0  0  0  0  0
   -0.8603    1.8392    0.1112 C   0  0  0  0  0  0  0  0  0  0  0  0
    6.4234    1.2049    0.1902 C   0  0  0  0  0  0  0  0  0  0  0  0
   -4.8568   -1.9162   -1.2459 C   0  0  0  0  0  0  0  0  0  0  0  0
    5.1502    1.7234    0.3574 C   0  0  0  0  0  0  0  0  0  0  0  0
   -2.4112    2.2097   -1.7034 C   0  0  0  0  0  0  0  0  0  0  0  0
   -3.8961   -1.7913    0.2422 S   0  0  1  0  0  0  0  0  0  0  0  0
    7.6756   -0.9102   -0.3476 N   0  0  0  0  0  0  0  0  0  0  0  0
   -2.9809    0.6885    0.0593 C   0  0  0  0  0  0  0  0  0  0  0  0
   -6.0437    0.9982    1.0312 C   0  0  0  0  0  0  0  0  0  0  0  0
    4.1080   -0.4212   -0.1080 C   0  0  0  0  0  0  0  0  0  0  0  0
   -4.5874   -2.5313    1.2888 O   0  0  0  0  0  0  0  0  0  0  0  0
   -2.5263   -2.1429   -0.0952 O   0  0  0  0  0  0  0  0  0  0  0  0
    3.9984    0.9317    0.2140 C   0  0  0  0  0  0  0  0  0  0  0  0
    1.2340   -0.0706    0.1691 O   0  0  0  0  0  0  0  0  0  0  0  0
   -6.4186    0.7355   -0.1000 O   0  0  0  0  0  0  0  0  0  0  0  0
    7.9653   -3.1785   -0.9611 N   0  0  0  0  0  0  0  0  0  0  0  0
    0.4557    2.1170    0.7743 C   0  0  0  0  0  0  0  0  0  0  0  0
   -6.6693    1.8545    1.8461 N   0  0  0  0  0  0  0  0  0  0  0  0
   -3.3140    1.3255   -1.1296 C   0  0  0  0  0  0  0  0  0  0  0  0
   -1.1953    2.4648   -1.0865 C   0  0  0  0  0  0  0  0  0  0  0  0
    5.2879   -2.9836   -0.7772 H   0  0  0  0  0  0  0  0  0  0  0  0
   -5.1885   -0.4812    2.3027 H   0  0  0  0  0  0  0  0  0  0  0  0
   -4.2965    1.0154    2.3125 H   0  0  0  0  0  0  0  0  0  0  0  0
   -1.5236    0.4443    1.6038 H   0  0  0  0  0  0  0  0  0  0  0  0
    7.2913    1.8407    0.3072 H   0  0  0  0  0  0  0  0  0  0  0  0
   -4.8458   -2.9609   -1.5529 H   0  0  0  0  0  0  0  0  0  0  0  0
   -5.8713   -1.5863   -1.0487 H   0  0  0  0  0  0  0  0  0  0  0  0
   -4.4054   -1.3009   -2.0205 H   0  0  0  0  0  0  0  0  0  0  0  0
    5.0383    2.7729    0.6040 H   0  0  0  0  0  0  0  0  0  0  0  0
   -2.6621    2.7075   -2.6307 H   0  0  0  0  0  0  0  0  0  0  0  0
    3.2446   -1.0545   -0.2299 H   0  0  0  0  0  0  0  0  0  0  0  0
    2.8563    2.5746    0.6064 H   0  0  0  0  0  0  0  0  0  0  0  0
    7.5833   -4.0919   -0.7762 H   0  0  0  0  0  0  0  0  0  0  0  0
    8.9430   -3.1022   -0.7324 H   0  0  0  0  0  0  0  0  0  0  0  0
    0.3445    2.0773    1.8624 H   0  0  0  0  0  0  0  0  0  0  0  0
    0.7954    3.1271    0.5370 H   0  0  0  0  0  0  0  0  0  0  0  0
   -6.3251    2.0623    2.7681 H   0  0  0  0  0  0  0  0  0  0  0  0
   -7.5307    2.2941    1.5649 H   0  0  0  0  0  0  0  0  0  0  0  0
   -4.2756    1.1432   -1.5888 H   0  0  0  0  0  0  0  0  0  0  0  0
   -0.5027    3.1650   -1.5379 H   0  0  0  0  0  0  0  0  0  0  0  0
    2.7732    1.5891    0.4089 N   0  0  0  0  0  0  0  0  0  0  0  0
   -3.8952   -0.2026    0.6921 N   0  0  0  0  0  0  0  0  0  0  0  0
 25 16  1  0
 22 16  2  0
 16  4  1  0
  4 49  1  0
 18 13  2  0
 49 15  1  0
 13 49  1  1
 26 15  1  0
 26 12  2  0
 15  7  2  0
 13 19  2  0
 13 10  1  0
 12 27  1  0
  7  8  1  0
 27  8  2  0
  8 24  1  0
 24  6  1  0
 48  6  1  0
 48 20  1  0
  6 21  2  0
 11 20  2  0
 11  9  1  0
 20 17  1  0
  9  5  2  0
 17  3  2  0
  5  3  1  0
  5 14  1  0
  3  1  1  0
 14  2  2  0
  1  2  1  0
  2 23  1  0
  1 28  1  0
  4 29  1  0
  4 30  1  0
  7 31  1  0
  9 32  1  0
 10 33  1  0
 10 34  1  0
 10 35  1  0
 11 36  1  0
 12 37  1  0
 17 38  1  0
 48 39  1  0
 23 40  1  0
 23 41  1  0
 24 42  1  0
 24 43  1  0
 25 44  1  0
 25 45  1  0
 26 46  1  0
 27 47  1  0
M  END
