
     RDKit          3D

 60 62  0  0  0  0  0  0  0  0999 V2000
   -6.2621    0.9737    0.5112 C   0  0  0  0  0  0  0  0  0  0  0  0
   -6.9474   -0.2080    0.7643 C   0  0  0  0  0  0  0  0  0  0  0  0
   -6.3377   -1.4313    0.5222 C   0  0  0  0  0  0  0  0  0  0  0  0
   -5.0413   -1.4636    0.0233 C   0  0  0  0  0  0  0  0  0  0  0  0
   -4.3614   -0.2817   -0.2343 C   0  0  0  0  0  0  0  0  0  0  0  0
   -4.9655    0.9502    0.0073 C   0  0  0  0  0  0  0  0  0  0  0  0
   -4.2412    2.2433   -0.2818 C   0  0  0  0  0  0  0  0  0  0  0  0
   -2.8532    2.1820    0.1069 N   0  0  0  0  0  0  0  0  0  0  0  0
   -1.8116    2.3802   -0.7205 C   0  0  0  0  0  0  0  0  0  0  0  0
   -1.9206    2.7614   -1.8732 O   0  0  0  0  0  0  0  0  0  0  0  0
   -0.4737    2.0187   -0.0972 C   0  0  2  0  0  0  0  0  0  0  0  0
    0.7182    2.7914   -0.6752 C   0  0  0  0  0  0  0  0  0  0  0  0
    0.9411    4.1511   -0.0200 C   0  0  0  0  0  0  0  0  0  0  0  0
    2.4081    4.5851   -0.1163 C   0  0  0  0  0  0  0  0  0  0  0  0
    3.2954    3.6954    0.6993 C   0  0  0  0  0  0  0  0  0  0  0  0
    4.2354    2.8912    0.2112 C   0  0  0  0  0  0  0  0  0  0  0  0
    5.1383    2.0228    1.0295 C   0  0  0  0  0  0  0  0  0  0  0  0
    5.3299    0.6083    0.4833 C   0  0  0  0  0  0  0  0  0  0  0  0
    4.2010   -0.2843    0.6553 N   0  0  0  0  0  0  0  0  0  0  0  0
    3.2873   -0.5450   -0.2872 C   0  0  0  0  0  0  0  0  0  0  0  0
    3.1903    0.0668   -1.3406 O   0  0  0  0  0  0  0  0  0  0  0  0
    2.3676   -1.6936    0.0275 C   0  0  0  0  0  0  0  0  0  0  0  0
    2.8021   -2.9893   -0.2516 C   0  0  0  0  0  0  0  0  0  0  0  0
    4.0589   -3.1311   -0.7031 O   0  0  0  0  0  0  0  0  0  0  0  0
    1.9529   -4.0718   -0.0692 C   0  0  0  0  0  0  0  0  0  0  0  0
    0.6552   -3.8694    0.3818 C   0  0  0  0  0  0  0  0  0  0  0  0
   -0.2079   -4.8731    0.5720 O   0  0  0  0  0  0  0  0  0  0  0  0
    0.2216   -2.5715    0.6496 C   0  0  0  0  0  0  0  0  0  0  0  0
   -1.4087   -2.3520    1.1920 Cl  0  0  0  0  0  0  0  0  0  0  0  0
    1.0700   -1.4833    0.4846 C   0  0  0  0  0  0  0  0  0  0  0  0
    0.6016   -0.0996    0.7986 C   0  0  0  0  0  0  0  0  0  0  0  0
   -0.2107    0.5378   -0.3047 C   0  0  0  0  0  0  0  0  0  0  0  0
   -0.6037   -0.0699   -1.2681 O   0  0  0  0  0  0  0  0  0  0  0  0
   -6.7407    1.9247    0.7146 H   0  0  0  0  0  0  0  0  0  0  0  0
   -7.9545   -0.1710    1.1596 H   0  0  0  0  0  0  0  0  0  0  0  0
   -6.8657   -2.3539    0.7257 H   0  0  0  0  0  0  0  0  0  0  0  0
   -4.5551   -2.4124   -0.1642 H   0  0  0  0  0  0  0  0  0  0  0  0
   -3.3503   -0.3243   -0.6204 H   0  0  0  0  0  0  0  0  0  0  0  0
   -4.2821    2.4668   -1.3482 H   0  0  0  0  0  0  0  0  0  0  0  0
   -4.7401    3.0686    0.2315 H   0  0  0  0  0  0  0  0  0  0  0  0
   -2.6618    1.9175    1.0605 H   0  0  0  0  0  0  0  0  0  0  0  0
   -0.5090    2.1976    0.9826 H   0  0  0  0  0  0  0  0  0  0  0  0
    1.6222    2.1920   -0.5444 H   0  0  0  0  0  0  0  0  0  0  0  0
    0.5882    2.8994   -1.7532 H   0  0  0  0  0  0  0  0  0  0  0  0
    0.2969    4.9060   -0.4769 H   0  0  0  0  0  0  0  0  0  0  0  0
    0.6595    4.1070    1.0369 H   0  0  0  0  0  0  0  0  0  0  0  0
    2.7302    4.5861   -1.1619 H   0  0  0  0  0  0  0  0  0  0  0  0
    2.4950    5.6163    0.2390 H   0  0  0  0  0  0  0  0  0  0  0  0
    3.1166    3.7052    1.7735 H   0  0  0  0  0  0  0  0  0  0  0  0
    4.4058    2.8742   -0.8633 H   0  0  0  0  0  0  0  0  0  0  0  0
    6.1360    2.4752    1.0522 H   0  0  0  0  0  0  0  0  0  0  0  0
    4.7982    1.9800    2.0676 H   0  0  0  0  0  0  0  0  0  0  0  0
    5.5865    0.6508   -0.5760 H   0  0  0  0  0  0  0  0  0  0  0  0
    6.1746    0.1469    0.9948 H   0  0  0  0  0  0  0  0  0  0  0  0
    4.1928   -0.8589    1.4827 H   0  0  0  0  0  0  0  0  0  0  0  0
    4.2677   -4.0604   -0.8534 H   0  0  0  0  0  0  0  0  0  0  0  0
    2.2963   -5.0777   -0.2866 H   0  0  0  0  0  0  0  0  0  0  0  0
    0.2114   -5.7202    0.3805 H   0  0  0  0  0  0  0  0  0  0  0  0
   -0.0328   -0.0926    1.6908 H   0  0  0  0  0  0  0  0  0  0  0  0
    1.4364    0.5564    1.0576 H   0  0  0  0  0  0  0  0  0  0  0  0
  1  2  2  0
  1  6  1  0
  2  3  1  0
  3  4  2  0
  4  5  1  0
  5  6  2  0
  6  7  1  0
  7  8  1  0
  8  9  1  0
  9 10  2  0
  9 11  1  0
 11 12  1  0
 11 32  1  0
 12 13  1  0
 13 14  1  0
 14 15  1  0
 15 16  2  0
 16 17  1  0
 17 18  1  0
 18 19  1  0
 19 20  1  0
 20 21  2  0
 20 22  1  0
 22 23  1  0
 22 30  2  0
 23 24  1  0
 23 25  2  0
 25 26  1  0
 26 27  1  0
 26 28  2  0
 28 29  1  0
 28 30  1  0
 30 31  1  0
 31 32  1  0
 32 33  2  0
  1 34  1  0
  2 35  1  0
  3 36  1  0
  4 37  1  0
  5 38  1  0
  7 39  1  0
  7 40  1  0
  8 41  1  0
 11 42  1  1
 12 43  1  0
 12 44  1  0
 13 45  1  0
 13 46  1  0
 14 47  1  0
 14 48  1  0
 15 49  1  0
 16 50  1  0
 17 51  1  0
 17 52  1  0
 18 53  1  0
 18 54  1  0
 19 55  1  0
 24 56  1  0
 25 57  1  0
 27 58  1  0
 31 59  1  0
 31 60  1  0
M  END
