
     RDKit          3D

 53 55  0  0  0  0  0  0  0  0999 V2000
    6.8489   -3.4913   -1.3961 C   0  0  0  0  0  0  0  0  0  0  0  0
   -4.1959    3.3511   -1.9997 C   0  0  0  0  0  0  0  0  0  0  0  0
   -3.2609    1.1960   -2.8236 C   0  0  0  0  0  0  0  0  0  0  0  0
    3.9793    4.1986    1.5887 N   0  0  0  0  0  0  0  0  0  0  0  0
    4.8584    2.8362    0.0350 O   0  0  0  0  0  0  0  0  0  0  0  0
   -5.2667   -1.0540   -0.2430 O   0  0  0  0  0  0  0  0  0  0  0  0
   -3.8553   -2.5322    2.0696 F   0  0  0  0  0  0  0  0  0  0  0  0
   -1.8391   -3.2513    1.8392 F   0  0  0  0  0  0  0  0  0  0  0  0
   -3.1985   -3.3081    0.1720 F   0  0  0  0  0  0  0  0  0  0  0  0
    0.1962    2.4457    0.9923 C   0  0  0  0  0  0  0  0  0  0  0  0
    1.4254    3.0800    1.0115 C   0  0  0  0  0  0  0  0  0  0  0  0
    1.3208    0.4087    0.3279 C   0  0  0  0  0  0  0  0  0  0  0  0
    3.6809   -1.0173   -0.3940 C   0  0  0  0  0  0  0  0  0  0  0  0
    5.1021   -1.4740   -0.6766 C   0  0  0  0  0  0  0  0  0  0  0  0
   -4.8577    1.2241   -0.8771 C   0  0  0  0  0  0  0  0  0  0  0  0
   -2.5271    2.1339   -0.6066 C   0  0  0  0  0  0  0  0  0  0  0  0
   -1.1464   -0.8365    1.0544 N   0  0  0  0  0  0  0  0  0  0  0  0
    3.6952    0.3578    0.0396 N   0  0  0  0  0  0  0  0  0  0  0  0
    5.0801   -3.2235   -1.1495 S   0  0  0  0  0  0  0  0  0  0  0  0
    3.9072    3.1589    0.7455 C   0  0  0  0  0  0  0  0  0  0  0  0
   -4.4867   -0.1256   -0.3068 C   0  0  0  0  0  0  0  0  0  0  0  0
    0.1694    1.1033    0.6437 C   0  0  0  0  0  0  0  0  0  0  0  0
    2.5708    1.0494    0.3426 C   0  0  0  0  0  0  0  0  0  0  0  0
    2.6130    2.4226    0.7096 C   0  0  0  0  0  0  0  0  0  0  0  0
   -2.2294    0.8395    0.0532 C   0  0  0  0  0  0  0  0  0  0  0  0
   -2.3742   -1.2202    0.8244 C   0  0  0  0  0  0  0  0  0  0  0  0
   -3.1215   -0.2037    0.1932 C   0  0  0  0  0  0  0  0  0  0  0  0
   -1.0671    0.4162    0.5879 N   0  0  0  0  0  0  0  0  0  0  0  0
   -3.7090    1.9671   -1.5798 C   0  0  2  0  0  0  0  0  0  0  0  0
    7.4101   -3.2321   -0.4995 H   0  0  0  0  0  0  0  0  0  0  0  0
    6.9910   -4.5499   -1.6010 H   0  0  0  0  0  0  0  0  0  0  0  0
    7.2245   -2.9128   -2.2385 H   0  0  0  0  0  0  0  0  0  0  0  0
   -3.3959    3.9165   -2.4814 H   0  0  0  0  0  0  0  0  0  0  0  0
   -5.0213    3.2721   -2.7088 H   0  0  0  0  0  0  0  0  0  0  0  0
   -4.5454    3.9288   -1.1419 H   0  0  0  0  0  0  0  0  0  0  0  0
   -2.8890    0.1962   -2.5925 H   0  0  0  0  0  0  0  0  0  0  0  0
   -4.0893    1.0838   -3.5255 H   0  0  0  0  0  0  0  0  0  0  0  0
   -2.4609    1.7309   -3.3393 H   0  0  0  0  0  0  0  0  0  0  0  0
    4.8392    4.7184    1.6595 H   0  0  0  0  0  0  0  0  0  0  0  0
    3.2768    4.3841    2.2827 H   0  0  0  0  0  0  0  0  0  0  0  0
   -0.7010    2.9820    1.2641 H   0  0  0  0  0  0  0  0  0  0  0  0
    1.4448    4.1322    1.2637 H   0  0  0  0  0  0  0  0  0  0  0  0
    1.2435   -0.6318    0.0471 H   0  0  0  0  0  0  0  0  0  0  0  0
    3.0679   -1.1496   -1.2944 H   0  0  0  0  0  0  0  0  0  0  0  0
    3.2431   -1.6486    0.3854 H   0  0  0  0  0  0  0  0  0  0  0  0
    5.5353   -0.8827   -1.4868 H   0  0  0  0  0  0  0  0  0  0  0  0
    5.7263   -1.3493    0.2101 H   0  0  0  0  0  0  0  0  0  0  0  0
   -5.7044    1.1044   -1.5565 H   0  0  0  0  0  0  0  0  0  0  0  0
   -5.2153    1.8285   -0.0332 H   0  0  0  0  0  0  0  0  0  0  0  0
   -2.7796    2.8770    0.1574 H   0  0  0  0  0  0  0  0  0  0  0  0
   -1.6521    2.5180   -1.1362 H   0  0  0  0  0  0  0  0  0  0  0  0
    4.5039    0.9186   -0.1849 H   0  0  0  0  0  0  0  0  0  0  0  0
   -2.8183   -2.5837    1.2288 C   0  0  1  0  0  0  0  0  0  0  0  0
  1 19  1  0
  1 30  1  0
  1 31  1  0
  1 32  1  0
 29  2  1  6
  2 33  1  0
  2 34  1  0
  2 35  1  0
 29  3  1  0
  3 36  1  0
  3 37  1  0
  3 38  1  0
  4 20  1  0
  4 39  1  0
  4 40  1  0
 20  5  2  0
 21  6  2  0
 53  7  1  1
  8 53  1  0
  9 53  1  0
 11 10  2  0
 10 22  1  0
 10 41  1  0
 24 11  1  0
 11 42  1  0
 23 12  1  0
 12 22  2  0
 12 43  1  0
 18 13  1  0
 14 13  1  0
 13 44  1  0
 13 45  1  0
 19 14  1  0
 14 46  1  0
 14 47  1  0
 21 15  1  0
 29 15  1  0
 15 48  1  0
 15 49  1  0
 25 16  1  0
 16 29  1  0
 16 50  1  0
 16 51  1  0
 17 28  1  0
 17 26  2  0
 18 23  1  0
 18 52  1  0
 20 24  1  0
 27 21  1  0
 22 28  1  0
 24 23  2  0
 28 25  1  0
 25 27  2  0
 53 26  1  0
 26 27  1  0
M  END
