
     RDKit          3D

 37 38  0  0  0  0  0  0  0  0999 V2000
   -2.6277   -0.1610   -1.0435 C   0  0  0  0  0  0  0  0  0  0  0  0
   -1.3092    0.2310   -0.3841 C   0  0  1  0  0  0  0  0  0  0  0  0
   -1.5019    1.1882    0.7922 C   0  0  0  0  0  0  0  0  0  0  0  0
   -0.1506    1.5745    1.4112 C   0  0  1  0  0  0  0  0  0  0  0  0
    0.7996    0.3587    1.4518 C   0  0  2  0  0  0  0  0  0  0  0  0
    0.6805   -0.4946    0.1894 C   0  0  2  0  0  0  0  0  0  0  0  0
    0.8497    0.2782   -1.1203 C   0  0  1  0  0  0  0  0  0  0  0  0
    1.2920   -0.6337   -2.2688 C   0  0  1  0  0  0  0  0  0  0  0  0
    1.2175    0.0856   -3.6046 C   0  0  0  0  0  0  0  0  0  0  0  0
    0.5644   -1.2457    4.8699 C   0  0  0  0  0  0  0  0  0  0  0  0
    0.5136   -0.4828    2.5913 N   0  0  0  0  0  0  0  0  0  0  0  0
   -2.9526    0.1852   -2.1455 O   0  0  0  0  0  0  0  0  0  0  0  0
   -3.3582   -0.9006   -0.2304 O   0  0  0  0  0  0  0  0  0  0  0  0
    0.5124    2.5971    0.7068 O   0  0  0  0  0  0  0  0  0  0  0  0
   -0.6689   -0.9319    0.0673 O   0  0  0  0  0  0  0  0  0  0  0  0
   -0.4618    0.7795   -1.3529 O   0  0  0  0  0  0  0  0  0  0  0  0
    2.5816   -1.1330   -1.9993 O   0  0  0  0  0  0  0  0  0  0  0  0
    1.5968   -0.8126   -4.6199 O   0  0  0  0  0  0  0  0  0  0  0  0
    1.8219    0.6331    4.0517 O   0  0  0  0  0  0  0  0  0  0  0  0
   -2.1170    0.6980    1.5498 H   0  0  0  0  0  0  0  0  0  0  0  0
   -2.0492    2.0827    0.4801 H   0  0  0  0  0  0  0  0  0  0  0  0
   -0.3373    1.8914    2.4450 H   0  0  0  0  0  0  0  0  0  0  0  0
    1.8264    0.7217    1.5390 H   0  0  0  0  0  0  0  0  0  0  0  0
    1.3308   -1.3673    0.2551 H   0  0  0  0  0  0  0  0  0  0  0  0
    1.5485    1.1145   -1.0248 H   0  0  0  0  0  0  0  0  0  0  0  0
    0.6317   -1.5075   -2.3019 H   0  0  0  0  0  0  0  0  0  0  0  0
    0.1976    0.4564   -3.7528 H   0  0  0  0  0  0  0  0  0  0  0  0
    1.8788    0.9658   -3.5744 H   0  0  0  0  0  0  0  0  0  0  0  0
    0.9786   -0.9846    5.8405 H   0  0  0  0  0  0  0  0  0  0  0  0
   -0.5239   -1.2475    4.9419 H   0  0  0  0  0  0  0  0  0  0  0  0
    0.8756   -2.2599    4.6166 H   0  0  0  0  0  0  0  0  0  0  0  0
   -0.1884   -1.1989    2.4866 H   0  0  0  0  0  0  0  0  0  0  0  0
   -4.2036   -1.1313   -0.6461 H   0  0  0  0  0  0  0  0  0  0  0  0
   -0.1121    3.3076    0.5316 H   0  0  0  0  0  0  0  0  0  0  0  0
    3.2123   -0.4056   -2.0471 H   0  0  0  0  0  0  0  0  0  0  0  0
    1.5113   -0.3590   -5.4630 H   0  0  0  0  0  0  0  0  0  0  0  0
    1.0309   -0.2687    3.8185 C   0  0  0  0  0  0  0  0  0  0  0  0
  2  1  1  6
  1 12  2  0
  1 13  1  0
  2  3  1  0
  2 15  1  0
  2 16  1  0
  3  4  1  0
  3 20  1  0
  3 21  1  0
  4  5  1  0
  4 14  1  0
  4 22  1  1
  5  6  1  0
  5 11  1  0
  5 23  1  1
  6  7  1  0
  6 15  1  0
  6 24  1  1
  7  8  1  0
  7 16  1  0
  7 25  1  1
  8  9  1  0
  8 17  1  0
  8 26  1  6
  9 18  1  0
  9 27  1  0
  9 28  1  0
 37 10  1  0
 37 11  1  0
 37 19  2  0
 10 29  1  0
 10 30  1  0
 10 31  1  0
 11 32  1  0
 13 33  1  0
 14 34  1  0
 17 35  1  0
 18 36  1  0
M  END
