
     RDKit          3D

 18 18  0  0  0  0  0  0  0  0999 V2000
   -2.7221    0.2823   -0.8524 O   0  0  0  0  0  0  0  0  0  0  0  0
   -1.8284    0.7003   -0.1576 C   0  0  0  0  0  0  0  0  0  0  0  0
   -1.9415    1.7666    0.6148 O   0  0  0  0  0  0  0  0  0  0  0  0
   -0.4909    0.0643   -0.0569 C   0  0  0  0  0  0  0  0  0  0  0  0
    0.7018    0.8935   -0.1213 C   0  0  0  0  0  0  0  0  0  0  0  0
    0.7011    2.1064   -0.2633 O   0  0  0  0  0  0  0  0  0  0  0  0
    1.9533    0.1384   -0.0363 C   0  0  0  0  0  0  0  0  0  0  0  0
    3.0651    0.8815   -0.0820 O   0  0  0  0  0  0  0  0  0  0  0  0
    1.9259   -1.1986    0.0708 C   0  0  0  0  0  0  0  0  0  0  0  0
    0.7719   -1.8942    0.1084 O   0  0  0  0  0  0  0  0  0  0  0  0
   -0.4067   -1.2921    0.0373 C   0  0  0  0  0  0  0  0  0  0  0  0
   -1.5348   -2.2634    0.0843 C   0  0  0  0  0  0  0  0  0  0  0  0
   -2.8241    2.1540    0.5113 H   0  0  0  0  0  0  0  0  0  0  0  0
    3.8539    0.3288   -0.0274 H   0  0  0  0  0  0  0  0  0  0  0  0
    2.7955   -1.8382    0.1388 H   0  0  0  0  0  0  0  0  0  0  0  0
   -1.8926   -2.4790   -0.9230 H   0  0  0  0  0  0  0  0  0  0  0  0
   -1.2057   -3.1969    0.5356 H   0  0  0  0  0  0  0  0  0  0  0  0
   -2.3749   -1.8819    0.6584 H   0  0  0  0  0  0  0  0  0  0  0  0
  8  7  1  0
  6  5  2  0
  7  5  1  0
  7  9  2  0
  5  4  1  0
  9 10  1  0
  4  2  1  0
  4 11  2  0
  1  2  2  0
  2  3  1  0
 10 11  1  0
 11 12  1  0
  3 13  1  0
  8 14  1  0
  9 15  1  0
 12 16  1  0
 12 17  1  0
 12 18  1  0
M  END
