
     RDKit          3D

 28 29  0  0  0  0  0  0  0  0999 V2000
    3.0456    1.2157    0.5458 C   0  0  0  0  0  0  0  0  0  0  0  0
    3.4864   -0.2032    0.8693 C   0  0  1  0  0  0  0  0  0  0  0  0
    2.2552   -1.0620    1.1373 C   0  0  0  0  0  0  0  0  0  0  0  0
    1.2360   -0.9544    0.0141 C   0  0  0  0  0  0  0  0  0  0  0  0
   -1.5527    0.1235   -0.6200 C   0  0  0  0  0  0  0  0  0  0  0  0
   -2.6552   -0.2567   -1.4421 C   0  0  0  0  0  0  0  0  0  0  0  0
   -3.7741   -0.5571   -0.7287 C   0  0  0  0  0  0  0  0  0  0  0  0
   -1.8772    0.0951    0.7032 C   0  0  0  0  0  0  0  0  0  0  0  0
    1.9941    1.2501   -0.5531 C   0  0  0  0  0  0  0  0  0  0  0  0
    0.8474    0.4303   -0.1983 N   0  0  0  0  0  0  0  0  0  0  0  0
    4.2341   -0.6834   -0.2337 O   0  0  0  0  0  0  0  0  0  0  0  0
   -3.5030   -0.3900    0.9550 S   0  0  0  0  0  0  0  0  0  0  0  0
    2.6312    1.6611    1.4539 H   0  0  0  0  0  0  0  0  0  0  0  0
    3.9051    1.8254    0.2559 H   0  0  0  0  0  0  0  0  0  0  0  0
    4.1125   -0.1865    1.7724 H   0  0  0  0  0  0  0  0  0  0  0  0
    2.5422   -2.1081    1.2809 H   0  0  0  0  0  0  0  0  0  0  0  0
    1.7959   -0.7331    2.0739 H   0  0  0  0  0  0  0  0  0  0  0  0
    1.6430   -1.3998   -0.9099 H   0  0  0  0  0  0  0  0  0  0  0  0
    0.3499   -1.5357    0.2764 H   0  0  0  0  0  0  0  0  0  0  0  0
   -0.0081   -0.0068   -2.0934 H   0  0  0  0  0  0  0  0  0  0  0  0
   -0.2937    1.6009   -1.4644 H   0  0  0  0  0  0  0  0  0  0  0  0
   -2.6083   -0.3044   -2.5218 H   0  0  0  0  0  0  0  0  0  0  0  0
   -4.7363   -0.8714   -1.1022 H   0  0  0  0  0  0  0  0  0  0  0  0
   -1.2359    0.3254    1.5399 H   0  0  0  0  0  0  0  0  0  0  0  0
    1.6529    2.2788   -0.6925 H   0  0  0  0  0  0  0  0  0  0  0  0
    2.4397    0.9355   -1.5114 H   0  0  0  0  0  0  0  0  0  0  0  0
    4.4492   -1.6072   -0.0710 H   0  0  0  0  0  0  0  0  0  0  0  0
   -0.2204    0.5504   -1.1650 C   0  0  0  0  0  0  0  0  0  0  0  0
  2 11  1  0
  3  2  1  0
  4  3  1  0
 10  4  1  0
  5 28  1  0
  6  5  1  0
  7  6  2  0
 12  7  1  0
  8 12  1  0
 28 10  1  0
  9 10  1  0
  1  9  1  0
  2  1  1  0
  5  8  2  0
  1 13  1  0
  1 14  1  0
  2 15  1  1
  3 16  1  0
  3 17  1  0
  4 18  1  0
  4 19  1  0
 28 20  1  0
 28 21  1  0
  6 22  1  0
  7 23  1  0
  8 24  1  0
  9 25  1  0
  9 26  1  0
 11 27  1  0
M  END
