
     RDKit          3D

 30 31  0  0  0  0  0  0  0  0999 V2000
   -1.9525   -0.7734    0.0530 C   0  0  0  0  0  0  0  0  0  0  0  0
   -3.2973   -0.5700    0.2415 C   0  0  0  0  0  0  0  0  0  0  0  0
   -4.3305   -1.9607    0.3632 Cl  0  0  0  0  0  0  0  0  0  0  0  0
   -3.8964    0.5926    0.3375 N   0  0  0  0  0  0  0  0  0  0  0  0
   -3.0800    1.6541    0.2320 C   0  0  0  0  0  0  0  0  0  0  0  0
   -3.6532    2.8654    0.3487 N   0  0  0  0  0  0  0  0  0  0  0  0
   -1.7655    1.6128    0.0506 N   0  0  0  0  0  0  0  0  0  0  0  0
   -1.1908    0.4108   -0.0326 C   0  0  0  0  0  0  0  0  0  0  0  0
    0.1405    0.3926   -0.1942 N   0  0  0  0  0  0  0  0  0  0  0  0
    0.9274   -0.8037   -0.4073 C   0  0  0  0  0  0  0  0  0  0  0  0
    2.3909   -0.4967   -0.2529 C   0  0  0  0  0  0  0  0  0  0  0  0
    2.9126   -0.1647    0.9962 C   0  0  0  0  0  0  0  0  0  0  0  0
    4.2573    0.1299    1.1450 C   0  0  0  0  0  0  0  0  0  0  0  0
    5.1257    0.1032    0.0524 C   0  0  0  0  0  0  0  0  0  0  0  0
    6.5875    0.3947    0.2270 C   0  0  0  0  0  0  0  0  0  0  0  0
    4.5986   -0.2238   -1.1925 C   0  0  0  0  0  0  0  0  0  0  0  0
    3.2487   -0.5187   -1.3443 C   0  0  0  0  0  0  0  0  0  0  0  0
   -1.5283   -1.7606   -0.0347 H   0  0  0  0  0  0  0  0  0  0  0  0
   -4.6546    2.9374    0.3049 H   0  0  0  0  0  0  0  0  0  0  0  0
   -3.1206    3.6819    0.1045 H   0  0  0  0  0  0  0  0  0  0  0  0
    0.5797    1.2835   -0.3672 H   0  0  0  0  0  0  0  0  0  0  0  0
    0.6374   -1.5590    0.3275 H   0  0  0  0  0  0  0  0  0  0  0  0
    0.7357   -1.2310   -1.3969 H   0  0  0  0  0  0  0  0  0  0  0  0
    2.2594   -0.1388    1.8608 H   0  0  0  0  0  0  0  0  0  0  0  0
    2.8641   -0.7679   -2.3263 H   0  0  0  0  0  0  0  0  0  0  0  0
    4.6411    0.3848    2.1260 H   0  0  0  0  0  0  0  0  0  0  0  0
    7.1159   -0.4788    0.6147 H   0  0  0  0  0  0  0  0  0  0  0  0
    7.0573    0.6664   -0.7175 H   0  0  0  0  0  0  0  0  0  0  0  0
    6.7518    1.2087    0.9332 H   0  0  0  0  0  0  0  0  0  0  0  0
    5.2483   -0.2456   -2.0595 H   0  0  0  0  0  0  0  0  0  0  0  0
  1  2  2  0
  1  8  1  0
  2  3  1  0
  2  4  1  0
  4  5  2  0
  5  6  1  0
  5  7  1  0
  7  8  2  0
  8  9  1  0
  9 10  1  0
 10 11  1  0
 11 12  2  0
 11 17  1  0
 12 13  1  0
 13 14  2  0
 14 15  1  0
 14 16  1  0
 16 17  2  0
  1 18  1  0
  6 19  1  0
  6 20  1  0
  9 21  1  0
 10 22  1  0
 10 23  1  0
 12 24  1  0
 17 25  1  0
 13 26  1  0
 15 27  1  0
 15 28  1  0
 15 29  1  0
 16 30  1  0
M  END
