
     RDKit          3D

 40 42  0  0  0  0  0  0  0  0999 V2000
    0.2083   -2.4202   -0.2140 C   0  0  0  0  0  0  0  0  0  0  0  0
    2.8005   -1.7978   -0.1778 C   0  0  0  0  0  0  0  0  0  0  0  0
    1.0482   -0.1920   -0.6995 N   0  0  0  0  0  0  0  0  0  0  0  0
    2.3653   -0.4734   -0.3106 C   0  0  0  0  0  0  0  0  0  0  0  0
   -2.3121   -1.4243    0.2371 C   0  0  0  0  0  0  0  0  0  0  0  0
   -2.1007   -2.7820    0.3899 C   0  0  0  0  0  0  0  0  0  0  0  0
   -0.8190   -3.2659    0.1692 C   0  0  0  0  0  0  0  0  0  0  0  0
    4.0866   -2.0975    0.2446 C   0  0  0  0  0  0  0  0  0  0  0  0
    4.9984   -1.0813    0.4918 C   0  0  0  0  0  0  0  0  0  0  0  0
    4.5971    0.2331    0.3230 C   0  0  0  0  0  0  0  0  0  0  0  0
    0.7398    1.1502   -1.1716 C   0  0  0  0  0  0  0  0  0  0  0  0
    0.4897    2.2201   -0.1015 C   0  0  0  0  0  0  0  0  0  0  0  0
    0.6361    3.6039   -0.7214 C   0  0  0  0  0  0  0  0  0  0  0  0
    1.0895    4.8185    1.3095 C   0  0  0  0  0  0  0  0  0  0  0  0
    0.1258    5.9294   -0.5642 C   0  0  0  0  0  0  0  0  0  0  0  0
    0.2239    4.6790    0.1579 N   0  0  0  0  0  0  0  0  0  0  0  0
    0.0012   -1.0393   -0.3369 C   0  0  0  0  0  0  0  0  0  0  0  0
   -1.2866   -0.5529   -0.1008 C   0  0  0  0  0  0  0  0  0  0  0  0
    1.7489   -3.1073   -0.7013 S   0  0  0  0  0  0  0  0  0  0  0  0
    3.2966    0.5368   -0.0572 C   0  0  0  0  0  0  0  0  0  0  0  0
   -2.8982   -3.4583    0.6636 H   0  0  0  0  0  0  0  0  0  0  0  0
   -0.6273   -4.3264    0.2710 H   0  0  0  0  0  0  0  0  0  0  0  0
    4.3802   -3.1337    0.3557 H   0  0  0  0  0  0  0  0  0  0  0  0
    6.0060   -1.3197    0.8034 H   0  0  0  0  0  0  0  0  0  0  0  0
    5.2916    1.0436    0.4995 H   0  0  0  0  0  0  0  0  0  0  0  0
    1.5693    1.4607   -1.8106 H   0  0  0  0  0  0  0  0  0  0  0  0
   -0.1250    1.0790   -1.8340 H   0  0  0  0  0  0  0  0  0  0  0  0
   -0.5137    2.1333    0.3199 H   0  0  0  0  0  0  0  0  0  0  0  0
    1.1793    2.0884    0.7334 H   0  0  0  0  0  0  0  0  0  0  0  0
    1.6768    3.7375   -1.0722 H   0  0  0  0  0  0  0  0  0  0  0  0
    0.0058    3.6465   -1.6154 H   0  0  0  0  0  0  0  0  0  0  0  0
    0.7371    5.6382    1.9369 H   0  0  0  0  0  0  0  0  0  0  0  0
    1.0780    3.9169    1.9215 H   0  0  0  0  0  0  0  0  0  0  0  0
    2.1369    5.0301    1.0396 H   0  0  0  0  0  0  0  0  0  0  0  0
    1.0881    6.2753   -0.9735 H   0  0  0  0  0  0  0  0  0  0  0  0
   -0.5719    5.8275   -1.3968 H   0  0  0  0  0  0  0  0  0  0  0  0
   -0.2539    6.7122    0.0943 H   0  0  0  0  0  0  0  0  0  0  0  0
   -1.4979    0.5018   -0.1812 H   0  0  0  0  0  0  0  0  0  0  0  0
    3.0329    1.5790   -0.1585 H   0  0  0  0  0  0  0  0  0  0  0  0
   -4.0415   -0.7194    0.5180 Br  0  0  0  0  0  0  0  0  0  0  0  0
 15 16  1  0
 14 16  1  0
 16 13  1  0
 13 12  1  0
 12 11  1  0
 11  3  1  0
 20 10  2  0
 20  4  1  0
 10  9  1  0
  3  4  1  0
  3 17  1  0
  4  2  2  0
  9  8  2  0
  2  8  1  0
  2 19  1  0
 19  1  1  0
 17  1  2  0
 17 18  1  0
  1  7  1  0
 18  5  2  0
  7  6  2  0
  5  6  1  0
  6 21  1  0
  7 22  1  0
  8 23  1  0
  9 24  1  0
 10 25  1  0
 11 26  1  0
 11 27  1  0
 12 28  1  0
 12 29  1  0
 13 30  1  0
 13 31  1  0
 14 32  1  0
 14 33  1  0
 14 34  1  0
 15 35  1  0
 15 36  1  0
 15 37  1  0
 18 38  1  0
 20 39  1  0
  5 40  1  0
M  END
