
     RDKit          3D

 22 21  0  0  0  0  0  0  0  0999 V2000
   -0.0256    1.7374   -0.2873 C   0  0  0  0  0  0  0  0  0  0  0  0
   -0.0204    0.3046    0.2415 C   0  0  1  0  0  0  0  0  0  0  0  0
   -1.2717   -0.4651   -0.1873 C   0  0  0  0  0  0  0  0  0  0  0  0
   -2.5645    0.1043    0.3664 C   0  0  0  0  0  0  0  0  0  0  0  0
   -3.6227   -0.7695    0.0276 O   0  0  0  0  0  0  0  0  0  0  0  0
    1.2287   -0.4619   -0.2003 C   0  0  0  0  0  0  0  0  0  0  0  0
    2.5228    0.0913    0.3669 C   0  0  0  0  0  0  0  0  0  0  0  0
    3.5797   -0.7737    0.0025 O   0  0  0  0  0  0  0  0  0  0  0  0
   -0.0490    1.7455   -1.3800 H   0  0  0  0  0  0  0  0  0  0  0  0
   -0.8910    2.2991    0.0654 H   0  0  0  0  0  0  0  0  0  0  0  0
    0.8587    2.2920    0.0274 H   0  0  0  0  0  0  0  0  0  0  0  0
   -0.0153    0.3420    1.3389 H   0  0  0  0  0  0  0  0  0  0  0  0
   -1.3229   -0.4971   -1.2815 H   0  0  0  0  0  0  0  0  0  0  0  0
   -1.1782   -1.5016    0.1523 H   0  0  0  0  0  0  0  0  0  0  0  0
   -2.4707    0.2144    1.4561 H   0  0  0  0  0  0  0  0  0  0  0  0
   -2.7435    1.1077   -0.0376 H   0  0  0  0  0  0  0  0  0  0  0  0
   -4.4413   -0.3905    0.3599 H   0  0  0  0  0  0  0  0  0  0  0  0
    1.1308   -1.5044    0.1193 H   0  0  0  0  0  0  0  0  0  0  0  0
    1.2814   -0.4727   -1.2948 H   0  0  0  0  0  0  0  0  0  0  0  0
    2.7022    1.1058   -0.0087 H   0  0  0  0  0  0  0  0  0  0  0  0
    2.4302    0.1702    1.4592 H   0  0  0  0  0  0  0  0  0  0  0  0
    4.3986   -0.4086    0.3494 H   0  0  0  0  0  0  0  0  0  0  0  0
  8  7  1  0
  7  6  1  0
  6  2  1  0
  1  2  1  0
  2  3  1  0
  3  4  1  0
  4  5  1  0
  1  9  1  0
  1 10  1  0
  1 11  1  0
  2 12  1  1
  3 13  1  0
  3 14  1  0
  4 15  1  0
  4 16  1  0
  5 17  1  0
  6 18  1  0
  6 19  1  0
  7 20  1  0
  7 21  1  0
  8 22  1  0
M  END
