
     RDKit          3D

 40 42  0  0  0  0  0  0  0  0999 V2000
   -7.8925   -2.1858   -0.5829 N   0  0  0  0  0  0  0  0  0  0  0  0
   -6.7770   -1.9600   -0.4078 C   0  0  0  0  0  0  0  0  0  0  0  0
   -5.3947   -1.6638   -0.1984 C   0  0  0  0  0  0  0  0  0  0  0  0
   -4.6546   -2.5778    0.4391 N   0  0  0  0  0  0  0  0  0  0  0  0
   -3.3954   -2.2975    0.6292 C   0  0  0  0  0  0  0  0  0  0  0  0
   -4.8471   -0.4731   -0.6435 C   0  0  0  0  0  0  0  0  0  0  0  0
   -3.5682   -0.1847   -0.4569 N   0  0  0  0  0  0  0  0  0  0  0  0
   -2.8327   -1.0774    0.1792 C   0  0  0  0  0  0  0  0  0  0  0  0
   -1.5023   -0.8723    0.4139 N   0  0  0  0  0  0  0  0  0  0  0  0
   -0.7689    0.2864    0.1932 C   0  0  0  0  0  0  0  0  0  0  0  0
   -1.2516    1.3331   -0.1711 O   0  0  0  0  0  0  0  0  0  0  0  0
    0.5569    0.0961    0.4563 N   0  0  0  0  0  0  0  0  0  0  0  0
    1.5454    1.0711    0.2854 C   0  0  0  0  0  0  0  0  0  0  0  0
    1.3529    2.3977    0.6419 C   0  0  0  0  0  0  0  0  0  0  0  0
    2.3775    3.3124    0.4507 C   0  0  0  0  0  0  0  0  0  0  0  0
    2.1159    4.9700    0.8925 Cl  0  0  0  0  0  0  0  0  0  0  0  0
    2.7852    0.6595   -0.2368 C   0  0  0  0  0  0  0  0  0  0  0  0
    3.7993    1.5932   -0.4033 C   0  0  0  0  0  0  0  0  0  0  0  0
    3.5965    2.9262   -0.0702 C   0  0  0  0  0  0  0  0  0  0  0  0
    2.8735   -0.6462   -0.5458 O   0  0  0  0  0  0  0  0  0  0  0  0
    4.1306   -1.2131   -0.9262 C   0  0  1  0  0  0  0  0  0  0  0  0
    5.0503   -1.3705    0.2864 C   0  0  0  0  0  0  0  0  0  0  0  0
    4.5362   -2.5172    1.0180 N   0  0  0  0  0  0  0  0  0  0  0  0
    4.0837   -3.4641   -0.0046 C   0  0  0  0  0  0  0  0  0  0  0  0
    3.8675   -2.6624   -1.3135 C   0  0  0  0  0  0  0  0  0  0  0  0
   -2.7872   -3.0307    1.1477 H   0  0  0  0  0  0  0  0  0  0  0  0
   -5.4512    0.2598   -1.1646 H   0  0  0  0  0  0  0  0  0  0  0  0
   -1.0211   -1.6519    0.8381 H   0  0  0  0  0  0  0  0  0  0  0  0
    0.8931   -0.8484    0.5727 H   0  0  0  0  0  0  0  0  0  0  0  0
    0.4176    2.7175    1.0751 H   0  0  0  0  0  0  0  0  0  0  0  0
    4.7602    1.3067   -0.8064 H   0  0  0  0  0  0  0  0  0  0  0  0
    4.3919    3.6435   -0.2159 H   0  0  0  0  0  0  0  0  0  0  0  0
    4.5687   -0.6353   -1.7444 H   0  0  0  0  0  0  0  0  0  0  0  0
    6.0618   -1.5789   -0.0765 H   0  0  0  0  0  0  0  0  0  0  0  0
    5.1113   -0.4891    0.9257 H   0  0  0  0  0  0  0  0  0  0  0  0
    3.7387   -2.2168    1.5630 H   0  0  0  0  0  0  0  0  0  0  0  0
    4.8441   -4.2319   -0.1626 H   0  0  0  0  0  0  0  0  0  0  0  0
    3.1799   -3.9731    0.3288 H   0  0  0  0  0  0  0  0  0  0  0  0
    2.8734   -2.7930   -1.7414 H   0  0  0  0  0  0  0  0  0  0  0  0
    4.5874   -2.9622   -2.0757 H   0  0  0  0  0  0  0  0  0  0  0  0
 16 15  1  0
 11 10  2  0
 14 15  2  0
 14 13  1  0
 15 19  1  0
 10 12  1  0
 10  9  1  0
 12 13  1  0
 19 18  2  0
 13 17  2  0
  9  8  1  0
 18 17  1  0
 17 20  1  0
  8  7  2  0
  8  5  1  0
  7  6  1  0
  5  4  2  0
 20 21  1  0
  6  3  2  0
  4  3  1  0
  3  2  1  0
 25 21  1  0
 25 24  1  0
 21 22  1  0
  2  1  3  0
 24 23  1  0
 22 23  1  0
  5 26  1  0
  6 27  1  0
  9 28  1  0
 12 29  1  0
 14 30  1  0
 18 31  1  0
 19 32  1  0
 21 33  1  6
 22 34  1  0
 22 35  1  0
 23 36  1  0
 24 37  1  0
 24 38  1  0
 25 39  1  0
 25 40  1  0
M  END
