
     RDKit          3D

 24 25  0  0  0  0  0  0  0  0999 V2000
   -0.1082   -2.7754    0.5522 N   0  0  0  0  0  0  0  0  0  0  0  0
   -2.4447   -0.6625   -0.1949 C   0  0  0  0  0  0  0  0  0  0  0  0
    1.0239    0.5760    0.0781 N   0  0  0  0  0  0  0  0  0  0  0  0
   -3.1568    0.4828    0.1253 C   0  0  0  0  0  0  0  0  0  0  0  0
   -2.4779    1.6565    0.4226 C   0  0  0  0  0  0  0  0  0  0  0  0
   -1.0930    1.6667    0.4112 C   0  0  0  0  0  0  0  0  0  0  0  0
   -0.3904    0.5118    0.0845 C   0  0  0  0  0  0  0  0  0  0  0  0
    1.7886    1.4809   -0.5713 C   0  0  0  0  0  0  0  0  0  0  0  0
   -0.3308   -1.9400   -0.6210 C   0  0  0  0  0  0  0  0  0  0  0  0
    3.0935    1.1957   -0.2550 C   0  0  0  0  0  0  0  0  0  0  0  0
    3.0074    0.0880    0.6059 C   0  0  0  0  0  0  0  0  0  0  0  0
   -1.0524   -0.6729   -0.2411 C   0  0  0  0  0  0  0  0  0  0  0  0
    1.7552   -0.2740    0.8033 N   0  0  0  0  0  0  0  0  0  0  0  0
   -4.2383    0.4603    0.1391 H   0  0  0  0  0  0  0  0  0  0  0  0
   -3.0205    2.5574    0.6758 H   0  0  0  0  0  0  0  0  0  0  0  0
   -2.9795   -1.5721   -0.4407 H   0  0  0  0  0  0  0  0  0  0  0  0
   -0.5532    2.5683    0.6714 H   0  0  0  0  0  0  0  0  0  0  0  0
    3.9775    1.7083   -0.5948 H   0  0  0  0  0  0  0  0  0  0  0  0
    3.8090   -0.4502    1.0884 H   0  0  0  0  0  0  0  0  0  0  0  0
    1.3548    2.2342   -1.2088 H   0  0  0  0  0  0  0  0  0  0  0  0
    0.5842   -1.6939   -1.1726 H   0  0  0  0  0  0  0  0  0  0  0  0
   -0.9674   -2.4933   -1.3140 H   0  0  0  0  0  0  0  0  0  0  0  0
    0.2942   -3.6550    0.2521 H   0  0  0  0  0  0  0  0  0  0  0  0
    0.5980   -2.3259    1.1237 H   0  0  0  0  0  0  0  0  0  0  0  0
  4  5  1  0
  4  2  2  0
  5  6  2  0
  2 12  1  0
  6  7  1  0
 10 11  1  0
 10  8  2  0
 11 13  2  0
  8  3  1  0
 12  7  2  0
 12  9  1  0
  7  3  1  0
  9  1  1  0
 13  3  1  0
  4 14  1  0
  5 15  1  0
  2 16  1  0
  6 17  1  0
 10 18  1  0
 11 19  1  0
  8 20  1  0
  9 21  1  0
  9 22  1  0
  1 23  1  0
  1 24  1  0
M  END
