
     RDKit          3D

 62 65  0  0  0  0  0  0  0  0999 V2000
   -2.9550    1.2737   -0.5640 N   0  0  0  0  0  0  0  0  0  0  0  0
   -1.9092    2.1171   -0.9565 C   0  0  0  0  0  0  0  0  0  0  0  0
   -0.8436    2.2432   -0.0632 C   0  0  0  0  0  0  0  0  0  0  0  0
    0.2460    3.0486   -0.3535 C   0  0  0  0  0  0  0  0  0  0  0  0
    0.2824    3.7415   -1.5594 C   0  0  0  0  0  0  0  0  0  0  0  0
   -0.7713    3.6163   -2.4496 C   0  0  0  0  0  0  0  0  0  0  0  0
   -1.8674    2.8122   -2.1649 C   0  0  0  0  0  0  0  0  0  0  0  0
    1.3870    3.1422    0.6139 C   0  0  0  0  0  0  0  0  0  0  0  0
    2.3503    2.1754    0.2195 O   0  0  0  0  0  0  0  0  0  0  0  0
    3.4672    2.0367    0.9631 C   0  0  0  0  0  0  0  0  0  0  0  0
    3.7681    2.8182    2.0730 C   0  0  0  0  0  0  0  0  0  0  0  0
    4.9571    2.5749    2.7524 C   0  0  0  0  0  0  0  0  0  0  0  0
    5.8299    1.5862    2.3481 C   0  0  0  0  0  0  0  0  0  0  0  0
    5.5212    0.8017    1.2292 C   0  0  0  0  0  0  0  0  0  0  0  0
    4.3368    1.0288    0.5390 C   0  0  0  0  0  0  0  0  0  0  0  0
    6.4487   -0.1846    0.8884 N   0  0  0  0  0  0  0  0  0  0  0  0
    6.4746   -1.0128   -0.1906 C   0  0  0  0  0  0  0  0  0  0  0  0
    5.6179   -1.0259   -1.0608 O   0  0  0  0  0  0  0  0  0  0  0  0
    7.6300   -1.9145   -0.2430 C   0  0  0  0  0  0  0  0  0  0  0  0
    8.7566   -2.0517    0.5945 C   0  0  0  0  0  0  0  0  0  0  0  0
    9.5578   -3.0002    0.1618 N   0  0  0  0  0  0  0  0  0  0  0  0
    8.9800   -3.4807   -0.9402 N   0  0  0  0  0  0  0  0  0  0  0  0
    7.8313   -2.8662   -1.2266 C   0  0  0  0  0  0  0  0  0  0  0  0
    9.6182   -4.5445   -1.6795 C   0  0  0  0  0  0  0  0  0  0  0  0
   -4.1632    1.0844   -1.1418 C   0  0  0  0  0  0  0  0  0  0  0  0
   -4.5583    1.6569   -2.1395 O   0  0  0  0  0  0  0  0  0  0  0  0
   -5.0070    0.0478   -0.4289 C   0  0  0  0  0  0  0  0  0  0  0  0
   -6.7038    0.2234   -1.0229 S   0  0  0  0  0  0  0  0  0  0  0  0
   -7.5214   -1.0182   -0.0880 C   0  0  0  0  0  0  0  0  0  0  0  0
   -8.8196   -1.0875   -0.3529 N   0  0  0  0  0  0  0  0  0  0  0  0
   -9.5148   -2.0042    0.3121 C   0  0  0  0  0  0  0  0  0  0  0  0
   -8.8926   -2.8350    1.2398 C   0  0  0  0  0  0  0  0  0  0  0  0
   -7.5307   -2.6816    1.4396 C   0  0  0  0  0  0  0  0  0  0  0  0
   -6.8409   -1.7575    0.7642 N   0  0  0  0  0  0  0  0  0  0  0  0
   -6.7656   -3.5389    2.3931 C   0  0  0  0  0  0  0  0  0  0  0  0
  -10.9720   -2.1250    0.0089 C   0  0  0  0  0  0  0  0  0  0  0  0
   -2.7850    0.7606    0.2885 H   0  0  0  0  0  0  0  0  0  0  0  0
   -0.8702    1.7057    0.8789 H   0  0  0  0  0  0  0  0  0  0  0  0
    1.1255    4.3784   -1.7972 H   0  0  0  0  0  0  0  0  0  0  0  0
   -0.7496    4.1539   -3.3886 H   0  0  0  0  0  0  0  0  0  0  0  0
   -2.6689    2.7372   -2.8803 H   0  0  0  0  0  0  0  0  0  0  0  0
    1.8218    4.1470    0.5920 H   0  0  0  0  0  0  0  0  0  0  0  0
    1.0434    2.9478    1.6353 H   0  0  0  0  0  0  0  0  0  0  0  0
    3.1110    3.6033    2.4195 H   0  0  0  0  0  0  0  0  0  0  0  0
    5.2021    3.1756    3.6186 H   0  0  0  0  0  0  0  0  0  0  0  0
    6.7520    1.4199    2.8915 H   0  0  0  0  0  0  0  0  0  0  0  0
    4.0682    0.4404   -0.3234 H   0  0  0  0  0  0  0  0  0  0  0  0
    7.2188   -0.2627    1.5340 H   0  0  0  0  0  0  0  0  0  0  0  0
    9.0169   -1.5026    1.4881 H   0  0  0  0  0  0  0  0  0  0  0  0
    7.2292   -3.1426   -2.0768 H   0  0  0  0  0  0  0  0  0  0  0  0
    9.7358   -5.4215   -1.0470 H   0  0  0  0  0  0  0  0  0  0  0  0
    8.9984   -4.8040   -2.5323 H   0  0  0  0  0  0  0  0  0  0  0  0
   10.5947   -4.2215   -2.0334 H   0  0  0  0  0  0  0  0  0  0  0  0
   -4.6291   -0.9497   -0.6633 H   0  0  0  0  0  0  0  0  0  0  0  0
   -4.9625    0.1690    0.6535 H   0  0  0  0  0  0  0  0  0  0  0  0
   -9.4588   -3.5765    1.7861 H   0  0  0  0  0  0  0  0  0  0  0  0
   -6.1456   -4.2475    1.8406 H   0  0  0  0  0  0  0  0  0  0  0  0
   -6.0983   -2.9334    3.0053 H   0  0  0  0  0  0  0  0  0  0  0  0
   -7.4272   -4.1054    3.0446 H   0  0  0  0  0  0  0  0  0  0  0  0
  -11.1204   -2.8224   -0.8184 H   0  0  0  0  0  0  0  0  0  0  0  0
  -11.5268   -2.5082    0.8634 H   0  0  0  0  0  0  0  0  0  0  0  0
  -11.3905   -1.1657   -0.2892 H   0  0  0  0  0  0  0  0  0  0  0  0
 12 13  1  0
 12 11  2  0
 13 14  2  0
 11 10  1  0
  6  5  2  0
  6  7  1  0
  5  4  1  0
 14 16  1  0
 14 15  1  0
 10 15  2  0
 10  9  1  0
 16 17  1  0
  7  2  2  0
 20 21  2  0
 20 19  1  0
 21 22  1  0
  9  8  1  0
 35 33  1  0
  4  8  1  0
  4  3  2  0
 19 17  1  0
 19 23  2  0
 17 18  2  0
  2  3  1  0
  2  1  1  0
 22 23  1  0
 22 24  1  0
 33 32  2  0
 33 34  1  0
 32 31  1  0
  1 25  1  0
 34 29  2  0
 31 36  1  0
 31 30  2  0
 25 26  2  0
 25 27  1  0
 29 30  1  0
 29 28  1  0
 27 28  1  0
  1 37  1  0
  3 38  1  0
  5 39  1  0
  6 40  1  0
  7 41  1  0
  8 42  1  0
  8 43  1  0
 11 44  1  0
 12 45  1  0
 13 46  1  0
 15 47  1  0
 16 48  1  0
 20 49  1  0
 23 50  1  0
 24 51  1  0
 24 52  1  0
 24 53  1  0
 27 54  1  0
 27 55  1  0
 32 56  1  0
 35 57  1  0
 35 58  1  0
 35 59  1  0
 36 60  1  0
 36 61  1  0
 36 62  1  0
M  END
