
     RDKit          3D

 28 29  0  0  0  0  0  0  0  0999 V2000
    6.2497    2.1568    0.0993 O   0  0  0  0  0  0  0  0  0  0  0  0
    5.6074   -2.5261   -0.0454 O   0  0  0  0  0  0  0  0  0  0  0  0
    0.7857   -0.5440    0.0305 C   0  0  0  0  0  0  0  0  0  0  0  0
    1.7388    0.3936   -0.0450 C   0  0  0  0  0  0  0  0  0  0  0  0
   -2.8936   -1.2490    0.1482 C   0  0  0  0  0  0  0  0  0  0  0  0
   -2.6027    1.1238   -0.1817 C   0  0  0  0  0  0  0  0  0  0  0  0
   -1.5157   -1.4009    0.1600 C   0  0  0  0  0  0  0  0  0  0  0  0
   -1.2302    0.9536   -0.1671 C   0  0  0  0  0  0  0  0  0  0  0  0
    5.9583   -0.1604    0.0324 C   0  0  0  0  0  0  0  0  0  0  0  0
    4.0196    1.2769    0.0235 C   0  0  0  0  0  0  0  0  0  0  0  0
    3.7388   -1.1193   -0.0454 C   0  0  0  0  0  0  0  0  0  0  0  0
    5.4004    1.1131    0.0528 C   0  0  0  0  0  0  0  0  0  0  0  0
    5.1203   -1.2707   -0.0181 C   0  0  0  0  0  0  0  0  0  0  0  0
   -3.4289    0.0177   -0.0232 C   0  0  0  0  0  0  0  0  0  0  0  0
   -0.6560   -0.3107    0.0057 C   0  0  0  0  0  0  0  0  0  0  0  0
    3.1828    0.1596   -0.0214 C   0  0  0  0  0  0  0  0  0  0  0  0
    5.7603    2.9869    0.1084 H   0  0  0  0  0  0  0  0  0  0  0  0
    6.5710   -2.5167   -0.0280 H   0  0  0  0  0  0  0  0  0  0  0  0
    1.0723   -1.5861    0.1287 H   0  0  0  0  0  0  0  0  0  0  0  0
    1.4520    1.4373   -0.1237 H   0  0  0  0  0  0  0  0  0  0  0  0
   -3.5304   -2.1145    0.2726 H   0  0  0  0  0  0  0  0  0  0  0  0
   -3.0169    2.1138   -0.3186 H   0  0  0  0  0  0  0  0  0  0  0  0
   -1.1026   -2.3930    0.2959 H   0  0  0  0  0  0  0  0  0  0  0  0
   -0.6064    1.8288   -0.2963 H   0  0  0  0  0  0  0  0  0  0  0  0
    7.0361   -0.2765    0.0514 H   0  0  0  0  0  0  0  0  0  0  0  0
    3.5894    2.2726    0.0398 H   0  0  0  0  0  0  0  0  0  0  0  0
    3.1144   -2.0023   -0.0924 H   0  0  0  0  0  0  0  0  0  0  0  0
   -5.3019    0.2458   -0.0420 Br  0  0  0  0  0  0  0  0  0  0  0  0
  1 12  1  0
  2 13  1  0
 28 14  1  0
  3  4  2  0
  3 15  1  0
  4 16  1  0
  5  7  2  0
  5 14  1  0
  6  8  1  0
  6 14  2  0
  7 15  1  0
  8 15  2  0
  9 12  2  0
  9 13  1  0
 10 12  1  0
 10 16  2  0
 11 13  2  0
 11 16  1  0
  1 17  1  0
  2 18  1  0
  3 19  1  0
  4 20  1  0
  5 21  1  0
  6 22  1  0
  7 23  1  0
  8 24  1  0
  9 25  1  0
 10 26  1  0
 11 27  1  0
M  END
