
     RDKit          3D

 64 68  0  0  0  0  0  0  0  0999 V2000
   -1.7402   -3.8664   -0.0913 C   0  0  0  0  0  0  0  0  0  0  0  0
   -0.3580   -3.8168   -0.3231 C   0  0  0  0  0  0  0  0  0  0  0  0
   -1.0738   -5.8725   -0.7912 C   0  0  0  0  0  0  0  0  0  0  0  0
   -4.7919   -0.0418    2.8934 C   0  0  0  0  0  0  0  0  0  0  0  0
   -5.2984    0.6231    0.6386 C   0  0  0  0  0  0  0  0  0  0  0  0
   -7.2818    4.7217   -1.4357 C   0  0  0  0  0  0  0  0  0  0  0  0
    2.8060   -1.0281   -0.0847 C   0  0  0  0  0  0  0  0  0  0  0  0
    4.4504    0.7725    0.0010 C   0  0  0  0  0  0  0  0  0  0  0  0
    2.1185    1.1750    0.5291 C   0  0  0  0  0  0  0  0  0  0  0  0
   -0.2153   -1.6821    0.2641 C   0  0  0  0  0  0  0  0  0  0  0  0
   -1.5373   -1.5951    0.5306 N   0  0  0  0  0  0  0  0  0  0  0  0
   -2.2744   -2.6572    0.3580 C   0  0  0  0  0  0  0  0  0  0  0  0
    0.4289   -2.7537   -0.1573 N   0  0  0  0  0  0  0  0  0  0  0  0
    0.0244   -5.0408   -0.7447 N   0  0  0  0  0  0  0  0  0  0  0  0
   -2.1832   -5.1892   -0.3962 C   0  0  0  0  0  0  0  0  0  0  0  0
   -3.5887   -2.6080    0.6108 O   0  0  0  0  0  0  0  0  0  0  0  0
   -4.1325   -1.4317    1.0871 C   0  0  0  0  0  0  0  0  0  0  0  0
   -4.1754   -1.2011    2.4510 C   0  0  0  0  0  0  0  0  0  0  0  0
   -5.3509    0.8732    2.0114 C   0  0  0  0  0  0  0  0  0  0  0  0
   -4.6795   -0.5443    0.1838 C   0  0  0  0  0  0  0  0  0  0  0  0
   -6.4499    2.6692   -0.2073 C   0  0  0  0  0  0  0  0  0  0  0  0
   -6.9188    3.2506   -1.5249 C   0  0  0  0  0  0  0  0  0  0  0  0
   -6.6327    3.2217    0.8607 O   0  0  0  0  0  0  0  0  0  0  0  0
    0.4446   -0.5107    0.4739 N   0  0  0  0  0  0  0  0  0  0  0  0
    1.7806   -0.1585    0.2971 C   0  0  0  0  0  0  0  0  0  0  0  0
    4.1040   -0.5646   -0.2200 C   0  0  0  0  0  0  0  0  0  0  0  0
    3.4162    1.6341    0.3773 C   0  0  0  0  0  0  0  0  0  0  0  0
    5.7821    1.1886   -0.1265 N   0  0  0  0  0  0  0  0  0  0  0  0
    6.0979    2.5397    0.2893 C   0  0  0  0  0  0  0  0  0  0  0  0
    7.6005    2.7310    0.3774 C   0  0  0  0  0  0  0  0  0  0  0  0
    8.2394    2.4269   -0.8851 N   0  0  0  0  0  0  0  0  0  0  0  0
    7.9410    1.0636   -1.2686 C   0  0  0  0  0  0  0  0  0  0  0  0
    6.4447    0.8524   -1.3797 C   0  0  0  0  0  0  0  0  0  0  0  0
    9.6624    2.6724   -0.8385 C   0  0  0  0  0  0  0  0  0  0  0  0
   -0.9672   -6.8965   -1.1082 H   0  0  0  0  0  0  0  0  0  0  0  0
   -4.8412    0.1620    3.9550 H   0  0  0  0  0  0  0  0  0  0  0  0
   -8.0836    4.8968   -0.7204 H   0  0  0  0  0  0  0  0  0  0  0  0
   -6.4265    5.3274   -1.1371 H   0  0  0  0  0  0  0  0  0  0  0  0
   -7.6190    5.0802   -2.4073 H   0  0  0  0  0  0  0  0  0  0  0  0
    2.6000   -2.0702   -0.2661 H   0  0  0  0  0  0  0  0  0  0  0  0
    1.3484    1.8804    0.8218 H   0  0  0  0  0  0  0  0  0  0  0  0
    0.9658   -5.3072   -0.9832 H   0  0  0  0  0  0  0  0  0  0  0  0
   -3.1849   -5.5817   -0.3342 H   0  0  0  0  0  0  0  0  0  0  0  0
   -3.7447   -1.9088    3.1470 H   0  0  0  0  0  0  0  0  0  0  0  0
   -5.8199    1.7627    2.3957 H   0  0  0  0  0  0  0  0  0  0  0  0
   -4.6297   -0.7604   -0.8772 H   0  0  0  0  0  0  0  0  0  0  0  0
   -5.7236    1.1292   -1.2862 H   0  0  0  0  0  0  0  0  0  0  0  0
   -7.7847    2.6659   -1.8525 H   0  0  0  0  0  0  0  0  0  0  0  0
   -6.1504    3.0930   -2.2861 H   0  0  0  0  0  0  0  0  0  0  0  0
   -0.1619    0.2338    0.7817 H   0  0  0  0  0  0  0  0  0  0  0  0
    4.8689   -1.2821   -0.4903 H   0  0  0  0  0  0  0  0  0  0  0  0
    3.6008    2.6848    0.5526 H   0  0  0  0  0  0  0  0  0  0  0  0
    5.6768    3.2909   -0.3976 H   0  0  0  0  0  0  0  0  0  0  0  0
    5.6714    2.7259    1.2765 H   0  0  0  0  0  0  0  0  0  0  0  0
    7.8032    3.7714    0.6426 H   0  0  0  0  0  0  0  0  0  0  0  0
    7.9972    2.1055    1.1965 H   0  0  0  0  0  0  0  0  0  0  0  0
    8.3967    0.8534   -2.2391 H   0  0  0  0  0  0  0  0  0  0  0  0
    8.3575    0.3361   -0.5497 H   0  0  0  0  0  0  0  0  0  0  0  0
    6.2630   -0.1902   -1.6337 H   0  0  0  0  0  0  0  0  0  0  0  0
    6.0496    1.4630   -2.2061 H   0  0  0  0  0  0  0  0  0  0  0  0
   10.1860    2.0445   -0.1006 H   0  0  0  0  0  0  0  0  0  0  0  0
   10.1073    2.4796   -1.8159 H   0  0  0  0  0  0  0  0  0  0  0  0
    9.8529    3.7155   -0.5822 H   0  0  0  0  0  0  0  0  0  0  0  0
   -5.8252    1.4661   -0.3406 N   0  0  0  0  0  0  0  0  0  0  0  0
 14  3  1  0
 14  2  1  0
  3 15  2  0
 13  2  2  0
 13 10  1  0
  2  1  1  0
 18  4  2  0
 18 17  1  0
 15  1  1  0
 24 10  1  0
 24 25  1  0
 10 11  2  0
  1 12  2  0
  9 25  1  0
  9 27  2  0
 11 12  1  0
 25  7  2  0
 12 16  1  0
 27  8  1  0
  4 19  1  0
 16 17  1  0
  7 26  1  0
  8 26  2  0
  8 28  1  0
 17 20  2  0
 28 29  1  0
 28 33  1  0
 29 30  1  0
 30 31  1  0
 19  5  2  0
 33 32  1  0
 31 32  1  0
 31 34  1  0
 20  5  1  0
  5 64  1  0
 64 21  1  0
 23 21  2  0
 21 22  1  0
 22  6  1  0
  3 35  1  0
  4 36  1  0
  6 37  1  0
  6 38  1  0
  6 39  1  0
  7 40  1  0
  9 41  1  0
 14 42  1  0
 15 43  1  0
 18 44  1  0
 19 45  1  0
 20 46  1  0
 64 47  1  0
 22 48  1  0
 22 49  1  0
 24 50  1  0
 26 51  1  0
 27 52  1  0
 29 53  1  0
 29 54  1  0
 30 55  1  0
 30 56  1  0
 32 57  1  0
 32 58  1  0
 33 59  1  0
 33 60  1  0
 34 61  1  0
 34 62  1  0
 34 63  1  0
M  END
