
     RDKit          3D

 40 40  0  0  0  0  0  0  0  0999 V2000
    3.1369   -2.1684    0.9501 O   0  0  0  0  0  0  0  0  0  0  0  0
    2.3768   -1.3476    0.4815 C   0  0  0  0  0  0  0  0  0  0  0  0
    1.1865   -1.7442   -0.2985 C   0  0  0  0  0  0  0  0  0  0  0  0
    0.9474   -3.2158   -0.4496 C   0  0  0  0  0  0  0  0  0  0  0  0
    2.6685    0.1069    0.6933 C   0  0  0  0  0  0  0  0  0  0  0  0
    3.7500    0.3809    1.4263 N   0  0  0  0  0  0  0  0  0  0  0  0
    1.8389    1.0405    0.1591 C   0  0  0  0  0  0  0  0  0  0  0  0
    2.0867    2.3632    0.3712 O   0  0  0  0  0  0  0  0  0  0  0  0
    2.7543    3.0139   -0.7051 C   0  0  0  0  0  0  0  0  0  0  0  0
    0.7026    0.6622   -0.6490 C   0  0  0  0  0  0  0  0  0  0  0  0
   -0.0186    1.5024   -1.1634 O   0  0  0  0  0  0  0  0  0  0  0  0
    0.4152   -0.7959   -0.8568 C   0  0  0  0  0  0  0  0  0  0  0  0
   -0.8164   -1.1116   -1.6561 C   0  0  0  0  0  0  0  0  0  0  0  0
   -2.0111   -1.1138   -0.7426 C   0  0  0  0  0  0  0  0  0  0  0  0
   -3.0657   -0.2961   -0.7680 C   0  0  0  0  0  0  0  0  0  0  0  0
   -3.2837    0.7921   -1.7760 C   0  0  0  0  0  0  0  0  0  0  0  0
   -4.1379   -0.4154    0.2834 C   0  0  0  0  0  0  0  0  0  0  0  0
   -4.1224    0.7407    1.2864 C   0  0  0  0  0  0  0  0  0  0  0  0
   -5.2378    0.6325    2.3161 C   0  0  0  0  0  0  0  0  0  0  0  0
    1.3484   -3.7747    0.3928 H   0  0  0  0  0  0  0  0  0  0  0  0
   -0.1125   -3.4478   -0.5252 H   0  0  0  0  0  0  0  0  0  0  0  0
    1.4328   -3.5965   -1.3509 H   0  0  0  0  0  0  0  0  0  0  0  0
    4.3202   -0.3618    1.7923 H   0  0  0  0  0  0  0  0  0  0  0  0
    4.0116    1.3277    1.6370 H   0  0  0  0  0  0  0  0  0  0  0  0
    2.1247    3.0753   -1.5943 H   0  0  0  0  0  0  0  0  0  0  0  0
    2.9908    4.0234   -0.3737 H   0  0  0  0  0  0  0  0  0  0  0  0
    3.6851    2.5042   -0.9671 H   0  0  0  0  0  0  0  0  0  0  0  0
   -0.9287   -0.3855   -2.4574 H   0  0  0  0  0  0  0  0  0  0  0  0
   -0.7068   -2.0891   -2.1292 H   0  0  0  0  0  0  0  0  0  0  0  0
   -1.9729   -1.8659    0.0424 H   0  0  0  0  0  0  0  0  0  0  0  0
   -4.2718    0.6888   -2.2308 H   0  0  0  0  0  0  0  0  0  0  0  0
   -3.2646    1.7750   -1.3004 H   0  0  0  0  0  0  0  0  0  0  0  0
   -2.5468    0.8061   -2.5749 H   0  0  0  0  0  0  0  0  0  0  0  0
   -5.1218   -0.4500   -0.1990 H   0  0  0  0  0  0  0  0  0  0  0  0
   -4.0262   -1.3570    0.8288 H   0  0  0  0  0  0  0  0  0  0  0  0
   -3.1518    0.7589    1.7900 H   0  0  0  0  0  0  0  0  0  0  0  0
   -4.2106    1.6934    0.7582 H   0  0  0  0  0  0  0  0  0  0  0  0
   -5.1578   -0.2899    2.8944 H   0  0  0  0  0  0  0  0  0  0  0  0
   -5.2117    1.4664    3.0180 H   0  0  0  0  0  0  0  0  0  0  0  0
   -6.2182    0.6345    1.8361 H   0  0  0  0  0  0  0  0  0  0  0  0
  9  8  1  0
  8  7  1  0
  7  5  2  0
  7 10  1  0
 11 10  2  0
  6  5  1  0
 19 18  1  0
  5  2  1  0
 10 12  1  0
 17 18  1  0
 17 15  1  0
  2  1  2  0
  2  3  1  0
 15 14  2  0
 15 16  1  0
 12  3  2  0
 12 13  1  0
 14 13  1  0
  3  4  1  0
  4 20  1  0
  4 21  1  0
  4 22  1  0
  6 23  1  0
  6 24  1  0
  9 25  1  0
  9 26  1  0
  9 27  1  0
 13 28  1  0
 13 29  1  0
 14 30  1  0
 16 31  1  0
 16 32  1  0
 16 33  1  0
 17 34  1  0
 17 35  1  0
 18 36  1  0
 18 37  1  0
 19 38  1  0
 19 39  1  0
 19 40  1  0
M  END
