
     RDKit          3D

 70 73  0  0  0  0  0  0  0  0999 V2000
   -3.0969   -0.3968    0.0516 C   0  0  0  0  0  0  0  0  0  0  0  0
   -1.9030    0.3364    0.1369 C   0  0  0  0  0  0  0  0  0  0  0  0
   -0.7009   -0.4507    0.1210 C   0  0  0  0  0  0  0  0  0  0  0  0
   -0.7444   -1.7639    0.0570 N   0  0  0  0  0  0  0  0  0  0  0  0
   -3.1277   -1.7469   -0.0170 N   0  0  0  0  0  0  0  0  0  0  0  0
   -7.6780    3.6864   -1.1892 N   0  0  0  0  0  0  0  0  0  0  0  0
   -7.7922    2.8423   -0.0120 C   0  0  0  0  0  0  0  0  0  0  0  0
   -6.7230    1.7766    0.0050 C   0  0  0  0  0  0  0  0  0  0  0  0
   -4.3528    1.6779    0.1295 C   0  0  0  0  0  0  0  0  0  0  0  0
   -3.1349    2.4166    0.2286 C   0  0  0  0  0  0  0  0  0  0  0  0
   -3.2842    3.7528    0.3148 O   0  0  0  0  0  0  0  0  0  0  0  0
   -2.1180    4.5370    0.4465 C   0  0  0  0  0  0  0  0  0  0  0  0
   -1.9419    1.7447    0.2323 C   0  0  0  0  0  0  0  0  0  0  0  0
   -4.3228    0.3088    0.0436 C   0  0  0  0  0  0  0  0  0  0  0  0
   -1.9556   -2.3555   -0.0007 C   0  0  0  0  0  0  0  0  0  0  0  0
   -1.9448   -3.7015   -0.0538 N   0  0  0  0  0  0  0  0  0  0  0  0
   -3.1537   -4.4952   -0.1802 C   0  0  0  0  0  0  0  0  0  0  0  0
   -2.6215   -5.8988   -0.4544 C   0  0  0  0  0  0  0  0  0  0  0  0
   -1.2785   -5.9116    0.2698 C   0  0  0  0  0  0  0  0  0  0  0  0
   -0.7373   -4.5062    0.0268 C   0  0  0  0  0  0  0  0  0  0  0  0
    0.5083    0.1280    0.1737 N   0  0  0  0  0  0  0  0  0  0  0  0
    1.7449   -0.6173    0.0708 C   0  0  0  0  0  0  0  0  0  0  0  0
    2.9380    0.3222    0.1392 C   0  0  0  0  0  0  0  0  0  0  0  0
    4.2555   -0.4265   -0.0086 C   0  0  0  0  0  0  0  0  0  0  0  0
    5.4694    0.4916    0.0643 C   0  0  0  0  0  0  0  0  0  0  0  0
    6.7694   -0.2734   -0.1378 C   0  0  0  0  0  0  0  0  0  0  0  0
    7.9507    0.5379    0.0463 N   0  0  0  0  0  0  0  0  0  0  0  0
    8.1218    1.5980   -0.9328 C   0  0  0  0  0  0  0  0  0  0  0  0
    9.1842   -0.2245   -0.0245 C   0  0  0  0  0  0  0  0  0  0  0  0
   10.2690    0.8480   -0.0706 C   0  0  0  0  0  0  0  0  0  0  0  0
    9.5749    2.0493   -0.7465 C   0  0  0  0  0  0  0  0  0  0  0  0
   -8.4601    4.3271   -1.2182 H   0  0  0  0  0  0  0  0  0  0  0  0
   -6.8515    4.2655   -1.1151 H   0  0  0  0  0  0  0  0  0  0  0  0
   -7.7688    3.3886    0.9413 H   0  0  0  0  0  0  0  0  0  0  0  0
   -8.7529    2.3241   -0.0448 H   0  0  0  0  0  0  0  0  0  0  0  0
   -6.8863    1.0907    0.8429 H   0  0  0  0  0  0  0  0  0  0  0  0
   -6.7548    1.1955   -0.9229 H   0  0  0  0  0  0  0  0  0  0  0  0
   -2.4446    5.5723    0.5035 H   0  0  0  0  0  0  0  0  0  0  0  0
   -1.5616    4.2918    1.3557 H   0  0  0  0  0  0  0  0  0  0  0  0
   -1.4495    4.4247   -0.4120 H   0  0  0  0  0  0  0  0  0  0  0  0
   -1.0229    2.3092    0.3179 H   0  0  0  0  0  0  0  0  0  0  0  0
   -5.2311   -0.2743   -0.0275 H   0  0  0  0  0  0  0  0  0  0  0  0
   -3.7447   -4.4645    0.7415 H   0  0  0  0  0  0  0  0  0  0  0  0
   -3.7913   -4.1209   -0.9822 H   0  0  0  0  0  0  0  0  0  0  0  0
   -3.3061   -6.6731   -0.1094 H   0  0  0  0  0  0  0  0  0  0  0  0
   -2.4721   -6.0415   -1.5271 H   0  0  0  0  0  0  0  0  0  0  0  0
   -1.4288   -6.0758    1.3394 H   0  0  0  0  0  0  0  0  0  0  0  0
   -0.5993   -6.6828   -0.0927 H   0  0  0  0  0  0  0  0  0  0  0  0
   -0.1635   -4.4568   -0.9048 H   0  0  0  0  0  0  0  0  0  0  0  0
   -0.0809   -4.1604    0.8251 H   0  0  0  0  0  0  0  0  0  0  0  0
    0.5713    1.1281    0.0955 H   0  0  0  0  0  0  0  0  0  0  0  0
    1.7994   -1.3515    0.8782 H   0  0  0  0  0  0  0  0  0  0  0  0
    1.7674   -1.1859   -0.8645 H   0  0  0  0  0  0  0  0  0  0  0  0
    2.8565    1.0749   -0.6523 H   0  0  0  0  0  0  0  0  0  0  0  0
    2.9255    0.8638    1.0907 H   0  0  0  0  0  0  0  0  0  0  0  0
    4.3303   -1.1909    0.7720 H   0  0  0  0  0  0  0  0  0  0  0  0
    4.2609   -0.9634   -0.9634 H   0  0  0  0  0  0  0  0  0  0  0  0
    5.3704    1.2753   -0.6925 H   0  0  0  0  0  0  0  0  0  0  0  0
    5.4947    0.9961    1.0353 H   0  0  0  0  0  0  0  0  0  0  0  0
    6.8093   -1.0945    0.5856 H   0  0  0  0  0  0  0  0  0  0  0  0
    6.7593   -0.7438   -1.1389 H   0  0  0  0  0  0  0  0  0  0  0  0
    7.9659    1.2234   -1.9597 H   0  0  0  0  0  0  0  0  0  0  0  0
    7.4082    2.4087   -0.7766 H   0  0  0  0  0  0  0  0  0  0  0  0
    9.2762   -0.8990    0.8300 H   0  0  0  0  0  0  0  0  0  0  0  0
    9.2247   -0.8463   -0.9359 H   0  0  0  0  0  0  0  0  0  0  0  0
   10.5924    1.1080    0.9379 H   0  0  0  0  0  0  0  0  0  0  0  0
   11.1501    0.5077   -0.6140 H   0  0  0  0  0  0  0  0  0  0  0  0
   10.0293    2.3095   -1.7021 H   0  0  0  0  0  0  0  0  0  0  0  0
    9.6303    2.9360   -0.1145 H   0  0  0  0  0  0  0  0  0  0  0  0
   -5.4638    2.4231    0.1358 O   0  0  0  0  0  0  0  0  0  0  0  0
 31 30  1  0
 31 28  1  0
 30 29  1  0
 28 27  1  0
 27 29  1  0
 27 26  1  0
 26 25  1  0
 25 24  1  0
 24 23  1  0
 23 22  1  0
 19 18  1  0
 19 20  1  0
 17 18  1  0
 17 16  1  0
 20 16  1  0
 16 15  1  0
 22 21  1  0
  4 15  2  0
  4  3  1  0
 15  5  1  0
 21  3  1  0
  3  2  2  0
  5  1  2  0
  6  7  1  0
  2  1  1  0
  2 13  1  0
  1 14  1  0
 13 10  2  0
 14  9  2  0
 10  9  1  0
 10 11  1  0
  9 70  1  0
  8 70  1  0
  8  7  1  0
 11 12  1  0
  6 32  1  0
  6 33  1  0
  7 34  1  0
  7 35  1  0
  8 36  1  0
  8 37  1  0
 12 38  1  0
 12 39  1  0
 12 40  1  0
 13 41  1  0
 14 42  1  0
 17 43  1  0
 17 44  1  0
 18 45  1  0
 18 46  1  0
 19 47  1  0
 19 48  1  0
 20 49  1  0
 20 50  1  0
 21 51  1  0
 22 52  1  0
 22 53  1  0
 23 54  1  0
 23 55  1  0
 24 56  1  0
 24 57  1  0
 25 58  1  0
 25 59  1  0
 26 60  1  0
 26 61  1  0
 28 62  1  0
 28 63  1  0
 29 64  1  0
 29 65  1  0
 30 66  1  0
 30 67  1  0
 31 68  1  0
 31 69  1  0
M  END
