
     RDKit          3D

 24 25  0  0  0  0  0  0  0  0999 V2000
    2.4049    1.3847    0.0200 C   0  0  0  0  0  0  0  0  0  0  0  0
    2.9181    2.6147    0.0448 N   0  0  0  0  0  0  0  0  0  0  0  0
    1.0687    1.2783    0.0182 N   0  0  0  0  0  0  0  0  0  0  0  0
    0.6046    0.0432   -0.0109 C   0  0  0  0  0  0  0  0  0  0  0  0
   -0.8527   -0.1536   -0.0192 C   0  0  0  0  0  0  0  0  0  0  0  0
   -1.6868    0.9713   -0.0122 C   0  0  0  0  0  0  0  0  0  0  0  0
   -3.0474    0.8169   -0.0271 C   0  0  0  0  0  0  0  0  0  0  0  0
   -3.8407    1.9044   -0.0260 F   0  0  0  0  0  0  0  0  0  0  0  0
   -3.6331   -0.4397   -0.0459 C   0  0  0  0  0  0  0  0  0  0  0  0
   -2.8255   -1.5556   -0.0513 C   0  0  0  0  0  0  0  0  0  0  0  0
   -1.4303   -1.4396   -0.0397 C   0  0  0  0  0  0  0  0  0  0  0  0
   -0.7231   -2.5640   -0.0495 O   0  0  0  0  0  0  0  0  0  0  0  0
    1.3679   -1.0502   -0.0342 N   0  0  0  0  0  0  0  0  0  0  0  0
    2.6908   -0.8311   -0.0317 C   0  0  0  0  0  0  0  0  0  0  0  0
    3.4898   -1.9037   -0.0578 N   0  0  0  0  0  0  0  0  0  0  0  0
    3.2594    0.3634   -0.0053 N   0  0  0  0  0  0  0  0  0  0  0  0
    3.9113    2.7509    0.0704 H   0  0  0  0  0  0  0  0  0  0  0  0
    2.3214    3.4191    0.0918 H   0  0  0  0  0  0  0  0  0  0  0  0
   -1.2465    1.9590    0.0021 H   0  0  0  0  0  0  0  0  0  0  0  0
   -4.7102   -0.5414   -0.0606 H   0  0  0  0  0  0  0  0  0  0  0  0
   -3.2608   -2.5456   -0.0680 H   0  0  0  0  0  0  0  0  0  0  0  0
    0.2321   -2.3101   -0.0456 H   0  0  0  0  0  0  0  0  0  0  0  0
    3.1068   -2.8296   -0.0837 H   0  0  0  0  0  0  0  0  0  0  0  0
    4.4850   -1.7813   -0.0582 H   0  0  0  0  0  0  0  0  0  0  0  0
 10  9  2  0
 10 11  1  0
  9  7  1  0
 12 11  1  0
 11  5  2  0
  7  8  1  0
  7  6  2  0
  5  6  1  0
  5  4  1  0
  3  4  1  0
  3  1  2  0
  4 13  2  0
  2  1  1  0
  1 16  1  0
 13 14  1  0
 16 14  2  0
 14 15  1  0
  2 17  1  0
  2 18  1  0
  6 19  1  0
  9 20  1  0
 10 21  1  0
 12 22  1  0
 15 23  1  0
 15 24  1  0
M  END
