
     RDKit          3D

 13 12  0  0  0  0  0  0  0  0999 V2000
    2.0823   -0.0068    0.5168 O   0  0  0  0  0  0  0  0  0  0  0  0
    1.0366    0.2859   -0.3916 C   0  0  0  0  0  0  0  0  0  0  0  0
   -0.0363   -0.7394   -0.2178 C   0  0  0  0  0  0  0  0  0  0  0  0
   -1.3370   -0.5209   -0.0338 C   0  0  0  0  0  0  0  0  0  0  0  0
   -2.0467    0.7905    0.0639 C   0  0  0  0  0  0  0  0  0  0  0  0
    2.8213    0.5735    0.3128 H   0  0  0  0  0  0  0  0  0  0  0  0
    0.6436    1.2970   -0.2390 H   0  0  0  0  0  0  0  0  0  0  0  0
    1.3983    0.2453   -1.4281 H   0  0  0  0  0  0  0  0  0  0  0  0
    0.3028   -1.7701   -0.2775 H   0  0  0  0  0  0  0  0  0  0  0  0
   -1.9779   -1.3934    0.0515 H   0  0  0  0  0  0  0  0  0  0  0  0
   -1.3784    1.6497    0.0431 H   0  0  0  0  0  0  0  0  0  0  0  0
   -2.7557    0.9038   -0.7593 H   0  0  0  0  0  0  0  0  0  0  0  0
   -2.6327    0.8392    0.9838 H   0  0  0  0  0  0  0  0  0  0  0  0
  4  3  2  0
  4  5  1  0
  3  2  1  0
  1  2  1  0
  1  6  1  0
  2  7  1  0
  2  8  1  0
  3  9  1  0
  4 10  1  0
  5 11  1  0
  5 12  1  0
  5 13  1  0
M  END
