
     RDKit          3D

 27 27  0  0  0  0  0  0  0  0999 V2000
   -1.8185   -1.9488   -0.9897 O   0  0  0  0  0  0  0  0  0  0  0  0
   -0.4591   -1.9488   -0.9897 C   0  0  2  0  0  0  0  0  0  0  0  0
    0.0341   -1.9488    0.4501 C   0  0  2  0  0  0  0  0  0  0  0  0
   -0.5974   -3.0342    1.1578 O   0  0  0  0  0  0  0  0  0  0  0  0
   -0.2789   -0.6768    1.1460 C   0  0  1  0  0  0  0  0  0  0  0  0
    0.3570   -0.6885    2.4529 O   0  0  0  0  0  0  0  0  0  0  0  0
    0.2083    0.5165    0.3819 C   0  0  2  0  0  0  0  0  0  0  0  0
   -0.2628    1.7027    1.0276 O   0  0  0  0  0  0  0  0  0  0  0  0
   -0.2857    0.5124   -1.0657 C   0  0  2  0  0  0  0  0  0  0  0  0
    0.0278   -0.7499   -1.7544 O   0  0  0  0  0  0  0  0  0  0  0  0
    0.3655    1.6437   -1.8042 C   0  0  0  0  0  0  0  0  0  0  0  0
    0.0983    1.5219   -3.1769 O   0  0  0  0  0  0  0  0  0  0  0  0
    0.7292    2.3888    1.7554 C   0  0  0  0  0  0  0  0  0  0  0  0
   -2.1330   -2.5028   -1.6848 H   0  0  0  0  0  0  0  0  0  0  0  0
   -0.1026   -2.8458   -1.4816 H   0  0  0  0  0  0  0  0  0  0  0  0
    1.1074   -2.0960    0.4535 H   0  0  0  0  0  0  0  0  0  0  0  0
    0.0287   -3.7254    1.2968 H   0  0  0  0  0  0  0  0  0  0  0  0
   -1.3522   -0.5996    1.2709 H   0  0  0  0  0  0  0  0  0  0  0  0
   -0.2809   -0.9101    3.1110 H   0  0  0  0  0  0  0  0  0  0  0  0
    1.2916    0.5151    0.3828 H   0  0  0  0  0  0  0  0  0  0  0  0
   -1.3595    0.6555   -1.0693 H   0  0  0  0  0  0  0  0  0  0  0  0
    1.4360    1.6130   -1.6408 H   0  0  0  0  0  0  0  0  0  0  0  0
   -0.0282    2.5856   -1.4419 H   0  0  0  0  0  0  0  0  0  0  0  0
    0.3244    2.3263   -3.6138 H   0  0  0  0  0  0  0  0  0  0  0  0
    0.5236    2.3029    2.8155 H   0  0  0  0  0  0  0  0  0  0  0  0
    0.7278    3.4340    1.4708 H   0  0  0  0  0  0  0  0  0  0  0  0
    1.6991    1.9571    1.5396 H   0  0  0  0  0  0  0  0  0  0  0  0
  1  2  1  0
  1 14  1  0
  2  3  1  0
  2 10  1  0
  2 15  1  6
  4  3  1  0
  5  3  1  0
  3 16  1  6
  4 17  1  0
  5  6  1  0
  5  7  1  0
  5 18  1  1
  6 19  1  0
  8  7  1  0
  7  9  1  0
  7 20  1  6
  8 13  1  0
  9 10  1  0
  9 11  1  0
  9 21  1  1
 11 12  1  0
 11 22  1  0
 11 23  1  0
 12 24  1  0
 13 25  1  0
 13 26  1  0
 13 27  1  0
M  END
