
     RDKit          3D

 47 50  0  0  0  0  0  0  0  0999 V2000
    3.0364   -3.2360    0.0368 C   0  0  0  0  0  0  0  0  0  0  0  0
    3.0317   -4.3273    0.8994 C   0  0  0  0  0  0  0  0  0  0  0  0
    1.9958   -4.5159    1.7984 C   0  0  0  0  0  0  0  0  0  0  0  0
    0.9492   -3.6009    1.8370 C   0  0  0  0  0  0  0  0  0  0  0  0
    0.9540   -2.5117    0.9893 C   0  0  0  0  0  0  0  0  0  0  0  0
    1.9939   -2.3164    0.0712 C   0  0  0  0  0  0  0  0  0  0  0  0
   -0.0382   -1.5719    1.0910 O   0  0  0  0  0  0  0  0  0  0  0  0
    1.8851   -1.2384   -0.7201 O   0  0  0  0  0  0  0  0  0  0  0  0
    2.9846   -0.8650   -1.5227 C   0  0  0  0  0  0  0  0  0  0  0  0
    2.6269    0.4415   -2.2016 C   0  0  0  0  0  0  0  0  0  0  0  0
    2.1788    1.4434   -1.2438 N   0  0  0  0  0  0  0  0  0  0  0  0
    0.8316    1.7315   -1.1432 C   0  0  0  0  0  0  0  0  0  0  0  0
    0.5167    2.6081   -0.1344 N   0  0  0  0  0  0  0  0  0  0  0  0
    1.3651    3.2090    0.7805 C   0  0  0  0  0  0  0  0  0  0  0  0
    2.7500    2.8539    0.5938 C   0  0  0  0  0  0  0  0  0  0  0  0
    3.0823    2.0009   -0.3900 C   0  0  0  0  0  0  0  0  0  0  0  0
   -0.0107    1.2744   -1.8825 O   0  0  0  0  0  0  0  0  0  0  0  0
    0.9247    3.9581    1.6337 O   0  0  0  0  0  0  0  0  0  0  0  0
   -0.9988   -1.5008    0.1372 C   0  0  0  0  0  0  0  0  0  0  0  0
   -1.8682   -0.3834    0.2407 C   0  0  0  0  0  0  0  0  0  0  0  0
   -1.7343    0.5869    1.2610 C   0  0  0  0  0  0  0  0  0  0  0  0
   -2.5879    1.6503    1.3325 C   0  0  0  0  0  0  0  0  0  0  0  0
   -3.6183    1.7862    0.3722 C   0  0  0  0  0  0  0  0  0  0  0  0
   -4.5088    2.8981    0.4509 C   0  0  0  0  0  0  0  0  0  0  0  0
   -5.2286    3.7951    0.5257 N   0  0  0  0  0  0  0  0  0  0  0  0
   -3.7732    0.8587   -0.6298 C   0  0  0  0  0  0  0  0  0  0  0  0
   -2.9045   -0.2472   -0.7179 C   0  0  0  0  0  0  0  0  0  0  0  0
   -3.0570   -1.2133   -1.7386 C   0  0  0  0  0  0  0  0  0  0  0  0
   -2.2060   -2.2796   -1.7924 C   0  0  0  0  0  0  0  0  0  0  0  0
   -1.1704   -2.4335   -0.8505 C   0  0  0  0  0  0  0  0  0  0  0  0
    3.8568   -3.1146   -0.6577 H   0  0  0  0  0  0  0  0  0  0  0  0
    3.8525   -5.0309    0.8594 H   0  0  0  0  0  0  0  0  0  0  0  0
    1.9943   -5.3665    2.4660 H   0  0  0  0  0  0  0  0  0  0  0  0
    0.1318   -3.7229    2.5365 H   0  0  0  0  0  0  0  0  0  0  0  0
    3.8855   -0.7537   -0.9090 H   0  0  0  0  0  0  0  0  0  0  0  0
    3.1980   -1.6131   -2.2929 H   0  0  0  0  0  0  0  0  0  0  0  0
    3.5033    0.8180   -2.7293 H   0  0  0  0  0  0  0  0  0  0  0  0
    1.8403    0.2935   -2.9354 H   0  0  0  0  0  0  0  0  0  0  0  0
   -0.4688    2.8255   -0.0530 H   0  0  0  0  0  0  0  0  0  0  0  0
    3.5056    3.2725    1.2398 H   0  0  0  0  0  0  0  0  0  0  0  0
    4.1125    1.7164   -0.5571 H   0  0  0  0  0  0  0  0  0  0  0  0
   -0.9454    0.4967    1.9939 H   0  0  0  0  0  0  0  0  0  0  0  0
   -2.4821    2.3875    2.1166 H   0  0  0  0  0  0  0  0  0  0  0  0
   -4.5657    0.9681   -1.3589 H   0  0  0  0  0  0  0  0  0  0  0  0
   -3.8517   -1.0986   -2.4639 H   0  0  0  0  0  0  0  0  0  0  0  0
   -2.3190   -3.0277   -2.5656 H   0  0  0  0  0  0  0  0  0  0  0  0
   -0.5193   -3.2949   -0.9209 H   0  0  0  0  0  0  0  0  0  0  0  0
  2  1  2  0
  2  3  1  0
  1  6  1  0
  3  4  2  0
 17 12  2  0
  9  8  1  0
  9 10  1  0
  6  8  1  0
  6  5  2  0
  4  5  1  0
  5  7  1  0
 10 11  1  0
 12 11  1  0
 12 13  1  0
 11 16  1  0
 13 14  1  0
  7 19  1  0
 30 19  2  0
 30 29  1  0
 16 15  2  0
 14 18  2  0
 14 15  1  0
 19 20  1  0
 29 28  2  0
 20 21  2  0
 20 27  1  0
 21 22  1  0
 28 27  1  0
 27 26  2  0
 22 23  2  0
 26 23  1  0
 23 24  1  0
 24 25  3  0
  1 31  1  0
  2 32  1  0
  3 33  1  0
  4 34  1  0
  9 35  1  0
  9 36  1  0
 10 37  1  0
 10 38  1  0
 13 39  1  0
 15 40  1  0
 16 41  1  0
 21 42  1  0
 22 43  1  0
 26 44  1  0
 28 45  1  0
 29 46  1  0
 30 47  1  0
M  END
