
     RDKit          3D

 55 58  0  0  0  0  0  0  0  0999 V2000
    1.3461    1.1599   -1.7143 O   0  0  0  0  0  0  0  0  0  0  0  0
    2.4257    1.1764   -1.1607 C   0  0  0  0  0  0  0  0  0  0  0  0
    2.9859    2.3594   -0.7403 N   0  0  0  0  0  0  0  0  0  0  0  0
    4.1859    2.5408   -0.1043 C   0  0  0  0  0  0  0  0  0  0  0  0
    4.5711    3.6503    0.2063 O   0  0  0  0  0  0  0  0  0  0  0  0
    4.9139    1.3008    0.1556 C   0  0  0  0  0  0  0  0  0  0  0  0
    6.1387    1.3572    0.8198 C   0  0  0  0  0  0  0  0  0  0  0  0
    6.8442    0.2060    1.0941 C   0  0  0  0  0  0  0  0  0  0  0  0
    6.3102   -1.0162    0.6966 C   0  0  0  0  0  0  0  0  0  0  0  0
    5.0990   -1.0912    0.0361 C   0  0  0  0  0  0  0  0  0  0  0  0
    4.3763    0.0720   -0.2516 C   0  0  0  0  0  0  0  0  0  0  0  0
    3.1582    0.0409   -0.9223 N   0  0  0  0  0  0  0  0  0  0  0  0
    2.5394   -1.2079   -1.3701 C   0  0  0  0  0  0  0  0  0  0  0  0
    1.4650   -1.6823   -0.4273 C   0  0  0  0  0  0  0  0  0  0  0  0
    0.1334   -1.6427   -0.8156 C   0  0  0  0  0  0  0  0  0  0  0  0
    1.7744   -2.1411    0.8511 C   0  0  0  0  0  0  0  0  0  0  0  0
    0.7786   -2.5498    1.7235 C   0  0  0  0  0  0  0  0  0  0  0  0
   -0.5347   -2.5017    1.3013 C   0  0  0  0  0  0  0  0  0  0  0  0
   -1.5026   -2.8754    2.1472 F   0  0  0  0  0  0  0  0  0  0  0  0
   -0.8839   -2.0500    0.0410 C   0  0  0  0  0  0  0  0  0  0  0  0
   -2.3116   -2.0750   -0.4064 C   0  0  0  0  0  0  0  0  0  0  0  0
   -2.9172   -3.1327   -0.4678 O   0  0  0  0  0  0  0  0  0  0  0  0
   -2.8481   -0.8920   -0.7696 N   0  0  0  0  0  0  0  0  0  0  0  0
   -4.2080   -0.8059   -1.2563 C   0  0  0  0  0  0  0  0  0  0  0  0
   -5.0759   -0.2151   -0.1694 C   0  0  0  0  0  0  0  0  0  0  0  0
   -2.2736    0.4070   -0.5099 C   0  0  0  0  0  0  0  0  0  0  0  0
   -3.2217    1.3772    0.1806 C   0  0  0  0  0  0  0  0  0  0  0  0
   -2.7704    2.4524    0.5534 O   0  0  0  0  0  0  0  0  0  0  0  0
   -4.5002    1.0123    0.3579 N   0  0  0  0  0  0  0  0  0  0  0  0
   -5.4061    1.8790    1.0943 C   0  0  0  0  0  0  0  0  0  0  0  0
   -6.1699    2.8493    0.2014 C   0  0  0  0  0  0  0  0  0  0  0  0
   -7.1103    3.7289    1.0130 C   0  0  0  0  0  0  0  0  0  0  0  0
    2.4363    3.1880   -0.9331 H   0  0  0  0  0  0  0  0  0  0  0  0
    6.5266    2.3221    1.1170 H   0  0  0  0  0  0  0  0  0  0  0  0
    7.7921    0.2507    1.6119 H   0  0  0  0  0  0  0  0  0  0  0  0
    6.8438   -1.9341    0.9047 H   0  0  0  0  0  0  0  0  0  0  0  0
    4.7335   -2.0678   -0.2415 H   0  0  0  0  0  0  0  0  0  0  0  0
    2.1269   -1.0474   -2.3638 H   0  0  0  0  0  0  0  0  0  0  0  0
    3.3147   -1.9587   -1.4920 H   0  0  0  0  0  0  0  0  0  0  0  0
   -0.1219   -1.2855   -1.8051 H   0  0  0  0  0  0  0  0  0  0  0  0
    2.8026   -2.1842    1.1868 H   0  0  0  0  0  0  0  0  0  0  0  0
    1.0202   -2.9003    2.7180 H   0  0  0  0  0  0  0  0  0  0  0  0
   -4.2191   -0.1708   -2.1461 H   0  0  0  0  0  0  0  0  0  0  0  0
   -4.5763   -1.7875   -1.5395 H   0  0  0  0  0  0  0  0  0  0  0  0
   -6.0627    0.0088   -0.5791 H   0  0  0  0  0  0  0  0  0  0  0  0
   -5.2129   -0.9394    0.6390 H   0  0  0  0  0  0  0  0  0  0  0  0
   -1.3988    0.3250    0.1321 H   0  0  0  0  0  0  0  0  0  0  0  0
   -1.9421    0.8786   -1.4407 H   0  0  0  0  0  0  0  0  0  0  0  0
   -6.1071    1.2351    1.6318 H   0  0  0  0  0  0  0  0  0  0  0  0
   -4.8416    2.4270    1.8487 H   0  0  0  0  0  0  0  0  0  0  0  0
   -5.4574    3.4700   -0.3464 H   0  0  0  0  0  0  0  0  0  0  0  0
   -6.7416    2.2925   -0.5467 H   0  0  0  0  0  0  0  0  0  0  0  0
   -7.6719    4.4043    0.3682 H   0  0  0  0  0  0  0  0  0  0  0  0
   -7.8320    3.1300    1.5712 H   0  0  0  0  0  0  0  0  0  0  0  0
   -6.5605    4.3393    1.7315 H   0  0  0  0  0  0  0  0  0  0  0  0
 19 18  1  0
 32 31  1  0
 18 17  2  0
 18 20  1  0
 17 16  1  0
 24 23  1  0
 24 25  1  0
 31 30  1  0
 23 21  1  0
 23 26  1  0
 20 21  1  0
 20 15  2  0
 16 14  2  0
 21 22  2  0
 26 27  1  0
 27 28  2  0
 27 29  1  0
 29 25  1  0
 29 30  1  0
 15 14  1  0
 14 13  1  0
  9 10  2  0
  9  8  1  0
 10 11  1  0
 13 12  1  0
  8  7  2  0
 11 12  1  0
 11  6  2  0
 12  2  1  0
  7  6  1  0
  6  4  1  0
  2  1  2  0
  2  3  1  0
  4  3  1  0
  4  5  2  0
  3 33  1  0
  7 34  1  0
  8 35  1  0
  9 36  1  0
 10 37  1  0
 13 38  1  0
 13 39  1  0
 15 40  1  0
 16 41  1  0
 17 42  1  0
 24 43  1  0
 24 44  1  0
 25 45  1  0
 25 46  1  0
 26 47  1  0
 26 48  1  0
 30 49  1  0
 30 50  1  0
 31 51  1  0
 31 52  1  0
 32 53  1  0
 32 54  1  0
 32 55  1  0
M  END
