
     RDKit          3D

 59 61  0  0  0  0  0  0  0  0999 V2000
   -5.5222    2.9457   -1.5858 C   0  0  0  0  0  0  0  0  0  0  0  0
   -4.8439    2.5566   -0.4204 O   0  0  0  0  0  0  0  0  0  0  0  0
   -3.5137    3.0069   -0.3946 C   0  0  0  0  0  0  0  0  0  0  0  0
   -2.8269    2.5086    0.8489 C   0  0  0  0  0  0  0  0  0  0  0  0
   -2.7069    1.1073    0.7919 O   0  0  0  0  0  0  0  0  0  0  0  0
   -2.0783    0.5336    1.9034 C   0  0  1  0  0  0  0  0  0  0  0  0
   -2.6197   -0.8783    2.0845 C   0  0  0  0  0  0  0  0  0  0  0  0
   -2.5754   -1.7946    0.9505 N   0  0  0  0  0  0  0  0  0  0  0  0
   -3.8569   -2.2823    0.4588 C   0  0  0  0  0  0  0  0  0  0  0  0
   -4.4341   -1.3956   -0.6264 C   0  0  0  0  0  0  0  0  0  0  0  0
   -3.5976   -1.4534   -1.7508 O   0  0  0  0  0  0  0  0  0  0  0  0
   -3.7769   -0.3803   -2.6322 C   0  0  0  0  0  0  0  0  0  0  0  0
   -1.4432   -2.3094    0.4203 C   0  0  0  0  0  0  0  0  0  0  0  0
   -1.4324   -3.2635   -0.3420 O   0  0  0  0  0  0  0  0  0  0  0  0
   -0.1114   -1.6725    0.8119 C   0  0  2  0  0  0  0  0  0  0  0  0
    0.3866   -2.0998    2.2111 C   0  0  0  0  0  0  0  0  0  0  0  0
    1.1225   -0.9576    2.8890 C   0  0  0  0  0  0  0  0  0  0  0  0
    0.1844    0.2246    3.0842 C   0  0  0  0  0  0  0  0  0  0  0  0
   -0.5543    0.6108    1.7839 C   0  0  1  0  0  0  0  0  0  0  0  0
   -0.1163   -0.2234    0.6734 N   0  0  0  0  0  0  0  0  0  0  0  0
    0.3075    0.4000   -0.7768 S   0  0  1  0  0  0  0  0  0  0  0  0
   -0.2206   -0.4384   -1.8369 O   0  0  0  0  0  0  0  0  0  0  0  0
    0.0383    1.8264   -0.7691 O   0  0  0  0  0  0  0  0  0  0  0  0
    2.0805    0.2012   -0.7952 C   0  0  0  0  0  0  0  0  0  0  0  0
    2.6479   -0.8302   -1.5230 C   0  0  0  0  0  0  0  0  0  0  0  0
    4.0253   -0.9889   -1.4633 C   0  0  0  0  0  0  0  0  0  0  0  0
    4.7643   -2.2671   -2.3543 Cl  0  0  0  0  0  0  0  0  0  0  0  0
    4.8219   -0.1473   -0.7065 C   0  0  0  0  0  0  0  0  0  0  0  0
    4.2134    0.8787    0.0035 C   0  0  0  0  0  0  0  0  0  0  0  0
    5.1942    1.9377    0.9479 Cl  0  0  0  0  0  0  0  0  0  0  0  0
    2.8444    1.0713   -0.0289 C   0  0  0  0  0  0  0  0  0  0  0  0
   -5.0633    2.5254   -2.4890 H   0  0  0  0  0  0  0  0  0  0  0  0
   -6.5459    2.5788   -1.5200 H   0  0  0  0  0  0  0  0  0  0  0  0
   -5.5527    4.0360   -1.7024 H   0  0  0  0  0  0  0  0  0  0  0  0
   -2.9593    2.6668   -1.2810 H   0  0  0  0  0  0  0  0  0  0  0  0
   -3.4690    4.1056   -0.3930 H   0  0  0  0  0  0  0  0  0  0  0  0
   -1.8503    3.0023    0.9089 H   0  0  0  0  0  0  0  0  0  0  0  0
   -3.3944    2.8143    1.7394 H   0  0  0  0  0  0  0  0  0  0  0  0
   -2.3547    1.0657    2.8272 H   0  0  0  0  0  0  0  0  0  0  0  0
   -2.1465   -1.3296    2.9595 H   0  0  0  0  0  0  0  0  0  0  0  0
   -3.6697   -0.7786    2.3528 H   0  0  0  0  0  0  0  0  0  0  0  0
   -3.7423   -3.3001    0.0901 H   0  0  0  0  0  0  0  0  0  0  0  0
   -4.5625   -2.3272    1.2898 H   0  0  0  0  0  0  0  0  0  0  0  0
   -5.4487   -1.7471   -0.8674 H   0  0  0  0  0  0  0  0  0  0  0  0
   -4.5280   -0.3662   -0.2600 H   0  0  0  0  0  0  0  0  0  0  0  0
   -3.5741    0.5785   -2.1447 H   0  0  0  0  0  0  0  0  0  0  0  0
   -3.0788   -0.5024   -3.4599 H   0  0  0  0  0  0  0  0  0  0  0  0
   -4.7925   -0.3407   -3.0469 H   0  0  0  0  0  0  0  0  0  0  0  0
    0.6075   -2.0745    0.0962 H   0  0  0  0  0  0  0  0  0  0  0  0
   -0.4372   -2.4278    2.8483 H   0  0  0  0  0  0  0  0  0  0  0  0
    1.0357   -2.9660    2.0887 H   0  0  0  0  0  0  0  0  0  0  0  0
    1.5085   -1.2860    3.8549 H   0  0  0  0  0  0  0  0  0  0  0  0
    1.9910   -0.6621    2.2929 H   0  0  0  0  0  0  0  0  0  0  0  0
   -0.5417   -0.0181    3.8648 H   0  0  0  0  0  0  0  0  0  0  0  0
    0.7391    1.0875    3.4533 H   0  0  0  0  0  0  0  0  0  0  0  0
   -0.2927    1.6407    1.5453 H   0  0  0  0  0  0  0  0  0  0  0  0
    2.0438   -1.4942   -2.1251 H   0  0  0  0  0  0  0  0  0  0  0  0
    5.8934   -0.2844   -0.6695 H   0  0  0  0  0  0  0  0  0  0  0  0
    2.3937    1.8822    0.5271 H   0  0  0  0  0  0  0  0  0  0  0  0
 30 29  1  0
 28 29  2  0
 28 26  1  0
  1  2  1  0
 29 31  1  0
 27 26  1  0
 26 25  2  0
  2  3  1  0
 31 24  2  0
 10 11  1  0
 10  9  1  0
 11 12  1  0
 25 24  1  0
  3  4  1  0
 21 24  1  1
  5  4  1  0
  5  6  1  0
  7  8  1  0
  7  6  1  0
  9  8  1  0
  8 13  1  0
  6 19  1  0
 21 20  1  0
 21 22  2  0
 21 23  2  0
 20 19  1  0
 20 15  1  0
 13 14  2  0
 13 15  1  0
 19 18  1  0
 15 16  1  0
 18 17  1  0
 16 17  1  0
  1 32  1  0
  1 33  1  0
  1 34  1  0
  3 35  1  0
  3 36  1  0
  4 37  1  0
  4 38  1  0
  6 39  1  1
  7 40  1  0
  7 41  1  0
  9 42  1  0
  9 43  1  0
 10 44  1  0
 10 45  1  0
 12 46  1  0
 12 47  1  0
 12 48  1  0
 15 49  1  6
 16 50  1  0
 16 51  1  0
 17 52  1  0
 17 53  1  0
 18 54  1  0
 18 55  1  0
 19 56  1  6
 25 57  1  0
 28 58  1  0
 31 59  1  0
M  END
