
     RDKit          3D

 48 51  0  0  0  0  0  0  0  0999 V2000
    1.6197   -3.5442   -1.2779 C   0  0  0  0  0  0  0  0  0  0  0  0
    2.0653   -3.0767    0.1069 C   0  0  1  0  0  0  0  0  0  0  0  0
    3.2573   -3.6966    0.5105 O   0  0  0  0  0  0  0  0  0  0  0  0
    2.3274   -1.5972    0.1063 C   0  0  0  0  0  0  0  0  0  0  0  0
    1.3190   -0.6615    0.1322 N   0  0  0  0  0  0  0  0  0  0  0  0
    1.9285    0.5658    0.0733 C   0  0  0  0  0  0  0  0  0  0  0  0
    3.3001    0.2840    0.0141 C   0  0  0  0  0  0  0  0  0  0  0  0
    3.5111   -1.0710    0.0359 N   0  0  0  0  0  0  0  0  0  0  0  0
    4.2460    1.3136   -0.0607 C   0  0  0  0  0  0  0  0  0  0  0  0
    3.8936    2.5816   -0.0799 N   0  0  0  0  0  0  0  0  0  0  0  0
    2.5847    2.8305   -0.0203 C   0  0  0  0  0  0  0  0  0  0  0  0
    1.5123    1.9084    0.0613 C   0  0  0  0  0  0  0  0  0  0  0  0
    0.3141    2.6839    0.1026 C   0  0  0  0  0  0  0  0  0  0  0  0
    0.6920    3.9967    0.0446 C   0  0  0  0  0  0  0  0  0  0  0  0
    2.0473    4.0826   -0.0282 N   0  0  0  0  0  0  0  0  0  0  0  0
   -0.1104   -0.9473    0.2094 C   0  0  1  0  0  0  0  0  0  0  0  0
   -0.7263   -0.4230    1.5017 C   0  0  0  0  0  0  0  0  0  0  0  0
   -2.2119   -0.7590    1.5582 C   0  0  0  0  0  0  0  0  0  0  0  0
   -2.9672   -0.2465    0.3324 C   0  0  1  0  0  0  0  0  0  0  0  0
   -2.3365   -0.8071   -0.9418 C   0  0  0  0  0  0  0  0  0  0  0  0
   -0.8513   -0.4737   -1.0364 C   0  0  0  0  0  0  0  0  0  0  0  0
   -4.4504   -0.5860    0.4572 C   0  0  0  0  0  0  0  0  0  0  0  0
   -5.2990    0.0264   -0.6617 C   0  0  0  0  0  0  0  0  0  0  0  0
   -6.7172   -0.2228   -0.4596 C   0  0  0  0  0  0  0  0  0  0  0  0
   -7.8359   -0.4287   -0.2835 N   0  0  0  0  0  0  0  0  0  0  0  0
    1.3933   -4.6117   -1.2636 H   0  0  0  0  0  0  0  0  0  0  0  0
    0.7191   -3.0268   -1.6086 H   0  0  0  0  0  0  0  0  0  0  0  0
    2.4040   -3.3605   -2.0126 H   0  0  0  0  0  0  0  0  0  0  0  0
    1.2628   -3.2931    0.8258 H   0  0  0  0  0  0  0  0  0  0  0  0
    3.1119   -4.6479    0.4923 H   0  0  0  0  0  0  0  0  0  0  0  0
    5.3048    1.0822   -0.1071 H   0  0  0  0  0  0  0  0  0  0  0  0
   -0.7058    2.3448    0.1670 H   0  0  0  0  0  0  0  0  0  0  0  0
    0.0812    4.8844    0.0519 H   0  0  0  0  0  0  0  0  0  0  0  0
   -0.2025   -2.0348    0.2379 H   0  0  0  0  0  0  0  0  0  0  0  0
   -0.2052   -0.8651    2.3538 H   0  0  0  0  0  0  0  0  0  0  0  0
   -0.5938    0.6579    1.5826 H   0  0  0  0  0  0  0  0  0  0  0  0
   -2.3394   -1.8452    1.6323 H   0  0  0  0  0  0  0  0  0  0  0  0
   -2.6438   -0.3346    2.4675 H   0  0  0  0  0  0  0  0  0  0  0  0
   -2.8687    0.8479    0.3083 H   0  0  0  0  0  0  0  0  0  0  0  0
   -2.4737   -1.8946   -0.9643 H   0  0  0  0  0  0  0  0  0  0  0  0
   -2.8352   -0.4144   -1.8304 H   0  0  0  0  0  0  0  0  0  0  0  0
   -0.7285    0.6031   -1.1699 H   0  0  0  0  0  0  0  0  0  0  0  0
   -0.4154   -0.9457   -1.9204 H   0  0  0  0  0  0  0  0  0  0  0  0
   -4.5819   -1.6713    0.4608 H   0  0  0  0  0  0  0  0  0  0  0  0
   -4.8198   -0.2192    1.4178 H   0  0  0  0  0  0  0  0  0  0  0  0
   -5.1506    1.1075   -0.7108 H   0  0  0  0  0  0  0  0  0  0  0  0
   -5.0292   -0.3778   -1.6386 H   0  0  0  0  0  0  0  0  0  0  0  0
    2.5773    4.9368   -0.0902 H   0  0  0  0  0  0  0  0  0  0  0  0
  1  2  1  0
  8  4  2  0
  8  7  1  0
  2  4  1  0
  2  3  1  0
  9  7  2  0
  9 10  1  0
  4  5  1  0
  7  6  1  0
 21 20  1  0
 21 16  1  0
 10 11  2  0
 25 24  3  0
  5  6  1  0
  5 16  1  0
  6 12  2  0
 20 19  1  0
 11 12  1  0
 11 15  1  0
 16 17  1  0
 12 13  1  0
 15 14  1  0
 24 23  1  0
 13 14  2  0
 19 22  1  0
 19 18  1  0
 17 18  1  0
 23 22  1  0
  1 26  1  0
  1 27  1  0
  1 28  1  0
  2 29  1  1
  3 30  1  0
  9 31  1  0
 13 32  1  0
 14 33  1  0
 16 34  1  1
 17 35  1  0
 17 36  1  0
 18 37  1  0
 18 38  1  0
 19 39  1  6
 20 40  1  0
 20 41  1  0
 21 42  1  0
 21 43  1  0
 22 44  1  0
 22 45  1  0
 23 46  1  0
 23 47  1  0
 15 48  1  0
M  END
