
     RDKit          3D

 36 36  0  0  0  0  0  0  0  0999 V2000
   -7.1701   -0.7610    1.2832 C   0  0  0  0  0  0  0  0  0  0  0  0
   -6.2472   -0.1239    0.2537 C   0  0  0  0  0  0  0  0  0  0  0  0
   -4.7740   -0.4071    0.5240 C   0  0  0  0  0  0  0  0  0  0  0  0
   -3.8441    0.2091   -0.5133 C   0  0  0  0  0  0  0  0  0  0  0  0
   -2.3702   -0.0153   -0.2013 C   0  0  0  0  0  0  0  0  0  0  0  0
   -1.4458    0.5947   -1.2584 C   0  0  0  0  0  0  0  0  0  0  0  0
   -0.0020    0.4716   -0.8723 C   0  0  0  0  0  0  0  0  0  0  0  0
    0.6244    1.4787   -0.1366 C   0  0  0  0  0  0  0  0  0  0  0  0
    1.9407    1.3552    0.2639 C   0  0  0  0  0  0  0  0  0  0  0  0
    0.7358   -0.6655   -1.1903 C   0  0  0  0  0  0  0  0  0  0  0  0
    2.0536   -0.8003   -0.7815 C   0  0  0  0  0  0  0  0  0  0  0  0
    2.6778    0.2086   -0.0463 C   0  0  0  0  0  0  0  0  0  0  0  0
    4.0923    0.1309    0.4027 C   0  0  0  0  0  0  0  0  0  0  0  0
    4.6432    1.1099    0.8731 O   0  0  0  0  0  0  0  0  0  0  0  0
    4.8153   -1.1596    0.2817 C   0  0  0  0  0  0  0  0  0  0  0  0
    6.1136   -1.2577    0.5583 C   0  0  0  0  0  0  0  0  0  0  0  0
   -6.9457   -0.4030    2.2898 H   0  0  0  0  0  0  0  0  0  0  0  0
   -8.2173   -0.5351    1.0791 H   0  0  0  0  0  0  0  0  0  0  0  0
   -7.0616   -1.8473    1.2896 H   0  0  0  0  0  0  0  0  0  0  0  0
   -6.5087   -0.4864   -0.7452 H   0  0  0  0  0  0  0  0  0  0  0  0
   -6.4075    0.9585    0.2345 H   0  0  0  0  0  0  0  0  0  0  0  0
   -4.5106   -0.0282    1.5176 H   0  0  0  0  0  0  0  0  0  0  0  0
   -4.6129   -1.4903    0.5606 H   0  0  0  0  0  0  0  0  0  0  0  0
   -4.0770   -0.2034   -1.5010 H   0  0  0  0  0  0  0  0  0  0  0  0
   -4.0363    1.2857   -0.5814 H   0  0  0  0  0  0  0  0  0  0  0  0
   -2.1337    0.4184    0.7754 H   0  0  0  0  0  0  0  0  0  0  0  0
   -2.1668   -1.0877   -0.1175 H   0  0  0  0  0  0  0  0  0  0  0  0
   -1.6208    0.1030   -2.2189 H   0  0  0  0  0  0  0  0  0  0  0  0
   -1.7007    1.6494   -1.3927 H   0  0  0  0  0  0  0  0  0  0  0  0
    0.2752   -1.4594   -1.7662 H   0  0  0  0  0  0  0  0  0  0  0  0
    2.5849   -1.6991   -1.0628 H   0  0  0  0  0  0  0  0  0  0  0  0
    2.4031    2.1544    0.8275 H   0  0  0  0  0  0  0  0  0  0  0  0
    0.0716    2.3745    0.1212 H   0  0  0  0  0  0  0  0  0  0  0  0
    4.2736   -2.0428   -0.0268 H   0  0  0  0  0  0  0  0  0  0  0  0
    6.7008   -0.4035    0.8700 H   0  0  0  0  0  0  0  0  0  0  0  0
    6.6296   -2.2043    0.4764 H   0  0  0  0  0  0  0  0  0  0  0  0
  1  2  1  0
  1 17  1  0
  1 18  1  0
  1 19  1  0
  2  3  1  0
  2 20  1  0
  2 21  1  0
  3  4  1  0
  3 22  1  0
  3 23  1  0
  4  5  1  0
  4 24  1  0
  4 25  1  0
  5  6  1  0
  5 26  1  0
  5 27  1  0
  6  7  1  0
  6 28  1  0
  6 29  1  0
  7 10  2  0
  7  8  1  0
  8  9  2  0
  8 33  1  0
  9 12  1  0
  9 32  1  0
 10 11  1  0
 10 30  1  0
 11 12  2  0
 11 31  1  0
 12 13  1  0
 13 14  2  0
 13 15  1  0
 15 16  2  0
 15 34  1  0
 16 35  1  0
 16 36  1  0
M  END
