
     RDKit          3D

 59 62  0  0  0  0  0  0  0  0999 V2000
    2.8793    3.3097   -0.3808 O   0  0  0  0  0  0  0  0  0  0  0  0
    3.5168    2.3568    0.0182 C   0  0  0  0  0  0  0  0  0  0  0  0
    4.2257    2.4265    1.1937 N   0  0  0  0  0  0  0  0  0  0  0  0
    4.9765    1.4435    1.7877 C   0  0  0  0  0  0  0  0  0  0  0  0
    5.5588    1.6449    2.8340 O   0  0  0  0  0  0  0  0  0  0  0  0
    4.9916    0.1815    1.0526 C   0  0  0  0  0  0  0  0  0  0  0  0
    5.7112   -0.9009    1.5564 C   0  0  0  0  0  0  0  0  0  0  0  0
    5.7372   -2.1012    0.8792 C   0  0  0  0  0  0  0  0  0  0  0  0
    5.0298   -2.2159   -0.3141 C   0  0  0  0  0  0  0  0  0  0  0  0
    4.3110   -1.1533   -0.8291 C   0  0  0  0  0  0  0  0  0  0  0  0
    4.2858    0.0689   -0.1511 C   0  0  0  0  0  0  0  0  0  0  0  0
    3.5825    1.1598   -0.6502 N   0  0  0  0  0  0  0  0  0  0  0  0
    2.8897    1.0562   -1.9258 C   0  0  0  0  0  0  0  0  0  0  0  0
    1.6231    0.2406   -1.8609 C   0  0  0  0  0  0  0  0  0  0  0  0
    0.7754    0.3000   -0.7617 C   0  0  0  0  0  0  0  0  0  0  0  0
    1.2735   -0.5673   -2.9377 C   0  0  0  0  0  0  0  0  0  0  0  0
    0.1001   -1.3055   -2.9263 C   0  0  0  0  0  0  0  0  0  0  0  0
   -0.7178   -1.2219   -1.8193 C   0  0  0  0  0  0  0  0  0  0  0  0
   -1.8509   -1.9411   -1.7842 F   0  0  0  0  0  0  0  0  0  0  0  0
   -0.4117   -0.4214   -0.7336 C   0  0  0  0  0  0  0  0  0  0  0  0
   -1.2655   -0.4267    0.5021 C   0  0  0  0  0  0  0  0  0  0  0  0
   -0.8761   -1.0440    1.4835 O   0  0  0  0  0  0  0  0  0  0  0  0
   -2.4119    0.2668    0.4587 N   0  0  0  0  0  0  0  0  0  0  0  0
   -3.3504    0.2503    1.5613 C   0  0  0  0  0  0  0  0  0  0  0  0
   -4.7233   -0.2492    1.1132 C   0  0  1  0  0  0  0  0  0  0  0  0
   -5.6515   -0.2185    2.3214 C   0  0  0  0  0  0  0  0  0  0  0  0
   -2.8948    1.0571   -0.6543 C   0  0  0  0  0  0  0  0  0  0  0  0
   -4.2560    0.5550   -1.0933 C   0  0  0  0  0  0  0  0  0  0  0  0
   -5.2093    0.5714    0.0039 N   0  0  0  0  0  0  0  0  0  0  0  0
   -6.5350    0.1740   -0.4496 C   0  0  0  0  0  0  0  0  0  0  0  0
   -7.1629    1.1345   -1.4527 C   0  0  0  0  0  0  0  0  0  0  0  0
   -8.6060    0.7534   -1.7539 C   0  0  0  0  0  0  0  0  0  0  0  0
    4.1788    3.3190    1.6699 H   0  0  0  0  0  0  0  0  0  0  0  0
    6.2511   -0.7833    2.4862 H   0  0  0  0  0  0  0  0  0  0  0  0
    6.2968   -2.9399    1.2688 H   0  0  0  0  0  0  0  0  0  0  0  0
    5.0328   -3.1520   -0.8567 H   0  0  0  0  0  0  0  0  0  0  0  0
    3.7722   -1.3007   -1.7524 H   0  0  0  0  0  0  0  0  0  0  0  0
    2.6612    2.0665   -2.2577 H   0  0  0  0  0  0  0  0  0  0  0  0
    3.5731    0.6406   -2.6673 H   0  0  0  0  0  0  0  0  0  0  0  0
    1.0250    0.9192    0.0914 H   0  0  0  0  0  0  0  0  0  0  0  0
    1.9288   -0.6328   -3.7979 H   0  0  0  0  0  0  0  0  0  0  0  0
   -0.1664   -1.9439   -3.7582 H   0  0  0  0  0  0  0  0  0  0  0  0
   -2.9709   -0.3888    2.3545 H   0  0  0  0  0  0  0  0  0  0  0  0
   -3.4462    1.2651    1.9636 H   0  0  0  0  0  0  0  0  0  0  0  0
   -4.6005   -1.2995    0.7905 H   0  0  0  0  0  0  0  0  0  0  0  0
   -5.9252    0.8073    2.5735 H   0  0  0  0  0  0  0  0  0  0  0  0
   -6.5660   -0.7881    2.1668 H   0  0  0  0  0  0  0  0  0  0  0  0
   -5.1493   -0.6569    3.1846 H   0  0  0  0  0  0  0  0  0  0  0  0
   -2.9778    2.0989   -0.3298 H   0  0  0  0  0  0  0  0  0  0  0  0
   -2.1982    1.0349   -1.4884 H   0  0  0  0  0  0  0  0  0  0  0  0
   -4.6047    1.2078   -1.8937 H   0  0  0  0  0  0  0  0  0  0  0  0
   -4.1500   -0.4553   -1.5226 H   0  0  0  0  0  0  0  0  0  0  0  0
   -6.5229   -0.8441   -0.8779 H   0  0  0  0  0  0  0  0  0  0  0  0
   -7.1990    0.1359    0.4145 H   0  0  0  0  0  0  0  0  0  0  0  0
   -7.1203    2.1489   -1.0468 H   0  0  0  0  0  0  0  0  0  0  0  0
   -6.6010    1.1498   -2.3889 H   0  0  0  0  0  0  0  0  0  0  0  0
   -9.0461    1.4265   -2.4897 H   0  0  0  0  0  0  0  0  0  0  0  0
   -8.6720   -0.2598   -2.1545 H   0  0  0  0  0  0  0  0  0  0  0  0
   -9.2250    0.7940   -0.8560 H   0  0  0  0  0  0  0  0  0  0  0  0
 19 18  1  0
 18 17  2  0
 18 20  1  0
 17 16  1  0
 32 31  1  0
 24 23  1  0
 24 25  1  0
 22 21  2  0
 28 27  1  0
 28 29  1  0
 23 21  1  0
 23 27  1  0
 21 20  1  0
 30 31  1  0
 30 29  1  0
 20 15  2  0
 16 14  2  0
 29 25  1  0
 25 26  1  0
 15 14  1  0
 14 13  1  0
  9 10  2  0
  9  8  1  0
 10 11  1  0
  8  7  2  0
 13 12  1  0
 11 12  1  0
 11  6  2  0
 12  2  1  0
  7  6  1  0
  6  4  1  0
  2  1  2  0
  2  3  1  0
  4  3  1  0
  4  5  2  0
  3 33  1  0
  7 34  1  0
  8 35  1  0
  9 36  1  0
 10 37  1  0
 13 38  1  0
 13 39  1  0
 15 40  1  0
 16 41  1  0
 17 42  1  0
 24 43  1  0
 24 44  1  0
 25 45  1  6
 26 46  1  0
 26 47  1  0
 26 48  1  0
 27 49  1  0
 27 50  1  0
 28 51  1  0
 28 52  1  0
 30 53  1  0
 30 54  1  0
 31 55  1  0
 31 56  1  0
 32 57  1  0
 32 58  1  0
 32 59  1  0
M  END
