
     RDKit          3D

 19 19  0  0  0  0  0  0  0  0999 V2000
    3.6682   -3.7025    3.1551 C   0  0  0  0  0  0  0  0  0  0  0  0
    4.0442   -2.3584    2.5815 C   0  0  0  0  0  0  0  0  0  0  0  0
    2.9117   -1.6889    1.8672 C   0  0  0  0  0  0  0  0  0  0  0  0
    1.8154   -1.2105    2.5913 C   0  0  0  0  0  0  0  0  0  0  0  0
    0.7666   -0.5708    1.9394 C   0  0  0  0  0  0  0  0  0  0  0  0
    0.8046   -0.4047    0.5614 C   0  0  0  0  0  0  0  0  0  0  0  0
    1.8845   -0.8728   -0.1713 C   0  0  0  0  0  0  0  0  0  0  0  0
    2.9266   -1.5107    0.4911 C   0  0  0  0  0  0  0  0  0  0  0  0
    1.8366   -1.3976    3.9262 O   0  0  0  0  0  0  0  0  0  0  0  0
    2.6790   -4.3269    2.8707 O   0  0  0  0  0  0  0  0  0  0  0  0
    4.5906   -4.1431    4.0041 O   0  0  0  0  0  0  0  0  0  0  0  0
    4.4461   -1.7296    3.3801 H   0  0  0  0  0  0  0  0  0  0  0  0
    4.8747   -2.5232    1.8884 H   0  0  0  0  0  0  0  0  0  0  0  0
   -0.0794   -0.1988    2.5064 H   0  0  0  0  0  0  0  0  0  0  0  0
   -0.0172    0.0953    0.0655 H   0  0  0  0  0  0  0  0  0  0  0  0
    1.9193   -0.7438   -1.2447 H   0  0  0  0  0  0  0  0  0  0  0  0
    3.7753   -1.8801   -0.0726 H   0  0  0  0  0  0  0  0  0  0  0  0
    1.0427   -1.0321    4.3325 H   0  0  0  0  0  0  0  0  0  0  0  0
    4.3462   -5.0219    4.3303 H   0  0  0  0  0  0  0  0  0  0  0  0
  1  2  1  0
  1 10  2  0
  1 11  1  0
  2  3  1  0
  2 12  1  0
  2 13  1  0
  3  4  2  0
  3  8  1  0
  4  5  1  0
  4  9  1  0
  5  6  2  0
  5 14  1  0
  6  7  1  0
  6 15  1  0
  7  8  2  0
  7 16  1  0
  8 17  1  0
  9 18  1  0
 11 19  1  0
M  END
