
     RDKit          3D

 17 17  0  0  0  0  0  0  0  0999 V2000
   -4.4539   -0.7076    0.4618 N   0  0  0  0  0  0  0  0  0  0  0  0
   -3.7612    0.2800   -0.3426 C   0  0  0  0  0  0  0  0  0  0  0  0
   -2.2607    0.1637   -0.2399 C   0  0  0  0  0  0  0  0  0  0  0  0
   -1.6393   -1.0091    0.1751 C   0  0  0  0  0  0  0  0  0  0  0  0
   -0.2549   -1.1072    0.2361 C   0  0  0  0  0  0  0  0  0  0  0  0
    0.5174   -0.0155   -0.1270 C   0  0  0  0  0  0  0  0  0  0  0  0
   -0.0744    1.1686   -0.5426 C   0  0  0  0  0  0  0  0  0  0  0  0
   -1.4578    1.2467   -0.5905 C   0  0  0  0  0  0  0  0  0  0  0  0
    2.4033   -0.1358   -0.0471 Br  0  0  0  0  0  0  0  0  0  0  0  0
   -4.3663   -0.4722    1.4425 H   0  0  0  0  0  0  0  0  0  0  0  0
   -5.4427   -0.6719    0.2529 H   0  0  0  0  0  0  0  0  0  0  0  0
   -4.0452    0.1204   -1.3871 H   0  0  0  0  0  0  0  0  0  0  0  0
   -4.0419    1.3174   -0.1150 H   0  0  0  0  0  0  0  0  0  0  0  0
   -2.2415   -1.8608    0.4613 H   0  0  0  0  0  0  0  0  0  0  0  0
    0.2033   -2.0300    0.5663 H   0  0  0  0  0  0  0  0  0  0  0  0
    0.5232    2.0259   -0.8222 H   0  0  0  0  0  0  0  0  0  0  0  0
   -1.9162    2.1756   -0.9088 H   0  0  0  0  0  0  0  0  0  0  0  0
  1  2  1  0
  1 10  1  0
  1 11  1  0
  2  3  1  0
  2 12  1  0
  2 13  1  0
  3  4  2  0
  3  8  1  0
  4  5  1  0
  4 14  1  0
  5  6  2  0
  5 15  1  0
  6  7  1  0
  6  9  1  0
  7  8  2  0
  7 16  1  0
  8 17  1  0
M  END
