
     RDKit          3D

 45 47  0  0  0  0  0  0  0  0999 V2000
    8.1860    0.9021   -1.2873 C   0  0  0  0  0  0  0  0  0  0  0  0
    7.4614    1.9247   -1.8860 C   0  0  0  0  0  0  0  0  0  0  0  0
    6.1225    2.0929   -1.5591 C   0  0  0  0  0  0  0  0  0  0  0  0
    5.5079    1.2542   -0.6393 C   0  0  0  0  0  0  0  0  0  0  0  0
    6.2348    0.2249   -0.0491 C   0  0  0  0  0  0  0  0  0  0  0  0
    7.5779    0.0496   -0.3777 C   0  0  0  0  0  0  0  0  0  0  0  0
    5.5564   -0.8746    1.1635 S   0  0  0  0  0  0  0  0  0  0  0  0
    3.8152   -0.7586    0.8857 C   0  0  0  0  0  0  0  0  0  0  0  0
    3.2310   -1.3369   -0.2389 C   0  0  0  0  0  0  0  0  0  0  0  0
    1.8652   -1.2702   -0.4224 C   0  0  0  0  0  0  0  0  0  0  0  0
    1.0436   -0.6443    0.5218 C   0  0  0  0  0  0  0  0  0  0  0  0
    1.6257   -0.0755    1.6544 C   0  0  0  0  0  0  0  0  0  0  0  0
    3.0028   -0.1331    1.8208 C   0  0  0  0  0  0  0  0  0  0  0  0
   -0.3254   -0.6448    0.2525 N   0  0  0  0  0  0  0  0  0  0  0  0
   -1.3376   -0.0769    0.9522 C   0  0  0  0  0  0  0  0  0  0  0  0
   -1.2021    0.5717    1.9709 O   0  0  0  0  0  0  0  0  0  0  0  0
   -2.6969   -0.3388    0.3392 C   0  0  0  0  0  0  0  0  0  0  0  0
   -3.9062    0.6631    1.2305 S   0  0  0  0  0  0  0  0  0  0  0  0
   -5.3780    0.2702    0.3549 C   0  0  0  0  0  0  0  0  0  0  0  0
   -6.4402    0.9098    0.8227 N   0  0  0  0  0  0  0  0  0  0  0  0
   -7.5982    0.6657    0.2161 C   0  0  0  0  0  0  0  0  0  0  0  0
   -7.6680   -0.2217   -0.8531 C   0  0  0  0  0  0  0  0  0  0  0  0
   -6.4967   -0.8385   -1.2638 C   0  0  0  0  0  0  0  0  0  0  0  0
   -5.3393   -0.5852   -0.6475 N   0  0  0  0  0  0  0  0  0  0  0  0
   -6.4628   -1.8058   -2.4004 C   0  0  0  0  0  0  0  0  0  0  0  0
   -8.8024    1.3878    0.7233 C   0  0  0  0  0  0  0  0  0  0  0  0
    9.2292    0.7564   -1.5360 H   0  0  0  0  0  0  0  0  0  0  0  0
    7.9362    2.5825   -2.6019 H   0  0  0  0  0  0  0  0  0  0  0  0
    5.5468    2.8870   -2.0167 H   0  0  0  0  0  0  0  0  0  0  0  0
    4.4664    1.4064   -0.3886 H   0  0  0  0  0  0  0  0  0  0  0  0
    8.1490   -0.7547    0.0701 H   0  0  0  0  0  0  0  0  0  0  0  0
    3.8440   -1.8365   -0.9777 H   0  0  0  0  0  0  0  0  0  0  0  0
    1.4262   -1.7169   -1.3065 H   0  0  0  0  0  0  0  0  0  0  0  0
    1.0298    0.4155    2.4053 H   0  0  0  0  0  0  0  0  0  0  0  0
    3.4427    0.3214    2.6987 H   0  0  0  0  0  0  0  0  0  0  0  0
   -0.5904   -1.1356   -0.5892 H   0  0  0  0  0  0  0  0  0  0  0  0
   -2.7016   -0.0902   -0.7228 H   0  0  0  0  0  0  0  0  0  0  0  0
   -2.9415   -1.3994    0.4262 H   0  0  0  0  0  0  0  0  0  0  0  0
   -8.6082   -0.4235   -1.3470 H   0  0  0  0  0  0  0  0  0  0  0  0
   -5.8128   -1.4347   -3.1940 H   0  0  0  0  0  0  0  0  0  0  0  0
   -6.0565   -2.7631   -2.0726 H   0  0  0  0  0  0  0  0  0  0  0  0
   -7.4536   -1.9719   -2.8176 H   0  0  0  0  0  0  0  0  0  0  0  0
   -8.7180    2.4544    0.5091 H   0  0  0  0  0  0  0  0  0  0  0  0
   -9.7164    1.0200    0.2625 H   0  0  0  0  0  0  0  0  0  0  0  0
   -8.8855    1.2812    1.8046 H   0  0  0  0  0  0  0  0  0  0  0  0
  4  3  2  0
  4  5  1  0
  3  2  1  0
  7  5  1  0
  7  8  1  0
  5  6  2  0
  2  1  2  0
  9  8  2  0
  9 10  1  0
  6  1  1  0
  8 13  1  0
 10 11  2  0
 25 23  1  0
 13 12  2  0
 11 12  1  0
 11 14  1  0
 23 22  2  0
 23 24  1  0
 22 21  1  0
 14 15  1  0
 24 19  2  0
 21 26  1  0
 21 20  2  0
 15 16  2  0
 15 17  1  0
 19 20  1  0
 19 18  1  0
 17 18  1  0
  1 27  1  0
  2 28  1  0
  3 29  1  0
  4 30  1  0
  6 31  1  0
  9 32  1  0
 10 33  1  0
 12 34  1  0
 13 35  1  0
 14 36  1  0
 17 37  1  0
 17 38  1  0
 22 39  1  0
 25 40  1  0
 25 41  1  0
 25 42  1  0
 26 43  1  0
 26 44  1  0
 26 45  1  0
M  END
