
     RDKit          3D

 25 25  0  0  0  0  0  0  0  0999 V2000
    1.3261    0.2365   -0.6846 C   0  0  2  0  0  0  0  0  0  0  0  0
    2.0439   -0.8838    0.0698 C   0  0  0  0  0  0  0  0  0  0  0  0
    3.0716    1.0587    0.7105 C   0  0  0  0  0  0  0  0  0  0  0  0
    2.3196    1.3836   -0.5744 C   0  0  0  0  0  0  0  0  0  0  0  0
    1.7971   -2.0570    0.0592 O   0  0  0  0  0  0  0  0  0  0  0  0
    0.0639    0.5152   -0.0444 N   0  0  0  0  0  0  0  0  0  0  0  0
   -1.1085   -0.0279   -0.4451 C   0  0  0  0  0  0  0  0  0  0  0  0
   -1.1840   -0.8041   -1.3825 O   0  0  0  0  0  0  0  0  0  0  0  0
   -2.3085    0.4267    0.3584 C   0  0  0  0  0  0  0  0  0  0  0  0
   -3.6278   -0.1708   -0.1049 C   0  0  0  0  0  0  0  0  0  0  0  0
   -4.7952    0.3417    0.7272 C   0  0  0  0  0  0  0  0  0  0  0  0
    3.0172   -0.3732    0.8209 O   0  0  0  0  0  0  0  0  0  0  0  0
    1.1396   -0.0692   -1.7129 H   0  0  0  0  0  0  0  0  0  0  0  0
    4.1168    1.3577    0.6888 H   0  0  0  0  0  0  0  0  0  0  0  0
    2.6008    1.4931    1.5943 H   0  0  0  0  0  0  0  0  0  0  0  0
    2.9986    1.3546   -1.4264 H   0  0  0  0  0  0  0  0  0  0  0  0
    1.8480    2.3647   -0.5509 H   0  0  0  0  0  0  0  0  0  0  0  0
    0.0578    1.1441    0.7442 H   0  0  0  0  0  0  0  0  0  0  0  0
   -2.1352    0.1826    1.4116 H   0  0  0  0  0  0  0  0  0  0  0  0
   -2.3576    1.5198    0.3160 H   0  0  0  0  0  0  0  0  0  0  0  0
   -3.7933    0.0712   -1.1567 H   0  0  0  0  0  0  0  0  0  0  0  0
   -3.5835   -1.2602   -0.0419 H   0  0  0  0  0  0  0  0  0  0  0  0
   -4.6698    0.0960    1.7833 H   0  0  0  0  0  0  0  0  0  0  0  0
   -4.8908    1.4265    0.6519 H   0  0  0  0  0  0  0  0  0  0  0  0
   -5.7368   -0.0969    0.3963 H   0  0  0  0  0  0  0  0  0  0  0  0
  1  2  1  0
  1  4  1  0
  1  6  1  0
  2  5  2  0
  2 12  1  0
  3  4  1  0
  3 12  1  0
  6  7  1  0
  7  8  2  0
  7  9  1  0
  9 10  1  0
 10 11  1  0
  1 13  1  6
  3 14  1  0
  3 15  1  0
  4 16  1  0
  4 17  1  0
  6 18  1  0
  9 19  1  0
  9 20  1  0
 10 21  1  0
 10 22  1  0
 11 23  1  0
 11 24  1  0
 11 25  1  0
M  END
