
     RDKit          3D

 68 74  0  0  0  0  0  0  0  0999 V2000
   -2.0670    0.6635   -0.1624 N   0  0  0  0  0  0  0  0  0  0  0  0
    5.5597    2.6983    0.0268 N   0  0  0  0  0  0  0  0  0  0  0  0
    1.3834    1.1773   -0.3014 C   0  0  0  0  0  0  0  0  0  0  0  0
    0.2725    0.4177   -0.6357 C   0  0  0  0  0  0  0  0  0  0  0  0
    0.3791   -0.9813   -0.7728 C   0  0  0  0  0  0  0  0  0  0  0  0
   -2.5991   -1.2989   -3.0748 C   0  0  0  0  0  0  0  0  0  0  0  0
   -1.4490   -2.5143   -0.1022 C   0  0  0  0  0  0  0  0  0  0  0  0
   -1.0269    1.0876   -0.8668 C   0  0  0  0  0  0  0  0  0  0  0  0
   -6.5600    0.9097    0.9601 C   0  0  0  0  0  0  0  0  0  0  0  0
   -4.5181    0.0519    1.5670 C   0  0  0  0  0  0  0  0  0  0  0  0
   -8.0236   -0.2491    2.9963 C   0  0  0  0  0  0  0  0  0  0  0  0
   -5.7654    2.0284   -1.1669 C   0  0  0  0  0  0  0  0  0  0  0  0
   -3.4453    2.2744   -1.2660 C   0  0  0  0  0  0  0  0  0  0  0  0
   -2.3634    2.7279   -1.9995 C   0  0  0  0  0  0  0  0  0  0  0  0
    6.0672   -0.4746    0.6526 C   0  0  0  0  0  0  0  0  0  0  0  0
    8.0963   -1.7262    0.2591 C   0  0  0  0  0  0  0  0  0  0  0  0
    8.0244   -0.0512    2.0050 C   0  0  0  0  0  0  0  0  0  0  0  0
    3.5546    3.1586    0.9456 O   0  0  0  0  0  0  0  0  0  0  0  0
    6.0847    4.0341    0.1829 C   0  0  0  0  0  0  0  0  0  0  0  0
    3.9359    0.9458    0.2512 C   0  0  0  0  0  0  0  0  0  0  0  0
    2.5985    0.5320   -0.0805 C   0  0  0  0  0  0  0  0  0  0  0  0
   -0.7661   -1.7381   -1.1267 N   0  0  0  0  0  0  0  0  0  0  0  0
   -1.0419   -2.0787   -2.7159 S   0  0  1  0  0  0  0  0  0  0  0  0
   -1.2321   -3.5147   -2.8751 O   0  0  0  0  0  0  0  0  0  0  0  0
    0.0007   -1.4098   -3.4777 O   0  0  0  0  0  0  0  0  0  0  0  0
    1.5815   -1.6369   -0.5632 C   0  0  0  0  0  0  0  0  0  0  0  0
    2.6612   -0.8518   -0.2131 C   0  0  0  0  0  0  0  0  0  0  0  0
    3.9156   -1.2848    0.0355 O   0  0  0  0  0  0  0  0  0  0  0  0
    4.6747   -0.1976    0.3197 C   0  0  0  0  0  0  0  0  0  0  0  0
    6.7034    0.2132    1.6871 C   0  0  0  0  0  0  0  0  0  0  0  0
    8.6984   -1.0168    1.2809 C   0  0  0  0  0  0  0  0  0  0  0  0
    9.9755   -1.2786    1.5843 F   0  0  0  0  0  0  0  0  0  0  0  0
    6.7751   -1.4520   -0.0503 C   0  0  0  0  0  0  0  0  0  0  0  0
   -1.1351    2.1221   -1.7965 C   0  0  0  0  0  0  0  0  0  0  0  0
   -3.2474    1.2356   -0.3481 C   0  0  0  0  0  0  0  0  0  0  0  0
   -4.6564    2.8641   -1.4032 O   0  0  0  0  0  0  0  0  0  0  0  0
   -5.6031    1.3540    0.0943 N   0  0  0  0  0  0  0  0  0  0  0  0
   -7.9346    1.1451    1.0002 C   0  0  0  0  0  0  0  0  0  0  0  0
   -8.6446    0.5586    2.0281 C   0  0  0  0  0  0  0  0  0  0  0  0
   -6.6717   -0.4674    2.9227 C   0  0  0  0  0  0  0  0  0  0  0  0
   -6.0595   -1.2382    3.8348 F   0  0  0  0  0  0  0  0  0  0  0  0
   -5.9002    0.0945    1.9083 C   0  0  0  0  0  0  0  0  0  0  0  0
   -4.3841    0.8265    0.4498 C   0  0  0  0  0  0  0  0  0  0  0  0
    6.1141    2.0278   -0.4787 H   0  0  0  0  0  0  0  0  0  0  0  0
    1.2984    2.2497   -0.1923 H   0  0  0  0  0  0  0  0  0  0  0  0
   -3.3637   -1.6735   -2.3982 H   0  0  0  0  0  0  0  0  0  0  0  0
   -2.4958   -0.2220   -2.9706 H   0  0  0  0  0  0  0  0  0  0  0  0
   -2.8661   -1.5489   -4.1004 H   0  0  0  0  0  0  0  0  0  0  0  0
   -1.5499   -1.8928    0.7834 H   0  0  0  0  0  0  0  0  0  0  0  0
   -2.4553   -2.7767   -0.4251 H   0  0  0  0  0  0  0  0  0  0  0  0
   -0.9135   -3.4299    0.1524 H   0  0  0  0  0  0  0  0  0  0  0  0
   -3.7232   -0.4552    2.0884 H   0  0  0  0  0  0  0  0  0  0  0  0
   -8.6056   -0.6967    3.7911 H   0  0  0  0  0  0  0  0  0  0  0  0
   -6.6481    2.6623   -1.1431 H   0  0  0  0  0  0  0  0  0  0  0  0
   -5.8631    1.2987   -1.9786 H   0  0  0  0  0  0  0  0  0  0  0  0
   -2.4788    3.5317   -2.7149 H   0  0  0  0  0  0  0  0  0  0  0  0
    8.6494   -2.4773   -0.2884 H   0  0  0  0  0  0  0  0  0  0  0  0
    8.5169    0.4764    2.8106 H   0  0  0  0  0  0  0  0  0  0  0  0
    7.1319    4.0251   -0.1044 H   0  0  0  0  0  0  0  0  0  0  0  0
    5.5605    4.7562   -0.4449 H   0  0  0  0  0  0  0  0  0  0  0  0
    6.0154    4.3655    1.2183 H   0  0  0  0  0  0  0  0  0  0  0  0
    1.6636   -2.7099   -0.6789 H   0  0  0  0  0  0  0  0  0  0  0  0
    6.1618    0.9458    2.2699 H   0  0  0  0  0  0  0  0  0  0  0  0
    6.3031   -1.9973   -0.8567 H   0  0  0  0  0  0  0  0  0  0  0  0
   -0.2722    2.4383   -2.3665 H   0  0  0  0  0  0  0  0  0  0  0  0
   -8.4342    1.7600    0.2640 H   0  0  0  0  0  0  0  0  0  0  0  0
   -9.7116    0.7218    2.0960 H   0  0  0  0  0  0  0  0  0  0  0  0
    4.3353    2.3580    0.4457 C   0  0  0  0  0  0  0  0  0  0  0  0
 41 40  1  0
  6 23  1  0
 11 40  1  0
 11 39  2  0
 40 42  2  0
 25 23  2  0
 23 24  2  0
 23 22  1  1
 39 38  1  0
 42 10  1  0
 42  9  1  0
 10 43  2  0
 22  7  1  0
 22  5  1  0
 38  9  2  0
  9 37  1  0
 26  5  2  0
 26 27  1  0
 43 37  1  0
 43 35  1  0
  5  4  1  0
 17 30  2  0
 17 31  1  0
 30 15  1  0
 28 27  1  0
 28 29  1  0
 37 12  1  0
 27 21  2  0
  1 35  2  0
  1  8  1  0
 32 31  1  0
 35 13  1  0
 31 16  2  0
  4  8  1  0
  4  3  2  0
 15 29  1  0
 15 33  2  0
 29 20  2  0
  8 34  2  0
 21  3  1  0
 21 20  1  0
 12 36  1  0
 16 33  1  0
 13 36  1  0
 13 14  2  0
 20 68  1  0
 34 14  1  0
 68 18  2  0
 68  2  1  0
  2 19  1  0
  2 44  1  0
  3 45  1  0
  6 46  1  0
  6 47  1  0
  6 48  1  0
  7 49  1  0
  7 50  1  0
  7 51  1  0
 10 52  1  0
 11 53  1  0
 12 54  1  0
 12 55  1  0
 14 56  1  0
 16 57  1  0
 17 58  1  0
 19 59  1  0
 19 60  1  0
 19 61  1  0
 26 62  1  0
 30 63  1  0
 33 64  1  0
 34 65  1  0
 38 66  1  0
 39 67  1  0
M  END
