
     RDKit          3D

 69 69  0  0  0  0  0  0  0  0999 V2000
    2.3572   -1.4011    1.7951 O   0  0  0  0  0  0  0  0  0  0  0  0
    2.3272   -0.9644    0.6523 C   0  0  0  0  0  0  0  0  0  0  0  0
    3.3502   -1.0895   -0.2133 N   0  0  0  0  0  0  0  0  0  0  0  0
    4.5885   -1.7862    0.0661 C   0  0  1  0  0  0  0  0  0  0  0  0
    4.6343   -3.1248   -0.6559 C   0  0  0  0  0  0  0  0  0  0  0  0
    4.6015   -2.8981   -2.0461 O   0  0  0  0  0  0  0  0  0  0  0  0
    5.7904   -0.9077   -0.2808 C   0  0  0  0  0  0  0  0  0  0  0  0
    5.9069    0.3449    0.5880 C   0  0  2  0  0  0  0  0  0  0  0  0
    7.0558    1.2066    0.1039 C   0  0  0  0  0  0  0  0  0  0  0  0
    6.8677    2.0438   -0.9938 C   0  0  0  0  0  0  0  0  0  0  0  0
    7.9079    2.8192   -1.4853 C   0  0  0  0  0  0  0  0  0  0  0  0
    9.1583    2.7694   -0.8814 C   0  0  0  0  0  0  0  0  0  0  0  0
    9.3548    1.9394    0.2133 C   0  0  0  0  0  0  0  0  0  0  0  0
    8.3101    1.1652    0.7039 C   0  0  0  0  0  0  0  0  0  0  0  0
    5.9972    0.0321    1.9574 O   0  0  0  0  0  0  0  0  0  0  0  0
    1.1297   -0.2119    0.1111 C   0  0  0  0  0  0  0  0  0  0  0  0
   -0.1970   -0.7311    0.6492 C   0  0  0  0  0  0  0  0  0  0  0  0
   -1.3871    0.0078    0.0516 C   0  0  0  0  0  0  0  0  0  0  0  0
   -2.7252   -0.4914    0.5813 C   0  0  0  0  0  0  0  0  0  0  0  0
   -3.9191    0.2161   -0.0464 C   0  0  0  0  0  0  0  0  0  0  0  0
   -5.2609   -0.2813    0.4759 C   0  0  0  0  0  0  0  0  0  0  0  0
   -6.4509    0.4163   -0.1701 C   0  0  0  0  0  0  0  0  0  0  0  0
   -7.7971   -0.0783    0.3436 C   0  0  0  0  0  0  0  0  0  0  0  0
   -8.9817    0.6183   -0.3135 C   0  0  0  0  0  0  0  0  0  0  0  0
  -10.3319    0.1264    0.1922 C   0  0  0  0  0  0  0  0  0  0  0  0
  -11.5120    0.8241   -0.4718 C   0  0  0  0  0  0  0  0  0  0  0  0
  -12.8651    0.3348    0.0291 C   0  0  0  0  0  0  0  0  0  0  0  0
  -14.0359    1.0389   -0.6423 C   0  0  0  0  0  0  0  0  0  0  0  0
    3.2113   -0.7647   -1.1573 H   0  0  0  0  0  0  0  0  0  0  0  0
    4.6016   -2.0053    1.1341 H   0  0  0  0  0  0  0  0  0  0  0  0
    5.5454   -3.6552   -0.3491 H   0  0  0  0  0  0  0  0  0  0  0  0
    3.7812   -3.7300   -0.3250 H   0  0  0  0  0  0  0  0  0  0  0  0
    4.5380   -3.7481   -2.4901 H   0  0  0  0  0  0  0  0  0  0  0  0
    6.7054   -1.5023   -0.1738 H   0  0  0  0  0  0  0  0  0  0  0  0
    5.7486   -0.6093   -1.3313 H   0  0  0  0  0  0  0  0  0  0  0  0
    4.9861    0.9279    0.4804 H   0  0  0  0  0  0  0  0  0  0  0  0
    5.8929    2.0963   -1.4667 H   0  0  0  0  0  0  0  0  0  0  0  0
    7.7419    3.4675   -2.3362 H   0  0  0  0  0  0  0  0  0  0  0  0
    9.9702    3.3778   -1.2582 H   0  0  0  0  0  0  0  0  0  0  0  0
   10.3243    1.8955    0.6931 H   0  0  0  0  0  0  0  0  0  0  0  0
    8.4861    0.5345    1.5662 H   0  0  0  0  0  0  0  0  0  0  0  0
    6.6102   -0.7013    2.0744 H   0  0  0  0  0  0  0  0  0  0  0  0
    1.2499    0.8424    0.3832 H   0  0  0  0  0  0  0  0  0  0  0  0
    1.1264   -0.2407   -0.9817 H   0  0  0  0  0  0  0  0  0  0  0  0
   -0.2899   -1.7994    0.4303 H   0  0  0  0  0  0  0  0  0  0  0  0
   -0.2162   -0.6373    1.7374 H   0  0  0  0  0  0  0  0  0  0  0  0
   -1.2921    1.0803    0.2541 H   0  0  0  0  0  0  0  0  0  0  0  0
   -1.3679   -0.0959   -1.0389 H   0  0  0  0  0  0  0  0  0  0  0  0
   -2.8073   -1.5690    0.4011 H   0  0  0  0  0  0  0  0  0  0  0  0
   -2.7567   -0.3645    1.6691 H   0  0  0  0  0  0  0  0  0  0  0  0
   -3.8374    1.2942    0.1309 H   0  0  0  0  0  0  0  0  0  0  0  0
   -3.8834    0.0869   -1.1340 H   0  0  0  0  0  0  0  0  0  0  0  0
   -5.3383   -1.3612    0.3075 H   0  0  0  0  0  0  0  0  0  0  0  0
   -5.3035   -0.1423    1.5620 H   0  0  0  0  0  0  0  0  0  0  0  0
   -6.3732    1.4963   -0.0022 H   0  0  0  0  0  0  0  0  0  0  0  0
   -6.4046    0.2775   -1.2561 H   0  0  0  0  0  0  0  0  0  0  0  0
   -7.8742   -1.1588    0.1785 H   0  0  0  0  0  0  0  0  0  0  0  0
   -7.8478    0.0645    1.4288 H   0  0  0  0  0  0  0  0  0  0  0  0
   -8.9041    1.6987   -0.1478 H   0  0  0  0  0  0  0  0  0  0  0  0
   -8.9275    0.4764   -1.3988 H   0  0  0  0  0  0  0  0  0  0  0  0
  -10.4097   -0.9541    0.0278 H   0  0  0  0  0  0  0  0  0  0  0  0
  -10.3887    0.2705    1.2770 H   0  0  0  0  0  0  0  0  0  0  0  0
  -11.4340    1.9047   -0.3071 H   0  0  0  0  0  0  0  0  0  0  0  0
  -11.4539    0.6810   -1.5567 H   0  0  0  0  0  0  0  0  0  0  0  0
  -12.9424   -0.7445   -0.1356 H   0  0  0  0  0  0  0  0  0  0  0  0
  -12.9231    0.4788    1.1126 H   0  0  0  0  0  0  0  0  0  0  0  0
  -14.0019    2.1157   -0.4660 H   0  0  0  0  0  0  0  0  0  0  0  0
  -14.0219    0.8841   -1.7229 H   0  0  0  0  0  0  0  0  0  0  0  0
  -14.9929    0.6732   -0.2685 H   0  0  0  0  0  0  0  0  0  0  0  0
  1  2  2  0
  2  3  1  0
  2 16  1  0
  3  4  1  0
  4  5  1  0
  4  7  1  0
  5  6  1  0
  7  8  1  0
  8  9  1  0
  8 15  1  0
  9 10  2  0
  9 14  1  0
 10 11  1  0
 11 12  2  0
 12 13  1  0
 13 14  2  0
 16 17  1  0
 17 18  1  0
 18 19  1  0
 19 20  1  0
 20 21  1  0
 21 22  1  0
 22 23  1  0
 23 24  1  0
 24 25  1  0
 25 26  1  0
 26 27  1  0
 27 28  1  0
  3 29  1  0
  4 30  1  1
  5 31  1  0
  5 32  1  0
  6 33  1  0
  7 34  1  0
  7 35  1  0
  8 36  1  1
 10 37  1  0
 11 38  1  0
 12 39  1  0
 13 40  1  0
 14 41  1  0
 15 42  1  0
 16 43  1  0
 16 44  1  0
 17 45  1  0
 17 46  1  0
 18 47  1  0
 18 48  1  0
 19 49  1  0
 19 50  1  0
 20 51  1  0
 20 52  1  0
 21 53  1  0
 21 54  1  0
 22 55  1  0
 22 56  1  0
 23 57  1  0
 23 58  1  0
 24 59  1  0
 24 60  1  0
 25 61  1  0
 25 62  1  0
 26 63  1  0
 26 64  1  0
 27 65  1  0
 27 66  1  0
 28 67  1  0
 28 68  1  0
 28 69  1  0
M  END
