
     RDKit          3D

 24 24  0  0  0  0  0  0  0  0999 V2000
    3.1576    1.6853   -0.0702 O   0  0  0  0  0  0  0  0  0  0  0  0
    2.7453    0.3388   -0.0142 C   0  0  0  0  0  0  0  0  0  0  0  0
    1.3205    0.2463   -0.5027 C   0  0  2  0  0  0  0  0  0  0  0  0
    0.4387    0.9034    0.4023 O   0  0  0  0  0  0  0  0  0  0  0  0
   -0.7752    0.1901    0.5102 C   0  0  1  0  0  0  0  0  0  0  0  0
   -1.9625    1.1415    0.3877 C   0  0  1  0  0  0  0  0  0  0  0  0
   -1.9326    1.7125   -0.8831 O   0  0  0  0  0  0  0  0  0  0  0  0
   -3.1625    0.4747    0.6574 O   0  0  0  0  0  0  0  0  0  0  0  0
   -0.7121   -0.8912   -0.5728 C   0  0  2  0  0  0  0  0  0  0  0  0
   -1.5437   -1.9652   -0.2328 O   0  0  0  0  0  0  0  0  0  0  0  0
    0.7865   -1.1789   -0.6349 C   0  0  2  0  0  0  0  0  0  0  0  0
    1.1244   -2.0096    0.4467 O   0  0  0  0  0  0  0  0  0  0  0  0
    4.0500    1.7369    0.2834 H   0  0  0  0  0  0  0  0  0  0  0  0
    3.3675   -0.2997   -0.6570 H   0  0  0  0  0  0  0  0  0  0  0  0
    2.8125   -0.0594    1.0050 H   0  0  0  0  0  0  0  0  0  0  0  0
    1.2623    0.7258   -1.4913 H   0  0  0  0  0  0  0  0  0  0  0  0
   -0.8410   -0.2909    1.4963 H   0  0  0  0  0  0  0  0  0  0  0  0
   -2.5183    2.4767   -0.8992 H   0  0  0  0  0  0  0  0  0  0  0  0
   -3.1868   -0.3580    0.1691 H   0  0  0  0  0  0  0  0  0  0  0  0
   -0.9975   -0.4616   -1.5410 H   0  0  0  0  0  0  0  0  0  0  0  0
   -1.6534   -2.5264   -1.0070 H   0  0  0  0  0  0  0  0  0  0  0  0
    1.0839   -1.6214   -1.5932 H   0  0  0  0  0  0  0  0  0  0  0  0
    2.0170   -2.3418    0.3151 H   0  0  0  0  0  0  0  0  0  0  0  0
   -1.8843    1.9155    1.1605 H   0  0  0  0  0  0  0  0  0  0  0  0
  8  6  1  0
  7  6  1  0
  6  5  1  0
  5  4  1  0
  5  9  1  0
  4  3  1  0
  3 11  1  0
  3  2  1  0
 11  9  1  0
 11 12  1  0
  9 10  1  0
  1  2  1  0
  1 13  1  0
  2 14  1  0
  2 15  1  0
  3 16  1  6
  5 17  1  1
  7 18  1  0
  8 19  1  0
  9 20  1  6
 10 21  1  0
 11 22  1  6
 12 23  1  0
  6 24  1  1
M  END
