
     RDKit          3D

 20 22  0  0  0  0  0  0  0  0999 V2000
   -1.4521   -0.0371   -2.7602 O   0  0  0  0  0  0  0  0  0  0  0  0
   -0.7831   -0.0303   -1.7619 C   0  0  0  0  0  0  0  0  0  0  0  0
   -1.1853   -0.0227   -0.3504 C   0  0  0  0  0  0  0  0  0  0  0  0
   -2.4034   -0.0229    0.2773 C   0  0  0  0  0  0  0  0  0  0  0  0
   -0.0032   -0.0156    0.4154 C   0  0  0  0  0  0  0  0  0  0  0  0
    1.1805   -0.0171   -0.3481 C   0  0  0  0  0  0  0  0  0  0  0  0
    0.7811   -0.0276   -1.7602 C   0  0  0  0  0  0  0  0  0  0  0  0
    1.4521   -0.0350   -2.7572 O   0  0  0  0  0  0  0  0  0  0  0  0
    2.3973   -0.0106    0.2821 C   0  0  0  0  0  0  0  0  0  0  0  0
   -0.0047   -0.0081    1.8130 C   0  0  0  0  0  0  0  0  0  0  0  0
   -1.2730   -0.0083    2.4404 C   0  0  0  0  0  0  0  0  0  0  0  0
   -2.4277   -0.0156    1.6892 C   0  0  0  0  0  0  0  0  0  0  0  0
    1.2623   -0.0018    2.4427 C   0  0  0  0  0  0  0  0  0  0  0  0
    2.4187   -0.0030    1.6940 C   0  0  0  0  0  0  0  0  0  0  0  0
   -3.3298   -0.0288   -0.2821 H   0  0  0  0  0  0  0  0  0  0  0  0
    3.3249   -0.0120   -0.2752 H   0  0  0  0  0  0  0  0  0  0  0  0
   -1.3363   -0.0037    3.5213 H   0  0  0  0  0  0  0  0  0  0  0  0
   -3.3843   -0.0164    2.1940 H   0  0  0  0  0  0  0  0  0  0  0  0
    1.3237    0.0038    3.5239 H   0  0  0  0  0  0  0  0  0  0  0  0
    3.3740    0.0020    2.2012 H   0  0  0  0  0  0  0  0  0  0  0  0
  1  2  2  0
  2  3  1  0
  2  7  1  0
  3  4  2  0
  3  5  1  0
  4 12  1  0
  4 15  1  0
  5  6  2  0
  5 10  1  0
  6  7  1  0
  6  9  1  0
  7  8  2  0
  9 14  2  0
  9 16  1  0
 10 11  1  0
 10 13  2  0
 11 12  2  0
 11 17  1  0
 12 18  1  0
 13 14  1  0
 13 19  1  0
 14 20  1  0
M  END
