
     RDKit          3D

 42 41  0  0  0  0  0  0  0  0999 V2000
    4.3349   -0.2453   -1.6424 C   0  0  0  0  0  0  0  0  0  0  0  0
    2.2082   -0.2506   -0.2573 C   0  0  0  0  0  0  0  0  0  0  0  0
    1.6038    1.0348   -0.8274 C   0  0  0  0  0  0  0  0  0  0  0  0
    0.1083    0.9512   -0.8528 C   0  0  0  0  0  0  0  0  0  0  0  0
   -0.7641    1.5225   -0.0188 C   0  0  0  0  0  0  0  0  0  0  0  0
   -0.3880    2.4227    1.1209 C   0  0  0  0  0  0  0  0  0  0  0  0
   -4.8216   -0.9057   -0.0548 C   0  0  0  0  0  0  0  0  0  0  0  0
   -4.0551   -1.8985   -0.8775 C   0  0  0  0  0  0  0  0  0  0  0  0
    4.2760    0.8038    0.4680 O   0  0  0  0  0  0  0  0  0  0  0  0
    3.7473   -0.3026   -0.2331 C   0  0  2  0  0  0  0  0  0  0  0  0
    4.1505   -1.6125    0.4001 C   0  0  0  0  0  0  0  0  0  0  0  0
    4.9399   -1.7568    1.4568 C   0  0  0  0  0  0  0  0  0  0  0  0
   -2.2381    1.2540   -0.1713 C   0  0  0  0  0  0  0  0  0  0  0  0
   -2.7785    0.2675    0.8780 C   0  0  0  0  0  0  0  0  0  0  0  0
   -4.2495    0.0255    0.7130 C   0  0  0  0  0  0  0  0  0  0  0  0
   -6.3140   -1.0185   -0.1667 C   0  0  0  0  0  0  0  0  0  0  0  0
    4.0716    0.6833   -2.1498 H   0  0  0  0  0  0  0  0  0  0  0  0
    5.4229   -0.3169   -1.6090 H   0  0  0  0  0  0  0  0  0  0  0  0
    3.9629   -1.0736   -2.2455 H   0  0  0  0  0  0  0  0  0  0  0  0
    1.8396   -0.3878    0.7659 H   0  0  0  0  0  0  0  0  0  0  0  0
    1.8363   -1.1105   -0.8229 H   0  0  0  0  0  0  0  0  0  0  0  0
    1.9488    1.8935   -0.2503 H   0  0  0  0  0  0  0  0  0  0  0  0
    1.9587    1.1891   -1.8500 H   0  0  0  0  0  0  0  0  0  0  0  0
   -0.2989    0.3145   -1.6361 H   0  0  0  0  0  0  0  0  0  0  0  0
   -0.7963    3.4253    0.9688 H   0  0  0  0  0  0  0  0  0  0  0  0
   -0.8057    2.0600    2.0625 H   0  0  0  0  0  0  0  0  0  0  0  0
    0.6870    2.5195    1.2594 H   0  0  0  0  0  0  0  0  0  0  0  0
   -2.9769   -1.8251   -0.7489 H   0  0  0  0  0  0  0  0  0  0  0  0
   -4.3540   -2.9204   -0.6314 H   0  0  0  0  0  0  0  0  0  0  0  0
   -4.2708   -1.7613   -1.9403 H   0  0  0  0  0  0  0  0  0  0  0  0
    3.8932    0.8141    1.3524 H   0  0  0  0  0  0  0  0  0  0  0  0
    3.7326   -2.4969   -0.0737 H   0  0  0  0  0  0  0  0  0  0  0  0
    5.3913   -0.9161    1.9688 H   0  0  0  0  0  0  0  0  0  0  0  0
    5.1668   -2.7382    1.8521 H   0  0  0  0  0  0  0  0  0  0  0  0
   -2.8013    2.1910   -0.1001 H   0  0  0  0  0  0  0  0  0  0  0  0
   -2.4436    0.8444   -1.1638 H   0  0  0  0  0  0  0  0  0  0  0  0
   -2.2090   -0.6619    0.8040 H   0  0  0  0  0  0  0  0  0  0  0  0
   -2.5917    0.6575    1.8818 H   0  0  0  0  0  0  0  0  0  0  0  0
   -4.9020    0.7131    1.2456 H   0  0  0  0  0  0  0  0  0  0  0  0
   -6.6563   -2.0109    0.1383 H   0  0  0  0  0  0  0  0  0  0  0  0
   -6.8301   -0.2801    0.4463 H   0  0  0  0  0  0  0  0  0  0  0  0
   -6.6397   -0.8847   -1.2019 H   0  0  0  0  0  0  0  0  0  0  0  0
  4  3  1  0
  4  5  2  0
  3  2  1  0
  5 13  1  0
  5  6  1  0
 13 14  1  0
  2 10  1  0
 14 15  1  0
  1 10  1  0
 10 11  1  0
 10  9  1  1
 15  7  2  0
 11 12  2  0
 16  7  1  0
  7  8  1  0
  1 17  1  0
  1 18  1  0
  1 19  1  0
  2 20  1  0
  2 21  1  0
  3 22  1  0
  3 23  1  0
  4 24  1  0
  6 25  1  0
  6 26  1  0
  6 27  1  0
  8 28  1  0
  8 29  1  0
  8 30  1  0
  9 31  1  0
 11 32  1  0
 12 33  1  0
 12 34  1  0
 13 35  1  0
 13 36  1  0
 14 37  1  0
 14 38  1  0
 15 39  1  0
 16 40  1  0
 16 41  1  0
 16 42  1  0
M  END
