
     RDKit          3D

 52 55  0  0  0  0  0  0  0  0999 V2000
   -2.8996    3.4047   -0.8164 C   0  0  0  0  0  0  0  0  0  0  0  0
   -3.8078    3.4654    0.2395 C   0  0  0  0  0  0  0  0  0  0  0  0
   -4.0106    2.3384    1.0226 C   0  0  0  0  0  0  0  0  0  0  0  0
   -2.0599   -0.6672   -2.0076 C   0  0  0  0  0  0  0  0  0  0  0  0
   -0.1367    0.2116   -0.5883 C   0  0  0  0  0  0  0  0  0  0  0  0
   -1.1805   -2.4444    0.1771 C   0  0  0  0  0  0  0  0  0  0  0  0
    0.1599   -2.6075    0.5291 C   0  0  0  0  0  0  0  0  0  0  0  0
    0.8182   -3.8097    0.3185 C   0  0  0  0  0  0  0  0  0  0  0  0
    0.1176   -4.8660   -0.2295 C   0  0  0  0  0  0  0  0  0  0  0  0
   -1.2152   -4.7549   -0.5687 C   0  0  0  0  0  0  0  0  0  0  0  0
   -1.8530   -3.5384   -0.3700 C   0  0  0  0  0  0  0  0  0  0  0  0
    0.3786    0.7668    0.5885 C   0  0  0  0  0  0  0  0  0  0  0  0
    1.7074    1.1105    0.6966 C   0  0  0  0  0  0  0  0  0  0  0  0
    2.5852    0.9127   -0.3794 C   0  0  0  0  0  0  0  0  0  0  0  0
    2.0683    0.3710   -1.5527 C   0  0  0  0  0  0  0  0  0  0  0  0
    0.7257    0.0269   -1.6569 C   0  0  0  0  0  0  0  0  0  0  0  0
    4.0023    1.2432   -0.3264 C   0  0  0  0  0  0  0  0  0  0  0  0
    4.6601    1.7772    0.7099 C   0  0  0  0  0  0  0  0  0  0  0  0
    6.1000    2.0554    0.6145 C   0  0  0  0  0  0  0  0  0  0  0  0
   -3.3217    1.1545    0.7691 C   0  0  0  0  0  0  0  0  0  0  0  0
   -2.4124    1.0862   -0.2836 C   0  0  0  0  0  0  0  0  0  0  0  0
   -2.2193    2.2269   -1.0615 C   0  0  0  0  0  0  0  0  0  0  0  0
   -3.5678   -0.0497    1.6274 C   0  0  0  0  0  0  0  0  0  0  0  0
   -3.2025   -1.3124    0.8788 C   0  0  0  0  0  0  0  0  0  0  0  0
   -1.8293   -1.2050    0.4131 N   0  0  0  0  0  0  0  0  0  0  0  0
   -1.6145   -0.1737   -0.6234 C   0  0  1  0  0  0  0  0  0  0  0  0
   -4.5085    4.5797    0.5340 O   0  0  0  0  0  0  0  0  0  0  0  0
    0.7495   -6.0367   -0.4283 F   0  0  0  0  0  0  0  0  0  0  0  0
    6.5708    2.5832    1.7412 O   0  0  0  0  0  0  0  0  0  0  0  0
    6.7940    1.8421   -0.3543 O   0  0  0  0  0  0  0  0  0  0  0  0
   -2.7227    4.2719   -1.4428 H   0  0  0  0  0  0  0  0  0  0  0  0
   -4.7219    2.3776    1.8403 H   0  0  0  0  0  0  0  0  0  0  0  0
   -1.5087   -1.5530   -2.3227 H   0  0  0  0  0  0  0  0  0  0  0  0
   -3.1192   -0.9236   -1.9901 H   0  0  0  0  0  0  0  0  0  0  0  0
   -1.9244    0.0989   -2.7707 H   0  0  0  0  0  0  0  0  0  0  0  0
    0.6960   -1.7916    0.9914 H   0  0  0  0  0  0  0  0  0  0  0  0
    1.8576   -3.9257    0.5973 H   0  0  0  0  0  0  0  0  0  0  0  0
   -1.7489   -5.5968   -0.9899 H   0  0  0  0  0  0  0  0  0  0  0  0
   -2.8944   -3.4500   -0.6504 H   0  0  0  0  0  0  0  0  0  0  0  0
   -0.2775    0.9120    1.4374 H   0  0  0  0  0  0  0  0  0  0  0  0
    2.0663    1.5306    1.6278 H   0  0  0  0  0  0  0  0  0  0  0  0
    2.7247    0.2107   -2.3997 H   0  0  0  0  0  0  0  0  0  0  0  0
    0.3728   -0.3929   -2.5883 H   0  0  0  0  0  0  0  0  0  0  0  0
    4.5634    1.0221   -1.2294 H   0  0  0  0  0  0  0  0  0  0  0  0
    4.1646    2.0261    1.6399 H   0  0  0  0  0  0  0  0  0  0  0  0
   -1.5080    2.2094   -1.8789 H   0  0  0  0  0  0  0  0  0  0  0  0
   -2.9701    0.0130    2.5415 H   0  0  0  0  0  0  0  0  0  0  0  0
   -4.6145   -0.0866    1.9364 H   0  0  0  0  0  0  0  0  0  0  0  0
   -3.2676   -2.1687    1.5508 H   0  0  0  0  0  0  0  0  0  0  0  0
   -3.9315   -1.4852    0.0731 H   0  0  0  0  0  0  0  0  0  0  0  0
   -4.2815    5.2896   -0.0769 H   0  0  0  0  0  0  0  0  0  0  0  0
    7.5184    2.7632    1.6518 H   0  0  0  0  0  0  0  0  0  0  0  0
 30 19  2  0
 29 19  1  0
 19 18  1  0
 18 17  2  0
 17 14  1  0
 14 15  2  0
 14 13  1  0
 15 16  1  0
 13 12  2  0
 16  5  2  0
 12  5  1  0
  8  7  2  0
  8  9  1  0
 28  9  1  0
  5 26  1  0
  7  6  1  0
  9 10  2  0
  6 25  1  0
  6 11  2  0
 26 25  1  0
 26 21  1  0
 26  4  1  6
 10 11  1  0
 22 21  1  0
 22  1  2  0
 25 24  1  0
 21 20  2  0
  1  2  1  0
 20 23  1  0
 20  3  1  0
 24 23  1  0
  2  3  2  0
  2 27  1  0
  1 31  1  0
  3 32  1  0
  4 33  1  0
  4 34  1  0
  4 35  1  0
  7 36  1  0
  8 37  1  0
 10 38  1  0
 11 39  1  0
 12 40  1  0
 13 41  1  0
 15 42  1  0
 16 43  1  0
 17 44  1  0
 18 45  1  0
 22 46  1  0
 23 47  1  0
 23 48  1  0
 24 49  1  0
 24 50  1  0
 27 51  1  0
 29 52  1  0
M  END
