
     RDKit          3D

 71 73  0  0  0  0  0  0  0  0999 V2000
   -0.3151    1.4047    1.2610 C   0  0  0  0  0  0  0  0  0  0  0  0
    0.6318    1.4492    0.3048 N   0  0  0  0  0  0  0  0  0  0  0  0
    2.0105    1.1497    0.6707 C   0  0  0  0  0  0  0  0  0  0  0  0
   -1.7199    1.7682    0.8802 C   0  0  0  0  0  0  0  0  0  0  0  0
    2.4000   -0.3183    0.5621 C   0  0  1  0  0  0  0  0  0  0  0  0
   -2.6108    0.7513    0.5282 C   0  0  0  0  0  0  0  0  0  0  0  0
   -3.9383    1.0409    0.2639 C   0  0  0  0  0  0  0  0  0  0  0  0
    2.7603   -2.3907    1.5084 N   0  0  0  0  0  0  0  0  0  0  0  0
    3.9290   -0.5076    0.6726 C   0  0  2  0  0  0  0  0  0  0  0  0
   -0.0847    1.0762    2.4184 O   0  0  0  0  0  0  0  0  0  0  0  0
   -4.3934    2.3740    0.3557 C   0  0  0  0  0  0  0  0  0  0  0  0
   -2.1679    3.0699    0.9786 C   0  0  0  0  0  0  0  0  0  0  0  0
    4.5962   -0.5234   -0.7055 C   0  0  0  0  0  0  0  0  0  0  0  0
    0.3718    1.9579   -1.0467 C   0  0  1  0  0  0  0  0  0  0  0  0
   -3.5031    3.3721    0.7125 C   0  0  0  0  0  0  0  0  0  0  0  0
    1.8579   -1.2592    1.6322 C   0  0  0  0  0  0  0  0  0  0  0  0
    4.0987   -1.8165    1.4696 C   0  0  0  0  0  0  0  0  0  0  0  0
   -4.8687    0.1351   -0.0843 O   0  0  0  0  0  0  0  0  0  0  0  0
    6.0974   -0.5450   -0.6411 C   0  0  0  0  0  0  0  0  0  0  0  0
   -5.6962    2.5602    0.0802 O   0  0  0  0  0  0  0  0  0  0  0  0
   -5.7207   -2.0331   -0.5265 C   0  0  0  0  0  0  0  0  0  0  0  0
   -6.5444   -4.2154   -0.9923 O   0  0  0  0  0  0  0  0  0  0  0  0
   -4.4855   -1.2260   -0.1838 C   0  0  0  0  0  0  0  0  0  0  0  0
   -5.3730   -3.5009   -0.6902 C   0  0  0  0  0  0  0  0  0  0  0  0
    0.8498    3.3977   -1.1956 C   0  0  0  0  0  0  0  0  0  0  0  0
    0.9555    1.0537   -2.1246 C   0  0  0  0  0  0  0  0  0  0  0  0
    6.8063    0.5891   -0.2444 C   0  0  0  0  0  0  0  0  0  0  0  0
    6.8155   -1.6969   -0.9508 C   0  0  0  0  0  0  0  0  0  0  0  0
   -6.2076    3.8766    0.1325 C   0  0  0  0  0  0  0  0  0  0  0  0
   -6.3075   -5.5875   -1.1745 C   0  0  0  0  0  0  0  0  0  0  0  0
    8.1909    0.5714   -0.1576 C   0  0  0  0  0  0  0  0  0  0  0  0
    8.2029   -1.7205   -0.8660 C   0  0  0  0  0  0  0  0  0  0  0  0
    8.8957   -0.5861   -0.4678 C   0  0  0  0  0  0  0  0  0  0  0  0
    2.6580    1.7332    0.0126 H   0  0  0  0  0  0  0  0  0  0  0  0
    2.2055    1.5114    1.6818 H   0  0  0  0  0  0  0  0  0  0  0  0
    2.0780   -0.6991   -0.4124 H   0  0  0  0  0  0  0  0  0  0  0  0
   -2.2464   -0.2653    0.4541 H   0  0  0  0  0  0  0  0  0  0  0  0
    2.6575   -3.0418    2.2754 H   0  0  0  0  0  0  0  0  0  0  0  0
    4.3531    0.3202    1.2505 H   0  0  0  0  0  0  0  0  0  0  0  0
   -1.4918    3.8690    1.2549 H   0  0  0  0  0  0  0  0  0  0  0  0
    4.2350   -1.3937   -1.2608 H   0  0  0  0  0  0  0  0  0  0  0  0
    4.2672    0.3581   -1.2651 H   0  0  0  0  0  0  0  0  0  0  0  0
   -0.7090    1.9527   -1.1805 H   0  0  0  0  0  0  0  0  0  0  0  0
   -3.8285    4.4004    0.7924 H   0  0  0  0  0  0  0  0  0  0  0  0
    1.8986   -0.7739    2.6182 H   0  0  0  0  0  0  0  0  0  0  0  0
    0.8239   -1.5600    1.4536 H   0  0  0  0  0  0  0  0  0  0  0  0
    4.4925   -1.5905    2.4699 H   0  0  0  0  0  0  0  0  0  0  0  0
    4.8047   -2.5062    0.9988 H   0  0  0  0  0  0  0  0  0  0  0  0
   -6.4653   -1.9175    0.2652 H   0  0  0  0  0  0  0  0  0  0  0  0
   -6.1583   -1.6566   -1.4550 H   0  0  0  0  0  0  0  0  0  0  0  0
   -3.7203   -1.3487   -0.9594 H   0  0  0  0  0  0  0  0  0  0  0  0
   -4.0534   -1.5701    0.7631 H   0  0  0  0  0  0  0  0  0  0  0  0
   -4.6281   -3.6235   -1.4902 H   0  0  0  0  0  0  0  0  0  0  0  0
   -4.9110   -3.8844    0.2317 H   0  0  0  0  0  0  0  0  0  0  0  0
    1.9294    3.4878   -1.0626 H   0  0  0  0  0  0  0  0  0  0  0  0
    0.6100    3.7717   -2.1915 H   0  0  0  0  0  0  0  0  0  0  0  0
    0.3647    4.0486   -0.4675 H   0  0  0  0  0  0  0  0  0  0  0  0
    0.5786    0.0347   -2.0370 H   0  0  0  0  0  0  0  0  0  0  0  0
    0.6625    1.4313   -3.1042 H   0  0  0  0  0  0  0  0  0  0  0  0
    2.0462    1.0228   -2.1015 H   0  0  0  0  0  0  0  0  0  0  0  0
    6.2695    1.5000   -0.0033 H   0  0  0  0  0  0  0  0  0  0  0  0
    6.2841   -2.5863   -1.2693 H   0  0  0  0  0  0  0  0  0  0  0  0
   -6.1267    4.3073    1.1341 H   0  0  0  0  0  0  0  0  0  0  0  0
   -5.7056    4.5386   -0.5783 H   0  0  0  0  0  0  0  0  0  0  0  0
   -7.2593    3.8097   -0.1350 H   0  0  0  0  0  0  0  0  0  0  0  0
   -7.2543   -6.0630   -1.4290 H   0  0  0  0  0  0  0  0  0  0  0  0
   -5.5957   -5.7782   -1.9870 H   0  0  0  0  0  0  0  0  0  0  0  0
   -5.9157   -6.0634   -0.2674 H   0  0  0  0  0  0  0  0  0  0  0  0
    8.7216    1.4631    0.1511 H   0  0  0  0  0  0  0  0  0  0  0  0
    8.7410   -2.6265   -1.1149 H   0  0  0  0  0  0  0  0  0  0  0  0
    9.9760   -0.6007   -0.4029 H   0  0  0  0  0  0  0  0  0  0  0  0
 30 22  1  0
 31 27  2  0
 31 33  1  0
 27 19  1  0
 22 24  1  0
 33 32  2  0
  8 16  1  0
  8 17  1  0
 19 13  1  0
 19 28  2  0
 24 21  1  0
 16  5  1  0
 13  9  1  0
 32 28  1  0
 17  9  1  0
  9  5  1  0
 23 21  1  0
 23 18  1  0
  5  3  1  0
 18  7  1  0
  3  2  1  0
 10  1  2  0
  6  7  2  0
  6  4  1  0
 25 14  1  0
  2  1  1  0
  2 14  1  0
  7 11  1  0
  1  4  1  0
  4 12  2  0
 14 26  1  0
 11 20  1  0
 11 15  2  0
 20 29  1  0
 12 15  1  0
  3 34  1  0
  3 35  1  0
  5 36  1  6
  6 37  1  0
  8 38  1  0
  9 39  1  1
 12 40  1  0
 13 41  1  0
 13 42  1  0
 14 43  1  6
 15 44  1  0
 16 45  1  0
 16 46  1  0
 17 47  1  0
 17 48  1  0
 21 49  1  0
 21 50  1  0
 23 51  1  0
 23 52  1  0
 24 53  1  0
 24 54  1  0
 25 55  1  0
 25 56  1  0
 25 57  1  0
 26 58  1  0
 26 59  1  0
 26 60  1  0
 27 61  1  0
 28 62  1  0
 29 63  1  0
 29 64  1  0
 29 65  1  0
 30 66  1  0
 30 67  1  0
 30 68  1  0
 31 69  1  0
 32 70  1  0
 33 71  1  0
M  END
