
     RDKit          3D

 35 36  0  0  0  0  0  0  0  0999 V2000
   -5.4578   -0.6793   -0.6971 C   0  0  0  0  0  0  0  0  0  0  0  0
   -5.2757   -1.3303    0.4547 N   0  0  0  0  0  0  0  0  0  0  0  0
   -4.0835   -1.2879    0.9836 C   0  0  0  0  0  0  0  0  0  0  0  0
   -3.0239   -0.5818    0.3681 C   0  0  0  0  0  0  0  0  0  0  0  0
   -3.2177    0.0822   -0.7546 N   0  0  0  0  0  0  0  0  0  0  0  0
   -4.4276    0.0307   -1.2893 C   0  0  0  0  0  0  0  0  0  0  0  0
   -6.7528   -0.7518   -1.2937 C   0  0  0  0  0  0  0  0  0  0  0  0
   -7.7967   -0.8033   -1.7753 N   0  0  0  0  0  0  0  0  0  0  0  0
   -1.7976   -0.6068    0.9749 N   0  0  0  0  0  0  0  0  0  0  0  0
   -0.5907   -0.1095    0.4766 C   0  0  0  0  0  0  0  0  0  0  0  0
   -0.4721    0.4335   -0.5873 O   0  0  0  0  0  0  0  0  0  0  0  0
    0.4398   -0.2983    1.3602 N   0  0  0  0  0  0  0  0  0  0  0  0
    1.7711   -0.0408    0.9637 C   0  0  0  0  0  0  0  0  0  0  0  0
    2.4314    1.0855    1.4204 C   0  0  0  0  0  0  0  0  0  0  0  0
    3.7357    1.3474    1.0513 C   0  0  0  0  0  0  0  0  0  0  0  0
    4.4053    0.4740    0.1929 C   0  0  0  0  0  0  0  0  0  0  0  0
    3.7459   -0.6610   -0.2744 C   0  0  0  0  0  0  0  0  0  0  0  0
    2.4338   -0.9243    0.1085 C   0  0  0  0  0  0  0  0  0  0  0  0
    1.7387   -2.0010   -0.2833 O   0  0  0  0  0  0  0  0  0  0  0  0
    2.3033   -2.8689   -1.2373 C   0  0  0  0  0  0  0  0  0  0  0  0
    5.6630    0.7930   -0.1271 O   0  0  0  0  0  0  0  0  0  0  0  0
    6.3707   -0.0255   -1.0261 C   0  0  0  0  0  0  0  0  0  0  0  0
    4.5416    2.7569    1.6284 Cl  0  0  0  0  0  0  0  0  0  0  0  0
   -3.9349   -1.8212    1.9170 H   0  0  0  0  0  0  0  0  0  0  0  0
   -4.5829    0.5708   -2.2150 H   0  0  0  0  0  0  0  0  0  0  0  0
   -1.7751   -1.1043    1.8497 H   0  0  0  0  0  0  0  0  0  0  0  0
    0.3114   -0.8884    2.1665 H   0  0  0  0  0  0  0  0  0  0  0  0
    1.9075    1.7732    2.0700 H   0  0  0  0  0  0  0  0  0  0  0  0
    4.2611   -1.3388   -0.9391 H   0  0  0  0  0  0  0  0  0  0  0  0
    2.5488   -2.3491   -2.1674 H   0  0  0  0  0  0  0  0  0  0  0  0
    3.2015   -3.3672   -0.8600 H   0  0  0  0  0  0  0  0  0  0  0  0
    1.5529   -3.6261   -1.4499 H   0  0  0  0  0  0  0  0  0  0  0  0
    5.8728   -0.0945   -1.9975 H   0  0  0  0  0  0  0  0  0  0  0  0
    7.3420    0.4414   -1.1659 H   0  0  0  0  0  0  0  0  0  0  0  0
    6.5235   -1.0350   -0.6323 H   0  0  0  0  0  0  0  0  0  0  0  0
  1  6  2  0
  1  2  1  0
  1  7  1  0
  2  3  2  0
  3  4  1  0
  3 24  1  0
  4  9  1  0
  4  5  2  0
  5  6  1  0
  6 25  1  0
  7  8  3  0
  9 10  1  0
  9 26  1  0
 10 11  2  0
 10 12  1  0
 12 13  1  0
 12 27  1  0
 13 14  2  0
 13 18  1  0
 14 15  1  0
 14 28  1  0
 15 23  1  0
 15 16  2  0
 16 21  1  0
 16 17  1  0
 17 18  2  0
 17 29  1  0
 18 19  1  0
 19 20  1  0
 20 30  1  0
 20 31  1  0
 20 32  1  0
 21 22  1  0
 22 33  1  0
 22 34  1  0
 22 35  1  0
M  END
