
     RDKit          3D

 31 33  0  0  0  0  0  0  0  0999 V2000
   -2.6715    2.6516    0.0043 N   0  0  0  0  0  0  0  0  0  0  0  0
    3.0083   -0.7382    1.5275 C   0  0  0  0  0  0  0  0  0  0  0  0
   -0.4346    2.4798    0.2627 N   0  0  0  0  0  0  0  0  0  0  0  0
   -0.9751    1.2685    0.0796 N   0  0  0  0  0  0  0  0  0  0  0  0
    1.1168    0.0364    0.2635 C   0  0  0  0  0  0  0  0  0  0  0  0
   -1.1357   -1.0290   -0.1063 C   0  0  0  0  0  0  0  0  0  0  0  0
   -0.4972   -2.3840   -0.2295 C   0  0  0  0  0  0  0  0  0  0  0  0
   -2.5469   -0.8647   -0.2549 C   0  0  0  0  0  0  0  0  0  0  0  0
   -3.1175    0.3138   -0.2455 N   0  0  0  0  0  0  0  0  0  0  0  0
    3.3238    0.6198   -0.4001 C   0  0  0  0  0  0  0  0  0  0  0  0
    0.2669   -2.6005   -1.1382 O   0  0  0  0  0  0  0  0  0  0  0  0
    3.8681   -0.0878    0.6562 C   0  0  0  0  0  0  0  0  0  0  0  0
   -3.4291   -2.0533   -0.4624 C   0  0  0  0  0  0  0  0  0  0  0  0
   -2.3366    1.3779   -0.0708 C   0  0  0  0  0  0  0  0  0  0  0  0
   -1.4927    3.2612    0.2035 C   0  0  0  0  0  0  0  0  0  0  0  0
    1.9642    0.7049   -0.6145 C   0  0  0  0  0  0  0  0  0  0  0  0
    1.6353   -0.6821    1.3360 C   0  0  0  0  0  0  0  0  0  0  0  0
   -0.3407    0.0729    0.0618 C   0  0  0  0  0  0  0  0  0  0  0  0
   -0.8282   -3.4165    0.8092 C   0  0  0  0  0  0  0  0  0  0  0  0
    4.1469    1.2497   -1.2492 F   0  0  0  0  0  0  0  0  0  0  0  0
    4.9403   -0.1264    0.7958 H   0  0  0  0  0  0  0  0  0  0  0  0
   -3.4645   -2.6754    0.4333 H   0  0  0  0  0  0  0  0  0  0  0  0
   -4.4411   -1.7298   -0.6906 H   0  0  0  0  0  0  0  0  0  0  0  0
   -3.0716   -2.6780   -1.2820 H   0  0  0  0  0  0  0  0  0  0  0  0
   -1.3960    4.3310    0.3132 H   0  0  0  0  0  0  0  0  0  0  0  0
    1.5787    1.2638   -1.4568 H   0  0  0  0  0  0  0  0  0  0  0  0
    0.9735   -1.1817    2.0322 H   0  0  0  0  0  0  0  0  0  0  0  0
   -1.4016   -4.2299    0.3615 H   0  0  0  0  0  0  0  0  0  0  0  0
    0.0989   -3.8505    1.1860 H   0  0  0  0  0  0  0  0  0  0  0  0
   -1.3926   -3.0138    1.6474 H   0  0  0  0  0  0  0  0  0  0  0  0
    3.4125   -1.2893    2.3653 H   0  0  0  0  0  0  0  0  0  0  0  0
 20 10  1  0
 12 10  1  0
 12  2  2  0
 10 16  2  0
  2 17  1  0
 16  5  1  0
 17  5  2  0
  5 18  1  0
  3 15  2  0
  3  4  1  0
 15  1  1  0
 18  4  1  0
 18  6  2  0
 11  7  2  0
  4 14  1  0
  7  6  1  0
  7 19  1  0
  6  8  1  0
  1 14  2  0
 14  9  1  0
  9  8  2  0
  8 13  1  0
  2 31  1  0
 12 21  1  0
 13 22  1  0
 13 23  1  0
 13 24  1  0
 15 25  1  0
 16 26  1  0
 17 27  1  0
 19 28  1  0
 19 29  1  0
 19 30  1  0
M  END
