
     RDKit          3D

 30 31  0  0  0  0  0  0  0  0999 V2000
   -3.9098    1.1373   -0.0349 C   0  0  0  0  0  0  0  0  0  0  0  0
   -5.2886    1.1130   -0.0480 C   0  0  0  0  0  0  0  0  0  0  0  0
   -5.9448   -0.1128   -0.0063 C   0  0  0  0  0  0  0  0  0  0  0  0
   -5.2507   -1.3115    0.0449 C   0  0  0  0  0  0  0  0  0  0  0  0
   -3.8684   -1.2753    0.0536 C   0  0  0  0  0  0  0  0  0  0  0  0
   -3.1916   -0.0597    0.0169 C   0  0  0  0  0  0  0  0  0  0  0  0
    0.1966    0.8736    0.0532 C   0  0  0  0  0  0  0  0  0  0  0  0
    0.9340   -0.3201    0.0550 C   0  0  0  0  0  0  0  0  0  0  0  0
    2.3046   -0.2784    0.0688 C   0  0  0  0  0  0  0  0  0  0  0  0
    2.9977    0.9471    0.0810 C   0  0  0  0  0  0  0  0  0  0  0  0
    2.2488    2.1422    0.0792 C   0  0  0  0  0  0  0  0  0  0  0  0
    0.8591    2.0881    0.0649 C   0  0  0  0  0  0  0  0  0  0  0  0
    2.9739    3.4233    0.0913 C   0  0  0  0  0  0  0  0  0  0  0  0
    3.4114   -2.0569    0.0717 I   0  0  0  0  0  0  0  0  0  0  0  0
   -1.7886   -0.1495    0.0317 N   0  0  0  0  0  0  0  0  0  0  0  0
   -1.1979    0.9394    0.0405 N   0  0  0  0  0  0  0  0  0  0  0  0
   -7.3994   -0.1373   -0.0190 N   0  0  0  0  0  0  0  0  0  0  0  0
    4.3128    0.9251    0.0932 O   0  0  0  0  0  0  0  0  0  0  0  0
    2.1967    4.4813    0.0862 O   0  0  0  0  0  0  0  0  0  0  0  0
    4.1918    3.4916    0.1044 O   0  0  0  0  0  0  0  0  0  0  0  0
   -7.9836    0.9173   -0.1007 O   0  0  0  0  0  0  0  0  0  0  0  0
   -7.9495   -1.2106    0.0526 O   0  0  0  0  0  0  0  0  0  0  0  0
   -3.3901    2.0843   -0.0670 H   0  0  0  0  0  0  0  0  0  0  0  0
   -5.8411    2.0403   -0.0898 H   0  0  0  0  0  0  0  0  0  0  0  0
   -5.7660   -2.2601    0.0760 H   0  0  0  0  0  0  0  0  0  0  0  0
   -3.3005   -2.1951    0.0909 H   0  0  0  0  0  0  0  0  0  0  0  0
    0.4080   -1.2653    0.0458 H   0  0  0  0  0  0  0  0  0  0  0  0
    0.2694    2.9946    0.0623 H   0  0  0  0  0  0  0  0  0  0  0  0
    4.6398    1.8558    0.1010 H   0  0  0  0  0  0  0  0  0  0  0  0
    2.7245    5.2949    0.0924 H   0  0  0  0  0  0  0  0  0  0  0  0
 18 10  1  0
 20 13  2  0
 13 19  1  0
 13 11  1  0
 14  9  1  0
 10 11  2  0
 10  9  1  0
 11 12  1  0
  9  8  2  0
 12  7  2  0
  8  7  1  0
  7 16  1  0
 16 15  2  0
 15  6  1  0
  6  5  1  0
  6  1  2  0
  5  4  2  0
  1  2  1  0
  4  3  1  0
  2  3  2  0
  3 17  1  0
 17 21  2  0
 17 22  1  0
  1 23  1  0
  2 24  1  0
  4 25  1  0
  5 26  1  0
  8 27  1  0
 12 28  1  0
 18 29  1  0
 19 30  1  0
M  CHG  2  17   1  22  -1
M  END
