
     RDKit          3D

 60 61  0  0  0  0  0  0  0  0999 V2000
    3.8555   -2.5917   -0.2738 O   0  0  0  0  0  0  0  0  0  0  0  0
    4.9130   -2.0610    0.0475 C   0  0  0  0  0  0  0  0  0  0  0  0
    5.3659   -2.1279    1.3144 N   0  0  0  0  0  0  0  0  0  0  0  0
    6.6384   -1.6357    1.7946 C   0  0  0  0  0  0  0  0  0  0  0  0
    4.5217   -2.7485    2.3166 C   0  0  0  0  0  0  0  0  0  0  0  0
    5.7129   -1.2610   -0.9699 C   0  0  1  0  0  0  0  0  0  0  0  0
    5.3065   -1.5952   -2.4019 C   0  0  0  0  0  0  0  0  0  0  0  0
    6.2206   -0.8716   -3.3813 C   0  0  0  0  0  0  0  0  0  0  0  0
    6.4034    0.5682   -3.0193 C   0  0  0  0  0  0  0  0  0  0  0  0
    6.0885    1.0717   -1.8301 C   0  0  0  0  0  0  0  0  0  0  0  0
    5.5422    0.2491   -0.6968 C   0  0  1  0  0  0  0  0  0  0  0  0
    4.1579    0.6099   -0.4608 N   0  0  0  0  0  0  0  0  0  0  0  0
    3.6474    0.8534    0.7609 C   0  0  0  0  0  0  0  0  0  0  0  0
    4.2744    0.9095    1.7976 O   0  0  0  0  0  0  0  0  0  0  0  0
    2.3242    1.0534    0.6825 O   0  0  0  0  0  0  0  0  0  0  0  0
    1.6369    1.3059    1.9070 C   0  0  0  0  0  0  0  0  0  0  0  0
    0.1688    1.3005    1.6032 C   0  0  0  0  0  0  0  0  0  0  0  0
   -0.6132    2.4229    1.8451 C   0  0  0  0  0  0  0  0  0  0  0  0
   -1.9742    2.4091    1.5810 C   0  0  0  0  0  0  0  0  0  0  0  0
   -0.4375    0.1594    1.0846 C   0  0  0  0  0  0  0  0  0  0  0  0
   -1.7967    0.1410    0.8250 C   0  0  0  0  0  0  0  0  0  0  0  0
   -2.5839    1.2657    1.0758 C   0  0  0  0  0  0  0  0  0  0  0  0
   -4.0517    1.3179    0.7892 C   0  0  0  0  0  0  0  0  0  0  0  0
   -4.6369    2.3871    0.6854 O   0  0  0  0  0  0  0  0  0  0  0  0
   -4.6789    0.1384    0.6487 N   0  0  0  0  0  0  0  0  0  0  0  0
   -6.0782    0.0378    0.3074 C   0  0  0  0  0  0  0  0  0  0  0  0
   -6.3610    0.3672   -1.1449 C   0  0  0  0  0  0  0  0  0  0  0  0
   -5.6149   -0.5227   -1.9868 O   0  0  0  0  0  0  0  0  0  0  0  0
   -4.6403    0.0538   -3.1070 P   0  0  1  0  0  0  0  0  0  0  0  0
   -3.3886    0.7205   -2.3617 O   0  0  0  0  0  0  0  0  0  0  0  0
   -4.1634   -1.3537   -3.6813 O   0  0  0  0  0  0  0  0  0  0  0  0
   -5.2166    1.0316   -4.0483 O   0  0  0  0  0  0  0  0  0  0  0  0
    6.5027   -0.7770    2.4536 H   0  0  0  0  0  0  0  0  0  0  0  0
    7.1494   -2.4204    2.3546 H   0  0  0  0  0  0  0  0  0  0  0  0
    7.2966   -1.3438    0.9832 H   0  0  0  0  0  0  0  0  0  0  0  0
    4.6097   -3.8371    2.3079 H   0  0  0  0  0  0  0  0  0  0  0  0
    4.8223   -2.3915    3.2991 H   0  0  0  0  0  0  0  0  0  0  0  0
    3.4769   -2.4861    2.1671 H   0  0  0  0  0  0  0  0  0  0  0  0
    6.7797   -1.4864   -0.8747 H   0  0  0  0  0  0  0  0  0  0  0  0
    5.3571   -2.6717   -2.5702 H   0  0  0  0  0  0  0  0  0  0  0  0
    4.2692   -1.3020   -2.5823 H   0  0  0  0  0  0  0  0  0  0  0  0
    7.2009   -1.3608   -3.4188 H   0  0  0  0  0  0  0  0  0  0  0  0
    5.8213   -0.9449   -4.3959 H   0  0  0  0  0  0  0  0  0  0  0  0
    6.8171    1.2244   -3.7777 H   0  0  0  0  0  0  0  0  0  0  0  0
    6.2208    2.1295   -1.6305 H   0  0  0  0  0  0  0  0  0  0  0  0
    6.0881    0.5135    0.2103 H   0  0  0  0  0  0  0  0  0  0  0  0
    3.5230    0.5722   -1.2431 H   0  0  0  0  0  0  0  0  0  0  0  0
    1.8710    0.5305    2.6406 H   0  0  0  0  0  0  0  0  0  0  0  0
    1.9400    2.2673    2.3273 H   0  0  0  0  0  0  0  0  0  0  0  0
   -0.1580    3.3217    2.2421 H   0  0  0  0  0  0  0  0  0  0  0  0
   -2.5646    3.2951    1.7711 H   0  0  0  0  0  0  0  0  0  0  0  0
    0.1511   -0.7264    0.8801 H   0  0  0  0  0  0  0  0  0  0  0  0
   -2.2219   -0.7686    0.4181 H   0  0  0  0  0  0  0  0  0  0  0  0
   -4.1933   -0.7172    0.8560 H   0  0  0  0  0  0  0  0  0  0  0  0
   -6.3955   -0.9805    0.5270 H   0  0  0  0  0  0  0  0  0  0  0  0
   -6.6793    0.7034    0.9301 H   0  0  0  0  0  0  0  0  0  0  0  0
   -7.4215    0.2225   -1.3529 H   0  0  0  0  0  0  0  0  0  0  0  0
   -6.1224    1.4115   -1.3529 H   0  0  0  0  0  0  0  0  0  0  0  0
   -2.8463    0.1268   -1.8272 H   0  0  0  0  0  0  0  0  0  0  0  0
   -3.6399   -1.2921   -4.4917 H   0  0  0  0  0  0  0  0  0  0  0  0
  4  3  1  0
  1  2  2  0
  3  2  1  0
  3  5  1  0
  2  6  1  0
 15 16  1  0
 15 13  1  0
 16 17  1  0
 12 13  1  0
 12 11  1  0
 10  9  2  0
 10 11  1  0
 18 17  2  0
 18 19  1  0
  9  8  1  0
  6 11  1  0
  6  7  1  0
 13 14  2  0
 17 20  1  0
  7  8  1  0
 19 22  2  0
 32 29  2  0
 20 21  2  0
 22 21  1  0
 22 23  1  0
 29 30  1  1
 29 28  1  0
 29 31  1  0
 24 23  2  0
 23 25  1  0
 28 27  1  0
 25 26  1  0
 26 27  1  0
  4 33  1  0
  4 34  1  0
  4 35  1  0
  5 36  1  0
  5 37  1  0
  5 38  1  0
  6 39  1  6
  7 40  1  0
  7 41  1  0
  8 42  1  0
  8 43  1  0
  9 44  1  0
 10 45  1  0
 11 46  1  1
 12 47  1  0
 16 48  1  0
 16 49  1  0
 18 50  1  0
 19 51  1  0
 20 52  1  0
 21 53  1  0
 25 54  1  0
 26 55  1  0
 26 56  1  0
 27 57  1  0
 27 58  1  0
 30 59  1  0
 31 60  1  0
M  END
