
     RDKit          3D

 45 48  0  0  0  0  0  0  0  0999 V2000
    0.3667    0.3990    0.1284 C   0  0  0  0  0  0  0  0  0  0  0  0
    1.5290   -0.2969    0.0275 C   0  0  0  0  0  0  0  0  0  0  0  0
    1.2507   -2.0188   -0.0673 S   0  0  0  0  0  0  0  0  0  0  0  0
   -0.4541   -1.7969    0.0271 C   0  0  0  0  0  0  0  0  0  0  0  0
   -0.7809   -0.4470    0.1273 C   0  0  0  0  0  0  0  0  0  0  0  0
   -1.4513   -2.7889    0.0001 C   0  0  0  0  0  0  0  0  0  0  0  0
   -2.7498   -2.3168    0.0734 C   0  0  0  0  0  0  0  0  0  0  0  0
   -3.1024   -1.0390    0.1687 N   0  0  0  0  0  0  0  0  0  0  0  0
   -2.1601   -0.1011    0.2088 C   0  0  0  0  0  0  0  0  0  0  0  0
   -2.5333    1.1812    0.3433 N   0  0  0  0  0  0  0  0  0  0  0  0
    2.8880    0.2362   -0.0251 C   0  0  0  0  0  0  0  0  0  0  0  0
   -1.0516   -4.2052   -0.1029 C   0  0  0  0  0  0  0  0  0  0  0  0
   -3.9033    1.6496    0.3268 C   0  0  2  0  0  0  0  0  0  0  0  0
   -4.3945    1.8700   -1.1042 C   0  0  0  0  0  0  0  0  0  0  0  0
   -5.7593    2.3575   -1.0807 N   0  0  0  0  0  0  0  0  0  0  0  0
   -5.8632    3.6462   -0.4189 C   0  0  0  0  0  0  0  0  0  0  0  0
   -5.4308    3.5085    1.0330 C   0  0  0  0  0  0  0  0  0  0  0  0
   -4.0170    2.9433    1.1264 C   0  0  0  0  0  0  0  0  0  0  0  0
    3.1167    1.5371   -0.4812 C   0  0  0  0  0  0  0  0  0  0  0  0
    4.3955    2.0631   -0.5345 C   0  0  0  0  0  0  0  0  0  0  0  0
    5.4687    1.2792   -0.1373 C   0  0  0  0  0  0  0  0  0  0  0  0
    5.2743   -0.0166    0.3130 C   0  0  0  0  0  0  0  0  0  0  0  0
    3.9880   -0.5282    0.3695 C   0  0  0  0  0  0  0  0  0  0  0  0
    7.0725    1.9277   -0.2091 Cl  0  0  0  0  0  0  0  0  0  0  0  0
   -2.0105   -5.1411   -0.1216 N   0  0  0  0  0  0  0  0  0  0  0  0
    0.1432   -4.4897   -0.1634 O   0  0  0  0  0  0  0  0  0  0  0  0
    0.3329    1.4762    0.2157 H   0  0  0  0  0  0  0  0  0  0  0  0
   -3.5873   -3.0064    0.0511 H   0  0  0  0  0  0  0  0  0  0  0  0
   -1.8165    1.8872    0.2991 H   0  0  0  0  0  0  0  0  0  0  0  0
   -4.5289    0.8856    0.7914 H   0  0  0  0  0  0  0  0  0  0  0  0
   -3.6980    2.5641   -1.6057 H   0  0  0  0  0  0  0  0  0  0  0  0
   -4.3616    0.9269   -1.6536 H   0  0  0  0  0  0  0  0  0  0  0  0
   -6.1066    2.4301   -2.0275 H   0  0  0  0  0  0  0  0  0  0  0  0
   -5.2442    4.4197   -0.9035 H   0  0  0  0  0  0  0  0  0  0  0  0
   -6.8989    3.9873   -0.4731 H   0  0  0  0  0  0  0  0  0  0  0  0
   -5.4785    4.4787    1.5308 H   0  0  0  0  0  0  0  0  0  0  0  0
   -6.1273    2.8449    1.5534 H   0  0  0  0  0  0  0  0  0  0  0  0
   -3.7387    2.7665    2.1678 H   0  0  0  0  0  0  0  0  0  0  0  0
   -3.3074    3.6776    0.7261 H   0  0  0  0  0  0  0  0  0  0  0  0
    2.2894    2.1491   -0.8170 H   0  0  0  0  0  0  0  0  0  0  0  0
    4.5533    3.0709   -0.8936 H   0  0  0  0  0  0  0  0  0  0  0  0
    6.1133   -0.6244    0.6234 H   0  0  0  0  0  0  0  0  0  0  0  0
    3.8525   -1.5357    0.7429 H   0  0  0  0  0  0  0  0  0  0  0  0
   -2.9922   -4.9329   -0.0924 H   0  0  0  0  0  0  0  0  0  0  0  0
   -1.7537   -6.1115   -0.1946 H   0  0  0  0  0  0  0  0  0  0  0  0
  2  1  2  0
  1  5  1  0
  1 27  1  0
 11  2  1  0
  3  2  1  0
  3  4  1  0
  4  6  1  0
  4  5  2  0
  5  9  1  0
 12  6  1  0
  6  7  2  0
  7  8  1  0
  7 28  1  0
  9  8  2  0
  9 10  1  0
 10 13  1  0
 10 29  1  0
 19 11  2  0
 11 23  1  0
 26 12  2  0
 12 25  1  0
 13 18  1  0
 13 14  1  0
 13 30  1  1
 14 15  1  0
 14 31  1  0
 14 32  1  0
 15 16  1  0
 15 33  1  0
 17 16  1  0
 16 34  1  0
 16 35  1  0
 18 17  1  0
 17 36  1  0
 17 37  1  0
 18 38  1  0
 18 39  1  0
 20 19  1  0
 19 40  1  0
 20 21  2  0
 20 41  1  0
 24 21  1  0
 21 22  1  0
 22 23  2  0
 22 42  1  0
 23 43  1  0
 25 44  1  0
 25 45  1  0
M  END
