
     RDKit          3D

 47 48  0  0  0  0  0  0  0  0999 V2000
    6.8568   -0.7791    0.9896 C   0  0  0  0  0  0  0  0  0  0  0  0
    6.1997   -1.6972   -0.0342 C   0  0  1  0  0  0  0  0  0  0  0  0
    6.8132   -1.5292   -1.4192 C   0  0  0  0  0  0  0  0  0  0  0  0
    6.3267   -3.1481    0.4125 C   0  0  0  0  0  0  0  0  0  0  0  0
    4.7607   -1.4885   -0.0697 O   0  0  0  0  0  0  0  0  0  0  0  0
    4.2153   -0.3306   -0.4211 C   0  0  0  0  0  0  0  0  0  0  0  0
    4.8071    0.6725   -0.7659 O   0  0  0  0  0  0  0  0  0  0  0  0
    2.8677   -0.3935   -0.3460 N   0  0  0  0  0  0  0  0  0  0  0  0
    2.0715    0.7319   -0.7474 C   0  0  2  0  0  0  0  0  0  0  0  0
    2.4395    1.9665    0.0889 C   0  0  0  0  0  0  0  0  0  0  0  0
    2.6576    1.9079    1.2805 O   0  0  0  0  0  0  0  0  0  0  0  0
    2.3781    3.1025   -0.6244 N   0  0  0  0  0  0  0  0  0  0  0  0
    2.7301    4.2836   -0.0457 O   0  0  0  0  0  0  0  0  0  0  0  0
    0.6037    0.4541   -0.5316 C   0  0  0  0  0  0  0  0  0  0  0  0
    0.1355   -0.0385    0.6840 C   0  0  0  0  0  0  0  0  0  0  0  0
   -1.2179   -0.2576    0.8771 C   0  0  0  0  0  0  0  0  0  0  0  0
   -0.3106    0.7283   -1.5413 C   0  0  0  0  0  0  0  0  0  0  0  0
   -1.6659    0.5170   -1.3452 C   0  0  0  0  0  0  0  0  0  0  0  0
   -2.1399    0.0192   -0.1327 C   0  0  0  0  0  0  0  0  0  0  0  0
   -3.5826   -0.2055    0.0793 C   0  0  0  0  0  0  0  0  0  0  0  0
   -4.0265   -1.3089    0.8072 C   0  0  0  0  0  0  0  0  0  0  0  0
   -5.3779   -1.5015    0.9979 C   0  0  0  0  0  0  0  0  0  0  0  0
   -5.8173   -2.5579    1.6829 F   0  0  0  0  0  0  0  0  0  0  0  0
   -6.3106   -0.6212    0.4803 C   0  0  0  0  0  0  0  0  0  0  0  0
   -7.6129   -0.8191    0.6719 F   0  0  0  0  0  0  0  0  0  0  0  0
   -5.8607    0.4703   -0.2399 C   0  0  0  0  0  0  0  0  0  0  0  0
   -6.7626    1.3244   -0.7244 F   0  0  0  0  0  0  0  0  0  0  0  0
   -4.5156    0.6881   -0.4453 C   0  0  0  0  0  0  0  0  0  0  0  0
    6.3678   -0.8609    1.9617 H   0  0  0  0  0  0  0  0  0  0  0  0
    7.8979   -1.0781    1.1178 H   0  0  0  0  0  0  0  0  0  0  0  0
    6.8447    0.2639    0.6808 H   0  0  0  0  0  0  0  0  0  0  0  0
    7.8561   -1.8460   -1.3841 H   0  0  0  0  0  0  0  0  0  0  0  0
    6.3024   -2.1536   -2.1540 H   0  0  0  0  0  0  0  0  0  0  0  0
    6.7893   -0.4975   -1.7630 H   0  0  0  0  0  0  0  0  0  0  0  0
    5.8854   -3.3040    1.3980 H   0  0  0  0  0  0  0  0  0  0  0  0
    5.8437   -3.8259   -0.2929 H   0  0  0  0  0  0  0  0  0  0  0  0
    7.3798   -3.4232    0.4711 H   0  0  0  0  0  0  0  0  0  0  0  0
    2.4138   -1.2688   -0.1391 H   0  0  0  0  0  0  0  0  0  0  0  0
    2.2272    0.9510   -1.8099 H   0  0  0  0  0  0  0  0  0  0  0  0
    2.4003    3.1065   -1.6342 H   0  0  0  0  0  0  0  0  0  0  0  0
    1.9029    4.7146    0.2052 H   0  0  0  0  0  0  0  0  0  0  0  0
    0.8239   -0.2384    1.4951 H   0  0  0  0  0  0  0  0  0  0  0  0
   -1.5592   -0.6228    1.8373 H   0  0  0  0  0  0  0  0  0  0  0  0
    0.0364    1.1025   -2.4965 H   0  0  0  0  0  0  0  0  0  0  0  0
   -2.3531    0.7196   -2.1568 H   0  0  0  0  0  0  0  0  0  0  0  0
   -3.3314   -2.0336    1.2108 H   0  0  0  0  0  0  0  0  0  0  0  0
   -4.2036    1.5687   -0.9913 H   0  0  0  0  0  0  0  0  0  0  0  0
  4  2  1  0
  3  2  1  0
  2  1  1  0
  2  5  1  6
 13 12  1  0
  5  6  1  0
 12 10  1  0
 11 10  2  0
  7  6  2  0
  6  8  1  0
 10  9  1  0
  8  9  1  0
  9 14  1  0
 14 17  2  0
 14 15  1  0
 17 18  1  0
 15 16  2  0
 18 19  2  0
 16 19  1  0
 19 20  1  0
 20 28  1  0
 20 21  2  0
 28 26  2  0
 21 22  1  0
 26 27  1  0
 26 24  1  0
 22 24  2  0
 22 23  1  0
 24 25  1  0
  1 29  1  0
  1 30  1  0
  1 31  1  0
  3 32  1  0
  3 33  1  0
  3 34  1  0
  4 35  1  0
  4 36  1  0
  4 37  1  0
  8 38  1  0
  9 39  1  6
 12 40  1  0
 13 41  1  0
 15 42  1  0
 16 43  1  0
 17 44  1  0
 18 45  1  0
 21 46  1  0
 28 47  1  0
M  END
