
     RDKit          3D

 45 47  0  0  0  0  0  0  0  0999 V2000
   -8.1252    1.0828    0.2579 F   0  0  0  0  0  0  0  0  0  0  0  0
   -7.3726    1.5170   -0.8276 C   0  0  0  0  0  0  0  0  0  0  0  0
   -5.9080    1.3203   -0.5652 C   0  0  0  0  0  0  0  0  0  0  0  0
   -5.6478   -0.0676   -0.4880 O   0  0  0  0  0  0  0  0  0  0  0  0
   -4.3956   -0.4713   -0.2102 C   0  0  0  0  0  0  0  0  0  0  0  0
   -3.3125    0.3687   -0.0428 C   0  0  0  0  0  0  0  0  0  0  0  0
   -4.2218   -1.8683   -0.0958 C   0  0  0  0  0  0  0  0  0  0  0  0
   -5.3254   -2.6052   -0.2770 O   0  0  0  0  0  0  0  0  0  0  0  0
   -5.2201   -4.0120   -0.1634 C   0  0  0  0  0  0  0  0  0  0  0  0
   -2.9615   -2.3715    0.1865 C   0  0  0  0  0  0  0  0  0  0  0  0
   -1.8786   -1.5178    0.3585 C   0  0  0  0  0  0  0  0  0  0  0  0
   -2.0408   -0.1455    0.2473 C   0  0  0  0  0  0  0  0  0  0  0  0
   -0.8935    0.7379    0.4337 C   0  0  0  0  0  0  0  0  0  0  0  0
    0.3276    0.3256    0.5803 N   0  0  0  0  0  0  0  0  0  0  0  0
   -1.0523    2.4657    0.5000 S   0  0  0  0  0  0  0  0  0  0  0  0
    0.6379    2.5977    0.7302 C   0  0  0  0  0  0  0  0  0  0  0  0
    1.1999    1.3597    0.7517 C   0  0  0  0  0  0  0  0  0  0  0  0
    2.6526    1.0784    0.9281 C   0  0  0  0  0  0  0  0  0  0  0  0
    3.3097    0.5016   -0.6693 S   0  0  0  0  0  0  0  0  0  0  0  0
    4.9521    0.0187   -0.2548 C   0  0  0  0  0  0  0  0  0  0  0  0
    5.6165   -0.4634   -1.2888 N   0  0  0  0  0  0  0  0  0  0  0  0
    5.3594    0.1679    0.9853 N   0  0  0  0  0  0  0  0  0  0  0  0
    6.6215   -0.2286    1.2387 C   0  0  0  0  0  0  0  0  0  0  0  0
    7.0618   -0.0520    2.4994 N   0  0  0  0  0  0  0  0  0  0  0  0
    7.4302   -0.7622    0.2387 C   0  0  0  0  0  0  0  0  0  0  0  0
    6.8754   -0.8587   -1.0381 C   0  0  0  0  0  0  0  0  0  0  0  0
    7.5824   -1.3263   -2.0859 N   0  0  0  0  0  0  0  0  0  0  0  0
   -7.6952    0.9655   -1.7121 H   0  0  0  0  0  0  0  0  0  0  0  0
   -7.5644    2.5790   -0.9850 H   0  0  0  0  0  0  0  0  0  0  0  0
   -5.3501    1.7818   -1.3879 H   0  0  0  0  0  0  0  0  0  0  0  0
   -5.6160    1.8251    0.3625 H   0  0  0  0  0  0  0  0  0  0  0  0
   -3.4462    1.4380   -0.1473 H   0  0  0  0  0  0  0  0  0  0  0  0
   -4.5359   -4.4304   -0.9057 H   0  0  0  0  0  0  0  0  0  0  0  0
   -4.8902   -4.3152    0.8332 H   0  0  0  0  0  0  0  0  0  0  0  0
   -6.2159   -4.4094   -0.3410 H   0  0  0  0  0  0  0  0  0  0  0  0
   -2.8016   -3.4367    0.2804 H   0  0  0  0  0  0  0  0  0  0  0  0
   -0.9069   -1.9330    0.5866 H   0  0  0  0  0  0  0  0  0  0  0  0
    1.1224    3.5554    0.8372 H   0  0  0  0  0  0  0  0  0  0  0  0
    3.1863    1.9723    1.2444 H   0  0  0  0  0  0  0  0  0  0  0  0
    2.8074    0.2990    1.6732 H   0  0  0  0  0  0  0  0  0  0  0  0
    7.9117   -0.4987    2.7963 H   0  0  0  0  0  0  0  0  0  0  0  0
    6.3853    0.1439    3.2175 H   0  0  0  0  0  0  0  0  0  0  0  0
    8.4417   -1.0868    0.4419 H   0  0  0  0  0  0  0  0  0  0  0  0
    8.4415   -1.8220   -1.9219 H   0  0  0  0  0  0  0  0  0  0  0  0
    7.0863   -1.5618   -2.9285 H   0  0  0  0  0  0  0  0  0  0  0  0
 24 23  1  0
 23 25  2  0
 23 22  1  0
 25 26  1  0
 22 20  2  0
 26 27  1  0
 26 21  2  0
 20 21  1  0
 20 19  1  0
 19 18  1  0
 18 17  1  0
  1  2  1  0
 17 14  1  0
 17 16  2  0
 14 13  2  0
 16 15  1  0
  2  3  1  0
 13 15  1  0
 13 12  1  0
  3  4  1  0
 12  6  1  0
 12 11  2  0
  6  5  2  0
  5  4  1  0
  5  7  1  0
 11 10  1  0
  7 10  2  0
  7  8  1  0
  8  9  1  0
  2 28  1  0
  2 29  1  0
  3 30  1  0
  3 31  1  0
  6 32  1  0
  9 33  1  0
  9 34  1  0
  9 35  1  0
 10 36  1  0
 11 37  1  0
 16 38  1  0
 18 39  1  0
 18 40  1  0
 24 41  1  0
 24 42  1  0
 25 43  1  0
 27 44  1  0
 27 45  1  0
M  END
