
     RDKit          3D

 67 70  0  0  0  0  0  0  0  0999 V2000
   -0.0071    1.8392    0.8513 C   0  0  0  0  0  0  0  0  0  0  0  0
   -0.2635    0.6049    1.4426 C   0  0  0  0  0  0  0  0  0  0  0  0
    0.7848   -0.1665    1.9156 C   0  0  0  0  0  0  0  0  0  0  0  0
    2.0946    0.2849    1.8303 C   0  0  0  0  0  0  0  0  0  0  0  0
    2.3473    1.5113    1.2354 C   0  0  0  0  0  0  0  0  0  0  0  0
    1.3105    2.2839    0.7453 C   0  0  0  0  0  0  0  0  0  0  0  0
    3.1209   -0.4418    2.3616 O   0  0  0  0  0  0  0  0  0  0  0  0
    3.6401   -1.4885    1.6621 C   0  0  0  0  0  0  0  0  0  0  0  0
    0.4631   -1.6955    2.6472 Cl  0  0  0  0  0  0  0  0  0  0  0  0
    4.5887   -2.2558    2.3260 C   0  0  0  0  0  0  0  0  0  0  0  0
    5.1725   -3.3306    1.6774 C   0  0  0  0  0  0  0  0  0  0  0  0
    4.8178   -3.6513    0.3758 C   0  0  0  0  0  0  0  0  0  0  0  0
    3.8680   -2.8741   -0.2747 C   0  0  0  0  0  0  0  0  0  0  0  0
    3.2742   -1.7887    0.3564 C   0  0  0  0  0  0  0  0  0  0  0  0
    3.4967   -3.2329   -1.6810 C   0  0  1  0  0  0  0  0  0  0  0  0
    4.5513   -3.1518   -2.5048 F   0  0  0  0  0  0  0  0  0  0  0  0
    3.0456   -4.4927   -1.7635 F   0  0  0  0  0  0  0  0  0  0  0  0
    2.5452   -2.4433   -2.1858 F   0  0  0  0  0  0  0  0  0  0  0  0
   -1.5006    6.6365    1.1489 N   0  0  0  0  0  0  0  0  0  0  0  0
   -0.6103    5.8218    1.6594 C   0  0  0  0  0  0  0  0  0  0  0  0
   -0.4587    4.5199    1.4144 N   0  0  0  0  0  0  0  0  0  0  0  0
   -1.2611    3.9135    0.5511 C   0  0  0  0  0  0  0  0  0  0  0  0
   -2.3300    6.0532    0.2646 C   0  0  0  0  0  0  0  0  0  0  0  0
   -2.2507    4.6899   -0.0831 C   0  0  0  0  0  0  0  0  0  0  0  0
   -3.2109    4.4505   -1.0376 N   0  0  0  0  0  0  0  0  0  0  0  0
   -3.8832    5.6126   -1.2645 C   0  0  0  0  0  0  0  0  0  0  0  0
   -3.3810    6.6247   -0.4954 C   0  0  0  0  0  0  0  0  0  0  0  0
   -3.5531    3.1965   -1.6697 C   0  0  0  0  0  0  0  0  0  0  0  0
   -4.4795    2.3616   -0.7838 C   0  0  0  0  0  0  0  0  0  0  0  0
   -4.6999    1.0457   -1.3254 N   0  0  0  0  0  0  0  0  0  0  0  0
   -3.7927    0.0665   -1.2044 C   0  0  0  0  0  0  0  0  0  0  0  0
   -4.1984   -1.2847   -1.7355 C   0  0  0  0  0  0  0  0  0  0  0  0
   -2.7114    0.2465   -0.6481 O   0  0  0  0  0  0  0  0  0  0  0  0
   -1.0788    2.5774    0.3340 N   0  0  0  0  0  0  0  0  0  0  0  0
   -4.6367   -2.2015   -0.5915 C   0  0  0  0  0  0  0  0  0  0  0  0
   -5.0297   -3.5767   -1.1131 C   0  0  0  0  0  0  0  0  0  0  0  0
   -5.4073   -4.5057   -0.0645 N   0  0  0  0  0  0  0  0  0  0  0  0
   -6.6652   -4.1564    0.5612 C   0  0  0  0  0  0  0  0  0  0  0  0
   -5.4515   -5.8621   -0.5683 C   0  0  0  0  0  0  0  0  0  0  0  0
   -1.2788    0.2462    1.5391 H   0  0  0  0  0  0  0  0  0  0  0  0
    3.3686    1.8601    1.1525 H   0  0  0  0  0  0  0  0  0  0  0  0
    1.5347    3.2287    0.2733 H   0  0  0  0  0  0  0  0  0  0  0  0
    4.8642   -2.0096    3.3433 H   0  0  0  0  0  0  0  0  0  0  0  0
    5.9103   -3.9272    2.1964 H   0  0  0  0  0  0  0  0  0  0  0  0
    5.2815   -4.4971   -0.1143 H   0  0  0  0  0  0  0  0  0  0  0  0
    2.5437   -1.1825   -0.1617 H   0  0  0  0  0  0  0  0  0  0  0  0
   -4.6881    5.6332   -1.9827 H   0  0  0  0  0  0  0  0  0  0  0  0
   -3.7135    7.6495   -0.4831 H   0  0  0  0  0  0  0  0  0  0  0  0
   -4.0493    3.4227   -2.6126 H   0  0  0  0  0  0  0  0  0  0  0  0
   -2.6422    2.6566   -1.9255 H   0  0  0  0  0  0  0  0  0  0  0  0
   -4.0739    2.2803    0.2271 H   0  0  0  0  0  0  0  0  0  0  0  0
   -5.4439    2.8595   -0.6942 H   0  0  0  0  0  0  0  0  0  0  0  0
   -5.5619    0.8639   -1.8122 H   0  0  0  0  0  0  0  0  0  0  0  0
   -5.0066   -1.1879   -2.4644 H   0  0  0  0  0  0  0  0  0  0  0  0
   -3.3422   -1.7184   -2.2563 H   0  0  0  0  0  0  0  0  0  0  0  0
   -1.8351    2.0140   -0.0408 H   0  0  0  0  0  0  0  0  0  0  0  0
   -3.8265   -2.3101    0.1333 H   0  0  0  0  0  0  0  0  0  0  0  0
   -5.4727   -1.7328   -0.0672 H   0  0  0  0  0  0  0  0  0  0  0  0
   -5.8296   -3.4686   -1.8681 H   0  0  0  0  0  0  0  0  0  0  0  0
   -4.1692   -4.0004   -1.6389 H   0  0  0  0  0  0  0  0  0  0  0  0
   -7.5100   -4.1447   -0.1463 H   0  0  0  0  0  0  0  0  0  0  0  0
   -6.8994   -4.8777    1.3453 H   0  0  0  0  0  0  0  0  0  0  0  0
   -6.6127   -3.1746    1.0313 H   0  0  0  0  0  0  0  0  0  0  0  0
   -6.2046   -6.0102   -1.3591 H   0  0  0  0  0  0  0  0  0  0  0  0
   -4.4798   -6.1441   -0.9766 H   0  0  0  0  0  0  0  0  0  0  0  0
   -5.6862   -6.5531    0.2429 H   0  0  0  0  0  0  0  0  0  0  0  0
    0.0874    6.2440    2.3757 H   0  0  0  0  0  0  0  0  0  0  0  0
 15 17  1  1
 16 15  1  0
 18 15  1  0
 15 13  1  0
 39 37  1  0
 13 14  2  0
 13 12  1  0
 29 28  1  0
 29 30  1  0
 37 38  1  0
 37 36  1  0
 14  8  1  0
 28 25  1  0
 36 35  1  0
 30 31  1  0
 12 11  2  0
  8  7  1  0
  8 10  2  0
 31 33  2  0
 31 32  1  0
  6  5  2  0
  6  1  1  0
  5  4  1  0
 35 32  1  0
 25 26  1  0
 25 24  1  0
 34  1  1  0
 34 22  1  0
  1  2  2  0
  4  7  1  0
  4  3  2  0
  2  3  1  0
  3  9  1  0
 11 10  1  0
 26 27  2  0
 24 22  2  0
 24 23  1  0
 22 21  1  0
 27 23  1  0
 23 19  2  0
 21 20  2  0
 19 20  1  0
  2 40  1  0
  5 41  1  0
  6 42  1  0
 10 43  1  0
 11 44  1  0
 12 45  1  0
 14 46  1  0
 20 67  1  0
 26 47  1  0
 27 48  1  0
 28 49  1  0
 28 50  1  0
 29 51  1  0
 29 52  1  0
 30 53  1  0
 32 54  1  0
 32 55  1  0
 34 56  1  0
 35 57  1  0
 35 58  1  0
 36 59  1  0
 36 60  1  0
 38 61  1  0
 38 62  1  0
 38 63  1  0
 39 64  1  0
 39 65  1  0
 39 66  1  0
M  END
