
     RDKit          3D

 50 54  0  0  0  0  0  0  0  0999 V2000
    2.3345   -0.6243    0.6693 C   0  0  0  0  0  0  0  0  0  0  0  0
   -2.9923    2.2028    0.4745 C   0  0  0  0  0  0  0  0  0  0  0  0
   -1.5139    2.3437    0.6435 C   0  0  0  0  0  0  0  0  0  0  0  0
   -3.6281    0.9371    0.1942 C   0  0  0  0  0  0  0  0  0  0  0  0
   -5.7419    2.1155    0.2008 C   0  0  0  0  0  0  0  0  0  0  0  0
   -5.1482    3.3097    0.4574 C   0  0  0  0  0  0  0  0  0  0  0  0
   -3.7532    3.3366    0.5952 C   0  0  0  0  0  0  0  0  0  0  0  0
    0.5633    0.9952    0.6555 C   0  0  0  0  0  0  0  0  0  0  0  0
    0.9967   -0.3317    0.5550 C   0  0  0  0  0  0  0  0  0  0  0  0
   -5.9650   -1.1318    0.8261 C   0  0  0  0  0  0  0  0  0  0  0  0
    7.4485   -0.9962    1.3035 C   0  0  0  0  0  0  0  0  0  0  0  0
   -6.6450   -2.3093    0.5603 C   0  0  0  0  0  0  0  0  0  0  0  0
    6.6464   -0.6813    0.1668 C   0  0  0  0  0  0  0  0  0  0  0  0
    7.4261   -0.9326   -0.9814 C   0  0  0  0  0  0  0  0  0  0  0  0
    7.0559   -0.7730   -2.2464 N   0  0  0  0  0  0  0  0  0  0  0  0
    5.8207   -0.3289   -2.4022 C   0  0  0  0  0  0  0  0  0  0  0  0
    4.9331   -0.0364   -1.3598 C   0  0  0  0  0  0  0  0  0  0  0  0
    5.3499   -0.2172   -0.0511 C   0  0  0  0  0  0  0  0  0  0  0  0
    3.2812    0.3666    0.8822 C   0  0  0  0  0  0  0  0  0  0  0  0
    2.8521    1.6762    0.9757 C   0  0  0  0  0  0  0  0  0  0  0  0
    1.5070    2.0024    0.8690 C   0  0  0  0  0  0  0  0  0  0  0  0
    2.7440   -1.8927    0.5726 F   0  0  0  0  0  0  0  0  0  0  0  0
   -0.8071    1.1951    0.5278 N   0  0  0  0  0  0  0  0  0  0  0  0
   -1.0160    3.4347    0.8725 O   0  0  0  0  0  0  0  0  0  0  0  0
   -5.0135    0.9816    0.0761 N   0  0  0  0  0  0  0  0  0  0  0  0
   -3.0569   -0.1456    0.0554 O   0  0  0  0  0  0  0  0  0  0  0  0
   -5.6955   -0.2461   -0.2052 C   0  0  0  0  0  0  0  0  0  0  0  0
    8.6517   -1.4138    0.8135 C   0  0  0  0  0  0  0  0  0  0  0  0
    8.6379   -1.3755   -0.5541 N   0  0  0  0  0  0  0  0  0  0  0  0
   -6.0950   -0.5206   -1.5028 C   0  0  0  0  0  0  0  0  0  0  0  0
   -6.7805   -1.6946   -1.7784 C   0  0  0  0  0  0  0  0  0  0  0  0
   -7.0399   -2.5674   -0.7394 C   0  0  0  0  0  0  0  0  0  0  0  0
   -7.7012   -3.7023   -0.9992 F   0  0  0  0  0  0  0  0  0  0  0  0
   -6.8107    2.0051    0.0884 H   0  0  0  0  0  0  0  0  0  0  0  0
   -5.7455    4.2024    0.5558 H   0  0  0  0  0  0  0  0  0  0  0  0
   -3.2618    4.2772    0.8056 H   0  0  0  0  0  0  0  0  0  0  0  0
    0.2917   -1.1380    0.3937 H   0  0  0  0  0  0  0  0  0  0  0  0
    7.1760   -0.9252    2.3435 H   0  0  0  0  0  0  0  0  0  0  0  0
   -6.8680   -3.0105    1.3531 H   0  0  0  0  0  0  0  0  0  0  0  0
    5.4845   -0.1848   -3.4226 H   0  0  0  0  0  0  0  0  0  0  0  0
    3.9463    0.3311   -1.6049 H   0  0  0  0  0  0  0  0  0  0  0  0
    3.5798    2.4603    1.1413 H   0  0  0  0  0  0  0  0  0  0  0  0
    1.2125    3.0343    0.9504 H   0  0  0  0  0  0  0  0  0  0  0  0
   -1.3766    0.3694    0.3384 H   0  0  0  0  0  0  0  0  0  0  0  0
    9.5319   -1.7423    1.3414 H   0  0  0  0  0  0  0  0  0  0  0  0
    9.4024   -1.6408   -1.1534 H   0  0  0  0  0  0  0  0  0  0  0  0
   -5.8762    0.1771   -2.3006 H   0  0  0  0  0  0  0  0  0  0  0  0
   -7.1039   -1.9237   -2.7848 H   0  0  0  0  0  0  0  0  0  0  0  0
    4.6001    0.0374    1.0455 O   0  0  0  0  0  0  0  0  0  0  0  0
   -5.6543   -0.9044    1.8371 H   0  0  0  0  0  0  0  0  0  0  0  0
  1  9  2  0
  1 19  1  0
  1 22  1  0
  2  3  1  0
  2  4  1  0
  2  7  2  0
  3 23  1  0
  3 24  2  0
  4 25  1  0
  4 26  2  0
  5  6  2  0
  5 25  1  0
  6  7  1  0
  8  9  1  0
  8 21  2  0
  8 23  1  0
 10 12  2  0
 10 27  1  0
 11 13  1  0
 11 28  2  0
 12 32  1  0
 13 14  2  0
 13 18  1  0
 14 15  1  0
 14 29  1  0
 15 16  2  0
 16 17  1  0
 17 18  2  0
 18 49  1  0
 49 19  1  0
 19 20  2  0
 20 21  1  0
 25 27  1  0
 27 30  2  0
 28 29  1  0
 30 31  1  0
 31 32  2  0
 32 33  1  0
  5 34  1  0
  6 35  1  0
  7 36  1  0
  9 37  1  0
 10 50  1  0
 11 38  1  0
 12 39  1  0
 16 40  1  0
 17 41  1  0
 20 42  1  0
 21 43  1  0
 23 44  1  0
 28 45  1  0
 29 46  1  0
 30 47  1  0
 31 48  1  0
M  END
