
     RDKit          3D

153153  0  0  0  0  0  0  0  0999 V2000
    1.6318   -6.1063   11.5725 C   0  0  0  0  0  0  0  0  0  0  0  0
    0.9379   -6.1413   12.8847 C   0  0  0  0  0  0  0  0  0  0  0  0
    1.6173   -6.4272   14.0032 C   0  0  0  0  0  0  0  0  0  0  0  0
    3.0828   -6.6713   13.9572 C   0  0  0  0  0  0  0  0  0  0  0  0
    3.7831   -6.6214   12.6466 C   0  0  0  0  0  0  0  0  0  0  0  0
    3.0958   -6.3390   11.5271 C   0  0  0  0  0  0  0  0  0  0  0  0
    5.2545   -6.8884   12.6336 C   0  0  0  0  0  0  0  0  0  0  0  0
    1.0552   -5.3763   16.0174 C   0  0  0  0  0  0  0  0  0  0  0  0
   -1.2295   -6.9877   12.6799 C   0  0  0  0  0  0  0  0  0  0  0  0
    3.7433   -6.2926   10.1752 C   0  0  0  0  0  0  0  0  0  0  0  0
    3.8042   -7.6574    9.5490 C   0  0  0  0  0  0  0  0  0  0  0  0
    4.8442   -8.1705    8.8900 C   0  0  0  0  0  0  0  0  0  0  0  0
    4.7527   -9.5129    8.2283 C   0  0  0  0  0  0  0  0  0  0  0  0
    6.1343   -7.4253    8.6732 C   0  0  0  0  0  0  0  0  0  0  0  0
    6.0314   -6.4613    7.4811 C   0  0  0  0  0  0  0  0  0  0  0  0
    7.3194   -5.7604    7.1885 C   0  0  0  0  0  0  0  0  0  0  0  0
    8.0767   -5.9031    6.0984 C   0  0  0  0  0  0  0  0  0  0  0  0
    9.3285   -5.0993    5.9075 C   0  0  0  0  0  0  0  0  0  0  0  0
    7.7146   -6.8142    4.9548 C   0  0  0  0  0  0  0  0  0  0  0  0
    6.9149   -6.0740    3.8716 C   0  0  0  0  0  0  0  0  0  0  0  0
    6.5497   -6.9689    2.7300 C   0  0  0  0  0  0  0  0  0  0  0  0
    5.3316   -7.1960    2.2298 C   0  0  0  0  0  0  0  0  0  0  0  0
    5.1346   -8.1488    1.0853 C   0  0  0  0  0  0  0  0  0  0  0  0
    4.0761   -6.5426    2.7436 C   0  0  0  0  0  0  0  0  0  0  0  0
    3.2453   -7.4546    3.6584 C   0  0  0  0  0  0  0  0  0  0  0  0
    1.9821   -6.7750    4.0879 C   0  0  0  0  0  0  0  0  0  0  0  0
    1.5462   -6.5375    5.3275 C   0  0  0  0  0  0  0  0  0  0  0  0
    2.2568   -6.9629    6.5760 C   0  0  0  0  0  0  0  0  0  0  0  0
    0.2659   -5.7758    5.5519 C   0  0  0  0  0  0  0  0  0  0  0  0
    0.4575   -4.5108    6.4059 C   0  0  0  0  0  0  0  0  0  0  0  0
    1.5374   -3.6393    5.8469 C   0  0  0  0  0  0  0  0  0  0  0  0
    2.5881   -3.1098    6.4770 C   0  0  0  0  0  0  0  0  0  0  0  0
    2.8462   -3.2160    7.9503 C   0  0  0  0  0  0  0  0  0  0  0  0
    3.6501   -2.3861    5.6923 C   0  0  0  0  0  0  0  0  0  0  0  0
    4.8834   -3.2749    5.4571 C   0  0  0  0  0  0  0  0  0  0  0  0
    5.8748   -2.6276    4.5463 C   0  0  0  0  0  0  0  0  0  0  0  0
    7.0080   -2.0068    4.8768 C   0  0  0  0  0  0  0  0  0  0  0  0
    7.5220   -1.8778    6.2797 C   0  0  0  0  0  0  0  0  0  0  0  0
    7.8257   -1.3220    3.8167 C   0  0  0  0  0  0  0  0  0  0  0  0
    7.6271    0.2051    3.8009 C   0  0  0  0  0  0  0  0  0  0  0  0
    6.2446    0.5891    3.3805 C   0  0  0  0  0  0  0  0  0  0  0  0
    5.2894    1.1610    4.1151 C   0  0  0  0  0  0  0  0  0  0  0  0
    3.9412    1.4653    3.5285 C   0  0  0  0  0  0  0  0  0  0  0  0
    5.4567    1.5564    5.5557 C   0  0  0  0  0  0  0  0  0  0  0  0
    5.6653    3.0688    5.7471 C   0  0  0  0  0  0  0  0  0  0  0  0
    6.9750    3.5281    5.1909 C   0  0  0  0  0  0  0  0  0  0  0  0
    7.1778    4.3894    4.1927 C   0  0  0  0  0  0  0  0  0  0  0  0
    8.5648    4.7426    3.7399 C   0  0  0  0  0  0  0  0  0  0  0  0
    6.0685    5.1068    3.4703 C   0  0  0  0  0  0  0  0  0  0  0  0
    5.7464    6.4635    4.1174 C   0  0  0  0  0  0  0  0  0  0  0  0
    4.6828    7.2138    3.3754 C   0  0  0  0  0  0  0  0  0  0  0  0
    4.8773    8.1945    2.4903 C   0  0  0  0  0  0  0  0  0  0  0  0
    3.7291    8.8751    1.8049 C   0  0  0  0  0  0  0  0  0  0  0  0
    6.2441    8.7211    2.1381 C   0  0  0  0  0  0  0  0  0  0  0  0
    6.6622    9.9088    3.0230 C   0  0  0  0  0  0  0  0  0  0  0  0
    7.9753   10.4930    2.5935 C   0  0  0  0  0  0  0  0  0  0  0  0
    9.1873   10.0860    2.9793 C   0  0  0  0  0  0  0  0  0  0  0  0
   10.4349   10.7292    2.4493 C   0  0  0  0  0  0  0  0  0  0  0  0
    9.4241    8.9620    3.9435 C   0  0  0  0  0  0  0  0  0  0  0  0
   -0.3747   -5.8633   12.8902 O   0  0  0  0  0  0  0  0  0  0  0  0
    1.0115   -6.5422   15.1944 O   0  0  0  0  0  0  0  0  0  0  0  0
    3.6757   -6.9184   14.9852 O   0  0  0  0  0  0  0  0  0  0  0  0
    0.9946   -5.8849   10.5646 O   0  0  0  0  0  0  0  0  0  0  0  0
    5.6192   -7.2121   13.6039 H   0  0  0  0  0  0  0  0  0  0  0  0
    5.8068   -5.9895   12.3528 H   0  0  0  0  0  0  0  0  0  0  0  0
    5.5009   -7.6574   11.9008 H   0  0  0  0  0  0  0  0  0  0  0  0
    0.5396   -5.6259   16.9413 H   0  0  0  0  0  0  0  0  0  0  0  0
    0.5433   -4.5396   15.5386 H   0  0  0  0  0  0  0  0  0  0  0  0
    2.0791   -5.0828   16.2530 H   0  0  0  0  0  0  0  0  0  0  0  0
   -2.2488   -6.6098   12.6704 H   0  0  0  0  0  0  0  0  0  0  0  0
   -1.1265   -7.7152   13.4868 H   0  0  0  0  0  0  0  0  0  0  0  0
   -1.0256   -7.4775   11.7262 H   0  0  0  0  0  0  0  0  0  0  0  0
    4.7377   -5.8515   10.2600 H   0  0  0  0  0  0  0  0  0  0  0  0
    3.1689   -5.6300    9.5246 H   0  0  0  0  0  0  0  0  0  0  0  0
    2.8908   -8.2429    9.6083 H   0  0  0  0  0  0  0  0  0  0  0  0
    3.7640   -9.9569    8.3394 H   0  0  0  0  0  0  0  0  0  0  0  0
    5.4897  -10.2070    8.6397 H   0  0  0  0  0  0  0  0  0  0  0  0
    4.9673   -9.4332    7.1584 H   0  0  0  0  0  0  0  0  0  0  0  0
    6.4297   -6.8696    9.5681 H   0  0  0  0  0  0  0  0  0  0  0  0
    6.9414   -8.1379    8.4814 H   0  0  0  0  0  0  0  0  0  0  0  0
    5.6695   -7.0048    6.6058 H   0  0  0  0  0  0  0  0  0  0  0  0
    5.2584   -5.7161    7.6980 H   0  0  0  0  0  0  0  0  0  0  0  0
    7.6526   -5.0605    7.9522 H   0  0  0  0  0  0  0  0  0  0  0  0
    9.2509   -4.4655    5.0194 H   0  0  0  0  0  0  0  0  0  0  0  0
    9.5282   -4.4478    6.7581 H   0  0  0  0  0  0  0  0  0  0  0  0
   10.1981   -5.7450    5.7606 H   0  0  0  0  0  0  0  0  0  0  0  0
    7.1320   -7.6727    5.2973 H   0  0  0  0  0  0  0  0  0  0  0  0
    8.6269   -7.2242    4.5105 H   0  0  0  0  0  0  0  0  0  0  0  0
    7.5086   -5.2282    3.5085 H   0  0  0  0  0  0  0  0  0  0  0  0
    6.0315   -5.6393    4.3382 H   0  0  0  0  0  0  0  0  0  0  0  0
    7.3862   -7.4958    2.2736 H   0  0  0  0  0  0  0  0  0  0  0  0
    6.0735   -8.5982    0.7624 H   0  0  0  0  0  0  0  0  0  0  0  0
    4.6893   -7.6404    0.2262 H   0  0  0  0  0  0  0  0  0  0  0  0
    4.4517   -8.9602    1.3496 H   0  0  0  0  0  0  0  0  0  0  0  0
    3.4585   -6.2468    1.8885 H   0  0  0  0  0  0  0  0  0  0  0  0
    4.2989   -5.6218    3.2835 H   0  0  0  0  0  0  0  0  0  0  0  0
    3.0008   -8.3765    3.1193 H   0  0  0  0  0  0  0  0  0  0  0  0
    3.8557   -7.7516    4.5138 H   0  0  0  0  0  0  0  0  0  0  0  0
    1.3700   -6.4061    3.2661 H   0  0  0  0  0  0  0  0  0  0  0  0
    3.0461   -7.6919    6.4056 H   0  0  0  0  0  0  0  0  0  0  0  0
    1.5589   -7.4025    7.2924 H   0  0  0  0  0  0  0  0  0  0  0  0
    2.7183   -6.1076    7.0740 H   0  0  0  0  0  0  0  0  0  0  0  0
   -0.4652   -6.4188    6.0547 H   0  0  0  0  0  0  0  0  0  0  0  0
   -0.1696   -5.4982    4.5880 H   0  0  0  0  0  0  0  0  0  0  0  0
    0.6612   -4.7924    7.4402 H   0  0  0  0  0  0  0  0  0  0  0  0
   -0.4956   -3.9713    6.4258 H   0  0  0  0  0  0  0  0  0  0  0  0
    1.4650   -3.4661    4.7744 H   0  0  0  0  0  0  0  0  0  0  0  0
    3.8406   -3.6215    8.1526 H   0  0  0  0  0  0  0  0  0  0  0  0
    2.1222   -3.8343    8.4782 H   0  0  0  0  0  0  0  0  0  0  0  0
    2.8261   -2.2242    8.4098 H   0  0  0  0  0  0  0  0  0  0  0  0
    3.2538   -2.0753    4.7220 H   0  0  0  0  0  0  0  0  0  0  0  0
    3.9669   -1.4727    6.2065 H   0  0  0  0  0  0  0  0  0  0  0  0
    5.3453   -3.5472    6.4077 H   0  0  0  0  0  0  0  0  0  0  0  0
    4.5362   -4.2129    5.0131 H   0  0  0  0  0  0  0  0  0  0  0  0
    5.6012   -2.6345    3.4935 H   0  0  0  0  0  0  0  0  0  0  0  0
    8.5763   -2.1585    6.3336 H   0  0  0  0  0  0  0  0  0  0  0  0
    6.9815   -2.4993    6.9912 H   0  0  0  0  0  0  0  0  0  0  0  0
    7.4573   -0.8456    6.6346 H   0  0  0  0  0  0  0  0  0  0  0  0
    7.5632   -1.7187    2.8318 H   0  0  0  0  0  0  0  0  0  0  0  0
    8.8890   -1.5351    3.9683 H   0  0  0  0  0  0  0  0  0  0  0  0
    8.3442    0.6325    3.0926 H   0  0  0  0  0  0  0  0  0  0  0  0
    7.8836    0.6291    4.7720 H   0  0  0  0  0  0  0  0  0  0  0  0
    6.0010    0.3322    2.3508 H   0  0  0  0  0  0  0  0  0  0  0  0
    3.8766    1.1833    2.4776 H   0  0  0  0  0  0  0  0  0  0  0  0
    3.1514    0.9364    4.0692 H   0  0  0  0  0  0  0  0  0  0  0  0
    3.7020    2.5300    3.5994 H   0  0  0  0  0  0  0  0  0  0  0  0
    4.5634    1.2537    6.1115 H   0  0  0  0  0  0  0  0  0  0  0  0
    6.2934    1.0258    6.0135 H   0  0  0  0  0  0  0  0  0  0  0  0
    4.8280    3.6196    5.3124 H   0  0  0  0  0  0  0  0  0  0  0  0
    5.6380    3.2799    6.8211 H   0  0  0  0  0  0  0  0  0  0  0  0
    7.8510    3.0786    5.6544 H   0  0  0  0  0  0  0  0  0  0  0  0
    8.7173    4.4566    2.6960 H   0  0  0  0  0  0  0  0  0  0  0  0
    9.3307    4.2515    4.3402 H   0  0  0  0  0  0  0  0  0  0  0  0
    8.7398    5.8212    3.7910 H   0  0  0  0  0  0  0  0  0  0  0  0
    5.1600    4.5022    3.4343 H   0  0  0  0  0  0  0  0  0  0  0  0
    6.3622    5.2776    2.4299 H   0  0  0  0  0  0  0  0  0  0  0  0
    5.4153    6.2859    5.1445 H   0  0  0  0  0  0  0  0  0  0  0  0
    6.6631    7.0522    4.1959 H   0  0  0  0  0  0  0  0  0  0  0  0
    3.6619    6.8930    3.5697 H   0  0  0  0  0  0  0  0  0  0  0  0
    3.7554    9.9555    1.9703 H   0  0  0  0  0  0  0  0  0  0  0  0
    3.7764    8.7287    0.7227 H   0  0  0  0  0  0  0  0  0  0  0  0
    2.7644    8.5078    2.1541 H   0  0  0  0  0  0  0  0  0  0  0  0
    6.2528    9.0385    1.0912 H   0  0  0  0  0  0  0  0  0  0  0  0
    7.0042    7.9406    2.2224 H   0  0  0  0  0  0  0  0  0  0  0  0
    5.8901   10.6816    2.9804 H   0  0  0  0  0  0  0  0  0  0  0  0
    6.6993    9.5738    4.0625 H   0  0  0  0  0  0  0  0  0  0  0  0
    7.9193   11.2960    1.8631 H   0  0  0  0  0  0  0  0  0  0  0  0
   10.2172   11.5280    1.7407 H   0  0  0  0  0  0  0  0  0  0  0  0
   11.0713    9.9961    1.9465 H   0  0  0  0  0  0  0  0  0  0  0  0
   11.0330   11.1520    3.2608 H   0  0  0  0  0  0  0  0  0  0  0  0
   10.0487    9.2883    4.7788 H   0  0  0  0  0  0  0  0  0  0  0  0
    9.9651    8.1478    3.4537 H   0  0  0  0  0  0  0  0  0  0  0  0
    8.5068    8.5455    4.3567 H   0  0  0  0  0  0  0  0  0  0  0  0
  1  2  1  0
  1  6  1  0
  1 63  2  0
  2  3  2  0
  2 60  1  0
  3  4  1  0
  3 61  1  0
  4  5  1  0
  4 62  2  0
  5  6  2  0
  5  7  1  0
  6 10  1  0
  7 64  1  0
  7 65  1  0
  7 66  1  0
  8 61  1  0
  8 67  1  0
  8 68  1  0
  8 69  1  0
  9 60  1  0
  9 70  1  0
  9 71  1  0
  9 72  1  0
 10 11  1  0
 10 73  1  0
 10 74  1  0
 11 12  2  0
 11 75  1  0
 12 13  1  0
 12 14  1  0
 13 76  1  0
 13 77  1  0
 13 78  1  0
 14 15  1  0
 14 79  1  0
 14 80  1  0
 15 16  1  0
 15 81  1  0
 15 82  1  0
 16 17  2  0
 16 83  1  0
 17 18  1  0
 17 19  1  0
 18 84  1  0
 18 85  1  0
 18 86  1  0
 19 20  1  0
 19 87  1  0
 19 88  1  0
 20 21  1  0
 20 89  1  0
 20 90  1  0
 21 22  2  0
 21 91  1  0
 22 23  1  0
 22 24  1  0
 23 92  1  0
 23 93  1  0
 23 94  1  0
 24 25  1  0
 24 95  1  0
 24 96  1  0
 25 26  1  0
 25 97  1  0
 25 98  1  0
 26 27  2  0
 26 99  1  0
 27 28  1  0
 27 29  1  0
 28100  1  0
 28101  1  0
 28102  1  0
 29 30  1  0
 29103  1  0
 29104  1  0
 30 31  1  0
 30105  1  0
 30106  1  0
 31 32  2  0
 31107  1  0
 32 33  1  0
 32 34  1  0
 33108  1  0
 33109  1  0
 33110  1  0
 34 35  1  0
 34111  1  0
 34112  1  0
 35 36  1  0
 35113  1  0
 35114  1  0
 36 37  2  0
 36115  1  0
 37 38  1  0
 37 39  1  0
 38116  1  0
 38117  1  0
 38118  1  0
 39 40  1  0
 39119  1  0
 39120  1  0
 40 41  1  0
 40121  1  0
 40122  1  0
 41 42  2  0
 41123  1  0
 42 43  1  0
 42 44  1  0
 43124  1  0
 43125  1  0
 43126  1  0
 44 45  1  0
 44127  1  0
 44128  1  0
 45 46  1  0
 45129  1  0
 45130  1  0
 46 47  2  0
 46131  1  0
 47 48  1  0
 47 49  1  0
 48132  1  0
 48133  1  0
 48134  1  0
 49 50  1  0
 49135  1  0
 49136  1  0
 50 51  1  0
 50137  1  0
 50138  1  0
 51 52  2  0
 51139  1  0
 52 53  1  0
 52 54  1  0
 53140  1  0
 53141  1  0
 53142  1  0
 54 55  1  0
 54143  1  0
 54144  1  0
 55 56  1  0
 55145  1  0
 55146  1  0
 56 57  2  0
 56147  1  0
 57 58  1  0
 57 59  1  0
 58148  1  0
 58149  1  0
 58150  1  0
 59151  1  0
 59152  1  0
 59153  1  0
M  END
