
     RDKit          3D

 28 28  0  0  0  0  0  0  0  0999 V2000
   -0.2709   -0.0792    2.3006 C   0  0  0  0  0  0  0  0  0  0  0  0
    1.0689   -0.0627    1.9076 C   0  0  0  0  0  0  0  0  0  0  0  0
    1.3863   -0.0364    0.5555 C   0  0  0  0  0  0  0  0  0  0  0  0
    0.3806   -0.0252   -0.4127 C   0  0  0  0  0  0  0  0  0  0  0  0
   -0.9597   -0.0406   -0.0190 C   0  0  0  0  0  0  0  0  0  0  0  0
   -1.2792   -0.0671    1.3267 C   0  0  0  0  0  0  0  0  0  0  0  0
   -0.5514   -0.1058    3.6138 O   0  0  0  0  0  0  0  0  0  0  0  0
   -2.5289   -0.0825    1.8329 O   0  0  0  0  0  0  0  0  0  0  0  0
    1.9646   -0.0749    2.9113 O   0  0  0  0  0  0  0  0  0  0  0  0
    0.7827    0.0025   -1.8097 C   0  0  0  0  0  0  0  0  0  0  0  0
   -0.0242    0.0165   -2.8797 C   0  0  0  0  0  0  0  0  0  0  0  0
    0.5327    0.0443   -4.2364 C   0  0  0  0  0  0  0  0  0  0  0  0
   -0.4277    0.0537   -5.1588 O   0  0  0  0  0  0  0  0  0  0  0  0
    1.7112    0.0565   -4.5154 O   0  0  0  0  0  0  0  0  0  0  0  0
    3.3382   -0.0572    2.5784 C   0  0  0  0  0  0  0  0  0  0  0  0
   -3.6253   -0.0939    0.9389 C   0  0  0  0  0  0  0  0  0  0  0  0
    2.4191   -0.0234    0.2328 H   0  0  0  0  0  0  0  0  0  0  0  0
   -1.7419   -0.0318   -0.7649 H   0  0  0  0  0  0  0  0  0  0  0  0
   -1.5082   -0.1113    3.7435 H   0  0  0  0  0  0  0  0  0  0  0  0
    1.8552    0.0127   -1.9797 H   0  0  0  0  0  0  0  0  0  0  0  0
   -1.1029    0.0079   -2.7853 H   0  0  0  0  0  0  0  0  0  0  0  0
   -0.0342    0.0710   -6.0436 H   0  0  0  0  0  0  0  0  0  0  0  0
    3.8832   -0.0702    3.5191 H   0  0  0  0  0  0  0  0  0  0  0  0
    3.6284   -0.9333    1.9921 H   0  0  0  0  0  0  0  0  0  0  0  0
    3.6134    0.8448    2.0253 H   0  0  0  0  0  0  0  0  0  0  0  0
   -4.5224   -0.1147    1.5519 H   0  0  0  0  0  0  0  0  0  0  0  0
   -3.6466    0.8018    0.3138 H   0  0  0  0  0  0  0  0  0  0  0  0
   -3.6151   -0.9785    0.2980 H   0  0  0  0  0  0  0  0  0  0  0  0
  1  2  2  0
  1  6  1  0
  1  7  1  0
  2  3  1  0
  2  9  1  0
  3  4  2  0
  3 17  1  0
  4  5  1  0
  4 10  1  0
  5  6  2  0
  5 18  1  0
  6  8  1  0
  7 19  1  0
  8 16  1  0
  9 15  1  0
 10 11  2  0
 10 20  1  0
 11 12  1  0
 11 21  1  0
 12 13  1  0
 12 14  2  0
 13 22  1  0
 15 23  1  0
 15 24  1  0
 15 25  1  0
 16 26  1  0
 16 27  1  0
 16 28  1  0
M  END
