
     RDKit          3D

 31 32  0  0  0  0  0  0  0  0999 V2000
    0.8591    0.1066    0.0832 C   0  0  0  0  0  0  0  0  0  0  0  0
    2.0678    0.7543    0.2076 N   0  0  0  0  0  0  0  0  0  0  0  0
    3.3376    0.2234    0.0956 C   0  0  0  0  0  0  0  0  0  0  0  0
    5.7044    0.6158    0.1643 C   0  0  0  0  0  0  0  0  0  0  0  0
    4.9775   -1.4796   -0.2481 C   0  0  0  0  0  0  0  0  0  0  0  0
   -6.1374   -1.4898    0.2045 C   0  0  0  0  0  0  0  0  0  0  0  0
   -4.2635   -0.0814   -0.1583 C   0  0  0  0  0  0  0  0  0  0  0  0
   -3.3995   -0.9307    0.5270 C   0  0  0  0  0  0  0  0  0  0  0  0
   -2.0563   -0.6027    0.6691 C   0  0  0  0  0  0  0  0  0  0  0  0
   -1.5475    0.5630    0.1114 C   0  0  0  0  0  0  0  0  0  0  0  0
   -2.4175    1.4102   -0.5739 C   0  0  0  0  0  0  0  0  0  0  0  0
   -3.7580    1.1011   -0.7000 C   0  0  0  0  0  0  0  0  0  0  0  0
    4.4159    1.0995    0.2635 C   0  0  0  0  0  0  0  0  0  0  0  0
    3.6432   -1.1136   -0.1702 C   0  0  0  0  0  0  0  0  0  0  0  0
   -0.2017    0.9462    0.2518 N   0  0  0  0  0  0  0  0  0  0  0  0
    6.0053   -0.6551   -0.0884 N   0  0  0  0  0  0  0  0  0  0  0  0
    0.7508   -1.0843   -0.1394 O   0  0  0  0  0  0  0  0  0  0  0  0
    2.0423    1.7428    0.4072 H   0  0  0  0  0  0  0  0  0  0  0  0
    6.5376    1.2968    0.2978 H   0  0  0  0  0  0  0  0  0  0  0  0
    5.2189   -2.5169   -0.4541 H   0  0  0  0  0  0  0  0  0  0  0  0
   -7.1933   -1.4806   -0.0544 H   0  0  0  0  0  0  0  0  0  0  0  0
   -5.6807   -2.3909   -0.2133 H   0  0  0  0  0  0  0  0  0  0  0  0
   -6.0440   -1.5214    1.2932 H   0  0  0  0  0  0  0  0  0  0  0  0
   -3.7486   -1.8515    0.9737 H   0  0  0  0  0  0  0  0  0  0  0  0
   -1.4190   -1.2689    1.2319 H   0  0  0  0  0  0  0  0  0  0  0  0
   -2.0424    2.3262   -1.0138 H   0  0  0  0  0  0  0  0  0  0  0  0
   -4.4192    1.7734   -1.2323 H   0  0  0  0  0  0  0  0  0  0  0  0
    4.2520    2.1500    0.4693 H   0  0  0  0  0  0  0  0  0  0  0  0
    2.8817   -1.8603   -0.3131 H   0  0  0  0  0  0  0  0  0  0  0  0
   -0.0298    1.9402    0.2737 H   0  0  0  0  0  0  0  0  0  0  0  0
   -5.5790   -0.3117   -0.3403 O   0  0  0  0  0  0  0  0  0  0  0  0
 14  5  2  0
 14  3  1  0
  5 16  1  0
 16  4  2  0
  2  3  1  0
  2  1  1  0
  3 13  2  0
 15  1  1  0
 15 10  1  0
  9 10  2  0
  9  8  1  0
  1 17  2  0
  4 13  1  0
 10 11  1  0
  8  7  2  0
 11 12  2  0
  7 12  1  0
  7 31  1  0
  6 31  1  0
  2 18  1  0
  4 19  1  0
  5 20  1  0
  6 21  1  0
  6 22  1  0
  6 23  1  0
  8 24  1  0
  9 25  1  0
 11 26  1  0
 12 27  1  0
 13 28  1  0
 14 29  1  0
 15 30  1  0
M  END
