
     RDKit          3D

 43 46  0  0  0  0  0  0  0  0999 V2000
   -2.5029    1.8397    1.6008 N   0  0  0  0  0  0  0  0  0  0  0  0
   -3.2907    0.7992    1.8629 C   0  0  0  0  0  0  0  0  0  0  0  0
   -3.2704   -0.3998    1.3220 N   0  0  0  0  0  0  0  0  0  0  0  0
   -2.3154   -0.5185    0.3936 C   0  0  0  0  0  0  0  0  0  0  0  0
   -1.4092    0.4752    0.0010 C   0  0  0  0  0  0  0  0  0  0  0  0
   -1.5462    1.7126    0.6759 C   0  0  0  0  0  0  0  0  0  0  0  0
   -3.3534   -3.2295   -1.6274 C   0  0  0  0  0  0  0  0  0  0  0  0
   -1.6922   -3.9801    0.1250 C   0  0  0  0  0  0  0  0  0  0  0  0
   -0.7848    2.7798    0.4324 N   0  0  0  0  0  0  0  0  0  0  0  0
    3.9521   -1.0694    1.7792 C   0  0  0  0  0  0  0  0  0  0  0  0
    2.9347   -1.7401    1.0731 C   0  0  0  0  0  0  0  0  0  0  0  0
    3.0202    2.9778   -0.6886 C   0  0  0  0  0  0  0  0  0  0  0  0
    1.9751    2.3221   -1.3715 C   0  0  0  0  0  0  0  0  0  0  0  0
    4.2057    0.2490    1.5195 C   0  0  0  0  0  0  0  0  0  0  0  0
    3.7356    2.3125    0.2640 C   0  0  0  0  0  0  0  0  0  0  0  0
    2.1824   -1.0797    0.1388 C   0  0  0  0  0  0  0  0  0  0  0  0
   -1.0269   -1.3782   -1.1862 N   0  0  0  0  0  0  0  0  0  0  0  0
    1.6443    1.0157   -1.1064 C   0  0  0  0  0  0  0  0  0  0  0  0
   -0.6195   -0.1448   -1.0093 C   0  0  0  0  0  0  0  0  0  0  0  0
    3.4518    0.9567    0.5541 C   0  0  0  0  0  0  0  0  0  0  0  0
    2.4066    0.2904   -0.1425 C   0  0  0  0  0  0  0  0  0  0  0  0
   -2.0447   -1.6065   -0.3446 N   0  0  0  0  0  0  0  0  0  0  0  0
   -4.0452    0.9691    2.6242 H   0  0  0  0  0  0  0  0  0  0  0  0
   -3.8760   -4.1834   -1.5592 H   0  0  0  0  0  0  0  0  0  0  0  0
   -4.0811   -2.4653   -1.9001 H   0  0  0  0  0  0  0  0  0  0  0  0
   -2.6157   -3.3067   -2.4264 H   0  0  0  0  0  0  0  0  0  0  0  0
   -2.1971   -4.9422    0.2109 H   0  0  0  0  0  0  0  0  0  0  0  0
   -0.8929   -4.0814   -0.6093 H   0  0  0  0  0  0  0  0  0  0  0  0
   -1.2447   -3.7449    1.0907 H   0  0  0  0  0  0  0  0  0  0  0  0
    0.0381    2.7258   -0.1426 H   0  0  0  0  0  0  0  0  0  0  0  0
   -0.8992    3.5996    1.0047 H   0  0  0  0  0  0  0  0  0  0  0  0
    2.7478   -2.7877    1.2704 H   0  0  0  0  0  0  0  0  0  0  0  0
    3.2424    4.0106   -0.9218 H   0  0  0  0  0  0  0  0  0  0  0  0
    1.4160    2.8699   -2.1220 H   0  0  0  0  0  0  0  0  0  0  0  0
    4.9959    0.7694    2.0473 H   0  0  0  0  0  0  0  0  0  0  0  0
    4.5335    2.8100    0.8012 H   0  0  0  0  0  0  0  0  0  0  0  0
    1.4142   -1.6237   -0.3922 H   0  0  0  0  0  0  0  0  0  0  0  0
    0.5006    0.3786   -1.8551 C   0  0  0  0  0  0  0  0  0  0  0  0
   -2.6895   -2.9102   -0.2959 C   0  0  1  0  0  0  0  0  0  0  0  0
    4.5346   -1.6029    2.5187 H   0  0  0  0  0  0  0  0  0  0  0  0
    0.1013    1.1110   -2.5616 H   0  0  0  0  0  0  0  0  0  0  0  0
    0.8650   -0.4557   -2.4598 H   0  0  0  0  0  0  0  0  0  0  0  0
   -3.4578   -2.8164    0.4729 H   0  0  0  0  0  0  0  0  0  0  0  0
  2  1  2  0
  6  1  1  0
  3  2  1  0
  2 23  1  0
  4  3  2  0
 22  4  1  0
  4  5  1  0
 19  5  1  0
  5  6  2  0
  6  9  1  0
 39  7  1  0
  7 24  1  0
  7 25  1  0
  7 26  1  0
  8 39  1  0
  8 27  1  0
  8 28  1  0
  8 29  1  0
  9 30  1  0
  9 31  1  0
 11 10  2  0
 10 14  1  0
 10 40  1  0
 16 11  1  0
 11 32  1  0
 13 12  1  0
 12 15  2  0
 12 33  1  0
 18 13  2  0
 13 34  1  0
 20 14  2  0
 14 35  1  0
 20 15  1  0
 15 36  1  0
 16 21  2  0
 16 37  1  0
 19 38  1  0
 38 18  1  0
 38 41  1  0
 38 42  1  0
 22 17  1  0
 17 19  2  0
 18 21  1  0
 21 20  1  0
 39 22  1  0
 39 43  1  1
M  END
