
     RDKit          3D

 54 58  0  0  0  0  0  0  0  0999 V2000
    8.0276   -0.9630    0.0304 C   0  0  0  0  0  0  0  0  0  0  0  0
    5.8522   -0.6956    0.1501 C   0  0  0  0  0  0  0  0  0  0  0  0
    5.6057   -1.9535   -0.3769 C   0  0  0  0  0  0  0  0  0  0  0  0
    6.7380   -2.7213   -0.7077 C   0  0  0  0  0  0  0  0  0  0  0  0
    4.6217   -0.1547    0.3813 N   0  0  0  0  0  0  0  0  0  0  0  0
    3.7112   -1.1021    0.0013 C   0  0  0  0  0  0  0  0  0  0  0  0
    4.3825    1.1641    0.9647 C   0  0  1  0  0  0  0  0  0  0  0  0
    4.7448    2.2771   -0.0155 C   0  0  1  0  0  0  0  0  0  0  0  0
    3.4204    2.4401   -0.7681 C   0  0  1  0  0  0  0  0  0  0  0  0
    2.3986    2.2246    0.3445 C   0  0  1  0  0  0  0  0  0  0  0  0
    1.0763    1.6739   -0.1396 C   0  0  0  0  0  0  0  0  0  0  0  0
   -1.1727    1.0792    0.4806 C   0  0  0  0  0  0  0  0  0  0  0  0
   -2.1754    1.0991    1.6352 C   0  0  0  0  0  0  0  0  0  0  0  0
   -3.4888    0.6322    1.2276 C   0  0  0  0  0  0  0  0  0  0  0  0
   -4.5727    0.2496    0.8672 C   0  0  0  0  0  0  0  0  0  0  0  0
   -5.8502   -0.1981    0.4560 C   0  0  0  0  0  0  0  0  0  0  0  0
   -7.7324   -1.3193    0.5288 C   0  0  0  0  0  0  0  0  0  0  0  0
   -9.7282   -2.0481   -0.0249 C   0  0  0  0  0  0  0  0  0  0  0  0
   -8.7758   -0.5152   -1.4517 C   0  0  0  0  0  0  0  0  0  0  0  0
   -7.6612   -0.4978   -0.5903 C   0  0  0  0  0  0  0  0  0  0  0  0
    7.9440   -2.1861   -0.4869 N   0  0  0  0  0  0  0  0  0  0  0  0
    7.0458   -0.1490    0.3771 N   0  0  0  0  0  0  0  0  0  0  0  0
    6.6535   -3.9446   -1.2316 N   0  0  0  0  0  0  0  0  0  0  0  0
    4.2593   -2.1886   -0.4610 N   0  0  0  0  0  0  0  0  0  0  0  0
    0.1154    1.5579    0.9369 N   0  0  0  0  0  0  0  0  0  0  0  0
   -6.5624   -1.1131    1.1842 N   0  0  0  0  0  0  0  0  0  0  0  0
   -8.7463   -2.1180    0.8570 N   0  0  0  0  0  0  0  0  0  0  0  0
   -9.8009   -1.3109   -1.1309 N   0  0  0  0  0  0  0  0  0  0  0  0
   -6.4846    0.1929   -0.6207 N   0  0  0  0  0  0  0  0  0  0  0  0
   -8.8370    0.2167   -2.5647 N   0  0  0  0  0  0  0  0  0  0  0  0
    3.0251    1.3039    1.2450 O   0  0  0  0  0  0  0  0  0  0  0  0
    3.2465    3.7029   -1.3460 O   0  0  0  0  0  0  0  0  0  0  0  0
    5.0385    3.4212    0.7379 O   0  0  0  0  0  0  0  0  0  0  0  0
    9.0345   -0.5908    0.1857 H   0  0  0  0  0  0  0  0  0  0  0  0
    2.6485   -0.9455    0.0959 H   0  0  0  0  0  0  0  0  0  0  0  0
    4.9722    1.2247    1.8836 H   0  0  0  0  0  0  0  0  0  0  0  0
    5.5762    1.9981   -0.6733 H   0  0  0  0  0  0  0  0  0  0  0  0
    3.3295    1.6429   -1.5177 H   0  0  0  0  0  0  0  0  0  0  0  0
    2.2192    3.1683    0.8735 H   0  0  0  0  0  0  0  0  0  0  0  0
    0.6835    2.3763   -0.8809 H   0  0  0  0  0  0  0  0  0  0  0  0
    1.2449    0.7252   -0.6751 H   0  0  0  0  0  0  0  0  0  0  0  0
   -1.1307    0.0678    0.0516 H   0  0  0  0  0  0  0  0  0  0  0  0
   -1.5283    1.7405   -0.3130 H   0  0  0  0  0  0  0  0  0  0  0  0
   -1.8157    0.4696    2.4545 H   0  0  0  0  0  0  0  0  0  0  0  0
   -2.2561    2.1145    2.0318 H   0  0  0  0  0  0  0  0  0  0  0  0
  -10.5936   -2.6709    0.1749 H   0  0  0  0  0  0  0  0  0  0  0  0
    5.7640   -4.3869   -1.3816 H   0  0  0  0  0  0  0  0  0  0  0  0
    7.4876   -4.4711   -1.4267 H   0  0  0  0  0  0  0  0  0  0  0  0
    0.4731    0.9156    1.6350 H   0  0  0  0  0  0  0  0  0  0  0  0
   -6.2677   -1.5440    2.0479 H   0  0  0  0  0  0  0  0  0  0  0  0
   -9.6853    0.2430   -3.1041 H   0  0  0  0  0  0  0  0  0  0  0  0
   -8.1141    0.8780   -2.7883 H   0  0  0  0  0  0  0  0  0  0  0  0
    3.6780    3.7105   -2.2065 H   0  0  0  0  0  0  0  0  0  0  0  0
    4.8165    4.1910    0.1997 H   0  0  0  0  0  0  0  0  0  0  0  0
 23  4  1  0
 24  6  2  0
 24  3  1  0
  4  3  2  0
  4 21  1  0
 32  9  1  0
  6  5  1  0
  3  2  1  0
  9  8  1  0
  9 10  1  0
  8 33  1  0
  8  7  1  0
 21  1  2  0
  5  2  1  0
  5  7  1  0
  2 22  2  0
  1 22  1  0
  7 31  1  0
 10 31  1  0
 10 11  1  0
 11 25  1  0
 30 19  1  0
 25 12  1  0
 19 28  1  0
 19 20  2  0
 28 18  2  0
 29 20  1  0
 29 16  2  0
 20 17  1  0
 12 13  1  0
 18 27  1  0
 16 15  1  0
 16 26  1  0
 17 27  2  0
 17 26  1  0
 15 14  3  0
 14 13  1  0
  1 34  1  0
  6 35  1  0
  7 36  1  1
  8 37  1  6
  9 38  1  6
 10 39  1  1
 11 40  1  0
 11 41  1  0
 12 42  1  0
 12 43  1  0
 13 44  1  0
 13 45  1  0
 18 46  1  0
 23 47  1  0
 23 48  1  0
 25 49  1  0
 26 50  1  0
 30 51  1  0
 30 52  1  0
 32 53  1  0
 33 54  1  0
M  END
