
     RDKit          3D

 28 30  0  0  0  0  0  0  0  0999 V2000
    3.1735   -0.9933   -2.0352 O   0  0  0  0  0  0  0  0  0  0  0  0
    3.5774   -0.5012   -1.0164 C   0  0  0  0  0  0  0  0  0  0  0  0
    4.9878   -0.2926   -0.5845 C   0  0  0  0  0  0  0  0  0  0  0  0
    4.9861    0.2872    0.6092 C   0  0  0  0  0  0  0  0  0  0  0  0
    3.5742    0.4980    1.0355 C   0  0  0  0  0  0  0  0  0  0  0  0
    3.1669    0.9906    2.0526 O   0  0  0  0  0  0  0  0  0  0  0  0
    2.7831   -0.0010    0.0080 N   0  0  0  0  0  0  0  0  0  0  0  0
    1.3710   -0.0002    0.0059 C   0  0  0  0  0  0  0  0  0  0  0  0
    0.6833    1.2055   -0.0095 C   0  0  0  0  0  0  0  0  0  0  0  0
   -0.7017    1.2061    0.0039 C   0  0  0  0  0  0  0  0  0  0  0  0
    0.6822   -1.2053    0.0191 C   0  0  0  0  0  0  0  0  0  0  0  0
   -0.7028   -1.2049    0.0016 C   0  0  0  0  0  0  0  0  0  0  0  0
   -1.3904    0.0009    0.0017 C   0  0  0  0  0  0  0  0  0  0  0  0
   -2.8024    0.0016   -0.0005 N   0  0  0  0  0  0  0  0  0  0  0  0
   -3.5930    0.4862   -1.0354 C   0  0  0  0  0  0  0  0  0  0  0  0
   -3.1852    0.9647   -2.0589 O   0  0  0  0  0  0  0  0  0  0  0  0
   -5.0051    0.2811   -0.6068 C   0  0  0  0  0  0  0  0  0  0  0  0
   -5.0075   -0.2822    0.5947 C   0  0  0  0  0  0  0  0  0  0  0  0
   -3.5972   -0.4853    1.0299 C   0  0  0  0  0  0  0  0  0  0  0  0
   -3.1938   -0.9642    2.0551 O   0  0  0  0  0  0  0  0  0  0  0  0
    5.8311   -0.5853   -1.1911 H   0  0  0  0  0  0  0  0  0  0  0  0
    5.8274    0.5774    1.2195 H   0  0  0  0  0  0  0  0  0  0  0  0
    1.2241    2.1420   -0.0319 H   0  0  0  0  0  0  0  0  0  0  0  0
   -1.2419    2.1432    0.0155 H   0  0  0  0  0  0  0  0  0  0  0  0
    1.2223   -2.1422    0.0431 H   0  0  0  0  0  0  0  0  0  0  0  0
   -1.2438   -2.1415   -0.0119 H   0  0  0  0  0  0  0  0  0  0  0  0
   -5.8457    0.5641   -1.2215 H   0  0  0  0  0  0  0  0  0  0  0  0
   -5.8511   -0.5666    1.2047 H   0  0  0  0  0  0  0  0  0  0  0  0
 20 19  2  0
  1  2  2  0
 11 12  2  0
 11  8  1  0
 12 13  1  0
 19 18  1  0
 19 14  1  0
  2  3  1  0
  2  7  1  0
 18 17  2  0
  3  4  2  0
  8  7  1  0
  8  9  2  0
 13 14  1  0
 13 10  2  0
  7  5  1  0
 14 15  1  0
 17 15  1  0
  4  5  1  0
 15 16  2  0
  5  6  2  0
  9 10  1  0
  3 21  1  0
  4 22  1  0
  9 23  1  0
 10 24  1  0
 11 25  1  0
 12 26  1  0
 17 27  1  0
 18 28  1  0
M  END
