
     RDKit          3D

 29 31  0  0  0  0  0  0  0  0999 V2000
    2.3760    1.6636   -1.1203 C   0  0  0  0  0  0  0  0  0  0  0  0
    0.9309    0.3191   -0.1594 C   0  0  0  0  0  0  0  0  0  0  0  0
    1.9236   -0.5632    0.2348 C   0  0  0  0  0  0  0  0  0  0  0  0
    3.2408   -0.2203   -0.1222 C   0  0  0  0  0  0  0  0  0  0  0  0
    0.1116   -1.3842    0.9389 C   0  0  0  0  0  0  0  0  0  0  0  0
   -1.5614    0.2983    0.0949 C   0  0  1  0  0  0  0  0  0  0  0  0
   -3.4599   -0.0785   -1.2304 C   0  0  0  0  0  0  0  0  0  0  0  0
   -4.3969    0.0055   -0.0390 C   0  0  0  0  0  0  0  0  0  0  0  0
   -3.7796    0.8807    1.0461 C   0  0  0  0  0  0  0  0  0  0  0  0
   -2.3728    0.3920    1.3786 C   0  0  0  0  0  0  0  0  0  0  0  0
    3.4292    0.9133   -0.8073 N   0  0  0  0  0  0  0  0  0  0  0  0
    1.1022    1.4493   -0.8410 N   0  0  0  0  0  0  0  0  0  0  0  0
    4.2929   -0.9804    0.1858 N   0  0  0  0  0  0  0  0  0  0  0  0
    1.3886   -1.6247    0.9194 N   0  0  0  0  0  0  0  0  0  0  0  0
   -0.2337   -0.2179    0.3113 N   0  0  0  0  0  0  0  0  0  0  0  0
   -2.1710   -0.5391   -0.8514 O   0  0  0  0  0  0  0  0  0  0  0  0
    2.5974    2.5682   -1.6767 H   0  0  0  0  0  0  0  0  0  0  0  0
   -0.6289   -2.0228    1.3964 H   0  0  0  0  0  0  0  0  0  0  0  0
   -1.4323    1.3090   -0.3163 H   0  0  0  0  0  0  0  0  0  0  0  0
   -3.8275   -0.7778   -1.9817 H   0  0  0  0  0  0  0  0  0  0  0  0
   -3.3764    0.9090   -1.7060 H   0  0  0  0  0  0  0  0  0  0  0  0
   -5.3559    0.4119   -0.3666 H   0  0  0  0  0  0  0  0  0  0  0  0
   -4.5903   -0.9975    0.3518 H   0  0  0  0  0  0  0  0  0  0  0  0
   -3.7300    1.9165    0.6953 H   0  0  0  0  0  0  0  0  0  0  0  0
   -4.3984    0.8829    1.9443 H   0  0  0  0  0  0  0  0  0  0  0  0
   -2.4280   -0.5865    1.8646 H   0  0  0  0  0  0  0  0  0  0  0  0
   -1.8724    1.0729    2.0697 H   0  0  0  0  0  0  0  0  0  0  0  0
    5.2234   -0.6690   -0.0330 H   0  0  0  0  0  0  0  0  0  0  0  0
    4.1878   -1.8061    0.7486 H   0  0  0  0  0  0  0  0  0  0  0  0
 13  4  1  0
  4 11  1  0
  4  3  2  0
 11  1  2  0
 14  3  1  0
 14  5  2  0
  3  2  1  0
  1 12  1  0
 10  9  1  0
 10  6  1  0
  5 15  1  0
  2 12  2  0
  2 15  1  0
 15  6  1  0
  9  8  1  0
  6 16  1  0
  8  7  1  0
 16  7  1  0
  1 17  1  0
  5 18  1  0
  6 19  1  6
  7 20  1  0
  7 21  1  0
  8 22  1  0
  8 23  1  0
  9 24  1  0
  9 25  1  0
 10 26  1  0
 10 27  1  0
 13 28  1  0
 13 29  1  0
M  END
