
     RDKit          3D

 12 11  0  0  0  0  0  0  0  0999 V2000
   -0.7765    0.0780    2.7321 N   0  0  0  0  0  0  0  0  0  0  0  0
    0.0564   -0.0219    1.6988 C   0  0  0  0  0  0  0  0  0  0  0  0
    1.2568   -0.1442    1.7379 O   0  0  0  0  0  0  0  0  0  0  0  0
   -0.6338    0.0363    0.5210 O   0  0  0  0  0  0  0  0  0  0  0  0
    0.1363   -0.1034   -0.9085 P   0  0  1  0  0  0  0  0  0  0  0  0
    0.8767   -1.3513   -1.1382 O   0  0  0  0  0  0  0  0  0  0  0  0
   -1.1689    0.1604   -1.7796 O   0  0  0  0  0  0  0  0  0  0  0  0
    1.0797    1.1673   -1.0453 O   0  0  0  0  0  0  0  0  0  0  0  0
   -1.7714    0.1675    2.6158 H   0  0  0  0  0  0  0  0  0  0  0  0
   -0.4082    0.0514    3.6675 H   0  0  0  0  0  0  0  0  0  0  0  0
   -1.0652   -0.0536   -2.7171 H   0  0  0  0  0  0  0  0  0  0  0  0
    0.6448    2.0308   -1.0248 H   0  0  0  0  0  0  0  0  0  0  0  0
  1  2  1  0
  1  9  1  0
  1 10  1  0
  2  3  2  0
  2  4  1  0
  5  4  1  1
  5  6  2  0
  5  7  1  0
  5  8  1  0
  7 11  1  0
  8 12  1  0
M  END
