
     RDKit          3D

 55 60  0  0  0  0  0  0  0  0999 V2000
   -0.9406   -1.1471    1.5802 O   0  0  0  0  0  0  0  0  0  0  0  0
   -0.9907   -0.0942    0.9780 C   0  0  0  0  0  0  0  0  0  0  0  0
    0.2799    0.6682    0.6663 C   0  0  0  0  0  0  0  0  0  0  0  0
    1.5476   -0.1504    0.8542 C   0  0  0  0  0  0  0  0  0  0  0  0
    2.8030    0.6777    0.6102 C   0  0  0  0  0  0  0  0  0  0  0  0
    4.0682   -0.1636    0.7268 C   0  0  0  0  0  0  0  0  0  0  0  0
    5.3516    0.6385    0.6269 C   0  0  2  0  0  0  0  0  0  0  0  0
    5.5612    1.4598   -0.9878 S   0  0  0  0  0  0  0  0  0  0  0  0
    7.2764    1.8259   -0.5385 C   0  0  0  0  0  0  0  0  0  0  0  0
    7.8164    0.5560    0.1232 C   0  0  2  0  0  0  0  0  0  0  0  0
    8.2800   -0.4175   -0.8297 N   0  0  0  0  0  0  0  0  0  0  0  0
    6.6325   -0.1881    0.8141 C   0  0  2  0  0  0  0  0  0  0  0  0
    6.6067   -1.4498    0.1203 N   0  0  0  0  0  0  0  0  0  0  0  0
    7.6131   -1.5968   -0.7825 C   0  0  0  0  0  0  0  0  0  0  0  0
    7.8602   -2.6005   -1.4343 O   0  0  0  0  0  0  0  0  0  0  0  0
   -2.2882    0.5029    0.5457 C   0  0  0  0  0  0  0  0  0  0  0  0
   -2.3402    1.8867    0.3673 C   0  0  0  0  0  0  0  0  0  0  0  0
   -3.5114    2.5402    0.0470 C   0  0  0  0  0  0  0  0  0  0  0  0
   -4.6924    1.8232   -0.1285 C   0  0  0  0  0  0  0  0  0  0  0  0
   -5.9190    2.4842   -0.4559 C   0  0  0  0  0  0  0  0  0  0  0  0
   -7.0622    1.7871   -0.6349 C   0  0  0  0  0  0  0  0  0  0  0  0
   -7.0812    0.3622   -0.5053 C   0  0  0  0  0  0  0  0  0  0  0  0
   -8.2530   -0.3726   -0.6892 C   0  0  0  0  0  0  0  0  0  0  0  0
   -8.2507   -1.7539   -0.5648 C   0  0  0  0  0  0  0  0  0  0  0  0
   -7.0789   -2.4256   -0.2570 C   0  0  0  0  0  0  0  0  0  0  0  0
   -5.8878   -1.7232   -0.0645 C   0  0  0  0  0  0  0  0  0  0  0  0
   -5.8785   -0.3149   -0.1838 C   0  0  0  0  0  0  0  0  0  0  0  0
   -4.6711    0.4128    0.0148 C   0  0  0  0  0  0  0  0  0  0  0  0
   -4.6594   -2.3819    0.2391 C   0  0  0  0  0  0  0  0  0  0  0  0
   -3.5114   -1.6950    0.4403 C   0  0  0  0  0  0  0  0  0  0  0  0
   -3.4643   -0.2613    0.3557 C   0  0  0  0  0  0  0  0  0  0  0  0
    0.2281    1.0622   -0.3524 H   0  0  0  0  0  0  0  0  0  0  0  0
    0.3091    1.5500    1.3174 H   0  0  0  0  0  0  0  0  0  0  0  0
    1.5806   -0.5643    1.8643 H   0  0  0  0  0  0  0  0  0  0  0  0
    1.5367   -1.0039    0.1698 H   0  0  0  0  0  0  0  0  0  0  0  0
    2.7545    1.1372   -0.3824 H   0  0  0  0  0  0  0  0  0  0  0  0
    2.8413    1.5036    1.3284 H   0  0  0  0  0  0  0  0  0  0  0  0
    4.0697   -0.6763    1.6955 H   0  0  0  0  0  0  0  0  0  0  0  0
    4.0593   -0.9449   -0.0377 H   0  0  0  0  0  0  0  0  0  0  0  0
    5.3459    1.4204    1.3944 H   0  0  0  0  0  0  0  0  0  0  0  0
    7.8497    2.1054   -1.4217 H   0  0  0  0  0  0  0  0  0  0  0  0
    7.3040    2.6608    0.1640 H   0  0  0  0  0  0  0  0  0  0  0  0
    8.6035    0.8165    0.8350 H   0  0  0  0  0  0  0  0  0  0  0  0
    9.1256   -0.3048   -1.3618 H   0  0  0  0  0  0  0  0  0  0  0  0
    6.8107   -0.3309    1.8837 H   0  0  0  0  0  0  0  0  0  0  0  0
    6.1164   -2.2516    0.4774 H   0  0  0  0  0  0  0  0  0  0  0  0
   -1.4488    2.4829    0.5022 H   0  0  0  0  0  0  0  0  0  0  0  0
   -3.5155    3.6169   -0.0648 H   0  0  0  0  0  0  0  0  0  0  0  0
   -5.9107    3.5622   -0.5574 H   0  0  0  0  0  0  0  0  0  0  0  0
   -7.9840    2.2986   -0.8835 H   0  0  0  0  0  0  0  0  0  0  0  0
   -9.1705    0.1478   -0.9349 H   0  0  0  0  0  0  0  0  0  0  0  0
   -9.1674   -2.3092   -0.7127 H   0  0  0  0  0  0  0  0  0  0  0  0
   -7.0790   -3.5048   -0.1656 H   0  0  0  0  0  0  0  0  0  0  0  0
   -4.6549   -3.4631    0.3052 H   0  0  0  0  0  0  0  0  0  0  0  0
   -2.6152   -2.2464    0.6678 H   0  0  0  0  0  0  0  0  0  0  0  0
 18 17  2  0
 18 19  1  0
 20 19  2  0
 20 21  1  0
 17 16  1  0
 19 28  1  0
 21 22  2  0
  3  4  1  0
  3  2  1  0
 16  2  1  0
 16 31  2  0
 28 31  1  0
 28 27  2  0
 22 27  1  0
 22 23  1  0
  4  5  1  0
  2  1  2  0
 31 30  1  0
 27 26  1  0
 23 24  2  0
 30 29  2  0
 26 29  1  0
 26 25  2  0
 24 25  1  0
  5  6  1  0
  6  7  1  0
  8  7  1  0
  8  9  1  0
 13 14  1  0
 13 12  1  0
  7 12  1  0
 15 14  2  0
 14 11  1  0
 12 10  1  0
  9 10  1  0
 11 10  1  0
  3 32  1  0
  3 33  1  0
  4 34  1  0
  4 35  1  0
  5 36  1  0
  5 37  1  0
  6 38  1  0
  6 39  1  0
  7 40  1  1
  9 41  1  0
  9 42  1  0
 10 43  1  1
 11 44  1  0
 12 45  1  1
 13 46  1  0
 17 47  1  0
 18 48  1  0
 20 49  1  0
 21 50  1  0
 23 51  1  0
 24 52  1  0
 25 53  1  0
 29 54  1  0
 30 55  1  0
M  END
