
     RDKit          3D

 66 69  0  0  0  0  0  0  0  0999 V2000
   -9.8941    1.5192    1.0882 C   0  0  0  0  0  0  0  0  0  0  0  0
  -10.5073    2.6361    1.4521 N   0  0  0  0  0  0  0  0  0  0  0  0
   -9.8381    3.7781    1.3448 C   0  0  0  0  0  0  0  0  0  0  0  0
   -8.5310    3.8505    0.8847 C   0  0  0  0  0  0  0  0  0  0  0  0
   -7.8948    2.6798    0.5137 C   0  0  0  0  0  0  0  0  0  0  0  0
   -8.5878    1.4747    0.6033 C   0  0  0  0  0  0  0  0  0  0  0  0
   -7.9510    0.2038    0.2096 C   0  0  0  0  0  0  0  0  0  0  0  0
   -6.6282    0.1885    0.1839 N   0  0  0  0  0  0  0  0  0  0  0  0
   -8.6907   -0.9283   -0.1360 C   0  0  0  0  0  0  0  0  0  0  0  0
   -7.9617   -2.0470   -0.4860 C   0  0  0  0  0  0  0  0  0  0  0  0
   -6.6362   -2.0770   -0.5096 N   0  0  0  0  0  0  0  0  0  0  0  0
   -6.0229   -0.9462   -0.1763 C   0  0  0  0  0  0  0  0  0  0  0  0
   -4.6648   -0.8698   -0.1782 N   0  0  0  0  0  0  0  0  0  0  0  0
   -3.6789   -1.8037   -0.4799 C   0  0  0  0  0  0  0  0  0  0  0  0
   -2.3630   -1.3362   -0.3647 C   0  0  0  0  0  0  0  0  0  0  0  0
   -3.9181   -3.1197   -0.8733 C   0  0  0  0  0  0  0  0  0  0  0  0
   -2.8317   -3.9440   -1.1368 C   0  0  0  0  0  0  0  0  0  0  0  0
   -1.5306   -3.4965   -1.0243 C   0  0  0  0  0  0  0  0  0  0  0  0
   -1.2889   -2.1745   -0.6367 C   0  0  0  0  0  0  0  0  0  0  0  0
    0.0499   -1.7879   -0.5368 N   0  0  0  0  0  0  0  0  0  0  0  0
    0.5735   -0.5515   -0.3264 C   0  0  0  0  0  0  0  0  0  0  0  0
   -0.0999    0.4603   -0.2249 O   0  0  0  0  0  0  0  0  0  0  0  0
    2.0589   -0.5001   -0.2408 C   0  0  0  0  0  0  0  0  0  0  0  0
    2.6963    0.6947   -0.5615 C   0  0  0  0  0  0  0  0  0  0  0  0
    4.0714    0.8301   -0.4904 C   0  0  0  0  0  0  0  0  0  0  0  0
    2.8452   -1.5703    0.1849 C   0  0  0  0  0  0  0  0  0  0  0  0
    4.2167   -1.4443    0.2776 C   0  0  0  0  0  0  0  0  0  0  0  0
    4.8540   -0.2460   -0.0609 C   0  0  0  0  0  0  0  0  0  0  0  0
    6.2379   -0.2139    0.0682 N   0  0  0  0  0  0  0  0  0  0  0  0
    7.1090    0.8093   -0.1662 C   0  0  0  0  0  0  0  0  0  0  0  0
    6.7695    1.9002   -0.5820 O   0  0  0  0  0  0  0  0  0  0  0  0
    8.5446    0.4553    0.1543 C   0  0  0  0  0  0  0  0  0  0  0  0
    9.5264    1.5762   -0.1454 C   0  0  0  0  0  0  0  0  0  0  0  0
   10.9401    1.1736    0.2525 C   0  0  0  0  0  0  0  0  0  0  0  0
   11.9121    2.2388    0.0849 N   0  0  0  0  0  0  0  0  0  0  0  0
   13.1557    1.9116    0.7488 C   0  0  0  0  0  0  0  0  0  0  0  0
   12.1515    2.5560   -1.3070 C   0  0  0  0  0  0  0  0  0  0  0  0
  -10.4676    0.6063    1.2058 H   0  0  0  0  0  0  0  0  0  0  0  0
  -10.3647    4.6787    1.6396 H   0  0  0  0  0  0  0  0  0  0  0  0
   -8.0284    4.8052    0.8162 H   0  0  0  0  0  0  0  0  0  0  0  0
   -6.8761    2.6945    0.1500 H   0  0  0  0  0  0  0  0  0  0  0  0
   -9.7696   -0.9438   -0.1538 H   0  0  0  0  0  0  0  0  0  0  0  0
   -8.4671   -2.9641   -0.7669 H   0  0  0  0  0  0  0  0  0  0  0  0
   -4.3254    0.0397    0.0974 H   0  0  0  0  0  0  0  0  0  0  0  0
   -2.1955   -0.3129   -0.0667 H   0  0  0  0  0  0  0  0  0  0  0  0
   -4.9223   -3.4943   -0.9738 H   0  0  0  0  0  0  0  0  0  0  0  0
   -3.0144   -4.9667   -1.4401 H   0  0  0  0  0  0  0  0  0  0  0  0
   -0.7029   -4.1630   -1.2349 H   0  0  0  0  0  0  0  0  0  0  0  0
    0.7073   -2.5288   -0.7264 H   0  0  0  0  0  0  0  0  0  0  0  0
    2.1108    1.5442   -0.8871 H   0  0  0  0  0  0  0  0  0  0  0  0
    4.5196    1.7691   -0.7665 H   0  0  0  0  0  0  0  0  0  0  0  0
    2.4020   -2.5127    0.4812 H   0  0  0  0  0  0  0  0  0  0  0  0
    4.8022   -2.2862    0.6267 H   0  0  0  0  0  0  0  0  0  0  0  0
    6.6511   -1.0705    0.4071 H   0  0  0  0  0  0  0  0  0  0  0  0
    8.5982    0.1769    1.2125 H   0  0  0  0  0  0  0  0  0  0  0  0
    8.8174   -0.4489   -0.3998 H   0  0  0  0  0  0  0  0  0  0  0  0
    9.4774    1.8240   -1.2075 H   0  0  0  0  0  0  0  0  0  0  0  0
   10.9332    0.8952    1.3107 H   0  0  0  0  0  0  0  0  0  0  0  0
   11.2381    0.2643   -0.3010 H   0  0  0  0  0  0  0  0  0  0  0  0
   13.6488    1.0171    0.3351 H   0  0  0  0  0  0  0  0  0  0  0  0
   13.8556    2.7438    0.6617 H   0  0  0  0  0  0  0  0  0  0  0  0
   12.9807    1.7322    1.8107 H   0  0  0  0  0  0  0  0  0  0  0  0
   11.2387    2.8950   -1.7959 H   0  0  0  0  0  0  0  0  0  0  0  0
   12.8783    3.3661   -1.3826 H   0  0  0  0  0  0  0  0  0  0  0  0
   12.5419    1.7006   -1.8821 H   0  0  0  0  0  0  0  0  0  0  0  0
    9.2479    2.4778    0.4045 H   0  0  0  0  0  0  0  0  0  0  0  0
 17 16  1  0
 17 18  2  0
 22 21  2  0
 16 14  2  0
 18 19  1  0
 26 27  2  0
 26 23  1  0
 21 23  1  0
 21 20  1  0
 27 28  1  0
 23 24  2  0
 19 15  2  0
 19 20  1  0
 14 13  1  0
 14 15  1  0
 28 29  1  0
 28 25  2  0
 24 25  1  0
 31 30  2  0
 13 12  1  0
 29 30  1  0
 30 32  1  0
 12  8  2  0
 12 11  1  0
  8  7  1  0
  1  2  2  0
  1  6  1  0
  2  3  1  0
 11 10  2  0
  7  6  1  0
  7  9  2  0
  6  5  2  0
  3  4  2  0
 10  9  1  0
  5  4  1  0
 32 33  1  0
 33 34  1  0
 34 35  1  0
 35 37  1  0
 35 36  1  0
  1 38  1  0
  3 39  1  0
  4 40  1  0
  5 41  1  0
  9 42  1  0
 10 43  1  0
 13 44  1  0
 15 45  1  0
 16 46  1  0
 17 47  1  0
 18 48  1  0
 20 49  1  0
 24 50  1  0
 25 51  1  0
 26 52  1  0
 27 53  1  0
 29 54  1  0
 32 55  1  0
 32 56  1  0
 33 57  1  0
 34 58  1  0
 34 59  1  0
 36 60  1  0
 36 61  1  0
 36 62  1  0
 37 63  1  0
 37 64  1  0
 37 65  1  0
 33 66  1  0
M  END
