
     RDKit          3D

 22 21  0  0  0  0  0  0  0  0999 V2000
    2.0185   -0.1910    0.3535 C   0  0  1  0  0  0  0  0  0  0  0  0
    0.8442    0.6700   -0.1179 C   0  0  0  0  0  0  0  0  0  0  0  0
   -1.5464    0.7803   -0.4355 C   0  0  0  0  0  0  0  0  0  0  0  0
   -0.4122   -0.0510   -0.0837 N   0  0  0  0  0  0  0  0  0  0  0  0
    2.2075   -1.4256   -0.3992 N   0  0  0  0  0  0  0  0  0  0  0  0
    3.3045    0.6225    0.3175 C   0  0  0  0  0  0  0  0  0  0  0  0
   -2.8444    0.0032   -0.4563 C   0  0  0  0  0  0  0  0  0  0  0  0
   -3.1419   -0.4728    0.8370 O   0  0  0  0  0  0  0  0  0  0  0  0
    1.8184   -0.4804    1.3905 H   0  0  0  0  0  0  0  0  0  0  0  0
    0.7589    1.5356    0.5465 H   0  0  0  0  0  0  0  0  0  0  0  0
    1.0773    1.0718   -1.1206 H   0  0  0  0  0  0  0  0  0  0  0  0
   -1.6233    1.5964    0.2905 H   0  0  0  0  0  0  0  0  0  0  0  0
   -1.4367    1.2578   -1.4227 H   0  0  0  0  0  0  0  0  0  0  0  0
   -0.3655   -0.8147   -0.7490 H   0  0  0  0  0  0  0  0  0  0  0  0
    1.4097   -2.0380   -0.2844 H   0  0  0  0  0  0  0  0  0  0  0  0
    2.2703   -1.2192   -1.3904 H   0  0  0  0  0  0  0  0  0  0  0  0
    3.2104    1.5380    0.9035 H   0  0  0  0  0  0  0  0  0  0  0  0
    4.1404    0.0497    0.7193 H   0  0  0  0  0  0  0  0  0  0  0  0
    3.5567    0.9105   -0.7061 H   0  0  0  0  0  0  0  0  0  0  0  0
   -3.6307    0.6695   -0.8339 H   0  0  0  0  0  0  0  0  0  0  0  0
   -2.7589   -0.8210   -1.1788 H   0  0  0  0  0  0  0  0  0  0  0  0
   -3.9772   -0.9464    0.7936 H   0  0  0  0  0  0  0  0  0  0  0  0
  5  1  1  0
  6  1  1  0
  1  2  1  0
  2  4  1  0
  4  3  1  0
  8  7  1  0
  3  7  1  0
  1  9  1  1
  2 10  1  0
  2 11  1  0
  3 12  1  0
  3 13  1  0
  4 14  1  0
  5 15  1  0
  5 16  1  0
  6 17  1  0
  6 18  1  0
  6 19  1  0
  7 20  1  0
  7 21  1  0
  8 22  1  0
M  END
